[VMEM] WARNING: physical memory size is smaller than virtual memory size.

*** ChampSim Multicore Out-of-Order Simulator ***
Warmup Instructions: 50000000
Simulation Instructions: 100000000
Number of CPUs: 1
Page size: 4096
STLB ideal mode: off
STLB ideal fill: off
Core 0: /data0/tzh/champsim_traces/SPEC06/459.GemsFDTD-1169B.champsimtrace.xz
VBerti Prefetcher
No Crossing Page
BERTI HASH ENTANGLING
BERTI IP MASK ffff
Off-chip DRAM Size: 16 GiB Channels: 1 Width: 64-bit Data Rate: 3205 MT/s
Warmup halting CPU 0 at instruction 50000000 cycle 19093110 for remainder of phase
Warmup finished CPU 0 instructions: 50000000 cycles: 19093110 cumulative IPC: 2.619 (Simulation time: 00 hr 04 min 07 sec)
Warmup complete CPU 0 instructions: 50000000 cycles: 19093110 cumulative IPC: 2.619 (Simulation time: 00 hr 04 min 07 sec)
Simulation finished CPU 0 instructions: 100000000 cycles: 92297293 cumulative IPC: 1.083 (Simulation time: 00 hr 19 min 44 sec)
Simulation complete CPU 0 instructions: 100000000 cycles: 92297293 cumulative IPC: 1.083 (Simulation time: 00 hr 19 min 44 sec)

ChampSim completed all CPUs

=== Simulation ===
CPU 0 runs /data0/tzh/champsim_traces/SPEC06/459.GemsFDTD-1169B.champsimtrace.xz

Region of Interest Statistics

CPU 0 cumulative IPC: 1.083 instructions: 100000000 cycles: 92297293
CPU 0 Branch Prediction Accuracy: 99.96% MPKI: 0.00096 Average ROB Occupancy at Mispredict: 322.6
Branch type MPKI
BRANCH_DIRECT_JUMP: 1e-05
BRANCH_INDIRECT: 0
BRANCH_CONDITIONAL: 0.00095
BRANCH_DIRECT_CALL: 0
BRANCH_INDIRECT_CALL: 0
BRANCH_RETURN: 0

cpu0->cpu0_STLB TOTAL        ACCESS:    1358796 HIT:    1180941 MISS:     177855 MSHR_MERGE:          0
cpu0->cpu0_STLB LOAD         ACCESS:    1358796 HIT:    1180941 MISS:     177855 MSHR_MERGE:          0
cpu0->cpu0_STLB RFO          ACCESS:          0 HIT:          0 MISS:          0 MSHR_MERGE:          0
cpu0->cpu0_STLB PREFETCH     ACCESS:          0 HIT:          0 MISS:          0 MSHR_MERGE:          0
cpu0->cpu0_STLB WRITE        ACCESS:          0 HIT:          0 MISS:          0 MSHR_MERGE:          0
cpu0->cpu0_STLB TRANSLATION  ACCESS:          0 HIT:          0 MISS:          0 MSHR_MERGE:          0
cpu0->cpu0_STLB PREFETCH REQUESTED:          0 ISSUED:          0 USEFUL:          0 USELESS:          0 LATE:          0
cpu0->cpu0_STLB AVERAGE MISS LATENCY: 38.67 cycles
cpu0->cpu0_L2C TOTAL        ACCESS:    6640268 HIT:    5948704 MISS:     691564 MSHR_MERGE:       3608
cpu0->cpu0_L2C LOAD         ACCESS:    2145462 HIT:    1703258 MISS:     442204 MSHR_MERGE:        465
cpu0->cpu0_L2C RFO          ACCESS:          5 HIT:          2 MISS:          3 MSHR_MERGE:          0
cpu0->cpu0_L2C PREFETCH     ACCESS:    3860252 HIT:    3632832 MISS:     227420 MSHR_MERGE:       3143
cpu0->cpu0_L2C WRITE        ACCESS:     482998 HIT:     482947 MISS:         51 MSHR_MERGE:          0
cpu0->cpu0_L2C TRANSLATION  ACCESS:     151551 HIT:     129665 MISS:      21886 MSHR_MERGE:          0
cpu0->cpu0_L2C PREFETCH REQUESTED:     341951 ISSUED:     341921 USEFUL:       5025 USELESS:       5552 LATE:         10
cpu0->cpu0_L2C AVERAGE MISS LATENCY: 202.1 cycles
cpu0->cpu0_L1I TOTAL        ACCESS:   20581895 HIT:   20581738 MISS:        157 MSHR_MERGE:         74
cpu0->cpu0_L1I LOAD         ACCESS:   20581895 HIT:   20581738 MISS:        157 MSHR_MERGE:         74
cpu0->cpu0_L1I RFO          ACCESS:          0 HIT:          0 MISS:          0 MSHR_MERGE:          0
cpu0->cpu0_L1I PREFETCH     ACCESS:          0 HIT:          0 MISS:          0 MSHR_MERGE:          0
cpu0->cpu0_L1I WRITE        ACCESS:          0 HIT:          0 MISS:          0 MSHR_MERGE:          0
cpu0->cpu0_L1I TRANSLATION  ACCESS:          0 HIT:          0 MISS:          0 MSHR_MERGE:          0
cpu0->cpu0_L1I PREFETCH REQUESTED:          0 ISSUED:          0 USEFUL:          0 USELESS:          0 LATE:          0
cpu0->cpu0_L1I AVERAGE MISS LATENCY: 212.7 cycles
cpu0->cpu0_L1D TOTAL        ACCESS:   50553906 HIT:   44453245 MISS:    6100661 MSHR_MERGE:     284722
cpu0->cpu0_L1D LOAD         ACCESS:   40499301 HIT:   38069346 MISS:    2429955 MSHR_MERGE:     284577
cpu0->cpu0_L1D RFO          ACCESS:          0 HIT:          0 MISS:          0 MSHR_MERGE:          0
cpu0->cpu0_L1D PREFETCH     ACCESS:    6312282 HIT:    2793134 MISS:    3519148 MSHR_MERGE:        143
cpu0->cpu0_L1D WRITE        ACCESS:    3331259 HIT:    3331253 MISS:          6 MSHR_MERGE:          1
cpu0->cpu0_L1D TRANSLATION  ACCESS:     411064 HIT:     259512 MISS:     151552 MSHR_MERGE:          1
cpu0->cpu0_L1D PREFETCH REQUESTED:    6897265 ISSUED:    6312274 USEFUL:    1326691 USELESS:     361181 LATE:        191
cpu0->cpu0_L1D AVERAGE MISS LATENCY: 49.06 cycles
cpu0->cpu0_ITLB TOTAL        ACCESS:   17030405 HIT:   17030393 MISS:         12 MSHR_MERGE:         10
cpu0->cpu0_ITLB LOAD         ACCESS:   17030405 HIT:   17030393 MISS:         12 MSHR_MERGE:         10
cpu0->cpu0_ITLB RFO          ACCESS:          0 HIT:          0 MISS:          0 MSHR_MERGE:          0
cpu0->cpu0_ITLB PREFETCH     ACCESS:          0 HIT:          0 MISS:          0 MSHR_MERGE:          0
cpu0->cpu0_ITLB WRITE        ACCESS:          0 HIT:          0 MISS:          0 MSHR_MERGE:          0
cpu0->cpu0_ITLB TRANSLATION  ACCESS:          0 HIT:          0 MISS:          0 MSHR_MERGE:          0
cpu0->cpu0_ITLB PREFETCH REQUESTED:          0 ISSUED:          0 USEFUL:          0 USELESS:          0 LATE:          0
cpu0->cpu0_ITLB AVERAGE MISS LATENCY: 505 cycles
cpu0->cpu0_DTLB TOTAL        ACCESS:   47481930 HIT:   46095022 MISS:    1386908 MSHR_MERGE:      28114
cpu0->cpu0_DTLB LOAD         ACCESS:   47481930 HIT:   46095022 MISS:    1386908 MSHR_MERGE:      28114
cpu0->cpu0_DTLB RFO          ACCESS:          0 HIT:          0 MISS:          0 MSHR_MERGE:          0
cpu0->cpu0_DTLB PREFETCH     ACCESS:          0 HIT:          0 MISS:          0 MSHR_MERGE:          0
cpu0->cpu0_DTLB WRITE        ACCESS:          0 HIT:          0 MISS:          0 MSHR_MERGE:          0
cpu0->cpu0_DTLB TRANSLATION  ACCESS:          0 HIT:          0 MISS:          0 MSHR_MERGE:          0
cpu0->cpu0_DTLB PREFETCH REQUESTED:          0 ISSUED:          0 USEFUL:          0 USELESS:          0 LATE:          0
cpu0->cpu0_DTLB AVERAGE MISS LATENCY: 10.19 cycles
cpu0->LLC TOTAL        ACCESS:     712492 HIT:     129867 MISS:     582625 MSHR_MERGE:          0
cpu0->LLC LOAD         ACCESS:     441739 HIT:      17427 MISS:     424312 MSHR_MERGE:          0
cpu0->LLC RFO          ACCESS:          3 HIT:          0 MISS:          3 MSHR_MERGE:          0
cpu0->LLC PREFETCH     ACCESS:     224276 HIT:      78798 MISS:     145478 MSHR_MERGE:          0
cpu0->LLC WRITE        ACCESS:      24588 HIT:      23291 MISS:       1297 MSHR_MERGE:          0
cpu0->LLC TRANSLATION  ACCESS:      21886 HIT:      10351 MISS:      11535 MSHR_MERGE:          0
cpu0->LLC PREFETCH REQUESTED:          0 ISSUED:          0 USEFUL:          0 USELESS:          0 LATE:          0
cpu0->LLC AVERAGE MISS LATENCY: 197.7 cycles

DRAM Statistics

Channel 0 RQ ROW_BUFFER_HIT:        234
  ROW_BUFFER_MISS:     581079
  AVG DBUS CONGESTED CYCLE: 5.32
Channel 0 WQ ROW_BUFFER_HIT:        872
  ROW_BUFFER_MISS:       2556
  FULL:          0
Channel 0 REFRESHES ISSUED:       7691

[ROI Statistics]
[System Configuration]
num_cpus 1
cpu_freq 4000
fetch_width 6
decode_width 6
dispatch_width 6
execute_width 6
lq_width 2
sq_width 2
retire_width 6
scheduler_size 128
branch_mispredict_penalty 15
rob_size 352
lq_size 128
sq_size 72
ifetch_buffer_size 64
decode_buffer_size 32
dispatch_buffer_size 32
register_file_size 288
decode_latency 1
dispatch_latency 1
schedule_latency 1
execute_latency 1
page_size 4096
block_size 64
core_0_itlb_set 16
core_0_itlb_way 4
core_0_itlb_rq_size 16
core_0_itlb_wq_size 16
core_0_itlb_pq_size 0
core_0_itlb_mshr_size 8
core_0_itlb_hit_latency 1
core_0_itlb_fill_latency 1
core_0_itlb_max_tag_check 2
core_0_itlb_max_fill 2
core_0_dtlb_set 16
core_0_dtlb_way 4
core_0_dtlb_rq_size 16
core_0_dtlb_wq_size 16
core_0_dtlb_pq_size 0
core_0_dtlb_mshr_size 8
core_0_dtlb_hit_latency 1
core_0_dtlb_fill_latency 1
core_0_dtlb_max_tag_check 2
core_0_dtlb_max_fill 2
core_0_stlb_set 128
core_0_stlb_way 12
core_0_stlb_rq_size 32
core_0_stlb_wq_size 32
core_0_stlb_pq_size 0
core_0_stlb_mshr_size 16
core_0_stlb_hit_latency 4
core_0_stlb_fill_latency 4
core_0_stlb_max_tag_check 1
core_0_stlb_max_fill 1
core_0_l1i_set 64
core_0_l1i_way 8
core_0_l1i_rq_size 64
core_0_l1i_wq_size 64
core_0_l1i_pq_size 32
core_0_l1i_mshr_size 8
core_0_l1i_hit_latency 2
core_0_l1i_fill_latency 2
core_0_l1i_max_tag_check 2
core_0_l1i_max_fill 2
core_0_l1d_set 64
core_0_l1d_way 12
core_0_l1d_rq_size 64
core_0_l1d_wq_size 64
core_0_l1d_pq_size 8
core_0_l1d_mshr_size 16
core_0_l1d_hit_latency 2
core_0_l1d_fill_latency 3
core_0_l1d_max_tag_check 2
core_0_l1d_max_fill 2
core_0_l2c_set 1024
core_0_l2c_way 8
core_0_l2c_rq_size 32
core_0_l2c_wq_size 32
core_0_l2c_pq_size 16
core_0_l2c_mshr_size 32
core_0_l2c_hit_latency 5
core_0_l2c_fill_latency 5
core_0_l2c_max_tag_check 1
core_0_l2c_max_fill 1
llc_set 2048
llc_way 16
llc_rq_size 32
llc_wq_size 32
llc_pq_size 32
llc_mshr_size 64
llc_hit_latency 10
llc_fill_latency 10
llc_max_tag_check 1
llc_max_fill 1
dram_channels 1
dram_ranks 1
dram_bankgroups 8
dram_banks 4
dram_rows 65536
dram_columns 1024
dram_channel_width 8
dram_rq_size 64
dram_wq_size 64
dram_size 17179869184
core_0_itlb_prefetcher no
core_0_dtlb_prefetcher no
core_0_stlb_prefetcher no
core_0_l1i_prefetcher next_line
core_0_l1d_prefetcher vberti_nocross
core_0_l2c_prefetcher ip_stride
llc_prefetcher no
llc_replacement drrip

Core_0_instructions 100000000
Core_0_cycles 92297293
Core_0_IPC 1.08346
Core_0_branch_prediction_accuracy 99.9619
Core_0_branch_MPKI 0.00096
Core_0_average_ROB_occupancy_at_mispredict 322.562

Core_0_ITLB_total_access 17030405
Core_0_ITLB_total_hit 17030393
Core_0_ITLB_total_miss 12
Core_0_ITLB_total_MPKI 0.00012
Core_0_ITLB_total_miss_rate 7.04622e-07
Core_0_ITLB_demand_access 17030405
Core_0_ITLB_demand_hit 17030393
Core_0_ITLB_demand_miss 12
Core_0_ITLB_demand_MPKI 0.00012
Core_0_ITLB_demand_miss_rate 7.04622e-07
Core_0_ITLB_load_access 17030405
Core_0_ITLB_load_hit 17030393
Core_0_ITLB_load_miss 12
Core_0_ITLB_load_MPKI 0.00012
Core_0_ITLB_load_miss_rate 7.04622e-07
Core_0_ITLB_rfo_access 0
Core_0_ITLB_rfo_hit 0
Core_0_ITLB_rfo_miss 0
Core_0_ITLB_rfo_MPKI 0
Core_0_ITLB_rfo_miss_rate 0
Core_0_ITLB_prefetch_access 0
Core_0_ITLB_prefetch_hit 0
Core_0_ITLB_prefetch_miss 0
Core_0_ITLB_prefetch_MPKI 0
Core_0_ITLB_prefetch_miss_rate 0
Core_0_ITLB_writeback_access 0
Core_0_ITLB_writeback_hit 0
Core_0_ITLB_writeback_miss 0
Core_0_ITLB_writeback_MPKI 0
Core_0_ITLB_writeback_miss_rate 0
Core_0_ITLB_prefetch_requested 0
Core_0_ITLB_prefetch_issued 0
Core_0_ITLB_prefetch_useful 0
Core_0_ITLB_prefetch_useless 0
Core_0_ITLB_prefetch_late 0
Core_0_ITLB_prefetch_accuracy 0
Core_0_ITLB_prefetch_coverage 0
Core_0_ITLB_total_eviction 0

Core_0_DTLB_total_access 47481930
Core_0_DTLB_total_hit 46095022
Core_0_DTLB_total_miss 1386908
Core_0_DTLB_total_MPKI 13.8691
Core_0_DTLB_total_miss_rate 0.0292092
Core_0_DTLB_demand_access 47481930
Core_0_DTLB_demand_hit 46095022
Core_0_DTLB_demand_miss 1386908
Core_0_DTLB_demand_MPKI 13.8691
Core_0_DTLB_demand_miss_rate 0.0292092
Core_0_DTLB_load_access 47481930
Core_0_DTLB_load_hit 46095022
Core_0_DTLB_load_miss 1386908
Core_0_DTLB_load_MPKI 13.8691
Core_0_DTLB_load_miss_rate 0.0292092
Core_0_DTLB_rfo_access 0
Core_0_DTLB_rfo_hit 0
Core_0_DTLB_rfo_miss 0
Core_0_DTLB_rfo_MPKI 0
Core_0_DTLB_rfo_miss_rate 0
Core_0_DTLB_prefetch_access 0
Core_0_DTLB_prefetch_hit 0
Core_0_DTLB_prefetch_miss 0
Core_0_DTLB_prefetch_MPKI 0
Core_0_DTLB_prefetch_miss_rate 0
Core_0_DTLB_writeback_access 0
Core_0_DTLB_writeback_hit 0
Core_0_DTLB_writeback_miss 0
Core_0_DTLB_writeback_MPKI 0
Core_0_DTLB_writeback_miss_rate 0
Core_0_DTLB_prefetch_requested 0
Core_0_DTLB_prefetch_issued 0
Core_0_DTLB_prefetch_useful 0
Core_0_DTLB_prefetch_useless 0
Core_0_DTLB_prefetch_late 0
Core_0_DTLB_prefetch_accuracy 0
Core_0_DTLB_prefetch_coverage 0
Core_0_DTLB_total_eviction 1358794

Core_0_STLB_total_access 1358796
Core_0_STLB_total_hit 1180941
Core_0_STLB_total_miss 177855
Core_0_STLB_total_MPKI 1.77855
Core_0_STLB_total_miss_rate 0.130892
Core_0_STLB_demand_access 1358796
Core_0_STLB_demand_hit 1180941
Core_0_STLB_demand_miss 177855
Core_0_STLB_demand_MPKI 1.77855
Core_0_STLB_demand_miss_rate 0.130892
Core_0_STLB_load_access 1358796
Core_0_STLB_load_hit 1180941
Core_0_STLB_load_miss 177855
Core_0_STLB_load_MPKI 1.77855
Core_0_STLB_load_miss_rate 0.130892
Core_0_STLB_rfo_access 0
Core_0_STLB_rfo_hit 0
Core_0_STLB_rfo_miss 0
Core_0_STLB_rfo_MPKI 0
Core_0_STLB_rfo_miss_rate 0
Core_0_STLB_prefetch_access 0
Core_0_STLB_prefetch_hit 0
Core_0_STLB_prefetch_miss 0
Core_0_STLB_prefetch_MPKI 0
Core_0_STLB_prefetch_miss_rate 0
Core_0_STLB_writeback_access 0
Core_0_STLB_writeback_hit 0
Core_0_STLB_writeback_miss 0
Core_0_STLB_writeback_MPKI 0
Core_0_STLB_writeback_miss_rate 0
Core_0_STLB_prefetch_requested 0
Core_0_STLB_prefetch_issued 0
Core_0_STLB_prefetch_useful 0
Core_0_STLB_prefetch_useless 0
Core_0_STLB_prefetch_late 0
Core_0_STLB_prefetch_accuracy 0
Core_0_STLB_prefetch_coverage 0
Core_0_STLB_total_eviction 177855

Core_0_L1I_total_access 20581895
Core_0_L1I_total_hit 20581738
Core_0_L1I_total_miss 157
Core_0_L1I_total_MPKI 0.00157
Core_0_L1I_total_miss_rate 7.62806e-06
Core_0_L1I_demand_access 20581895
Core_0_L1I_demand_hit 20581738
Core_0_L1I_demand_miss 157
Core_0_L1I_demand_MPKI 0.00157
Core_0_L1I_demand_miss_rate 7.62806e-06
Core_0_L1I_load_access 20581895
Core_0_L1I_load_hit 20581738
Core_0_L1I_load_miss 157
Core_0_L1I_load_MPKI 0.00157
Core_0_L1I_load_miss_rate 7.62806e-06
Core_0_L1I_rfo_access 0
Core_0_L1I_rfo_hit 0
Core_0_L1I_rfo_miss 0
Core_0_L1I_rfo_MPKI 0
Core_0_L1I_rfo_miss_rate 0
Core_0_L1I_prefetch_access 0
Core_0_L1I_prefetch_hit 0
Core_0_L1I_prefetch_miss 0
Core_0_L1I_prefetch_MPKI 0
Core_0_L1I_prefetch_miss_rate 0
Core_0_L1I_writeback_access 0
Core_0_L1I_writeback_hit 0
Core_0_L1I_writeback_miss 0
Core_0_L1I_writeback_MPKI 0
Core_0_L1I_writeback_miss_rate 0
Core_0_L1I_prefetch_requested 0
Core_0_L1I_prefetch_issued 0
Core_0_L1I_prefetch_useful 0
Core_0_L1I_prefetch_useless 0
Core_0_L1I_prefetch_late 0
Core_0_L1I_prefetch_accuracy 0
Core_0_L1I_prefetch_coverage 0
Core_0_L1I_total_eviction 3

Core_0_L1D_total_access 50142842
Core_0_L1D_total_hit 44193733
Core_0_L1D_total_miss 5949109
Core_0_L1D_total_MPKI 59.4911
Core_0_L1D_total_miss_rate 0.118643
Core_0_L1D_demand_access 40499301
Core_0_L1D_demand_hit 38069346
Core_0_L1D_demand_miss 2429955
Core_0_L1D_demand_MPKI 24.2995
Core_0_L1D_demand_miss_rate 0.0599999
Core_0_L1D_load_access 40499301
Core_0_L1D_load_hit 38069346
Core_0_L1D_load_miss 2429955
Core_0_L1D_load_MPKI 24.2995
Core_0_L1D_load_miss_rate 0.0599999
Core_0_L1D_rfo_access 0
Core_0_L1D_rfo_hit 0
Core_0_L1D_rfo_miss 0
Core_0_L1D_rfo_MPKI 0
Core_0_L1D_rfo_miss_rate 0
Core_0_L1D_prefetch_access 6312282
Core_0_L1D_prefetch_hit 2793134
Core_0_L1D_prefetch_miss 3519148
Core_0_L1D_prefetch_MPKI 35.1915
Core_0_L1D_prefetch_miss_rate 0.557508
Core_0_L1D_writeback_access 3331259
Core_0_L1D_writeback_hit 3331253
Core_0_L1D_writeback_miss 6
Core_0_L1D_writeback_MPKI 6e-05
Core_0_L1D_writeback_miss_rate 1.80112e-06
Core_0_L1D_prefetch_requested 6897265
Core_0_L1D_prefetch_issued 6312274
Core_0_L1D_prefetch_useful 1326691
Core_0_L1D_prefetch_useless 361181
Core_0_L1D_prefetch_late 191
Core_0_L1D_prefetch_accuracy 0.210176
Core_0_L1D_prefetch_coverage 0.353158
Core_0_L1D_total_eviction 3984883

Core_0_L2C_total_access 6488717
Core_0_L2C_total_hit 5819039
Core_0_L2C_total_miss 669678
Core_0_L2C_total_MPKI 6.69678
Core_0_L2C_total_miss_rate 0.103207
Core_0_L2C_demand_access 2145467
Core_0_L2C_demand_hit 1703260
Core_0_L2C_demand_miss 442207
Core_0_L2C_demand_MPKI 4.42207
Core_0_L2C_demand_miss_rate 0.206112
Core_0_L2C_load_access 2145462
Core_0_L2C_load_hit 1703258
Core_0_L2C_load_miss 442204
Core_0_L2C_load_MPKI 4.42204
Core_0_L2C_load_miss_rate 0.206111
Core_0_L2C_rfo_access 5
Core_0_L2C_rfo_hit 2
Core_0_L2C_rfo_miss 3
Core_0_L2C_rfo_MPKI 3e-05
Core_0_L2C_rfo_miss_rate 0.6
Core_0_L2C_prefetch_access 3860252
Core_0_L2C_prefetch_hit 3632832
Core_0_L2C_prefetch_miss 227420
Core_0_L2C_prefetch_MPKI 2.2742
Core_0_L2C_prefetch_miss_rate 0.0589133
Core_0_L2C_writeback_access 482998
Core_0_L2C_writeback_hit 482947
Core_0_L2C_writeback_miss 51
Core_0_L2C_writeback_MPKI 0.00051
Core_0_L2C_writeback_miss_rate 0.00010559
Core_0_L2C_prefetch_requested 341951
Core_0_L2C_prefetch_issued 341921
Core_0_L2C_prefetch_useful 5025
Core_0_L2C_prefetch_useless 5552
Core_0_L2C_prefetch_late 10
Core_0_L2C_prefetch_accuracy 0.0146964
Core_0_L2C_prefetch_coverage 0.0112358
Core_0_L2C_total_eviction 687956

Core_0_LLC_total_access 690606
Core_0_LLC_total_hit 119516
Core_0_LLC_total_miss 571090
Core_0_LLC_total_MPKI 5.7109
Core_0_LLC_total_miss_rate 0.82694
Core_0_LLC_demand_access 441742
Core_0_LLC_demand_hit 17427
Core_0_LLC_demand_miss 424315
Core_0_LLC_demand_MPKI 4.24315
Core_0_LLC_demand_miss_rate 0.960549
Core_0_LLC_load_access 441739
Core_0_LLC_load_hit 17427
Core_0_LLC_load_miss 424312
Core_0_LLC_load_MPKI 4.24312
Core_0_LLC_load_miss_rate 0.960549
Core_0_LLC_rfo_access 3
Core_0_LLC_rfo_hit 0
Core_0_LLC_rfo_miss 3
Core_0_LLC_rfo_MPKI 3e-05
Core_0_LLC_rfo_miss_rate 1
Core_0_LLC_prefetch_access 224276
Core_0_LLC_prefetch_hit 78798
Core_0_LLC_prefetch_miss 145478
Core_0_LLC_prefetch_MPKI 1.45478
Core_0_LLC_prefetch_miss_rate 0.648656
Core_0_LLC_writeback_access 24588
Core_0_LLC_writeback_hit 23291
Core_0_LLC_writeback_miss 1297
Core_0_LLC_writeback_MPKI 0.01297
Core_0_LLC_writeback_miss_rate 0.0527493
Core_0_LLC_prefetch_requested 0
Core_0_LLC_prefetch_issued 0
Core_0_LLC_prefetch_useful 0
Core_0_LLC_prefetch_useless 0
Core_0_LLC_prefetch_late 0
Core_0_LLC_prefetch_accuracy 0
Core_0_LLC_prefetch_coverage 0
Core_0_LLC_total_eviction 582625

[DRAM Statistics]
Channel_0_RQ_row_buffer_hit 234
Channel_0_RQ_row_buffer_miss 581079
Channel_0_WQ_row_buffer_hit 872
Channel_0_WQ_row_buffer_miss 2556
Channel_0_WQ_full 0
Channel_0_dbus_congested 294667
DRAM_total_RQ_row_buffer_hit 234
DRAM_total_RQ_row_buffer_miss 581079
DRAM_total_WQ_row_buffer_hit 872
DRAM_total_WQ_row_buffer_miss 2556
DRAM_total_WQ_full 0
DRAM_total_dbus_congested 294667
DRAM_avg_congested_cycle 5.31969

======STLB miss causes ========
Core_0_STLB_miss_cause_breakdown
Core_0_STLB_cause_Demand_Data_miss 177853
Core_0_STLB_cause_Demand_Data_miss_rate 0.13089
Core_0_STLB_cause_Demand_Instruction_miss 2
Core_0_STLB_cause_Demand_Instruction_miss_rate 1.47189e-06
Core_0_STLB_cause_L1D_Prefetch_miss 0
Core_0_STLB_cause_L1D_Prefetch_miss_rate 0
Core_0_STLB_cause_L1I_Prefetch_miss 0
Core_0_STLB_cause_L1I_Prefetch_miss_rate 0
Core_0_STLB_cause_Other_miss 0
Core_0_STLB_cause_Other_miss_rate 0
Core_0_STLB_Demand_miss 177855
Core_0_STLB_Demand_miss_rate 0.130892
Core_0_STLB_L1D_Prefetch_miss 0
Core_0_STLB_L1D_Prefetch_miss_rate 0
Core_0_STLB_Other_miss 0
Core_0_STLB_Other_miss_rate 0
BERTI TO_L1: 11668016 TO_L2: 3874253 TO_L2_BC_MSHR: 29
BERTI AVG_LAT: 33.6614 NUM_TRACK_LATENCY: 5559539 NUM_CANT_TRACK_LATENCY: 1
BERTI CROSS_PAGE 16951924 NO_CROSS_PAGE: 15542269
BERTI FOUND_BERTI: 5760183 NO_FOUND_BERTI: 50343535
BERTI AVERAGE_ISSUED: 2.49667
