[VMEM] WARNING: physical memory size is smaller than virtual memory size.

*** ChampSim Multicore Out-of-Order Simulator ***
Warmup Instructions: 50000000
Simulation Instructions: 100000000
Number of CPUs: 1
Page size: 4096
STLB ideal mode: off
STLB ideal fill: off
Core 0: /data0/tzh/champsim_traces/SPEC06/471.omnetpp-188B.champsimtrace.xz
VBerti Prefetcher
No Crossing Page
BERTI HASH ENTANGLING
BERTI IP MASK ffff
Off-chip DRAM Size: 16 GiB Channels: 1 Width: 64-bit Data Rate: 3205 MT/s
Warmup halting CPU 0 at instruction 50000003 cycle 14950873 for remainder of phase
Warmup finished CPU 0 instructions: 50000003 cycles: 14950873 cumulative IPC: 3.344 (Simulation time: 00 hr 03 min 33 sec)
Warmup complete CPU 0 instructions: 50000003 cycles: 14950873 cumulative IPC: 3.344 (Simulation time: 00 hr 03 min 33 sec)
Simulation finished CPU 0 instructions: 100000002 cycles: 244019268 cumulative IPC: 0.4098 (Simulation time: 00 hr 28 min 37 sec)
Simulation complete CPU 0 instructions: 100000002 cycles: 244019268 cumulative IPC: 0.4098 (Simulation time: 00 hr 28 min 37 sec)

ChampSim completed all CPUs

=== Simulation ===
CPU 0 runs /data0/tzh/champsim_traces/SPEC06/471.omnetpp-188B.champsimtrace.xz

Region of Interest Statistics

CPU 0 cumulative IPC: 0.4098 instructions: 100000002 cycles: 244019268
CPU 0 Branch Prediction Accuracy: 97.77% MPKI: 5.363 Average ROB Occupancy at Mispredict: 108
Branch type MPKI
BRANCH_DIRECT_JUMP: 0.00032
BRANCH_INDIRECT: 0.1099
BRANCH_CONDITIONAL: 4.61
BRANCH_DIRECT_CALL: 6e-05
BRANCH_INDIRECT_CALL: 0.1131
BRANCH_RETURN: 0.5293

cpu0->cpu0_STLB TOTAL        ACCESS:    1929558 HIT:    1477503 MISS:     452055 MSHR_MERGE:          0
cpu0->cpu0_STLB LOAD         ACCESS:    1929558 HIT:    1477503 MISS:     452055 MSHR_MERGE:          0
cpu0->cpu0_STLB RFO          ACCESS:          0 HIT:          0 MISS:          0 MSHR_MERGE:          0
cpu0->cpu0_STLB PREFETCH     ACCESS:          0 HIT:          0 MISS:          0 MSHR_MERGE:          0
cpu0->cpu0_STLB WRITE        ACCESS:          0 HIT:          0 MISS:          0 MSHR_MERGE:          0
cpu0->cpu0_STLB TRANSLATION  ACCESS:          0 HIT:          0 MISS:          0 MSHR_MERGE:          0
cpu0->cpu0_STLB PREFETCH REQUESTED:          0 ISSUED:          0 USEFUL:          0 USELESS:          0 LATE:          0
cpu0->cpu0_STLB AVERAGE MISS LATENCY: 46.83 cycles
cpu0->cpu0_L2C TOTAL        ACCESS:    4061818 HIT:    1569327 MISS:    2492491 MSHR_MERGE:      96777
cpu0->cpu0_L2C LOAD         ACCESS:    2071125 HIT:     308889 MISS:    1762236 MSHR_MERGE:       6609
cpu0->cpu0_L2C RFO          ACCESS:     322573 HIT:      36011 MISS:     286562 MSHR_MERGE:        248
cpu0->cpu0_L2C PREFETCH     ACCESS:     340112 HIT:      76775 MISS:     263337 MSHR_MERGE:      89920
cpu0->cpu0_L2C WRITE        ACCESS:    1032823 HIT:    1030576 MISS:       2247 MSHR_MERGE:          0
cpu0->cpu0_L2C TRANSLATION  ACCESS:     295185 HIT:     117076 MISS:     178109 MSHR_MERGE:          0
cpu0->cpu0_L2C PREFETCH REQUESTED:      89329 ISSUED:      89329 USEFUL:      14798 USELESS:      41904 LATE:         98
cpu0->cpu0_L2C AVERAGE MISS LATENCY: 164.3 cycles
cpu0->cpu0_L1I TOTAL        ACCESS:   14364344 HIT:   14361053 MISS:       3291 MSHR_MERGE:        857
cpu0->cpu0_L1I LOAD         ACCESS:   14364344 HIT:   14361053 MISS:       3291 MSHR_MERGE:        857
cpu0->cpu0_L1I RFO          ACCESS:          0 HIT:          0 MISS:          0 MSHR_MERGE:          0
cpu0->cpu0_L1I PREFETCH     ACCESS:          0 HIT:          0 MISS:          0 MSHR_MERGE:          0
cpu0->cpu0_L1I WRITE        ACCESS:          0 HIT:          0 MISS:          0 MSHR_MERGE:          0
cpu0->cpu0_L1I TRANSLATION  ACCESS:          0 HIT:          0 MISS:          0 MSHR_MERGE:          0
cpu0->cpu0_L1I PREFETCH REQUESTED:          0 ISSUED:          0 USEFUL:          0 USELESS:          0 LATE:          0
cpu0->cpu0_L1I AVERAGE MISS LATENCY: 166 cycles
cpu0->cpu0_L1D TOTAL        ACCESS:   34363614 HIT:   29312560 MISS:    5051054 MSHR_MERGE:    2094450
cpu0->cpu0_L1D LOAD         ACCESS:   17211203 HIT:   14115717 MISS:    3095486 MSHR_MERGE:    1026791
cpu0->cpu0_L1D RFO          ACCESS:          0 HIT:          0 MISS:          0 MSHR_MERGE:          0
cpu0->cpu0_L1D PREFETCH     ACCESS:     367624 HIT:      97297 MISS:     270327 MSHR_MERGE:        205
cpu0->cpu0_L1D WRITE        ACCESS:   15871451 HIT:   14486750 MISS:    1384701 MSHR_MERGE:    1062099
cpu0->cpu0_L1D TRANSLATION  ACCESS:     913336 HIT:     612796 MISS:     300540 MSHR_MERGE:       5355
cpu0->cpu0_L1D PREFETCH REQUESTED:     410267 ISSUED:     367623 USEFUL:      25829 USELESS:      14279 LATE:        823
cpu0->cpu0_L1D AVERAGE MISS LATENCY: 145.1 cycles
cpu0->cpu0_ITLB TOTAL        ACCESS:   12635300 HIT:   12539343 MISS:      95957 MSHR_MERGE:      53261
cpu0->cpu0_ITLB LOAD         ACCESS:   12635300 HIT:   12539343 MISS:      95957 MSHR_MERGE:      53261
cpu0->cpu0_ITLB RFO          ACCESS:          0 HIT:          0 MISS:          0 MSHR_MERGE:          0
cpu0->cpu0_ITLB PREFETCH     ACCESS:          0 HIT:          0 MISS:          0 MSHR_MERGE:          0
cpu0->cpu0_ITLB WRITE        ACCESS:          0 HIT:          0 MISS:          0 MSHR_MERGE:          0
cpu0->cpu0_ITLB TRANSLATION  ACCESS:          0 HIT:          0 MISS:          0 MSHR_MERGE:          0
cpu0->cpu0_ITLB PREFETCH REQUESTED:          0 ISSUED:          0 USEFUL:          0 USELESS:          0 LATE:          0
cpu0->cpu0_ITLB AVERAGE MISS LATENCY: 5.82 cycles
cpu0->cpu0_DTLB TOTAL        ACCESS:   31897335 HIT:   29159990 MISS:    2737345 MSHR_MERGE:     850483
cpu0->cpu0_DTLB LOAD         ACCESS:   31897335 HIT:   29159990 MISS:    2737345 MSHR_MERGE:     850483
cpu0->cpu0_DTLB RFO          ACCESS:          0 HIT:          0 MISS:          0 MSHR_MERGE:          0
cpu0->cpu0_DTLB PREFETCH     ACCESS:          0 HIT:          0 MISS:          0 MSHR_MERGE:          0
cpu0->cpu0_DTLB WRITE        ACCESS:          0 HIT:          0 MISS:          0 MSHR_MERGE:          0
cpu0->cpu0_DTLB TRANSLATION  ACCESS:          0 HIT:          0 MISS:          0 MSHR_MERGE:          0
cpu0->cpu0_DTLB PREFETCH REQUESTED:          0 ISSUED:          0 USEFUL:          0 USELESS:          0 LATE:          0
cpu0->cpu0_DTLB AVERAGE MISS LATENCY: 16.44 cycles
cpu0->LLC TOTAL        ACCESS:    3290186 HIT:    1197281 MISS:    2092905 MSHR_MERGE:          0
cpu0->LLC LOAD         ACCESS:    1755627 HIT:     359320 MISS:    1396307 MSHR_MERGE:          0
cpu0->LLC RFO          ACCESS:     286313 HIT:      53491 MISS:     232822 MSHR_MERGE:          0
cpu0->LLC PREFETCH     ACCESS:     173417 HIT:      12819 MISS:     160598 MSHR_MERGE:          0
cpu0->LLC WRITE        ACCESS:     896720 HIT:     640768 MISS:     255952 MSHR_MERGE:          0
cpu0->LLC TRANSLATION  ACCESS:     178109 HIT:     130883 MISS:      47226 MSHR_MERGE:          0
cpu0->LLC PREFETCH REQUESTED:          0 ISSUED:          0 USEFUL:          0 USELESS:          0 LATE:          0
cpu0->LLC AVERAGE MISS LATENCY: 172.3 cycles

DRAM Statistics

Channel 0 RQ ROW_BUFFER_HIT:      41980
  ROW_BUFFER_MISS:    1794886
  AVG DBUS CONGESTED CYCLE: 15.87
Channel 0 WQ ROW_BUFFER_HIT:     213777
  ROW_BUFFER_MISS:     470739
  FULL:          0
Channel 0 REFRESHES ISSUED:      20335

[ROI Statistics]
[System Configuration]
num_cpus 1
cpu_freq 4000
fetch_width 6
decode_width 6
dispatch_width 6
execute_width 6
lq_width 2
sq_width 2
retire_width 6
scheduler_size 128
branch_mispredict_penalty 15
rob_size 352
lq_size 128
sq_size 72
ifetch_buffer_size 64
decode_buffer_size 32
dispatch_buffer_size 32
register_file_size 288
decode_latency 1
dispatch_latency 1
schedule_latency 1
execute_latency 1
page_size 4096
block_size 64
core_0_itlb_set 16
core_0_itlb_way 4
core_0_itlb_rq_size 16
core_0_itlb_wq_size 16
core_0_itlb_pq_size 0
core_0_itlb_mshr_size 8
core_0_itlb_hit_latency 1
core_0_itlb_fill_latency 1
core_0_itlb_max_tag_check 2
core_0_itlb_max_fill 2
core_0_dtlb_set 16
core_0_dtlb_way 4
core_0_dtlb_rq_size 16
core_0_dtlb_wq_size 16
core_0_dtlb_pq_size 0
core_0_dtlb_mshr_size 8
core_0_dtlb_hit_latency 1
core_0_dtlb_fill_latency 1
core_0_dtlb_max_tag_check 2
core_0_dtlb_max_fill 2
core_0_stlb_set 128
core_0_stlb_way 12
core_0_stlb_rq_size 32
core_0_stlb_wq_size 32
core_0_stlb_pq_size 0
core_0_stlb_mshr_size 16
core_0_stlb_hit_latency 4
core_0_stlb_fill_latency 4
core_0_stlb_max_tag_check 1
core_0_stlb_max_fill 1
core_0_l1i_set 64
core_0_l1i_way 8
core_0_l1i_rq_size 64
core_0_l1i_wq_size 64
core_0_l1i_pq_size 32
core_0_l1i_mshr_size 8
core_0_l1i_hit_latency 2
core_0_l1i_fill_latency 2
core_0_l1i_max_tag_check 2
core_0_l1i_max_fill 2
core_0_l1d_set 64
core_0_l1d_way 12
core_0_l1d_rq_size 64
core_0_l1d_wq_size 64
core_0_l1d_pq_size 8
core_0_l1d_mshr_size 16
core_0_l1d_hit_latency 2
core_0_l1d_fill_latency 3
core_0_l1d_max_tag_check 2
core_0_l1d_max_fill 2
core_0_l2c_set 1024
core_0_l2c_way 8
core_0_l2c_rq_size 32
core_0_l2c_wq_size 32
core_0_l2c_pq_size 16
core_0_l2c_mshr_size 32
core_0_l2c_hit_latency 5
core_0_l2c_fill_latency 5
core_0_l2c_max_tag_check 1
core_0_l2c_max_fill 1
llc_set 2048
llc_way 16
llc_rq_size 32
llc_wq_size 32
llc_pq_size 32
llc_mshr_size 64
llc_hit_latency 10
llc_fill_latency 10
llc_max_tag_check 1
llc_max_fill 1
dram_channels 1
dram_ranks 1
dram_bankgroups 8
dram_banks 4
dram_rows 65536
dram_columns 1024
dram_channel_width 8
dram_rq_size 64
dram_wq_size 64
dram_size 17179869184
core_0_itlb_prefetcher no
core_0_dtlb_prefetcher no
core_0_stlb_prefetcher no
core_0_l1i_prefetcher next_line
core_0_l1d_prefetcher vberti_nocross
core_0_l2c_prefetcher ip_stride
llc_prefetcher no
llc_replacement drrip

Core_0_instructions 100000002
Core_0_cycles 244019268
Core_0_IPC 0.409804
Core_0_branch_prediction_accuracy 97.7721
Core_0_branch_MPKI 5.36308
Core_0_average_ROB_occupancy_at_mispredict 108.008

Core_0_ITLB_total_access 12635300
Core_0_ITLB_total_hit 12539343
Core_0_ITLB_total_miss 95957
Core_0_ITLB_total_MPKI 0.95957
Core_0_ITLB_total_miss_rate 0.00759436
Core_0_ITLB_demand_access 12635300
Core_0_ITLB_demand_hit 12539343
Core_0_ITLB_demand_miss 95957
Core_0_ITLB_demand_MPKI 0.95957
Core_0_ITLB_demand_miss_rate 0.00759436
Core_0_ITLB_load_access 12635300
Core_0_ITLB_load_hit 12539343
Core_0_ITLB_load_miss 95957
Core_0_ITLB_load_MPKI 0.95957
Core_0_ITLB_load_miss_rate 0.00759436
Core_0_ITLB_rfo_access 0
Core_0_ITLB_rfo_hit 0
Core_0_ITLB_rfo_miss 0
Core_0_ITLB_rfo_MPKI 0
Core_0_ITLB_rfo_miss_rate 0
Core_0_ITLB_prefetch_access 0
Core_0_ITLB_prefetch_hit 0
Core_0_ITLB_prefetch_miss 0
Core_0_ITLB_prefetch_MPKI 0
Core_0_ITLB_prefetch_miss_rate 0
Core_0_ITLB_writeback_access 0
Core_0_ITLB_writeback_hit 0
Core_0_ITLB_writeback_miss 0
Core_0_ITLB_writeback_MPKI 0
Core_0_ITLB_writeback_miss_rate 0
Core_0_ITLB_prefetch_requested 0
Core_0_ITLB_prefetch_issued 0
Core_0_ITLB_prefetch_useful 0
Core_0_ITLB_prefetch_useless 0
Core_0_ITLB_prefetch_late 0
Core_0_ITLB_prefetch_accuracy 0
Core_0_ITLB_prefetch_coverage 0
Core_0_ITLB_total_eviction 42696

Core_0_DTLB_total_access 31897335
Core_0_DTLB_total_hit 29159990
Core_0_DTLB_total_miss 2737345
Core_0_DTLB_total_MPKI 27.3734
Core_0_DTLB_total_miss_rate 0.0858174
Core_0_DTLB_demand_access 31897335
Core_0_DTLB_demand_hit 29159990
Core_0_DTLB_demand_miss 2737345
Core_0_DTLB_demand_MPKI 27.3734
Core_0_DTLB_demand_miss_rate 0.0858174
Core_0_DTLB_load_access 31897335
Core_0_DTLB_load_hit 29159990
Core_0_DTLB_load_miss 2737345
Core_0_DTLB_load_MPKI 27.3734
Core_0_DTLB_load_miss_rate 0.0858174
Core_0_DTLB_rfo_access 0
Core_0_DTLB_rfo_hit 0
Core_0_DTLB_rfo_miss 0
Core_0_DTLB_rfo_MPKI 0
Core_0_DTLB_rfo_miss_rate 0
Core_0_DTLB_prefetch_access 0
Core_0_DTLB_prefetch_hit 0
Core_0_DTLB_prefetch_miss 0
Core_0_DTLB_prefetch_MPKI 0
Core_0_DTLB_prefetch_miss_rate 0
Core_0_DTLB_writeback_access 0
Core_0_DTLB_writeback_hit 0
Core_0_DTLB_writeback_miss 0
Core_0_DTLB_writeback_MPKI 0
Core_0_DTLB_writeback_miss_rate 0
Core_0_DTLB_prefetch_requested 0
Core_0_DTLB_prefetch_issued 0
Core_0_DTLB_prefetch_useful 0
Core_0_DTLB_prefetch_useless 0
Core_0_DTLB_prefetch_late 0
Core_0_DTLB_prefetch_accuracy 0
Core_0_DTLB_prefetch_coverage 0
Core_0_DTLB_total_eviction 1886862

Core_0_STLB_total_access 1929558
Core_0_STLB_total_hit 1477503
Core_0_STLB_total_miss 452055
Core_0_STLB_total_MPKI 4.52055
Core_0_STLB_total_miss_rate 0.234279
Core_0_STLB_demand_access 1929558
Core_0_STLB_demand_hit 1477503
Core_0_STLB_demand_miss 452055
Core_0_STLB_demand_MPKI 4.52055
Core_0_STLB_demand_miss_rate 0.234279
Core_0_STLB_load_access 1929558
Core_0_STLB_load_hit 1477503
Core_0_STLB_load_miss 452055
Core_0_STLB_load_MPKI 4.52055
Core_0_STLB_load_miss_rate 0.234279
Core_0_STLB_rfo_access 0
Core_0_STLB_rfo_hit 0
Core_0_STLB_rfo_miss 0
Core_0_STLB_rfo_MPKI 0
Core_0_STLB_rfo_miss_rate 0
Core_0_STLB_prefetch_access 0
Core_0_STLB_prefetch_hit 0
Core_0_STLB_prefetch_miss 0
Core_0_STLB_prefetch_MPKI 0
Core_0_STLB_prefetch_miss_rate 0
Core_0_STLB_writeback_access 0
Core_0_STLB_writeback_hit 0
Core_0_STLB_writeback_miss 0
Core_0_STLB_writeback_MPKI 0
Core_0_STLB_writeback_miss_rate 0
Core_0_STLB_prefetch_requested 0
Core_0_STLB_prefetch_issued 0
Core_0_STLB_prefetch_useful 0
Core_0_STLB_prefetch_useless 0
Core_0_STLB_prefetch_late 0
Core_0_STLB_prefetch_accuracy 0
Core_0_STLB_prefetch_coverage 0
Core_0_STLB_total_eviction 452055

Core_0_L1I_total_access 14364344
Core_0_L1I_total_hit 14361053
Core_0_L1I_total_miss 3291
Core_0_L1I_total_MPKI 0.03291
Core_0_L1I_total_miss_rate 0.000229109
Core_0_L1I_demand_access 14364344
Core_0_L1I_demand_hit 14361053
Core_0_L1I_demand_miss 3291
Core_0_L1I_demand_MPKI 0.03291
Core_0_L1I_demand_miss_rate 0.000229109
Core_0_L1I_load_access 14364344
Core_0_L1I_load_hit 14361053
Core_0_L1I_load_miss 3291
Core_0_L1I_load_MPKI 0.03291
Core_0_L1I_load_miss_rate 0.000229109
Core_0_L1I_rfo_access 0
Core_0_L1I_rfo_hit 0
Core_0_L1I_rfo_miss 0
Core_0_L1I_rfo_MPKI 0
Core_0_L1I_rfo_miss_rate 0
Core_0_L1I_prefetch_access 0
Core_0_L1I_prefetch_hit 0
Core_0_L1I_prefetch_miss 0
Core_0_L1I_prefetch_MPKI 0
Core_0_L1I_prefetch_miss_rate 0
Core_0_L1I_writeback_access 0
Core_0_L1I_writeback_hit 0
Core_0_L1I_writeback_miss 0
Core_0_L1I_writeback_MPKI 0
Core_0_L1I_writeback_miss_rate 0
Core_0_L1I_prefetch_requested 0
Core_0_L1I_prefetch_issued 0
Core_0_L1I_prefetch_useful 0
Core_0_L1I_prefetch_useless 0
Core_0_L1I_prefetch_late 0
Core_0_L1I_prefetch_accuracy 0
Core_0_L1I_prefetch_coverage 0
Core_0_L1I_total_eviction 2429

Core_0_L1D_total_access 33450278
Core_0_L1D_total_hit 28699764
Core_0_L1D_total_miss 4750514
Core_0_L1D_total_MPKI 47.5051
Core_0_L1D_total_miss_rate 0.142017
Core_0_L1D_demand_access 17211203
Core_0_L1D_demand_hit 14115717
Core_0_L1D_demand_miss 3095486
Core_0_L1D_demand_MPKI 30.9549
Core_0_L1D_demand_miss_rate 0.179853
Core_0_L1D_load_access 17211203
Core_0_L1D_load_hit 14115717
Core_0_L1D_load_miss 3095486
Core_0_L1D_load_MPKI 30.9549
Core_0_L1D_load_miss_rate 0.179853
Core_0_L1D_rfo_access 0
Core_0_L1D_rfo_hit 0
Core_0_L1D_rfo_miss 0
Core_0_L1D_rfo_MPKI 0
Core_0_L1D_rfo_miss_rate 0
Core_0_L1D_prefetch_access 367624
Core_0_L1D_prefetch_hit 97297
Core_0_L1D_prefetch_miss 270327
Core_0_L1D_prefetch_MPKI 2.70327
Core_0_L1D_prefetch_miss_rate 0.735336
Core_0_L1D_writeback_access 15871451
Core_0_L1D_writeback_hit 14486750
Core_0_L1D_writeback_miss 1384701
Core_0_L1D_writeback_MPKI 13.847
Core_0_L1D_writeback_miss_rate 0.0872448
Core_0_L1D_prefetch_requested 410267
Core_0_L1D_prefetch_issued 367623
Core_0_L1D_prefetch_useful 25829
Core_0_L1D_prefetch_useless 14279
Core_0_L1D_prefetch_late 823
Core_0_L1D_prefetch_accuracy 0.0702595
Core_0_L1D_prefetch_coverage 0.00827504
Core_0_L1D_total_eviction 2726585

Core_0_L2C_total_access 3766633
Core_0_L2C_total_hit 1452251
Core_0_L2C_total_miss 2314382
Core_0_L2C_total_MPKI 23.1438
Core_0_L2C_total_miss_rate 0.614443
Core_0_L2C_demand_access 2393698
Core_0_L2C_demand_hit 344900
Core_0_L2C_demand_miss 2048798
Core_0_L2C_demand_MPKI 20.488
Core_0_L2C_demand_miss_rate 0.855913
Core_0_L2C_load_access 2071125
Core_0_L2C_load_hit 308889
Core_0_L2C_load_miss 1762236
Core_0_L2C_load_MPKI 17.6224
Core_0_L2C_load_miss_rate 0.850859
Core_0_L2C_rfo_access 322573
Core_0_L2C_rfo_hit 36011
Core_0_L2C_rfo_miss 286562
Core_0_L2C_rfo_MPKI 2.86562
Core_0_L2C_rfo_miss_rate 0.888363
Core_0_L2C_prefetch_access 340112
Core_0_L2C_prefetch_hit 76775
Core_0_L2C_prefetch_miss 263337
Core_0_L2C_prefetch_MPKI 2.63337
Core_0_L2C_prefetch_miss_rate 0.774266
Core_0_L2C_writeback_access 1032823
Core_0_L2C_writeback_hit 1030576
Core_0_L2C_writeback_miss 2247
Core_0_L2C_writeback_MPKI 0.02247
Core_0_L2C_writeback_miss_rate 0.00217559
Core_0_L2C_prefetch_requested 89329
Core_0_L2C_prefetch_issued 89329
Core_0_L2C_prefetch_useful 14798
Core_0_L2C_prefetch_useless 41904
Core_0_L2C_prefetch_late 98
Core_0_L2C_prefetch_accuracy 0.165657
Core_0_L2C_prefetch_coverage 0.00717098
Core_0_L2C_total_eviction 2395700

Core_0_LLC_total_access 3112077
Core_0_LLC_total_hit 1066398
Core_0_LLC_total_miss 2045679
Core_0_LLC_total_MPKI 20.4568
Core_0_LLC_total_miss_rate 0.657336
Core_0_LLC_demand_access 2041940
Core_0_LLC_demand_hit 412811
Core_0_LLC_demand_miss 1629129
Core_0_LLC_demand_MPKI 16.2913
Core_0_LLC_demand_miss_rate 0.797834
Core_0_LLC_load_access 1755627
Core_0_LLC_load_hit 359320
Core_0_LLC_load_miss 1396307
Core_0_LLC_load_MPKI 13.9631
Core_0_LLC_load_miss_rate 0.795332
Core_0_LLC_rfo_access 286313
Core_0_LLC_rfo_hit 53491
Core_0_LLC_rfo_miss 232822
Core_0_LLC_rfo_MPKI 2.32822
Core_0_LLC_rfo_miss_rate 0.813173
Core_0_LLC_prefetch_access 173417
Core_0_LLC_prefetch_hit 12819
Core_0_LLC_prefetch_miss 160598
Core_0_LLC_prefetch_MPKI 1.60598
Core_0_LLC_prefetch_miss_rate 0.92608
Core_0_LLC_writeback_access 896720
Core_0_LLC_writeback_hit 640768
Core_0_LLC_writeback_miss 255952
Core_0_LLC_writeback_MPKI 2.55952
Core_0_LLC_writeback_miss_rate 0.285431
Core_0_LLC_prefetch_requested 0
Core_0_LLC_prefetch_issued 0
Core_0_LLC_prefetch_useful 0
Core_0_LLC_prefetch_useless 0
Core_0_LLC_prefetch_late 0
Core_0_LLC_prefetch_accuracy 0
Core_0_LLC_prefetch_coverage 0
Core_0_LLC_total_eviction 2092905

[DRAM Statistics]
Channel_0_RQ_row_buffer_hit 41980
Channel_0_RQ_row_buffer_miss 1794886
Channel_0_WQ_row_buffer_hit 213777
Channel_0_WQ_row_buffer_miss 470739
Channel_0_WQ_full 0
Channel_0_dbus_congested 7386431
DRAM_total_RQ_row_buffer_hit 41980
DRAM_total_RQ_row_buffer_miss 1794886
DRAM_total_WQ_row_buffer_hit 213777
DRAM_total_WQ_row_buffer_miss 470739
DRAM_total_WQ_full 0
DRAM_total_dbus_congested 7386431
DRAM_avg_congested_cycle 15.875

======STLB miss causes ========
Core_0_STLB_miss_cause_breakdown
Core_0_STLB_cause_Demand_Data_miss 451503
Core_0_STLB_cause_Demand_Data_miss_rate 0.233993
Core_0_STLB_cause_Demand_Instruction_miss 552
Core_0_STLB_cause_Demand_Instruction_miss_rate 0.000286076
Core_0_STLB_cause_L1D_Prefetch_miss 0
Core_0_STLB_cause_L1D_Prefetch_miss_rate 0
Core_0_STLB_cause_L1I_Prefetch_miss 0
Core_0_STLB_cause_L1I_Prefetch_miss_rate 0
Core_0_STLB_cause_Other_miss 0
Core_0_STLB_cause_Other_miss_rate 0
Core_0_STLB_Demand_miss 452055
Core_0_STLB_Demand_miss_rate 0.234279
Core_0_STLB_L1D_Prefetch_miss 0
Core_0_STLB_L1D_Prefetch_miss_rate 0
Core_0_STLB_Other_miss 0
Core_0_STLB_Other_miss_rate 0
BERTI TO_L1: 101466 TO_L2: 378147 TO_L2_BC_MSHR: 1
BERTI AVG_LAT: 108.163 NUM_TRACK_LATENCY: 3590964 NUM_CANT_TRACK_LATENCY: 0
BERTI CROSS_PAGE 2123514 NO_CROSS_PAGE: 479613
BERTI FOUND_BERTI: 10926244 NO_FOUND_BERTI: 34132423
BERTI AVERAGE_ISSUED: 1.32676
