[VMEM] WARNING: physical memory size is smaller than virtual memory size.

*** ChampSim Multicore Out-of-Order Simulator ***
Warmup Instructions: 50000000
Simulation Instructions: 100000000
Number of CPUs: 1
Page size: 4096
STLB ideal mode: off
STLB ideal fill: off
Core 0: /data0/tzh/champsim_traces/SPEC17/649.fotonik3d_s-10881B.champsimtrace.xz
VBerti Prefetcher
No Crossing Page
BERTI HASH ENTANGLING
BERTI IP MASK ffff
Off-chip DRAM Size: 16 GiB Channels: 1 Width: 64-bit Data Rate: 3205 MT/s
Warmup halting CPU 0 at instruction 50000003 cycle 22353644 for remainder of phase
Warmup finished CPU 0 instructions: 50000003 cycles: 22353644 cumulative IPC: 2.237 (Simulation time: 00 hr 04 min 56 sec)
Warmup complete CPU 0 instructions: 50000003 cycles: 22353644 cumulative IPC: 2.237 (Simulation time: 00 hr 04 min 56 sec)
Simulation finished CPU 0 instructions: 100000001 cycles: 118019893 cumulative IPC: 0.8473 (Simulation time: 00 hr 23 min 04 sec)
Simulation complete CPU 0 instructions: 100000001 cycles: 118019893 cumulative IPC: 0.8473 (Simulation time: 00 hr 23 min 04 sec)

ChampSim completed all CPUs

=== Simulation ===
CPU 0 runs /data0/tzh/champsim_traces/SPEC17/649.fotonik3d_s-10881B.champsimtrace.xz

Region of Interest Statistics

CPU 0 cumulative IPC: 0.8473 instructions: 100000001 cycles: 118019893
CPU 0 Branch Prediction Accuracy: 99.99% MPKI: 0.00083 Average ROB Occupancy at Mispredict: 345.8
Branch type MPKI
BRANCH_DIRECT_JUMP: 0
BRANCH_INDIRECT: 0
BRANCH_CONDITIONAL: 0.00083
BRANCH_DIRECT_CALL: 0
BRANCH_INDIRECT_CALL: 0
BRANCH_RETURN: 0

cpu0->cpu0_STLB TOTAL        ACCESS:     464476 HIT:     124877 MISS:     339599 MSHR_MERGE:          0
cpu0->cpu0_STLB LOAD         ACCESS:     464476 HIT:     124877 MISS:     339599 MSHR_MERGE:          0
cpu0->cpu0_STLB RFO          ACCESS:          0 HIT:          0 MISS:          0 MSHR_MERGE:          0
cpu0->cpu0_STLB PREFETCH     ACCESS:          0 HIT:          0 MISS:          0 MSHR_MERGE:          0
cpu0->cpu0_STLB WRITE        ACCESS:          0 HIT:          0 MISS:          0 MSHR_MERGE:          0
cpu0->cpu0_STLB TRANSLATION  ACCESS:          0 HIT:          0 MISS:          0 MSHR_MERGE:          0
cpu0->cpu0_STLB PREFETCH REQUESTED:          0 ISSUED:          0 USEFUL:          0 USELESS:          0 LATE:          0
cpu0->cpu0_STLB AVERAGE MISS LATENCY: 231.4 cycles
cpu0->cpu0_L2C TOTAL        ACCESS:    6520649 HIT:    3033305 MISS:    3487344 MSHR_MERGE:     663695
cpu0->cpu0_L2C LOAD         ACCESS:     870016 HIT:     356666 MISS:     513350 MSHR_MERGE:      41983
cpu0->cpu0_L2C RFO          ACCESS:          0 HIT:          0 MISS:          0 MSHR_MERGE:          0
cpu0->cpu0_L2C PREFETCH     ACCESS:    4630051 HIT:    1699335 MISS:    2930716 MSHR_MERGE:     621712
cpu0->cpu0_L2C WRITE        ACCESS:     971483 HIT:     971481 MISS:          2 MSHR_MERGE:          0
cpu0->cpu0_L2C TRANSLATION  ACCESS:      49099 HIT:       5823 MISS:      43276 MSHR_MERGE:          0
cpu0->cpu0_L2C PREFETCH REQUESTED:     464371 ISSUED:     464371 USEFUL:     100058 USELESS:     257007 LATE:          0
cpu0->cpu0_L2C AVERAGE MISS LATENCY: 294.6 cycles
cpu0->cpu0_L1I TOTAL        ACCESS:   21139995 HIT:   21139995 MISS:          0 MSHR_MERGE:          0
cpu0->cpu0_L1I LOAD         ACCESS:   21139995 HIT:   21139995 MISS:          0 MSHR_MERGE:          0
cpu0->cpu0_L1I RFO          ACCESS:          0 HIT:          0 MISS:          0 MSHR_MERGE:          0
cpu0->cpu0_L1I PREFETCH     ACCESS:          0 HIT:          0 MISS:          0 MSHR_MERGE:          0
cpu0->cpu0_L1I WRITE        ACCESS:          0 HIT:          0 MISS:          0 MSHR_MERGE:          0
cpu0->cpu0_L1I TRANSLATION  ACCESS:          0 HIT:          0 MISS:          0 MSHR_MERGE:          0
cpu0->cpu0_L1I PREFETCH REQUESTED:          0 ISSUED:          0 USEFUL:          0 USELESS:          0 LATE:          0
cpu0->cpu0_L1I AVERAGE MISS LATENCY: - cycles
cpu0->cpu0_L1D TOTAL        ACCESS:   50277576 HIT:   44468209 MISS:    5809367 MSHR_MERGE:     534343
cpu0->cpu0_L1D LOAD         ACCESS:   32846205 HIT:   31498933 MISS:    1347272 MSHR_MERGE:     477256
cpu0->cpu0_L1D RFO          ACCESS:          0 HIT:          0 MISS:          0 MSHR_MERGE:          0
cpu0->cpu0_L1D PREFETCH     ACCESS:   10340364 HIT:    5927368 MISS:    4412996 MSHR_MERGE:      57087
cpu0->cpu0_L1D WRITE        ACCESS:    6411306 HIT:    6411306 MISS:          0 MSHR_MERGE:          0
cpu0->cpu0_L1D TRANSLATION  ACCESS:     679701 HIT:     630602 MISS:      49099 MSHR_MERGE:          0
cpu0->cpu0_L1D PREFETCH REQUESTED:   26893160 ISSUED:   10340370 USEFUL:    1054004 USELESS:     204318 LATE:       3709
cpu0->cpu0_L1D AVERAGE MISS LATENCY: 187 cycles
cpu0->cpu0_ITLB TOTAL        ACCESS:   16471694 HIT:   16471694 MISS:          0 MSHR_MERGE:          0
cpu0->cpu0_ITLB LOAD         ACCESS:   16471694 HIT:   16471694 MISS:          0 MSHR_MERGE:          0
cpu0->cpu0_ITLB RFO          ACCESS:          0 HIT:          0 MISS:          0 MSHR_MERGE:          0
cpu0->cpu0_ITLB PREFETCH     ACCESS:          0 HIT:          0 MISS:          0 MSHR_MERGE:          0
cpu0->cpu0_ITLB WRITE        ACCESS:          0 HIT:          0 MISS:          0 MSHR_MERGE:          0
cpu0->cpu0_ITLB TRANSLATION  ACCESS:          0 HIT:          0 MISS:          0 MSHR_MERGE:          0
cpu0->cpu0_ITLB PREFETCH REQUESTED:          0 ISSUED:          0 USEFUL:          0 USELESS:          0 LATE:          0
cpu0->cpu0_ITLB AVERAGE MISS LATENCY: - cycles
cpu0->cpu0_DTLB TOTAL        ACCESS:   47375864 HIT:   46539002 MISS:     836862 MSHR_MERGE:     372386
cpu0->cpu0_DTLB LOAD         ACCESS:   47375864 HIT:   46539002 MISS:     836862 MSHR_MERGE:     372386
cpu0->cpu0_DTLB RFO          ACCESS:          0 HIT:          0 MISS:          0 MSHR_MERGE:          0
cpu0->cpu0_DTLB PREFETCH     ACCESS:          0 HIT:          0 MISS:          0 MSHR_MERGE:          0
cpu0->cpu0_DTLB WRITE        ACCESS:          0 HIT:          0 MISS:          0 MSHR_MERGE:          0
cpu0->cpu0_DTLB TRANSLATION  ACCESS:          0 HIT:          0 MISS:          0 MSHR_MERGE:          0
cpu0->cpu0_DTLB PREFETCH REQUESTED:          0 ISSUED:          0 USEFUL:          0 USELESS:          0 LATE:          0
cpu0->cpu0_DTLB AVERAGE MISS LATENCY: 174.9 cycles
cpu0->LLC TOTAL        ACCESS:    3795181 HIT:    1011629 MISS:    2783552 MSHR_MERGE:       1811
cpu0->LLC LOAD         ACCESS:     471367 HIT:      33798 MISS:     437569 MSHR_MERGE:          0
cpu0->LLC RFO          ACCESS:          0 HIT:          0 MISS:          0 MSHR_MERGE:          0
cpu0->LLC PREFETCH     ACCESS:    2308999 HIT:     121138 MISS:    2187861 MSHR_MERGE:       1811
cpu0->LLC WRITE        ACCESS:     971539 HIT:     854037 MISS:     117502 MSHR_MERGE:          0
cpu0->LLC TRANSLATION  ACCESS:      43276 HIT:       2656 MISS:      40620 MSHR_MERGE:          0
cpu0->LLC PREFETCH REQUESTED:          0 ISSUED:          0 USEFUL:          0 USELESS:          0 LATE:          0
cpu0->LLC AVERAGE MISS LATENCY: 250.2 cycles

DRAM Statistics

Channel 0 RQ ROW_BUFFER_HIT:     481613
  ROW_BUFFER_MISS:    2182618
  AVG DBUS CONGESTED CYCLE: 6.525
Channel 0 WQ ROW_BUFFER_HIT:     161026
  ROW_BUFFER_MISS:     810818
  FULL:          0
Channel 0 REFRESHES ISSUED:       9835

[ROI Statistics]
[System Configuration]
num_cpus 1
cpu_freq 4000
fetch_width 6
decode_width 6
dispatch_width 6
execute_width 6
lq_width 2
sq_width 2
retire_width 6
scheduler_size 128
branch_mispredict_penalty 15
rob_size 352
lq_size 128
sq_size 72
ifetch_buffer_size 64
decode_buffer_size 32
dispatch_buffer_size 32
register_file_size 288
decode_latency 1
dispatch_latency 1
schedule_latency 1
execute_latency 1
page_size 4096
block_size 64
core_0_itlb_set 16
core_0_itlb_way 4
core_0_itlb_rq_size 16
core_0_itlb_wq_size 16
core_0_itlb_pq_size 0
core_0_itlb_mshr_size 8
core_0_itlb_hit_latency 1
core_0_itlb_fill_latency 1
core_0_itlb_max_tag_check 2
core_0_itlb_max_fill 2
core_0_dtlb_set 16
core_0_dtlb_way 4
core_0_dtlb_rq_size 16
core_0_dtlb_wq_size 16
core_0_dtlb_pq_size 0
core_0_dtlb_mshr_size 8
core_0_dtlb_hit_latency 1
core_0_dtlb_fill_latency 1
core_0_dtlb_max_tag_check 2
core_0_dtlb_max_fill 2
core_0_stlb_set 128
core_0_stlb_way 12
core_0_stlb_rq_size 32
core_0_stlb_wq_size 32
core_0_stlb_pq_size 0
core_0_stlb_mshr_size 16
core_0_stlb_hit_latency 4
core_0_stlb_fill_latency 4
core_0_stlb_max_tag_check 1
core_0_stlb_max_fill 1
core_0_l1i_set 64
core_0_l1i_way 8
core_0_l1i_rq_size 64
core_0_l1i_wq_size 64
core_0_l1i_pq_size 32
core_0_l1i_mshr_size 8
core_0_l1i_hit_latency 2
core_0_l1i_fill_latency 2
core_0_l1i_max_tag_check 2
core_0_l1i_max_fill 2
core_0_l1d_set 64
core_0_l1d_way 12
core_0_l1d_rq_size 64
core_0_l1d_wq_size 64
core_0_l1d_pq_size 8
core_0_l1d_mshr_size 16
core_0_l1d_hit_latency 2
core_0_l1d_fill_latency 3
core_0_l1d_max_tag_check 2
core_0_l1d_max_fill 2
core_0_l2c_set 1024
core_0_l2c_way 8
core_0_l2c_rq_size 32
core_0_l2c_wq_size 32
core_0_l2c_pq_size 16
core_0_l2c_mshr_size 32
core_0_l2c_hit_latency 5
core_0_l2c_fill_latency 5
core_0_l2c_max_tag_check 1
core_0_l2c_max_fill 1
llc_set 2048
llc_way 16
llc_rq_size 32
llc_wq_size 32
llc_pq_size 32
llc_mshr_size 64
llc_hit_latency 10
llc_fill_latency 10
llc_max_tag_check 1
llc_max_fill 1
dram_channels 1
dram_ranks 1
dram_bankgroups 8
dram_banks 4
dram_rows 65536
dram_columns 1024
dram_channel_width 8
dram_rq_size 64
dram_wq_size 64
dram_size 17179869184
core_0_itlb_prefetcher no
core_0_dtlb_prefetcher no
core_0_stlb_prefetcher no
core_0_l1i_prefetcher next_line
core_0_l1d_prefetcher vberti_nocross
core_0_l2c_prefetcher ip_stride
llc_prefetcher no
llc_replacement drrip

Core_0_instructions 100000001
Core_0_cycles 118019893
Core_0_IPC 0.847315
Core_0_branch_prediction_accuracy 99.9931
Core_0_branch_MPKI 0.00083
Core_0_average_ROB_occupancy_at_mispredict 345.771

Core_0_ITLB_total_access 16471694
Core_0_ITLB_total_hit 16471694
Core_0_ITLB_total_miss 0
Core_0_ITLB_total_MPKI 0
Core_0_ITLB_total_miss_rate 0
Core_0_ITLB_demand_access 16471694
Core_0_ITLB_demand_hit 16471694
Core_0_ITLB_demand_miss 0
Core_0_ITLB_demand_MPKI 0
Core_0_ITLB_demand_miss_rate 0
Core_0_ITLB_load_access 16471694
Core_0_ITLB_load_hit 16471694
Core_0_ITLB_load_miss 0
Core_0_ITLB_load_MPKI 0
Core_0_ITLB_load_miss_rate 0
Core_0_ITLB_rfo_access 0
Core_0_ITLB_rfo_hit 0
Core_0_ITLB_rfo_miss 0
Core_0_ITLB_rfo_MPKI 0
Core_0_ITLB_rfo_miss_rate 0
Core_0_ITLB_prefetch_access 0
Core_0_ITLB_prefetch_hit 0
Core_0_ITLB_prefetch_miss 0
Core_0_ITLB_prefetch_MPKI 0
Core_0_ITLB_prefetch_miss_rate 0
Core_0_ITLB_writeback_access 0
Core_0_ITLB_writeback_hit 0
Core_0_ITLB_writeback_miss 0
Core_0_ITLB_writeback_MPKI 0
Core_0_ITLB_writeback_miss_rate 0
Core_0_ITLB_prefetch_requested 0
Core_0_ITLB_prefetch_issued 0
Core_0_ITLB_prefetch_useful 0
Core_0_ITLB_prefetch_useless 0
Core_0_ITLB_prefetch_late 0
Core_0_ITLB_prefetch_accuracy 0
Core_0_ITLB_prefetch_coverage 0
Core_0_ITLB_total_eviction 0

Core_0_DTLB_total_access 47375864
Core_0_DTLB_total_hit 46539002
Core_0_DTLB_total_miss 836862
Core_0_DTLB_total_MPKI 8.36862
Core_0_DTLB_total_miss_rate 0.0176643
Core_0_DTLB_demand_access 47375864
Core_0_DTLB_demand_hit 46539002
Core_0_DTLB_demand_miss 836862
Core_0_DTLB_demand_MPKI 8.36862
Core_0_DTLB_demand_miss_rate 0.0176643
Core_0_DTLB_load_access 47375864
Core_0_DTLB_load_hit 46539002
Core_0_DTLB_load_miss 836862
Core_0_DTLB_load_MPKI 8.36862
Core_0_DTLB_load_miss_rate 0.0176643
Core_0_DTLB_rfo_access 0
Core_0_DTLB_rfo_hit 0
Core_0_DTLB_rfo_miss 0
Core_0_DTLB_rfo_MPKI 0
Core_0_DTLB_rfo_miss_rate 0
Core_0_DTLB_prefetch_access 0
Core_0_DTLB_prefetch_hit 0
Core_0_DTLB_prefetch_miss 0
Core_0_DTLB_prefetch_MPKI 0
Core_0_DTLB_prefetch_miss_rate 0
Core_0_DTLB_writeback_access 0
Core_0_DTLB_writeback_hit 0
Core_0_DTLB_writeback_miss 0
Core_0_DTLB_writeback_MPKI 0
Core_0_DTLB_writeback_miss_rate 0
Core_0_DTLB_prefetch_requested 0
Core_0_DTLB_prefetch_issued 0
Core_0_DTLB_prefetch_useful 0
Core_0_DTLB_prefetch_useless 0
Core_0_DTLB_prefetch_late 0
Core_0_DTLB_prefetch_accuracy 0
Core_0_DTLB_prefetch_coverage 0
Core_0_DTLB_total_eviction 464477

Core_0_STLB_total_access 464476
Core_0_STLB_total_hit 124877
Core_0_STLB_total_miss 339599
Core_0_STLB_total_MPKI 3.39599
Core_0_STLB_total_miss_rate 0.731144
Core_0_STLB_demand_access 464476
Core_0_STLB_demand_hit 124877
Core_0_STLB_demand_miss 339599
Core_0_STLB_demand_MPKI 3.39599
Core_0_STLB_demand_miss_rate 0.731144
Core_0_STLB_load_access 464476
Core_0_STLB_load_hit 124877
Core_0_STLB_load_miss 339599
Core_0_STLB_load_MPKI 3.39599
Core_0_STLB_load_miss_rate 0.731144
Core_0_STLB_rfo_access 0
Core_0_STLB_rfo_hit 0
Core_0_STLB_rfo_miss 0
Core_0_STLB_rfo_MPKI 0
Core_0_STLB_rfo_miss_rate 0
Core_0_STLB_prefetch_access 0
Core_0_STLB_prefetch_hit 0
Core_0_STLB_prefetch_miss 0
Core_0_STLB_prefetch_MPKI 0
Core_0_STLB_prefetch_miss_rate 0
Core_0_STLB_writeback_access 0
Core_0_STLB_writeback_hit 0
Core_0_STLB_writeback_miss 0
Core_0_STLB_writeback_MPKI 0
Core_0_STLB_writeback_miss_rate 0
Core_0_STLB_prefetch_requested 0
Core_0_STLB_prefetch_issued 0
Core_0_STLB_prefetch_useful 0
Core_0_STLB_prefetch_useless 0
Core_0_STLB_prefetch_late 0
Core_0_STLB_prefetch_accuracy 0
Core_0_STLB_prefetch_coverage 0
Core_0_STLB_total_eviction 339600

Core_0_L1I_total_access 21139995
Core_0_L1I_total_hit 21139995
Core_0_L1I_total_miss 0
Core_0_L1I_total_MPKI 0
Core_0_L1I_total_miss_rate 0
Core_0_L1I_demand_access 21139995
Core_0_L1I_demand_hit 21139995
Core_0_L1I_demand_miss 0
Core_0_L1I_demand_MPKI 0
Core_0_L1I_demand_miss_rate 0
Core_0_L1I_load_access 21139995
Core_0_L1I_load_hit 21139995
Core_0_L1I_load_miss 0
Core_0_L1I_load_MPKI 0
Core_0_L1I_load_miss_rate 0
Core_0_L1I_rfo_access 0
Core_0_L1I_rfo_hit 0
Core_0_L1I_rfo_miss 0
Core_0_L1I_rfo_MPKI 0
Core_0_L1I_rfo_miss_rate 0
Core_0_L1I_prefetch_access 0
Core_0_L1I_prefetch_hit 0
Core_0_L1I_prefetch_miss 0
Core_0_L1I_prefetch_MPKI 0
Core_0_L1I_prefetch_miss_rate 0
Core_0_L1I_writeback_access 0
Core_0_L1I_writeback_hit 0
Core_0_L1I_writeback_miss 0
Core_0_L1I_writeback_MPKI 0
Core_0_L1I_writeback_miss_rate 0
Core_0_L1I_prefetch_requested 0
Core_0_L1I_prefetch_issued 0
Core_0_L1I_prefetch_useful 0
Core_0_L1I_prefetch_useless 0
Core_0_L1I_prefetch_late 0
Core_0_L1I_prefetch_accuracy 0
Core_0_L1I_prefetch_coverage 0
Core_0_L1I_total_eviction 0

Core_0_L1D_total_access 49597875
Core_0_L1D_total_hit 43837607
Core_0_L1D_total_miss 5760268
Core_0_L1D_total_MPKI 57.6027
Core_0_L1D_total_miss_rate 0.116139
Core_0_L1D_demand_access 32846205
Core_0_L1D_demand_hit 31498933
Core_0_L1D_demand_miss 1347272
Core_0_L1D_demand_MPKI 13.4727
Core_0_L1D_demand_miss_rate 0.0410176
Core_0_L1D_load_access 32846205
Core_0_L1D_load_hit 31498933
Core_0_L1D_load_miss 1347272
Core_0_L1D_load_MPKI 13.4727
Core_0_L1D_load_miss_rate 0.0410176
Core_0_L1D_rfo_access 0
Core_0_L1D_rfo_hit 0
Core_0_L1D_rfo_miss 0
Core_0_L1D_rfo_MPKI 0
Core_0_L1D_rfo_miss_rate 0
Core_0_L1D_prefetch_access 10340364
Core_0_L1D_prefetch_hit 5927368
Core_0_L1D_prefetch_miss 4412996
Core_0_L1D_prefetch_MPKI 44.13
Core_0_L1D_prefetch_miss_rate 0.426774
Core_0_L1D_writeback_access 6411306
Core_0_L1D_writeback_hit 6411306
Core_0_L1D_writeback_miss 0
Core_0_L1D_writeback_MPKI 0
Core_0_L1D_writeback_miss_rate 0
Core_0_L1D_prefetch_requested 26893160
Core_0_L1D_prefetch_issued 10340370
Core_0_L1D_prefetch_useful 1054004
Core_0_L1D_prefetch_useless 204318
Core_0_L1D_prefetch_late 3709
Core_0_L1D_prefetch_accuracy 0.101931
Core_0_L1D_prefetch_coverage 0.438935
Core_0_L1D_total_eviction 2177452

Core_0_L2C_total_access 6471550
Core_0_L2C_total_hit 3027482
Core_0_L2C_total_miss 3444068
Core_0_L2C_total_MPKI 34.4407
Core_0_L2C_total_miss_rate 0.532186
Core_0_L2C_demand_access 870016
Core_0_L2C_demand_hit 356666
Core_0_L2C_demand_miss 513350
Core_0_L2C_demand_MPKI 5.1335
Core_0_L2C_demand_miss_rate 0.590047
Core_0_L2C_load_access 870016
Core_0_L2C_load_hit 356666
Core_0_L2C_load_miss 513350
Core_0_L2C_load_MPKI 5.1335
Core_0_L2C_load_miss_rate 0.590047
Core_0_L2C_rfo_access 0
Core_0_L2C_rfo_hit 0
Core_0_L2C_rfo_miss 0
Core_0_L2C_rfo_MPKI 0
Core_0_L2C_rfo_miss_rate 0
Core_0_L2C_prefetch_access 4630051
Core_0_L2C_prefetch_hit 1699335
Core_0_L2C_prefetch_miss 2930716
Core_0_L2C_prefetch_MPKI 29.3072
Core_0_L2C_prefetch_miss_rate 0.632977
Core_0_L2C_writeback_access 971483
Core_0_L2C_writeback_hit 971481
Core_0_L2C_writeback_miss 2
Core_0_L2C_writeback_MPKI 2e-05
Core_0_L2C_writeback_miss_rate 2.05871e-06
Core_0_L2C_prefetch_requested 464371
Core_0_L2C_prefetch_issued 464371
Core_0_L2C_prefetch_useful 100058
Core_0_L2C_prefetch_useless 257007
Core_0_L2C_prefetch_late 0
Core_0_L2C_prefetch_accuracy 0.21547
Core_0_L2C_prefetch_coverage 0.163118
Core_0_L2C_total_eviction 2785373

Core_0_LLC_total_access 3751905
Core_0_LLC_total_hit 1008973
Core_0_LLC_total_miss 2742932
Core_0_LLC_total_MPKI 27.4293
Core_0_LLC_total_miss_rate 0.731077
Core_0_LLC_demand_access 471367
Core_0_LLC_demand_hit 33798
Core_0_LLC_demand_miss 437569
Core_0_LLC_demand_MPKI 4.37569
Core_0_LLC_demand_miss_rate 0.928298
Core_0_LLC_load_access 471367
Core_0_LLC_load_hit 33798
Core_0_LLC_load_miss 437569
Core_0_LLC_load_MPKI 4.37569
Core_0_LLC_load_miss_rate 0.928298
Core_0_LLC_rfo_access 0
Core_0_LLC_rfo_hit 0
Core_0_LLC_rfo_miss 0
Core_0_LLC_rfo_MPKI 0
Core_0_LLC_rfo_miss_rate 0
Core_0_LLC_prefetch_access 2308999
Core_0_LLC_prefetch_hit 121138
Core_0_LLC_prefetch_miss 2187861
Core_0_LLC_prefetch_MPKI 21.8786
Core_0_LLC_prefetch_miss_rate 0.947537
Core_0_LLC_writeback_access 971539
Core_0_LLC_writeback_hit 854037
Core_0_LLC_writeback_miss 117502
Core_0_LLC_writeback_MPKI 1.17502
Core_0_LLC_writeback_miss_rate 0.120944
Core_0_LLC_prefetch_requested 0
Core_0_LLC_prefetch_issued 0
Core_0_LLC_prefetch_useful 0
Core_0_LLC_prefetch_useless 0
Core_0_LLC_prefetch_late 0
Core_0_LLC_prefetch_accuracy 0
Core_0_LLC_prefetch_coverage 0
Core_0_LLC_total_eviction 2781732

[DRAM Statistics]
Channel_0_RQ_row_buffer_hit 481613
Channel_0_RQ_row_buffer_miss 2182618
Channel_0_WQ_row_buffer_hit 161026
Channel_0_WQ_row_buffer_miss 810818
Channel_0_WQ_full 0
Channel_0_dbus_congested 9614524
DRAM_total_RQ_row_buffer_hit 481613
DRAM_total_RQ_row_buffer_miss 2182618
DRAM_total_WQ_row_buffer_hit 161026
DRAM_total_WQ_row_buffer_miss 810818
DRAM_total_WQ_full 0
DRAM_total_dbus_congested 9614524
DRAM_avg_congested_cycle 6.52499

======STLB miss causes ========
Core_0_STLB_miss_cause_breakdown
Core_0_STLB_cause_Demand_Data_miss 339599
Core_0_STLB_cause_Demand_Data_miss_rate 0.731144
Core_0_STLB_cause_Demand_Instruction_miss 0
Core_0_STLB_cause_Demand_Instruction_miss_rate 0
Core_0_STLB_cause_L1D_Prefetch_miss 0
Core_0_STLB_cause_L1D_Prefetch_miss_rate 0
Core_0_STLB_cause_L1I_Prefetch_miss 0
Core_0_STLB_cause_L1I_Prefetch_miss_rate 0
Core_0_STLB_cause_Other_miss 0
Core_0_STLB_cause_Other_miss_rate 0
Core_0_STLB_Demand_miss 339599
Core_0_STLB_Demand_miss_rate 0.731144
Core_0_STLB_L1D_Prefetch_miss 0
Core_0_STLB_L1D_Prefetch_miss_rate 0
Core_0_STLB_Other_miss 0
Core_0_STLB_Other_miss_rate 0
BERTI TO_L1: 21103281 TO_L2: 17471325 TO_L2_BC_MSHR: 351458
BERTI AVG_LAT: 168.246 NUM_TRACK_LATENCY: 3138315 NUM_CANT_TRACK_LATENCY: 0
BERTI CROSS_PAGE 48942434 NO_CROSS_PAGE: 38574606
BERTI FOUND_BERTI: 23870402 NO_FOUND_BERTI: 31744344
BERTI AVERAGE_ISSUED: 1.68881
