[VMEM] WARNING: physical memory size is smaller than virtual memory size.

*** ChampSim Multicore Out-of-Order Simulator ***
Warmup Instructions: 50000000
Simulation Instructions: 100000000
Number of CPUs: 1
Page size: 4096
STLB ideal mode: off
STLB ideal fill: off
Core 0: /data2/zcq/champsim_traces_gap/bc.road-131B.champsimtrace.xz
VBerti Prefetcher
No Crossing Page
BERTI HASH ENTANGLING
BERTI IP MASK ffff
Off-chip DRAM Size: 16 GiB Channels: 1 Width: 64-bit Data Rate: 3205 MT/s
Warmup halting CPU 0 at instruction 50000000 cycle 15107630 for remainder of phase
Warmup finished CPU 0 instructions: 50000000 cycles: 15107630 cumulative IPC: 3.31 (Simulation time: 00 hr 03 min 17 sec)
Warmup complete CPU 0 instructions: 50000000 cycles: 15107630 cumulative IPC: 3.31 (Simulation time: 00 hr 03 min 17 sec)
Simulation finished CPU 0 instructions: 100000004 cycles: 616552602 cumulative IPC: 0.1622 (Simulation time: 00 hr 44 min 00 sec)
Simulation complete CPU 0 instructions: 100000004 cycles: 616552602 cumulative IPC: 0.1622 (Simulation time: 00 hr 44 min 00 sec)

ChampSim completed all CPUs

=== Simulation ===
CPU 0 runs /data2/zcq/champsim_traces_gap/bc.road-131B.champsimtrace.xz

Region of Interest Statistics

CPU 0 cumulative IPC: 0.1622 instructions: 100000004 cycles: 616552602
CPU 0 Branch Prediction Accuracy: 87.92% MPKI: 18.06 Average ROB Occupancy at Mispredict: 35.13
Branch type MPKI
BRANCH_DIRECT_JUMP: 0
BRANCH_INDIRECT: 0
BRANCH_CONDITIONAL: 18.06
BRANCH_DIRECT_CALL: 0
BRANCH_INDIRECT_CALL: 0
BRANCH_RETURN: 0

cpu0->cpu0_STLB TOTAL        ACCESS:    1495040 HIT:     647402 MISS:     847638 MSHR_MERGE:          0
cpu0->cpu0_STLB LOAD         ACCESS:    1495040 HIT:     647402 MISS:     847638 MSHR_MERGE:          0
cpu0->cpu0_STLB RFO          ACCESS:          0 HIT:          0 MISS:          0 MSHR_MERGE:          0
cpu0->cpu0_STLB PREFETCH     ACCESS:          0 HIT:          0 MISS:          0 MSHR_MERGE:          0
cpu0->cpu0_STLB WRITE        ACCESS:          0 HIT:          0 MISS:          0 MSHR_MERGE:          0
cpu0->cpu0_STLB TRANSLATION  ACCESS:          0 HIT:          0 MISS:          0 MSHR_MERGE:          0
cpu0->cpu0_STLB PREFETCH REQUESTED:          0 ISSUED:          0 USEFUL:          0 USELESS:          0 LATE:          0
cpu0->cpu0_STLB AVERAGE MISS LATENCY: 42.69 cycles
cpu0->cpu0_L2C TOTAL        ACCESS:    9463781 HIT:    3902790 MISS:    5560991 MSHR_MERGE:      66665
cpu0->cpu0_L2C LOAD         ACCESS:    4885334 HIT:     107831 MISS:    4777503 MSHR_MERGE:        517
cpu0->cpu0_L2C RFO          ACCESS:       5295 HIT:       2401 MISS:       2894 MSHR_MERGE:          0
cpu0->cpu0_L2C PREFETCH     ACCESS:    1930827 HIT:    1491523 MISS:     439304 MSHR_MERGE:      66148
cpu0->cpu0_L2C WRITE        ACCESS:    2185643 HIT:    2184493 MISS:       1150 MSHR_MERGE:          0
cpu0->cpu0_L2C TRANSLATION  ACCESS:     456682 HIT:     116542 MISS:     340140 MSHR_MERGE:          0
cpu0->cpu0_L2C PREFETCH REQUESTED:     283164 ISSUED:     275729 USEFUL:     129140 USELESS:      35150 LATE:        135
cpu0->cpu0_L2C AVERAGE MISS LATENCY: 122.1 cycles
cpu0->cpu0_L1I TOTAL        ACCESS:    4787570 HIT:    4787570 MISS:          0 MSHR_MERGE:          0
cpu0->cpu0_L1I LOAD         ACCESS:    4787570 HIT:    4787570 MISS:          0 MSHR_MERGE:          0
cpu0->cpu0_L1I RFO          ACCESS:          0 HIT:          0 MISS:          0 MSHR_MERGE:          0
cpu0->cpu0_L1I PREFETCH     ACCESS:          0 HIT:          0 MISS:          0 MSHR_MERGE:          0
cpu0->cpu0_L1I WRITE        ACCESS:          0 HIT:          0 MISS:          0 MSHR_MERGE:          0
cpu0->cpu0_L1I TRANSLATION  ACCESS:          0 HIT:          0 MISS:          0 MSHR_MERGE:          0
cpu0->cpu0_L1I PREFETCH REQUESTED:          0 ISSUED:          0 USEFUL:          0 USELESS:          0 LATE:          0
cpu0->cpu0_L1I AVERAGE MISS LATENCY: - cycles
cpu0->cpu0_L1D TOTAL        ACCESS:   87099656 HIT:   79076641 MISS:    8023015 MSHR_MERGE:    1019403
cpu0->cpu0_L1D LOAD         ACCESS:   37548719 HIT:   31705648 MISS:    5843071 MSHR_MERGE:     957725
cpu0->cpu0_L1D RFO          ACCESS:          0 HIT:          0 MISS:          0 MSHR_MERGE:          0
cpu0->cpu0_L1D PREFETCH     ACCESS:   37795883 HIT:   36138301 MISS:    1657582 MSHR_MERGE:       1293
cpu0->cpu0_L1D WRITE        ACCESS:    9953242 HIT:    9890747 MISS:      62495 MSHR_MERGE:      57200
cpu0->cpu0_L1D TRANSLATION  ACCESS:    1801812 HIT:    1341945 MISS:     459867 MSHR_MERGE:       3185
cpu0->cpu0_L1D PREFETCH REQUESTED:   80716047 ISSUED:   37795875 USEFUL:     293810 USELESS:       5242 LATE:         56
cpu0->cpu0_L1D AVERAGE MISS LATENCY: 126 cycles
cpu0->cpu0_ITLB TOTAL        ACCESS:    4786061 HIT:    4786061 MISS:          0 MSHR_MERGE:          0
cpu0->cpu0_ITLB LOAD         ACCESS:    4786061 HIT:    4786061 MISS:          0 MSHR_MERGE:          0
cpu0->cpu0_ITLB RFO          ACCESS:          0 HIT:          0 MISS:          0 MSHR_MERGE:          0
cpu0->cpu0_ITLB PREFETCH     ACCESS:          0 HIT:          0 MISS:          0 MSHR_MERGE:          0
cpu0->cpu0_ITLB WRITE        ACCESS:          0 HIT:          0 MISS:          0 MSHR_MERGE:          0
cpu0->cpu0_ITLB TRANSLATION  ACCESS:          0 HIT:          0 MISS:          0 MSHR_MERGE:          0
cpu0->cpu0_ITLB PREFETCH REQUESTED:          0 ISSUED:          0 USEFUL:          0 USELESS:          0 LATE:          0
cpu0->cpu0_ITLB AVERAGE MISS LATENCY: - cycles
cpu0->cpu0_DTLB TOTAL        ACCESS:   68751707 HIT:   66859144 MISS:    1892563 MSHR_MERGE:     397523
cpu0->cpu0_DTLB LOAD         ACCESS:   68751707 HIT:   66859144 MISS:    1892563 MSHR_MERGE:     397523
cpu0->cpu0_DTLB RFO          ACCESS:          0 HIT:          0 MISS:          0 MSHR_MERGE:          0
cpu0->cpu0_DTLB PREFETCH     ACCESS:          0 HIT:          0 MISS:          0 MSHR_MERGE:          0
cpu0->cpu0_DTLB WRITE        ACCESS:          0 HIT:          0 MISS:          0 MSHR_MERGE:          0
cpu0->cpu0_DTLB TRANSLATION  ACCESS:          0 HIT:          0 MISS:          0 MSHR_MERGE:          0
cpu0->cpu0_DTLB PREFETCH REQUESTED:          0 ISSUED:          0 USEFUL:          0 USELESS:          0 LATE:          0
cpu0->cpu0_DTLB AVERAGE MISS LATENCY: 29.77 cycles
cpu0->LLC TOTAL        ACCESS:    7637697 HIT:    4076268 MISS:    3561429 MSHR_MERGE:          0
cpu0->LLC LOAD         ACCESS:    4776986 HIT:    1979935 MISS:    2797051 MSHR_MERGE:          0
cpu0->LLC RFO          ACCESS:       2894 HIT:       1535 MISS:       1359 MSHR_MERGE:          0
cpu0->LLC PREFETCH     ACCESS:     373156 HIT:     211024 MISS:     162132 MSHR_MERGE:          0
cpu0->LLC WRITE        ACCESS:    2144521 HIT:    1624351 MISS:     520170 MSHR_MERGE:          0
cpu0->LLC TRANSLATION  ACCESS:     340140 HIT:     259423 MISS:      80717 MSHR_MERGE:          0
cpu0->LLC PREFETCH REQUESTED:          0 ISSUED:          0 USEFUL:          0 USELESS:          0 LATE:          0
cpu0->LLC AVERAGE MISS LATENCY: 161.9 cycles

DRAM Statistics

Channel 0 RQ ROW_BUFFER_HIT:      11470
  ROW_BUFFER_MISS:    3029273
  AVG DBUS CONGESTED CYCLE: 22.99
Channel 0 WQ ROW_BUFFER_HIT:     340383
  ROW_BUFFER_MISS:     385191
  FULL:          0
Channel 0 REFRESHES ISSUED:      51380

[ROI Statistics]
[System Configuration]
num_cpus 1
cpu_freq 4000
fetch_width 6
decode_width 6
dispatch_width 6
execute_width 6
lq_width 2
sq_width 2
retire_width 6
scheduler_size 128
branch_mispredict_penalty 15
rob_size 352
lq_size 128
sq_size 72
ifetch_buffer_size 64
decode_buffer_size 32
dispatch_buffer_size 32
register_file_size 288
decode_latency 1
dispatch_latency 1
schedule_latency 1
execute_latency 1
page_size 4096
block_size 64
core_0_itlb_set 16
core_0_itlb_way 4
core_0_itlb_rq_size 16
core_0_itlb_wq_size 16
core_0_itlb_pq_size 0
core_0_itlb_mshr_size 8
core_0_itlb_hit_latency 1
core_0_itlb_fill_latency 1
core_0_itlb_max_tag_check 2
core_0_itlb_max_fill 2
core_0_dtlb_set 16
core_0_dtlb_way 4
core_0_dtlb_rq_size 16
core_0_dtlb_wq_size 16
core_0_dtlb_pq_size 0
core_0_dtlb_mshr_size 8
core_0_dtlb_hit_latency 1
core_0_dtlb_fill_latency 1
core_0_dtlb_max_tag_check 2
core_0_dtlb_max_fill 2
core_0_stlb_set 128
core_0_stlb_way 12
core_0_stlb_rq_size 32
core_0_stlb_wq_size 32
core_0_stlb_pq_size 0
core_0_stlb_mshr_size 16
core_0_stlb_hit_latency 4
core_0_stlb_fill_latency 4
core_0_stlb_max_tag_check 1
core_0_stlb_max_fill 1
core_0_l1i_set 64
core_0_l1i_way 8
core_0_l1i_rq_size 64
core_0_l1i_wq_size 64
core_0_l1i_pq_size 32
core_0_l1i_mshr_size 8
core_0_l1i_hit_latency 2
core_0_l1i_fill_latency 2
core_0_l1i_max_tag_check 2
core_0_l1i_max_fill 2
core_0_l1d_set 64
core_0_l1d_way 12
core_0_l1d_rq_size 64
core_0_l1d_wq_size 64
core_0_l1d_pq_size 8
core_0_l1d_mshr_size 16
core_0_l1d_hit_latency 2
core_0_l1d_fill_latency 3
core_0_l1d_max_tag_check 2
core_0_l1d_max_fill 2
core_0_l2c_set 1024
core_0_l2c_way 8
core_0_l2c_rq_size 32
core_0_l2c_wq_size 32
core_0_l2c_pq_size 16
core_0_l2c_mshr_size 32
core_0_l2c_hit_latency 5
core_0_l2c_fill_latency 5
core_0_l2c_max_tag_check 1
core_0_l2c_max_fill 1
llc_set 2048
llc_way 16
llc_rq_size 32
llc_wq_size 32
llc_pq_size 32
llc_mshr_size 64
llc_hit_latency 10
llc_fill_latency 10
llc_max_tag_check 1
llc_max_fill 1
dram_channels 1
dram_ranks 1
dram_bankgroups 8
dram_banks 4
dram_rows 65536
dram_columns 1024
dram_channel_width 8
dram_rq_size 64
dram_wq_size 64
dram_size 17179869184
core_0_itlb_prefetcher no
core_0_dtlb_prefetcher no
core_0_stlb_prefetcher no
core_0_l1i_prefetcher next_line
core_0_l1d_prefetcher vberti_nocross
core_0_l2c_prefetcher ip_stride
llc_prefetcher no
llc_replacement drrip

Core_0_instructions 100000004
Core_0_cycles 616552602
Core_0_IPC 0.162192
Core_0_branch_prediction_accuracy 87.9215
Core_0_branch_MPKI 18.0636
Core_0_average_ROB_occupancy_at_mispredict 35.1279

Core_0_ITLB_total_access 4786061
Core_0_ITLB_total_hit 4786061
Core_0_ITLB_total_miss 0
Core_0_ITLB_total_MPKI 0
Core_0_ITLB_total_miss_rate 0
Core_0_ITLB_demand_access 4786061
Core_0_ITLB_demand_hit 4786061
Core_0_ITLB_demand_miss 0
Core_0_ITLB_demand_MPKI 0
Core_0_ITLB_demand_miss_rate 0
Core_0_ITLB_load_access 4786061
Core_0_ITLB_load_hit 4786061
Core_0_ITLB_load_miss 0
Core_0_ITLB_load_MPKI 0
Core_0_ITLB_load_miss_rate 0
Core_0_ITLB_rfo_access 0
Core_0_ITLB_rfo_hit 0
Core_0_ITLB_rfo_miss 0
Core_0_ITLB_rfo_MPKI 0
Core_0_ITLB_rfo_miss_rate 0
Core_0_ITLB_prefetch_access 0
Core_0_ITLB_prefetch_hit 0
Core_0_ITLB_prefetch_miss 0
Core_0_ITLB_prefetch_MPKI 0
Core_0_ITLB_prefetch_miss_rate 0
Core_0_ITLB_writeback_access 0
Core_0_ITLB_writeback_hit 0
Core_0_ITLB_writeback_miss 0
Core_0_ITLB_writeback_MPKI 0
Core_0_ITLB_writeback_miss_rate 0
Core_0_ITLB_prefetch_requested 0
Core_0_ITLB_prefetch_issued 0
Core_0_ITLB_prefetch_useful 0
Core_0_ITLB_prefetch_useless 0
Core_0_ITLB_prefetch_late 0
Core_0_ITLB_prefetch_accuracy 0
Core_0_ITLB_prefetch_coverage 0
Core_0_ITLB_total_eviction 0

Core_0_DTLB_total_access 68751707
Core_0_DTLB_total_hit 66859144
Core_0_DTLB_total_miss 1892563
Core_0_DTLB_total_MPKI 18.9256
Core_0_DTLB_total_miss_rate 0.0275275
Core_0_DTLB_demand_access 68751707
Core_0_DTLB_demand_hit 66859144
Core_0_DTLB_demand_miss 1892563
Core_0_DTLB_demand_MPKI 18.9256
Core_0_DTLB_demand_miss_rate 0.0275275
Core_0_DTLB_load_access 68751707
Core_0_DTLB_load_hit 66859144
Core_0_DTLB_load_miss 1892563
Core_0_DTLB_load_MPKI 18.9256
Core_0_DTLB_load_miss_rate 0.0275275
Core_0_DTLB_rfo_access 0
Core_0_DTLB_rfo_hit 0
Core_0_DTLB_rfo_miss 0
Core_0_DTLB_rfo_MPKI 0
Core_0_DTLB_rfo_miss_rate 0
Core_0_DTLB_prefetch_access 0
Core_0_DTLB_prefetch_hit 0
Core_0_DTLB_prefetch_miss 0
Core_0_DTLB_prefetch_MPKI 0
Core_0_DTLB_prefetch_miss_rate 0
Core_0_DTLB_writeback_access 0
Core_0_DTLB_writeback_hit 0
Core_0_DTLB_writeback_miss 0
Core_0_DTLB_writeback_MPKI 0
Core_0_DTLB_writeback_miss_rate 0
Core_0_DTLB_prefetch_requested 0
Core_0_DTLB_prefetch_issued 0
Core_0_DTLB_prefetch_useful 0
Core_0_DTLB_prefetch_useless 0
Core_0_DTLB_prefetch_late 0
Core_0_DTLB_prefetch_accuracy 0
Core_0_DTLB_prefetch_coverage 0
Core_0_DTLB_total_eviction 1495040

Core_0_STLB_total_access 1495040
Core_0_STLB_total_hit 647402
Core_0_STLB_total_miss 847638
Core_0_STLB_total_MPKI 8.47638
Core_0_STLB_total_miss_rate 0.566967
Core_0_STLB_demand_access 1495040
Core_0_STLB_demand_hit 647402
Core_0_STLB_demand_miss 847638
Core_0_STLB_demand_MPKI 8.47638
Core_0_STLB_demand_miss_rate 0.566967
Core_0_STLB_load_access 1495040
Core_0_STLB_load_hit 647402
Core_0_STLB_load_miss 847638
Core_0_STLB_load_MPKI 8.47638
Core_0_STLB_load_miss_rate 0.566967
Core_0_STLB_rfo_access 0
Core_0_STLB_rfo_hit 0
Core_0_STLB_rfo_miss 0
Core_0_STLB_rfo_MPKI 0
Core_0_STLB_rfo_miss_rate 0
Core_0_STLB_prefetch_access 0
Core_0_STLB_prefetch_hit 0
Core_0_STLB_prefetch_miss 0
Core_0_STLB_prefetch_MPKI 0
Core_0_STLB_prefetch_miss_rate 0
Core_0_STLB_writeback_access 0
Core_0_STLB_writeback_hit 0
Core_0_STLB_writeback_miss 0
Core_0_STLB_writeback_MPKI 0
Core_0_STLB_writeback_miss_rate 0
Core_0_STLB_prefetch_requested 0
Core_0_STLB_prefetch_issued 0
Core_0_STLB_prefetch_useful 0
Core_0_STLB_prefetch_useless 0
Core_0_STLB_prefetch_late 0
Core_0_STLB_prefetch_accuracy 0
Core_0_STLB_prefetch_coverage 0
Core_0_STLB_total_eviction 847638

Core_0_L1I_total_access 4787570
Core_0_L1I_total_hit 4787570
Core_0_L1I_total_miss 0
Core_0_L1I_total_MPKI 0
Core_0_L1I_total_miss_rate 0
Core_0_L1I_demand_access 4787570
Core_0_L1I_demand_hit 4787570
Core_0_L1I_demand_miss 0
Core_0_L1I_demand_MPKI 0
Core_0_L1I_demand_miss_rate 0
Core_0_L1I_load_access 4787570
Core_0_L1I_load_hit 4787570
Core_0_L1I_load_miss 0
Core_0_L1I_load_MPKI 0
Core_0_L1I_load_miss_rate 0
Core_0_L1I_rfo_access 0
Core_0_L1I_rfo_hit 0
Core_0_L1I_rfo_miss 0
Core_0_L1I_rfo_MPKI 0
Core_0_L1I_rfo_miss_rate 0
Core_0_L1I_prefetch_access 0
Core_0_L1I_prefetch_hit 0
Core_0_L1I_prefetch_miss 0
Core_0_L1I_prefetch_MPKI 0
Core_0_L1I_prefetch_miss_rate 0
Core_0_L1I_writeback_access 0
Core_0_L1I_writeback_hit 0
Core_0_L1I_writeback_miss 0
Core_0_L1I_writeback_MPKI 0
Core_0_L1I_writeback_miss_rate 0
Core_0_L1I_prefetch_requested 0
Core_0_L1I_prefetch_issued 0
Core_0_L1I_prefetch_useful 0
Core_0_L1I_prefetch_useless 0
Core_0_L1I_prefetch_late 0
Core_0_L1I_prefetch_accuracy 0
Core_0_L1I_prefetch_coverage 0
Core_0_L1I_total_eviction 0

Core_0_L1D_total_access 85297844
Core_0_L1D_total_hit 77734696
Core_0_L1D_total_miss 7563148
Core_0_L1D_total_MPKI 75.6315
Core_0_L1D_total_miss_rate 0.0886675
Core_0_L1D_demand_access 37548719
Core_0_L1D_demand_hit 31705648
Core_0_L1D_demand_miss 5843071
Core_0_L1D_demand_MPKI 58.4307
Core_0_L1D_demand_miss_rate 0.155613
Core_0_L1D_load_access 37548719
Core_0_L1D_load_hit 31705648
Core_0_L1D_load_miss 5843071
Core_0_L1D_load_MPKI 58.4307
Core_0_L1D_load_miss_rate 0.155613
Core_0_L1D_rfo_access 0
Core_0_L1D_rfo_hit 0
Core_0_L1D_rfo_miss 0
Core_0_L1D_rfo_MPKI 0
Core_0_L1D_rfo_miss_rate 0
Core_0_L1D_prefetch_access 37795883
Core_0_L1D_prefetch_hit 36138301
Core_0_L1D_prefetch_miss 1657582
Core_0_L1D_prefetch_MPKI 16.5758
Core_0_L1D_prefetch_miss_rate 0.0438562
Core_0_L1D_writeback_access 9953242
Core_0_L1D_writeback_hit 9890747
Core_0_L1D_writeback_miss 62495
Core_0_L1D_writeback_MPKI 0.62495
Core_0_L1D_writeback_miss_rate 0.00627886
Core_0_L1D_prefetch_requested 80716047
Core_0_L1D_prefetch_issued 37795875
Core_0_L1D_prefetch_useful 293810
Core_0_L1D_prefetch_useless 5242
Core_0_L1D_prefetch_late 56
Core_0_L1D_prefetch_accuracy 0.0077736
Core_0_L1D_prefetch_coverage 0.0478761
Core_0_L1D_total_eviction 5646380

Core_0_L2C_total_access 9007099
Core_0_L2C_total_hit 3786248
Core_0_L2C_total_miss 5220851
Core_0_L2C_total_MPKI 52.2085
Core_0_L2C_total_miss_rate 0.579637
Core_0_L2C_demand_access 4890629
Core_0_L2C_demand_hit 110232
Core_0_L2C_demand_miss 4780397
Core_0_L2C_demand_MPKI 47.804
Core_0_L2C_demand_miss_rate 0.977461
Core_0_L2C_load_access 4885334
Core_0_L2C_load_hit 107831
Core_0_L2C_load_miss 4777503
Core_0_L2C_load_MPKI 47.775
Core_0_L2C_load_miss_rate 0.977928
Core_0_L2C_rfo_access 5295
Core_0_L2C_rfo_hit 2401
Core_0_L2C_rfo_miss 2894
Core_0_L2C_rfo_MPKI 0.02894
Core_0_L2C_rfo_miss_rate 0.546553
Core_0_L2C_prefetch_access 1930827
Core_0_L2C_prefetch_hit 1491523
Core_0_L2C_prefetch_miss 439304
Core_0_L2C_prefetch_MPKI 4.39304
Core_0_L2C_prefetch_miss_rate 0.227521
Core_0_L2C_writeback_access 2185643
Core_0_L2C_writeback_hit 2184493
Core_0_L2C_writeback_miss 1150
Core_0_L2C_writeback_MPKI 0.0115
Core_0_L2C_writeback_miss_rate 0.000526161
Core_0_L2C_prefetch_requested 283164
Core_0_L2C_prefetch_issued 275729
Core_0_L2C_prefetch_useful 129140
Core_0_L2C_prefetch_useless 35150
Core_0_L2C_prefetch_late 135
Core_0_L2C_prefetch_accuracy 0.468358
Core_0_L2C_prefetch_coverage 0.0263039
Core_0_L2C_total_eviction 5494285

Core_0_LLC_total_access 7297557
Core_0_LLC_total_hit 3816845
Core_0_LLC_total_miss 3480712
Core_0_LLC_total_MPKI 34.8071
Core_0_LLC_total_miss_rate 0.476969
Core_0_LLC_demand_access 4779880
Core_0_LLC_demand_hit 1981470
Core_0_LLC_demand_miss 2798410
Core_0_LLC_demand_MPKI 27.9841
Core_0_LLC_demand_miss_rate 0.585456
Core_0_LLC_load_access 4776986
Core_0_LLC_load_hit 1979935
Core_0_LLC_load_miss 2797051
Core_0_LLC_load_MPKI 27.9705
Core_0_LLC_load_miss_rate 0.585526
Core_0_LLC_rfo_access 2894
Core_0_LLC_rfo_hit 1535
Core_0_LLC_rfo_miss 1359
Core_0_LLC_rfo_MPKI 0.01359
Core_0_LLC_rfo_miss_rate 0.469592
Core_0_LLC_prefetch_access 373156
Core_0_LLC_prefetch_hit 211024
Core_0_LLC_prefetch_miss 162132
Core_0_LLC_prefetch_MPKI 1.62132
Core_0_LLC_prefetch_miss_rate 0.434489
Core_0_LLC_writeback_access 2144521
Core_0_LLC_writeback_hit 1624351
Core_0_LLC_writeback_miss 520170
Core_0_LLC_writeback_MPKI 5.2017
Core_0_LLC_writeback_miss_rate 0.242558
Core_0_LLC_prefetch_requested 0
Core_0_LLC_prefetch_issued 0
Core_0_LLC_prefetch_useful 0
Core_0_LLC_prefetch_useless 0
Core_0_LLC_prefetch_late 0
Core_0_LLC_prefetch_accuracy 0
Core_0_LLC_prefetch_coverage 0
Core_0_LLC_total_eviction 3561429

[DRAM Statistics]
Channel_0_RQ_row_buffer_hit 11470
Channel_0_RQ_row_buffer_miss 3029273
Channel_0_WQ_row_buffer_hit 340383
Channel_0_WQ_row_buffer_miss 385191
Channel_0_WQ_full 0
Channel_0_dbus_congested 14535638
DRAM_total_RQ_row_buffer_hit 11470
DRAM_total_RQ_row_buffer_miss 3029273
DRAM_total_WQ_row_buffer_hit 340383
DRAM_total_WQ_row_buffer_miss 385191
DRAM_total_WQ_full 0
DRAM_total_dbus_congested 14535638
DRAM_avg_congested_cycle 22.9911

======STLB miss causes ========
Core_0_STLB_miss_cause_breakdown
Core_0_STLB_cause_Demand_Data_miss 847638
Core_0_STLB_cause_Demand_Data_miss_rate 0.566967
Core_0_STLB_cause_Demand_Instruction_miss 0
Core_0_STLB_cause_Demand_Instruction_miss_rate 0
Core_0_STLB_cause_L1D_Prefetch_miss 0
Core_0_STLB_cause_L1D_Prefetch_miss_rate 0
Core_0_STLB_cause_L1I_Prefetch_miss 0
Core_0_STLB_cause_L1I_Prefetch_miss_rate 0
Core_0_STLB_cause_Other_miss 0
Core_0_STLB_cause_Other_miss_rate 0
Core_0_STLB_Demand_miss 847638
Core_0_STLB_Demand_miss_rate 0.566967
Core_0_STLB_L1D_Prefetch_miss 0
Core_0_STLB_L1D_Prefetch_miss_rate 0
Core_0_STLB_Other_miss 0
Core_0_STLB_Other_miss_rate 0
BERTI TO_L1: 111061674 TO_L2: 7750318 TO_L2_BC_MSHR: 125
BERTI AVG_LAT: 88.8156 NUM_TRACK_LATENCY: 7765693 NUM_CANT_TRACK_LATENCY: 8
BERTI CROSS_PAGE 9976914 NO_CROSS_PAGE: 118811992
BERTI FOUND_BERTI: 42599644 NO_FOUND_BERTI: 18112501
BERTI AVERAGE_ISSUED: 3.1701
