[VMEM] WARNING: physical memory size is smaller than virtual memory size.

*** ChampSim Multicore Out-of-Order Simulator ***
Warmup Instructions: 50000000
Simulation Instructions: 100000000
Number of CPUs: 1
Page size: 4096
STLB ideal mode: off
STLB ideal fill: off
Core 0: /data2/zcq/champsim_traces_gap/bc.twitter-1658B.champsimtrace.xz
VBerti Prefetcher
No Crossing Page
BERTI HASH ENTANGLING
BERTI IP MASK ffff
Off-chip DRAM Size: 16 GiB Channels: 1 Width: 64-bit Data Rate: 3205 MT/s
Warmup halting CPU 0 at instruction 50000001 cycle 24243163 for remainder of phase
Warmup finished CPU 0 instructions: 50000001 cycles: 24243163 cumulative IPC: 2.062 (Simulation time: 00 hr 03 min 40 sec)
Warmup complete CPU 0 instructions: 50000001 cycles: 24243163 cumulative IPC: 2.062 (Simulation time: 00 hr 03 min 40 sec)
Simulation finished CPU 0 instructions: 100000002 cycles: 247351406 cumulative IPC: 0.4043 (Simulation time: 00 hr 25 min 12 sec)
Simulation complete CPU 0 instructions: 100000002 cycles: 247351406 cumulative IPC: 0.4043 (Simulation time: 00 hr 25 min 12 sec)

ChampSim completed all CPUs

=== Simulation ===
CPU 0 runs /data2/zcq/champsim_traces_gap/bc.twitter-1658B.champsimtrace.xz

Region of Interest Statistics

CPU 0 cumulative IPC: 0.4043 instructions: 100000002 cycles: 247351406
CPU 0 Branch Prediction Accuracy: 97.65% MPKI: 4.13 Average ROB Occupancy at Mispredict: 141.1
Branch type MPKI
BRANCH_DIRECT_JUMP: 0
BRANCH_INDIRECT: 0
BRANCH_CONDITIONAL: 4.13
BRANCH_DIRECT_CALL: 0
BRANCH_INDIRECT_CALL: 0
BRANCH_RETURN: 0

cpu0->cpu0_STLB TOTAL        ACCESS:    1016701 HIT:      29000 MISS:     987701 MSHR_MERGE:          0
cpu0->cpu0_STLB LOAD         ACCESS:    1016701 HIT:      29000 MISS:     987701 MSHR_MERGE:          0
cpu0->cpu0_STLB RFO          ACCESS:          0 HIT:          0 MISS:          0 MSHR_MERGE:          0
cpu0->cpu0_STLB PREFETCH     ACCESS:          0 HIT:          0 MISS:          0 MSHR_MERGE:          0
cpu0->cpu0_STLB WRITE        ACCESS:          0 HIT:          0 MISS:          0 MSHR_MERGE:          0
cpu0->cpu0_STLB TRANSLATION  ACCESS:          0 HIT:          0 MISS:          0 MSHR_MERGE:          0
cpu0->cpu0_STLB PREFETCH REQUESTED:          0 ISSUED:          0 USEFUL:          0 USELESS:          0 LATE:          0
cpu0->cpu0_STLB AVERAGE MISS LATENCY: 132.6 cycles
cpu0->cpu0_L2C TOTAL        ACCESS:    3930782 HIT:    1664023 MISS:    2266759 MSHR_MERGE:     123492
cpu0->cpu0_L2C LOAD         ACCESS:    1229406 HIT:      56023 MISS:    1173383 MSHR_MERGE:       1573
cpu0->cpu0_L2C RFO          ACCESS:     238198 HIT:       2193 MISS:     236005 MSHR_MERGE:         22
cpu0->cpu0_L2C PREFETCH     ACCESS:    1353650 HIT:    1033460 MISS:     320190 MSHR_MERGE:     121897
cpu0->cpu0_L2C WRITE        ACCESS:     476179 HIT:     476083 MISS:         96 MSHR_MERGE:          0
cpu0->cpu0_L2C TRANSLATION  ACCESS:     633349 HIT:      96264 MISS:     537085 MSHR_MERGE:          0
cpu0->cpu0_L2C PREFETCH REQUESTED:     213374 ISSUED:     212502 USEFUL:      44291 USELESS:      24442 LATE:        650
cpu0->cpu0_L2C AVERAGE MISS LATENCY: 214.1 cycles
cpu0->cpu0_L1I TOTAL        ACCESS:    2149062 HIT:    2149062 MISS:          0 MSHR_MERGE:          0
cpu0->cpu0_L1I LOAD         ACCESS:    2149062 HIT:    2149062 MISS:          0 MSHR_MERGE:          0
cpu0->cpu0_L1I RFO          ACCESS:          0 HIT:          0 MISS:          0 MSHR_MERGE:          0
cpu0->cpu0_L1I PREFETCH     ACCESS:          0 HIT:          0 MISS:          0 MSHR_MERGE:          0
cpu0->cpu0_L1I WRITE        ACCESS:          0 HIT:          0 MISS:          0 MSHR_MERGE:          0
cpu0->cpu0_L1I TRANSLATION  ACCESS:          0 HIT:          0 MISS:          0 MSHR_MERGE:          0
cpu0->cpu0_L1I PREFETCH REQUESTED:          0 ISSUED:          0 USEFUL:          0 USELESS:          0 LATE:          0
cpu0->cpu0_L1I AVERAGE MISS LATENCY: - cycles
cpu0->cpu0_L1D TOTAL        ACCESS:   21849896 HIT:   17000474 MISS:    4849422 MSHR_MERGE:    1598488
cpu0->cpu0_L1D LOAD         ACCESS:   10399413 HIT:    7576898 MISS:    2822515 MSHR_MERGE:    1593108
cpu0->cpu0_L1D RFO          ACCESS:          0 HIT:          0 MISS:          0 MSHR_MERGE:          0
cpu0->cpu0_L1D PREFETCH     ACCESS:    8699135 HIT:    7548551 MISS:    1150584 MSHR_MERGE:        605
cpu0->cpu0_L1D WRITE        ACCESS:     502587 HIT:     264038 MISS:     238549 MSHR_MERGE:        350
cpu0->cpu0_L1D TRANSLATION  ACCESS:    2248761 HIT:    1610987 MISS:     637774 MSHR_MERGE:       4425
cpu0->cpu0_L1D PREFETCH REQUESTED:   10210542 ISSUED:    8699143 USEFUL:      35664 USELESS:       9945 LATE:        238
cpu0->cpu0_L1D AVERAGE MISS LATENCY: 207.4 cycles
cpu0->cpu0_ITLB TOTAL        ACCESS:    2149040 HIT:    2149040 MISS:          0 MSHR_MERGE:          0
cpu0->cpu0_ITLB LOAD         ACCESS:    2149040 HIT:    2149040 MISS:          0 MSHR_MERGE:          0
cpu0->cpu0_ITLB RFO          ACCESS:          0 HIT:          0 MISS:          0 MSHR_MERGE:          0
cpu0->cpu0_ITLB PREFETCH     ACCESS:          0 HIT:          0 MISS:          0 MSHR_MERGE:          0
cpu0->cpu0_ITLB WRITE        ACCESS:          0 HIT:          0 MISS:          0 MSHR_MERGE:          0
cpu0->cpu0_ITLB TRANSLATION  ACCESS:          0 HIT:          0 MISS:          0 MSHR_MERGE:          0
cpu0->cpu0_ITLB PREFETCH REQUESTED:          0 ISSUED:          0 USEFUL:          0 USELESS:          0 LATE:          0
cpu0->cpu0_ITLB AVERAGE MISS LATENCY: - cycles
cpu0->cpu0_DTLB TOTAL        ACCESS:   14906152 HIT:   12842800 MISS:    2063352 MSHR_MERGE:    1046651
cpu0->cpu0_DTLB LOAD         ACCESS:   14906152 HIT:   12842800 MISS:    2063352 MSHR_MERGE:    1046651
cpu0->cpu0_DTLB RFO          ACCESS:          0 HIT:          0 MISS:          0 MSHR_MERGE:          0
cpu0->cpu0_DTLB PREFETCH     ACCESS:          0 HIT:          0 MISS:          0 MSHR_MERGE:          0
cpu0->cpu0_DTLB WRITE        ACCESS:          0 HIT:          0 MISS:          0 MSHR_MERGE:          0
cpu0->cpu0_DTLB TRANSLATION  ACCESS:          0 HIT:          0 MISS:          0 MSHR_MERGE:          0
cpu0->cpu0_DTLB PREFETCH REQUESTED:          0 ISSUED:          0 USEFUL:          0 USELESS:          0 LATE:          0
cpu0->cpu0_DTLB AVERAGE MISS LATENCY: 135 cycles
cpu0->LLC TOTAL        ACCESS:    2615685 HIT:     334607 MISS:    2281078 MSHR_MERGE:        762
cpu0->LLC LOAD         ACCESS:    1171810 HIT:       1024 MISS:    1170786 MSHR_MERGE:        148
cpu0->LLC RFO          ACCESS:     235983 HIT:        221 MISS:     235762 MSHR_MERGE:          0
cpu0->LLC PREFETCH     ACCESS:     198293 HIT:        229 MISS:     198064 MSHR_MERGE:        614
cpu0->LLC WRITE        ACCESS:     472514 HIT:     192066 MISS:     280448 MSHR_MERGE:          0
cpu0->LLC TRANSLATION  ACCESS:     537085 HIT:     141067 MISS:     396018 MSHR_MERGE:          0
cpu0->LLC PREFETCH REQUESTED:          0 ISSUED:          0 USEFUL:          0 USELESS:          0 LATE:          0
cpu0->LLC AVERAGE MISS LATENCY: 186.3 cycles

DRAM Statistics

Channel 0 RQ ROW_BUFFER_HIT:      19782
  ROW_BUFFER_MISS:    1980085
  AVG DBUS CONGESTED CYCLE: 9.678
Channel 0 WQ ROW_BUFFER_HIT:     146509
  ROW_BUFFER_MISS:     318568
  FULL:          0
Channel 0 REFRESHES ISSUED:      20612

[ROI Statistics]
[System Configuration]
num_cpus 1
cpu_freq 4000
fetch_width 6
decode_width 6
dispatch_width 6
execute_width 6
lq_width 2
sq_width 2
retire_width 6
scheduler_size 128
branch_mispredict_penalty 15
rob_size 352
lq_size 128
sq_size 72
ifetch_buffer_size 64
decode_buffer_size 32
dispatch_buffer_size 32
register_file_size 288
decode_latency 1
dispatch_latency 1
schedule_latency 1
execute_latency 1
page_size 4096
block_size 64
core_0_itlb_set 16
core_0_itlb_way 4
core_0_itlb_rq_size 16
core_0_itlb_wq_size 16
core_0_itlb_pq_size 0
core_0_itlb_mshr_size 8
core_0_itlb_hit_latency 1
core_0_itlb_fill_latency 1
core_0_itlb_max_tag_check 2
core_0_itlb_max_fill 2
core_0_dtlb_set 16
core_0_dtlb_way 4
core_0_dtlb_rq_size 16
core_0_dtlb_wq_size 16
core_0_dtlb_pq_size 0
core_0_dtlb_mshr_size 8
core_0_dtlb_hit_latency 1
core_0_dtlb_fill_latency 1
core_0_dtlb_max_tag_check 2
core_0_dtlb_max_fill 2
core_0_stlb_set 128
core_0_stlb_way 12
core_0_stlb_rq_size 32
core_0_stlb_wq_size 32
core_0_stlb_pq_size 0
core_0_stlb_mshr_size 16
core_0_stlb_hit_latency 4
core_0_stlb_fill_latency 4
core_0_stlb_max_tag_check 1
core_0_stlb_max_fill 1
core_0_l1i_set 64
core_0_l1i_way 8
core_0_l1i_rq_size 64
core_0_l1i_wq_size 64
core_0_l1i_pq_size 32
core_0_l1i_mshr_size 8
core_0_l1i_hit_latency 2
core_0_l1i_fill_latency 2
core_0_l1i_max_tag_check 2
core_0_l1i_max_fill 2
core_0_l1d_set 64
core_0_l1d_way 12
core_0_l1d_rq_size 64
core_0_l1d_wq_size 64
core_0_l1d_pq_size 8
core_0_l1d_mshr_size 16
core_0_l1d_hit_latency 2
core_0_l1d_fill_latency 3
core_0_l1d_max_tag_check 2
core_0_l1d_max_fill 2
core_0_l2c_set 1024
core_0_l2c_way 8
core_0_l2c_rq_size 32
core_0_l2c_wq_size 32
core_0_l2c_pq_size 16
core_0_l2c_mshr_size 32
core_0_l2c_hit_latency 5
core_0_l2c_fill_latency 5
core_0_l2c_max_tag_check 1
core_0_l2c_max_fill 1
llc_set 2048
llc_way 16
llc_rq_size 32
llc_wq_size 32
llc_pq_size 32
llc_mshr_size 64
llc_hit_latency 10
llc_fill_latency 10
llc_max_tag_check 1
llc_max_fill 1
dram_channels 1
dram_ranks 1
dram_bankgroups 8
dram_banks 4
dram_rows 65536
dram_columns 1024
dram_channel_width 8
dram_rq_size 64
dram_wq_size 64
dram_size 17179869184
core_0_itlb_prefetcher no
core_0_dtlb_prefetcher no
core_0_stlb_prefetcher no
core_0_l1i_prefetcher next_line
core_0_l1d_prefetcher vberti_nocross
core_0_l2c_prefetcher ip_stride
llc_prefetcher no
llc_replacement drrip

Core_0_instructions 100000002
Core_0_cycles 247351406
Core_0_IPC 0.404283
Core_0_branch_prediction_accuracy 97.6526
Core_0_branch_MPKI 4.12963
Core_0_average_ROB_occupancy_at_mispredict 141.137

Core_0_ITLB_total_access 2149040
Core_0_ITLB_total_hit 2149040
Core_0_ITLB_total_miss 0
Core_0_ITLB_total_MPKI 0
Core_0_ITLB_total_miss_rate 0
Core_0_ITLB_demand_access 2149040
Core_0_ITLB_demand_hit 2149040
Core_0_ITLB_demand_miss 0
Core_0_ITLB_demand_MPKI 0
Core_0_ITLB_demand_miss_rate 0
Core_0_ITLB_load_access 2149040
Core_0_ITLB_load_hit 2149040
Core_0_ITLB_load_miss 0
Core_0_ITLB_load_MPKI 0
Core_0_ITLB_load_miss_rate 0
Core_0_ITLB_rfo_access 0
Core_0_ITLB_rfo_hit 0
Core_0_ITLB_rfo_miss 0
Core_0_ITLB_rfo_MPKI 0
Core_0_ITLB_rfo_miss_rate 0
Core_0_ITLB_prefetch_access 0
Core_0_ITLB_prefetch_hit 0
Core_0_ITLB_prefetch_miss 0
Core_0_ITLB_prefetch_MPKI 0
Core_0_ITLB_prefetch_miss_rate 0
Core_0_ITLB_writeback_access 0
Core_0_ITLB_writeback_hit 0
Core_0_ITLB_writeback_miss 0
Core_0_ITLB_writeback_MPKI 0
Core_0_ITLB_writeback_miss_rate 0
Core_0_ITLB_prefetch_requested 0
Core_0_ITLB_prefetch_issued 0
Core_0_ITLB_prefetch_useful 0
Core_0_ITLB_prefetch_useless 0
Core_0_ITLB_prefetch_late 0
Core_0_ITLB_prefetch_accuracy 0
Core_0_ITLB_prefetch_coverage 0
Core_0_ITLB_total_eviction 0

Core_0_DTLB_total_access 14906152
Core_0_DTLB_total_hit 12842800
Core_0_DTLB_total_miss 2063352
Core_0_DTLB_total_MPKI 20.6335
Core_0_DTLB_total_miss_rate 0.138423
Core_0_DTLB_demand_access 14906152
Core_0_DTLB_demand_hit 12842800
Core_0_DTLB_demand_miss 2063352
Core_0_DTLB_demand_MPKI 20.6335
Core_0_DTLB_demand_miss_rate 0.138423
Core_0_DTLB_load_access 14906152
Core_0_DTLB_load_hit 12842800
Core_0_DTLB_load_miss 2063352
Core_0_DTLB_load_MPKI 20.6335
Core_0_DTLB_load_miss_rate 0.138423
Core_0_DTLB_rfo_access 0
Core_0_DTLB_rfo_hit 0
Core_0_DTLB_rfo_miss 0
Core_0_DTLB_rfo_MPKI 0
Core_0_DTLB_rfo_miss_rate 0
Core_0_DTLB_prefetch_access 0
Core_0_DTLB_prefetch_hit 0
Core_0_DTLB_prefetch_miss 0
Core_0_DTLB_prefetch_MPKI 0
Core_0_DTLB_prefetch_miss_rate 0
Core_0_DTLB_writeback_access 0
Core_0_DTLB_writeback_hit 0
Core_0_DTLB_writeback_miss 0
Core_0_DTLB_writeback_MPKI 0
Core_0_DTLB_writeback_miss_rate 0
Core_0_DTLB_prefetch_requested 0
Core_0_DTLB_prefetch_issued 0
Core_0_DTLB_prefetch_useful 0
Core_0_DTLB_prefetch_useless 0
Core_0_DTLB_prefetch_late 0
Core_0_DTLB_prefetch_accuracy 0
Core_0_DTLB_prefetch_coverage 0
Core_0_DTLB_total_eviction 1016701

Core_0_STLB_total_access 1016701
Core_0_STLB_total_hit 29000
Core_0_STLB_total_miss 987701
Core_0_STLB_total_MPKI 9.87701
Core_0_STLB_total_miss_rate 0.971476
Core_0_STLB_demand_access 1016701
Core_0_STLB_demand_hit 29000
Core_0_STLB_demand_miss 987701
Core_0_STLB_demand_MPKI 9.87701
Core_0_STLB_demand_miss_rate 0.971476
Core_0_STLB_load_access 1016701
Core_0_STLB_load_hit 29000
Core_0_STLB_load_miss 987701
Core_0_STLB_load_MPKI 9.87701
Core_0_STLB_load_miss_rate 0.971476
Core_0_STLB_rfo_access 0
Core_0_STLB_rfo_hit 0
Core_0_STLB_rfo_miss 0
Core_0_STLB_rfo_MPKI 0
Core_0_STLB_rfo_miss_rate 0
Core_0_STLB_prefetch_access 0
Core_0_STLB_prefetch_hit 0
Core_0_STLB_prefetch_miss 0
Core_0_STLB_prefetch_MPKI 0
Core_0_STLB_prefetch_miss_rate 0
Core_0_STLB_writeback_access 0
Core_0_STLB_writeback_hit 0
Core_0_STLB_writeback_miss 0
Core_0_STLB_writeback_MPKI 0
Core_0_STLB_writeback_miss_rate 0
Core_0_STLB_prefetch_requested 0
Core_0_STLB_prefetch_issued 0
Core_0_STLB_prefetch_useful 0
Core_0_STLB_prefetch_useless 0
Core_0_STLB_prefetch_late 0
Core_0_STLB_prefetch_accuracy 0
Core_0_STLB_prefetch_coverage 0
Core_0_STLB_total_eviction 987701

Core_0_L1I_total_access 2149062
Core_0_L1I_total_hit 2149062
Core_0_L1I_total_miss 0
Core_0_L1I_total_MPKI 0
Core_0_L1I_total_miss_rate 0
Core_0_L1I_demand_access 2149062
Core_0_L1I_demand_hit 2149062
Core_0_L1I_demand_miss 0
Core_0_L1I_demand_MPKI 0
Core_0_L1I_demand_miss_rate 0
Core_0_L1I_load_access 2149062
Core_0_L1I_load_hit 2149062
Core_0_L1I_load_miss 0
Core_0_L1I_load_MPKI 0
Core_0_L1I_load_miss_rate 0
Core_0_L1I_rfo_access 0
Core_0_L1I_rfo_hit 0
Core_0_L1I_rfo_miss 0
Core_0_L1I_rfo_MPKI 0
Core_0_L1I_rfo_miss_rate 0
Core_0_L1I_prefetch_access 0
Core_0_L1I_prefetch_hit 0
Core_0_L1I_prefetch_miss 0
Core_0_L1I_prefetch_MPKI 0
Core_0_L1I_prefetch_miss_rate 0
Core_0_L1I_writeback_access 0
Core_0_L1I_writeback_hit 0
Core_0_L1I_writeback_miss 0
Core_0_L1I_writeback_MPKI 0
Core_0_L1I_writeback_miss_rate 0
Core_0_L1I_prefetch_requested 0
Core_0_L1I_prefetch_issued 0
Core_0_L1I_prefetch_useful 0
Core_0_L1I_prefetch_useless 0
Core_0_L1I_prefetch_late 0
Core_0_L1I_prefetch_accuracy 0
Core_0_L1I_prefetch_coverage 0
Core_0_L1I_total_eviction 0

Core_0_L1D_total_access 19601135
Core_0_L1D_total_hit 15389487
Core_0_L1D_total_miss 4211648
Core_0_L1D_total_MPKI 42.1165
Core_0_L1D_total_miss_rate 0.214868
Core_0_L1D_demand_access 10399413
Core_0_L1D_demand_hit 7576898
Core_0_L1D_demand_miss 2822515
Core_0_L1D_demand_MPKI 28.2251
Core_0_L1D_demand_miss_rate 0.271411
Core_0_L1D_load_access 10399413
Core_0_L1D_load_hit 7576898
Core_0_L1D_load_miss 2822515
Core_0_L1D_load_MPKI 28.2251
Core_0_L1D_load_miss_rate 0.271411
Core_0_L1D_rfo_access 0
Core_0_L1D_rfo_hit 0
Core_0_L1D_rfo_miss 0
Core_0_L1D_rfo_MPKI 0
Core_0_L1D_rfo_miss_rate 0
Core_0_L1D_prefetch_access 8699135
Core_0_L1D_prefetch_hit 7548551
Core_0_L1D_prefetch_miss 1150584
Core_0_L1D_prefetch_MPKI 11.5058
Core_0_L1D_prefetch_miss_rate 0.132264
Core_0_L1D_writeback_access 502587
Core_0_L1D_writeback_hit 264038
Core_0_L1D_writeback_miss 238549
Core_0_L1D_writeback_MPKI 2.38549
Core_0_L1D_writeback_miss_rate 0.474642
Core_0_L1D_prefetch_requested 10210542
Core_0_L1D_prefetch_issued 8699143
Core_0_L1D_prefetch_useful 35664
Core_0_L1D_prefetch_useless 9945
Core_0_L1D_prefetch_late 238
Core_0_L1D_prefetch_accuracy 0.00409971
Core_0_L1D_prefetch_coverage 0.0124779
Core_0_L1D_total_eviction 2146616

Core_0_L2C_total_access 3297433
Core_0_L2C_total_hit 1567759
Core_0_L2C_total_miss 1729674
Core_0_L2C_total_MPKI 17.2967
Core_0_L2C_total_miss_rate 0.524552
Core_0_L2C_demand_access 1467604
Core_0_L2C_demand_hit 58216
Core_0_L2C_demand_miss 1409388
Core_0_L2C_demand_MPKI 14.0939
Core_0_L2C_demand_miss_rate 0.960333
Core_0_L2C_load_access 1229406
Core_0_L2C_load_hit 56023
Core_0_L2C_load_miss 1173383
Core_0_L2C_load_MPKI 11.7338
Core_0_L2C_load_miss_rate 0.954431
Core_0_L2C_rfo_access 238198
Core_0_L2C_rfo_hit 2193
Core_0_L2C_rfo_miss 236005
Core_0_L2C_rfo_MPKI 2.36005
Core_0_L2C_rfo_miss_rate 0.990793
Core_0_L2C_prefetch_access 1353650
Core_0_L2C_prefetch_hit 1033460
Core_0_L2C_prefetch_miss 320190
Core_0_L2C_prefetch_MPKI 3.2019
Core_0_L2C_prefetch_miss_rate 0.236538
Core_0_L2C_writeback_access 476179
Core_0_L2C_writeback_hit 476083
Core_0_L2C_writeback_miss 96
Core_0_L2C_writeback_MPKI 0.00096
Core_0_L2C_writeback_miss_rate 0.000201605
Core_0_L2C_prefetch_requested 213374
Core_0_L2C_prefetch_issued 212502
Core_0_L2C_prefetch_useful 44291
Core_0_L2C_prefetch_useless 24442
Core_0_L2C_prefetch_late 650
Core_0_L2C_prefetch_accuracy 0.208426
Core_0_L2C_prefetch_coverage 0.0304682
Core_0_L2C_total_eviction 2141879

Core_0_LLC_total_access 2078600
Core_0_LLC_total_hit 193540
Core_0_LLC_total_miss 1885060
Core_0_LLC_total_MPKI 18.8506
Core_0_LLC_total_miss_rate 0.906889
Core_0_LLC_demand_access 1407793
Core_0_LLC_demand_hit 1245
Core_0_LLC_demand_miss 1406548
Core_0_LLC_demand_MPKI 14.0655
Core_0_LLC_demand_miss_rate 0.999116
Core_0_LLC_load_access 1171810
Core_0_LLC_load_hit 1024
Core_0_LLC_load_miss 1170786
Core_0_LLC_load_MPKI 11.7079
Core_0_LLC_load_miss_rate 0.999126
Core_0_LLC_rfo_access 235983
Core_0_LLC_rfo_hit 221
Core_0_LLC_rfo_miss 235762
Core_0_LLC_rfo_MPKI 2.35762
Core_0_LLC_rfo_miss_rate 0.999063
Core_0_LLC_prefetch_access 198293
Core_0_LLC_prefetch_hit 229
Core_0_LLC_prefetch_miss 198064
Core_0_LLC_prefetch_MPKI 1.98064
Core_0_LLC_prefetch_miss_rate 0.998845
Core_0_LLC_writeback_access 472514
Core_0_LLC_writeback_hit 192066
Core_0_LLC_writeback_miss 280448
Core_0_LLC_writeback_MPKI 2.80448
Core_0_LLC_writeback_miss_rate 0.593523
Core_0_LLC_prefetch_requested 0
Core_0_LLC_prefetch_issued 0
Core_0_LLC_prefetch_useful 0
Core_0_LLC_prefetch_useless 0
Core_0_LLC_prefetch_late 0
Core_0_LLC_prefetch_accuracy 0
Core_0_LLC_prefetch_coverage 0
Core_0_LLC_total_eviction 2280316

[DRAM Statistics]
Channel_0_RQ_row_buffer_hit 19782
Channel_0_RQ_row_buffer_miss 1980085
Channel_0_WQ_row_buffer_hit 146509
Channel_0_WQ_row_buffer_miss 318568
Channel_0_WQ_full 0
Channel_0_dbus_congested 5950341
DRAM_total_RQ_row_buffer_hit 19782
DRAM_total_RQ_row_buffer_miss 1980085
DRAM_total_WQ_row_buffer_hit 146509
DRAM_total_WQ_row_buffer_miss 318568
DRAM_total_WQ_full 0
DRAM_total_dbus_congested 5950341
DRAM_avg_congested_cycle 9.67794

======STLB miss causes ========
Core_0_STLB_miss_cause_breakdown
Core_0_STLB_cause_Demand_Data_miss 987701
Core_0_STLB_cause_Demand_Data_miss_rate 0.971476
Core_0_STLB_cause_Demand_Instruction_miss 0
Core_0_STLB_cause_Demand_Instruction_miss_rate 0
Core_0_STLB_cause_L1D_Prefetch_miss 0
Core_0_STLB_cause_L1D_Prefetch_miss_rate 0
Core_0_STLB_cause_L1I_Prefetch_miss 0
Core_0_STLB_cause_L1I_Prefetch_miss_rate 0
Core_0_STLB_cause_Other_miss 0
Core_0_STLB_cause_Other_miss_rate 0
Core_0_STLB_Demand_miss 987701
Core_0_STLB_Demand_miss_rate 0.971476
Core_0_STLB_L1D_Prefetch_miss 0
Core_0_STLB_L1D_Prefetch_miss_rate 0
Core_0_STLB_Other_miss 0
Core_0_STLB_Other_miss_rate 0
BERTI TO_L1: 11790683 TO_L2: 3221768 TO_L2_BC_MSHR: 10842
BERTI AVG_LAT: 142.368 NUM_TRACK_LATENCY: 2453254 NUM_CANT_TRACK_LATENCY: 0
BERTI CROSS_PAGE 1004902 NO_CROSS_PAGE: 15012451
BERTI FOUND_BERTI: 14482700 NO_FOUND_BERTI: 1131177
BERTI AVERAGE_ISSUED: 1.64961
