[VMEM] WARNING: physical memory size is smaller than virtual memory size.

*** ChampSim Multicore Out-of-Order Simulator ***
Warmup Instructions: 50000000
Simulation Instructions: 100000000
Number of CPUs: 1
Page size: 4096
STLB ideal mode: off
STLB ideal fill: off
Core 0: /data2/zcq/champsim_traces_gap/bfs.urand-410B.champsimtrace.xz
VBerti Prefetcher
No Crossing Page
BERTI HASH ENTANGLING
BERTI IP MASK ffff
Off-chip DRAM Size: 16 GiB Channels: 1 Width: 64-bit Data Rate: 3205 MT/s
Warmup halting CPU 0 at instruction 50000001 cycle 17602560 for remainder of phase
Warmup finished CPU 0 instructions: 50000001 cycles: 17602560 cumulative IPC: 2.84 (Simulation time: 00 hr 03 min 55 sec)
Warmup complete CPU 0 instructions: 50000001 cycles: 17602560 cumulative IPC: 2.84 (Simulation time: 00 hr 03 min 55 sec)
Simulation finished CPU 0 instructions: 100000001 cycles: 591733639 cumulative IPC: 0.169 (Simulation time: 00 hr 45 min 42 sec)
Simulation complete CPU 0 instructions: 100000001 cycles: 591733639 cumulative IPC: 0.169 (Simulation time: 00 hr 45 min 42 sec)

ChampSim completed all CPUs

=== Simulation ===
CPU 0 runs /data2/zcq/champsim_traces_gap/bfs.urand-410B.champsimtrace.xz

Region of Interest Statistics

CPU 0 cumulative IPC: 0.169 instructions: 100000001 cycles: 591733639
CPU 0 Branch Prediction Accuracy: 84.21% MPKI: 27.61 Average ROB Occupancy at Mispredict: 15.83
Branch type MPKI
BRANCH_DIRECT_JUMP: 0
BRANCH_INDIRECT: 0
BRANCH_CONDITIONAL: 27.61
BRANCH_DIRECT_CALL: 0
BRANCH_INDIRECT_CALL: 0
BRANCH_RETURN: 0

cpu0->cpu0_STLB TOTAL        ACCESS:    5660727 HIT:    5207815 MISS:     452912 MSHR_MERGE:          0
cpu0->cpu0_STLB LOAD         ACCESS:    5660727 HIT:    5207815 MISS:     452912 MSHR_MERGE:          0
cpu0->cpu0_STLB RFO          ACCESS:          0 HIT:          0 MISS:          0 MSHR_MERGE:          0
cpu0->cpu0_STLB PREFETCH     ACCESS:          0 HIT:          0 MISS:          0 MSHR_MERGE:          0
cpu0->cpu0_STLB WRITE        ACCESS:          0 HIT:          0 MISS:          0 MSHR_MERGE:          0
cpu0->cpu0_STLB TRANSLATION  ACCESS:          0 HIT:          0 MISS:          0 MSHR_MERGE:          0
cpu0->cpu0_STLB PREFETCH REQUESTED:          0 ISSUED:          0 USEFUL:          0 USELESS:          0 LATE:          0
cpu0->cpu0_STLB AVERAGE MISS LATENCY: 74.59 cycles
cpu0->cpu0_L2C TOTAL        ACCESS:   23683967 HIT:   12286946 MISS:   11397021 MSHR_MERGE:     822935
cpu0->cpu0_L2C LOAD         ACCESS:    7940367 HIT:    1793927 MISS:    6146440 MSHR_MERGE:      62843
cpu0->cpu0_L2C RFO          ACCESS:       2694 HIT:       2484 MISS:        210 MSHR_MERGE:          0
cpu0->cpu0_L2C PREFETCH     ACCESS:   15222350 HIT:   10113525 MISS:    5108825 MSHR_MERGE:     760092
cpu0->cpu0_L2C WRITE        ACCESS:     183185 HIT:     183064 MISS:        121 MSHR_MERGE:          0
cpu0->cpu0_L2C TRANSLATION  ACCESS:     335371 HIT:     193946 MISS:     141425 MSHR_MERGE:          0
cpu0->cpu0_L2C PREFETCH REQUESTED:    2734479 ISSUED:    2734479 USEFUL:     370683 USELESS:     171298 LATE:      12661
cpu0->cpu0_L2C AVERAGE MISS LATENCY: 131.5 cycles
cpu0->cpu0_L1I TOTAL        ACCESS:          6 HIT:          6 MISS:          0 MSHR_MERGE:          0
cpu0->cpu0_L1I LOAD         ACCESS:          6 HIT:          6 MISS:          0 MSHR_MERGE:          0
cpu0->cpu0_L1I RFO          ACCESS:          0 HIT:          0 MISS:          0 MSHR_MERGE:          0
cpu0->cpu0_L1I PREFETCH     ACCESS:          0 HIT:          0 MISS:          0 MSHR_MERGE:          0
cpu0->cpu0_L1I WRITE        ACCESS:          0 HIT:          0 MISS:          0 MSHR_MERGE:          0
cpu0->cpu0_L1I TRANSLATION  ACCESS:          0 HIT:          0 MISS:          0 MSHR_MERGE:          0
cpu0->cpu0_L1I PREFETCH REQUESTED:          0 ISSUED:          0 USEFUL:          0 USELESS:          0 LATE:          0
cpu0->cpu0_L1I AVERAGE MISS LATENCY: - cycles
cpu0->cpu0_L1D TOTAL        ACCESS:   67182644 HIT:   42291580 MISS:   24891064 MSHR_MERGE:    3490313
cpu0->cpu0_L1D LOAD         ACCESS:   26115587 HIT:   14691505 MISS:   11424082 MSHR_MERGE:    3483715
cpu0->cpu0_L1D RFO          ACCESS:          0 HIT:          0 MISS:          0 MSHR_MERGE:          0
cpu0->cpu0_L1D PREFETCH     ACCESS:   34536964 HIT:   21413250 MISS:   13123714 MSHR_MERGE:       1395
cpu0->cpu0_L1D WRITE        ACCESS:    5627166 HIT:    5621778 MISS:       5388 MSHR_MERGE:       2694
cpu0->cpu0_L1D TRANSLATION  ACCESS:     902927 HIT:     565047 MISS:     337880 MSHR_MERGE:       2509
cpu0->cpu0_L1D PREFETCH REQUESTED:   44656245 ISSUED:   34536958 USEFUL:     646437 USELESS:     187311 LATE:       5366
cpu0->cpu0_L1D AVERAGE MISS LATENCY: 108.7 cycles
cpu0->cpu0_ITLB TOTAL        ACCESS:          4 HIT:          4 MISS:          0 MSHR_MERGE:          0
cpu0->cpu0_ITLB LOAD         ACCESS:          4 HIT:          4 MISS:          0 MSHR_MERGE:          0
cpu0->cpu0_ITLB RFO          ACCESS:          0 HIT:          0 MISS:          0 MSHR_MERGE:          0
cpu0->cpu0_ITLB PREFETCH     ACCESS:          0 HIT:          0 MISS:          0 MSHR_MERGE:          0
cpu0->cpu0_ITLB WRITE        ACCESS:          0 HIT:          0 MISS:          0 MSHR_MERGE:          0
cpu0->cpu0_ITLB TRANSLATION  ACCESS:          0 HIT:          0 MISS:          0 MSHR_MERGE:          0
cpu0->cpu0_ITLB PREFETCH REQUESTED:          0 ISSUED:          0 USEFUL:          0 USELESS:          0 LATE:          0
cpu0->cpu0_ITLB AVERAGE MISS LATENCY: - cycles
cpu0->cpu0_DTLB TOTAL        ACCESS:   53226233 HIT:   47368078 MISS:    5858155 MSHR_MERGE:     197428
cpu0->cpu0_DTLB LOAD         ACCESS:   53226233 HIT:   47368078 MISS:    5858155 MSHR_MERGE:     197428
cpu0->cpu0_DTLB RFO          ACCESS:          0 HIT:          0 MISS:          0 MSHR_MERGE:          0
cpu0->cpu0_DTLB PREFETCH     ACCESS:          0 HIT:          0 MISS:          0 MSHR_MERGE:          0
cpu0->cpu0_DTLB WRITE        ACCESS:          0 HIT:          0 MISS:          0 MSHR_MERGE:          0
cpu0->cpu0_DTLB TRANSLATION  ACCESS:          0 HIT:          0 MISS:          0 MSHR_MERGE:          0
cpu0->cpu0_DTLB PREFETCH REQUESTED:          0 ISSUED:          0 USEFUL:          0 USELESS:          0 LATE:          0
cpu0->cpu0_DTLB AVERAGE MISS LATENCY: 11.16 cycles
cpu0->LLC TOTAL        ACCESS:   10752232 HIT:    2976217 MISS:    7776015 MSHR_MERGE:         38
cpu0->LLC LOAD         ACCESS:    6083597 HIT:    2820261 MISS:    3263336 MSHR_MERGE:          0
cpu0->LLC RFO          ACCESS:        210 HIT:        210 MISS:          0 MSHR_MERGE:          0
cpu0->LLC PREFETCH     ACCESS:    4348733 HIT:        966 MISS:    4347767 MSHR_MERGE:         38
cpu0->LLC WRITE        ACCESS:     178267 HIT:      32385 MISS:     145882 MSHR_MERGE:          0
cpu0->LLC TRANSLATION  ACCESS:     141425 HIT:     122395 MISS:      19030 MSHR_MERGE:          0
cpu0->LLC PREFETCH REQUESTED:          0 ISSUED:          0 USEFUL:          0 USELESS:          0 LATE:          0
cpu0->LLC AVERAGE MISS LATENCY: 211.5 cycles

DRAM Statistics

Channel 0 RQ ROW_BUFFER_HIT:     937505
  ROW_BUFFER_MISS:    6692587
  AVG DBUS CONGESTED CYCLE: 14
Channel 0 WQ ROW_BUFFER_HIT:      49696
  ROW_BUFFER_MISS:     128265
  FULL:          0
Channel 0 REFRESHES ISSUED:      49312

[ROI Statistics]
[System Configuration]
num_cpus 1
cpu_freq 4000
fetch_width 6
decode_width 6
dispatch_width 6
execute_width 6
lq_width 2
sq_width 2
retire_width 6
scheduler_size 128
branch_mispredict_penalty 15
rob_size 352
lq_size 128
sq_size 72
ifetch_buffer_size 64
decode_buffer_size 32
dispatch_buffer_size 32
register_file_size 288
decode_latency 1
dispatch_latency 1
schedule_latency 1
execute_latency 1
page_size 4096
block_size 64
core_0_itlb_set 16
core_0_itlb_way 4
core_0_itlb_rq_size 16
core_0_itlb_wq_size 16
core_0_itlb_pq_size 0
core_0_itlb_mshr_size 8
core_0_itlb_hit_latency 1
core_0_itlb_fill_latency 1
core_0_itlb_max_tag_check 2
core_0_itlb_max_fill 2
core_0_dtlb_set 16
core_0_dtlb_way 4
core_0_dtlb_rq_size 16
core_0_dtlb_wq_size 16
core_0_dtlb_pq_size 0
core_0_dtlb_mshr_size 8
core_0_dtlb_hit_latency 1
core_0_dtlb_fill_latency 1
core_0_dtlb_max_tag_check 2
core_0_dtlb_max_fill 2
core_0_stlb_set 128
core_0_stlb_way 12
core_0_stlb_rq_size 32
core_0_stlb_wq_size 32
core_0_stlb_pq_size 0
core_0_stlb_mshr_size 16
core_0_stlb_hit_latency 4
core_0_stlb_fill_latency 4
core_0_stlb_max_tag_check 1
core_0_stlb_max_fill 1
core_0_l1i_set 64
core_0_l1i_way 8
core_0_l1i_rq_size 64
core_0_l1i_wq_size 64
core_0_l1i_pq_size 32
core_0_l1i_mshr_size 8
core_0_l1i_hit_latency 2
core_0_l1i_fill_latency 2
core_0_l1i_max_tag_check 2
core_0_l1i_max_fill 2
core_0_l1d_set 64
core_0_l1d_way 12
core_0_l1d_rq_size 64
core_0_l1d_wq_size 64
core_0_l1d_pq_size 8
core_0_l1d_mshr_size 16
core_0_l1d_hit_latency 2
core_0_l1d_fill_latency 3
core_0_l1d_max_tag_check 2
core_0_l1d_max_fill 2
core_0_l2c_set 1024
core_0_l2c_way 8
core_0_l2c_rq_size 32
core_0_l2c_wq_size 32
core_0_l2c_pq_size 16
core_0_l2c_mshr_size 32
core_0_l2c_hit_latency 5
core_0_l2c_fill_latency 5
core_0_l2c_max_tag_check 1
core_0_l2c_max_fill 1
llc_set 2048
llc_way 16
llc_rq_size 32
llc_wq_size 32
llc_pq_size 32
llc_mshr_size 64
llc_hit_latency 10
llc_fill_latency 10
llc_max_tag_check 1
llc_max_fill 1
dram_channels 1
dram_ranks 1
dram_bankgroups 8
dram_banks 4
dram_rows 65536
dram_columns 1024
dram_channel_width 8
dram_rq_size 64
dram_wq_size 64
dram_size 17179869184
core_0_itlb_prefetcher no
core_0_dtlb_prefetcher no
core_0_stlb_prefetcher no
core_0_l1i_prefetcher next_line
core_0_l1d_prefetcher vberti_nocross
core_0_l2c_prefetcher ip_stride
llc_prefetcher no
llc_replacement drrip

Core_0_instructions 100000001
Core_0_cycles 591733639
Core_0_IPC 0.168995
Core_0_branch_prediction_accuracy 84.2139
Core_0_branch_MPKI 27.6124
Core_0_average_ROB_occupancy_at_mispredict 15.833

Core_0_ITLB_total_access 4
Core_0_ITLB_total_hit 4
Core_0_ITLB_total_miss 0
Core_0_ITLB_total_MPKI 0
Core_0_ITLB_total_miss_rate 0
Core_0_ITLB_demand_access 4
Core_0_ITLB_demand_hit 4
Core_0_ITLB_demand_miss 0
Core_0_ITLB_demand_MPKI 0
Core_0_ITLB_demand_miss_rate 0
Core_0_ITLB_load_access 4
Core_0_ITLB_load_hit 4
Core_0_ITLB_load_miss 0
Core_0_ITLB_load_MPKI 0
Core_0_ITLB_load_miss_rate 0
Core_0_ITLB_rfo_access 0
Core_0_ITLB_rfo_hit 0
Core_0_ITLB_rfo_miss 0
Core_0_ITLB_rfo_MPKI 0
Core_0_ITLB_rfo_miss_rate 0
Core_0_ITLB_prefetch_access 0
Core_0_ITLB_prefetch_hit 0
Core_0_ITLB_prefetch_miss 0
Core_0_ITLB_prefetch_MPKI 0
Core_0_ITLB_prefetch_miss_rate 0
Core_0_ITLB_writeback_access 0
Core_0_ITLB_writeback_hit 0
Core_0_ITLB_writeback_miss 0
Core_0_ITLB_writeback_MPKI 0
Core_0_ITLB_writeback_miss_rate 0
Core_0_ITLB_prefetch_requested 0
Core_0_ITLB_prefetch_issued 0
Core_0_ITLB_prefetch_useful 0
Core_0_ITLB_prefetch_useless 0
Core_0_ITLB_prefetch_late 0
Core_0_ITLB_prefetch_accuracy 0
Core_0_ITLB_prefetch_coverage 0
Core_0_ITLB_total_eviction 0

Core_0_DTLB_total_access 53226233
Core_0_DTLB_total_hit 47368078
Core_0_DTLB_total_miss 5858155
Core_0_DTLB_total_MPKI 58.5815
Core_0_DTLB_total_miss_rate 0.110061
Core_0_DTLB_demand_access 53226233
Core_0_DTLB_demand_hit 47368078
Core_0_DTLB_demand_miss 5858155
Core_0_DTLB_demand_MPKI 58.5815
Core_0_DTLB_demand_miss_rate 0.110061
Core_0_DTLB_load_access 53226233
Core_0_DTLB_load_hit 47368078
Core_0_DTLB_load_miss 5858155
Core_0_DTLB_load_MPKI 58.5815
Core_0_DTLB_load_miss_rate 0.110061
Core_0_DTLB_rfo_access 0
Core_0_DTLB_rfo_hit 0
Core_0_DTLB_rfo_miss 0
Core_0_DTLB_rfo_MPKI 0
Core_0_DTLB_rfo_miss_rate 0
Core_0_DTLB_prefetch_access 0
Core_0_DTLB_prefetch_hit 0
Core_0_DTLB_prefetch_miss 0
Core_0_DTLB_prefetch_MPKI 0
Core_0_DTLB_prefetch_miss_rate 0
Core_0_DTLB_writeback_access 0
Core_0_DTLB_writeback_hit 0
Core_0_DTLB_writeback_miss 0
Core_0_DTLB_writeback_MPKI 0
Core_0_DTLB_writeback_miss_rate 0
Core_0_DTLB_prefetch_requested 0
Core_0_DTLB_prefetch_issued 0
Core_0_DTLB_prefetch_useful 0
Core_0_DTLB_prefetch_useless 0
Core_0_DTLB_prefetch_late 0
Core_0_DTLB_prefetch_accuracy 0
Core_0_DTLB_prefetch_coverage 0
Core_0_DTLB_total_eviction 5660727

Core_0_STLB_total_access 5660727
Core_0_STLB_total_hit 5207815
Core_0_STLB_total_miss 452912
Core_0_STLB_total_MPKI 4.52912
Core_0_STLB_total_miss_rate 0.0800095
Core_0_STLB_demand_access 5660727
Core_0_STLB_demand_hit 5207815
Core_0_STLB_demand_miss 452912
Core_0_STLB_demand_MPKI 4.52912
Core_0_STLB_demand_miss_rate 0.0800095
Core_0_STLB_load_access 5660727
Core_0_STLB_load_hit 5207815
Core_0_STLB_load_miss 452912
Core_0_STLB_load_MPKI 4.52912
Core_0_STLB_load_miss_rate 0.0800095
Core_0_STLB_rfo_access 0
Core_0_STLB_rfo_hit 0
Core_0_STLB_rfo_miss 0
Core_0_STLB_rfo_MPKI 0
Core_0_STLB_rfo_miss_rate 0
Core_0_STLB_prefetch_access 0
Core_0_STLB_prefetch_hit 0
Core_0_STLB_prefetch_miss 0
Core_0_STLB_prefetch_MPKI 0
Core_0_STLB_prefetch_miss_rate 0
Core_0_STLB_writeback_access 0
Core_0_STLB_writeback_hit 0
Core_0_STLB_writeback_miss 0
Core_0_STLB_writeback_MPKI 0
Core_0_STLB_writeback_miss_rate 0
Core_0_STLB_prefetch_requested 0
Core_0_STLB_prefetch_issued 0
Core_0_STLB_prefetch_useful 0
Core_0_STLB_prefetch_useless 0
Core_0_STLB_prefetch_late 0
Core_0_STLB_prefetch_accuracy 0
Core_0_STLB_prefetch_coverage 0
Core_0_STLB_total_eviction 452912

Core_0_L1I_total_access 6
Core_0_L1I_total_hit 6
Core_0_L1I_total_miss 0
Core_0_L1I_total_MPKI 0
Core_0_L1I_total_miss_rate 0
Core_0_L1I_demand_access 6
Core_0_L1I_demand_hit 6
Core_0_L1I_demand_miss 0
Core_0_L1I_demand_MPKI 0
Core_0_L1I_demand_miss_rate 0
Core_0_L1I_load_access 6
Core_0_L1I_load_hit 6
Core_0_L1I_load_miss 0
Core_0_L1I_load_MPKI 0
Core_0_L1I_load_miss_rate 0
Core_0_L1I_rfo_access 0
Core_0_L1I_rfo_hit 0
Core_0_L1I_rfo_miss 0
Core_0_L1I_rfo_MPKI 0
Core_0_L1I_rfo_miss_rate 0
Core_0_L1I_prefetch_access 0
Core_0_L1I_prefetch_hit 0
Core_0_L1I_prefetch_miss 0
Core_0_L1I_prefetch_MPKI 0
Core_0_L1I_prefetch_miss_rate 0
Core_0_L1I_writeback_access 0
Core_0_L1I_writeback_hit 0
Core_0_L1I_writeback_miss 0
Core_0_L1I_writeback_MPKI 0
Core_0_L1I_writeback_miss_rate 0
Core_0_L1I_prefetch_requested 0
Core_0_L1I_prefetch_issued 0
Core_0_L1I_prefetch_useful 0
Core_0_L1I_prefetch_useless 0
Core_0_L1I_prefetch_late 0
Core_0_L1I_prefetch_accuracy 0
Core_0_L1I_prefetch_coverage 0
Core_0_L1I_total_eviction 0

Core_0_L1D_total_access 66279717
Core_0_L1D_total_hit 41726533
Core_0_L1D_total_miss 24553184
Core_0_L1D_total_MPKI 245.532
Core_0_L1D_total_miss_rate 0.370448
Core_0_L1D_demand_access 26115587
Core_0_L1D_demand_hit 14691505
Core_0_L1D_demand_miss 11424082
Core_0_L1D_demand_MPKI 114.241
Core_0_L1D_demand_miss_rate 0.437443
Core_0_L1D_load_access 26115587
Core_0_L1D_load_hit 14691505
Core_0_L1D_load_miss 11424082
Core_0_L1D_load_MPKI 114.241
Core_0_L1D_load_miss_rate 0.437443
Core_0_L1D_rfo_access 0
Core_0_L1D_rfo_hit 0
Core_0_L1D_rfo_miss 0
Core_0_L1D_rfo_MPKI 0
Core_0_L1D_rfo_miss_rate 0
Core_0_L1D_prefetch_access 34536964
Core_0_L1D_prefetch_hit 21413250
Core_0_L1D_prefetch_miss 13123714
Core_0_L1D_prefetch_MPKI 131.237
Core_0_L1D_prefetch_miss_rate 0.37999
Core_0_L1D_writeback_access 5627166
Core_0_L1D_writeback_hit 5621778
Core_0_L1D_writeback_miss 5388
Core_0_L1D_writeback_MPKI 0.05388
Core_0_L1D_writeback_miss_rate 0.000957498
Core_0_L1D_prefetch_requested 44656245
Core_0_L1D_prefetch_issued 34536958
Core_0_L1D_prefetch_useful 646437
Core_0_L1D_prefetch_useless 187311
Core_0_L1D_prefetch_late 5366
Core_0_L1D_prefetch_accuracy 0.0187173
Core_0_L1D_prefetch_coverage 0.053555
Core_0_L1D_total_eviction 9112193

Core_0_L2C_total_access 23348596
Core_0_L2C_total_hit 12093000
Core_0_L2C_total_miss 11255596
Core_0_L2C_total_MPKI 112.556
Core_0_L2C_total_miss_rate 0.482067
Core_0_L2C_demand_access 7943061
Core_0_L2C_demand_hit 1796411
Core_0_L2C_demand_miss 6146650
Core_0_L2C_demand_MPKI 61.4665
Core_0_L2C_demand_miss_rate 0.773839
Core_0_L2C_load_access 7940367
Core_0_L2C_load_hit 1793927
Core_0_L2C_load_miss 6146440
Core_0_L2C_load_MPKI 61.4644
Core_0_L2C_load_miss_rate 0.774075
Core_0_L2C_rfo_access 2694
Core_0_L2C_rfo_hit 2484
Core_0_L2C_rfo_miss 210
Core_0_L2C_rfo_MPKI 0.0021
Core_0_L2C_rfo_miss_rate 0.077951
Core_0_L2C_prefetch_access 15222350
Core_0_L2C_prefetch_hit 10113525
Core_0_L2C_prefetch_miss 5108825
Core_0_L2C_prefetch_MPKI 51.0882
Core_0_L2C_prefetch_miss_rate 0.335613
Core_0_L2C_writeback_access 183185
Core_0_L2C_writeback_hit 183064
Core_0_L2C_writeback_miss 121
Core_0_L2C_writeback_MPKI 0.00121
Core_0_L2C_writeback_miss_rate 0.000660534
Core_0_L2C_prefetch_requested 2734479
Core_0_L2C_prefetch_issued 2734479
Core_0_L2C_prefetch_useful 370683
Core_0_L2C_prefetch_useless 171298
Core_0_L2C_prefetch_late 12661
Core_0_L2C_prefetch_accuracy 0.135559
Core_0_L2C_prefetch_coverage 0.0568765
Core_0_L2C_total_eviction 10573615

Core_0_LLC_total_access 10610807
Core_0_LLC_total_hit 2853822
Core_0_LLC_total_miss 7756985
Core_0_LLC_total_MPKI 77.5698
Core_0_LLC_total_miss_rate 0.731046
Core_0_LLC_demand_access 6083807
Core_0_LLC_demand_hit 2820471
Core_0_LLC_demand_miss 3263336
Core_0_LLC_demand_MPKI 32.6334
Core_0_LLC_demand_miss_rate 0.536397
Core_0_LLC_load_access 6083597
Core_0_LLC_load_hit 2820261
Core_0_LLC_load_miss 3263336
Core_0_LLC_load_MPKI 32.6334
Core_0_LLC_load_miss_rate 0.536416
Core_0_LLC_rfo_access 210
Core_0_LLC_rfo_hit 210
Core_0_LLC_rfo_miss 0
Core_0_LLC_rfo_MPKI 0
Core_0_LLC_rfo_miss_rate 0
Core_0_LLC_prefetch_access 4348733
Core_0_LLC_prefetch_hit 966
Core_0_LLC_prefetch_miss 4347767
Core_0_LLC_prefetch_MPKI 43.4777
Core_0_LLC_prefetch_miss_rate 0.999778
Core_0_LLC_writeback_access 178267
Core_0_LLC_writeback_hit 32385
Core_0_LLC_writeback_miss 145882
Core_0_LLC_writeback_MPKI 1.45882
Core_0_LLC_writeback_miss_rate 0.818334
Core_0_LLC_prefetch_requested 0
Core_0_LLC_prefetch_issued 0
Core_0_LLC_prefetch_useful 0
Core_0_LLC_prefetch_useless 0
Core_0_LLC_prefetch_late 0
Core_0_LLC_prefetch_accuracy 0
Core_0_LLC_prefetch_coverage 0
Core_0_LLC_total_eviction 7775975

[DRAM Statistics]
Channel_0_RQ_row_buffer_hit 937505
Channel_0_RQ_row_buffer_miss 6692587
Channel_0_WQ_row_buffer_hit 49696
Channel_0_WQ_row_buffer_miss 128265
Channel_0_WQ_full 0
Channel_0_dbus_congested 19564816
DRAM_total_RQ_row_buffer_hit 937505
DRAM_total_RQ_row_buffer_miss 6692587
DRAM_total_WQ_row_buffer_hit 49696
DRAM_total_WQ_row_buffer_miss 128265
DRAM_total_WQ_full 0
DRAM_total_dbus_congested 19564816
DRAM_avg_congested_cycle 13.9968

======STLB miss causes ========
Core_0_STLB_miss_cause_breakdown
Core_0_STLB_cause_Demand_Data_miss 452912
Core_0_STLB_cause_Demand_Data_miss_rate 0.0800095
Core_0_STLB_cause_Demand_Instruction_miss 0
Core_0_STLB_cause_Demand_Instruction_miss_rate 0
Core_0_STLB_cause_L1D_Prefetch_miss 0
Core_0_STLB_cause_L1D_Prefetch_miss_rate 0
Core_0_STLB_cause_L1I_Prefetch_miss 0
Core_0_STLB_cause_L1I_Prefetch_miss_rate 0
Core_0_STLB_cause_Other_miss 0
Core_0_STLB_cause_Other_miss_rate 0
Core_0_STLB_Demand_miss 452912
Core_0_STLB_Demand_miss_rate 0.0800095
Core_0_STLB_L1D_Prefetch_miss 0
Core_0_STLB_L1D_Prefetch_miss_rate 0
Core_0_STLB_Other_miss 0
Core_0_STLB_Other_miss_rate 0
BERTI TO_L1: 21406444 TO_L2: 31657646 TO_L2_BC_MSHR: 93
BERTI AVG_LAT: 77.107 NUM_TRACK_LATENCY: 13068631 NUM_CANT_TRACK_LATENCY: 0
BERTI CROSS_PAGE 9283560 NO_CROSS_PAGE: 53064090
BERTI FOUND_BERTI: 26821380 NO_FOUND_BERTI: 13987931
BERTI AVERAGE_ISSUED: 2.83161
