[VMEM] WARNING: physical memory size is smaller than virtual memory size.

*** ChampSim Multicore Out-of-Order Simulator ***
Warmup Instructions: 50000000
Simulation Instructions: 100000000
Number of CPUs: 1
Page size: 4096
STLB ideal mode: off
STLB ideal fill: off
Core 0: /data2/zcq/champsim_traces_gap/bfs.kron-128B.champsimtrace.xz
VBerti Prefetcher
No Crossing Page
BERTI HASH ENTANGLING
BERTI IP MASK ffff
Off-chip DRAM Size: 16 GiB Channels: 1 Width: 64-bit Data Rate: 3205 MT/s
Warmup halting CPU 0 at instruction 50000002 cycle 13961535 for remainder of phase
Warmup finished CPU 0 instructions: 50000002 cycles: 13961535 cumulative IPC: 3.581 (Simulation time: 00 hr 02 min 48 sec)
Warmup complete CPU 0 instructions: 50000002 cycles: 13961535 cumulative IPC: 3.581 (Simulation time: 00 hr 02 min 48 sec)
Simulation finished CPU 0 instructions: 100000002 cycles: 199759455 cumulative IPC: 0.5006 (Simulation time: 00 hr 16 min 36 sec)
Simulation complete CPU 0 instructions: 100000002 cycles: 199759455 cumulative IPC: 0.5006 (Simulation time: 00 hr 16 min 36 sec)

ChampSim completed all CPUs

=== Simulation ===
CPU 0 runs /data2/zcq/champsim_traces_gap/bfs.kron-128B.champsimtrace.xz

Region of Interest Statistics

CPU 0 cumulative IPC: 0.5006 instructions: 100000002 cycles: 199759455
CPU 0 Branch Prediction Accuracy: 81.52% MPKI: 39.95 Average ROB Occupancy at Mispredict: 10.15
Branch type MPKI
BRANCH_DIRECT_JUMP: 0
BRANCH_INDIRECT: 0
BRANCH_CONDITIONAL: 39.95
BRANCH_DIRECT_CALL: 0
BRANCH_INDIRECT_CALL: 0
BRANCH_RETURN: 0

cpu0->cpu0_STLB TOTAL        ACCESS:     117741 HIT:       8144 MISS:     109597 MSHR_MERGE:          0
cpu0->cpu0_STLB LOAD         ACCESS:     117741 HIT:       8144 MISS:     109597 MSHR_MERGE:          0
cpu0->cpu0_STLB RFO          ACCESS:          0 HIT:          0 MISS:          0 MSHR_MERGE:          0
cpu0->cpu0_STLB PREFETCH     ACCESS:          0 HIT:          0 MISS:          0 MSHR_MERGE:          0
cpu0->cpu0_STLB WRITE        ACCESS:          0 HIT:          0 MISS:          0 MSHR_MERGE:          0
cpu0->cpu0_STLB TRANSLATION  ACCESS:          0 HIT:          0 MISS:          0 MSHR_MERGE:          0
cpu0->cpu0_STLB PREFETCH REQUESTED:          0 ISSUED:          0 USEFUL:          0 USELESS:          0 LATE:          0
cpu0->cpu0_STLB AVERAGE MISS LATENCY: 194.7 cycles
cpu0->cpu0_L2C TOTAL        ACCESS:    4284574 HIT:    1340289 MISS:    2944285 MSHR_MERGE:    1145348
cpu0->cpu0_L2C LOAD         ACCESS:     133986 HIT:        465 MISS:     133521 MSHR_MERGE:         62
cpu0->cpu0_L2C RFO          ACCESS:          0 HIT:          0 MISS:          0 MSHR_MERGE:          0
cpu0->cpu0_L2C PREFETCH     ACCESS:    4020940 HIT:    1265445 MISS:    2755495 MSHR_MERGE:    1145286
cpu0->cpu0_L2C WRITE        ACCESS:      62252 HIT:      62225 MISS:         27 MSHR_MERGE:          0
cpu0->cpu0_L2C TRANSLATION  ACCESS:      67396 HIT:      12154 MISS:      55242 MSHR_MERGE:          0
cpu0->cpu0_L2C PREFETCH REQUESTED:    1989259 ISSUED:    1989259 USEFUL:     614825 USELESS:     353385 LATE:          2
cpu0->cpu0_L2C AVERAGE MISS LATENCY: 185.8 cycles
cpu0->cpu0_L1I TOTAL        ACCESS:          3 HIT:          3 MISS:          0 MSHR_MERGE:          0
cpu0->cpu0_L1I LOAD         ACCESS:          3 HIT:          3 MISS:          0 MSHR_MERGE:          0
cpu0->cpu0_L1I RFO          ACCESS:          0 HIT:          0 MISS:          0 MSHR_MERGE:          0
cpu0->cpu0_L1I PREFETCH     ACCESS:          0 HIT:          0 MISS:          0 MSHR_MERGE:          0
cpu0->cpu0_L1I WRITE        ACCESS:          0 HIT:          0 MISS:          0 MSHR_MERGE:          0
cpu0->cpu0_L1I TRANSLATION  ACCESS:          0 HIT:          0 MISS:          0 MSHR_MERGE:          0
cpu0->cpu0_L1I PREFETCH REQUESTED:          0 ISSUED:          0 USEFUL:          0 USELESS:          0 LATE:          0
cpu0->cpu0_L1I AVERAGE MISS LATENCY: - cycles
cpu0->cpu0_L1D TOTAL        ACCESS:   66400657 HIT:   64142045 MISS:    2258612 MSHR_MERGE:      24554
cpu0->cpu0_L1D LOAD         ACCESS:   17148963 HIT:   16990615 MISS:     158348 MSHR_MERGE:      24362
cpu0->cpu0_L1D RFO          ACCESS:          0 HIT:          0 MISS:          0 MSHR_MERGE:          0
cpu0->cpu0_L1D PREFETCH     ACCESS:   48852973 HIT:   46820105 MISS:    2032868 MSHR_MERGE:        192
cpu0->cpu0_L1D WRITE        ACCESS:     178930 HIT:     178930 MISS:          0 MSHR_MERGE:          0
cpu0->cpu0_L1D TRANSLATION  ACCESS:     219791 HIT:     152395 MISS:      67396 MSHR_MERGE:          0
cpu0->cpu0_L1D PREFETCH REQUESTED:  156853825 ISSUED:   48852969 USEFUL:    1571077 USELESS:       1950 LATE:       1120
cpu0->cpu0_L1D AVERAGE MISS LATENCY: 182.6 cycles
cpu0->cpu0_ITLB TOTAL        ACCESS:          2 HIT:          2 MISS:          0 MSHR_MERGE:          0
cpu0->cpu0_ITLB LOAD         ACCESS:          2 HIT:          2 MISS:          0 MSHR_MERGE:          0
cpu0->cpu0_ITLB RFO          ACCESS:          0 HIT:          0 MISS:          0 MSHR_MERGE:          0
cpu0->cpu0_ITLB PREFETCH     ACCESS:          0 HIT:          0 MISS:          0 MSHR_MERGE:          0
cpu0->cpu0_ITLB WRITE        ACCESS:          0 HIT:          0 MISS:          0 MSHR_MERGE:          0
cpu0->cpu0_ITLB TRANSLATION  ACCESS:          0 HIT:          0 MISS:          0 MSHR_MERGE:          0
cpu0->cpu0_ITLB PREFETCH REQUESTED:          0 ISSUED:          0 USEFUL:          0 USELESS:          0 LATE:          0
cpu0->cpu0_ITLB AVERAGE MISS LATENCY: - cycles
cpu0->cpu0_DTLB TOTAL        ACCESS:   43541514 HIT:   43405236 MISS:     136278 MSHR_MERGE:      18537
cpu0->cpu0_DTLB LOAD         ACCESS:   43541514 HIT:   43405236 MISS:     136278 MSHR_MERGE:      18537
cpu0->cpu0_DTLB RFO          ACCESS:          0 HIT:          0 MISS:          0 MSHR_MERGE:          0
cpu0->cpu0_DTLB PREFETCH     ACCESS:          0 HIT:          0 MISS:          0 MSHR_MERGE:          0
cpu0->cpu0_DTLB WRITE        ACCESS:          0 HIT:          0 MISS:          0 MSHR_MERGE:          0
cpu0->cpu0_DTLB TRANSLATION  ACCESS:          0 HIT:          0 MISS:          0 MSHR_MERGE:          0
cpu0->cpu0_DTLB PREFETCH REQUESTED:          0 ISSUED:          0 USEFUL:          0 USELESS:          0 LATE:          0
cpu0->cpu0_DTLB AVERAGE MISS LATENCY: 187.2 cycles
cpu0->LLC TOTAL        ACCESS:    1861152 HIT:      94431 MISS:    1766721 MSHR_MERGE:      27039
cpu0->LLC LOAD         ACCESS:     133459 HIT:        124 MISS:     133335 MSHR_MERGE:          0
cpu0->LLC RFO          ACCESS:          0 HIT:          0 MISS:          0 MSHR_MERGE:          0
cpu0->LLC PREFETCH     ACCESS:    1610209 HIT:       9573 MISS:    1600636 MSHR_MERGE:      27039
cpu0->LLC WRITE        ACCESS:      62242 HIT:      54711 MISS:       7531 MSHR_MERGE:          0
cpu0->LLC TRANSLATION  ACCESS:      55242 HIT:      30023 MISS:      25219 MSHR_MERGE:          0
cpu0->LLC PREFETCH REQUESTED:          0 ISSUED:          0 USEFUL:          0 USELESS:          0 LATE:          0
cpu0->LLC AVERAGE MISS LATENCY: 193.5 cycles

DRAM Statistics

Channel 0 RQ ROW_BUFFER_HIT:     139241
  ROW_BUFFER_MISS:    1592911
  AVG DBUS CONGESTED CYCLE: 6.554
Channel 0 WQ ROW_BUFFER_HIT:      11714
  ROW_BUFFER_MISS:      50925
  FULL:          0
Channel 0 REFRESHES ISSUED:      16647

[ROI Statistics]
[System Configuration]
num_cpus 1
cpu_freq 4000
fetch_width 6
decode_width 6
dispatch_width 6
execute_width 6
lq_width 2
sq_width 2
retire_width 6
scheduler_size 128
branch_mispredict_penalty 15
rob_size 352
lq_size 128
sq_size 72
ifetch_buffer_size 64
decode_buffer_size 32
dispatch_buffer_size 32
register_file_size 288
decode_latency 1
dispatch_latency 1
schedule_latency 1
execute_latency 1
page_size 4096
block_size 64
core_0_itlb_set 16
core_0_itlb_way 4
core_0_itlb_rq_size 16
core_0_itlb_wq_size 16
core_0_itlb_pq_size 0
core_0_itlb_mshr_size 8
core_0_itlb_hit_latency 1
core_0_itlb_fill_latency 1
core_0_itlb_max_tag_check 2
core_0_itlb_max_fill 2
core_0_dtlb_set 16
core_0_dtlb_way 4
core_0_dtlb_rq_size 16
core_0_dtlb_wq_size 16
core_0_dtlb_pq_size 0
core_0_dtlb_mshr_size 8
core_0_dtlb_hit_latency 1
core_0_dtlb_fill_latency 1
core_0_dtlb_max_tag_check 2
core_0_dtlb_max_fill 2
core_0_stlb_set 128
core_0_stlb_way 12
core_0_stlb_rq_size 32
core_0_stlb_wq_size 32
core_0_stlb_pq_size 0
core_0_stlb_mshr_size 16
core_0_stlb_hit_latency 4
core_0_stlb_fill_latency 4
core_0_stlb_max_tag_check 1
core_0_stlb_max_fill 1
core_0_l1i_set 64
core_0_l1i_way 8
core_0_l1i_rq_size 64
core_0_l1i_wq_size 64
core_0_l1i_pq_size 32
core_0_l1i_mshr_size 8
core_0_l1i_hit_latency 2
core_0_l1i_fill_latency 2
core_0_l1i_max_tag_check 2
core_0_l1i_max_fill 2
core_0_l1d_set 64
core_0_l1d_way 12
core_0_l1d_rq_size 64
core_0_l1d_wq_size 64
core_0_l1d_pq_size 8
core_0_l1d_mshr_size 16
core_0_l1d_hit_latency 2
core_0_l1d_fill_latency 3
core_0_l1d_max_tag_check 2
core_0_l1d_max_fill 2
core_0_l2c_set 1024
core_0_l2c_way 8
core_0_l2c_rq_size 32
core_0_l2c_wq_size 32
core_0_l2c_pq_size 16
core_0_l2c_mshr_size 32
core_0_l2c_hit_latency 5
core_0_l2c_fill_latency 5
core_0_l2c_max_tag_check 1
core_0_l2c_max_fill 1
llc_set 2048
llc_way 16
llc_rq_size 32
llc_wq_size 32
llc_pq_size 32
llc_mshr_size 64
llc_hit_latency 10
llc_fill_latency 10
llc_max_tag_check 1
llc_max_fill 1
dram_channels 1
dram_ranks 1
dram_bankgroups 8
dram_banks 4
dram_rows 65536
dram_columns 1024
dram_channel_width 8
dram_rq_size 64
dram_wq_size 64
dram_size 17179869184
core_0_itlb_prefetcher no
core_0_dtlb_prefetcher no
core_0_stlb_prefetcher no
core_0_l1i_prefetcher next_line
core_0_l1d_prefetcher vberti_nocross
core_0_l2c_prefetcher ip_stride
llc_prefetcher no
llc_replacement drrip

Core_0_instructions 100000002
Core_0_cycles 199759455
Core_0_IPC 0.500602
Core_0_branch_prediction_accuracy 81.5179
Core_0_branch_MPKI 39.9549
Core_0_average_ROB_occupancy_at_mispredict 10.153

Core_0_ITLB_total_access 2
Core_0_ITLB_total_hit 2
Core_0_ITLB_total_miss 0
Core_0_ITLB_total_MPKI 0
Core_0_ITLB_total_miss_rate 0
Core_0_ITLB_demand_access 2
Core_0_ITLB_demand_hit 2
Core_0_ITLB_demand_miss 0
Core_0_ITLB_demand_MPKI 0
Core_0_ITLB_demand_miss_rate 0
Core_0_ITLB_load_access 2
Core_0_ITLB_load_hit 2
Core_0_ITLB_load_miss 0
Core_0_ITLB_load_MPKI 0
Core_0_ITLB_load_miss_rate 0
Core_0_ITLB_rfo_access 0
Core_0_ITLB_rfo_hit 0
Core_0_ITLB_rfo_miss 0
Core_0_ITLB_rfo_MPKI 0
Core_0_ITLB_rfo_miss_rate 0
Core_0_ITLB_prefetch_access 0
Core_0_ITLB_prefetch_hit 0
Core_0_ITLB_prefetch_miss 0
Core_0_ITLB_prefetch_MPKI 0
Core_0_ITLB_prefetch_miss_rate 0
Core_0_ITLB_writeback_access 0
Core_0_ITLB_writeback_hit 0
Core_0_ITLB_writeback_miss 0
Core_0_ITLB_writeback_MPKI 0
Core_0_ITLB_writeback_miss_rate 0
Core_0_ITLB_prefetch_requested 0
Core_0_ITLB_prefetch_issued 0
Core_0_ITLB_prefetch_useful 0
Core_0_ITLB_prefetch_useless 0
Core_0_ITLB_prefetch_late 0
Core_0_ITLB_prefetch_accuracy 0
Core_0_ITLB_prefetch_coverage 0
Core_0_ITLB_total_eviction 0

Core_0_DTLB_total_access 43541514
Core_0_DTLB_total_hit 43405236
Core_0_DTLB_total_miss 136278
Core_0_DTLB_total_MPKI 1.36278
Core_0_DTLB_total_miss_rate 0.00312984
Core_0_DTLB_demand_access 43541514
Core_0_DTLB_demand_hit 43405236
Core_0_DTLB_demand_miss 136278
Core_0_DTLB_demand_MPKI 1.36278
Core_0_DTLB_demand_miss_rate 0.00312984
Core_0_DTLB_load_access 43541514
Core_0_DTLB_load_hit 43405236
Core_0_DTLB_load_miss 136278
Core_0_DTLB_load_MPKI 1.36278
Core_0_DTLB_load_miss_rate 0.00312984
Core_0_DTLB_rfo_access 0
Core_0_DTLB_rfo_hit 0
Core_0_DTLB_rfo_miss 0
Core_0_DTLB_rfo_MPKI 0
Core_0_DTLB_rfo_miss_rate 0
Core_0_DTLB_prefetch_access 0
Core_0_DTLB_prefetch_hit 0
Core_0_DTLB_prefetch_miss 0
Core_0_DTLB_prefetch_MPKI 0
Core_0_DTLB_prefetch_miss_rate 0
Core_0_DTLB_writeback_access 0
Core_0_DTLB_writeback_hit 0
Core_0_DTLB_writeback_miss 0
Core_0_DTLB_writeback_MPKI 0
Core_0_DTLB_writeback_miss_rate 0
Core_0_DTLB_prefetch_requested 0
Core_0_DTLB_prefetch_issued 0
Core_0_DTLB_prefetch_useful 0
Core_0_DTLB_prefetch_useless 0
Core_0_DTLB_prefetch_late 0
Core_0_DTLB_prefetch_accuracy 0
Core_0_DTLB_prefetch_coverage 0
Core_0_DTLB_total_eviction 117741

Core_0_STLB_total_access 117741
Core_0_STLB_total_hit 8144
Core_0_STLB_total_miss 109597
Core_0_STLB_total_MPKI 1.09597
Core_0_STLB_total_miss_rate 0.930831
Core_0_STLB_demand_access 117741
Core_0_STLB_demand_hit 8144
Core_0_STLB_demand_miss 109597
Core_0_STLB_demand_MPKI 1.09597
Core_0_STLB_demand_miss_rate 0.930831
Core_0_STLB_load_access 117741
Core_0_STLB_load_hit 8144
Core_0_STLB_load_miss 109597
Core_0_STLB_load_MPKI 1.09597
Core_0_STLB_load_miss_rate 0.930831
Core_0_STLB_rfo_access 0
Core_0_STLB_rfo_hit 0
Core_0_STLB_rfo_miss 0
Core_0_STLB_rfo_MPKI 0
Core_0_STLB_rfo_miss_rate 0
Core_0_STLB_prefetch_access 0
Core_0_STLB_prefetch_hit 0
Core_0_STLB_prefetch_miss 0
Core_0_STLB_prefetch_MPKI 0
Core_0_STLB_prefetch_miss_rate 0
Core_0_STLB_writeback_access 0
Core_0_STLB_writeback_hit 0
Core_0_STLB_writeback_miss 0
Core_0_STLB_writeback_MPKI 0
Core_0_STLB_writeback_miss_rate 0
Core_0_STLB_prefetch_requested 0
Core_0_STLB_prefetch_issued 0
Core_0_STLB_prefetch_useful 0
Core_0_STLB_prefetch_useless 0
Core_0_STLB_prefetch_late 0
Core_0_STLB_prefetch_accuracy 0
Core_0_STLB_prefetch_coverage 0
Core_0_STLB_total_eviction 109597

Core_0_L1I_total_access 3
Core_0_L1I_total_hit 3
Core_0_L1I_total_miss 0
Core_0_L1I_total_MPKI 0
Core_0_L1I_total_miss_rate 0
Core_0_L1I_demand_access 3
Core_0_L1I_demand_hit 3
Core_0_L1I_demand_miss 0
Core_0_L1I_demand_MPKI 0
Core_0_L1I_demand_miss_rate 0
Core_0_L1I_load_access 3
Core_0_L1I_load_hit 3
Core_0_L1I_load_miss 0
Core_0_L1I_load_MPKI 0
Core_0_L1I_load_miss_rate 0
Core_0_L1I_rfo_access 0
Core_0_L1I_rfo_hit 0
Core_0_L1I_rfo_miss 0
Core_0_L1I_rfo_MPKI 0
Core_0_L1I_rfo_miss_rate 0
Core_0_L1I_prefetch_access 0
Core_0_L1I_prefetch_hit 0
Core_0_L1I_prefetch_miss 0
Core_0_L1I_prefetch_MPKI 0
Core_0_L1I_prefetch_miss_rate 0
Core_0_L1I_writeback_access 0
Core_0_L1I_writeback_hit 0
Core_0_L1I_writeback_miss 0
Core_0_L1I_writeback_MPKI 0
Core_0_L1I_writeback_miss_rate 0
Core_0_L1I_prefetch_requested 0
Core_0_L1I_prefetch_issued 0
Core_0_L1I_prefetch_useful 0
Core_0_L1I_prefetch_useless 0
Core_0_L1I_prefetch_late 0
Core_0_L1I_prefetch_accuracy 0
Core_0_L1I_prefetch_coverage 0
Core_0_L1I_total_eviction 0

Core_0_L1D_total_access 66180866
Core_0_L1D_total_hit 63989650
Core_0_L1D_total_miss 2191216
Core_0_L1D_total_MPKI 21.9122
Core_0_L1D_total_miss_rate 0.0331095
Core_0_L1D_demand_access 17148963
Core_0_L1D_demand_hit 16990615
Core_0_L1D_demand_miss 158348
Core_0_L1D_demand_MPKI 1.58348
Core_0_L1D_demand_miss_rate 0.00923368
Core_0_L1D_load_access 17148963
Core_0_L1D_load_hit 16990615
Core_0_L1D_load_miss 158348
Core_0_L1D_load_MPKI 1.58348
Core_0_L1D_load_miss_rate 0.00923368
Core_0_L1D_rfo_access 0
Core_0_L1D_rfo_hit 0
Core_0_L1D_rfo_miss 0
Core_0_L1D_rfo_MPKI 0
Core_0_L1D_rfo_miss_rate 0
Core_0_L1D_prefetch_access 48852973
Core_0_L1D_prefetch_hit 46820105
Core_0_L1D_prefetch_miss 2032868
Core_0_L1D_prefetch_MPKI 20.3287
Core_0_L1D_prefetch_miss_rate 0.041612
Core_0_L1D_writeback_access 178930
Core_0_L1D_writeback_hit 178930
Core_0_L1D_writeback_miss 0
Core_0_L1D_writeback_MPKI 0
Core_0_L1D_writeback_miss_rate 0
Core_0_L1D_prefetch_requested 156853825
Core_0_L1D_prefetch_issued 48852969
Core_0_L1D_prefetch_useful 1571077
Core_0_L1D_prefetch_useless 1950
Core_0_L1D_prefetch_late 1120
Core_0_L1D_prefetch_accuracy 0.0321593
Core_0_L1D_prefetch_coverage 0.908439
Core_0_L1D_total_eviction 1774424

Core_0_L2C_total_access 4217178
Core_0_L2C_total_hit 1328135
Core_0_L2C_total_miss 2889043
Core_0_L2C_total_MPKI 28.8904
Core_0_L2C_total_miss_rate 0.685065
Core_0_L2C_demand_access 133986
Core_0_L2C_demand_hit 465
Core_0_L2C_demand_miss 133521
Core_0_L2C_demand_MPKI 1.33521
Core_0_L2C_demand_miss_rate 0.996529
Core_0_L2C_load_access 133986
Core_0_L2C_load_hit 465
Core_0_L2C_load_miss 133521
Core_0_L2C_load_MPKI 1.33521
Core_0_L2C_load_miss_rate 0.996529
Core_0_L2C_rfo_access 0
Core_0_L2C_rfo_hit 0
Core_0_L2C_rfo_miss 0
Core_0_L2C_rfo_MPKI 0
Core_0_L2C_rfo_miss_rate 0
Core_0_L2C_prefetch_access 4020940
Core_0_L2C_prefetch_hit 1265445
Core_0_L2C_prefetch_miss 2755495
Core_0_L2C_prefetch_MPKI 27.5549
Core_0_L2C_prefetch_miss_rate 0.685286
Core_0_L2C_writeback_access 62252
Core_0_L2C_writeback_hit 62225
Core_0_L2C_writeback_miss 27
Core_0_L2C_writeback_MPKI 0.00027
Core_0_L2C_writeback_miss_rate 0.000433721
Core_0_L2C_prefetch_requested 1989259
Core_0_L2C_prefetch_issued 1989259
Core_0_L2C_prefetch_useful 614825
Core_0_L2C_prefetch_useless 353385
Core_0_L2C_prefetch_late 2
Core_0_L2C_prefetch_accuracy 0.309072
Core_0_L2C_prefetch_coverage 0.821579
Core_0_L2C_total_eviction 1762317

Core_0_LLC_total_access 1805910
Core_0_LLC_total_hit 64408
Core_0_LLC_total_miss 1741502
Core_0_LLC_total_MPKI 17.415
Core_0_LLC_total_miss_rate 0.964335
Core_0_LLC_demand_access 133459
Core_0_LLC_demand_hit 124
Core_0_LLC_demand_miss 133335
Core_0_LLC_demand_MPKI 1.33335
Core_0_LLC_demand_miss_rate 0.999071
Core_0_LLC_load_access 133459
Core_0_LLC_load_hit 124
Core_0_LLC_load_miss 133335
Core_0_LLC_load_MPKI 1.33335
Core_0_LLC_load_miss_rate 0.999071
Core_0_LLC_rfo_access 0
Core_0_LLC_rfo_hit 0
Core_0_LLC_rfo_miss 0
Core_0_LLC_rfo_MPKI 0
Core_0_LLC_rfo_miss_rate 0
Core_0_LLC_prefetch_access 1610209
Core_0_LLC_prefetch_hit 9573
Core_0_LLC_prefetch_miss 1600636
Core_0_LLC_prefetch_MPKI 16.0064
Core_0_LLC_prefetch_miss_rate 0.994055
Core_0_LLC_writeback_access 62242
Core_0_LLC_writeback_hit 54711
Core_0_LLC_writeback_miss 7531
Core_0_LLC_writeback_MPKI 0.07531
Core_0_LLC_writeback_miss_rate 0.120995
Core_0_LLC_prefetch_requested 0
Core_0_LLC_prefetch_issued 0
Core_0_LLC_prefetch_useful 0
Core_0_LLC_prefetch_useless 0
Core_0_LLC_prefetch_late 0
Core_0_LLC_prefetch_accuracy 0
Core_0_LLC_prefetch_coverage 0
Core_0_LLC_total_eviction 1739683

[DRAM Statistics]
Channel_0_RQ_row_buffer_hit 139241
Channel_0_RQ_row_buffer_miss 1592911
Channel_0_WQ_row_buffer_hit 11714
Channel_0_WQ_row_buffer_miss 50925
Channel_0_WQ_full 0
Channel_0_dbus_congested 3173314
DRAM_total_RQ_row_buffer_hit 139241
DRAM_total_RQ_row_buffer_miss 1592911
DRAM_total_WQ_row_buffer_hit 11714
DRAM_total_WQ_row_buffer_miss 50925
DRAM_total_WQ_full 0
DRAM_total_dbus_congested 3173314
DRAM_avg_congested_cycle 6.55437

======STLB miss causes ========
Core_0_STLB_miss_cause_breakdown
Core_0_STLB_cause_Demand_Data_miss 109597
Core_0_STLB_cause_Demand_Data_miss_rate 0.930831
Core_0_STLB_cause_Demand_Instruction_miss 0
Core_0_STLB_cause_Demand_Instruction_miss_rate 0
Core_0_STLB_cause_L1D_Prefetch_miss 0
Core_0_STLB_cause_L1D_Prefetch_miss_rate 0
Core_0_STLB_cause_L1I_Prefetch_miss 0
Core_0_STLB_cause_L1I_Prefetch_miss_rate 0
Core_0_STLB_cause_Other_miss 0
Core_0_STLB_cause_Other_miss_rate 0
Core_0_STLB_Demand_miss 109597
Core_0_STLB_Demand_miss_rate 0.930831
Core_0_STLB_L1D_Prefetch_miss 0
Core_0_STLB_L1D_Prefetch_miss_rate 0
Core_0_STLB_Other_miss 0
Core_0_STLB_Other_miss_rate 0
BERTI TO_L1: 204251761 TO_L2: 10771979 TO_L2_BC_MSHR: 389331
BERTI AVG_LAT: 99.9438 NUM_TRACK_LATENCY: 2556608 NUM_CANT_TRACK_LATENCY: 0
BERTI CROSS_PAGE 36298599 NO_CROSS_PAGE: 215023740
BERTI FOUND_BERTI: 17897874 NO_FOUND_BERTI: 6740759
BERTI AVERAGE_ISSUED: 3.80199
