[VMEM] WARNING: physical memory size is smaller than virtual memory size.

*** ChampSim Multicore Out-of-Order Simulator ***
Warmup Instructions: 50000000
Simulation Instructions: 100000000
Number of CPUs: 1
Page size: 4096
STLB ideal mode: off
STLB ideal fill: off
Core 0: /data2/zcq/champsim_traces_gap/cc.twitter-25B.champsimtrace.xz
VBerti Prefetcher
No Crossing Page
BERTI HASH ENTANGLING
BERTI IP MASK ffff
Off-chip DRAM Size: 16 GiB Channels: 1 Width: 64-bit Data Rate: 3205 MT/s
Warmup halting CPU 0 at instruction 50000002 cycle 17551966 for remainder of phase
Warmup finished CPU 0 instructions: 50000002 cycles: 17551966 cumulative IPC: 2.849 (Simulation time: 00 hr 03 min 35 sec)
Warmup complete CPU 0 instructions: 50000002 cycles: 17551966 cumulative IPC: 2.849 (Simulation time: 00 hr 03 min 35 sec)
Simulation finished CPU 0 instructions: 100000001 cycles: 445800842 cumulative IPC: 0.2243 (Simulation time: 00 hr 33 min 01 sec)
Simulation complete CPU 0 instructions: 100000001 cycles: 445800842 cumulative IPC: 0.2243 (Simulation time: 00 hr 33 min 01 sec)

ChampSim completed all CPUs

=== Simulation ===
CPU 0 runs /data2/zcq/champsim_traces_gap/cc.twitter-25B.champsimtrace.xz

Region of Interest Statistics

CPU 0 cumulative IPC: 0.2243 instructions: 100000001 cycles: 445800842
CPU 0 Branch Prediction Accuracy: 87.49% MPKI: 20.12 Average ROB Occupancy at Mispredict: 24.13
Branch type MPKI
BRANCH_DIRECT_JUMP: 0
BRANCH_INDIRECT: 0
BRANCH_CONDITIONAL: 20.12
BRANCH_DIRECT_CALL: 0
BRANCH_INDIRECT_CALL: 0
BRANCH_RETURN: 0

cpu0->cpu0_STLB TOTAL        ACCESS:    1888410 HIT:     448894 MISS:    1439516 MSHR_MERGE:          0
cpu0->cpu0_STLB LOAD         ACCESS:    1888410 HIT:     448894 MISS:    1439516 MSHR_MERGE:          0
cpu0->cpu0_STLB RFO          ACCESS:          0 HIT:          0 MISS:          0 MSHR_MERGE:          0
cpu0->cpu0_STLB PREFETCH     ACCESS:          0 HIT:          0 MISS:          0 MSHR_MERGE:          0
cpu0->cpu0_STLB WRITE        ACCESS:          0 HIT:          0 MISS:          0 MSHR_MERGE:          0
cpu0->cpu0_STLB TRANSLATION  ACCESS:          0 HIT:          0 MISS:          0 MSHR_MERGE:          0
cpu0->cpu0_STLB PREFETCH REQUESTED:          0 ISSUED:          0 USEFUL:          0 USELESS:          0 LATE:          0
cpu0->cpu0_STLB AVERAGE MISS LATENCY: 50.14 cycles
cpu0->cpu0_L2C TOTAL        ACCESS:   13434087 HIT:    6313652 MISS:    7120435 MSHR_MERGE:    1239035
cpu0->cpu0_L2C LOAD         ACCESS:    2327753 HIT:     614064 MISS:    1713689 MSHR_MERGE:      12987
cpu0->cpu0_L2C RFO          ACCESS:          0 HIT:          0 MISS:          0 MSHR_MERGE:          0
cpu0->cpu0_L2C PREFETCH     ACCESS:    9724009 HIT:    5245357 MISS:    4478652 MSHR_MERGE:    1226048
cpu0->cpu0_L2C WRITE        ACCESS:      23578 HIT:      23562 MISS:         16 MSHR_MERGE:          0
cpu0->cpu0_L2C TRANSLATION  ACCESS:    1358747 HIT:     430669 MISS:     928078 MSHR_MERGE:          0
cpu0->cpu0_L2C PREFETCH REQUESTED:    3576535 ISSUED:    3576402 USEFUL:     934568 USELESS:     168738 LATE:       6730
cpu0->cpu0_L2C AVERAGE MISS LATENCY: 141.9 cycles
cpu0->cpu0_L1I TOTAL        ACCESS:     285329 HIT:     285329 MISS:          0 MSHR_MERGE:          0
cpu0->cpu0_L1I LOAD         ACCESS:     285329 HIT:     285329 MISS:          0 MSHR_MERGE:          0
cpu0->cpu0_L1I RFO          ACCESS:          0 HIT:          0 MISS:          0 MSHR_MERGE:          0
cpu0->cpu0_L1I PREFETCH     ACCESS:          0 HIT:          0 MISS:          0 MSHR_MERGE:          0
cpu0->cpu0_L1I WRITE        ACCESS:          0 HIT:          0 MISS:          0 MSHR_MERGE:          0
cpu0->cpu0_L1I TRANSLATION  ACCESS:          0 HIT:          0 MISS:          0 MSHR_MERGE:          0
cpu0->cpu0_L1I PREFETCH REQUESTED:          0 ISSUED:          0 USEFUL:          0 USELESS:          0 LATE:          0
cpu0->cpu0_L1I AVERAGE MISS LATENCY: - cycles
cpu0->cpu0_L1D TOTAL        ACCESS:   65196144 HIT:   55076405 MISS:   10119739 MSHR_MERGE:     259157
cpu0->cpu0_L1D LOAD         ACCESS:   27854044 HIT:   25335987 MISS:    2518057 MSHR_MERGE:     190304
cpu0->cpu0_L1D RFO          ACCESS:          0 HIT:          0 MISS:          0 MSHR_MERGE:          0
cpu0->cpu0_L1D PREFETCH     ACCESS:   33621320 HIT:   27378494 MISS:    6242826 MSHR_MERGE:      68744
cpu0->cpu0_L1D WRITE        ACCESS:      23895 HIT:      23895 MISS:          0 MSHR_MERGE:          0
cpu0->cpu0_L1D TRANSLATION  ACCESS:    3696885 HIT:    2338029 MISS:    1358856 MSHR_MERGE:        109
cpu0->cpu0_L1D PREFETCH REQUESTED:  108605750 ISSUED:   33621313 USEFUL:    1854774 USELESS:     681684 LATE:       9456
cpu0->cpu0_L1D AVERAGE MISS LATENCY: 110.4 cycles
cpu0->cpu0_ITLB TOTAL        ACCESS:     228142 HIT:     228142 MISS:          0 MSHR_MERGE:          0
cpu0->cpu0_ITLB LOAD         ACCESS:     228142 HIT:     228142 MISS:          0 MSHR_MERGE:          0
cpu0->cpu0_ITLB RFO          ACCESS:          0 HIT:          0 MISS:          0 MSHR_MERGE:          0
cpu0->cpu0_ITLB PREFETCH     ACCESS:          0 HIT:          0 MISS:          0 MSHR_MERGE:          0
cpu0->cpu0_ITLB WRITE        ACCESS:          0 HIT:          0 MISS:          0 MSHR_MERGE:          0
cpu0->cpu0_ITLB TRANSLATION  ACCESS:          0 HIT:          0 MISS:          0 MSHR_MERGE:          0
cpu0->cpu0_ITLB PREFETCH REQUESTED:          0 ISSUED:          0 USEFUL:          0 USELESS:          0 LATE:          0
cpu0->cpu0_ITLB AVERAGE MISS LATENCY: - cycles
cpu0->cpu0_DTLB TOTAL        ACCESS:   49196722 HIT:   47242893 MISS:    1953829 MSHR_MERGE:      65419
cpu0->cpu0_DTLB LOAD         ACCESS:   49196722 HIT:   47242893 MISS:    1953829 MSHR_MERGE:      65419
cpu0->cpu0_DTLB RFO          ACCESS:          0 HIT:          0 MISS:          0 MSHR_MERGE:          0
cpu0->cpu0_DTLB PREFETCH     ACCESS:          0 HIT:          0 MISS:          0 MSHR_MERGE:          0
cpu0->cpu0_DTLB WRITE        ACCESS:          0 HIT:          0 MISS:          0 MSHR_MERGE:          0
cpu0->cpu0_DTLB TRANSLATION  ACCESS:          0 HIT:          0 MISS:          0 MSHR_MERGE:          0
cpu0->cpu0_DTLB PREFETCH REQUESTED:          0 ISSUED:          0 USEFUL:          0 USELESS:          0 LATE:          0
cpu0->cpu0_DTLB AVERAGE MISS LATENCY: 43.99 cycles
cpu0->LLC TOTAL        ACCESS:    5904941 HIT:    1062276 MISS:    4842665 MSHR_MERGE:       6535
cpu0->LLC LOAD         ACCESS:    1700702 HIT:     170668 MISS:    1530034 MSHR_MERGE:         12
cpu0->LLC RFO          ACCESS:          0 HIT:          0 MISS:          0 MSHR_MERGE:          0
cpu0->LLC PREFETCH     ACCESS:    3252604 HIT:      11904 MISS:    3240700 MSHR_MERGE:       6523
cpu0->LLC WRITE        ACCESS:      23557 HIT:       4196 MISS:      19361 MSHR_MERGE:          0
cpu0->LLC TRANSLATION  ACCESS:     928078 HIT:     875508 MISS:      52570 MSHR_MERGE:          0
cpu0->LLC PREFETCH REQUESTED:          0 ISSUED:          0 USEFUL:          0 USELESS:          0 LATE:          0
cpu0->LLC AVERAGE MISS LATENCY: 207.4 cycles

DRAM Statistics

Channel 0 RQ ROW_BUFFER_HIT:     404177
  ROW_BUFFER_MISS:    4412590
  AVG DBUS CONGESTED CYCLE: 5.428
Channel 0 WQ ROW_BUFFER_HIT:       6241
  ROW_BUFFER_MISS:      17604
  FULL:          0
Channel 0 REFRESHES ISSUED:      37150

[ROI Statistics]
[System Configuration]
num_cpus 1
cpu_freq 4000
fetch_width 6
decode_width 6
dispatch_width 6
execute_width 6
lq_width 2
sq_width 2
retire_width 6
scheduler_size 128
branch_mispredict_penalty 15
rob_size 352
lq_size 128
sq_size 72
ifetch_buffer_size 64
decode_buffer_size 32
dispatch_buffer_size 32
register_file_size 288
decode_latency 1
dispatch_latency 1
schedule_latency 1
execute_latency 1
page_size 4096
block_size 64
core_0_itlb_set 16
core_0_itlb_way 4
core_0_itlb_rq_size 16
core_0_itlb_wq_size 16
core_0_itlb_pq_size 0
core_0_itlb_mshr_size 8
core_0_itlb_hit_latency 1
core_0_itlb_fill_latency 1
core_0_itlb_max_tag_check 2
core_0_itlb_max_fill 2
core_0_dtlb_set 16
core_0_dtlb_way 4
core_0_dtlb_rq_size 16
core_0_dtlb_wq_size 16
core_0_dtlb_pq_size 0
core_0_dtlb_mshr_size 8
core_0_dtlb_hit_latency 1
core_0_dtlb_fill_latency 1
core_0_dtlb_max_tag_check 2
core_0_dtlb_max_fill 2
core_0_stlb_set 128
core_0_stlb_way 12
core_0_stlb_rq_size 32
core_0_stlb_wq_size 32
core_0_stlb_pq_size 0
core_0_stlb_mshr_size 16
core_0_stlb_hit_latency 4
core_0_stlb_fill_latency 4
core_0_stlb_max_tag_check 1
core_0_stlb_max_fill 1
core_0_l1i_set 64
core_0_l1i_way 8
core_0_l1i_rq_size 64
core_0_l1i_wq_size 64
core_0_l1i_pq_size 32
core_0_l1i_mshr_size 8
core_0_l1i_hit_latency 2
core_0_l1i_fill_latency 2
core_0_l1i_max_tag_check 2
core_0_l1i_max_fill 2
core_0_l1d_set 64
core_0_l1d_way 12
core_0_l1d_rq_size 64
core_0_l1d_wq_size 64
core_0_l1d_pq_size 8
core_0_l1d_mshr_size 16
core_0_l1d_hit_latency 2
core_0_l1d_fill_latency 3
core_0_l1d_max_tag_check 2
core_0_l1d_max_fill 2
core_0_l2c_set 1024
core_0_l2c_way 8
core_0_l2c_rq_size 32
core_0_l2c_wq_size 32
core_0_l2c_pq_size 16
core_0_l2c_mshr_size 32
core_0_l2c_hit_latency 5
core_0_l2c_fill_latency 5
core_0_l2c_max_tag_check 1
core_0_l2c_max_fill 1
llc_set 2048
llc_way 16
llc_rq_size 32
llc_wq_size 32
llc_pq_size 32
llc_mshr_size 64
llc_hit_latency 10
llc_fill_latency 10
llc_max_tag_check 1
llc_max_fill 1
dram_channels 1
dram_ranks 1
dram_bankgroups 8
dram_banks 4
dram_rows 65536
dram_columns 1024
dram_channel_width 8
dram_rq_size 64
dram_wq_size 64
dram_size 17179869184
core_0_itlb_prefetcher no
core_0_dtlb_prefetcher no
core_0_stlb_prefetcher no
core_0_l1i_prefetcher next_line
core_0_l1d_prefetcher vberti_nocross
core_0_l2c_prefetcher ip_stride
llc_prefetcher no
llc_replacement drrip

Core_0_instructions 100000001
Core_0_cycles 445800842
Core_0_IPC 0.224315
Core_0_branch_prediction_accuracy 87.4892
Core_0_branch_MPKI 20.124
Core_0_average_ROB_occupancy_at_mispredict 24.1339

Core_0_ITLB_total_access 228142
Core_0_ITLB_total_hit 228142
Core_0_ITLB_total_miss 0
Core_0_ITLB_total_MPKI 0
Core_0_ITLB_total_miss_rate 0
Core_0_ITLB_demand_access 228142
Core_0_ITLB_demand_hit 228142
Core_0_ITLB_demand_miss 0
Core_0_ITLB_demand_MPKI 0
Core_0_ITLB_demand_miss_rate 0
Core_0_ITLB_load_access 228142
Core_0_ITLB_load_hit 228142
Core_0_ITLB_load_miss 0
Core_0_ITLB_load_MPKI 0
Core_0_ITLB_load_miss_rate 0
Core_0_ITLB_rfo_access 0
Core_0_ITLB_rfo_hit 0
Core_0_ITLB_rfo_miss 0
Core_0_ITLB_rfo_MPKI 0
Core_0_ITLB_rfo_miss_rate 0
Core_0_ITLB_prefetch_access 0
Core_0_ITLB_prefetch_hit 0
Core_0_ITLB_prefetch_miss 0
Core_0_ITLB_prefetch_MPKI 0
Core_0_ITLB_prefetch_miss_rate 0
Core_0_ITLB_writeback_access 0
Core_0_ITLB_writeback_hit 0
Core_0_ITLB_writeback_miss 0
Core_0_ITLB_writeback_MPKI 0
Core_0_ITLB_writeback_miss_rate 0
Core_0_ITLB_prefetch_requested 0
Core_0_ITLB_prefetch_issued 0
Core_0_ITLB_prefetch_useful 0
Core_0_ITLB_prefetch_useless 0
Core_0_ITLB_prefetch_late 0
Core_0_ITLB_prefetch_accuracy 0
Core_0_ITLB_prefetch_coverage 0
Core_0_ITLB_total_eviction 0

Core_0_DTLB_total_access 49196722
Core_0_DTLB_total_hit 47242893
Core_0_DTLB_total_miss 1953829
Core_0_DTLB_total_MPKI 19.5383
Core_0_DTLB_total_miss_rate 0.0397146
Core_0_DTLB_demand_access 49196722
Core_0_DTLB_demand_hit 47242893
Core_0_DTLB_demand_miss 1953829
Core_0_DTLB_demand_MPKI 19.5383
Core_0_DTLB_demand_miss_rate 0.0397146
Core_0_DTLB_load_access 49196722
Core_0_DTLB_load_hit 47242893
Core_0_DTLB_load_miss 1953829
Core_0_DTLB_load_MPKI 19.5383
Core_0_DTLB_load_miss_rate 0.0397146
Core_0_DTLB_rfo_access 0
Core_0_DTLB_rfo_hit 0
Core_0_DTLB_rfo_miss 0
Core_0_DTLB_rfo_MPKI 0
Core_0_DTLB_rfo_miss_rate 0
Core_0_DTLB_prefetch_access 0
Core_0_DTLB_prefetch_hit 0
Core_0_DTLB_prefetch_miss 0
Core_0_DTLB_prefetch_MPKI 0
Core_0_DTLB_prefetch_miss_rate 0
Core_0_DTLB_writeback_access 0
Core_0_DTLB_writeback_hit 0
Core_0_DTLB_writeback_miss 0
Core_0_DTLB_writeback_MPKI 0
Core_0_DTLB_writeback_miss_rate 0
Core_0_DTLB_prefetch_requested 0
Core_0_DTLB_prefetch_issued 0
Core_0_DTLB_prefetch_useful 0
Core_0_DTLB_prefetch_useless 0
Core_0_DTLB_prefetch_late 0
Core_0_DTLB_prefetch_accuracy 0
Core_0_DTLB_prefetch_coverage 0
Core_0_DTLB_total_eviction 1888410

Core_0_STLB_total_access 1888410
Core_0_STLB_total_hit 448894
Core_0_STLB_total_miss 1439516
Core_0_STLB_total_MPKI 14.3952
Core_0_STLB_total_miss_rate 0.76229
Core_0_STLB_demand_access 1888410
Core_0_STLB_demand_hit 448894
Core_0_STLB_demand_miss 1439516
Core_0_STLB_demand_MPKI 14.3952
Core_0_STLB_demand_miss_rate 0.76229
Core_0_STLB_load_access 1888410
Core_0_STLB_load_hit 448894
Core_0_STLB_load_miss 1439516
Core_0_STLB_load_MPKI 14.3952
Core_0_STLB_load_miss_rate 0.76229
Core_0_STLB_rfo_access 0
Core_0_STLB_rfo_hit 0
Core_0_STLB_rfo_miss 0
Core_0_STLB_rfo_MPKI 0
Core_0_STLB_rfo_miss_rate 0
Core_0_STLB_prefetch_access 0
Core_0_STLB_prefetch_hit 0
Core_0_STLB_prefetch_miss 0
Core_0_STLB_prefetch_MPKI 0
Core_0_STLB_prefetch_miss_rate 0
Core_0_STLB_writeback_access 0
Core_0_STLB_writeback_hit 0
Core_0_STLB_writeback_miss 0
Core_0_STLB_writeback_MPKI 0
Core_0_STLB_writeback_miss_rate 0
Core_0_STLB_prefetch_requested 0
Core_0_STLB_prefetch_issued 0
Core_0_STLB_prefetch_useful 0
Core_0_STLB_prefetch_useless 0
Core_0_STLB_prefetch_late 0
Core_0_STLB_prefetch_accuracy 0
Core_0_STLB_prefetch_coverage 0
Core_0_STLB_total_eviction 1439516

Core_0_L1I_total_access 285329
Core_0_L1I_total_hit 285329
Core_0_L1I_total_miss 0
Core_0_L1I_total_MPKI 0
Core_0_L1I_total_miss_rate 0
Core_0_L1I_demand_access 285329
Core_0_L1I_demand_hit 285329
Core_0_L1I_demand_miss 0
Core_0_L1I_demand_MPKI 0
Core_0_L1I_demand_miss_rate 0
Core_0_L1I_load_access 285329
Core_0_L1I_load_hit 285329
Core_0_L1I_load_miss 0
Core_0_L1I_load_MPKI 0
Core_0_L1I_load_miss_rate 0
Core_0_L1I_rfo_access 0
Core_0_L1I_rfo_hit 0
Core_0_L1I_rfo_miss 0
Core_0_L1I_rfo_MPKI 0
Core_0_L1I_rfo_miss_rate 0
Core_0_L1I_prefetch_access 0
Core_0_L1I_prefetch_hit 0
Core_0_L1I_prefetch_miss 0
Core_0_L1I_prefetch_MPKI 0
Core_0_L1I_prefetch_miss_rate 0
Core_0_L1I_writeback_access 0
Core_0_L1I_writeback_hit 0
Core_0_L1I_writeback_miss 0
Core_0_L1I_writeback_MPKI 0
Core_0_L1I_writeback_miss_rate 0
Core_0_L1I_prefetch_requested 0
Core_0_L1I_prefetch_issued 0
Core_0_L1I_prefetch_useful 0
Core_0_L1I_prefetch_useless 0
Core_0_L1I_prefetch_late 0
Core_0_L1I_prefetch_accuracy 0
Core_0_L1I_prefetch_coverage 0
Core_0_L1I_total_eviction 0

Core_0_L1D_total_access 61499259
Core_0_L1D_total_hit 52738376
Core_0_L1D_total_miss 8760883
Core_0_L1D_total_MPKI 87.6088
Core_0_L1D_total_miss_rate 0.142455
Core_0_L1D_demand_access 27854044
Core_0_L1D_demand_hit 25335987
Core_0_L1D_demand_miss 2518057
Core_0_L1D_demand_MPKI 25.1806
Core_0_L1D_demand_miss_rate 0.0904018
Core_0_L1D_load_access 27854044
Core_0_L1D_load_hit 25335987
Core_0_L1D_load_miss 2518057
Core_0_L1D_load_MPKI 25.1806
Core_0_L1D_load_miss_rate 0.0904018
Core_0_L1D_rfo_access 0
Core_0_L1D_rfo_hit 0
Core_0_L1D_rfo_miss 0
Core_0_L1D_rfo_MPKI 0
Core_0_L1D_rfo_miss_rate 0
Core_0_L1D_prefetch_access 33621320
Core_0_L1D_prefetch_hit 27378494
Core_0_L1D_prefetch_miss 6242826
Core_0_L1D_prefetch_MPKI 62.4283
Core_0_L1D_prefetch_miss_rate 0.185681
Core_0_L1D_writeback_access 23895
Core_0_L1D_writeback_hit 23895
Core_0_L1D_writeback_miss 0
Core_0_L1D_writeback_MPKI 0
Core_0_L1D_writeback_miss_rate 0
Core_0_L1D_prefetch_requested 108605750
Core_0_L1D_prefetch_issued 33621313
Core_0_L1D_prefetch_useful 1854774
Core_0_L1D_prefetch_useless 681684
Core_0_L1D_prefetch_late 9456
Core_0_L1D_prefetch_accuracy 0.0551666
Core_0_L1D_prefetch_coverage 0.424159
Core_0_L1D_total_eviction 6223007

Core_0_L2C_total_access 12075340
Core_0_L2C_total_hit 5882983
Core_0_L2C_total_miss 6192357
Core_0_L2C_total_MPKI 61.9236
Core_0_L2C_total_miss_rate 0.51281
Core_0_L2C_demand_access 2327753
Core_0_L2C_demand_hit 614064
Core_0_L2C_demand_miss 1713689
Core_0_L2C_demand_MPKI 17.1369
Core_0_L2C_demand_miss_rate 0.736199
Core_0_L2C_load_access 2327753
Core_0_L2C_load_hit 614064
Core_0_L2C_load_miss 1713689
Core_0_L2C_load_MPKI 17.1369
Core_0_L2C_load_miss_rate 0.736199
Core_0_L2C_rfo_access 0
Core_0_L2C_rfo_hit 0
Core_0_L2C_rfo_miss 0
Core_0_L2C_rfo_MPKI 0
Core_0_L2C_rfo_miss_rate 0
Core_0_L2C_prefetch_access 9724009
Core_0_L2C_prefetch_hit 5245357
Core_0_L2C_prefetch_miss 4478652
Core_0_L2C_prefetch_MPKI 44.7865
Core_0_L2C_prefetch_miss_rate 0.460577
Core_0_L2C_writeback_access 23578
Core_0_L2C_writeback_hit 23562
Core_0_L2C_writeback_miss 16
Core_0_L2C_writeback_MPKI 0.00016
Core_0_L2C_writeback_miss_rate 0.000678599
Core_0_L2C_prefetch_requested 3576535
Core_0_L2C_prefetch_issued 3576402
Core_0_L2C_prefetch_useful 934568
Core_0_L2C_prefetch_useless 168738
Core_0_L2C_prefetch_late 6730
Core_0_L2C_prefetch_accuracy 0.261315
Core_0_L2C_prefetch_coverage 0.352899
Core_0_L2C_total_eviction 5864111

Core_0_LLC_total_access 4976863
Core_0_LLC_total_hit 186768
Core_0_LLC_total_miss 4790095
Core_0_LLC_total_MPKI 47.9009
Core_0_LLC_total_miss_rate 0.962473
Core_0_LLC_demand_access 1700702
Core_0_LLC_demand_hit 170668
Core_0_LLC_demand_miss 1530034
Core_0_LLC_demand_MPKI 15.3003
Core_0_LLC_demand_miss_rate 0.899648
Core_0_LLC_load_access 1700702
Core_0_LLC_load_hit 170668
Core_0_LLC_load_miss 1530034
Core_0_LLC_load_MPKI 15.3003
Core_0_LLC_load_miss_rate 0.899648
Core_0_LLC_rfo_access 0
Core_0_LLC_rfo_hit 0
Core_0_LLC_rfo_miss 0
Core_0_LLC_rfo_MPKI 0
Core_0_LLC_rfo_miss_rate 0
Core_0_LLC_prefetch_access 3252604
Core_0_LLC_prefetch_hit 11904
Core_0_LLC_prefetch_miss 3240700
Core_0_LLC_prefetch_MPKI 32.407
Core_0_LLC_prefetch_miss_rate 0.99634
Core_0_LLC_writeback_access 23557
Core_0_LLC_writeback_hit 4196
Core_0_LLC_writeback_miss 19361
Core_0_LLC_writeback_MPKI 0.19361
Core_0_LLC_writeback_miss_rate 0.821879
Core_0_LLC_prefetch_requested 0
Core_0_LLC_prefetch_issued 0
Core_0_LLC_prefetch_useful 0
Core_0_LLC_prefetch_useless 0
Core_0_LLC_prefetch_late 0
Core_0_LLC_prefetch_accuracy 0
Core_0_LLC_prefetch_coverage 0
Core_0_LLC_total_eviction 4836129

[DRAM Statistics]
Channel_0_RQ_row_buffer_hit 404177
Channel_0_RQ_row_buffer_miss 4412590
Channel_0_WQ_row_buffer_hit 6241
Channel_0_WQ_row_buffer_miss 17604
Channel_0_WQ_full 0
Channel_0_dbus_congested 7098522
DRAM_total_RQ_row_buffer_hit 404177
DRAM_total_RQ_row_buffer_miss 4412590
DRAM_total_WQ_row_buffer_hit 6241
DRAM_total_WQ_row_buffer_miss 17604
DRAM_total_WQ_full 0
DRAM_total_dbus_congested 7098522
DRAM_avg_congested_cycle 5.42789

======STLB miss causes ========
Core_0_STLB_miss_cause_breakdown
Core_0_STLB_cause_Demand_Data_miss 1439516
Core_0_STLB_cause_Demand_Data_miss_rate 0.76229
Core_0_STLB_cause_Demand_Instruction_miss 0
Core_0_STLB_cause_Demand_Instruction_miss_rate 0
Core_0_STLB_cause_L1D_Prefetch_miss 0
Core_0_STLB_cause_L1D_Prefetch_miss_rate 0
Core_0_STLB_cause_L1I_Prefetch_miss 0
Core_0_STLB_cause_L1I_Prefetch_miss_rate 0
Core_0_STLB_cause_Other_miss 0
Core_0_STLB_cause_Other_miss_rate 0
Core_0_STLB_Demand_miss 1439516
Core_0_STLB_Demand_miss_rate 0.76229
Core_0_STLB_L1D_Prefetch_miss 0
Core_0_STLB_L1D_Prefetch_miss_rate 0
Core_0_STLB_Other_miss 0
Core_0_STLB_Other_miss_rate 0
BERTI TO_L1: 106098127 TO_L2: 31600484 TO_L2_BC_MSHR: 74860
BERTI AVG_LAT: 105.843 NUM_TRACK_LATENCY: 7182374 NUM_CANT_TRACK_LATENCY: 0
BERTI CROSS_PAGE 21270891 NO_CROSS_PAGE: 137698611
BERTI FOUND_BERTI: 20764276 NO_FOUND_BERTI: 14209979
BERTI AVERAGE_ISSUED: 3.80832
