[VMEM] WARNING: physical memory size is smaller than virtual memory size.

*** ChampSim Multicore Out-of-Order Simulator ***
Warmup Instructions: 50000000
Simulation Instructions: 100000000
Number of CPUs: 1
Page size: 4096
STLB ideal mode: off
STLB ideal fill: off
Core 0: /data2/zcq/champsim_traces_gap/cc.web-101B.champsimtrace.xz
VBerti Prefetcher
No Crossing Page
BERTI HASH ENTANGLING
BERTI IP MASK ffff
Off-chip DRAM Size: 16 GiB Channels: 1 Width: 64-bit Data Rate: 3205 MT/s
Warmup halting CPU 0 at instruction 50000004 cycle 18267324 for remainder of phase
Warmup finished CPU 0 instructions: 50000004 cycles: 18267324 cumulative IPC: 2.737 (Simulation time: 00 hr 03 min 30 sec)
Warmup complete CPU 0 instructions: 50000004 cycles: 18267324 cumulative IPC: 2.737 (Simulation time: 00 hr 03 min 30 sec)
Simulation finished CPU 0 instructions: 100000000 cycles: 189694984 cumulative IPC: 0.5272 (Simulation time: 00 hr 20 min 48 sec)
Simulation complete CPU 0 instructions: 100000000 cycles: 189694984 cumulative IPC: 0.5272 (Simulation time: 00 hr 20 min 48 sec)

ChampSim completed all CPUs

=== Simulation ===
CPU 0 runs /data2/zcq/champsim_traces_gap/cc.web-101B.champsimtrace.xz

Region of Interest Statistics

CPU 0 cumulative IPC: 0.5272 instructions: 100000000 cycles: 189694984
CPU 0 Branch Prediction Accuracy: 94.38% MPKI: 9.172 Average ROB Occupancy at Mispredict: 45.1
Branch type MPKI
BRANCH_DIRECT_JUMP: 0
BRANCH_INDIRECT: 0
BRANCH_CONDITIONAL: 9.172
BRANCH_DIRECT_CALL: 0
BRANCH_INDIRECT_CALL: 0
BRANCH_RETURN: 0

cpu0->cpu0_STLB TOTAL        ACCESS:     168735 HIT:      35019 MISS:     133716 MSHR_MERGE:          0
cpu0->cpu0_STLB LOAD         ACCESS:     168735 HIT:      35019 MISS:     133716 MSHR_MERGE:          0
cpu0->cpu0_STLB RFO          ACCESS:          0 HIT:          0 MISS:          0 MSHR_MERGE:          0
cpu0->cpu0_STLB PREFETCH     ACCESS:          0 HIT:          0 MISS:          0 MSHR_MERGE:          0
cpu0->cpu0_STLB WRITE        ACCESS:          0 HIT:          0 MISS:          0 MSHR_MERGE:          0
cpu0->cpu0_STLB TRANSLATION  ACCESS:          0 HIT:          0 MISS:          0 MSHR_MERGE:          0
cpu0->cpu0_STLB PREFETCH REQUESTED:          0 ISSUED:          0 USEFUL:          0 USELESS:          0 LATE:          0
cpu0->cpu0_STLB AVERAGE MISS LATENCY: 240.9 cycles
cpu0->cpu0_L2C TOTAL        ACCESS:    9173359 HIT:    2769567 MISS:    6403792 MSHR_MERGE:    1904073
cpu0->cpu0_L2C LOAD         ACCESS:    1817347 HIT:     574392 MISS:    1242955 MSHR_MERGE:     205806
cpu0->cpu0_L2C RFO          ACCESS:          0 HIT:          0 MISS:          0 MSHR_MERGE:          0
cpu0->cpu0_L2C PREFETCH     ACCESS:    7280226 HIT:    2145688 MISS:    5134538 MSHR_MERGE:    1698267
cpu0->cpu0_L2C WRITE        ACCESS:      44698 HIT:      44508 MISS:        190 MSHR_MERGE:          0
cpu0->cpu0_L2C TRANSLATION  ACCESS:      31088 HIT:       4979 MISS:      26109 MSHR_MERGE:          0
cpu0->cpu0_L2C PREFETCH REQUESTED:    2771029 ISSUED:    2769933 USEFUL:     478739 USELESS:     482392 LATE:      84727
cpu0->cpu0_L2C AVERAGE MISS LATENCY: 206.6 cycles
cpu0->cpu0_L1I TOTAL        ACCESS:    6738711 HIT:    6738711 MISS:          0 MSHR_MERGE:          0
cpu0->cpu0_L1I LOAD         ACCESS:    6738711 HIT:    6738711 MISS:          0 MSHR_MERGE:          0
cpu0->cpu0_L1I RFO          ACCESS:          0 HIT:          0 MISS:          0 MSHR_MERGE:          0
cpu0->cpu0_L1I PREFETCH     ACCESS:          0 HIT:          0 MISS:          0 MSHR_MERGE:          0
cpu0->cpu0_L1I WRITE        ACCESS:          0 HIT:          0 MISS:          0 MSHR_MERGE:          0
cpu0->cpu0_L1I TRANSLATION  ACCESS:          0 HIT:          0 MISS:          0 MSHR_MERGE:          0
cpu0->cpu0_L1I PREFETCH REQUESTED:          0 ISSUED:          0 USEFUL:          0 USELESS:          0 LATE:          0
cpu0->cpu0_L1I AVERAGE MISS LATENCY: - cycles
cpu0->cpu0_L1D TOTAL        ACCESS:   46346267 HIT:   39647697 MISS:    6698570 MSHR_MERGE:     298496
cpu0->cpu0_L1D LOAD         ACCESS:   24236641 HIT:   22233441 MISS:    2003200 MSHR_MERGE:     185853
cpu0->cpu0_L1D RFO          ACCESS:          0 HIT:          0 MISS:          0 MSHR_MERGE:          0
cpu0->cpu0_L1D PREFETCH     ACCESS:   21749820 HIT:   17086477 MISS:    4663343 MSHR_MERGE:     111704
cpu0->cpu0_L1D WRITE        ACCESS:      90224 HIT:      90224 MISS:          0 MSHR_MERGE:          0
cpu0->cpu0_L1D TRANSLATION  ACCESS:     269582 HIT:     237555 MISS:      32027 MSHR_MERGE:        939
cpu0->cpu0_L1D PREFETCH REQUESTED:   78181039 ISSUED:   21749812 USEFUL:    1323408 USELESS:     359127 LATE:      91768
cpu0->cpu0_L1D AVERAGE MISS LATENCY: 148.3 cycles
cpu0->cpu0_ITLB TOTAL        ACCESS:    5535088 HIT:    5535088 MISS:          0 MSHR_MERGE:          0
cpu0->cpu0_ITLB LOAD         ACCESS:    5535088 HIT:    5535088 MISS:          0 MSHR_MERGE:          0
cpu0->cpu0_ITLB RFO          ACCESS:          0 HIT:          0 MISS:          0 MSHR_MERGE:          0
cpu0->cpu0_ITLB PREFETCH     ACCESS:          0 HIT:          0 MISS:          0 MSHR_MERGE:          0
cpu0->cpu0_ITLB WRITE        ACCESS:          0 HIT:          0 MISS:          0 MSHR_MERGE:          0
cpu0->cpu0_ITLB TRANSLATION  ACCESS:          0 HIT:          0 MISS:          0 MSHR_MERGE:          0
cpu0->cpu0_ITLB PREFETCH REQUESTED:          0 ISSUED:          0 USEFUL:          0 USELESS:          0 LATE:          0
cpu0->cpu0_ITLB AVERAGE MISS LATENCY: - cycles
cpu0->cpu0_DTLB TOTAL        ACCESS:   38296355 HIT:   37749292 MISS:     547063 MSHR_MERGE:     378328
cpu0->cpu0_DTLB LOAD         ACCESS:   38296355 HIT:   37749292 MISS:     547063 MSHR_MERGE:     378328
cpu0->cpu0_DTLB RFO          ACCESS:          0 HIT:          0 MISS:          0 MSHR_MERGE:          0
cpu0->cpu0_DTLB PREFETCH     ACCESS:          0 HIT:          0 MISS:          0 MSHR_MERGE:          0
cpu0->cpu0_DTLB WRITE        ACCESS:          0 HIT:          0 MISS:          0 MSHR_MERGE:          0
cpu0->cpu0_DTLB TRANSLATION  ACCESS:          0 HIT:          0 MISS:          0 MSHR_MERGE:          0
cpu0->cpu0_DTLB PREFETCH REQUESTED:          0 ISSUED:          0 USEFUL:          0 USELESS:          0 LATE:          0
cpu0->cpu0_DTLB AVERAGE MISS LATENCY: 196.7 cycles
cpu0->LLC TOTAL        ACCESS:    4541716 HIT:     111926 MISS:    4429790 MSHR_MERGE:     125845
cpu0->LLC LOAD         ACCESS:    1037149 HIT:      40992 MISS:     996157 MSHR_MERGE:      10140
cpu0->LLC RFO          ACCESS:          0 HIT:          0 MISS:          0 MSHR_MERGE:          0
cpu0->LLC PREFETCH     ACCESS:    3436268 HIT:      39688 MISS:    3396580 MSHR_MERGE:     115705
cpu0->LLC WRITE        ACCESS:      42190 HIT:      29023 MISS:      13167 MSHR_MERGE:          0
cpu0->LLC TRANSLATION  ACCESS:      26109 HIT:       2223 MISS:      23886 MSHR_MERGE:          0
cpu0->LLC PREFETCH REQUESTED:          0 ISSUED:          0 USEFUL:          0 USELESS:          0 LATE:          0
cpu0->LLC AVERAGE MISS LATENCY: 212.3 cycles

DRAM Statistics

Channel 0 RQ ROW_BUFFER_HIT:     987189
  ROW_BUFFER_MISS:    3303580
  AVG DBUS CONGESTED CYCLE: 5.52
Channel 0 WQ ROW_BUFFER_HIT:      11955
  ROW_BUFFER_MISS:      29341
  FULL:          0
Channel 0 REFRESHES ISSUED:      15808

[ROI Statistics]
[System Configuration]
num_cpus 1
cpu_freq 4000
fetch_width 6
decode_width 6
dispatch_width 6
execute_width 6
lq_width 2
sq_width 2
retire_width 6
scheduler_size 128
branch_mispredict_penalty 15
rob_size 352
lq_size 128
sq_size 72
ifetch_buffer_size 64
decode_buffer_size 32
dispatch_buffer_size 32
register_file_size 288
decode_latency 1
dispatch_latency 1
schedule_latency 1
execute_latency 1
page_size 4096
block_size 64
core_0_itlb_set 16
core_0_itlb_way 4
core_0_itlb_rq_size 16
core_0_itlb_wq_size 16
core_0_itlb_pq_size 0
core_0_itlb_mshr_size 8
core_0_itlb_hit_latency 1
core_0_itlb_fill_latency 1
core_0_itlb_max_tag_check 2
core_0_itlb_max_fill 2
core_0_dtlb_set 16
core_0_dtlb_way 4
core_0_dtlb_rq_size 16
core_0_dtlb_wq_size 16
core_0_dtlb_pq_size 0
core_0_dtlb_mshr_size 8
core_0_dtlb_hit_latency 1
core_0_dtlb_fill_latency 1
core_0_dtlb_max_tag_check 2
core_0_dtlb_max_fill 2
core_0_stlb_set 128
core_0_stlb_way 12
core_0_stlb_rq_size 32
core_0_stlb_wq_size 32
core_0_stlb_pq_size 0
core_0_stlb_mshr_size 16
core_0_stlb_hit_latency 4
core_0_stlb_fill_latency 4
core_0_stlb_max_tag_check 1
core_0_stlb_max_fill 1
core_0_l1i_set 64
core_0_l1i_way 8
core_0_l1i_rq_size 64
core_0_l1i_wq_size 64
core_0_l1i_pq_size 32
core_0_l1i_mshr_size 8
core_0_l1i_hit_latency 2
core_0_l1i_fill_latency 2
core_0_l1i_max_tag_check 2
core_0_l1i_max_fill 2
core_0_l1d_set 64
core_0_l1d_way 12
core_0_l1d_rq_size 64
core_0_l1d_wq_size 64
core_0_l1d_pq_size 8
core_0_l1d_mshr_size 16
core_0_l1d_hit_latency 2
core_0_l1d_fill_latency 3
core_0_l1d_max_tag_check 2
core_0_l1d_max_fill 2
core_0_l2c_set 1024
core_0_l2c_way 8
core_0_l2c_rq_size 32
core_0_l2c_wq_size 32
core_0_l2c_pq_size 16
core_0_l2c_mshr_size 32
core_0_l2c_hit_latency 5
core_0_l2c_fill_latency 5
core_0_l2c_max_tag_check 1
core_0_l2c_max_fill 1
llc_set 2048
llc_way 16
llc_rq_size 32
llc_wq_size 32
llc_pq_size 32
llc_mshr_size 64
llc_hit_latency 10
llc_fill_latency 10
llc_max_tag_check 1
llc_max_fill 1
dram_channels 1
dram_ranks 1
dram_bankgroups 8
dram_banks 4
dram_rows 65536
dram_columns 1024
dram_channel_width 8
dram_rq_size 64
dram_wq_size 64
dram_size 17179869184
core_0_itlb_prefetcher no
core_0_dtlb_prefetcher no
core_0_stlb_prefetcher no
core_0_l1i_prefetcher next_line
core_0_l1d_prefetcher vberti_nocross
core_0_l2c_prefetcher ip_stride
llc_prefetcher no
llc_replacement drrip

Core_0_instructions 100000000
Core_0_cycles 189694984
Core_0_IPC 0.527162
Core_0_branch_prediction_accuracy 94.385
Core_0_branch_MPKI 9.17233
Core_0_average_ROB_occupancy_at_mispredict 45.0975

Core_0_ITLB_total_access 5535088
Core_0_ITLB_total_hit 5535088
Core_0_ITLB_total_miss 0
Core_0_ITLB_total_MPKI 0
Core_0_ITLB_total_miss_rate 0
Core_0_ITLB_demand_access 5535088
Core_0_ITLB_demand_hit 5535088
Core_0_ITLB_demand_miss 0
Core_0_ITLB_demand_MPKI 0
Core_0_ITLB_demand_miss_rate 0
Core_0_ITLB_load_access 5535088
Core_0_ITLB_load_hit 5535088
Core_0_ITLB_load_miss 0
Core_0_ITLB_load_MPKI 0
Core_0_ITLB_load_miss_rate 0
Core_0_ITLB_rfo_access 0
Core_0_ITLB_rfo_hit 0
Core_0_ITLB_rfo_miss 0
Core_0_ITLB_rfo_MPKI 0
Core_0_ITLB_rfo_miss_rate 0
Core_0_ITLB_prefetch_access 0
Core_0_ITLB_prefetch_hit 0
Core_0_ITLB_prefetch_miss 0
Core_0_ITLB_prefetch_MPKI 0
Core_0_ITLB_prefetch_miss_rate 0
Core_0_ITLB_writeback_access 0
Core_0_ITLB_writeback_hit 0
Core_0_ITLB_writeback_miss 0
Core_0_ITLB_writeback_MPKI 0
Core_0_ITLB_writeback_miss_rate 0
Core_0_ITLB_prefetch_requested 0
Core_0_ITLB_prefetch_issued 0
Core_0_ITLB_prefetch_useful 0
Core_0_ITLB_prefetch_useless 0
Core_0_ITLB_prefetch_late 0
Core_0_ITLB_prefetch_accuracy 0
Core_0_ITLB_prefetch_coverage 0
Core_0_ITLB_total_eviction 0

Core_0_DTLB_total_access 38296355
Core_0_DTLB_total_hit 37749292
Core_0_DTLB_total_miss 547063
Core_0_DTLB_total_MPKI 5.47063
Core_0_DTLB_total_miss_rate 0.014285
Core_0_DTLB_demand_access 38296355
Core_0_DTLB_demand_hit 37749292
Core_0_DTLB_demand_miss 547063
Core_0_DTLB_demand_MPKI 5.47063
Core_0_DTLB_demand_miss_rate 0.014285
Core_0_DTLB_load_access 38296355
Core_0_DTLB_load_hit 37749292
Core_0_DTLB_load_miss 547063
Core_0_DTLB_load_MPKI 5.47063
Core_0_DTLB_load_miss_rate 0.014285
Core_0_DTLB_rfo_access 0
Core_0_DTLB_rfo_hit 0
Core_0_DTLB_rfo_miss 0
Core_0_DTLB_rfo_MPKI 0
Core_0_DTLB_rfo_miss_rate 0
Core_0_DTLB_prefetch_access 0
Core_0_DTLB_prefetch_hit 0
Core_0_DTLB_prefetch_miss 0
Core_0_DTLB_prefetch_MPKI 0
Core_0_DTLB_prefetch_miss_rate 0
Core_0_DTLB_writeback_access 0
Core_0_DTLB_writeback_hit 0
Core_0_DTLB_writeback_miss 0
Core_0_DTLB_writeback_MPKI 0
Core_0_DTLB_writeback_miss_rate 0
Core_0_DTLB_prefetch_requested 0
Core_0_DTLB_prefetch_issued 0
Core_0_DTLB_prefetch_useful 0
Core_0_DTLB_prefetch_useless 0
Core_0_DTLB_prefetch_late 0
Core_0_DTLB_prefetch_accuracy 0
Core_0_DTLB_prefetch_coverage 0
Core_0_DTLB_total_eviction 168735

Core_0_STLB_total_access 168735
Core_0_STLB_total_hit 35019
Core_0_STLB_total_miss 133716
Core_0_STLB_total_MPKI 1.33716
Core_0_STLB_total_miss_rate 0.792462
Core_0_STLB_demand_access 168735
Core_0_STLB_demand_hit 35019
Core_0_STLB_demand_miss 133716
Core_0_STLB_demand_MPKI 1.33716
Core_0_STLB_demand_miss_rate 0.792462
Core_0_STLB_load_access 168735
Core_0_STLB_load_hit 35019
Core_0_STLB_load_miss 133716
Core_0_STLB_load_MPKI 1.33716
Core_0_STLB_load_miss_rate 0.792462
Core_0_STLB_rfo_access 0
Core_0_STLB_rfo_hit 0
Core_0_STLB_rfo_miss 0
Core_0_STLB_rfo_MPKI 0
Core_0_STLB_rfo_miss_rate 0
Core_0_STLB_prefetch_access 0
Core_0_STLB_prefetch_hit 0
Core_0_STLB_prefetch_miss 0
Core_0_STLB_prefetch_MPKI 0
Core_0_STLB_prefetch_miss_rate 0
Core_0_STLB_writeback_access 0
Core_0_STLB_writeback_hit 0
Core_0_STLB_writeback_miss 0
Core_0_STLB_writeback_MPKI 0
Core_0_STLB_writeback_miss_rate 0
Core_0_STLB_prefetch_requested 0
Core_0_STLB_prefetch_issued 0
Core_0_STLB_prefetch_useful 0
Core_0_STLB_prefetch_useless 0
Core_0_STLB_prefetch_late 0
Core_0_STLB_prefetch_accuracy 0
Core_0_STLB_prefetch_coverage 0
Core_0_STLB_total_eviction 133716

Core_0_L1I_total_access 6738711
Core_0_L1I_total_hit 6738711
Core_0_L1I_total_miss 0
Core_0_L1I_total_MPKI 0
Core_0_L1I_total_miss_rate 0
Core_0_L1I_demand_access 6738711
Core_0_L1I_demand_hit 6738711
Core_0_L1I_demand_miss 0
Core_0_L1I_demand_MPKI 0
Core_0_L1I_demand_miss_rate 0
Core_0_L1I_load_access 6738711
Core_0_L1I_load_hit 6738711
Core_0_L1I_load_miss 0
Core_0_L1I_load_MPKI 0
Core_0_L1I_load_miss_rate 0
Core_0_L1I_rfo_access 0
Core_0_L1I_rfo_hit 0
Core_0_L1I_rfo_miss 0
Core_0_L1I_rfo_MPKI 0
Core_0_L1I_rfo_miss_rate 0
Core_0_L1I_prefetch_access 0
Core_0_L1I_prefetch_hit 0
Core_0_L1I_prefetch_miss 0
Core_0_L1I_prefetch_MPKI 0
Core_0_L1I_prefetch_miss_rate 0
Core_0_L1I_writeback_access 0
Core_0_L1I_writeback_hit 0
Core_0_L1I_writeback_miss 0
Core_0_L1I_writeback_MPKI 0
Core_0_L1I_writeback_miss_rate 0
Core_0_L1I_prefetch_requested 0
Core_0_L1I_prefetch_issued 0
Core_0_L1I_prefetch_useful 0
Core_0_L1I_prefetch_useless 0
Core_0_L1I_prefetch_late 0
Core_0_L1I_prefetch_accuracy 0
Core_0_L1I_prefetch_coverage 0
Core_0_L1I_total_eviction 0

Core_0_L1D_total_access 46076685
Core_0_L1D_total_hit 39410142
Core_0_L1D_total_miss 6666543
Core_0_L1D_total_MPKI 66.6654
Core_0_L1D_total_miss_rate 0.144684
Core_0_L1D_demand_access 24236641
Core_0_L1D_demand_hit 22233441
Core_0_L1D_demand_miss 2003200
Core_0_L1D_demand_MPKI 20.032
Core_0_L1D_demand_miss_rate 0.0826517
Core_0_L1D_load_access 24236641
Core_0_L1D_load_hit 22233441
Core_0_L1D_load_miss 2003200
Core_0_L1D_load_MPKI 20.032
Core_0_L1D_load_miss_rate 0.0826517
Core_0_L1D_rfo_access 0
Core_0_L1D_rfo_hit 0
Core_0_L1D_rfo_miss 0
Core_0_L1D_rfo_MPKI 0
Core_0_L1D_rfo_miss_rate 0
Core_0_L1D_prefetch_access 21749820
Core_0_L1D_prefetch_hit 17086477
Core_0_L1D_prefetch_miss 4663343
Core_0_L1D_prefetch_MPKI 46.6334
Core_0_L1D_prefetch_miss_rate 0.214408
Core_0_L1D_writeback_access 90224
Core_0_L1D_writeback_hit 90224
Core_0_L1D_writeback_miss 0
Core_0_L1D_writeback_MPKI 0
Core_0_L1D_writeback_miss_rate 0
Core_0_L1D_prefetch_requested 78181039
Core_0_L1D_prefetch_issued 21749812
Core_0_L1D_prefetch_useful 1323408
Core_0_L1D_prefetch_useless 359127
Core_0_L1D_prefetch_late 91768
Core_0_L1D_prefetch_accuracy 0.0608469
Core_0_L1D_prefetch_coverage 0.397825
Core_0_L1D_total_eviction 3530994

Core_0_L2C_total_access 9142271
Core_0_L2C_total_hit 2764588
Core_0_L2C_total_miss 6377683
Core_0_L2C_total_MPKI 63.7768
Core_0_L2C_total_miss_rate 0.697604
Core_0_L2C_demand_access 1817347
Core_0_L2C_demand_hit 574392
Core_0_L2C_demand_miss 1242955
Core_0_L2C_demand_MPKI 12.4296
Core_0_L2C_demand_miss_rate 0.683939
Core_0_L2C_load_access 1817347
Core_0_L2C_load_hit 574392
Core_0_L2C_load_miss 1242955
Core_0_L2C_load_MPKI 12.4296
Core_0_L2C_load_miss_rate 0.683939
Core_0_L2C_rfo_access 0
Core_0_L2C_rfo_hit 0
Core_0_L2C_rfo_miss 0
Core_0_L2C_rfo_MPKI 0
Core_0_L2C_rfo_miss_rate 0
Core_0_L2C_prefetch_access 7280226
Core_0_L2C_prefetch_hit 2145688
Core_0_L2C_prefetch_miss 5134538
Core_0_L2C_prefetch_MPKI 51.3454
Core_0_L2C_prefetch_miss_rate 0.705272
Core_0_L2C_writeback_access 44698
Core_0_L2C_writeback_hit 44508
Core_0_L2C_writeback_miss 190
Core_0_L2C_writeback_MPKI 0.0019
Core_0_L2C_writeback_miss_rate 0.00425075
Core_0_L2C_prefetch_requested 2771029
Core_0_L2C_prefetch_issued 2769933
Core_0_L2C_prefetch_useful 478739
Core_0_L2C_prefetch_useless 482392
Core_0_L2C_prefetch_late 84727
Core_0_L2C_prefetch_accuracy 0.172834
Core_0_L2C_prefetch_coverage 0.278063
Core_0_L2C_total_eviction 4300236

Core_0_LLC_total_access 4515607
Core_0_LLC_total_hit 109703
Core_0_LLC_total_miss 4405904
Core_0_LLC_total_MPKI 44.059
Core_0_LLC_total_miss_rate 0.975706
Core_0_LLC_demand_access 1037149
Core_0_LLC_demand_hit 40992
Core_0_LLC_demand_miss 996157
Core_0_LLC_demand_MPKI 9.96157
Core_0_LLC_demand_miss_rate 0.960476
Core_0_LLC_load_access 1037149
Core_0_LLC_load_hit 40992
Core_0_LLC_load_miss 996157
Core_0_LLC_load_MPKI 9.96157
Core_0_LLC_load_miss_rate 0.960476
Core_0_LLC_rfo_access 0
Core_0_LLC_rfo_hit 0
Core_0_LLC_rfo_miss 0
Core_0_LLC_rfo_MPKI 0
Core_0_LLC_rfo_miss_rate 0
Core_0_LLC_prefetch_access 3436268
Core_0_LLC_prefetch_hit 39688
Core_0_LLC_prefetch_miss 3396580
Core_0_LLC_prefetch_MPKI 33.9658
Core_0_LLC_prefetch_miss_rate 0.98845
Core_0_LLC_writeback_access 42190
Core_0_LLC_writeback_hit 29023
Core_0_LLC_writeback_miss 13167
Core_0_LLC_writeback_MPKI 0.13167
Core_0_LLC_writeback_miss_rate 0.312088
Core_0_LLC_prefetch_requested 0
Core_0_LLC_prefetch_issued 0
Core_0_LLC_prefetch_useful 0
Core_0_LLC_prefetch_useless 0
Core_0_LLC_prefetch_late 0
Core_0_LLC_prefetch_accuracy 0
Core_0_LLC_prefetch_coverage 0
Core_0_LLC_total_eviction 4303936

[DRAM Statistics]
Channel_0_RQ_row_buffer_hit 987189
Channel_0_RQ_row_buffer_miss 3303580
Channel_0_WQ_row_buffer_hit 11955
Channel_0_WQ_row_buffer_miss 29341
Channel_0_WQ_full 0
Channel_0_dbus_congested 10153795
DRAM_total_RQ_row_buffer_hit 987189
DRAM_total_RQ_row_buffer_miss 3303580
DRAM_total_WQ_row_buffer_hit 11955
DRAM_total_WQ_row_buffer_miss 29341
DRAM_total_WQ_full 0
DRAM_total_dbus_congested 10153795
DRAM_avg_congested_cycle 5.5202

======STLB miss causes ========
Core_0_STLB_miss_cause_breakdown
Core_0_STLB_cause_Demand_Data_miss 133716
Core_0_STLB_cause_Demand_Data_miss_rate 0.792462
Core_0_STLB_cause_Demand_Instruction_miss 0
Core_0_STLB_cause_Demand_Instruction_miss_rate 0
Core_0_STLB_cause_L1D_Prefetch_miss 0
Core_0_STLB_cause_L1D_Prefetch_miss_rate 0
Core_0_STLB_cause_L1I_Prefetch_miss 0
Core_0_STLB_cause_L1I_Prefetch_miss_rate 0
Core_0_STLB_cause_Other_miss 0
Core_0_STLB_cause_Other_miss_rate 0
Core_0_STLB_Demand_miss 133716
Core_0_STLB_Demand_miss_rate 0.792462
Core_0_STLB_L1D_Prefetch_miss 0
Core_0_STLB_L1D_Prefetch_miss_rate 0
Core_0_STLB_Other_miss 0
Core_0_STLB_Other_miss_rate 0
BERTI TO_L1: 85633662 TO_L2: 23206048 TO_L2_BC_MSHR: 2201140
BERTI AVG_LAT: 108.845 NUM_TRACK_LATENCY: 5446586 NUM_CANT_TRACK_LATENCY: 0
BERTI CROSS_PAGE 23227915 NO_CROSS_PAGE: 108839710
BERTI FOUND_BERTI: 20525925 NO_FOUND_BERTI: 12151161
BERTI AVERAGE_ISSUED: 3.47475
