[VMEM] WARNING: physical memory size is smaller than virtual memory size.

*** ChampSim Multicore Out-of-Order Simulator ***
Warmup Instructions: 50000000
Simulation Instructions: 100000000
Number of CPUs: 1
Page size: 4096
STLB ideal mode: off
STLB ideal fill: off
Core 0: /data0/tzh/champsim_traces/QMM/compute_fp_1_new.xz
VBerti Prefetcher
No Crossing Page
BERTI HASH ENTANGLING
BERTI IP MASK ffff
Off-chip DRAM Size: 16 GiB Channels: 1 Width: 64-bit Data Rate: 3205 MT/s
*** Reached end of trace: (0, "/data0/tzh/champsim_traces/QMM/compute_fp_1_new.xz")
Warmup halting CPU 0 at instruction 50000004 cycle 13365137 for remainder of phase
Warmup finished CPU 0 instructions: 50000004 cycles: 13365137 cumulative IPC: 3.741 (Simulation time: 00 hr 02 min 52 sec)
Warmup complete CPU 0 instructions: 50000004 cycles: 13365137 cumulative IPC: 3.741 (Simulation time: 00 hr 02 min 52 sec)
*** Reached end of trace: (0, "/data0/tzh/champsim_traces/QMM/compute_fp_1_new.xz")
*** Reached end of trace: (0, "/data0/tzh/champsim_traces/QMM/compute_fp_1_new.xz")
*** Reached end of trace: (0, "/data0/tzh/champsim_traces/QMM/compute_fp_1_new.xz")
Simulation finished CPU 0 instructions: 100000003 cycles: 164562947 cumulative IPC: 0.6077 (Simulation time: 00 hr 25 min 49 sec)
Simulation complete CPU 0 instructions: 100000003 cycles: 164562947 cumulative IPC: 0.6077 (Simulation time: 00 hr 25 min 49 sec)

ChampSim completed all CPUs

=== Simulation ===
CPU 0 runs /data0/tzh/champsim_traces/QMM/compute_fp_1_new.xz

Region of Interest Statistics

CPU 0 cumulative IPC: 0.6077 instructions: 100000003 cycles: 164562947
CPU 0 Branch Prediction Accuracy: 95.45% MPKI: 5.879 Average ROB Occupancy at Mispredict: 36.57
Branch type MPKI
BRANCH_DIRECT_JUMP: 0
BRANCH_INDIRECT: 0
BRANCH_CONDITIONAL: 5.879
BRANCH_DIRECT_CALL: 0
BRANCH_INDIRECT_CALL: 0
BRANCH_RETURN: 3e-05

cpu0->cpu0_STLB TOTAL        ACCESS:     437170 HIT:     317291 MISS:     119879 MSHR_MERGE:          0
cpu0->cpu0_STLB LOAD         ACCESS:     437170 HIT:     317291 MISS:     119879 MSHR_MERGE:          0
cpu0->cpu0_STLB RFO          ACCESS:          0 HIT:          0 MISS:          0 MSHR_MERGE:          0
cpu0->cpu0_STLB PREFETCH     ACCESS:          0 HIT:          0 MISS:          0 MSHR_MERGE:          0
cpu0->cpu0_STLB WRITE        ACCESS:          0 HIT:          0 MISS:          0 MSHR_MERGE:          0
cpu0->cpu0_STLB TRANSLATION  ACCESS:          0 HIT:          0 MISS:          0 MSHR_MERGE:          0
cpu0->cpu0_STLB PREFETCH REQUESTED:          0 ISSUED:          0 USEFUL:          0 USELESS:          0 LATE:          0
cpu0->cpu0_STLB AVERAGE MISS LATENCY: 112.8 cycles
cpu0->cpu0_L2C TOTAL        ACCESS:   16013289 HIT:    5043371 MISS:   10969918 MSHR_MERGE:    4511912
cpu0->cpu0_L2C LOAD         ACCESS:    2907634 HIT:     656521 MISS:    2251113 MSHR_MERGE:     230821
cpu0->cpu0_L2C RFO          ACCESS:      31281 HIT:      13624 MISS:      17657 MSHR_MERGE:        342
cpu0->cpu0_L2C PREFETCH     ACCESS:   10876723 HIT:    2213248 MISS:    8663475 MSHR_MERGE:    4280749
cpu0->cpu0_L2C WRITE        ACCESS:    2149592 HIT:    2149581 MISS:         11 MSHR_MERGE:          0
cpu0->cpu0_L2C TRANSLATION  ACCESS:      48059 HIT:      10397 MISS:      37662 MSHR_MERGE:          0
cpu0->cpu0_L2C PREFETCH REQUESTED:    4877461 ISSUED:    4791694 USEFUL:     545770 USELESS:     457737 LATE:     123616
cpu0->cpu0_L2C AVERAGE MISS LATENCY: 314.9 cycles
cpu0->cpu0_L1I TOTAL        ACCESS:    8737309 HIT:    8733870 MISS:       3439 MSHR_MERGE:       1452
cpu0->cpu0_L1I LOAD         ACCESS:    8737309 HIT:    8733870 MISS:       3439 MSHR_MERGE:       1452
cpu0->cpu0_L1I RFO          ACCESS:          0 HIT:          0 MISS:          0 MSHR_MERGE:          0
cpu0->cpu0_L1I PREFETCH     ACCESS:          0 HIT:          0 MISS:          0 MSHR_MERGE:          0
cpu0->cpu0_L1I WRITE        ACCESS:          0 HIT:          0 MISS:          0 MSHR_MERGE:          0
cpu0->cpu0_L1I TRANSLATION  ACCESS:          0 HIT:          0 MISS:          0 MSHR_MERGE:          0
cpu0->cpu0_L1I PREFETCH REQUESTED:          0 ISSUED:          0 USEFUL:          0 USELESS:          0 LATE:          0
cpu0->cpu0_L1I AVERAGE MISS LATENCY: 247.5 cycles
cpu0->cpu0_L1D TOTAL        ACCESS:   39604811 HIT:   26858049 MISS:   12746762 MSHR_MERGE:    3490027
cpu0->cpu0_L1D LOAD         ACCESS:   16521594 HIT:   10315680 MISS:    6205914 MSHR_MERGE:    3300255
cpu0->cpu0_L1D RFO          ACCESS:          0 HIT:          0 MISS:          0 MSHR_MERGE:          0
cpu0->cpu0_L1D PREFETCH     ACCESS:   15005754 HIT:    8594267 MISS:    6411487 MSHR_MERGE:     139752
cpu0->cpu0_L1D WRITE        ACCESS:    7845450 HIT:    7772031 MISS:      73419 MSHR_MERGE:      42137
cpu0->cpu0_L1D TRANSLATION  ACCESS:     232013 HIT:     176071 MISS:      55942 MSHR_MERGE:       7883
cpu0->cpu0_L1D PREFETCH REQUESTED:   83623934 ISSUED:   15005754 USEFUL:    2261251 USELESS:     223549 LATE:     305394
cpu0->cpu0_L1D AVERAGE MISS LATENCY: 246.6 cycles
cpu0->cpu0_ITLB TOTAL        ACCESS:    8394582 HIT:    8393994 MISS:        588 MSHR_MERGE:        395
cpu0->cpu0_ITLB LOAD         ACCESS:    8394582 HIT:    8393994 MISS:        588 MSHR_MERGE:        395
cpu0->cpu0_ITLB RFO          ACCESS:          0 HIT:          0 MISS:          0 MSHR_MERGE:          0
cpu0->cpu0_ITLB PREFETCH     ACCESS:          0 HIT:          0 MISS:          0 MSHR_MERGE:          0
cpu0->cpu0_ITLB WRITE        ACCESS:          0 HIT:          0 MISS:          0 MSHR_MERGE:          0
cpu0->cpu0_ITLB TRANSLATION  ACCESS:          0 HIT:          0 MISS:          0 MSHR_MERGE:          0
cpu0->cpu0_ITLB PREFETCH REQUESTED:          0 ISSUED:          0 USEFUL:          0 USELESS:          0 LATE:          0
cpu0->cpu0_ITLB AVERAGE MISS LATENCY: 206.2 cycles
cpu0->cpu0_DTLB TOTAL        ACCESS:   32158517 HIT:   31144878 MISS:    1013639 MSHR_MERGE:     576662
cpu0->cpu0_DTLB LOAD         ACCESS:   32158517 HIT:   31144878 MISS:    1013639 MSHR_MERGE:     576662
cpu0->cpu0_DTLB RFO          ACCESS:          0 HIT:          0 MISS:          0 MSHR_MERGE:          0
cpu0->cpu0_DTLB PREFETCH     ACCESS:          0 HIT:          0 MISS:          0 MSHR_MERGE:          0
cpu0->cpu0_DTLB WRITE        ACCESS:          0 HIT:          0 MISS:          0 MSHR_MERGE:          0
cpu0->cpu0_DTLB TRANSLATION  ACCESS:          0 HIT:          0 MISS:          0 MSHR_MERGE:          0
cpu0->cpu0_DTLB PREFETCH REQUESTED:          0 ISSUED:          0 USEFUL:          0 USELESS:          0 LATE:          0
cpu0->cpu0_DTLB AVERAGE MISS LATENCY: 36.14 cycles
cpu0->LLC TOTAL        ACCESS:    8437963 HIT:    1717551 MISS:    6720412 MSHR_MERGE:     652394
cpu0->LLC LOAD         ACCESS:    2020292 HIT:     513405 MISS:    1506887 MSHR_MERGE:      28702
cpu0->LLC RFO          ACCESS:      17315 HIT:       6146 MISS:      11169 MSHR_MERGE:          5
cpu0->LLC PREFETCH     ACCESS:    4382119 HIT:     360856 MISS:    4021263 MSHR_MERGE:     623687
cpu0->LLC WRITE        ACCESS:    1980575 HIT:     822625 MISS:    1157950 MSHR_MERGE:          0
cpu0->LLC TRANSLATION  ACCESS:      37662 HIT:      14519 MISS:      23143 MSHR_MERGE:          0
cpu0->LLC PREFETCH REQUESTED:          0 ISSUED:          0 USEFUL:          0 USELESS:          0 LATE:          0
cpu0->LLC AVERAGE MISS LATENCY: 237.6 cycles

DRAM Statistics

Channel 0 RQ ROW_BUFFER_HIT:     260369
  ROW_BUFFER_MISS:    4648251
  AVG DBUS CONGESTED CYCLE: 5.808
Channel 0 WQ ROW_BUFFER_HIT:     118002
  ROW_BUFFER_MISS:    1303903
  FULL:        533
Channel 0 REFRESHES ISSUED:      13714

[ROI Statistics]
[System Configuration]
num_cpus 1
cpu_freq 4000
fetch_width 6
decode_width 6
dispatch_width 6
execute_width 6
lq_width 2
sq_width 2
retire_width 6
scheduler_size 128
branch_mispredict_penalty 15
rob_size 352
lq_size 128
sq_size 72
ifetch_buffer_size 64
decode_buffer_size 32
dispatch_buffer_size 32
register_file_size 288
decode_latency 1
dispatch_latency 1
schedule_latency 1
execute_latency 1
page_size 4096
block_size 64
core_0_itlb_set 16
core_0_itlb_way 4
core_0_itlb_rq_size 16
core_0_itlb_wq_size 16
core_0_itlb_pq_size 0
core_0_itlb_mshr_size 8
core_0_itlb_hit_latency 1
core_0_itlb_fill_latency 1
core_0_itlb_max_tag_check 2
core_0_itlb_max_fill 2
core_0_dtlb_set 16
core_0_dtlb_way 4
core_0_dtlb_rq_size 16
core_0_dtlb_wq_size 16
core_0_dtlb_pq_size 0
core_0_dtlb_mshr_size 8
core_0_dtlb_hit_latency 1
core_0_dtlb_fill_latency 1
core_0_dtlb_max_tag_check 2
core_0_dtlb_max_fill 2
core_0_stlb_set 128
core_0_stlb_way 12
core_0_stlb_rq_size 32
core_0_stlb_wq_size 32
core_0_stlb_pq_size 0
core_0_stlb_mshr_size 16
core_0_stlb_hit_latency 4
core_0_stlb_fill_latency 4
core_0_stlb_max_tag_check 1
core_0_stlb_max_fill 1
core_0_l1i_set 64
core_0_l1i_way 8
core_0_l1i_rq_size 64
core_0_l1i_wq_size 64
core_0_l1i_pq_size 32
core_0_l1i_mshr_size 8
core_0_l1i_hit_latency 2
core_0_l1i_fill_latency 2
core_0_l1i_max_tag_check 2
core_0_l1i_max_fill 2
core_0_l1d_set 64
core_0_l1d_way 12
core_0_l1d_rq_size 64
core_0_l1d_wq_size 64
core_0_l1d_pq_size 8
core_0_l1d_mshr_size 16
core_0_l1d_hit_latency 2
core_0_l1d_fill_latency 3
core_0_l1d_max_tag_check 2
core_0_l1d_max_fill 2
core_0_l2c_set 1024
core_0_l2c_way 8
core_0_l2c_rq_size 32
core_0_l2c_wq_size 32
core_0_l2c_pq_size 16
core_0_l2c_mshr_size 32
core_0_l2c_hit_latency 5
core_0_l2c_fill_latency 5
core_0_l2c_max_tag_check 1
core_0_l2c_max_fill 1
llc_set 2048
llc_way 16
llc_rq_size 32
llc_wq_size 32
llc_pq_size 32
llc_mshr_size 64
llc_hit_latency 10
llc_fill_latency 10
llc_max_tag_check 1
llc_max_fill 1
dram_channels 1
dram_ranks 1
dram_bankgroups 8
dram_banks 4
dram_rows 65536
dram_columns 1024
dram_channel_width 8
dram_rq_size 64
dram_wq_size 64
dram_size 17179869184
core_0_itlb_prefetcher no
core_0_dtlb_prefetcher no
core_0_stlb_prefetcher no
core_0_l1i_prefetcher next_line
core_0_l1d_prefetcher vberti_nocross
core_0_l2c_prefetcher ip_stride
llc_prefetcher no
llc_replacement drrip

Core_0_instructions 100000003
Core_0_cycles 164562947
Core_0_IPC 0.60767
Core_0_branch_prediction_accuracy 95.4531
Core_0_branch_MPKI 5.87923
Core_0_average_ROB_occupancy_at_mispredict 36.5655

Core_0_ITLB_total_access 8394582
Core_0_ITLB_total_hit 8393994
Core_0_ITLB_total_miss 588
Core_0_ITLB_total_MPKI 0.00588
Core_0_ITLB_total_miss_rate 7.00452e-05
Core_0_ITLB_demand_access 8394582
Core_0_ITLB_demand_hit 8393994
Core_0_ITLB_demand_miss 588
Core_0_ITLB_demand_MPKI 0.00588
Core_0_ITLB_demand_miss_rate 7.00452e-05
Core_0_ITLB_load_access 8394582
Core_0_ITLB_load_hit 8393994
Core_0_ITLB_load_miss 588
Core_0_ITLB_load_MPKI 0.00588
Core_0_ITLB_load_miss_rate 7.00452e-05
Core_0_ITLB_rfo_access 0
Core_0_ITLB_rfo_hit 0
Core_0_ITLB_rfo_miss 0
Core_0_ITLB_rfo_MPKI 0
Core_0_ITLB_rfo_miss_rate 0
Core_0_ITLB_prefetch_access 0
Core_0_ITLB_prefetch_hit 0
Core_0_ITLB_prefetch_miss 0
Core_0_ITLB_prefetch_MPKI 0
Core_0_ITLB_prefetch_miss_rate 0
Core_0_ITLB_writeback_access 0
Core_0_ITLB_writeback_hit 0
Core_0_ITLB_writeback_miss 0
Core_0_ITLB_writeback_MPKI 0
Core_0_ITLB_writeback_miss_rate 0
Core_0_ITLB_prefetch_requested 0
Core_0_ITLB_prefetch_issued 0
Core_0_ITLB_prefetch_useful 0
Core_0_ITLB_prefetch_useless 0
Core_0_ITLB_prefetch_late 0
Core_0_ITLB_prefetch_accuracy 0
Core_0_ITLB_prefetch_coverage 0
Core_0_ITLB_total_eviction 193

Core_0_DTLB_total_access 32158517
Core_0_DTLB_total_hit 31144878
Core_0_DTLB_total_miss 1013639
Core_0_DTLB_total_MPKI 10.1364
Core_0_DTLB_total_miss_rate 0.0315201
Core_0_DTLB_demand_access 32158517
Core_0_DTLB_demand_hit 31144878
Core_0_DTLB_demand_miss 1013639
Core_0_DTLB_demand_MPKI 10.1364
Core_0_DTLB_demand_miss_rate 0.0315201
Core_0_DTLB_load_access 32158517
Core_0_DTLB_load_hit 31144878
Core_0_DTLB_load_miss 1013639
Core_0_DTLB_load_MPKI 10.1364
Core_0_DTLB_load_miss_rate 0.0315201
Core_0_DTLB_rfo_access 0
Core_0_DTLB_rfo_hit 0
Core_0_DTLB_rfo_miss 0
Core_0_DTLB_rfo_MPKI 0
Core_0_DTLB_rfo_miss_rate 0
Core_0_DTLB_prefetch_access 0
Core_0_DTLB_prefetch_hit 0
Core_0_DTLB_prefetch_miss 0
Core_0_DTLB_prefetch_MPKI 0
Core_0_DTLB_prefetch_miss_rate 0
Core_0_DTLB_writeback_access 0
Core_0_DTLB_writeback_hit 0
Core_0_DTLB_writeback_miss 0
Core_0_DTLB_writeback_MPKI 0
Core_0_DTLB_writeback_miss_rate 0
Core_0_DTLB_prefetch_requested 0
Core_0_DTLB_prefetch_issued 0
Core_0_DTLB_prefetch_useful 0
Core_0_DTLB_prefetch_useless 0
Core_0_DTLB_prefetch_late 0
Core_0_DTLB_prefetch_accuracy 0
Core_0_DTLB_prefetch_coverage 0
Core_0_DTLB_total_eviction 436977

Core_0_STLB_total_access 437170
Core_0_STLB_total_hit 317291
Core_0_STLB_total_miss 119879
Core_0_STLB_total_MPKI 1.19879
Core_0_STLB_total_miss_rate 0.274216
Core_0_STLB_demand_access 437170
Core_0_STLB_demand_hit 317291
Core_0_STLB_demand_miss 119879
Core_0_STLB_demand_MPKI 1.19879
Core_0_STLB_demand_miss_rate 0.274216
Core_0_STLB_load_access 437170
Core_0_STLB_load_hit 317291
Core_0_STLB_load_miss 119879
Core_0_STLB_load_MPKI 1.19879
Core_0_STLB_load_miss_rate 0.274216
Core_0_STLB_rfo_access 0
Core_0_STLB_rfo_hit 0
Core_0_STLB_rfo_miss 0
Core_0_STLB_rfo_MPKI 0
Core_0_STLB_rfo_miss_rate 0
Core_0_STLB_prefetch_access 0
Core_0_STLB_prefetch_hit 0
Core_0_STLB_prefetch_miss 0
Core_0_STLB_prefetch_MPKI 0
Core_0_STLB_prefetch_miss_rate 0
Core_0_STLB_writeback_access 0
Core_0_STLB_writeback_hit 0
Core_0_STLB_writeback_miss 0
Core_0_STLB_writeback_MPKI 0
Core_0_STLB_writeback_miss_rate 0
Core_0_STLB_prefetch_requested 0
Core_0_STLB_prefetch_issued 0
Core_0_STLB_prefetch_useful 0
Core_0_STLB_prefetch_useless 0
Core_0_STLB_prefetch_late 0
Core_0_STLB_prefetch_accuracy 0
Core_0_STLB_prefetch_coverage 0
Core_0_STLB_total_eviction 119879

Core_0_L1I_total_access 8737309
Core_0_L1I_total_hit 8733870
Core_0_L1I_total_miss 3439
Core_0_L1I_total_MPKI 0.03439
Core_0_L1I_total_miss_rate 0.000393599
Core_0_L1I_demand_access 8737309
Core_0_L1I_demand_hit 8733870
Core_0_L1I_demand_miss 3439
Core_0_L1I_demand_MPKI 0.03439
Core_0_L1I_demand_miss_rate 0.000393599
Core_0_L1I_load_access 8737309
Core_0_L1I_load_hit 8733870
Core_0_L1I_load_miss 3439
Core_0_L1I_load_MPKI 0.03439
Core_0_L1I_load_miss_rate 0.000393599
Core_0_L1I_rfo_access 0
Core_0_L1I_rfo_hit 0
Core_0_L1I_rfo_miss 0
Core_0_L1I_rfo_MPKI 0
Core_0_L1I_rfo_miss_rate 0
Core_0_L1I_prefetch_access 0
Core_0_L1I_prefetch_hit 0
Core_0_L1I_prefetch_miss 0
Core_0_L1I_prefetch_MPKI 0
Core_0_L1I_prefetch_miss_rate 0
Core_0_L1I_writeback_access 0
Core_0_L1I_writeback_hit 0
Core_0_L1I_writeback_miss 0
Core_0_L1I_writeback_MPKI 0
Core_0_L1I_writeback_miss_rate 0
Core_0_L1I_prefetch_requested 0
Core_0_L1I_prefetch_issued 0
Core_0_L1I_prefetch_useful 0
Core_0_L1I_prefetch_useless 0
Core_0_L1I_prefetch_late 0
Core_0_L1I_prefetch_accuracy 0
Core_0_L1I_prefetch_coverage 0
Core_0_L1I_total_eviction 1987

Core_0_L1D_total_access 39372798
Core_0_L1D_total_hit 26681978
Core_0_L1D_total_miss 12690820
Core_0_L1D_total_MPKI 126.908
Core_0_L1D_total_miss_rate 0.322325
Core_0_L1D_demand_access 16521594
Core_0_L1D_demand_hit 10315680
Core_0_L1D_demand_miss 6205914
Core_0_L1D_demand_MPKI 62.0591
Core_0_L1D_demand_miss_rate 0.375624
Core_0_L1D_load_access 16521594
Core_0_L1D_load_hit 10315680
Core_0_L1D_load_miss 6205914
Core_0_L1D_load_MPKI 62.0591
Core_0_L1D_load_miss_rate 0.375624
Core_0_L1D_rfo_access 0
Core_0_L1D_rfo_hit 0
Core_0_L1D_rfo_miss 0
Core_0_L1D_rfo_MPKI 0
Core_0_L1D_rfo_miss_rate 0
Core_0_L1D_prefetch_access 15005754
Core_0_L1D_prefetch_hit 8594267
Core_0_L1D_prefetch_miss 6411487
Core_0_L1D_prefetch_MPKI 64.1149
Core_0_L1D_prefetch_miss_rate 0.427269
Core_0_L1D_writeback_access 7845450
Core_0_L1D_writeback_hit 7772031
Core_0_L1D_writeback_miss 73419
Core_0_L1D_writeback_MPKI 0.73419
Core_0_L1D_writeback_miss_rate 0.00935816
Core_0_L1D_prefetch_requested 83623934
Core_0_L1D_prefetch_issued 15005754
Core_0_L1D_prefetch_useful 2261251
Core_0_L1D_prefetch_useless 223549
Core_0_L1D_prefetch_late 305394
Core_0_L1D_prefetch_accuracy 0.150692
Core_0_L1D_prefetch_coverage 0.267061
Core_0_L1D_total_eviction 5469798

Core_0_L2C_total_access 15965230
Core_0_L2C_total_hit 5032974
Core_0_L2C_total_miss 10932256
Core_0_L2C_total_MPKI 109.323
Core_0_L2C_total_miss_rate 0.684754
Core_0_L2C_demand_access 2938915
Core_0_L2C_demand_hit 670145
Core_0_L2C_demand_miss 2268770
Core_0_L2C_demand_MPKI 22.6877
Core_0_L2C_demand_miss_rate 0.771975
Core_0_L2C_load_access 2907634
Core_0_L2C_load_hit 656521
Core_0_L2C_load_miss 2251113
Core_0_L2C_load_MPKI 22.5111
Core_0_L2C_load_miss_rate 0.774208
Core_0_L2C_rfo_access 31281
Core_0_L2C_rfo_hit 13624
Core_0_L2C_rfo_miss 17657
Core_0_L2C_rfo_MPKI 0.17657
Core_0_L2C_rfo_miss_rate 0.564464
Core_0_L2C_prefetch_access 10876723
Core_0_L2C_prefetch_hit 2213248
Core_0_L2C_prefetch_miss 8663475
Core_0_L2C_prefetch_MPKI 86.6347
Core_0_L2C_prefetch_miss_rate 0.796515
Core_0_L2C_writeback_access 2149592
Core_0_L2C_writeback_hit 2149581
Core_0_L2C_writeback_miss 11
Core_0_L2C_writeback_MPKI 0.00011
Core_0_L2C_writeback_miss_rate 5.11725e-06
Core_0_L2C_prefetch_requested 4877461
Core_0_L2C_prefetch_issued 4791694
Core_0_L2C_prefetch_useful 545770
Core_0_L2C_prefetch_useless 457737
Core_0_L2C_prefetch_late 123616
Core_0_L2C_prefetch_accuracy 0.113899
Core_0_L2C_prefetch_coverage 0.193911
Core_0_L2C_total_eviction 5580049

Core_0_LLC_total_access 8400301
Core_0_LLC_total_hit 1703032
Core_0_LLC_total_miss 6697269
Core_0_LLC_total_MPKI 66.9727
Core_0_LLC_total_miss_rate 0.797265
Core_0_LLC_demand_access 2037607
Core_0_LLC_demand_hit 519551
Core_0_LLC_demand_miss 1518056
Core_0_LLC_demand_MPKI 15.1806
Core_0_LLC_demand_miss_rate 0.745019
Core_0_LLC_load_access 2020292
Core_0_LLC_load_hit 513405
Core_0_LLC_load_miss 1506887
Core_0_LLC_load_MPKI 15.0689
Core_0_LLC_load_miss_rate 0.745876
Core_0_LLC_rfo_access 17315
Core_0_LLC_rfo_hit 6146
Core_0_LLC_rfo_miss 11169
Core_0_LLC_rfo_MPKI 0.11169
Core_0_LLC_rfo_miss_rate 0.645048
Core_0_LLC_prefetch_access 4382119
Core_0_LLC_prefetch_hit 360856
Core_0_LLC_prefetch_miss 4021263
Core_0_LLC_prefetch_MPKI 40.2126
Core_0_LLC_prefetch_miss_rate 0.917653
Core_0_LLC_writeback_access 1980575
Core_0_LLC_writeback_hit 822625
Core_0_LLC_writeback_miss 1157950
Core_0_LLC_writeback_MPKI 11.5795
Core_0_LLC_writeback_miss_rate 0.584653
Core_0_LLC_prefetch_requested 0
Core_0_LLC_prefetch_issued 0
Core_0_LLC_prefetch_useful 0
Core_0_LLC_prefetch_useless 0
Core_0_LLC_prefetch_late 0
Core_0_LLC_prefetch_accuracy 0
Core_0_LLC_prefetch_coverage 0
Core_0_LLC_total_eviction 6068004

[DRAM Statistics]
Channel_0_RQ_row_buffer_hit 260369
Channel_0_RQ_row_buffer_miss 4648251
Channel_0_WQ_row_buffer_hit 118002
Channel_0_WQ_row_buffer_miss 1303903
Channel_0_WQ_full 533
Channel_0_dbus_congested 18694358
DRAM_total_RQ_row_buffer_hit 260369
DRAM_total_RQ_row_buffer_miss 4648251
DRAM_total_WQ_row_buffer_hit 118002
DRAM_total_WQ_row_buffer_miss 1303903
DRAM_total_WQ_full 533
DRAM_total_dbus_congested 18694358
DRAM_avg_congested_cycle 5.80785

======STLB miss causes ========
Core_0_STLB_miss_cause_breakdown
Core_0_STLB_cause_Demand_Data_miss 119686
Core_0_STLB_cause_Demand_Data_miss_rate 0.273775
Core_0_STLB_cause_Demand_Instruction_miss 193
Core_0_STLB_cause_Demand_Instruction_miss_rate 0.000441476
Core_0_STLB_cause_L1D_Prefetch_miss 0
Core_0_STLB_cause_L1D_Prefetch_miss_rate 0
Core_0_STLB_cause_L1I_Prefetch_miss 0
Core_0_STLB_cause_L1I_Prefetch_miss_rate 0
Core_0_STLB_cause_Other_miss 0
Core_0_STLB_cause_Other_miss_rate 0
Core_0_STLB_Demand_miss 119879
Core_0_STLB_Demand_miss_rate 0.274216
Core_0_STLB_L1D_Prefetch_miss 0
Core_0_STLB_L1D_Prefetch_miss_rate 0
Core_0_STLB_Other_miss 0
Core_0_STLB_Other_miss_rate 0
BERTI TO_L1: 82513406 TO_L2: 46772771 TO_L2_BC_MSHR: 12826888
BERTI AVG_LAT: 182.465 NUM_TRACK_LATENCY: 7784576 NUM_CANT_TRACK_LATENCY: 11
BERTI CROSS_PAGE 23951995 NO_CROSS_PAGE: 129286177
BERTI FOUND_BERTI: 41584200 NO_FOUND_BERTI: 11183015
BERTI AVERAGE_ISSUED: 2.11007
