[VMEM] WARNING: physical memory size is smaller than virtual memory size.

*** ChampSim Multicore Out-of-Order Simulator ***
Warmup Instructions: 50000000
Simulation Instructions: 100000000
Number of CPUs: 1
Page size: 4096
STLB ideal mode: off
STLB ideal fill: off
Core 0: /data0/tzh/champsim_traces/QMM/compute_fp_7_new.xz
VBerti Prefetcher
No Crossing Page
BERTI HASH ENTANGLING
BERTI IP MASK ffff
Off-chip DRAM Size: 16 GiB Channels: 1 Width: 64-bit Data Rate: 3205 MT/s
*** Reached end of trace: (0, "/data0/tzh/champsim_traces/QMM/compute_fp_7_new.xz")
[BTB] WARNING: target of return is a lower address than the corresponding call. This is usually a problem with your trace.
Warmup halting CPU 0 at instruction 50000005 cycle 14538065 for remainder of phase
Warmup finished CPU 0 instructions: 50000005 cycles: 14538065 cumulative IPC: 3.439 (Simulation time: 00 hr 03 min 18 sec)
Warmup complete CPU 0 instructions: 50000005 cycles: 14538065 cumulative IPC: 3.439 (Simulation time: 00 hr 03 min 18 sec)
*** Reached end of trace: (0, "/data0/tzh/champsim_traces/QMM/compute_fp_7_new.xz")
[BTB] WARNING: target of return is a lower address than the corresponding call. This is usually a problem with your trace.
*** Reached end of trace: (0, "/data0/tzh/champsim_traces/QMM/compute_fp_7_new.xz")
[BTB] WARNING: target of return is a lower address than the corresponding call. This is usually a problem with your trace.
*** Reached end of trace: (0, "/data0/tzh/champsim_traces/QMM/compute_fp_7_new.xz")
[BTB] WARNING: target of return is a lower address than the corresponding call. This is usually a problem with your trace.
Simulation finished CPU 0 instructions: 100000002 cycles: 222995752 cumulative IPC: 0.4484 (Simulation time: 00 hr 28 min 09 sec)
Simulation complete CPU 0 instructions: 100000002 cycles: 222995752 cumulative IPC: 0.4484 (Simulation time: 00 hr 28 min 09 sec)

ChampSim completed all CPUs

=== Simulation ===
CPU 0 runs /data0/tzh/champsim_traces/QMM/compute_fp_7_new.xz

Region of Interest Statistics

CPU 0 cumulative IPC: 0.4484 instructions: 100000002 cycles: 222995752
CPU 0 Branch Prediction Accuracy: 93.53% MPKI: 10.54 Average ROB Occupancy at Mispredict: 66.94
Branch type MPKI
BRANCH_DIRECT_JUMP: 0
BRANCH_INDIRECT: 7e-05
BRANCH_CONDITIONAL: 10.54
BRANCH_DIRECT_CALL: 0
BRANCH_INDIRECT_CALL: 0
BRANCH_RETURN: 3e-05

cpu0->cpu0_STLB TOTAL        ACCESS:    1498830 HIT:    1312173 MISS:     186657 MSHR_MERGE:          0
cpu0->cpu0_STLB LOAD         ACCESS:    1498830 HIT:    1312173 MISS:     186657 MSHR_MERGE:          0
cpu0->cpu0_STLB RFO          ACCESS:          0 HIT:          0 MISS:          0 MSHR_MERGE:          0
cpu0->cpu0_STLB PREFETCH     ACCESS:          0 HIT:          0 MISS:          0 MSHR_MERGE:          0
cpu0->cpu0_STLB WRITE        ACCESS:          0 HIT:          0 MISS:          0 MSHR_MERGE:          0
cpu0->cpu0_STLB TRANSLATION  ACCESS:          0 HIT:          0 MISS:          0 MSHR_MERGE:          0
cpu0->cpu0_STLB PREFETCH REQUESTED:          0 ISSUED:          0 USEFUL:          0 USELESS:          0 LATE:          0
cpu0->cpu0_STLB AVERAGE MISS LATENCY: 58.66 cycles
cpu0->cpu0_L2C TOTAL        ACCESS:   15474379 HIT:    8298528 MISS:    7175851 MSHR_MERGE:    1344377
cpu0->cpu0_L2C LOAD         ACCESS:    4368442 HIT:    1732687 MISS:    2635755 MSHR_MERGE:     123957
cpu0->cpu0_L2C RFO          ACCESS:    1217993 HIT:     338108 MISS:     879885 MSHR_MERGE:      45999
cpu0->cpu0_L2C PREFETCH     ACCESS:    6511973 HIT:    2902762 MISS:    3609211 MSHR_MERGE:    1174421
cpu0->cpu0_L2C WRITE        ACCESS:    3280880 HIT:    3280736 MISS:        144 MSHR_MERGE:          0
cpu0->cpu0_L2C TRANSLATION  ACCESS:      95091 HIT:      44235 MISS:      50856 MSHR_MERGE:          0
cpu0->cpu0_L2C PREFETCH REQUESTED:    2516976 ISSUED:    2495289 USEFUL:     548181 USELESS:     193078 LATE:      97345
cpu0->cpu0_L2C AVERAGE MISS LATENCY: 194.9 cycles
cpu0->cpu0_L1I TOTAL        ACCESS:    5159615 HIT:    5152949 MISS:       6666 MSHR_MERGE:       2753
cpu0->cpu0_L1I LOAD         ACCESS:    5159615 HIT:    5152949 MISS:       6666 MSHR_MERGE:       2753
cpu0->cpu0_L1I RFO          ACCESS:          0 HIT:          0 MISS:          0 MSHR_MERGE:          0
cpu0->cpu0_L1I PREFETCH     ACCESS:          0 HIT:          0 MISS:          0 MSHR_MERGE:          0
cpu0->cpu0_L1I WRITE        ACCESS:          0 HIT:          0 MISS:          0 MSHR_MERGE:          0
cpu0->cpu0_L1I TRANSLATION  ACCESS:          0 HIT:          0 MISS:          0 MSHR_MERGE:          0
cpu0->cpu0_L1I PREFETCH REQUESTED:          0 ISSUED:          0 USEFUL:          0 USELESS:          0 LATE:          0
cpu0->cpu0_L1I AVERAGE MISS LATENCY: 282.7 cycles
cpu0->cpu0_L1D TOTAL        ACCESS:   46111172 HIT:   32659822 MISS:   13451350 MSHR_MERGE:    3712484
cpu0->cpu0_L1D LOAD         ACCESS:   19198667 HIT:   13079742 MISS:    6118925 MSHR_MERGE:    1754244
cpu0->cpu0_L1D RFO          ACCESS:          0 HIT:          0 MISS:          0 MSHR_MERGE:          0
cpu0->cpu0_L1D PREFETCH     ACCESS:   16195807 HIT:   12026724 MISS:    4169083 MSHR_MERGE:     108108
cpu0->cpu0_L1D WRITE        ACCESS:   10344604 HIT:    7277714 MISS:    3066890 MSHR_MERGE:    1848771
cpu0->cpu0_L1D TRANSLATION  ACCESS:     372094 HIT:     275642 MISS:      96452 MSHR_MERGE:       1361
cpu0->cpu0_L1D PREFETCH REQUESTED:  138856225 ISSUED:   16195802 USEFUL:    1146733 USELESS:     215207 LATE:      69753
cpu0->cpu0_L1D AVERAGE MISS LATENCY: 131.7 cycles
cpu0->cpu0_ITLB TOTAL        ACCESS:    4588067 HIT:    4587150 MISS:        917 MSHR_MERGE:        642
cpu0->cpu0_ITLB LOAD         ACCESS:    4588067 HIT:    4587150 MISS:        917 MSHR_MERGE:        642
cpu0->cpu0_ITLB RFO          ACCESS:          0 HIT:          0 MISS:          0 MSHR_MERGE:          0
cpu0->cpu0_ITLB PREFETCH     ACCESS:          0 HIT:          0 MISS:          0 MSHR_MERGE:          0
cpu0->cpu0_ITLB WRITE        ACCESS:          0 HIT:          0 MISS:          0 MSHR_MERGE:          0
cpu0->cpu0_ITLB TRANSLATION  ACCESS:          0 HIT:          0 MISS:          0 MSHR_MERGE:          0
cpu0->cpu0_ITLB PREFETCH REQUESTED:          0 ISSUED:          0 USEFUL:          0 USELESS:          0 LATE:          0
cpu0->cpu0_ITLB AVERAGE MISS LATENCY: 279.2 cycles
cpu0->cpu0_DTLB TOTAL        ACCESS:   39882151 HIT:   37846658 MISS:    2035493 MSHR_MERGE:     536938
cpu0->cpu0_DTLB LOAD         ACCESS:   39882151 HIT:   37846658 MISS:    2035493 MSHR_MERGE:     536938
cpu0->cpu0_DTLB RFO          ACCESS:          0 HIT:          0 MISS:          0 MSHR_MERGE:          0
cpu0->cpu0_DTLB PREFETCH     ACCESS:          0 HIT:          0 MISS:          0 MSHR_MERGE:          0
cpu0->cpu0_DTLB WRITE        ACCESS:          0 HIT:          0 MISS:          0 MSHR_MERGE:          0
cpu0->cpu0_DTLB TRANSLATION  ACCESS:          0 HIT:          0 MISS:          0 MSHR_MERGE:          0
cpu0->cpu0_DTLB PREFETCH REQUESTED:          0 ISSUED:          0 USEFUL:          0 USELESS:          0 LATE:          0
cpu0->cpu0_DTLB AVERAGE MISS LATENCY: 12.39 cycles
cpu0->LLC TOTAL        ACCESS:    8093398 HIT:    3722401 MISS:    4370997 MSHR_MERGE:     100360
cpu0->LLC LOAD         ACCESS:    2511794 HIT:    1036460 MISS:    1475334 MSHR_MERGE:      10542
cpu0->LLC RFO          ACCESS:     833886 HIT:     270523 MISS:     563363 MSHR_MERGE:       1704
cpu0->LLC PREFETCH     ACCESS:    2434720 HIT:     646632 MISS:    1788088 MSHR_MERGE:      88114
cpu0->LLC WRITE        ACCESS:    2262142 HIT:    1743107 MISS:     519035 MSHR_MERGE:          0
cpu0->LLC TRANSLATION  ACCESS:      50856 HIT:      25679 MISS:      25177 MSHR_MERGE:          0
cpu0->LLC PREFETCH REQUESTED:          0 ISSUED:          0 USEFUL:          0 USELESS:          0 LATE:          0
cpu0->LLC AVERAGE MISS LATENCY: 233.7 cycles

DRAM Statistics

Channel 0 RQ ROW_BUFFER_HIT:     145163
  ROW_BUFFER_MISS:    3602981
  AVG DBUS CONGESTED CYCLE: 6.826
Channel 0 WQ ROW_BUFFER_HIT:     229071
  ROW_BUFFER_MISS:     977550
  FULL:       1946
Channel 0 REFRESHES ISSUED:      18583

[ROI Statistics]
[System Configuration]
num_cpus 1
cpu_freq 4000
fetch_width 6
decode_width 6
dispatch_width 6
execute_width 6
lq_width 2
sq_width 2
retire_width 6
scheduler_size 128
branch_mispredict_penalty 15
rob_size 352
lq_size 128
sq_size 72
ifetch_buffer_size 64
decode_buffer_size 32
dispatch_buffer_size 32
register_file_size 288
decode_latency 1
dispatch_latency 1
schedule_latency 1
execute_latency 1
page_size 4096
block_size 64
core_0_itlb_set 16
core_0_itlb_way 4
core_0_itlb_rq_size 16
core_0_itlb_wq_size 16
core_0_itlb_pq_size 0
core_0_itlb_mshr_size 8
core_0_itlb_hit_latency 1
core_0_itlb_fill_latency 1
core_0_itlb_max_tag_check 2
core_0_itlb_max_fill 2
core_0_dtlb_set 16
core_0_dtlb_way 4
core_0_dtlb_rq_size 16
core_0_dtlb_wq_size 16
core_0_dtlb_pq_size 0
core_0_dtlb_mshr_size 8
core_0_dtlb_hit_latency 1
core_0_dtlb_fill_latency 1
core_0_dtlb_max_tag_check 2
core_0_dtlb_max_fill 2
core_0_stlb_set 128
core_0_stlb_way 12
core_0_stlb_rq_size 32
core_0_stlb_wq_size 32
core_0_stlb_pq_size 0
core_0_stlb_mshr_size 16
core_0_stlb_hit_latency 4
core_0_stlb_fill_latency 4
core_0_stlb_max_tag_check 1
core_0_stlb_max_fill 1
core_0_l1i_set 64
core_0_l1i_way 8
core_0_l1i_rq_size 64
core_0_l1i_wq_size 64
core_0_l1i_pq_size 32
core_0_l1i_mshr_size 8
core_0_l1i_hit_latency 2
core_0_l1i_fill_latency 2
core_0_l1i_max_tag_check 2
core_0_l1i_max_fill 2
core_0_l1d_set 64
core_0_l1d_way 12
core_0_l1d_rq_size 64
core_0_l1d_wq_size 64
core_0_l1d_pq_size 8
core_0_l1d_mshr_size 16
core_0_l1d_hit_latency 2
core_0_l1d_fill_latency 3
core_0_l1d_max_tag_check 2
core_0_l1d_max_fill 2
core_0_l2c_set 1024
core_0_l2c_way 8
core_0_l2c_rq_size 32
core_0_l2c_wq_size 32
core_0_l2c_pq_size 16
core_0_l2c_mshr_size 32
core_0_l2c_hit_latency 5
core_0_l2c_fill_latency 5
core_0_l2c_max_tag_check 1
core_0_l2c_max_fill 1
llc_set 2048
llc_way 16
llc_rq_size 32
llc_wq_size 32
llc_pq_size 32
llc_mshr_size 64
llc_hit_latency 10
llc_fill_latency 10
llc_max_tag_check 1
llc_max_fill 1
dram_channels 1
dram_ranks 1
dram_bankgroups 8
dram_banks 4
dram_rows 65536
dram_columns 1024
dram_channel_width 8
dram_rq_size 64
dram_wq_size 64
dram_size 17179869184
core_0_itlb_prefetcher no
core_0_dtlb_prefetcher no
core_0_stlb_prefetcher no
core_0_l1i_prefetcher next_line
core_0_l1d_prefetcher vberti_nocross
core_0_l2c_prefetcher ip_stride
llc_prefetcher no
llc_replacement drrip

Core_0_instructions 100000002
Core_0_cycles 222995752
Core_0_IPC 0.448439
Core_0_branch_prediction_accuracy 93.5273
Core_0_branch_MPKI 10.5389
Core_0_average_ROB_occupancy_at_mispredict 66.9358

Core_0_ITLB_total_access 4588067
Core_0_ITLB_total_hit 4587150
Core_0_ITLB_total_miss 917
Core_0_ITLB_total_MPKI 0.00917
Core_0_ITLB_total_miss_rate 0.000199866
Core_0_ITLB_demand_access 4588067
Core_0_ITLB_demand_hit 4587150
Core_0_ITLB_demand_miss 917
Core_0_ITLB_demand_MPKI 0.00917
Core_0_ITLB_demand_miss_rate 0.000199866
Core_0_ITLB_load_access 4588067
Core_0_ITLB_load_hit 4587150
Core_0_ITLB_load_miss 917
Core_0_ITLB_load_MPKI 0.00917
Core_0_ITLB_load_miss_rate 0.000199866
Core_0_ITLB_rfo_access 0
Core_0_ITLB_rfo_hit 0
Core_0_ITLB_rfo_miss 0
Core_0_ITLB_rfo_MPKI 0
Core_0_ITLB_rfo_miss_rate 0
Core_0_ITLB_prefetch_access 0
Core_0_ITLB_prefetch_hit 0
Core_0_ITLB_prefetch_miss 0
Core_0_ITLB_prefetch_MPKI 0
Core_0_ITLB_prefetch_miss_rate 0
Core_0_ITLB_writeback_access 0
Core_0_ITLB_writeback_hit 0
Core_0_ITLB_writeback_miss 0
Core_0_ITLB_writeback_MPKI 0
Core_0_ITLB_writeback_miss_rate 0
Core_0_ITLB_prefetch_requested 0
Core_0_ITLB_prefetch_issued 0
Core_0_ITLB_prefetch_useful 0
Core_0_ITLB_prefetch_useless 0
Core_0_ITLB_prefetch_late 0
Core_0_ITLB_prefetch_accuracy 0
Core_0_ITLB_prefetch_coverage 0
Core_0_ITLB_total_eviction 275

Core_0_DTLB_total_access 39882151
Core_0_DTLB_total_hit 37846658
Core_0_DTLB_total_miss 2035493
Core_0_DTLB_total_MPKI 20.3549
Core_0_DTLB_total_miss_rate 0.0510377
Core_0_DTLB_demand_access 39882151
Core_0_DTLB_demand_hit 37846658
Core_0_DTLB_demand_miss 2035493
Core_0_DTLB_demand_MPKI 20.3549
Core_0_DTLB_demand_miss_rate 0.0510377
Core_0_DTLB_load_access 39882151
Core_0_DTLB_load_hit 37846658
Core_0_DTLB_load_miss 2035493
Core_0_DTLB_load_MPKI 20.3549
Core_0_DTLB_load_miss_rate 0.0510377
Core_0_DTLB_rfo_access 0
Core_0_DTLB_rfo_hit 0
Core_0_DTLB_rfo_miss 0
Core_0_DTLB_rfo_MPKI 0
Core_0_DTLB_rfo_miss_rate 0
Core_0_DTLB_prefetch_access 0
Core_0_DTLB_prefetch_hit 0
Core_0_DTLB_prefetch_miss 0
Core_0_DTLB_prefetch_MPKI 0
Core_0_DTLB_prefetch_miss_rate 0
Core_0_DTLB_writeback_access 0
Core_0_DTLB_writeback_hit 0
Core_0_DTLB_writeback_miss 0
Core_0_DTLB_writeback_MPKI 0
Core_0_DTLB_writeback_miss_rate 0
Core_0_DTLB_prefetch_requested 0
Core_0_DTLB_prefetch_issued 0
Core_0_DTLB_prefetch_useful 0
Core_0_DTLB_prefetch_useless 0
Core_0_DTLB_prefetch_late 0
Core_0_DTLB_prefetch_accuracy 0
Core_0_DTLB_prefetch_coverage 0
Core_0_DTLB_total_eviction 1498555

Core_0_STLB_total_access 1498830
Core_0_STLB_total_hit 1312173
Core_0_STLB_total_miss 186657
Core_0_STLB_total_MPKI 1.86657
Core_0_STLB_total_miss_rate 0.124535
Core_0_STLB_demand_access 1498830
Core_0_STLB_demand_hit 1312173
Core_0_STLB_demand_miss 186657
Core_0_STLB_demand_MPKI 1.86657
Core_0_STLB_demand_miss_rate 0.124535
Core_0_STLB_load_access 1498830
Core_0_STLB_load_hit 1312173
Core_0_STLB_load_miss 186657
Core_0_STLB_load_MPKI 1.86657
Core_0_STLB_load_miss_rate 0.124535
Core_0_STLB_rfo_access 0
Core_0_STLB_rfo_hit 0
Core_0_STLB_rfo_miss 0
Core_0_STLB_rfo_MPKI 0
Core_0_STLB_rfo_miss_rate 0
Core_0_STLB_prefetch_access 0
Core_0_STLB_prefetch_hit 0
Core_0_STLB_prefetch_miss 0
Core_0_STLB_prefetch_MPKI 0
Core_0_STLB_prefetch_miss_rate 0
Core_0_STLB_writeback_access 0
Core_0_STLB_writeback_hit 0
Core_0_STLB_writeback_miss 0
Core_0_STLB_writeback_MPKI 0
Core_0_STLB_writeback_miss_rate 0
Core_0_STLB_prefetch_requested 0
Core_0_STLB_prefetch_issued 0
Core_0_STLB_prefetch_useful 0
Core_0_STLB_prefetch_useless 0
Core_0_STLB_prefetch_late 0
Core_0_STLB_prefetch_accuracy 0
Core_0_STLB_prefetch_coverage 0
Core_0_STLB_total_eviction 186657

Core_0_L1I_total_access 5159615
Core_0_L1I_total_hit 5152949
Core_0_L1I_total_miss 6666
Core_0_L1I_total_MPKI 0.06666
Core_0_L1I_total_miss_rate 0.00129196
Core_0_L1I_demand_access 5159615
Core_0_L1I_demand_hit 5152949
Core_0_L1I_demand_miss 6666
Core_0_L1I_demand_MPKI 0.06666
Core_0_L1I_demand_miss_rate 0.00129196
Core_0_L1I_load_access 5159615
Core_0_L1I_load_hit 5152949
Core_0_L1I_load_miss 6666
Core_0_L1I_load_MPKI 0.06666
Core_0_L1I_load_miss_rate 0.00129196
Core_0_L1I_rfo_access 0
Core_0_L1I_rfo_hit 0
Core_0_L1I_rfo_miss 0
Core_0_L1I_rfo_MPKI 0
Core_0_L1I_rfo_miss_rate 0
Core_0_L1I_prefetch_access 0
Core_0_L1I_prefetch_hit 0
Core_0_L1I_prefetch_miss 0
Core_0_L1I_prefetch_MPKI 0
Core_0_L1I_prefetch_miss_rate 0
Core_0_L1I_writeback_access 0
Core_0_L1I_writeback_hit 0
Core_0_L1I_writeback_miss 0
Core_0_L1I_writeback_MPKI 0
Core_0_L1I_writeback_miss_rate 0
Core_0_L1I_prefetch_requested 0
Core_0_L1I_prefetch_issued 0
Core_0_L1I_prefetch_useful 0
Core_0_L1I_prefetch_useless 0
Core_0_L1I_prefetch_late 0
Core_0_L1I_prefetch_accuracy 0
Core_0_L1I_prefetch_coverage 0
Core_0_L1I_total_eviction 3913

Core_0_L1D_total_access 45739078
Core_0_L1D_total_hit 32384180
Core_0_L1D_total_miss 13354898
Core_0_L1D_total_MPKI 133.549
Core_0_L1D_total_miss_rate 0.29198
Core_0_L1D_demand_access 19198667
Core_0_L1D_demand_hit 13079742
Core_0_L1D_demand_miss 6118925
Core_0_L1D_demand_MPKI 61.1892
Core_0_L1D_demand_miss_rate 0.318716
Core_0_L1D_load_access 19198667
Core_0_L1D_load_hit 13079742
Core_0_L1D_load_miss 6118925
Core_0_L1D_load_MPKI 61.1892
Core_0_L1D_load_miss_rate 0.318716
Core_0_L1D_rfo_access 0
Core_0_L1D_rfo_hit 0
Core_0_L1D_rfo_miss 0
Core_0_L1D_rfo_MPKI 0
Core_0_L1D_rfo_miss_rate 0
Core_0_L1D_prefetch_access 16195807
Core_0_L1D_prefetch_hit 12026724
Core_0_L1D_prefetch_miss 4169083
Core_0_L1D_prefetch_MPKI 41.6908
Core_0_L1D_prefetch_miss_rate 0.257417
Core_0_L1D_writeback_access 10344604
Core_0_L1D_writeback_hit 7277714
Core_0_L1D_writeback_miss 3066890
Core_0_L1D_writeback_MPKI 30.6689
Core_0_L1D_writeback_miss_rate 0.296472
Core_0_L1D_prefetch_requested 138856225
Core_0_L1D_prefetch_issued 16195802
Core_0_L1D_prefetch_useful 1146733
Core_0_L1D_prefetch_useless 215207
Core_0_L1D_prefetch_late 69753
Core_0_L1D_prefetch_accuracy 0.0708043
Core_0_L1D_prefetch_coverage 0.157829
Core_0_L1D_total_eviction 7039935

Core_0_L2C_total_access 15379288
Core_0_L2C_total_hit 8254293
Core_0_L2C_total_miss 7124995
Core_0_L2C_total_MPKI 71.2499
Core_0_L2C_total_miss_rate 0.463285
Core_0_L2C_demand_access 5586435
Core_0_L2C_demand_hit 2070795
Core_0_L2C_demand_miss 3515640
Core_0_L2C_demand_MPKI 35.1564
Core_0_L2C_demand_miss_rate 0.629317
Core_0_L2C_load_access 4368442
Core_0_L2C_load_hit 1732687
Core_0_L2C_load_miss 2635755
Core_0_L2C_load_MPKI 26.3575
Core_0_L2C_load_miss_rate 0.603363
Core_0_L2C_rfo_access 1217993
Core_0_L2C_rfo_hit 338108
Core_0_L2C_rfo_miss 879885
Core_0_L2C_rfo_MPKI 8.79885
Core_0_L2C_rfo_miss_rate 0.722406
Core_0_L2C_prefetch_access 6511973
Core_0_L2C_prefetch_hit 2902762
Core_0_L2C_prefetch_miss 3609211
Core_0_L2C_prefetch_MPKI 36.0921
Core_0_L2C_prefetch_miss_rate 0.554242
Core_0_L2C_writeback_access 3280880
Core_0_L2C_writeback_hit 3280736
Core_0_L2C_writeback_miss 144
Core_0_L2C_writeback_MPKI 0.00144
Core_0_L2C_writeback_miss_rate 4.38907e-05
Core_0_L2C_prefetch_requested 2516976
Core_0_L2C_prefetch_issued 2495289
Core_0_L2C_prefetch_useful 548181
Core_0_L2C_prefetch_useless 193078
Core_0_L2C_prefetch_late 97345
Core_0_L2C_prefetch_accuracy 0.219686
Core_0_L2C_prefetch_coverage 0.134893
Core_0_L2C_total_eviction 5647821

Core_0_LLC_total_access 8042542
Core_0_LLC_total_hit 3696722
Core_0_LLC_total_miss 4345820
Core_0_LLC_total_MPKI 43.4582
Core_0_LLC_total_miss_rate 0.540354
Core_0_LLC_demand_access 3345680
Core_0_LLC_demand_hit 1306983
Core_0_LLC_demand_miss 2038697
Core_0_LLC_demand_MPKI 20.387
Core_0_LLC_demand_miss_rate 0.609352
Core_0_LLC_load_access 2511794
Core_0_LLC_load_hit 1036460
Core_0_LLC_load_miss 1475334
Core_0_LLC_load_MPKI 14.7533
Core_0_LLC_load_miss_rate 0.587363
Core_0_LLC_rfo_access 833886
Core_0_LLC_rfo_hit 270523
Core_0_LLC_rfo_miss 563363
Core_0_LLC_rfo_MPKI 5.63363
Core_0_LLC_rfo_miss_rate 0.675588
Core_0_LLC_prefetch_access 2434720
Core_0_LLC_prefetch_hit 646632
Core_0_LLC_prefetch_miss 1788088
Core_0_LLC_prefetch_MPKI 17.8809
Core_0_LLC_prefetch_miss_rate 0.734412
Core_0_LLC_writeback_access 2262142
Core_0_LLC_writeback_hit 1743107
Core_0_LLC_writeback_miss 519035
Core_0_LLC_writeback_MPKI 5.19035
Core_0_LLC_writeback_miss_rate 0.229444
Core_0_LLC_prefetch_requested 0
Core_0_LLC_prefetch_issued 0
Core_0_LLC_prefetch_useful 0
Core_0_LLC_prefetch_useless 0
Core_0_LLC_prefetch_late 0
Core_0_LLC_prefetch_accuracy 0
Core_0_LLC_prefetch_coverage 0
Core_0_LLC_total_eviction 4270633

[DRAM Statistics]
Channel_0_RQ_row_buffer_hit 145163
Channel_0_RQ_row_buffer_miss 3602981
Channel_0_WQ_row_buffer_hit 229071
Channel_0_WQ_row_buffer_miss 977550
Channel_0_WQ_full 1946
Channel_0_dbus_congested 13637075
DRAM_total_RQ_row_buffer_hit 145163
DRAM_total_RQ_row_buffer_miss 3602981
DRAM_total_WQ_row_buffer_hit 229071
DRAM_total_WQ_row_buffer_miss 977550
DRAM_total_WQ_full 1946
DRAM_total_dbus_congested 13637075
DRAM_avg_congested_cycle 6.82567

======STLB miss causes ========
Core_0_STLB_miss_cause_breakdown
Core_0_STLB_cause_Demand_Data_miss 186382
Core_0_STLB_cause_Demand_Data_miss_rate 0.124352
Core_0_STLB_cause_Demand_Instruction_miss 275
Core_0_STLB_cause_Demand_Instruction_miss_rate 0.000183476
Core_0_STLB_cause_L1D_Prefetch_miss 0
Core_0_STLB_cause_L1D_Prefetch_miss_rate 0
Core_0_STLB_cause_L1I_Prefetch_miss 0
Core_0_STLB_cause_L1I_Prefetch_miss_rate 0
Core_0_STLB_cause_Other_miss 0
Core_0_STLB_cause_Other_miss_rate 0
Core_0_STLB_Demand_miss 186657
Core_0_STLB_Demand_miss_rate 0.124535
Core_0_STLB_L1D_Prefetch_miss 0
Core_0_STLB_L1D_Prefetch_miss_rate 0
Core_0_STLB_Other_miss 0
Core_0_STLB_Other_miss_rate 0
BERTI TO_L1: 102867950 TO_L2: 84178381 TO_L2_BC_MSHR: 46893753
BERTI AVG_LAT: 98.906 NUM_TRACK_LATENCY: 10294637 NUM_CANT_TRACK_LATENCY: 43
BERTI CROSS_PAGE 30897744 NO_CROSS_PAGE: 187046331
BERTI FOUND_BERTI: 43334210 NO_FOUND_BERTI: 15766378
BERTI AVERAGE_ISSUED: 2.24708
