[VMEM] WARNING: physical memory size is smaller than virtual memory size.

*** ChampSim Multicore Out-of-Order Simulator ***
Warmup Instructions: 50000000
Simulation Instructions: 100000000
Number of CPUs: 1
Page size: 4096
STLB ideal mode: off
STLB ideal fill: off
Core 0: /data0/tzh/champsim_traces/QMM/compute_int_14_new.xz
VBerti Prefetcher
No Crossing Page
BERTI HASH ENTANGLING
BERTI IP MASK ffff
Off-chip DRAM Size: 16 GiB Channels: 1 Width: 64-bit Data Rate: 3205 MT/s
*** Reached end of trace: (0, "/data0/tzh/champsim_traces/QMM/compute_int_14_new.xz")
[BTB] WARNING: target of return is a lower address than the corresponding call. This is usually a problem with your trace.
[BTB] WARNING: target of return is a lower address than the corresponding call. This is usually a problem with your trace.
[BTB] WARNING: target of return is a lower address than the corresponding call. This is usually a problem with your trace.
Warmup halting CPU 0 at instruction 50000005 cycle 11171471 for remainder of phase
Warmup finished CPU 0 instructions: 50000005 cycles: 11171471 cumulative IPC: 4.476 (Simulation time: 00 hr 02 min 00 sec)
Warmup complete CPU 0 instructions: 50000005 cycles: 11171471 cumulative IPC: 4.476 (Simulation time: 00 hr 02 min 00 sec)
*** Reached end of trace: (0, "/data0/tzh/champsim_traces/QMM/compute_int_14_new.xz")
[BTB] WARNING: target of return is a lower address than the corresponding call. This is usually a problem with your trace.
[BTB] WARNING: target of return is a lower address than the corresponding call. This is usually a problem with your trace.
[BTB] WARNING: target of return is a lower address than the corresponding call. This is usually a problem with your trace.
*** Reached end of trace: (0, "/data0/tzh/champsim_traces/QMM/compute_int_14_new.xz")
[BTB] WARNING: target of return is a lower address than the corresponding call. This is usually a problem with your trace.
[BTB] WARNING: target of return is a lower address than the corresponding call. This is usually a problem with your trace.
[BTB] WARNING: target of return is a lower address than the corresponding call. This is usually a problem with your trace.
*** Reached end of trace: (0, "/data0/tzh/champsim_traces/QMM/compute_int_14_new.xz")
[BTB] WARNING: target of return is a lower address than the corresponding call. This is usually a problem with your trace.
Simulation finished CPU 0 instructions: 100000001 cycles: 55733829 cumulative IPC: 1.794 (Simulation time: 00 hr 10 min 58 sec)
Simulation complete CPU 0 instructions: 100000001 cycles: 55733829 cumulative IPC: 1.794 (Simulation time: 00 hr 10 min 58 sec)

ChampSim completed all CPUs

=== Simulation ===
CPU 0 runs /data0/tzh/champsim_traces/QMM/compute_int_14_new.xz

Region of Interest Statistics

CPU 0 cumulative IPC: 1.794 instructions: 100000001 cycles: 55733829
CPU 0 Branch Prediction Accuracy: 99.8% MPKI: 0.5748 Average ROB Occupancy at Mispredict: 171.9
Branch type MPKI
BRANCH_DIRECT_JUMP: 0
BRANCH_INDIRECT: 0.00279
BRANCH_CONDITIONAL: 0.5606
BRANCH_DIRECT_CALL: 0
BRANCH_INDIRECT_CALL: 0.01126
BRANCH_RETURN: 9e-05

cpu0->cpu0_STLB TOTAL        ACCESS:     567450 HIT:      22470 MISS:     544980 MSHR_MERGE:          0
cpu0->cpu0_STLB LOAD         ACCESS:     567450 HIT:      22470 MISS:     544980 MSHR_MERGE:          0
cpu0->cpu0_STLB RFO          ACCESS:          0 HIT:          0 MISS:          0 MSHR_MERGE:          0
cpu0->cpu0_STLB PREFETCH     ACCESS:          0 HIT:          0 MISS:          0 MSHR_MERGE:          0
cpu0->cpu0_STLB WRITE        ACCESS:          0 HIT:          0 MISS:          0 MSHR_MERGE:          0
cpu0->cpu0_STLB TRANSLATION  ACCESS:          0 HIT:          0 MISS:          0 MSHR_MERGE:          0
cpu0->cpu0_STLB PREFETCH REQUESTED:          0 ISSUED:          0 USEFUL:          0 USELESS:          0 LATE:          0
cpu0->cpu0_STLB AVERAGE MISS LATENCY: 42.85 cycles
cpu0->cpu0_L2C TOTAL        ACCESS:    3548775 HIT:     978124 MISS:    2570651 MSHR_MERGE:     162283
cpu0->cpu0_L2C LOAD         ACCESS:    1828554 HIT:      93770 MISS:    1734784 MSHR_MERGE:      36874
cpu0->cpu0_L2C RFO          ACCESS:      22473 HIT:       2447 MISS:      20026 MSHR_MERGE:        455
cpu0->cpu0_L2C PREFETCH     ACCESS:    1522038 HIT:     832795 MISS:     689243 MSHR_MERGE:     124954
cpu0->cpu0_L2C WRITE        ACCESS:      35021 HIT:      35021 MISS:          0 MSHR_MERGE:          0
cpu0->cpu0_L2C TRANSLATION  ACCESS:     140689 HIT:      14091 MISS:     126598 MSHR_MERGE:          0
cpu0->cpu0_L2C PREFETCH REQUESTED:     533103 ISSUED:     525846 USEFUL:     167327 USELESS:       8674 LATE:       9107
cpu0->cpu0_L2C AVERAGE MISS LATENCY: 144.5 cycles
cpu0->cpu0_L1I TOTAL        ACCESS:    7427850 HIT:    7411801 MISS:      16049 MSHR_MERGE:       6010
cpu0->cpu0_L1I LOAD         ACCESS:    7427850 HIT:    7411801 MISS:      16049 MSHR_MERGE:       6010
cpu0->cpu0_L1I RFO          ACCESS:          0 HIT:          0 MISS:          0 MSHR_MERGE:          0
cpu0->cpu0_L1I PREFETCH     ACCESS:          0 HIT:          0 MISS:          0 MSHR_MERGE:          0
cpu0->cpu0_L1I WRITE        ACCESS:          0 HIT:          0 MISS:          0 MSHR_MERGE:          0
cpu0->cpu0_L1I TRANSLATION  ACCESS:          0 HIT:          0 MISS:          0 MSHR_MERGE:          0
cpu0->cpu0_L1I PREFETCH REQUESTED:          0 ISSUED:          0 USEFUL:          0 USELESS:          0 LATE:          0
cpu0->cpu0_L1I AVERAGE MISS LATENCY: 105.8 cycles
cpu0->cpu0_L1D TOTAL        ACCESS:   23094202 HIT:   19955800 MISS:    3138402 MSHR_MERGE:     145002
cpu0->cpu0_L1D LOAD         ACCESS:    9679261 HIT:    7812960 MISS:    1866301 MSHR_MERGE:      47786
cpu0->cpu0_L1D RFO          ACCESS:          0 HIT:          0 MISS:          0 MSHR_MERGE:          0
cpu0->cpu0_L1D PREFETCH     ACCESS:    9568470 HIT:    8545680 MISS:    1022790 MSHR_MERGE:      11067
cpu0->cpu0_L1D WRITE        ACCESS:    2811961 HIT:    2770138 MISS:      41823 MSHR_MERGE:      19350
cpu0->cpu0_L1D TRANSLATION  ACCESS:    1034510 HIT:     827022 MISS:     207488 MSHR_MERGE:      66799
cpu0->cpu0_L1D PREFETCH REQUESTED:   29732007 ISSUED:    9568462 USEFUL:     228035 USELESS:       6980 LATE:       4564
cpu0->cpu0_L1D AVERAGE MISS LATENCY: 145.9 cycles
cpu0->cpu0_ITLB TOTAL        ACCESS:    5389396 HIT:    5385528 MISS:       3868 MSHR_MERGE:       2509
cpu0->cpu0_ITLB LOAD         ACCESS:    5389396 HIT:    5385528 MISS:       3868 MSHR_MERGE:       2509
cpu0->cpu0_ITLB RFO          ACCESS:          0 HIT:          0 MISS:          0 MSHR_MERGE:          0
cpu0->cpu0_ITLB PREFETCH     ACCESS:          0 HIT:          0 MISS:          0 MSHR_MERGE:          0
cpu0->cpu0_ITLB WRITE        ACCESS:          0 HIT:          0 MISS:          0 MSHR_MERGE:          0
cpu0->cpu0_ITLB TRANSLATION  ACCESS:          0 HIT:          0 MISS:          0 MSHR_MERGE:          0
cpu0->cpu0_ITLB PREFETCH REQUESTED:          0 ISSUED:          0 USEFUL:          0 USELESS:          0 LATE:          0
cpu0->cpu0_ITLB AVERAGE MISS LATENCY: 100.6 cycles
cpu0->cpu0_DTLB TOTAL        ACCESS:   17237041 HIT:   16458256 MISS:     778785 MSHR_MERGE:     212694
cpu0->cpu0_DTLB LOAD         ACCESS:   17237041 HIT:   16458256 MISS:     778785 MSHR_MERGE:     212694
cpu0->cpu0_DTLB RFO          ACCESS:          0 HIT:          0 MISS:          0 MSHR_MERGE:          0
cpu0->cpu0_DTLB PREFETCH     ACCESS:          0 HIT:          0 MISS:          0 MSHR_MERGE:          0
cpu0->cpu0_DTLB WRITE        ACCESS:          0 HIT:          0 MISS:          0 MSHR_MERGE:          0
cpu0->cpu0_DTLB TRANSLATION  ACCESS:          0 HIT:          0 MISS:          0 MSHR_MERGE:          0
cpu0->cpu0_DTLB PREFETCH REQUESTED:          0 ISSUED:          0 USEFUL:          0 USELESS:          0 LATE:          0
cpu0->cpu0_DTLB AVERAGE MISS LATENCY: 46.99 cycles
cpu0->LLC TOTAL        ACCESS:    2441194 HIT:    1231194 MISS:    1210000 MSHR_MERGE:       4504
cpu0->LLC LOAD         ACCESS:    1697910 HIT:     781736 MISS:     916174 MSHR_MERGE:        676
cpu0->LLC RFO          ACCESS:      19571 HIT:       7713 MISS:      11858 MSHR_MERGE:         16
cpu0->LLC PREFETCH     ACCESS:     564287 HIT:     325725 MISS:     238562 MSHR_MERGE:       3812
cpu0->LLC WRITE        ACCESS:      32828 HIT:      19452 MISS:      13376 MSHR_MERGE:          0
cpu0->LLC TRANSLATION  ACCESS:     126598 HIT:      96568 MISS:      30030 MSHR_MERGE:          0
cpu0->LLC PREFETCH REQUESTED:          0 ISSUED:          0 USEFUL:          0 USELESS:          0 LATE:          0
cpu0->LLC AVERAGE MISS LATENCY: 245.1 cycles

DRAM Statistics

Channel 0 RQ ROW_BUFFER_HIT:       4680
  ROW_BUFFER_MISS:    1187209
  AVG DBUS CONGESTED CYCLE: 3.29
Channel 0 WQ ROW_BUFFER_HIT:       2278
  ROW_BUFFER_MISS:      17849
  FULL:          0
Channel 0 REFRESHES ISSUED:       4645

[ROI Statistics]
[System Configuration]
num_cpus 1
cpu_freq 4000
fetch_width 6
decode_width 6
dispatch_width 6
execute_width 6
lq_width 2
sq_width 2
retire_width 6
scheduler_size 128
branch_mispredict_penalty 15
rob_size 352
lq_size 128
sq_size 72
ifetch_buffer_size 64
decode_buffer_size 32
dispatch_buffer_size 32
register_file_size 288
decode_latency 1
dispatch_latency 1
schedule_latency 1
execute_latency 1
page_size 4096
block_size 64
core_0_itlb_set 16
core_0_itlb_way 4
core_0_itlb_rq_size 16
core_0_itlb_wq_size 16
core_0_itlb_pq_size 0
core_0_itlb_mshr_size 8
core_0_itlb_hit_latency 1
core_0_itlb_fill_latency 1
core_0_itlb_max_tag_check 2
core_0_itlb_max_fill 2
core_0_dtlb_set 16
core_0_dtlb_way 4
core_0_dtlb_rq_size 16
core_0_dtlb_wq_size 16
core_0_dtlb_pq_size 0
core_0_dtlb_mshr_size 8
core_0_dtlb_hit_latency 1
core_0_dtlb_fill_latency 1
core_0_dtlb_max_tag_check 2
core_0_dtlb_max_fill 2
core_0_stlb_set 128
core_0_stlb_way 12
core_0_stlb_rq_size 32
core_0_stlb_wq_size 32
core_0_stlb_pq_size 0
core_0_stlb_mshr_size 16
core_0_stlb_hit_latency 4
core_0_stlb_fill_latency 4
core_0_stlb_max_tag_check 1
core_0_stlb_max_fill 1
core_0_l1i_set 64
core_0_l1i_way 8
core_0_l1i_rq_size 64
core_0_l1i_wq_size 64
core_0_l1i_pq_size 32
core_0_l1i_mshr_size 8
core_0_l1i_hit_latency 2
core_0_l1i_fill_latency 2
core_0_l1i_max_tag_check 2
core_0_l1i_max_fill 2
core_0_l1d_set 64
core_0_l1d_way 12
core_0_l1d_rq_size 64
core_0_l1d_wq_size 64
core_0_l1d_pq_size 8
core_0_l1d_mshr_size 16
core_0_l1d_hit_latency 2
core_0_l1d_fill_latency 3
core_0_l1d_max_tag_check 2
core_0_l1d_max_fill 2
core_0_l2c_set 1024
core_0_l2c_way 8
core_0_l2c_rq_size 32
core_0_l2c_wq_size 32
core_0_l2c_pq_size 16
core_0_l2c_mshr_size 32
core_0_l2c_hit_latency 5
core_0_l2c_fill_latency 5
core_0_l2c_max_tag_check 1
core_0_l2c_max_fill 1
llc_set 2048
llc_way 16
llc_rq_size 32
llc_wq_size 32
llc_pq_size 32
llc_mshr_size 64
llc_hit_latency 10
llc_fill_latency 10
llc_max_tag_check 1
llc_max_fill 1
dram_channels 1
dram_ranks 1
dram_bankgroups 8
dram_banks 4
dram_rows 65536
dram_columns 1024
dram_channel_width 8
dram_rq_size 64
dram_wq_size 64
dram_size 17179869184
core_0_itlb_prefetcher no
core_0_dtlb_prefetcher no
core_0_stlb_prefetcher no
core_0_l1i_prefetcher next_line
core_0_l1d_prefetcher vberti_nocross
core_0_l2c_prefetcher ip_stride
llc_prefetcher no
llc_replacement drrip

Core_0_instructions 100000001
Core_0_cycles 55733829
Core_0_IPC 1.79424
Core_0_branch_prediction_accuracy 99.7982
Core_0_branch_MPKI 0.57478
Core_0_average_ROB_occupancy_at_mispredict 171.885

Core_0_ITLB_total_access 5389396
Core_0_ITLB_total_hit 5385528
Core_0_ITLB_total_miss 3868
Core_0_ITLB_total_MPKI 0.03868
Core_0_ITLB_total_miss_rate 0.000717706
Core_0_ITLB_demand_access 5389396
Core_0_ITLB_demand_hit 5385528
Core_0_ITLB_demand_miss 3868
Core_0_ITLB_demand_MPKI 0.03868
Core_0_ITLB_demand_miss_rate 0.000717706
Core_0_ITLB_load_access 5389396
Core_0_ITLB_load_hit 5385528
Core_0_ITLB_load_miss 3868
Core_0_ITLB_load_MPKI 0.03868
Core_0_ITLB_load_miss_rate 0.000717706
Core_0_ITLB_rfo_access 0
Core_0_ITLB_rfo_hit 0
Core_0_ITLB_rfo_miss 0
Core_0_ITLB_rfo_MPKI 0
Core_0_ITLB_rfo_miss_rate 0
Core_0_ITLB_prefetch_access 0
Core_0_ITLB_prefetch_hit 0
Core_0_ITLB_prefetch_miss 0
Core_0_ITLB_prefetch_MPKI 0
Core_0_ITLB_prefetch_miss_rate 0
Core_0_ITLB_writeback_access 0
Core_0_ITLB_writeback_hit 0
Core_0_ITLB_writeback_miss 0
Core_0_ITLB_writeback_MPKI 0
Core_0_ITLB_writeback_miss_rate 0
Core_0_ITLB_prefetch_requested 0
Core_0_ITLB_prefetch_issued 0
Core_0_ITLB_prefetch_useful 0
Core_0_ITLB_prefetch_useless 0
Core_0_ITLB_prefetch_late 0
Core_0_ITLB_prefetch_accuracy 0
Core_0_ITLB_prefetch_coverage 0
Core_0_ITLB_total_eviction 1359

Core_0_DTLB_total_access 17237041
Core_0_DTLB_total_hit 16458256
Core_0_DTLB_total_miss 778785
Core_0_DTLB_total_MPKI 7.78785
Core_0_DTLB_total_miss_rate 0.0451809
Core_0_DTLB_demand_access 17237041
Core_0_DTLB_demand_hit 16458256
Core_0_DTLB_demand_miss 778785
Core_0_DTLB_demand_MPKI 7.78785
Core_0_DTLB_demand_miss_rate 0.0451809
Core_0_DTLB_load_access 17237041
Core_0_DTLB_load_hit 16458256
Core_0_DTLB_load_miss 778785
Core_0_DTLB_load_MPKI 7.78785
Core_0_DTLB_load_miss_rate 0.0451809
Core_0_DTLB_rfo_access 0
Core_0_DTLB_rfo_hit 0
Core_0_DTLB_rfo_miss 0
Core_0_DTLB_rfo_MPKI 0
Core_0_DTLB_rfo_miss_rate 0
Core_0_DTLB_prefetch_access 0
Core_0_DTLB_prefetch_hit 0
Core_0_DTLB_prefetch_miss 0
Core_0_DTLB_prefetch_MPKI 0
Core_0_DTLB_prefetch_miss_rate 0
Core_0_DTLB_writeback_access 0
Core_0_DTLB_writeback_hit 0
Core_0_DTLB_writeback_miss 0
Core_0_DTLB_writeback_MPKI 0
Core_0_DTLB_writeback_miss_rate 0
Core_0_DTLB_prefetch_requested 0
Core_0_DTLB_prefetch_issued 0
Core_0_DTLB_prefetch_useful 0
Core_0_DTLB_prefetch_useless 0
Core_0_DTLB_prefetch_late 0
Core_0_DTLB_prefetch_accuracy 0
Core_0_DTLB_prefetch_coverage 0
Core_0_DTLB_total_eviction 566092

Core_0_STLB_total_access 567450
Core_0_STLB_total_hit 22470
Core_0_STLB_total_miss 544980
Core_0_STLB_total_MPKI 5.4498
Core_0_STLB_total_miss_rate 0.960402
Core_0_STLB_demand_access 567450
Core_0_STLB_demand_hit 22470
Core_0_STLB_demand_miss 544980
Core_0_STLB_demand_MPKI 5.4498
Core_0_STLB_demand_miss_rate 0.960402
Core_0_STLB_load_access 567450
Core_0_STLB_load_hit 22470
Core_0_STLB_load_miss 544980
Core_0_STLB_load_MPKI 5.4498
Core_0_STLB_load_miss_rate 0.960402
Core_0_STLB_rfo_access 0
Core_0_STLB_rfo_hit 0
Core_0_STLB_rfo_miss 0
Core_0_STLB_rfo_MPKI 0
Core_0_STLB_rfo_miss_rate 0
Core_0_STLB_prefetch_access 0
Core_0_STLB_prefetch_hit 0
Core_0_STLB_prefetch_miss 0
Core_0_STLB_prefetch_MPKI 0
Core_0_STLB_prefetch_miss_rate 0
Core_0_STLB_writeback_access 0
Core_0_STLB_writeback_hit 0
Core_0_STLB_writeback_miss 0
Core_0_STLB_writeback_MPKI 0
Core_0_STLB_writeback_miss_rate 0
Core_0_STLB_prefetch_requested 0
Core_0_STLB_prefetch_issued 0
Core_0_STLB_prefetch_useful 0
Core_0_STLB_prefetch_useless 0
Core_0_STLB_prefetch_late 0
Core_0_STLB_prefetch_accuracy 0
Core_0_STLB_prefetch_coverage 0
Core_0_STLB_total_eviction 544981

Core_0_L1I_total_access 7427850
Core_0_L1I_total_hit 7411801
Core_0_L1I_total_miss 16049
Core_0_L1I_total_MPKI 0.16049
Core_0_L1I_total_miss_rate 0.00216065
Core_0_L1I_demand_access 7427850
Core_0_L1I_demand_hit 7411801
Core_0_L1I_demand_miss 16049
Core_0_L1I_demand_MPKI 0.16049
Core_0_L1I_demand_miss_rate 0.00216065
Core_0_L1I_load_access 7427850
Core_0_L1I_load_hit 7411801
Core_0_L1I_load_miss 16049
Core_0_L1I_load_MPKI 0.16049
Core_0_L1I_load_miss_rate 0.00216065
Core_0_L1I_rfo_access 0
Core_0_L1I_rfo_hit 0
Core_0_L1I_rfo_miss 0
Core_0_L1I_rfo_MPKI 0
Core_0_L1I_rfo_miss_rate 0
Core_0_L1I_prefetch_access 0
Core_0_L1I_prefetch_hit 0
Core_0_L1I_prefetch_miss 0
Core_0_L1I_prefetch_MPKI 0
Core_0_L1I_prefetch_miss_rate 0
Core_0_L1I_writeback_access 0
Core_0_L1I_writeback_hit 0
Core_0_L1I_writeback_miss 0
Core_0_L1I_writeback_MPKI 0
Core_0_L1I_writeback_miss_rate 0
Core_0_L1I_prefetch_requested 0
Core_0_L1I_prefetch_issued 0
Core_0_L1I_prefetch_useful 0
Core_0_L1I_prefetch_useless 0
Core_0_L1I_prefetch_late 0
Core_0_L1I_prefetch_accuracy 0
Core_0_L1I_prefetch_coverage 0
Core_0_L1I_total_eviction 10039

Core_0_L1D_total_access 22059692
Core_0_L1D_total_hit 19128778
Core_0_L1D_total_miss 2930914
Core_0_L1D_total_MPKI 29.3091
Core_0_L1D_total_miss_rate 0.132863
Core_0_L1D_demand_access 9679261
Core_0_L1D_demand_hit 7812960
Core_0_L1D_demand_miss 1866301
Core_0_L1D_demand_MPKI 18.663
Core_0_L1D_demand_miss_rate 0.192814
Core_0_L1D_load_access 9679261
Core_0_L1D_load_hit 7812960
Core_0_L1D_load_miss 1866301
Core_0_L1D_load_MPKI 18.663
Core_0_L1D_load_miss_rate 0.192814
Core_0_L1D_rfo_access 0
Core_0_L1D_rfo_hit 0
Core_0_L1D_rfo_miss 0
Core_0_L1D_rfo_MPKI 0
Core_0_L1D_rfo_miss_rate 0
Core_0_L1D_prefetch_access 9568470
Core_0_L1D_prefetch_hit 8545680
Core_0_L1D_prefetch_miss 1022790
Core_0_L1D_prefetch_MPKI 10.2279
Core_0_L1D_prefetch_miss_rate 0.106892
Core_0_L1D_writeback_access 2811961
Core_0_L1D_writeback_hit 2770138
Core_0_L1D_writeback_miss 41823
Core_0_L1D_writeback_MPKI 0.41823
Core_0_L1D_writeback_miss_rate 0.0148733
Core_0_L1D_prefetch_requested 29732007
Core_0_L1D_prefetch_issued 9568462
Core_0_L1D_prefetch_useful 228035
Core_0_L1D_prefetch_useless 6980
Core_0_L1D_prefetch_late 4564
Core_0_L1D_prefetch_accuracy 0.0238319
Core_0_L1D_prefetch_coverage 0.108882
Core_0_L1D_total_eviction 2216722

Core_0_L2C_total_access 3408086
Core_0_L2C_total_hit 964033
Core_0_L2C_total_miss 2444053
Core_0_L2C_total_MPKI 24.4405
Core_0_L2C_total_miss_rate 0.717134
Core_0_L2C_demand_access 1851027
Core_0_L2C_demand_hit 96217
Core_0_L2C_demand_miss 1754810
Core_0_L2C_demand_MPKI 17.5481
Core_0_L2C_demand_miss_rate 0.94802
Core_0_L2C_load_access 1828554
Core_0_L2C_load_hit 93770
Core_0_L2C_load_miss 1734784
Core_0_L2C_load_MPKI 17.3478
Core_0_L2C_load_miss_rate 0.948719
Core_0_L2C_rfo_access 22473
Core_0_L2C_rfo_hit 2447
Core_0_L2C_rfo_miss 20026
Core_0_L2C_rfo_MPKI 0.20026
Core_0_L2C_rfo_miss_rate 0.891114
Core_0_L2C_prefetch_access 1522038
Core_0_L2C_prefetch_hit 832795
Core_0_L2C_prefetch_miss 689243
Core_0_L2C_prefetch_MPKI 6.89243
Core_0_L2C_prefetch_miss_rate 0.452842
Core_0_L2C_writeback_access 35021
Core_0_L2C_writeback_hit 35021
Core_0_L2C_writeback_miss 0
Core_0_L2C_writeback_MPKI 0
Core_0_L2C_writeback_miss_rate 0
Core_0_L2C_prefetch_requested 533103
Core_0_L2C_prefetch_issued 525846
Core_0_L2C_prefetch_useful 167327
Core_0_L2C_prefetch_useless 8674
Core_0_L2C_prefetch_late 9107
Core_0_L2C_prefetch_accuracy 0.318205
Core_0_L2C_prefetch_coverage 0.0870526
Core_0_L2C_total_eviction 2379091

Core_0_LLC_total_access 2314596
Core_0_LLC_total_hit 1134626
Core_0_LLC_total_miss 1179970
Core_0_LLC_total_MPKI 11.7997
Core_0_LLC_total_miss_rate 0.509795
Core_0_LLC_demand_access 1717481
Core_0_LLC_demand_hit 789449
Core_0_LLC_demand_miss 928032
Core_0_LLC_demand_MPKI 9.28032
Core_0_LLC_demand_miss_rate 0.540345
Core_0_LLC_load_access 1697910
Core_0_LLC_load_hit 781736
Core_0_LLC_load_miss 916174
Core_0_LLC_load_MPKI 9.16174
Core_0_LLC_load_miss_rate 0.539589
Core_0_LLC_rfo_access 19571
Core_0_LLC_rfo_hit 7713
Core_0_LLC_rfo_miss 11858
Core_0_LLC_rfo_MPKI 0.11858
Core_0_LLC_rfo_miss_rate 0.605896
Core_0_LLC_prefetch_access 564287
Core_0_LLC_prefetch_hit 325725
Core_0_LLC_prefetch_miss 238562
Core_0_LLC_prefetch_MPKI 2.38562
Core_0_LLC_prefetch_miss_rate 0.422767
Core_0_LLC_writeback_access 32828
Core_0_LLC_writeback_hit 19452
Core_0_LLC_writeback_miss 13376
Core_0_LLC_writeback_MPKI 0.13376
Core_0_LLC_writeback_miss_rate 0.407457
Core_0_LLC_prefetch_requested 0
Core_0_LLC_prefetch_issued 0
Core_0_LLC_prefetch_useful 0
Core_0_LLC_prefetch_useless 0
Core_0_LLC_prefetch_late 0
Core_0_LLC_prefetch_accuracy 0
Core_0_LLC_prefetch_coverage 0
Core_0_LLC_total_eviction 1202817

[DRAM Statistics]
Channel_0_RQ_row_buffer_hit 4680
Channel_0_RQ_row_buffer_miss 1187209
Channel_0_WQ_row_buffer_hit 2278
Channel_0_WQ_row_buffer_miss 17849
Channel_0_WQ_full 0
Channel_0_dbus_congested 1944442
DRAM_total_RQ_row_buffer_hit 4680
DRAM_total_RQ_row_buffer_miss 1187209
DRAM_total_WQ_row_buffer_hit 2278
DRAM_total_WQ_row_buffer_miss 17849
DRAM_total_WQ_full 0
DRAM_total_dbus_congested 1944442
DRAM_avg_congested_cycle 3.28995

======STLB miss causes ========
Core_0_STLB_miss_cause_breakdown
Core_0_STLB_cause_Demand_Data_miss 543750
Core_0_STLB_cause_Demand_Data_miss_rate 0.958234
Core_0_STLB_cause_Demand_Instruction_miss 1230
Core_0_STLB_cause_Demand_Instruction_miss_rate 0.00216759
Core_0_STLB_cause_L1D_Prefetch_miss 0
Core_0_STLB_cause_L1D_Prefetch_miss_rate 0
Core_0_STLB_cause_L1I_Prefetch_miss 0
Core_0_STLB_cause_L1I_Prefetch_miss_rate 0
Core_0_STLB_cause_Other_miss 0
Core_0_STLB_cause_Other_miss_rate 0
Core_0_STLB_Demand_miss 544980
Core_0_STLB_Demand_miss_rate 0.960402
Core_0_STLB_L1D_Prefetch_miss 0
Core_0_STLB_L1D_Prefetch_miss_rate 0
Core_0_STLB_Other_miss 0
Core_0_STLB_Other_miss_rate 0
BERTI TO_L1: 26644395 TO_L2: 9791799 TO_L2_BC_MSHR: 4448353
BERTI AVG_LAT: 99.7905 NUM_TRACK_LATENCY: 2972562 NUM_CANT_TRACK_LATENCY: 0
BERTI CROSS_PAGE 5304228 NO_CROSS_PAGE: 36436194
BERTI FOUND_BERTI: 9000766 NO_FOUND_BERTI: 10491724
BERTI AVERAGE_ISSUED: 2.68604
