[VMEM] WARNING: physical memory size is smaller than virtual memory size.

*** ChampSim Multicore Out-of-Order Simulator ***
Warmup Instructions: 50000000
Simulation Instructions: 100000000
Number of CPUs: 1
Page size: 4096
STLB ideal mode: off
STLB ideal fill: off
Core 0: /data0/tzh/champsim_traces/Ligra/ligra_PageRank.com-lj.ungraph.gcc_6.3.0_O3.drop_79500M.length_250M.champsimtrace.xz
VBerti Prefetcher
No Crossing Page
BERTI HASH ENTANGLING
BERTI IP MASK ffff
Off-chip DRAM Size: 16 GiB Channels: 1 Width: 64-bit Data Rate: 3205 MT/s
Warmup halting CPU 0 at instruction 50000003 cycle 13447537 for remainder of phase
Warmup finished CPU 0 instructions: 50000003 cycles: 13447537 cumulative IPC: 3.718 (Simulation time: 00 hr 03 min 30 sec)
Warmup complete CPU 0 instructions: 50000003 cycles: 13447537 cumulative IPC: 3.718 (Simulation time: 00 hr 03 min 30 sec)
Simulation finished CPU 0 instructions: 100000002 cycles: 196906029 cumulative IPC: 0.5079 (Simulation time: 00 hr 26 min 16 sec)
Simulation complete CPU 0 instructions: 100000002 cycles: 196906029 cumulative IPC: 0.5079 (Simulation time: 00 hr 26 min 16 sec)

ChampSim completed all CPUs

=== Simulation ===
CPU 0 runs /data0/tzh/champsim_traces/Ligra/ligra_PageRank.com-lj.ungraph.gcc_6.3.0_O3.drop_79500M.length_250M.champsimtrace.xz

Region of Interest Statistics

CPU 0 cumulative IPC: 0.5079 instructions: 100000002 cycles: 196906029
CPU 0 Branch Prediction Accuracy: 92.68% MPKI: 8.681 Average ROB Occupancy at Mispredict: 142
Branch type MPKI
BRANCH_DIRECT_JUMP: 0
BRANCH_INDIRECT: 0
BRANCH_CONDITIONAL: 8.681
BRANCH_DIRECT_CALL: 0
BRANCH_INDIRECT_CALL: 0
BRANCH_RETURN: 0

cpu0->cpu0_STLB TOTAL        ACCESS:    5752575 HIT:    2462012 MISS:    3290563 MSHR_MERGE:          0
cpu0->cpu0_STLB LOAD         ACCESS:    5752575 HIT:    2462012 MISS:    3290563 MSHR_MERGE:          0
cpu0->cpu0_STLB RFO          ACCESS:          0 HIT:          0 MISS:          0 MSHR_MERGE:          0
cpu0->cpu0_STLB PREFETCH     ACCESS:          0 HIT:          0 MISS:          0 MSHR_MERGE:          0
cpu0->cpu0_STLB WRITE        ACCESS:          0 HIT:          0 MISS:          0 MSHR_MERGE:          0
cpu0->cpu0_STLB TRANSLATION  ACCESS:          0 HIT:          0 MISS:          0 MSHR_MERGE:          0
cpu0->cpu0_STLB PREFETCH REQUESTED:          0 ISSUED:          0 USEFUL:          0 USELESS:          0 LATE:          0
cpu0->cpu0_STLB AVERAGE MISS LATENCY: 38.15 cycles
cpu0->cpu0_L2C TOTAL        ACCESS:   10578393 HIT:    3178971 MISS:    7399422 MSHR_MERGE:     370653
cpu0->cpu0_L2C LOAD         ACCESS:    5755376 HIT:     349151 MISS:    5406225 MSHR_MERGE:       5075
cpu0->cpu0_L2C RFO          ACCESS:         38 HIT:         38 MISS:          0 MSHR_MERGE:          0
cpu0->cpu0_L2C PREFETCH     ACCESS:    2002124 HIT:     781395 MISS:    1220729 MSHR_MERGE:     365578
cpu0->cpu0_L2C WRITE        ACCESS:     109014 HIT:     109014 MISS:          0 MSHR_MERGE:          0
cpu0->cpu0_L2C TRANSLATION  ACCESS:    2711841 HIT:    1939373 MISS:     772468 MSHR_MERGE:          0
cpu0->cpu0_L2C PREFETCH REQUESTED:     756135 ISSUED:     756055 USEFUL:     234094 USELESS:     100801 LATE:       4327
cpu0->cpu0_L2C AVERAGE MISS LATENCY: 202 cycles
cpu0->cpu0_L1I TOTAL        ACCESS:    1211392 HIT:    1211392 MISS:          0 MSHR_MERGE:          0
cpu0->cpu0_L1I LOAD         ACCESS:    1211392 HIT:    1211392 MISS:          0 MSHR_MERGE:          0
cpu0->cpu0_L1I RFO          ACCESS:          0 HIT:          0 MISS:          0 MSHR_MERGE:          0
cpu0->cpu0_L1I PREFETCH     ACCESS:          0 HIT:          0 MISS:          0 MSHR_MERGE:          0
cpu0->cpu0_L1I WRITE        ACCESS:          0 HIT:          0 MISS:          0 MSHR_MERGE:          0
cpu0->cpu0_L1I TRANSLATION  ACCESS:          0 HIT:          0 MISS:          0 MSHR_MERGE:          0
cpu0->cpu0_L1I PREFETCH REQUESTED:          0 ISSUED:          0 USEFUL:          0 USELESS:          0 LATE:          0
cpu0->cpu0_L1I AVERAGE MISS LATENCY: - cycles
cpu0->cpu0_L1D TOTAL        ACCESS:   49242823 HIT:   39144051 MISS:   10098772 MSHR_MERGE:     381862
cpu0->cpu0_L1D LOAD         ACCESS:   23194102 HIT:   17077482 MISS:    6116620 MSHR_MERGE:     361245
cpu0->cpu0_L1D RFO          ACCESS:          0 HIT:          0 MISS:          0 MSHR_MERGE:          0
cpu0->cpu0_L1D PREFETCH     ACCESS:   14477511 HIT:   13225980 MISS:    1251531 MSHR_MERGE:       1874
cpu0->cpu0_L1D WRITE        ACCESS:    4579244 HIT:    4579177 MISS:         67 MSHR_MERGE:         29
cpu0->cpu0_L1D TRANSLATION  ACCESS:    6991966 HIT:    4261412 MISS:    2730554 MSHR_MERGE:      18714
cpu0->cpu0_L1D PREFETCH REQUESTED:   49169713 ISSUED:   14477503 USEFUL:     713397 USELESS:       5681 LATE:       1658
cpu0->cpu0_L1D AVERAGE MISS LATENCY: 156.2 cycles
cpu0->cpu0_ITLB TOTAL        ACCESS:    1187902 HIT:    1187902 MISS:          0 MSHR_MERGE:          0
cpu0->cpu0_ITLB LOAD         ACCESS:    1187902 HIT:    1187902 MISS:          0 MSHR_MERGE:          0
cpu0->cpu0_ITLB RFO          ACCESS:          0 HIT:          0 MISS:          0 MSHR_MERGE:          0
cpu0->cpu0_ITLB PREFETCH     ACCESS:          0 HIT:          0 MISS:          0 MSHR_MERGE:          0
cpu0->cpu0_ITLB WRITE        ACCESS:          0 HIT:          0 MISS:          0 MSHR_MERGE:          0
cpu0->cpu0_ITLB TRANSLATION  ACCESS:          0 HIT:          0 MISS:          0 MSHR_MERGE:          0
cpu0->cpu0_ITLB PREFETCH REQUESTED:          0 ISSUED:          0 USEFUL:          0 USELESS:          0 LATE:          0
cpu0->cpu0_ITLB AVERAGE MISS LATENCY: - cycles
cpu0->cpu0_DTLB TOTAL        ACCESS:   38521859 HIT:   32420078 MISS:    6101781 MSHR_MERGE:     349206
cpu0->cpu0_DTLB LOAD         ACCESS:   38521859 HIT:   32420078 MISS:    6101781 MSHR_MERGE:     349206
cpu0->cpu0_DTLB RFO          ACCESS:          0 HIT:          0 MISS:          0 MSHR_MERGE:          0
cpu0->cpu0_DTLB PREFETCH     ACCESS:          0 HIT:          0 MISS:          0 MSHR_MERGE:          0
cpu0->cpu0_DTLB WRITE        ACCESS:          0 HIT:          0 MISS:          0 MSHR_MERGE:          0
cpu0->cpu0_DTLB TRANSLATION  ACCESS:          0 HIT:          0 MISS:          0 MSHR_MERGE:          0
cpu0->cpu0_DTLB PREFETCH REQUESTED:          0 ISSUED:          0 USEFUL:          0 USELESS:          0 LATE:          0
cpu0->cpu0_DTLB AVERAGE MISS LATENCY: 27.41 cycles
cpu0->LLC TOTAL        ACCESS:    7137723 HIT:    1613463 MISS:    5524260 MSHR_MERGE:      35814
cpu0->LLC LOAD         ACCESS:    5401150 HIT:     818066 MISS:    4583084 MSHR_MERGE:       1297
cpu0->LLC RFO          ACCESS:          0 HIT:          0 MISS:          0 MSHR_MERGE:          0
cpu0->LLC PREFETCH     ACCESS:     855151 HIT:      30767 MISS:     824384 MSHR_MERGE:      34517
cpu0->LLC WRITE        ACCESS:     108954 HIT:      19506 MISS:      89448 MSHR_MERGE:          0
cpu0->LLC TRANSLATION  ACCESS:     772468 HIT:     745124 MISS:      27344 MSHR_MERGE:          0
cpu0->LLC PREFETCH REQUESTED:          0 ISSUED:          0 USEFUL:          0 USELESS:          0 LATE:          0
cpu0->LLC AVERAGE MISS LATENCY: 244.8 cycles

DRAM Statistics

Channel 0 RQ ROW_BUFFER_HIT:      15099
  ROW_BUFFER_MISS:    5383891
  AVG DBUS CONGESTED CYCLE: 4.002
Channel 0 WQ ROW_BUFFER_HIT:      31758
  ROW_BUFFER_MISS:      75553
  FULL:          0
Channel 0 REFRESHES ISSUED:      16409

[ROI Statistics]
[System Configuration]
num_cpus 1
cpu_freq 4000
fetch_width 6
decode_width 6
dispatch_width 6
execute_width 6
lq_width 2
sq_width 2
retire_width 6
scheduler_size 128
branch_mispredict_penalty 15
rob_size 352
lq_size 128
sq_size 72
ifetch_buffer_size 64
decode_buffer_size 32
dispatch_buffer_size 32
register_file_size 288
decode_latency 1
dispatch_latency 1
schedule_latency 1
execute_latency 1
page_size 4096
block_size 64
core_0_itlb_set 16
core_0_itlb_way 4
core_0_itlb_rq_size 16
core_0_itlb_wq_size 16
core_0_itlb_pq_size 0
core_0_itlb_mshr_size 8
core_0_itlb_hit_latency 1
core_0_itlb_fill_latency 1
core_0_itlb_max_tag_check 2
core_0_itlb_max_fill 2
core_0_dtlb_set 16
core_0_dtlb_way 4
core_0_dtlb_rq_size 16
core_0_dtlb_wq_size 16
core_0_dtlb_pq_size 0
core_0_dtlb_mshr_size 8
core_0_dtlb_hit_latency 1
core_0_dtlb_fill_latency 1
core_0_dtlb_max_tag_check 2
core_0_dtlb_max_fill 2
core_0_stlb_set 128
core_0_stlb_way 12
core_0_stlb_rq_size 32
core_0_stlb_wq_size 32
core_0_stlb_pq_size 0
core_0_stlb_mshr_size 16
core_0_stlb_hit_latency 4
core_0_stlb_fill_latency 4
core_0_stlb_max_tag_check 1
core_0_stlb_max_fill 1
core_0_l1i_set 64
core_0_l1i_way 8
core_0_l1i_rq_size 64
core_0_l1i_wq_size 64
core_0_l1i_pq_size 32
core_0_l1i_mshr_size 8
core_0_l1i_hit_latency 2
core_0_l1i_fill_latency 2
core_0_l1i_max_tag_check 2
core_0_l1i_max_fill 2
core_0_l1d_set 64
core_0_l1d_way 12
core_0_l1d_rq_size 64
core_0_l1d_wq_size 64
core_0_l1d_pq_size 8
core_0_l1d_mshr_size 16
core_0_l1d_hit_latency 2
core_0_l1d_fill_latency 3
core_0_l1d_max_tag_check 2
core_0_l1d_max_fill 2
core_0_l2c_set 1024
core_0_l2c_way 8
core_0_l2c_rq_size 32
core_0_l2c_wq_size 32
core_0_l2c_pq_size 16
core_0_l2c_mshr_size 32
core_0_l2c_hit_latency 5
core_0_l2c_fill_latency 5
core_0_l2c_max_tag_check 1
core_0_l2c_max_fill 1
llc_set 2048
llc_way 16
llc_rq_size 32
llc_wq_size 32
llc_pq_size 32
llc_mshr_size 64
llc_hit_latency 10
llc_fill_latency 10
llc_max_tag_check 1
llc_max_fill 1
dram_channels 1
dram_ranks 1
dram_bankgroups 8
dram_banks 4
dram_rows 65536
dram_columns 1024
dram_channel_width 8
dram_rq_size 64
dram_wq_size 64
dram_size 17179869184
core_0_itlb_prefetcher no
core_0_dtlb_prefetcher no
core_0_stlb_prefetcher no
core_0_l1i_prefetcher next_line
core_0_l1d_prefetcher vberti_nocross
core_0_l2c_prefetcher ip_stride
llc_prefetcher no
llc_replacement drrip

Core_0_instructions 100000002
Core_0_cycles 196906029
Core_0_IPC 0.507856
Core_0_branch_prediction_accuracy 92.6785
Core_0_branch_MPKI 8.6813
Core_0_average_ROB_occupancy_at_mispredict 141.956

Core_0_ITLB_total_access 1187902
Core_0_ITLB_total_hit 1187902
Core_0_ITLB_total_miss 0
Core_0_ITLB_total_MPKI 0
Core_0_ITLB_total_miss_rate 0
Core_0_ITLB_demand_access 1187902
Core_0_ITLB_demand_hit 1187902
Core_0_ITLB_demand_miss 0
Core_0_ITLB_demand_MPKI 0
Core_0_ITLB_demand_miss_rate 0
Core_0_ITLB_load_access 1187902
Core_0_ITLB_load_hit 1187902
Core_0_ITLB_load_miss 0
Core_0_ITLB_load_MPKI 0
Core_0_ITLB_load_miss_rate 0
Core_0_ITLB_rfo_access 0
Core_0_ITLB_rfo_hit 0
Core_0_ITLB_rfo_miss 0
Core_0_ITLB_rfo_MPKI 0
Core_0_ITLB_rfo_miss_rate 0
Core_0_ITLB_prefetch_access 0
Core_0_ITLB_prefetch_hit 0
Core_0_ITLB_prefetch_miss 0
Core_0_ITLB_prefetch_MPKI 0
Core_0_ITLB_prefetch_miss_rate 0
Core_0_ITLB_writeback_access 0
Core_0_ITLB_writeback_hit 0
Core_0_ITLB_writeback_miss 0
Core_0_ITLB_writeback_MPKI 0
Core_0_ITLB_writeback_miss_rate 0
Core_0_ITLB_prefetch_requested 0
Core_0_ITLB_prefetch_issued 0
Core_0_ITLB_prefetch_useful 0
Core_0_ITLB_prefetch_useless 0
Core_0_ITLB_prefetch_late 0
Core_0_ITLB_prefetch_accuracy 0
Core_0_ITLB_prefetch_coverage 0
Core_0_ITLB_total_eviction 0

Core_0_DTLB_total_access 38521859
Core_0_DTLB_total_hit 32420078
Core_0_DTLB_total_miss 6101781
Core_0_DTLB_total_MPKI 61.0178
Core_0_DTLB_total_miss_rate 0.158398
Core_0_DTLB_demand_access 38521859
Core_0_DTLB_demand_hit 32420078
Core_0_DTLB_demand_miss 6101781
Core_0_DTLB_demand_MPKI 61.0178
Core_0_DTLB_demand_miss_rate 0.158398
Core_0_DTLB_load_access 38521859
Core_0_DTLB_load_hit 32420078
Core_0_DTLB_load_miss 6101781
Core_0_DTLB_load_MPKI 61.0178
Core_0_DTLB_load_miss_rate 0.158398
Core_0_DTLB_rfo_access 0
Core_0_DTLB_rfo_hit 0
Core_0_DTLB_rfo_miss 0
Core_0_DTLB_rfo_MPKI 0
Core_0_DTLB_rfo_miss_rate 0
Core_0_DTLB_prefetch_access 0
Core_0_DTLB_prefetch_hit 0
Core_0_DTLB_prefetch_miss 0
Core_0_DTLB_prefetch_MPKI 0
Core_0_DTLB_prefetch_miss_rate 0
Core_0_DTLB_writeback_access 0
Core_0_DTLB_writeback_hit 0
Core_0_DTLB_writeback_miss 0
Core_0_DTLB_writeback_MPKI 0
Core_0_DTLB_writeback_miss_rate 0
Core_0_DTLB_prefetch_requested 0
Core_0_DTLB_prefetch_issued 0
Core_0_DTLB_prefetch_useful 0
Core_0_DTLB_prefetch_useless 0
Core_0_DTLB_prefetch_late 0
Core_0_DTLB_prefetch_accuracy 0
Core_0_DTLB_prefetch_coverage 0
Core_0_DTLB_total_eviction 5752583

Core_0_STLB_total_access 5752575
Core_0_STLB_total_hit 2462012
Core_0_STLB_total_miss 3290563
Core_0_STLB_total_MPKI 32.9056
Core_0_STLB_total_miss_rate 0.572016
Core_0_STLB_demand_access 5752575
Core_0_STLB_demand_hit 2462012
Core_0_STLB_demand_miss 3290563
Core_0_STLB_demand_MPKI 32.9056
Core_0_STLB_demand_miss_rate 0.572016
Core_0_STLB_load_access 5752575
Core_0_STLB_load_hit 2462012
Core_0_STLB_load_miss 3290563
Core_0_STLB_load_MPKI 32.9056
Core_0_STLB_load_miss_rate 0.572016
Core_0_STLB_rfo_access 0
Core_0_STLB_rfo_hit 0
Core_0_STLB_rfo_miss 0
Core_0_STLB_rfo_MPKI 0
Core_0_STLB_rfo_miss_rate 0
Core_0_STLB_prefetch_access 0
Core_0_STLB_prefetch_hit 0
Core_0_STLB_prefetch_miss 0
Core_0_STLB_prefetch_MPKI 0
Core_0_STLB_prefetch_miss_rate 0
Core_0_STLB_writeback_access 0
Core_0_STLB_writeback_hit 0
Core_0_STLB_writeback_miss 0
Core_0_STLB_writeback_MPKI 0
Core_0_STLB_writeback_miss_rate 0
Core_0_STLB_prefetch_requested 0
Core_0_STLB_prefetch_issued 0
Core_0_STLB_prefetch_useful 0
Core_0_STLB_prefetch_useless 0
Core_0_STLB_prefetch_late 0
Core_0_STLB_prefetch_accuracy 0
Core_0_STLB_prefetch_coverage 0
Core_0_STLB_total_eviction 3290571

Core_0_L1I_total_access 1211392
Core_0_L1I_total_hit 1211392
Core_0_L1I_total_miss 0
Core_0_L1I_total_MPKI 0
Core_0_L1I_total_miss_rate 0
Core_0_L1I_demand_access 1211392
Core_0_L1I_demand_hit 1211392
Core_0_L1I_demand_miss 0
Core_0_L1I_demand_MPKI 0
Core_0_L1I_demand_miss_rate 0
Core_0_L1I_load_access 1211392
Core_0_L1I_load_hit 1211392
Core_0_L1I_load_miss 0
Core_0_L1I_load_MPKI 0
Core_0_L1I_load_miss_rate 0
Core_0_L1I_rfo_access 0
Core_0_L1I_rfo_hit 0
Core_0_L1I_rfo_miss 0
Core_0_L1I_rfo_MPKI 0
Core_0_L1I_rfo_miss_rate 0
Core_0_L1I_prefetch_access 0
Core_0_L1I_prefetch_hit 0
Core_0_L1I_prefetch_miss 0
Core_0_L1I_prefetch_MPKI 0
Core_0_L1I_prefetch_miss_rate 0
Core_0_L1I_writeback_access 0
Core_0_L1I_writeback_hit 0
Core_0_L1I_writeback_miss 0
Core_0_L1I_writeback_MPKI 0
Core_0_L1I_writeback_miss_rate 0
Core_0_L1I_prefetch_requested 0
Core_0_L1I_prefetch_issued 0
Core_0_L1I_prefetch_useful 0
Core_0_L1I_prefetch_useless 0
Core_0_L1I_prefetch_late 0
Core_0_L1I_prefetch_accuracy 0
Core_0_L1I_prefetch_coverage 0
Core_0_L1I_total_eviction 0

Core_0_L1D_total_access 42250857
Core_0_L1D_total_hit 34882639
Core_0_L1D_total_miss 7368218
Core_0_L1D_total_MPKI 73.6822
Core_0_L1D_total_miss_rate 0.174392
Core_0_L1D_demand_access 23194102
Core_0_L1D_demand_hit 17077482
Core_0_L1D_demand_miss 6116620
Core_0_L1D_demand_MPKI 61.1662
Core_0_L1D_demand_miss_rate 0.263714
Core_0_L1D_load_access 23194102
Core_0_L1D_load_hit 17077482
Core_0_L1D_load_miss 6116620
Core_0_L1D_load_MPKI 61.1662
Core_0_L1D_load_miss_rate 0.263714
Core_0_L1D_rfo_access 0
Core_0_L1D_rfo_hit 0
Core_0_L1D_rfo_miss 0
Core_0_L1D_rfo_MPKI 0
Core_0_L1D_rfo_miss_rate 0
Core_0_L1D_prefetch_access 14477511
Core_0_L1D_prefetch_hit 13225980
Core_0_L1D_prefetch_miss 1251531
Core_0_L1D_prefetch_MPKI 12.5153
Core_0_L1D_prefetch_miss_rate 0.0864466
Core_0_L1D_writeback_access 4579244
Core_0_L1D_writeback_hit 4579177
Core_0_L1D_writeback_miss 67
Core_0_L1D_writeback_MPKI 0.00067
Core_0_L1D_writeback_miss_rate 1.46312e-05
Core_0_L1D_prefetch_requested 49169713
Core_0_L1D_prefetch_issued 14477503
Core_0_L1D_prefetch_useful 713397
Core_0_L1D_prefetch_useless 5681
Core_0_L1D_prefetch_late 1658
Core_0_L1D_prefetch_accuracy 0.0492762
Core_0_L1D_prefetch_coverage 0.10445
Core_0_L1D_total_eviction 9186343

Core_0_L2C_total_access 7866552
Core_0_L2C_total_hit 1239598
Core_0_L2C_total_miss 6626954
Core_0_L2C_total_MPKI 66.2695
Core_0_L2C_total_miss_rate 0.842422
Core_0_L2C_demand_access 5755414
Core_0_L2C_demand_hit 349189
Core_0_L2C_demand_miss 5406225
Core_0_L2C_demand_MPKI 54.0622
Core_0_L2C_demand_miss_rate 0.939329
Core_0_L2C_load_access 5755376
Core_0_L2C_load_hit 349151
Core_0_L2C_load_miss 5406225
Core_0_L2C_load_MPKI 54.0622
Core_0_L2C_load_miss_rate 0.939335
Core_0_L2C_rfo_access 38
Core_0_L2C_rfo_hit 38
Core_0_L2C_rfo_miss 0
Core_0_L2C_rfo_MPKI 0
Core_0_L2C_rfo_miss_rate 0
Core_0_L2C_prefetch_access 2002124
Core_0_L2C_prefetch_hit 781395
Core_0_L2C_prefetch_miss 1220729
Core_0_L2C_prefetch_MPKI 12.2073
Core_0_L2C_prefetch_miss_rate 0.609717
Core_0_L2C_writeback_access 109014
Core_0_L2C_writeback_hit 109014
Core_0_L2C_writeback_miss 0
Core_0_L2C_writeback_MPKI 0
Core_0_L2C_writeback_miss_rate 0
Core_0_L2C_prefetch_requested 756135
Core_0_L2C_prefetch_issued 756055
Core_0_L2C_prefetch_useful 234094
Core_0_L2C_prefetch_useless 100801
Core_0_L2C_prefetch_late 4327
Core_0_L2C_prefetch_accuracy 0.309626
Core_0_L2C_prefetch_coverage 0.0415037
Core_0_L2C_total_eviction 6955158

Core_0_LLC_total_access 6365255
Core_0_LLC_total_hit 868339
Core_0_LLC_total_miss 5496916
Core_0_LLC_total_MPKI 54.9692
Core_0_LLC_total_miss_rate 0.863581
Core_0_LLC_demand_access 5401150
Core_0_LLC_demand_hit 818066
Core_0_LLC_demand_miss 4583084
Core_0_LLC_demand_MPKI 45.8308
Core_0_LLC_demand_miss_rate 0.848539
Core_0_LLC_load_access 5401150
Core_0_LLC_load_hit 818066
Core_0_LLC_load_miss 4583084
Core_0_LLC_load_MPKI 45.8308
Core_0_LLC_load_miss_rate 0.848539
Core_0_LLC_rfo_access 0
Core_0_LLC_rfo_hit 0
Core_0_LLC_rfo_miss 0
Core_0_LLC_rfo_MPKI 0
Core_0_LLC_rfo_miss_rate 0
Core_0_LLC_prefetch_access 855151
Core_0_LLC_prefetch_hit 30767
Core_0_LLC_prefetch_miss 824384
Core_0_LLC_prefetch_MPKI 8.24384
Core_0_LLC_prefetch_miss_rate 0.964022
Core_0_LLC_writeback_access 108954
Core_0_LLC_writeback_hit 19506
Core_0_LLC_writeback_miss 89448
Core_0_LLC_writeback_MPKI 0.89448
Core_0_LLC_writeback_miss_rate 0.82097
Core_0_LLC_prefetch_requested 0
Core_0_LLC_prefetch_issued 0
Core_0_LLC_prefetch_useful 0
Core_0_LLC_prefetch_useless 0
Core_0_LLC_prefetch_late 0
Core_0_LLC_prefetch_accuracy 0
Core_0_LLC_prefetch_coverage 0
Core_0_LLC_total_eviction 5488438

[DRAM Statistics]
Channel_0_RQ_row_buffer_hit 15099
Channel_0_RQ_row_buffer_miss 5383891
Channel_0_WQ_row_buffer_hit 31758
Channel_0_WQ_row_buffer_miss 75553
Channel_0_WQ_full 0
Channel_0_dbus_congested 9194728
DRAM_total_RQ_row_buffer_hit 15099
DRAM_total_RQ_row_buffer_miss 5383891
DRAM_total_WQ_row_buffer_hit 31758
DRAM_total_WQ_row_buffer_miss 75553
DRAM_total_WQ_full 0
DRAM_total_dbus_congested 9194728
DRAM_avg_congested_cycle 4.00175

======STLB miss causes ========
Core_0_STLB_miss_cause_breakdown
Core_0_STLB_cause_Demand_Data_miss 3290542
Core_0_STLB_cause_Demand_Data_miss_rate 0.572012
Core_0_STLB_cause_Demand_Instruction_miss 0
Core_0_STLB_cause_Demand_Instruction_miss_rate 0
Core_0_STLB_cause_L1D_Prefetch_miss 21
Core_0_STLB_cause_L1D_Prefetch_miss_rate 3.65054e-06
Core_0_STLB_cause_L1I_Prefetch_miss 0
Core_0_STLB_cause_L1I_Prefetch_miss_rate 0
Core_0_STLB_cause_Other_miss 0
Core_0_STLB_cause_Other_miss_rate 0
Core_0_STLB_Demand_miss 3290542
Core_0_STLB_Demand_miss_rate 0.572012
Core_0_STLB_L1D_Prefetch_miss 21
Core_0_STLB_L1D_Prefetch_miss_rate 3.65054e-06
Core_0_STLB_Other_miss 0
Core_0_STLB_Other_miss_rate 0
BERTI TO_L1: 48472159 TO_L2: 8269437 TO_L2_BC_MSHR: 2941131
BERTI AVG_LAT: 147.102 NUM_TRACK_LATENCY: 10061224 NUM_CANT_TRACK_LATENCY: 0
BERTI CROSS_PAGE 9044575 NO_CROSS_PAGE: 56741596
BERTI FOUND_BERTI: 46697543 NO_FOUND_BERTI: 13114316
BERTI AVERAGE_ISSUED: 3.30108
