[VMEM] WARNING: physical memory size is smaller than virtual memory size.

*** ChampSim Multicore Out-of-Order Simulator ***
Warmup Instructions: 50000000
Simulation Instructions: 100000000
Number of CPUs: 1
Page size: 4096
STLB ideal mode: off
STLB ideal fill: off
Core 0: /data0/tzh/champsim_traces/Ligra/ligra_Radii.com-lj.ungraph.gcc_6.3.0_O3.drop_32000M.length_250M.champsimtrace.xz
VBerti Prefetcher
No Crossing Page
BERTI HASH ENTANGLING
BERTI IP MASK ffff
Off-chip DRAM Size: 16 GiB Channels: 1 Width: 64-bit Data Rate: 3205 MT/s
Warmup halting CPU 0 at instruction 50000000 cycle 11648856 for remainder of phase
Warmup finished CPU 0 instructions: 50000000 cycles: 11648856 cumulative IPC: 4.292 (Simulation time: 00 hr 03 min 16 sec)
Warmup complete CPU 0 instructions: 50000000 cycles: 11648856 cumulative IPC: 4.292 (Simulation time: 00 hr 03 min 16 sec)
Simulation finished CPU 0 instructions: 100000001 cycles: 367076945 cumulative IPC: 0.2724 (Simulation time: 00 hr 32 min 57 sec)
Simulation complete CPU 0 instructions: 100000001 cycles: 367076945 cumulative IPC: 0.2724 (Simulation time: 00 hr 32 min 57 sec)

ChampSim completed all CPUs

=== Simulation ===
CPU 0 runs /data0/tzh/champsim_traces/Ligra/ligra_Radii.com-lj.ungraph.gcc_6.3.0_O3.drop_32000M.length_250M.champsimtrace.xz

Region of Interest Statistics

CPU 0 cumulative IPC: 0.2724 instructions: 100000001 cycles: 367076945
CPU 0 Branch Prediction Accuracy: 86.61% MPKI: 34.36 Average ROB Occupancy at Mispredict: 12.51
Branch type MPKI
BRANCH_DIRECT_JUMP: 0
BRANCH_INDIRECT: 0
BRANCH_CONDITIONAL: 34.36
BRANCH_DIRECT_CALL: 0
BRANCH_INDIRECT_CALL: 0
BRANCH_RETURN: 0

cpu0->cpu0_STLB TOTAL        ACCESS:    4697752 HIT:    4553846 MISS:     143906 MSHR_MERGE:          0
cpu0->cpu0_STLB LOAD         ACCESS:    4697752 HIT:    4553846 MISS:     143906 MSHR_MERGE:          0
cpu0->cpu0_STLB RFO          ACCESS:          0 HIT:          0 MISS:          0 MSHR_MERGE:          0
cpu0->cpu0_STLB PREFETCH     ACCESS:          0 HIT:          0 MISS:          0 MSHR_MERGE:          0
cpu0->cpu0_STLB WRITE        ACCESS:          0 HIT:          0 MISS:          0 MSHR_MERGE:          0
cpu0->cpu0_STLB TRANSLATION  ACCESS:          0 HIT:          0 MISS:          0 MSHR_MERGE:          0
cpu0->cpu0_STLB PREFETCH REQUESTED:          0 ISSUED:          0 USEFUL:          0 USELESS:          0 LATE:          0
cpu0->cpu0_STLB AVERAGE MISS LATENCY: 54.43 cycles
cpu0->cpu0_L2C TOTAL        ACCESS:   14670344 HIT:    9894663 MISS:    4775681 MSHR_MERGE:     484066
cpu0->cpu0_L2C LOAD         ACCESS:    5305612 HIT:    2183353 MISS:    3122259 MSHR_MERGE:        762
cpu0->cpu0_L2C RFO          ACCESS:      11120 HIT:      10866 MISS:        254 MSHR_MERGE:          0
cpu0->cpu0_L2C PREFETCH     ACCESS:    9074788 HIT:    7457239 MISS:    1617549 MSHR_MERGE:     483304
cpu0->cpu0_L2C WRITE        ACCESS:     153858 HIT:     153733 MISS:        125 MSHR_MERGE:          0
cpu0->cpu0_L2C TRANSLATION  ACCESS:     124966 HIT:      89472 MISS:      35494 MSHR_MERGE:          0
cpu0->cpu0_L2C PREFETCH REQUESTED:    1797491 ISSUED:    1797338 USEFUL:     240028 USELESS:      63724 LATE:        536
cpu0->cpu0_L2C AVERAGE MISS LATENCY: 76.94 cycles
cpu0->cpu0_L1I TOTAL        ACCESS:     329821 HIT:     329821 MISS:          0 MSHR_MERGE:          0
cpu0->cpu0_L1I LOAD         ACCESS:     329821 HIT:     329821 MISS:          0 MSHR_MERGE:          0
cpu0->cpu0_L1I RFO          ACCESS:          0 HIT:          0 MISS:          0 MSHR_MERGE:          0
cpu0->cpu0_L1I PREFETCH     ACCESS:          0 HIT:          0 MISS:          0 MSHR_MERGE:          0
cpu0->cpu0_L1I WRITE        ACCESS:          0 HIT:          0 MISS:          0 MSHR_MERGE:          0
cpu0->cpu0_L1I TRANSLATION  ACCESS:          0 HIT:          0 MISS:          0 MSHR_MERGE:          0
cpu0->cpu0_L1I PREFETCH REQUESTED:          0 ISSUED:          0 USEFUL:          0 USELESS:          0 LATE:          0
cpu0->cpu0_L1I AVERAGE MISS LATENCY: - cycles
cpu0->cpu0_L1D TOTAL        ACCESS:   76461943 HIT:   63554455 MISS:   12907488 MSHR_MERGE:     176475
cpu0->cpu0_L1D LOAD         ACCESS:   30739796 HIT:   25260671 MISS:    5479125 MSHR_MERGE:     173514
cpu0->cpu0_L1D RFO          ACCESS:          0 HIT:          0 MISS:          0 MSHR_MERGE:          0
cpu0->cpu0_L1D PREFETCH     ACCESS:   41495819 HIT:   34204507 MISS:    7291312 MSHR_MERGE:       2013
cpu0->cpu0_L1D WRITE        ACCESS:    3938845 HIT:    3927012 MISS:      11833 MSHR_MERGE:        696
cpu0->cpu0_L1D TRANSLATION  ACCESS:     287483 HIT:     162265 MISS:     125218 MSHR_MERGE:        252
cpu0->cpu0_L1D PREFETCH REQUESTED:  110823487 ISSUED:   41495812 USEFUL:    1080296 USELESS:      37232 LATE:       6873
cpu0->cpu0_L1D AVERAGE MISS LATENCY: 53.32 cycles
cpu0->cpu0_ITLB TOTAL        ACCESS:     248340 HIT:     248340 MISS:          0 MSHR_MERGE:          0
cpu0->cpu0_ITLB LOAD         ACCESS:     248340 HIT:     248340 MISS:          0 MSHR_MERGE:          0
cpu0->cpu0_ITLB RFO          ACCESS:          0 HIT:          0 MISS:          0 MSHR_MERGE:          0
cpu0->cpu0_ITLB PREFETCH     ACCESS:          0 HIT:          0 MISS:          0 MSHR_MERGE:          0
cpu0->cpu0_ITLB WRITE        ACCESS:          0 HIT:          0 MISS:          0 MSHR_MERGE:          0
cpu0->cpu0_ITLB TRANSLATION  ACCESS:          0 HIT:          0 MISS:          0 MSHR_MERGE:          0
cpu0->cpu0_ITLB PREFETCH REQUESTED:          0 ISSUED:          0 USEFUL:          0 USELESS:          0 LATE:          0
cpu0->cpu0_ITLB AVERAGE MISS LATENCY: - cycles
cpu0->cpu0_DTLB TOTAL        ACCESS:   63156655 HIT:   58039114 MISS:    5117541 MSHR_MERGE:     419790
cpu0->cpu0_DTLB LOAD         ACCESS:   63156655 HIT:   58039114 MISS:    5117541 MSHR_MERGE:     419790
cpu0->cpu0_DTLB RFO          ACCESS:          0 HIT:          0 MISS:          0 MSHR_MERGE:          0
cpu0->cpu0_DTLB PREFETCH     ACCESS:          0 HIT:          0 MISS:          0 MSHR_MERGE:          0
cpu0->cpu0_DTLB WRITE        ACCESS:          0 HIT:          0 MISS:          0 MSHR_MERGE:          0
cpu0->cpu0_DTLB TRANSLATION  ACCESS:          0 HIT:          0 MISS:          0 MSHR_MERGE:          0
cpu0->cpu0_DTLB PREFETCH REQUESTED:          0 ISSUED:          0 USEFUL:          0 USELESS:          0 LATE:          0
cpu0->cpu0_DTLB AVERAGE MISS LATENCY: 6.703 cycles
cpu0->LLC TOTAL        ACCESS:    4441446 HIT:    2264227 MISS:    2177219 MSHR_MERGE:       7888
cpu0->LLC LOAD         ACCESS:    3121497 HIT:    2122431 MISS:     999066 MSHR_MERGE:         75
cpu0->LLC RFO          ACCESS:        254 HIT:         11 MISS:        243 MSHR_MERGE:          0
cpu0->LLC PREFETCH     ACCESS:    1134245 HIT:      15128 MISS:    1119117 MSHR_MERGE:       7813
cpu0->LLC WRITE        ACCESS:     149956 HIT:      96317 MISS:      53639 MSHR_MERGE:          0
cpu0->LLC TRANSLATION  ACCESS:      35494 HIT:      30340 MISS:       5154 MSHR_MERGE:          0
cpu0->LLC PREFETCH REQUESTED:          0 ISSUED:          0 USEFUL:          0 USELESS:          0 LATE:          0
cpu0->LLC AVERAGE MISS LATENCY: 184.3 cycles

DRAM Statistics

Channel 0 RQ ROW_BUFFER_HIT:       8949
  ROW_BUFFER_MISS:    2106743
  AVG DBUS CONGESTED CYCLE: 12.65
Channel 0 WQ ROW_BUFFER_HIT:      30434
  ROW_BUFFER_MISS:     117646
  FULL:          0
Channel 0 REFRESHES ISSUED:      30590

[ROI Statistics]
[System Configuration]
num_cpus 1
cpu_freq 4000
fetch_width 6
decode_width 6
dispatch_width 6
execute_width 6
lq_width 2
sq_width 2
retire_width 6
scheduler_size 128
branch_mispredict_penalty 15
rob_size 352
lq_size 128
sq_size 72
ifetch_buffer_size 64
decode_buffer_size 32
dispatch_buffer_size 32
register_file_size 288
decode_latency 1
dispatch_latency 1
schedule_latency 1
execute_latency 1
page_size 4096
block_size 64
core_0_itlb_set 16
core_0_itlb_way 4
core_0_itlb_rq_size 16
core_0_itlb_wq_size 16
core_0_itlb_pq_size 0
core_0_itlb_mshr_size 8
core_0_itlb_hit_latency 1
core_0_itlb_fill_latency 1
core_0_itlb_max_tag_check 2
core_0_itlb_max_fill 2
core_0_dtlb_set 16
core_0_dtlb_way 4
core_0_dtlb_rq_size 16
core_0_dtlb_wq_size 16
core_0_dtlb_pq_size 0
core_0_dtlb_mshr_size 8
core_0_dtlb_hit_latency 1
core_0_dtlb_fill_latency 1
core_0_dtlb_max_tag_check 2
core_0_dtlb_max_fill 2
core_0_stlb_set 128
core_0_stlb_way 12
core_0_stlb_rq_size 32
core_0_stlb_wq_size 32
core_0_stlb_pq_size 0
core_0_stlb_mshr_size 16
core_0_stlb_hit_latency 4
core_0_stlb_fill_latency 4
core_0_stlb_max_tag_check 1
core_0_stlb_max_fill 1
core_0_l1i_set 64
core_0_l1i_way 8
core_0_l1i_rq_size 64
core_0_l1i_wq_size 64
core_0_l1i_pq_size 32
core_0_l1i_mshr_size 8
core_0_l1i_hit_latency 2
core_0_l1i_fill_latency 2
core_0_l1i_max_tag_check 2
core_0_l1i_max_fill 2
core_0_l1d_set 64
core_0_l1d_way 12
core_0_l1d_rq_size 64
core_0_l1d_wq_size 64
core_0_l1d_pq_size 8
core_0_l1d_mshr_size 16
core_0_l1d_hit_latency 2
core_0_l1d_fill_latency 3
core_0_l1d_max_tag_check 2
core_0_l1d_max_fill 2
core_0_l2c_set 1024
core_0_l2c_way 8
core_0_l2c_rq_size 32
core_0_l2c_wq_size 32
core_0_l2c_pq_size 16
core_0_l2c_mshr_size 32
core_0_l2c_hit_latency 5
core_0_l2c_fill_latency 5
core_0_l2c_max_tag_check 1
core_0_l2c_max_fill 1
llc_set 2048
llc_way 16
llc_rq_size 32
llc_wq_size 32
llc_pq_size 32
llc_mshr_size 64
llc_hit_latency 10
llc_fill_latency 10
llc_max_tag_check 1
llc_max_fill 1
dram_channels 1
dram_ranks 1
dram_bankgroups 8
dram_banks 4
dram_rows 65536
dram_columns 1024
dram_channel_width 8
dram_rq_size 64
dram_wq_size 64
dram_size 17179869184
core_0_itlb_prefetcher no
core_0_dtlb_prefetcher no
core_0_stlb_prefetcher no
core_0_l1i_prefetcher next_line
core_0_l1d_prefetcher vberti_nocross
core_0_l2c_prefetcher ip_stride
llc_prefetcher no
llc_replacement drrip

Core_0_instructions 100000001
Core_0_cycles 367076945
Core_0_IPC 0.272422
Core_0_branch_prediction_accuracy 86.6097
Core_0_branch_MPKI 34.3562
Core_0_average_ROB_occupancy_at_mispredict 12.5066

Core_0_ITLB_total_access 248340
Core_0_ITLB_total_hit 248340
Core_0_ITLB_total_miss 0
Core_0_ITLB_total_MPKI 0
Core_0_ITLB_total_miss_rate 0
Core_0_ITLB_demand_access 248340
Core_0_ITLB_demand_hit 248340
Core_0_ITLB_demand_miss 0
Core_0_ITLB_demand_MPKI 0
Core_0_ITLB_demand_miss_rate 0
Core_0_ITLB_load_access 248340
Core_0_ITLB_load_hit 248340
Core_0_ITLB_load_miss 0
Core_0_ITLB_load_MPKI 0
Core_0_ITLB_load_miss_rate 0
Core_0_ITLB_rfo_access 0
Core_0_ITLB_rfo_hit 0
Core_0_ITLB_rfo_miss 0
Core_0_ITLB_rfo_MPKI 0
Core_0_ITLB_rfo_miss_rate 0
Core_0_ITLB_prefetch_access 0
Core_0_ITLB_prefetch_hit 0
Core_0_ITLB_prefetch_miss 0
Core_0_ITLB_prefetch_MPKI 0
Core_0_ITLB_prefetch_miss_rate 0
Core_0_ITLB_writeback_access 0
Core_0_ITLB_writeback_hit 0
Core_0_ITLB_writeback_miss 0
Core_0_ITLB_writeback_MPKI 0
Core_0_ITLB_writeback_miss_rate 0
Core_0_ITLB_prefetch_requested 0
Core_0_ITLB_prefetch_issued 0
Core_0_ITLB_prefetch_useful 0
Core_0_ITLB_prefetch_useless 0
Core_0_ITLB_prefetch_late 0
Core_0_ITLB_prefetch_accuracy 0
Core_0_ITLB_prefetch_coverage 0
Core_0_ITLB_total_eviction 0

Core_0_DTLB_total_access 63156655
Core_0_DTLB_total_hit 58039114
Core_0_DTLB_total_miss 5117541
Core_0_DTLB_total_MPKI 51.1754
Core_0_DTLB_total_miss_rate 0.0810293
Core_0_DTLB_demand_access 63156655
Core_0_DTLB_demand_hit 58039114
Core_0_DTLB_demand_miss 5117541
Core_0_DTLB_demand_MPKI 51.1754
Core_0_DTLB_demand_miss_rate 0.0810293
Core_0_DTLB_load_access 63156655
Core_0_DTLB_load_hit 58039114
Core_0_DTLB_load_miss 5117541
Core_0_DTLB_load_MPKI 51.1754
Core_0_DTLB_load_miss_rate 0.0810293
Core_0_DTLB_rfo_access 0
Core_0_DTLB_rfo_hit 0
Core_0_DTLB_rfo_miss 0
Core_0_DTLB_rfo_MPKI 0
Core_0_DTLB_rfo_miss_rate 0
Core_0_DTLB_prefetch_access 0
Core_0_DTLB_prefetch_hit 0
Core_0_DTLB_prefetch_miss 0
Core_0_DTLB_prefetch_MPKI 0
Core_0_DTLB_prefetch_miss_rate 0
Core_0_DTLB_writeback_access 0
Core_0_DTLB_writeback_hit 0
Core_0_DTLB_writeback_miss 0
Core_0_DTLB_writeback_MPKI 0
Core_0_DTLB_writeback_miss_rate 0
Core_0_DTLB_prefetch_requested 0
Core_0_DTLB_prefetch_issued 0
Core_0_DTLB_prefetch_useful 0
Core_0_DTLB_prefetch_useless 0
Core_0_DTLB_prefetch_late 0
Core_0_DTLB_prefetch_accuracy 0
Core_0_DTLB_prefetch_coverage 0
Core_0_DTLB_total_eviction 4697752

Core_0_STLB_total_access 4697752
Core_0_STLB_total_hit 4553846
Core_0_STLB_total_miss 143906
Core_0_STLB_total_MPKI 1.43906
Core_0_STLB_total_miss_rate 0.0306329
Core_0_STLB_demand_access 4697752
Core_0_STLB_demand_hit 4553846
Core_0_STLB_demand_miss 143906
Core_0_STLB_demand_MPKI 1.43906
Core_0_STLB_demand_miss_rate 0.0306329
Core_0_STLB_load_access 4697752
Core_0_STLB_load_hit 4553846
Core_0_STLB_load_miss 143906
Core_0_STLB_load_MPKI 1.43906
Core_0_STLB_load_miss_rate 0.0306329
Core_0_STLB_rfo_access 0
Core_0_STLB_rfo_hit 0
Core_0_STLB_rfo_miss 0
Core_0_STLB_rfo_MPKI 0
Core_0_STLB_rfo_miss_rate 0
Core_0_STLB_prefetch_access 0
Core_0_STLB_prefetch_hit 0
Core_0_STLB_prefetch_miss 0
Core_0_STLB_prefetch_MPKI 0
Core_0_STLB_prefetch_miss_rate 0
Core_0_STLB_writeback_access 0
Core_0_STLB_writeback_hit 0
Core_0_STLB_writeback_miss 0
Core_0_STLB_writeback_MPKI 0
Core_0_STLB_writeback_miss_rate 0
Core_0_STLB_prefetch_requested 0
Core_0_STLB_prefetch_issued 0
Core_0_STLB_prefetch_useful 0
Core_0_STLB_prefetch_useless 0
Core_0_STLB_prefetch_late 0
Core_0_STLB_prefetch_accuracy 0
Core_0_STLB_prefetch_coverage 0
Core_0_STLB_total_eviction 143906

Core_0_L1I_total_access 329821
Core_0_L1I_total_hit 329821
Core_0_L1I_total_miss 0
Core_0_L1I_total_MPKI 0
Core_0_L1I_total_miss_rate 0
Core_0_L1I_demand_access 329821
Core_0_L1I_demand_hit 329821
Core_0_L1I_demand_miss 0
Core_0_L1I_demand_MPKI 0
Core_0_L1I_demand_miss_rate 0
Core_0_L1I_load_access 329821
Core_0_L1I_load_hit 329821
Core_0_L1I_load_miss 0
Core_0_L1I_load_MPKI 0
Core_0_L1I_load_miss_rate 0
Core_0_L1I_rfo_access 0
Core_0_L1I_rfo_hit 0
Core_0_L1I_rfo_miss 0
Core_0_L1I_rfo_MPKI 0
Core_0_L1I_rfo_miss_rate 0
Core_0_L1I_prefetch_access 0
Core_0_L1I_prefetch_hit 0
Core_0_L1I_prefetch_miss 0
Core_0_L1I_prefetch_MPKI 0
Core_0_L1I_prefetch_miss_rate 0
Core_0_L1I_writeback_access 0
Core_0_L1I_writeback_hit 0
Core_0_L1I_writeback_miss 0
Core_0_L1I_writeback_MPKI 0
Core_0_L1I_writeback_miss_rate 0
Core_0_L1I_prefetch_requested 0
Core_0_L1I_prefetch_issued 0
Core_0_L1I_prefetch_useful 0
Core_0_L1I_prefetch_useless 0
Core_0_L1I_prefetch_late 0
Core_0_L1I_prefetch_accuracy 0
Core_0_L1I_prefetch_coverage 0
Core_0_L1I_total_eviction 0

Core_0_L1D_total_access 76174460
Core_0_L1D_total_hit 63392190
Core_0_L1D_total_miss 12782270
Core_0_L1D_total_MPKI 127.823
Core_0_L1D_total_miss_rate 0.167803
Core_0_L1D_demand_access 30739796
Core_0_L1D_demand_hit 25260671
Core_0_L1D_demand_miss 5479125
Core_0_L1D_demand_MPKI 54.7912
Core_0_L1D_demand_miss_rate 0.178242
Core_0_L1D_load_access 30739796
Core_0_L1D_load_hit 25260671
Core_0_L1D_load_miss 5479125
Core_0_L1D_load_MPKI 54.7912
Core_0_L1D_load_miss_rate 0.178242
Core_0_L1D_rfo_access 0
Core_0_L1D_rfo_hit 0
Core_0_L1D_rfo_miss 0
Core_0_L1D_rfo_MPKI 0
Core_0_L1D_rfo_miss_rate 0
Core_0_L1D_prefetch_access 41495819
Core_0_L1D_prefetch_hit 34204507
Core_0_L1D_prefetch_miss 7291312
Core_0_L1D_prefetch_MPKI 72.9131
Core_0_L1D_prefetch_miss_rate 0.175712
Core_0_L1D_writeback_access 3938845
Core_0_L1D_writeback_hit 3927012
Core_0_L1D_writeback_miss 11833
Core_0_L1D_writeback_MPKI 0.11833
Core_0_L1D_writeback_miss_rate 0.00300418
Core_0_L1D_prefetch_requested 110823487
Core_0_L1D_prefetch_issued 41495812
Core_0_L1D_prefetch_useful 1080296
Core_0_L1D_prefetch_useless 37232
Core_0_L1D_prefetch_late 6873
Core_0_L1D_prefetch_accuracy 0.0260339
Core_0_L1D_prefetch_coverage 0.164694
Core_0_L1D_total_eviction 6559259

Core_0_L2C_total_access 14545378
Core_0_L2C_total_hit 9805191
Core_0_L2C_total_miss 4740187
Core_0_L2C_total_MPKI 47.4019
Core_0_L2C_total_miss_rate 0.32589
Core_0_L2C_demand_access 5316732
Core_0_L2C_demand_hit 2194219
Core_0_L2C_demand_miss 3122513
Core_0_L2C_demand_MPKI 31.2251
Core_0_L2C_demand_miss_rate 0.587299
Core_0_L2C_load_access 5305612
Core_0_L2C_load_hit 2183353
Core_0_L2C_load_miss 3122259
Core_0_L2C_load_MPKI 31.2226
Core_0_L2C_load_miss_rate 0.588482
Core_0_L2C_rfo_access 11120
Core_0_L2C_rfo_hit 10866
Core_0_L2C_rfo_miss 254
Core_0_L2C_rfo_MPKI 0.00254
Core_0_L2C_rfo_miss_rate 0.0228417
Core_0_L2C_prefetch_access 9074788
Core_0_L2C_prefetch_hit 7457239
Core_0_L2C_prefetch_miss 1617549
Core_0_L2C_prefetch_MPKI 16.1755
Core_0_L2C_prefetch_miss_rate 0.178246
Core_0_L2C_writeback_access 153858
Core_0_L2C_writeback_hit 153733
Core_0_L2C_writeback_miss 125
Core_0_L2C_writeback_MPKI 0.00125
Core_0_L2C_writeback_miss_rate 0.000812437
Core_0_L2C_prefetch_requested 1797491
Core_0_L2C_prefetch_issued 1797338
Core_0_L2C_prefetch_useful 240028
Core_0_L2C_prefetch_useless 63724
Core_0_L2C_prefetch_late 536
Core_0_L2C_prefetch_accuracy 0.133546
Core_0_L2C_prefetch_coverage 0.0713829
Core_0_L2C_total_eviction 4277548

Core_0_LLC_total_access 4405952
Core_0_LLC_total_hit 2233887
Core_0_LLC_total_miss 2172065
Core_0_LLC_total_MPKI 21.7206
Core_0_LLC_total_miss_rate 0.492984
Core_0_LLC_demand_access 3121751
Core_0_LLC_demand_hit 2122442
Core_0_LLC_demand_miss 999309
Core_0_LLC_demand_MPKI 9.99309
Core_0_LLC_demand_miss_rate 0.320112
Core_0_LLC_load_access 3121497
Core_0_LLC_load_hit 2122431
Core_0_LLC_load_miss 999066
Core_0_LLC_load_MPKI 9.99066
Core_0_LLC_load_miss_rate 0.32006
Core_0_LLC_rfo_access 254
Core_0_LLC_rfo_hit 11
Core_0_LLC_rfo_miss 243
Core_0_LLC_rfo_MPKI 0.00243
Core_0_LLC_rfo_miss_rate 0.956693
Core_0_LLC_prefetch_access 1134245
Core_0_LLC_prefetch_hit 15128
Core_0_LLC_prefetch_miss 1119117
Core_0_LLC_prefetch_MPKI 11.1912
Core_0_LLC_prefetch_miss_rate 0.986662
Core_0_LLC_writeback_access 149956
Core_0_LLC_writeback_hit 96317
Core_0_LLC_writeback_miss 53639
Core_0_LLC_writeback_MPKI 0.53639
Core_0_LLC_writeback_miss_rate 0.357698
Core_0_LLC_prefetch_requested 0
Core_0_LLC_prefetch_issued 0
Core_0_LLC_prefetch_useful 0
Core_0_LLC_prefetch_useless 0
Core_0_LLC_prefetch_late 0
Core_0_LLC_prefetch_accuracy 0
Core_0_LLC_prefetch_coverage 0
Core_0_LLC_total_eviction 2169331

[DRAM Statistics]
Channel_0_RQ_row_buffer_hit 8949
Channel_0_RQ_row_buffer_miss 2106743
Channel_0_WQ_row_buffer_hit 30434
Channel_0_WQ_row_buffer_miss 117646
Channel_0_WQ_full 0
Channel_0_dbus_congested 3186504
DRAM_total_RQ_row_buffer_hit 8949
DRAM_total_RQ_row_buffer_miss 2106743
DRAM_total_WQ_row_buffer_hit 30434
DRAM_total_WQ_row_buffer_miss 117646
DRAM_total_WQ_full 0
DRAM_total_dbus_congested 3186504
DRAM_avg_congested_cycle 12.6523

======STLB miss causes ========
Core_0_STLB_miss_cause_breakdown
Core_0_STLB_cause_Demand_Data_miss 143906
Core_0_STLB_cause_Demand_Data_miss_rate 0.0306329
Core_0_STLB_cause_Demand_Instruction_miss 0
Core_0_STLB_cause_Demand_Instruction_miss_rate 0
Core_0_STLB_cause_L1D_Prefetch_miss 0
Core_0_STLB_cause_L1D_Prefetch_miss_rate 0
Core_0_STLB_cause_L1I_Prefetch_miss 0
Core_0_STLB_cause_L1I_Prefetch_miss_rate 0
Core_0_STLB_cause_Other_miss 0
Core_0_STLB_cause_Other_miss_rate 0
Core_0_STLB_Demand_miss 143906
Core_0_STLB_Demand_miss_rate 0.0306329
Core_0_STLB_L1D_Prefetch_miss 0
Core_0_STLB_L1D_Prefetch_miss_rate 0
Core_0_STLB_Other_miss 0
Core_0_STLB_Other_miss_rate 0
BERTI TO_L1: 96380037 TO_L2: 32332152 TO_L2_BC_MSHR: 147260
BERTI AVG_LAT: 46.4051 NUM_TRACK_LATENCY: 9688199 NUM_CANT_TRACK_LATENCY: 0
BERTI CROSS_PAGE 16900292 NO_CROSS_PAGE: 128712189
BERTI FOUND_BERTI: 31978499 NO_FOUND_BERTI: 11725686
BERTI AVERAGE_ISSUED: 3.56726
