[VMEM] WARNING: physical memory size is smaller than virtual memory size.

*** ChampSim Multicore Out-of-Order Simulator ***
Warmup Instructions: 50000000
Simulation Instructions: 100000000
Number of CPUs: 1
Page size: 4096
STLB ideal mode: off
STLB ideal fill: off
Core 0: /data0/tzh/champsim_traces/Ligra/ligra_PageRank.com-lj.ungraph.gcc_6.3.0_O3.drop_21750M.length_250M.champsimtrace.xz
VBerti Prefetcher
No Crossing Page
BERTI HASH ENTANGLING
BERTI IP MASK ffff
Off-chip DRAM Size: 16 GiB Channels: 1 Width: 64-bit Data Rate: 3205 MT/s
Warmup halting CPU 0 at instruction 50000002 cycle 13190727 for remainder of phase
Warmup finished CPU 0 instructions: 50000002 cycles: 13190727 cumulative IPC: 3.791 (Simulation time: 00 hr 03 min 44 sec)
Warmup complete CPU 0 instructions: 50000002 cycles: 13190727 cumulative IPC: 3.791 (Simulation time: 00 hr 03 min 44 sec)
Simulation finished CPU 0 instructions: 100000005 cycles: 170244711 cumulative IPC: 0.5874 (Simulation time: 00 hr 26 min 12 sec)
Simulation complete CPU 0 instructions: 100000005 cycles: 170244711 cumulative IPC: 0.5874 (Simulation time: 00 hr 26 min 12 sec)

ChampSim completed all CPUs

=== Simulation ===
CPU 0 runs /data0/tzh/champsim_traces/Ligra/ligra_PageRank.com-lj.ungraph.gcc_6.3.0_O3.drop_21750M.length_250M.champsimtrace.xz

Region of Interest Statistics

CPU 0 cumulative IPC: 0.5874 instructions: 100000005 cycles: 170244711
CPU 0 Branch Prediction Accuracy: 95.97% MPKI: 4.517 Average ROB Occupancy at Mispredict: 220.6
Branch type MPKI
BRANCH_DIRECT_JUMP: 0
BRANCH_INDIRECT: 0
BRANCH_CONDITIONAL: 4.517
BRANCH_DIRECT_CALL: 0
BRANCH_INDIRECT_CALL: 0
BRANCH_RETURN: 0

cpu0->cpu0_STLB TOTAL        ACCESS:    7911615 HIT:    4914819 MISS:    2996796 MSHR_MERGE:          0
cpu0->cpu0_STLB LOAD         ACCESS:    7911615 HIT:    4914819 MISS:    2996796 MSHR_MERGE:          0
cpu0->cpu0_STLB RFO          ACCESS:          0 HIT:          0 MISS:          0 MSHR_MERGE:          0
cpu0->cpu0_STLB PREFETCH     ACCESS:          0 HIT:          0 MISS:          0 MSHR_MERGE:          0
cpu0->cpu0_STLB WRITE        ACCESS:          0 HIT:          0 MISS:          0 MSHR_MERGE:          0
cpu0->cpu0_STLB TRANSLATION  ACCESS:          0 HIT:          0 MISS:          0 MSHR_MERGE:          0
cpu0->cpu0_STLB PREFETCH REQUESTED:          0 ISSUED:          0 USEFUL:          0 USELESS:          0 LATE:          0
cpu0->cpu0_STLB AVERAGE MISS LATENCY: 36.44 cycles
cpu0->cpu0_L2C TOTAL        ACCESS:   11902697 HIT:    4296881 MISS:    7605816 MSHR_MERGE:     270710
cpu0->cpu0_L2C LOAD         ACCESS:    7781232 HIT:    1500909 MISS:    6280323 MSHR_MERGE:       6134
cpu0->cpu0_L2C RFO          ACCESS:         46 HIT:         46 MISS:          0 MSHR_MERGE:          0
cpu0->cpu0_L2C PREFETCH     ACCESS:    1726059 HIT:     758182 MISS:     967877 MSHR_MERGE:     264576
cpu0->cpu0_L2C WRITE        ACCESS:      56580 HIT:      56580 MISS:          0 MSHR_MERGE:          0
cpu0->cpu0_L2C TRANSLATION  ACCESS:    2338780 HIT:    1981164 MISS:     357616 MSHR_MERGE:          0
cpu0->cpu0_L2C PREFETCH REQUESTED:     697052 ISSUED:     697030 USEFUL:     212842 USELESS:      78148 LATE:       5700
cpu0->cpu0_L2C AVERAGE MISS LATENCY: 198.4 cycles
cpu0->cpu0_L1I TOTAL        ACCESS:    2980824 HIT:    2980824 MISS:          0 MSHR_MERGE:          0
cpu0->cpu0_L1I LOAD         ACCESS:    2980824 HIT:    2980824 MISS:          0 MSHR_MERGE:          0
cpu0->cpu0_L1I RFO          ACCESS:          0 HIT:          0 MISS:          0 MSHR_MERGE:          0
cpu0->cpu0_L1I PREFETCH     ACCESS:          0 HIT:          0 MISS:          0 MSHR_MERGE:          0
cpu0->cpu0_L1I WRITE        ACCESS:          0 HIT:          0 MISS:          0 MSHR_MERGE:          0
cpu0->cpu0_L1I TRANSLATION  ACCESS:          0 HIT:          0 MISS:          0 MSHR_MERGE:          0
cpu0->cpu0_L1I PREFETCH REQUESTED:          0 ISSUED:          0 USEFUL:          0 USELESS:          0 LATE:          0
cpu0->cpu0_L1I AVERAGE MISS LATENCY: - cycles
cpu0->cpu0_L1D TOTAL        ACCESS:   45459614 HIT:   34040066 MISS:   11419548 MSHR_MERGE:     263058
cpu0->cpu0_L1D LOAD         ACCESS:   22829742 HIT:   14812858 MISS:    8016884 MSHR_MERGE:     235652
cpu0->cpu0_L1D RFO          ACCESS:          0 HIT:          0 MISS:          0 MSHR_MERGE:          0
cpu0->cpu0_L1D PREFETCH     ACCESS:   11839546 HIT:   10802120 MISS:    1037426 MSHR_MERGE:        994
cpu0->cpu0_L1D WRITE        ACCESS:    4861390 HIT:    4861308 MISS:         82 MSHR_MERGE:         36
cpu0->cpu0_L1D TRANSLATION  ACCESS:    5928936 HIT:    3563780 MISS:    2365156 MSHR_MERGE:      26376
cpu0->cpu0_L1D PREFETCH REQUESTED:   45265402 ISSUED:   11839547 USEFUL:     525904 USELESS:       2155 LATE:        862
cpu0->cpu0_L1D AVERAGE MISS LATENCY: 138.8 cycles
cpu0->cpu0_ITLB TOTAL        ACCESS:    2863440 HIT:    2863440 MISS:          0 MSHR_MERGE:          0
cpu0->cpu0_ITLB LOAD         ACCESS:    2863440 HIT:    2863440 MISS:          0 MSHR_MERGE:          0
cpu0->cpu0_ITLB RFO          ACCESS:          0 HIT:          0 MISS:          0 MSHR_MERGE:          0
cpu0->cpu0_ITLB PREFETCH     ACCESS:          0 HIT:          0 MISS:          0 MSHR_MERGE:          0
cpu0->cpu0_ITLB WRITE        ACCESS:          0 HIT:          0 MISS:          0 MSHR_MERGE:          0
cpu0->cpu0_ITLB TRANSLATION  ACCESS:          0 HIT:          0 MISS:          0 MSHR_MERGE:          0
cpu0->cpu0_ITLB PREFETCH REQUESTED:          0 ISSUED:          0 USEFUL:          0 USELESS:          0 LATE:          0
cpu0->cpu0_ITLB AVERAGE MISS LATENCY: - cycles
cpu0->cpu0_DTLB TOTAL        ACCESS:   36851895 HIT:   28420989 MISS:    8430906 MSHR_MERGE:     519291
cpu0->cpu0_DTLB LOAD         ACCESS:   36851895 HIT:   28420989 MISS:    8430906 MSHR_MERGE:     519291
cpu0->cpu0_DTLB RFO          ACCESS:          0 HIT:          0 MISS:          0 MSHR_MERGE:          0
cpu0->cpu0_DTLB PREFETCH     ACCESS:          0 HIT:          0 MISS:          0 MSHR_MERGE:          0
cpu0->cpu0_DTLB WRITE        ACCESS:          0 HIT:          0 MISS:          0 MSHR_MERGE:          0
cpu0->cpu0_DTLB TRANSLATION  ACCESS:          0 HIT:          0 MISS:          0 MSHR_MERGE:          0
cpu0->cpu0_DTLB PREFETCH REQUESTED:          0 ISSUED:          0 USEFUL:          0 USELESS:          0 LATE:          0
cpu0->cpu0_DTLB AVERAGE MISS LATENCY: 19.2 cycles
cpu0->LLC TOTAL        ACCESS:    7391591 HIT:    1919428 MISS:    5472163 MSHR_MERGE:      39321
cpu0->LLC LOAD         ACCESS:    6274189 HIT:    1523568 MISS:    4750621 MSHR_MERGE:       1766
cpu0->LLC RFO          ACCESS:          0 HIT:          0 MISS:          0 MSHR_MERGE:          0
cpu0->LLC PREFETCH     ACCESS:     703301 HIT:      43546 MISS:     659755 MSHR_MERGE:      37555
cpu0->LLC WRITE        ACCESS:      56485 HIT:      16352 MISS:      40133 MSHR_MERGE:          0
cpu0->LLC TRANSLATION  ACCESS:     357616 HIT:     335962 MISS:      21654 MSHR_MERGE:          0
cpu0->LLC PREFETCH REQUESTED:          0 ISSUED:          0 USEFUL:          0 USELESS:          0 LATE:          0
cpu0->LLC AVERAGE MISS LATENCY: 251.8 cycles

DRAM Statistics

Channel 0 RQ ROW_BUFFER_HIT:       6206
  ROW_BUFFER_MISS:    5386498
  AVG DBUS CONGESTED CYCLE: 3.796
Channel 0 WQ ROW_BUFFER_HIT:      15364
  ROW_BUFFER_MISS:      40432
  FULL:          0
Channel 0 REFRESHES ISSUED:      14187

[ROI Statistics]
[System Configuration]
num_cpus 1
cpu_freq 4000
fetch_width 6
decode_width 6
dispatch_width 6
execute_width 6
lq_width 2
sq_width 2
retire_width 6
scheduler_size 128
branch_mispredict_penalty 15
rob_size 352
lq_size 128
sq_size 72
ifetch_buffer_size 64
decode_buffer_size 32
dispatch_buffer_size 32
register_file_size 288
decode_latency 1
dispatch_latency 1
schedule_latency 1
execute_latency 1
page_size 4096
block_size 64
core_0_itlb_set 16
core_0_itlb_way 4
core_0_itlb_rq_size 16
core_0_itlb_wq_size 16
core_0_itlb_pq_size 0
core_0_itlb_mshr_size 8
core_0_itlb_hit_latency 1
core_0_itlb_fill_latency 1
core_0_itlb_max_tag_check 2
core_0_itlb_max_fill 2
core_0_dtlb_set 16
core_0_dtlb_way 4
core_0_dtlb_rq_size 16
core_0_dtlb_wq_size 16
core_0_dtlb_pq_size 0
core_0_dtlb_mshr_size 8
core_0_dtlb_hit_latency 1
core_0_dtlb_fill_latency 1
core_0_dtlb_max_tag_check 2
core_0_dtlb_max_fill 2
core_0_stlb_set 128
core_0_stlb_way 12
core_0_stlb_rq_size 32
core_0_stlb_wq_size 32
core_0_stlb_pq_size 0
core_0_stlb_mshr_size 16
core_0_stlb_hit_latency 4
core_0_stlb_fill_latency 4
core_0_stlb_max_tag_check 1
core_0_stlb_max_fill 1
core_0_l1i_set 64
core_0_l1i_way 8
core_0_l1i_rq_size 64
core_0_l1i_wq_size 64
core_0_l1i_pq_size 32
core_0_l1i_mshr_size 8
core_0_l1i_hit_latency 2
core_0_l1i_fill_latency 2
core_0_l1i_max_tag_check 2
core_0_l1i_max_fill 2
core_0_l1d_set 64
core_0_l1d_way 12
core_0_l1d_rq_size 64
core_0_l1d_wq_size 64
core_0_l1d_pq_size 8
core_0_l1d_mshr_size 16
core_0_l1d_hit_latency 2
core_0_l1d_fill_latency 3
core_0_l1d_max_tag_check 2
core_0_l1d_max_fill 2
core_0_l2c_set 1024
core_0_l2c_way 8
core_0_l2c_rq_size 32
core_0_l2c_wq_size 32
core_0_l2c_pq_size 16
core_0_l2c_mshr_size 32
core_0_l2c_hit_latency 5
core_0_l2c_fill_latency 5
core_0_l2c_max_tag_check 1
core_0_l2c_max_fill 1
llc_set 2048
llc_way 16
llc_rq_size 32
llc_wq_size 32
llc_pq_size 32
llc_mshr_size 64
llc_hit_latency 10
llc_fill_latency 10
llc_max_tag_check 1
llc_max_fill 1
dram_channels 1
dram_ranks 1
dram_bankgroups 8
dram_banks 4
dram_rows 65536
dram_columns 1024
dram_channel_width 8
dram_rq_size 64
dram_wq_size 64
dram_size 17179869184
core_0_itlb_prefetcher no
core_0_dtlb_prefetcher no
core_0_stlb_prefetcher no
core_0_l1i_prefetcher next_line
core_0_l1d_prefetcher vberti_nocross
core_0_l2c_prefetcher ip_stride
llc_prefetcher no
llc_replacement drrip

Core_0_instructions 100000005
Core_0_cycles 170244711
Core_0_IPC 0.58739
Core_0_branch_prediction_accuracy 95.9732
Core_0_branch_MPKI 4.51669
Core_0_average_ROB_occupancy_at_mispredict 220.634

Core_0_ITLB_total_access 2863440
Core_0_ITLB_total_hit 2863440
Core_0_ITLB_total_miss 0
Core_0_ITLB_total_MPKI 0
Core_0_ITLB_total_miss_rate 0
Core_0_ITLB_demand_access 2863440
Core_0_ITLB_demand_hit 2863440
Core_0_ITLB_demand_miss 0
Core_0_ITLB_demand_MPKI 0
Core_0_ITLB_demand_miss_rate 0
Core_0_ITLB_load_access 2863440
Core_0_ITLB_load_hit 2863440
Core_0_ITLB_load_miss 0
Core_0_ITLB_load_MPKI 0
Core_0_ITLB_load_miss_rate 0
Core_0_ITLB_rfo_access 0
Core_0_ITLB_rfo_hit 0
Core_0_ITLB_rfo_miss 0
Core_0_ITLB_rfo_MPKI 0
Core_0_ITLB_rfo_miss_rate 0
Core_0_ITLB_prefetch_access 0
Core_0_ITLB_prefetch_hit 0
Core_0_ITLB_prefetch_miss 0
Core_0_ITLB_prefetch_MPKI 0
Core_0_ITLB_prefetch_miss_rate 0
Core_0_ITLB_writeback_access 0
Core_0_ITLB_writeback_hit 0
Core_0_ITLB_writeback_miss 0
Core_0_ITLB_writeback_MPKI 0
Core_0_ITLB_writeback_miss_rate 0
Core_0_ITLB_prefetch_requested 0
Core_0_ITLB_prefetch_issued 0
Core_0_ITLB_prefetch_useful 0
Core_0_ITLB_prefetch_useless 0
Core_0_ITLB_prefetch_late 0
Core_0_ITLB_prefetch_accuracy 0
Core_0_ITLB_prefetch_coverage 0
Core_0_ITLB_total_eviction 0

Core_0_DTLB_total_access 36851895
Core_0_DTLB_total_hit 28420989
Core_0_DTLB_total_miss 8430906
Core_0_DTLB_total_MPKI 84.3091
Core_0_DTLB_total_miss_rate 0.228778
Core_0_DTLB_demand_access 36851895
Core_0_DTLB_demand_hit 28420989
Core_0_DTLB_demand_miss 8430906
Core_0_DTLB_demand_MPKI 84.3091
Core_0_DTLB_demand_miss_rate 0.228778
Core_0_DTLB_load_access 36851895
Core_0_DTLB_load_hit 28420989
Core_0_DTLB_load_miss 8430906
Core_0_DTLB_load_MPKI 84.3091
Core_0_DTLB_load_miss_rate 0.228778
Core_0_DTLB_rfo_access 0
Core_0_DTLB_rfo_hit 0
Core_0_DTLB_rfo_miss 0
Core_0_DTLB_rfo_MPKI 0
Core_0_DTLB_rfo_miss_rate 0
Core_0_DTLB_prefetch_access 0
Core_0_DTLB_prefetch_hit 0
Core_0_DTLB_prefetch_miss 0
Core_0_DTLB_prefetch_MPKI 0
Core_0_DTLB_prefetch_miss_rate 0
Core_0_DTLB_writeback_access 0
Core_0_DTLB_writeback_hit 0
Core_0_DTLB_writeback_miss 0
Core_0_DTLB_writeback_MPKI 0
Core_0_DTLB_writeback_miss_rate 0
Core_0_DTLB_prefetch_requested 0
Core_0_DTLB_prefetch_issued 0
Core_0_DTLB_prefetch_useful 0
Core_0_DTLB_prefetch_useless 0
Core_0_DTLB_prefetch_late 0
Core_0_DTLB_prefetch_accuracy 0
Core_0_DTLB_prefetch_coverage 0
Core_0_DTLB_total_eviction 7911615

Core_0_STLB_total_access 7911615
Core_0_STLB_total_hit 4914819
Core_0_STLB_total_miss 2996796
Core_0_STLB_total_MPKI 29.968
Core_0_STLB_total_miss_rate 0.378784
Core_0_STLB_demand_access 7911615
Core_0_STLB_demand_hit 4914819
Core_0_STLB_demand_miss 2996796
Core_0_STLB_demand_MPKI 29.968
Core_0_STLB_demand_miss_rate 0.378784
Core_0_STLB_load_access 7911615
Core_0_STLB_load_hit 4914819
Core_0_STLB_load_miss 2996796
Core_0_STLB_load_MPKI 29.968
Core_0_STLB_load_miss_rate 0.378784
Core_0_STLB_rfo_access 0
Core_0_STLB_rfo_hit 0
Core_0_STLB_rfo_miss 0
Core_0_STLB_rfo_MPKI 0
Core_0_STLB_rfo_miss_rate 0
Core_0_STLB_prefetch_access 0
Core_0_STLB_prefetch_hit 0
Core_0_STLB_prefetch_miss 0
Core_0_STLB_prefetch_MPKI 0
Core_0_STLB_prefetch_miss_rate 0
Core_0_STLB_writeback_access 0
Core_0_STLB_writeback_hit 0
Core_0_STLB_writeback_miss 0
Core_0_STLB_writeback_MPKI 0
Core_0_STLB_writeback_miss_rate 0
Core_0_STLB_prefetch_requested 0
Core_0_STLB_prefetch_issued 0
Core_0_STLB_prefetch_useful 0
Core_0_STLB_prefetch_useless 0
Core_0_STLB_prefetch_late 0
Core_0_STLB_prefetch_accuracy 0
Core_0_STLB_prefetch_coverage 0
Core_0_STLB_total_eviction 2996796

Core_0_L1I_total_access 2980824
Core_0_L1I_total_hit 2980824
Core_0_L1I_total_miss 0
Core_0_L1I_total_MPKI 0
Core_0_L1I_total_miss_rate 0
Core_0_L1I_demand_access 2980824
Core_0_L1I_demand_hit 2980824
Core_0_L1I_demand_miss 0
Core_0_L1I_demand_MPKI 0
Core_0_L1I_demand_miss_rate 0
Core_0_L1I_load_access 2980824
Core_0_L1I_load_hit 2980824
Core_0_L1I_load_miss 0
Core_0_L1I_load_MPKI 0
Core_0_L1I_load_miss_rate 0
Core_0_L1I_rfo_access 0
Core_0_L1I_rfo_hit 0
Core_0_L1I_rfo_miss 0
Core_0_L1I_rfo_MPKI 0
Core_0_L1I_rfo_miss_rate 0
Core_0_L1I_prefetch_access 0
Core_0_L1I_prefetch_hit 0
Core_0_L1I_prefetch_miss 0
Core_0_L1I_prefetch_MPKI 0
Core_0_L1I_prefetch_miss_rate 0
Core_0_L1I_writeback_access 0
Core_0_L1I_writeback_hit 0
Core_0_L1I_writeback_miss 0
Core_0_L1I_writeback_MPKI 0
Core_0_L1I_writeback_miss_rate 0
Core_0_L1I_prefetch_requested 0
Core_0_L1I_prefetch_issued 0
Core_0_L1I_prefetch_useful 0
Core_0_L1I_prefetch_useless 0
Core_0_L1I_prefetch_late 0
Core_0_L1I_prefetch_accuracy 0
Core_0_L1I_prefetch_coverage 0
Core_0_L1I_total_eviction 0

Core_0_L1D_total_access 39530678
Core_0_L1D_total_hit 30476286
Core_0_L1D_total_miss 9054392
Core_0_L1D_total_MPKI 90.5439
Core_0_L1D_total_miss_rate 0.229047
Core_0_L1D_demand_access 22829742
Core_0_L1D_demand_hit 14812858
Core_0_L1D_demand_miss 8016884
Core_0_L1D_demand_MPKI 80.1688
Core_0_L1D_demand_miss_rate 0.35116
Core_0_L1D_load_access 22829742
Core_0_L1D_load_hit 14812858
Core_0_L1D_load_miss 8016884
Core_0_L1D_load_MPKI 80.1688
Core_0_L1D_load_miss_rate 0.35116
Core_0_L1D_rfo_access 0
Core_0_L1D_rfo_hit 0
Core_0_L1D_rfo_miss 0
Core_0_L1D_rfo_MPKI 0
Core_0_L1D_rfo_miss_rate 0
Core_0_L1D_prefetch_access 11839546
Core_0_L1D_prefetch_hit 10802120
Core_0_L1D_prefetch_miss 1037426
Core_0_L1D_prefetch_MPKI 10.3743
Core_0_L1D_prefetch_miss_rate 0.0876238
Core_0_L1D_writeback_access 4861390
Core_0_L1D_writeback_hit 4861308
Core_0_L1D_writeback_miss 82
Core_0_L1D_writeback_MPKI 0.00082
Core_0_L1D_writeback_miss_rate 1.68676e-05
Core_0_L1D_prefetch_requested 45265402
Core_0_L1D_prefetch_issued 11839547
Core_0_L1D_prefetch_useful 525904
Core_0_L1D_prefetch_useless 2155
Core_0_L1D_prefetch_late 862
Core_0_L1D_prefetch_accuracy 0.0444193
Core_0_L1D_prefetch_coverage 0.0615612
Core_0_L1D_total_eviction 10648121

Core_0_L2C_total_access 9563917
Core_0_L2C_total_hit 2315717
Core_0_L2C_total_miss 7248200
Core_0_L2C_total_MPKI 72.482
Core_0_L2C_total_miss_rate 0.757869
Core_0_L2C_demand_access 7781278
Core_0_L2C_demand_hit 1500955
Core_0_L2C_demand_miss 6280323
Core_0_L2C_demand_MPKI 62.8032
Core_0_L2C_demand_miss_rate 0.807107
Core_0_L2C_load_access 7781232
Core_0_L2C_load_hit 1500909
Core_0_L2C_load_miss 6280323
Core_0_L2C_load_MPKI 62.8032
Core_0_L2C_load_miss_rate 0.807112
Core_0_L2C_rfo_access 46
Core_0_L2C_rfo_hit 46
Core_0_L2C_rfo_miss 0
Core_0_L2C_rfo_MPKI 0
Core_0_L2C_rfo_miss_rate 0
Core_0_L2C_prefetch_access 1726059
Core_0_L2C_prefetch_hit 758182
Core_0_L2C_prefetch_miss 967877
Core_0_L2C_prefetch_MPKI 9.67877
Core_0_L2C_prefetch_miss_rate 0.560744
Core_0_L2C_writeback_access 56580
Core_0_L2C_writeback_hit 56580
Core_0_L2C_writeback_miss 0
Core_0_L2C_writeback_MPKI 0
Core_0_L2C_writeback_miss_rate 0
Core_0_L2C_prefetch_requested 697052
Core_0_L2C_prefetch_issued 697030
Core_0_L2C_prefetch_useful 212842
Core_0_L2C_prefetch_useless 78148
Core_0_L2C_prefetch_late 5700
Core_0_L2C_prefetch_accuracy 0.305356
Core_0_L2C_prefetch_coverage 0.0327794
Core_0_L2C_total_eviction 7256461

Core_0_LLC_total_access 7033975
Core_0_LLC_total_hit 1583466
Core_0_LLC_total_miss 5450509
Core_0_LLC_total_MPKI 54.5051
Core_0_LLC_total_miss_rate 0.774883
Core_0_LLC_demand_access 6274189
Core_0_LLC_demand_hit 1523568
Core_0_LLC_demand_miss 4750621
Core_0_LLC_demand_MPKI 47.5062
Core_0_LLC_demand_miss_rate 0.757169
Core_0_LLC_load_access 6274189
Core_0_LLC_load_hit 1523568
Core_0_LLC_load_miss 4750621
Core_0_LLC_load_MPKI 47.5062
Core_0_LLC_load_miss_rate 0.757169
Core_0_LLC_rfo_access 0
Core_0_LLC_rfo_hit 0
Core_0_LLC_rfo_miss 0
Core_0_LLC_rfo_MPKI 0
Core_0_LLC_rfo_miss_rate 0
Core_0_LLC_prefetch_access 703301
Core_0_LLC_prefetch_hit 43546
Core_0_LLC_prefetch_miss 659755
Core_0_LLC_prefetch_MPKI 6.59755
Core_0_LLC_prefetch_miss_rate 0.938083
Core_0_LLC_writeback_access 56485
Core_0_LLC_writeback_hit 16352
Core_0_LLC_writeback_miss 40133
Core_0_LLC_writeback_MPKI 0.40133
Core_0_LLC_writeback_miss_rate 0.710507
Core_0_LLC_prefetch_requested 0
Core_0_LLC_prefetch_issued 0
Core_0_LLC_prefetch_useful 0
Core_0_LLC_prefetch_useless 0
Core_0_LLC_prefetch_late 0
Core_0_LLC_prefetch_accuracy 0
Core_0_LLC_prefetch_coverage 0
Core_0_LLC_total_eviction 5432837

[DRAM Statistics]
Channel_0_RQ_row_buffer_hit 6206
Channel_0_RQ_row_buffer_miss 5386498
Channel_0_WQ_row_buffer_hit 15364
Channel_0_WQ_row_buffer_miss 40432
Channel_0_WQ_full 0
Channel_0_dbus_congested 8991937
DRAM_total_RQ_row_buffer_hit 6206
DRAM_total_RQ_row_buffer_miss 5386498
DRAM_total_WQ_row_buffer_hit 15364
DRAM_total_WQ_row_buffer_miss 40432
DRAM_total_WQ_full 0
DRAM_total_dbus_congested 8991937
DRAM_avg_congested_cycle 3.79555

======STLB miss causes ========
Core_0_STLB_miss_cause_breakdown
Core_0_STLB_cause_Demand_Data_miss 2996770
Core_0_STLB_cause_Demand_Data_miss_rate 0.378781
Core_0_STLB_cause_Demand_Instruction_miss 0
Core_0_STLB_cause_Demand_Instruction_miss_rate 0
Core_0_STLB_cause_L1D_Prefetch_miss 26
Core_0_STLB_cause_L1D_Prefetch_miss_rate 3.28631e-06
Core_0_STLB_cause_L1I_Prefetch_miss 0
Core_0_STLB_cause_L1I_Prefetch_miss_rate 0
Core_0_STLB_cause_Other_miss 0
Core_0_STLB_cause_Other_miss_rate 0
Core_0_STLB_Demand_miss 2996770
Core_0_STLB_Demand_miss_rate 0.378781
Core_0_STLB_L1D_Prefetch_miss 26
Core_0_STLB_L1D_Prefetch_miss_rate 3.28631e-06
Core_0_STLB_Other_miss 0
Core_0_STLB_Other_miss_rate 0
BERTI TO_L1: 41182008 TO_L2: 10218884 TO_L2_BC_MSHR: 6580989
BERTI AVG_LAT: 120.063 NUM_TRACK_LATENCY: 12738187 NUM_CANT_TRACK_LATENCY: 0
BERTI CROSS_PAGE 9929859 NO_CROSS_PAGE: 51400892
BERTI FOUND_BERTI: 56479915 NO_FOUND_BERTI: 12623272
BERTI AVERAGE_ISSUED: 3.65478
