[VMEM] WARNING: physical memory size is smaller than virtual memory size.

*** ChampSim Multicore Out-of-Order Simulator ***
Warmup Instructions: 50000000
Simulation Instructions: 100000000
Number of CPUs: 1
Page size: 4096
STLB ideal mode: off
STLB ideal fill: off
Core 0: /data0/tzh/champsim_traces/Ligra/ligra_Radii.com-lj.ungraph.gcc_6.3.0_O3.drop_25000M.length_250M.champsimtrace.xz
VBerti Prefetcher
No Crossing Page
BERTI HASH ENTANGLING
BERTI IP MASK ffff
Off-chip DRAM Size: 16 GiB Channels: 1 Width: 64-bit Data Rate: 3205 MT/s
Warmup halting CPU 0 at instruction 50000002 cycle 16126479 for remainder of phase
Warmup finished CPU 0 instructions: 50000002 cycles: 16126479 cumulative IPC: 3.1 (Simulation time: 00 hr 03 min 42 sec)
Warmup complete CPU 0 instructions: 50000002 cycles: 16126479 cumulative IPC: 3.1 (Simulation time: 00 hr 03 min 42 sec)
Simulation finished CPU 0 instructions: 100000002 cycles: 359308825 cumulative IPC: 0.2783 (Simulation time: 00 hr 41 min 40 sec)
Simulation complete CPU 0 instructions: 100000002 cycles: 359308825 cumulative IPC: 0.2783 (Simulation time: 00 hr 41 min 40 sec)

ChampSim completed all CPUs

=== Simulation ===
CPU 0 runs /data0/tzh/champsim_traces/Ligra/ligra_Radii.com-lj.ungraph.gcc_6.3.0_O3.drop_25000M.length_250M.champsimtrace.xz

Region of Interest Statistics

CPU 0 cumulative IPC: 0.2783 instructions: 100000002 cycles: 359308825
CPU 0 Branch Prediction Accuracy: 89.63% MPKI: 17.78 Average ROB Occupancy at Mispredict: 26.73
Branch type MPKI
BRANCH_DIRECT_JUMP: 0.00023
BRANCH_INDIRECT: 0
BRANCH_CONDITIONAL: 17.78
BRANCH_DIRECT_CALL: 0
BRANCH_INDIRECT_CALL: 0
BRANCH_RETURN: 0

cpu0->cpu0_STLB TOTAL        ACCESS:    2535557 HIT:     489144 MISS:    2046413 MSHR_MERGE:          0
cpu0->cpu0_STLB LOAD         ACCESS:    2535557 HIT:     489144 MISS:    2046413 MSHR_MERGE:          0
cpu0->cpu0_STLB RFO          ACCESS:          0 HIT:          0 MISS:          0 MSHR_MERGE:          0
cpu0->cpu0_STLB PREFETCH     ACCESS:          0 HIT:          0 MISS:          0 MSHR_MERGE:          0
cpu0->cpu0_STLB WRITE        ACCESS:          0 HIT:          0 MISS:          0 MSHR_MERGE:          0
cpu0->cpu0_STLB TRANSLATION  ACCESS:          0 HIT:          0 MISS:          0 MSHR_MERGE:          0
cpu0->cpu0_STLB PREFETCH REQUESTED:          0 ISSUED:          0 USEFUL:          0 USELESS:          0 LATE:          0
cpu0->cpu0_STLB AVERAGE MISS LATENCY: 75.57 cycles
cpu0->cpu0_L2C TOTAL        ACCESS:   12287206 HIT:    6173360 MISS:    6113846 MSHR_MERGE:     853960
cpu0->cpu0_L2C LOAD         ACCESS:    3179172 HIT:     141989 MISS:    3037183 MSHR_MERGE:      24163
cpu0->cpu0_L2C RFO          ACCESS:     525685 HIT:      65489 MISS:     460196 MSHR_MERGE:      16385
cpu0->cpu0_L2C PREFETCH     ACCESS:    5258504 HIT:    3073702 MISS:    2184802 MSHR_MERGE:     813412
cpu0->cpu0_L2C WRITE        ACCESS:    1606460 HIT:    1606367 MISS:         93 MSHR_MERGE:          0
cpu0->cpu0_L2C TRANSLATION  ACCESS:    1717385 HIT:    1285813 MISS:     431572 MSHR_MERGE:          0
cpu0->cpu0_L2C PREFETCH REQUESTED:    1696818 ISSUED:    1691217 USEFUL:     358570 USELESS:     172180 LATE:      19905
cpu0->cpu0_L2C AVERAGE MISS LATENCY: 280.3 cycles
cpu0->cpu0_L1I TOTAL        ACCESS:    4415411 HIT:    4415411 MISS:          0 MSHR_MERGE:          0
cpu0->cpu0_L1I LOAD         ACCESS:    4415411 HIT:    4415411 MISS:          0 MSHR_MERGE:          0
cpu0->cpu0_L1I RFO          ACCESS:          0 HIT:          0 MISS:          0 MSHR_MERGE:          0
cpu0->cpu0_L1I PREFETCH     ACCESS:          0 HIT:          0 MISS:          0 MSHR_MERGE:          0
cpu0->cpu0_L1I WRITE        ACCESS:          0 HIT:          0 MISS:          0 MSHR_MERGE:          0
cpu0->cpu0_L1I TRANSLATION  ACCESS:          0 HIT:          0 MISS:          0 MSHR_MERGE:          0
cpu0->cpu0_L1I PREFETCH REQUESTED:          0 ISSUED:          0 USEFUL:          0 USELESS:          0 LATE:          0
cpu0->cpu0_L1I AVERAGE MISS LATENCY: - cycles
cpu0->cpu0_L1D TOTAL        ACCESS:   57868147 HIT:   46350300 MISS:   11517847 MSHR_MERGE:    2471920
cpu0->cpu0_L1D LOAD         ACCESS:   20332327 HIT:   16098231 MISS:    4234096 MSHR_MERGE:    1054924
cpu0->cpu0_L1D RFO          ACCESS:          0 HIT:          0 MISS:          0 MSHR_MERGE:          0
cpu0->cpu0_L1D PREFETCH     ACCESS:   24178664 HIT:   20520446 MISS:    3658218 MSHR_MERGE:      34583
cpu0->cpu0_L1D WRITE        ACCESS:    9155881 HIT:    7255457 MISS:    1900424 MSHR_MERGE:    1374689
cpu0->cpu0_L1D TRANSLATION  ACCESS:    4201275 HIT:    2476166 MISS:    1725109 MSHR_MERGE:       7724
cpu0->cpu0_L1D PREFETCH REQUESTED:  108394660 ISSUED:   24178664 USEFUL:     852557 USELESS:      36607 LATE:      21460
cpu0->cpu0_L1D AVERAGE MISS LATENCY: 211.9 cycles
cpu0->cpu0_ITLB TOTAL        ACCESS:    3702275 HIT:    3702275 MISS:          0 MSHR_MERGE:          0
cpu0->cpu0_ITLB LOAD         ACCESS:    3702275 HIT:    3702275 MISS:          0 MSHR_MERGE:          0
cpu0->cpu0_ITLB RFO          ACCESS:          0 HIT:          0 MISS:          0 MSHR_MERGE:          0
cpu0->cpu0_ITLB PREFETCH     ACCESS:          0 HIT:          0 MISS:          0 MSHR_MERGE:          0
cpu0->cpu0_ITLB WRITE        ACCESS:          0 HIT:          0 MISS:          0 MSHR_MERGE:          0
cpu0->cpu0_ITLB TRANSLATION  ACCESS:          0 HIT:          0 MISS:          0 MSHR_MERGE:          0
cpu0->cpu0_ITLB PREFETCH REQUESTED:          0 ISSUED:          0 USEFUL:          0 USELESS:          0 LATE:          0
cpu0->cpu0_ITLB AVERAGE MISS LATENCY: - cycles
cpu0->cpu0_DTLB TOTAL        ACCESS:   43926090 HIT:   40621446 MISS:    3304644 MSHR_MERGE:     769084
cpu0->cpu0_DTLB LOAD         ACCESS:   43926090 HIT:   40621446 MISS:    3304644 MSHR_MERGE:     769084
cpu0->cpu0_DTLB RFO          ACCESS:          0 HIT:          0 MISS:          0 MSHR_MERGE:          0
cpu0->cpu0_DTLB PREFETCH     ACCESS:          0 HIT:          0 MISS:          0 MSHR_MERGE:          0
cpu0->cpu0_DTLB WRITE        ACCESS:          0 HIT:          0 MISS:          0 MSHR_MERGE:          0
cpu0->cpu0_DTLB TRANSLATION  ACCESS:          0 HIT:          0 MISS:          0 MSHR_MERGE:          0
cpu0->cpu0_DTLB PREFETCH REQUESTED:          0 ISSUED:          0 USEFUL:          0 USELESS:          0 LATE:          0
cpu0->cpu0_DTLB AVERAGE MISS LATENCY: 66.81 cycles
cpu0->LLC TOTAL        ACCESS:    6848588 HIT:    1726781 MISS:    5121807 MSHR_MERGE:      35757
cpu0->LLC LOAD         ACCESS:    3013020 HIT:      96808 MISS:    2916212 MSHR_MERGE:       2726
cpu0->LLC RFO          ACCESS:     443811 HIT:      23204 MISS:     420607 MSHR_MERGE:        676
cpu0->LLC PREFETCH     ACCESS:    1371327 HIT:     116454 MISS:    1254873 MSHR_MERGE:      32355
cpu0->LLC WRITE        ACCESS:    1588858 HIT:    1140911 MISS:     447947 MSHR_MERGE:          0
cpu0->LLC TRANSLATION  ACCESS:     431572 HIT:     349404 MISS:      82168 MSHR_MERGE:          0
cpu0->LLC PREFETCH REQUESTED:          0 ISSUED:          0 USEFUL:          0 USELESS:          0 LATE:          0
cpu0->LLC AVERAGE MISS LATENCY: 267.9 cycles

DRAM Statistics

Channel 0 RQ ROW_BUFFER_HIT:     112209
  ROW_BUFFER_MISS:    4525421
  AVG DBUS CONGESTED CYCLE: 7.655
Channel 0 WQ ROW_BUFFER_HIT:     346253
  ROW_BUFFER_MISS:    1186546
  FULL:          0
Channel 0 REFRESHES ISSUED:      29943

[ROI Statistics]
[System Configuration]
num_cpus 1
cpu_freq 4000
fetch_width 6
decode_width 6
dispatch_width 6
execute_width 6
lq_width 2
sq_width 2
retire_width 6
scheduler_size 128
branch_mispredict_penalty 15
rob_size 352
lq_size 128
sq_size 72
ifetch_buffer_size 64
decode_buffer_size 32
dispatch_buffer_size 32
register_file_size 288
decode_latency 1
dispatch_latency 1
schedule_latency 1
execute_latency 1
page_size 4096
block_size 64
core_0_itlb_set 16
core_0_itlb_way 4
core_0_itlb_rq_size 16
core_0_itlb_wq_size 16
core_0_itlb_pq_size 0
core_0_itlb_mshr_size 8
core_0_itlb_hit_latency 1
core_0_itlb_fill_latency 1
core_0_itlb_max_tag_check 2
core_0_itlb_max_fill 2
core_0_dtlb_set 16
core_0_dtlb_way 4
core_0_dtlb_rq_size 16
core_0_dtlb_wq_size 16
core_0_dtlb_pq_size 0
core_0_dtlb_mshr_size 8
core_0_dtlb_hit_latency 1
core_0_dtlb_fill_latency 1
core_0_dtlb_max_tag_check 2
core_0_dtlb_max_fill 2
core_0_stlb_set 128
core_0_stlb_way 12
core_0_stlb_rq_size 32
core_0_stlb_wq_size 32
core_0_stlb_pq_size 0
core_0_stlb_mshr_size 16
core_0_stlb_hit_latency 4
core_0_stlb_fill_latency 4
core_0_stlb_max_tag_check 1
core_0_stlb_max_fill 1
core_0_l1i_set 64
core_0_l1i_way 8
core_0_l1i_rq_size 64
core_0_l1i_wq_size 64
core_0_l1i_pq_size 32
core_0_l1i_mshr_size 8
core_0_l1i_hit_latency 2
core_0_l1i_fill_latency 2
core_0_l1i_max_tag_check 2
core_0_l1i_max_fill 2
core_0_l1d_set 64
core_0_l1d_way 12
core_0_l1d_rq_size 64
core_0_l1d_wq_size 64
core_0_l1d_pq_size 8
core_0_l1d_mshr_size 16
core_0_l1d_hit_latency 2
core_0_l1d_fill_latency 3
core_0_l1d_max_tag_check 2
core_0_l1d_max_fill 2
core_0_l2c_set 1024
core_0_l2c_way 8
core_0_l2c_rq_size 32
core_0_l2c_wq_size 32
core_0_l2c_pq_size 16
core_0_l2c_mshr_size 32
core_0_l2c_hit_latency 5
core_0_l2c_fill_latency 5
core_0_l2c_max_tag_check 1
core_0_l2c_max_fill 1
llc_set 2048
llc_way 16
llc_rq_size 32
llc_wq_size 32
llc_pq_size 32
llc_mshr_size 64
llc_hit_latency 10
llc_fill_latency 10
llc_max_tag_check 1
llc_max_fill 1
dram_channels 1
dram_ranks 1
dram_bankgroups 8
dram_banks 4
dram_rows 65536
dram_columns 1024
dram_channel_width 8
dram_rq_size 64
dram_wq_size 64
dram_size 17179869184
core_0_itlb_prefetcher no
core_0_dtlb_prefetcher no
core_0_stlb_prefetcher no
core_0_l1i_prefetcher next_line
core_0_l1d_prefetcher vberti_nocross
core_0_l2c_prefetcher ip_stride
llc_prefetcher no
llc_replacement drrip

Core_0_instructions 100000002
Core_0_cycles 359308825
Core_0_IPC 0.278312
Core_0_branch_prediction_accuracy 89.6276
Core_0_branch_MPKI 17.7772
Core_0_average_ROB_occupancy_at_mispredict 26.7341

Core_0_ITLB_total_access 3702275
Core_0_ITLB_total_hit 3702275
Core_0_ITLB_total_miss 0
Core_0_ITLB_total_MPKI 0
Core_0_ITLB_total_miss_rate 0
Core_0_ITLB_demand_access 3702275
Core_0_ITLB_demand_hit 3702275
Core_0_ITLB_demand_miss 0
Core_0_ITLB_demand_MPKI 0
Core_0_ITLB_demand_miss_rate 0
Core_0_ITLB_load_access 3702275
Core_0_ITLB_load_hit 3702275
Core_0_ITLB_load_miss 0
Core_0_ITLB_load_MPKI 0
Core_0_ITLB_load_miss_rate 0
Core_0_ITLB_rfo_access 0
Core_0_ITLB_rfo_hit 0
Core_0_ITLB_rfo_miss 0
Core_0_ITLB_rfo_MPKI 0
Core_0_ITLB_rfo_miss_rate 0
Core_0_ITLB_prefetch_access 0
Core_0_ITLB_prefetch_hit 0
Core_0_ITLB_prefetch_miss 0
Core_0_ITLB_prefetch_MPKI 0
Core_0_ITLB_prefetch_miss_rate 0
Core_0_ITLB_writeback_access 0
Core_0_ITLB_writeback_hit 0
Core_0_ITLB_writeback_miss 0
Core_0_ITLB_writeback_MPKI 0
Core_0_ITLB_writeback_miss_rate 0
Core_0_ITLB_prefetch_requested 0
Core_0_ITLB_prefetch_issued 0
Core_0_ITLB_prefetch_useful 0
Core_0_ITLB_prefetch_useless 0
Core_0_ITLB_prefetch_late 0
Core_0_ITLB_prefetch_accuracy 0
Core_0_ITLB_prefetch_coverage 0
Core_0_ITLB_total_eviction 0

Core_0_DTLB_total_access 43926090
Core_0_DTLB_total_hit 40621446
Core_0_DTLB_total_miss 3304644
Core_0_DTLB_total_MPKI 33.0464
Core_0_DTLB_total_miss_rate 0.0752319
Core_0_DTLB_demand_access 43926090
Core_0_DTLB_demand_hit 40621446
Core_0_DTLB_demand_miss 3304644
Core_0_DTLB_demand_MPKI 33.0464
Core_0_DTLB_demand_miss_rate 0.0752319
Core_0_DTLB_load_access 43926090
Core_0_DTLB_load_hit 40621446
Core_0_DTLB_load_miss 3304644
Core_0_DTLB_load_MPKI 33.0464
Core_0_DTLB_load_miss_rate 0.0752319
Core_0_DTLB_rfo_access 0
Core_0_DTLB_rfo_hit 0
Core_0_DTLB_rfo_miss 0
Core_0_DTLB_rfo_MPKI 0
Core_0_DTLB_rfo_miss_rate 0
Core_0_DTLB_prefetch_access 0
Core_0_DTLB_prefetch_hit 0
Core_0_DTLB_prefetch_miss 0
Core_0_DTLB_prefetch_MPKI 0
Core_0_DTLB_prefetch_miss_rate 0
Core_0_DTLB_writeback_access 0
Core_0_DTLB_writeback_hit 0
Core_0_DTLB_writeback_miss 0
Core_0_DTLB_writeback_MPKI 0
Core_0_DTLB_writeback_miss_rate 0
Core_0_DTLB_prefetch_requested 0
Core_0_DTLB_prefetch_issued 0
Core_0_DTLB_prefetch_useful 0
Core_0_DTLB_prefetch_useless 0
Core_0_DTLB_prefetch_late 0
Core_0_DTLB_prefetch_accuracy 0
Core_0_DTLB_prefetch_coverage 0
Core_0_DTLB_total_eviction 2535560

Core_0_STLB_total_access 2535557
Core_0_STLB_total_hit 489144
Core_0_STLB_total_miss 2046413
Core_0_STLB_total_MPKI 20.4641
Core_0_STLB_total_miss_rate 0.807086
Core_0_STLB_demand_access 2535557
Core_0_STLB_demand_hit 489144
Core_0_STLB_demand_miss 2046413
Core_0_STLB_demand_MPKI 20.4641
Core_0_STLB_demand_miss_rate 0.807086
Core_0_STLB_load_access 2535557
Core_0_STLB_load_hit 489144
Core_0_STLB_load_miss 2046413
Core_0_STLB_load_MPKI 20.4641
Core_0_STLB_load_miss_rate 0.807086
Core_0_STLB_rfo_access 0
Core_0_STLB_rfo_hit 0
Core_0_STLB_rfo_miss 0
Core_0_STLB_rfo_MPKI 0
Core_0_STLB_rfo_miss_rate 0
Core_0_STLB_prefetch_access 0
Core_0_STLB_prefetch_hit 0
Core_0_STLB_prefetch_miss 0
Core_0_STLB_prefetch_MPKI 0
Core_0_STLB_prefetch_miss_rate 0
Core_0_STLB_writeback_access 0
Core_0_STLB_writeback_hit 0
Core_0_STLB_writeback_miss 0
Core_0_STLB_writeback_MPKI 0
Core_0_STLB_writeback_miss_rate 0
Core_0_STLB_prefetch_requested 0
Core_0_STLB_prefetch_issued 0
Core_0_STLB_prefetch_useful 0
Core_0_STLB_prefetch_useless 0
Core_0_STLB_prefetch_late 0
Core_0_STLB_prefetch_accuracy 0
Core_0_STLB_prefetch_coverage 0
Core_0_STLB_total_eviction 2046416

Core_0_L1I_total_access 4415411
Core_0_L1I_total_hit 4415411
Core_0_L1I_total_miss 0
Core_0_L1I_total_MPKI 0
Core_0_L1I_total_miss_rate 0
Core_0_L1I_demand_access 4415411
Core_0_L1I_demand_hit 4415411
Core_0_L1I_demand_miss 0
Core_0_L1I_demand_MPKI 0
Core_0_L1I_demand_miss_rate 0
Core_0_L1I_load_access 4415411
Core_0_L1I_load_hit 4415411
Core_0_L1I_load_miss 0
Core_0_L1I_load_MPKI 0
Core_0_L1I_load_miss_rate 0
Core_0_L1I_rfo_access 0
Core_0_L1I_rfo_hit 0
Core_0_L1I_rfo_miss 0
Core_0_L1I_rfo_MPKI 0
Core_0_L1I_rfo_miss_rate 0
Core_0_L1I_prefetch_access 0
Core_0_L1I_prefetch_hit 0
Core_0_L1I_prefetch_miss 0
Core_0_L1I_prefetch_MPKI 0
Core_0_L1I_prefetch_miss_rate 0
Core_0_L1I_writeback_access 0
Core_0_L1I_writeback_hit 0
Core_0_L1I_writeback_miss 0
Core_0_L1I_writeback_MPKI 0
Core_0_L1I_writeback_miss_rate 0
Core_0_L1I_prefetch_requested 0
Core_0_L1I_prefetch_issued 0
Core_0_L1I_prefetch_useful 0
Core_0_L1I_prefetch_useless 0
Core_0_L1I_prefetch_late 0
Core_0_L1I_prefetch_accuracy 0
Core_0_L1I_prefetch_coverage 0
Core_0_L1I_total_eviction 0

Core_0_L1D_total_access 53666872
Core_0_L1D_total_hit 43874134
Core_0_L1D_total_miss 9792738
Core_0_L1D_total_MPKI 97.9274
Core_0_L1D_total_miss_rate 0.182473
Core_0_L1D_demand_access 20332327
Core_0_L1D_demand_hit 16098231
Core_0_L1D_demand_miss 4234096
Core_0_L1D_demand_MPKI 42.341
Core_0_L1D_demand_miss_rate 0.208245
Core_0_L1D_load_access 20332327
Core_0_L1D_load_hit 16098231
Core_0_L1D_load_miss 4234096
Core_0_L1D_load_MPKI 42.341
Core_0_L1D_load_miss_rate 0.208245
Core_0_L1D_rfo_access 0
Core_0_L1D_rfo_hit 0
Core_0_L1D_rfo_miss 0
Core_0_L1D_rfo_MPKI 0
Core_0_L1D_rfo_miss_rate 0
Core_0_L1D_prefetch_access 24178664
Core_0_L1D_prefetch_hit 20520446
Core_0_L1D_prefetch_miss 3658218
Core_0_L1D_prefetch_MPKI 36.5822
Core_0_L1D_prefetch_miss_rate 0.151299
Core_0_L1D_writeback_access 9155881
Core_0_L1D_writeback_hit 7255457
Core_0_L1D_writeback_miss 1900424
Core_0_L1D_writeback_MPKI 19.0042
Core_0_L1D_writeback_miss_rate 0.207563
Core_0_L1D_prefetch_requested 108394660
Core_0_L1D_prefetch_issued 24178664
Core_0_L1D_prefetch_useful 852557
Core_0_L1D_prefetch_useless 36607
Core_0_L1D_prefetch_late 21460
Core_0_L1D_prefetch_accuracy 0.0352607
Core_0_L1D_prefetch_coverage 0.167607
Core_0_L1D_total_eviction 6311445

Core_0_L2C_total_access 10569821
Core_0_L2C_total_hit 4887547
Core_0_L2C_total_miss 5682274
Core_0_L2C_total_MPKI 56.8227
Core_0_L2C_total_miss_rate 0.537594
Core_0_L2C_demand_access 3704857
Core_0_L2C_demand_hit 207478
Core_0_L2C_demand_miss 3497379
Core_0_L2C_demand_MPKI 34.9738
Core_0_L2C_demand_miss_rate 0.943998
Core_0_L2C_load_access 3179172
Core_0_L2C_load_hit 141989
Core_0_L2C_load_miss 3037183
Core_0_L2C_load_MPKI 30.3718
Core_0_L2C_load_miss_rate 0.955338
Core_0_L2C_rfo_access 525685
Core_0_L2C_rfo_hit 65489
Core_0_L2C_rfo_miss 460196
Core_0_L2C_rfo_MPKI 4.60196
Core_0_L2C_rfo_miss_rate 0.875422
Core_0_L2C_prefetch_access 5258504
Core_0_L2C_prefetch_hit 3073702
Core_0_L2C_prefetch_miss 2184802
Core_0_L2C_prefetch_MPKI 21.848
Core_0_L2C_prefetch_miss_rate 0.41548
Core_0_L2C_writeback_access 1606460
Core_0_L2C_writeback_hit 1606367
Core_0_L2C_writeback_miss 93
Core_0_L2C_writeback_MPKI 0.00093
Core_0_L2C_writeback_miss_rate 5.78913e-05
Core_0_L2C_prefetch_requested 1696818
Core_0_L2C_prefetch_issued 1691217
Core_0_L2C_prefetch_useful 358570
Core_0_L2C_prefetch_useless 172180
Core_0_L2C_prefetch_late 19905
Core_0_L2C_prefetch_accuracy 0.212019
Core_0_L2C_prefetch_coverage 0.0929914
Core_0_L2C_total_eviction 5171432

Core_0_LLC_total_access 6417016
Core_0_LLC_total_hit 1377377
Core_0_LLC_total_miss 5039639
Core_0_LLC_total_MPKI 50.3964
Core_0_LLC_total_miss_rate 0.785356
Core_0_LLC_demand_access 3456831
Core_0_LLC_demand_hit 120012
Core_0_LLC_demand_miss 3336819
Core_0_LLC_demand_MPKI 33.3682
Core_0_LLC_demand_miss_rate 0.965283
Core_0_LLC_load_access 3013020
Core_0_LLC_load_hit 96808
Core_0_LLC_load_miss 2916212
Core_0_LLC_load_MPKI 29.1621
Core_0_LLC_load_miss_rate 0.96787
Core_0_LLC_rfo_access 443811
Core_0_LLC_rfo_hit 23204
Core_0_LLC_rfo_miss 420607
Core_0_LLC_rfo_MPKI 4.20607
Core_0_LLC_rfo_miss_rate 0.947716
Core_0_LLC_prefetch_access 1371327
Core_0_LLC_prefetch_hit 116454
Core_0_LLC_prefetch_miss 1254873
Core_0_LLC_prefetch_MPKI 12.5487
Core_0_LLC_prefetch_miss_rate 0.915079
Core_0_LLC_writeback_access 1588858
Core_0_LLC_writeback_hit 1140911
Core_0_LLC_writeback_miss 447947
Core_0_LLC_writeback_MPKI 4.47947
Core_0_LLC_writeback_miss_rate 0.28193
Core_0_LLC_prefetch_requested 0
Core_0_LLC_prefetch_issued 0
Core_0_LLC_prefetch_useful 0
Core_0_LLC_prefetch_useless 0
Core_0_LLC_prefetch_late 0
Core_0_LLC_prefetch_accuracy 0
Core_0_LLC_prefetch_coverage 0
Core_0_LLC_total_eviction 5086035

[DRAM Statistics]
Channel_0_RQ_row_buffer_hit 112209
Channel_0_RQ_row_buffer_miss 4525421
Channel_0_WQ_row_buffer_hit 346253
Channel_0_WQ_row_buffer_miss 1186546
Channel_0_WQ_full 0
Channel_0_dbus_congested 17986375
DRAM_total_RQ_row_buffer_hit 112209
DRAM_total_RQ_row_buffer_miss 4525421
DRAM_total_WQ_row_buffer_hit 346253
DRAM_total_WQ_row_buffer_miss 1186546
DRAM_total_WQ_full 0
DRAM_total_dbus_congested 17986375
DRAM_avg_congested_cycle 7.65511

======STLB miss causes ========
Core_0_STLB_miss_cause_breakdown
Core_0_STLB_cause_Demand_Data_miss 2046411
Core_0_STLB_cause_Demand_Data_miss_rate 0.807085
Core_0_STLB_cause_Demand_Instruction_miss 0
Core_0_STLB_cause_Demand_Instruction_miss_rate 0
Core_0_STLB_cause_L1D_Prefetch_miss 2
Core_0_STLB_cause_L1D_Prefetch_miss_rate 7.88781e-07
Core_0_STLB_cause_L1I_Prefetch_miss 0
Core_0_STLB_cause_L1I_Prefetch_miss_rate 0
Core_0_STLB_cause_Other_miss 0
Core_0_STLB_cause_Other_miss_rate 0
Core_0_STLB_Demand_miss 2046411
Core_0_STLB_Demand_miss_rate 0.807085
Core_0_STLB_L1D_Prefetch_miss 2
Core_0_STLB_L1D_Prefetch_miss_rate 7.88781e-07
Core_0_STLB_Other_miss 0
Core_0_STLB_Other_miss_rate 0
BERTI TO_L1: 108958335 TO_L2: 50374630 TO_L2_BC_MSHR: 18364534
BERTI AVG_LAT: 194.557 NUM_TRACK_LATENCY: 6799647 NUM_CANT_TRACK_LATENCY: 1036
BERTI CROSS_PAGE 25925193 NO_CROSS_PAGE: 159332965
BERTI FOUND_BERTI: 63009760 NO_FOUND_BERTI: 9746291
BERTI AVERAGE_ISSUED: 2.88646
