[VMEM] WARNING: physical memory size is smaller than virtual memory size.

*** ChampSim Multicore Out-of-Order Simulator ***
Warmup Instructions: 50000000
Simulation Instructions: 100000000
Number of CPUs: 1
Page size: 4096
STLB ideal mode: off
STLB ideal fill: off
Core 0: /data2/zcq/champsim_traces_gap/pr.twitter-2161B.champsimtrace.xz
VBerti Prefetcher
No Crossing Page
BERTI HASH ENTANGLING
BERTI IP MASK ffff
Off-chip DRAM Size: 16 GiB Channels: 1 Width: 64-bit Data Rate: 3205 MT/s
Warmup halting CPU 0 at instruction 50000000 cycle 20145151 for remainder of phase
Warmup finished CPU 0 instructions: 50000000 cycles: 20145151 cumulative IPC: 2.482 (Simulation time: 00 hr 04 min 57 sec)
Warmup complete CPU 0 instructions: 50000000 cycles: 20145151 cumulative IPC: 2.482 (Simulation time: 00 hr 04 min 57 sec)
Simulation CPU 0 warning: IPC 0.039579 < 0.05
Simulation CPU 0 warning: IPC 0.048794 < 0.05
Simulation CPU 0 warning: IPC 0.046649 < 0.05
Simulation CPU 0 warning: IPC 0.032316 < 0.05
Simulation CPU 0 warning: IPC 0.029983 < 0.05
Simulation CPU 0 warning: IPC 0.027367 < 0.05
Simulation CPU 0 warning: IPC 0.026903 < 0.05
Simulation CPU 0 warning: IPC 0.031298 < 0.05
Simulation CPU 0 warning: IPC 0.031453 < 0.05
Simulation CPU 0 warning: IPC 0.031842 < 0.05
Simulation CPU 0 warning: IPC 0.031426 < 0.05
Simulation CPU 0 warning: IPC 0.030531 < 0.05
Simulation CPU 0 warning: IPC 0.029403 < 0.05
Simulation CPU 0 warning: IPC 0.030363 < 0.05
Simulation CPU 0 warning: IPC 0.030062 < 0.05
Simulation CPU 0 warning: IPC 0.0316 < 0.05
Simulation CPU 0 warning: IPC 0.033765 < 0.05
Simulation CPU 0 warning: IPC 0.032492 < 0.05
Simulation CPU 0 warning: IPC 0.030967 < 0.05
Simulation CPU 0 warning: IPC 0.03021 < 0.05
Simulation CPU 0 warning: IPC 0.034789 < 0.05
Simulation CPU 0 warning: IPC 0.033224 < 0.05
Simulation CPU 0 warning: IPC 0.031084 < 0.05
Simulation CPU 0 warning: IPC 0.028258 < 0.05
Simulation CPU 0 warning: IPC 0.028925 < 0.05
Simulation CPU 0 warning: IPC 0.030404 < 0.05
Simulation CPU 0 warning: IPC 0.031938 < 0.05
Simulation CPU 0 warning: IPC 0.029711 < 0.05
Simulation CPU 0 warning: IPC 0.027822 < 0.05
Simulation CPU 0 warning: IPC 0.031234 < 0.05
Simulation CPU 0 warning: IPC 0.030123 < 0.05
Simulation CPU 0 warning: IPC 0.034931 < 0.05
Simulation CPU 0 warning: IPC 0.025996 < 0.05
Simulation CPU 0 warning: IPC 0.027922 < 0.05
Simulation CPU 0 warning: IPC 0.025195 < 0.05
Simulation CPU 0 warning: IPC 0.026279 < 0.05
Simulation CPU 0 warning: IPC 0.024224 < 0.05
Simulation CPU 0 warning: IPC 0.024365 < 0.05
Simulation CPU 0 warning: IPC 0.023391 < 0.05
Simulation CPU 0 warning: IPC 0.02895 < 0.05
Simulation CPU 0 warning: IPC 0.028488 < 0.05
Simulation CPU 0 warning: IPC 0.024813 < 0.05
Simulation CPU 0 warning: IPC 0.03209 < 0.05
Simulation CPU 0 warning: IPC 0.031042 < 0.05
Simulation CPU 0 warning: IPC 0.031725 < 0.05
Simulation CPU 0 warning: IPC 0.027875 < 0.05
Simulation CPU 0 warning: IPC 0.031822 < 0.05
Simulation CPU 0 warning: IPC 0.028773 < 0.05
Simulation CPU 0 warning: IPC 0.030053 < 0.05
Simulation CPU 0 warning: IPC 0.028323 < 0.05
Simulation CPU 0 warning: IPC 0.02821 < 0.05
Simulation CPU 0 warning: IPC 0.027515 < 0.05
Simulation CPU 0 warning: IPC 0.029964 < 0.05
Simulation CPU 0 warning: IPC 0.027846 < 0.05
Simulation CPU 0 warning: IPC 0.026544 < 0.05
Simulation CPU 0 warning: IPC 0.028103 < 0.05
Simulation CPU 0 warning: IPC 0.026792 < 0.05
Simulation CPU 0 warning: IPC 0.029057 < 0.05
Simulation CPU 0 warning: IPC 0.029451 < 0.05
Simulation CPU 0 warning: IPC 0.027844 < 0.05
Simulation CPU 0 warning: IPC 0.030255 < 0.05
Simulation CPU 0 warning: IPC 0.025432 < 0.05
Simulation CPU 0 warning: IPC 0.042222 < 0.05
Simulation CPU 0 warning: IPC 0.044116 < 0.05
Simulation CPU 0 warning: IPC 0.046763 < 0.05
Simulation CPU 0 warning: IPC 0.047235 < 0.05
Simulation CPU 0 warning: IPC 0.033445 < 0.05
Simulation CPU 0 warning: IPC 0.02864 < 0.05
Simulation CPU 0 warning: IPC 0.031248 < 0.05
Simulation CPU 0 warning: IPC 0.028705 < 0.05
Simulation CPU 0 warning: IPC 0.032997 < 0.05
Simulation CPU 0 warning: IPC 0.033977 < 0.05
Simulation CPU 0 warning: IPC 0.032131 < 0.05
Simulation CPU 0 warning: IPC 0.037813 < 0.05
Simulation CPU 0 warning: IPC 0.033687 < 0.05
Simulation CPU 0 warning: IPC 0.041942 < 0.05
Simulation CPU 0 warning: IPC 0.033882 < 0.05
Simulation CPU 0 warning: IPC 0.037745 < 0.05
Simulation CPU 0 warning: IPC 0.037274 < 0.05
Simulation CPU 0 warning: IPC 0.045983 < 0.05
Simulation CPU 0 warning: IPC 0.046746 < 0.05
Simulation CPU 0 warning: IPC 0.041562 < 0.05
Simulation CPU 0 warning: IPC 0.039399 < 0.05
Simulation CPU 0 warning: IPC 0.045242 < 0.05
Simulation CPU 0 warning: IPC 0.043533 < 0.05
Simulation CPU 0 warning: IPC 0.033967 < 0.05
Simulation CPU 0 warning: IPC 0.032215 < 0.05
Simulation CPU 0 warning: IPC 0.040704 < 0.05
Simulation CPU 0 warning: IPC 0.03456 < 0.05
Simulation CPU 0 warning: IPC 0.034327 < 0.05
Simulation CPU 0 warning: IPC 0.032626 < 0.05
Simulation CPU 0 warning: IPC 0.033392 < 0.05
Simulation CPU 0 warning: IPC 0.030289 < 0.05
Simulation CPU 0 warning: IPC 0.026478 < 0.05
Simulation CPU 0 warning: IPC 0.027535 < 0.05
Simulation CPU 0 warning: IPC 0.026186 < 0.05
Simulation CPU 0 warning: IPC 0.026378 < 0.05
Simulation CPU 0 warning: IPC 0.026537 < 0.05
Simulation CPU 0 warning: IPC 0.026823 < 0.05
Simulation CPU 0 warning: IPC 0.028907 < 0.05
Simulation CPU 0 warning: IPC 0.032503 < 0.05
Simulation CPU 0 warning: IPC 0.038606 < 0.05
Simulation CPU 0 warning: IPC 0.04139 < 0.05
Simulation CPU 0 warning: IPC 0.031478 < 0.05
Simulation CPU 0 warning: IPC 0.034021 < 0.05
Simulation CPU 0 warning: IPC 0.038788 < 0.05
Simulation CPU 0 warning: IPC 0.046109 < 0.05
Simulation CPU 0 warning: IPC 0.035896 < 0.05
Simulation CPU 0 warning: IPC 0.043116 < 0.05
Simulation CPU 0 warning: IPC 0.04529 < 0.05
Simulation CPU 0 warning: IPC 0.046071 < 0.05
Simulation CPU 0 warning: IPC 0.043109 < 0.05
Simulation CPU 0 warning: IPC 0.039438 < 0.05
Simulation CPU 0 warning: IPC 0.034751 < 0.05
Simulation CPU 0 warning: IPC 0.035772 < 0.05
Simulation CPU 0 warning: IPC 0.04045 < 0.05
Simulation CPU 0 warning: IPC 0.041736 < 0.05
Simulation CPU 0 warning: IPC 0.03922 < 0.05
Simulation CPU 0 warning: IPC 0.0482 < 0.05
Simulation CPU 0 warning: IPC 0.042986 < 0.05
Simulation CPU 0 warning: IPC 0.048067 < 0.05
Simulation CPU 0 warning: IPC 0.042573 < 0.05
Simulation CPU 0 warning: IPC 0.035117 < 0.05
Simulation CPU 0 warning: IPC 0.046694 < 0.05
Simulation CPU 0 warning: IPC 0.043216 < 0.05
Simulation CPU 0 warning: IPC 0.035589 < 0.05
Simulation CPU 0 warning: IPC 0.039088 < 0.05
Simulation CPU 0 warning: IPC 0.03933 < 0.05
Simulation CPU 0 warning: IPC 0.039342 < 0.05
Simulation CPU 0 warning: IPC 0.045312 < 0.05
Simulation CPU 0 warning: IPC 0.045689 < 0.05
Simulation finished CPU 0 instructions: 100000002 cycles: 1978816838 cumulative IPC: 0.05054 (Simulation time: 03 hr 00 min 26 sec)
Simulation complete CPU 0 instructions: 100000002 cycles: 1978816838 cumulative IPC: 0.05054 (Simulation time: 03 hr 00 min 26 sec)

ChampSim completed all CPUs

=== Simulation ===
CPU 0 runs /data2/zcq/champsim_traces_gap/pr.twitter-2161B.champsimtrace.xz

Region of Interest Statistics

CPU 0 cumulative IPC: 0.05054 instructions: 100000002 cycles: 1978816838
CPU 0 Branch Prediction Accuracy: 98.81% MPKI: 2.336 Average ROB Occupancy at Mispredict: 258.4
Branch type MPKI
BRANCH_DIRECT_JUMP: 0
BRANCH_INDIRECT: 0
BRANCH_CONDITIONAL: 2.336
BRANCH_DIRECT_CALL: 0
BRANCH_INDIRECT_CALL: 0
BRANCH_RETURN: 0

cpu0->cpu0_STLB TOTAL        ACCESS:    8367838 HIT:    1173981 MISS:    7193857 MSHR_MERGE:          0
cpu0->cpu0_STLB LOAD         ACCESS:    8367838 HIT:    1173981 MISS:    7193857 MSHR_MERGE:          0
cpu0->cpu0_STLB RFO          ACCESS:          0 HIT:          0 MISS:          0 MSHR_MERGE:          0
cpu0->cpu0_STLB PREFETCH     ACCESS:          0 HIT:          0 MISS:          0 MSHR_MERGE:          0
cpu0->cpu0_STLB WRITE        ACCESS:          0 HIT:          0 MISS:          0 MSHR_MERGE:          0
cpu0->cpu0_STLB TRANSLATION  ACCESS:          0 HIT:          0 MISS:          0 MSHR_MERGE:          0
cpu0->cpu0_STLB PREFETCH REQUESTED:          0 ISSUED:          0 USEFUL:          0 USELESS:          0 LATE:          0
cpu0->cpu0_STLB AVERAGE MISS LATENCY: 28.67 cycles
cpu0->cpu0_L2C TOTAL        ACCESS:   38874565 HIT:   16864175 MISS:   22010390 MSHR_MERGE:    6799610
cpu0->cpu0_L2C LOAD         ACCESS:    9220266 HIT:    1095633 MISS:    8124633 MSHR_MERGE:      50340
cpu0->cpu0_L2C RFO          ACCESS:       7112 HIT:       6187 MISS:        925 MSHR_MERGE:          0
cpu0->cpu0_L2C PREFETCH     ACCESS:   23381105 HIT:   12898811 MISS:   10482294 MSHR_MERGE:    6749270
cpu0->cpu0_L2C WRITE        ACCESS:      30470 HIT:      30460 MISS:         10 MSHR_MERGE:          0
cpu0->cpu0_L2C TRANSLATION  ACCESS:    6235612 HIT:    2833084 MISS:    3402528 MSHR_MERGE:          0
cpu0->cpu0_L2C PREFETCH REQUESTED:    9677198 ISSUED:    7633352 USEFUL:     887321 USELESS:     665197 LATE:      33916
cpu0->cpu0_L2C AVERAGE MISS LATENCY: 135.8 cycles
cpu0->cpu0_L1I TOTAL        ACCESS:   16567374 HIT:   16567374 MISS:          0 MSHR_MERGE:          0
cpu0->cpu0_L1I LOAD         ACCESS:   16567374 HIT:   16567374 MISS:          0 MSHR_MERGE:          0
cpu0->cpu0_L1I RFO          ACCESS:          0 HIT:          0 MISS:          0 MSHR_MERGE:          0
cpu0->cpu0_L1I PREFETCH     ACCESS:          0 HIT:          0 MISS:          0 MSHR_MERGE:          0
cpu0->cpu0_L1I WRITE        ACCESS:          0 HIT:          0 MISS:          0 MSHR_MERGE:          0
cpu0->cpu0_L1I TRANSLATION  ACCESS:          0 HIT:          0 MISS:          0 MSHR_MERGE:          0
cpu0->cpu0_L1I PREFETCH REQUESTED:          0 ISSUED:          0 USEFUL:          0 USELESS:          0 LATE:          0
cpu0->cpu0_L1I AVERAGE MISS LATENCY: - cycles
cpu0->cpu0_L1D TOTAL        ACCESS:  133713851 HIT:  101081292 MISS:   32632559 MSHR_MERGE:    1344943
cpu0->cpu0_L1D LOAD         ACCESS:   38977004 HIT:   28466021 MISS:   10510983 MSHR_MERGE:    1290723
cpu0->cpu0_L1D RFO          ACCESS:          0 HIT:          0 MISS:          0 MSHR_MERGE:          0
cpu0->cpu0_L1D PREFETCH     ACCESS:   78791702 HIT:   62927077 MISS:   15864625 MSHR_MERGE:      39993
cpu0->cpu0_L1D WRITE        ACCESS:     262276 HIT:     240940 MISS:      21336 MSHR_MERGE:      14224
cpu0->cpu0_L1D TRANSLATION  ACCESS:   15682869 HIT:    9447254 MISS:    6235615 MSHR_MERGE:          3
cpu0->cpu0_L1D PREFETCH REQUESTED:  102793585 ISSUED:   78791694 USEFUL:    2075932 USELESS:     619899 LATE:     106758
cpu0->cpu0_L1D AVERAGE MISS LATENCY: 109.9 cycles
cpu0->cpu0_ITLB TOTAL        ACCESS:   16567374 HIT:   16567374 MISS:          0 MSHR_MERGE:          0
cpu0->cpu0_ITLB LOAD         ACCESS:   16567374 HIT:   16567374 MISS:          0 MSHR_MERGE:          0
cpu0->cpu0_ITLB RFO          ACCESS:          0 HIT:          0 MISS:          0 MSHR_MERGE:          0
cpu0->cpu0_ITLB PREFETCH     ACCESS:          0 HIT:          0 MISS:          0 MSHR_MERGE:          0
cpu0->cpu0_ITLB WRITE        ACCESS:          0 HIT:          0 MISS:          0 MSHR_MERGE:          0
cpu0->cpu0_ITLB TRANSLATION  ACCESS:          0 HIT:          0 MISS:          0 MSHR_MERGE:          0
cpu0->cpu0_ITLB PREFETCH REQUESTED:          0 ISSUED:          0 USEFUL:          0 USELESS:          0 LATE:          0
cpu0->cpu0_ITLB AVERAGE MISS LATENCY: - cycles
cpu0->cpu0_DTLB TOTAL        ACCESS:   89575971 HIT:   81052463 MISS:    8523508 MSHR_MERGE:     155670
cpu0->cpu0_DTLB LOAD         ACCESS:   89575971 HIT:   81052463 MISS:    8523508 MSHR_MERGE:     155670
cpu0->cpu0_DTLB RFO          ACCESS:          0 HIT:          0 MISS:          0 MSHR_MERGE:          0
cpu0->cpu0_DTLB PREFETCH     ACCESS:          0 HIT:          0 MISS:          0 MSHR_MERGE:          0
cpu0->cpu0_DTLB WRITE        ACCESS:          0 HIT:          0 MISS:          0 MSHR_MERGE:          0
cpu0->cpu0_DTLB TRANSLATION  ACCESS:          0 HIT:          0 MISS:          0 MSHR_MERGE:          0
cpu0->cpu0_DTLB PREFETCH REQUESTED:          0 ISSUED:          0 USEFUL:          0 USELESS:          0 LATE:          0
cpu0->cpu0_DTLB AVERAGE MISS LATENCY: 30.51 cycles
cpu0->LLC TOTAL        ACCESS:   15226913 HIT:    4279911 MISS:   10947002 MSHR_MERGE:      20691
cpu0->LLC LOAD         ACCESS:    8074293 HIT:     512351 MISS:    7561942 MSHR_MERGE:          8
cpu0->LLC RFO          ACCESS:        925 HIT:        925 MISS:          0 MSHR_MERGE:          0
cpu0->LLC PREFETCH     ACCESS:    3733020 HIT:     438501 MISS:    3294519 MSHR_MERGE:      20683
cpu0->LLC WRITE        ACCESS:      16147 HIT:       4679 MISS:      11468 MSHR_MERGE:          0
cpu0->LLC TRANSLATION  ACCESS:    3402528 HIT:    3323455 MISS:      79073 MSHR_MERGE:          0
cpu0->LLC PREFETCH REQUESTED:          0 ISSUED:          0 USEFUL:          0 USELESS:          0 LATE:          0
cpu0->LLC AVERAGE MISS LATENCY: 180.6 cycles

DRAM Statistics

Channel 0 RQ ROW_BUFFER_HIT:     281085
  ROW_BUFFER_MISS:   10633758
  AVG DBUS CONGESTED CYCLE: 8.762
Channel 0 WQ ROW_BUFFER_HIT:       3010
  ROW_BUFFER_MISS:      10794
  FULL:          0
Channel 0 REFRESHES ISSUED:     164902

[ROI Statistics]
[System Configuration]
num_cpus 1
cpu_freq 4000
fetch_width 6
decode_width 6
dispatch_width 6
execute_width 6
lq_width 2
sq_width 2
retire_width 6
scheduler_size 128
branch_mispredict_penalty 15
rob_size 352
lq_size 128
sq_size 72
ifetch_buffer_size 64
decode_buffer_size 32
dispatch_buffer_size 32
register_file_size 288
decode_latency 1
dispatch_latency 1
schedule_latency 1
execute_latency 1
page_size 4096
block_size 64
core_0_itlb_set 16
core_0_itlb_way 4
core_0_itlb_rq_size 16
core_0_itlb_wq_size 16
core_0_itlb_pq_size 0
core_0_itlb_mshr_size 8
core_0_itlb_hit_latency 1
core_0_itlb_fill_latency 1
core_0_itlb_max_tag_check 2
core_0_itlb_max_fill 2
core_0_dtlb_set 16
core_0_dtlb_way 4
core_0_dtlb_rq_size 16
core_0_dtlb_wq_size 16
core_0_dtlb_pq_size 0
core_0_dtlb_mshr_size 8
core_0_dtlb_hit_latency 1
core_0_dtlb_fill_latency 1
core_0_dtlb_max_tag_check 2
core_0_dtlb_max_fill 2
core_0_stlb_set 128
core_0_stlb_way 12
core_0_stlb_rq_size 32
core_0_stlb_wq_size 32
core_0_stlb_pq_size 0
core_0_stlb_mshr_size 16
core_0_stlb_hit_latency 4
core_0_stlb_fill_latency 4
core_0_stlb_max_tag_check 1
core_0_stlb_max_fill 1
core_0_l1i_set 64
core_0_l1i_way 8
core_0_l1i_rq_size 64
core_0_l1i_wq_size 64
core_0_l1i_pq_size 32
core_0_l1i_mshr_size 8
core_0_l1i_hit_latency 2
core_0_l1i_fill_latency 2
core_0_l1i_max_tag_check 2
core_0_l1i_max_fill 2
core_0_l1d_set 64
core_0_l1d_way 12
core_0_l1d_rq_size 64
core_0_l1d_wq_size 64
core_0_l1d_pq_size 8
core_0_l1d_mshr_size 16
core_0_l1d_hit_latency 2
core_0_l1d_fill_latency 3
core_0_l1d_max_tag_check 2
core_0_l1d_max_fill 2
core_0_l2c_set 1024
core_0_l2c_way 8
core_0_l2c_rq_size 32
core_0_l2c_wq_size 32
core_0_l2c_pq_size 16
core_0_l2c_mshr_size 32
core_0_l2c_hit_latency 5
core_0_l2c_fill_latency 5
core_0_l2c_max_tag_check 1
core_0_l2c_max_fill 1
llc_set 2048
llc_way 16
llc_rq_size 32
llc_wq_size 32
llc_pq_size 32
llc_mshr_size 64
llc_hit_latency 10
llc_fill_latency 10
llc_max_tag_check 1
llc_max_fill 1
dram_channels 1
dram_ranks 1
dram_bankgroups 8
dram_banks 4
dram_rows 65536
dram_columns 1024
dram_channel_width 8
dram_rq_size 64
dram_wq_size 64
dram_size 17179869184
core_0_itlb_prefetcher no
core_0_dtlb_prefetcher no
core_0_stlb_prefetcher no
core_0_l1i_prefetcher next_line
core_0_l1d_prefetcher vberti_nocross
core_0_l2c_prefetcher ip_stride
llc_prefetcher no
llc_replacement drrip

Core_0_instructions 100000002
Core_0_cycles 1978816838
Core_0_IPC 0.0505352
Core_0_branch_prediction_accuracy 98.8139
Core_0_branch_MPKI 2.33601
Core_0_average_ROB_occupancy_at_mispredict 258.424

Core_0_ITLB_total_access 16567374
Core_0_ITLB_total_hit 16567374
Core_0_ITLB_total_miss 0
Core_0_ITLB_total_MPKI 0
Core_0_ITLB_total_miss_rate 0
Core_0_ITLB_demand_access 16567374
Core_0_ITLB_demand_hit 16567374
Core_0_ITLB_demand_miss 0
Core_0_ITLB_demand_MPKI 0
Core_0_ITLB_demand_miss_rate 0
Core_0_ITLB_load_access 16567374
Core_0_ITLB_load_hit 16567374
Core_0_ITLB_load_miss 0
Core_0_ITLB_load_MPKI 0
Core_0_ITLB_load_miss_rate 0
Core_0_ITLB_rfo_access 0
Core_0_ITLB_rfo_hit 0
Core_0_ITLB_rfo_miss 0
Core_0_ITLB_rfo_MPKI 0
Core_0_ITLB_rfo_miss_rate 0
Core_0_ITLB_prefetch_access 0
Core_0_ITLB_prefetch_hit 0
Core_0_ITLB_prefetch_miss 0
Core_0_ITLB_prefetch_MPKI 0
Core_0_ITLB_prefetch_miss_rate 0
Core_0_ITLB_writeback_access 0
Core_0_ITLB_writeback_hit 0
Core_0_ITLB_writeback_miss 0
Core_0_ITLB_writeback_MPKI 0
Core_0_ITLB_writeback_miss_rate 0
Core_0_ITLB_prefetch_requested 0
Core_0_ITLB_prefetch_issued 0
Core_0_ITLB_prefetch_useful 0
Core_0_ITLB_prefetch_useless 0
Core_0_ITLB_prefetch_late 0
Core_0_ITLB_prefetch_accuracy 0
Core_0_ITLB_prefetch_coverage 0
Core_0_ITLB_total_eviction 0

Core_0_DTLB_total_access 89575971
Core_0_DTLB_total_hit 81052463
Core_0_DTLB_total_miss 8523508
Core_0_DTLB_total_MPKI 85.2351
Core_0_DTLB_total_miss_rate 0.095154
Core_0_DTLB_demand_access 89575971
Core_0_DTLB_demand_hit 81052463
Core_0_DTLB_demand_miss 8523508
Core_0_DTLB_demand_MPKI 85.2351
Core_0_DTLB_demand_miss_rate 0.095154
Core_0_DTLB_load_access 89575971
Core_0_DTLB_load_hit 81052463
Core_0_DTLB_load_miss 8523508
Core_0_DTLB_load_MPKI 85.2351
Core_0_DTLB_load_miss_rate 0.095154
Core_0_DTLB_rfo_access 0
Core_0_DTLB_rfo_hit 0
Core_0_DTLB_rfo_miss 0
Core_0_DTLB_rfo_MPKI 0
Core_0_DTLB_rfo_miss_rate 0
Core_0_DTLB_prefetch_access 0
Core_0_DTLB_prefetch_hit 0
Core_0_DTLB_prefetch_miss 0
Core_0_DTLB_prefetch_MPKI 0
Core_0_DTLB_prefetch_miss_rate 0
Core_0_DTLB_writeback_access 0
Core_0_DTLB_writeback_hit 0
Core_0_DTLB_writeback_miss 0
Core_0_DTLB_writeback_MPKI 0
Core_0_DTLB_writeback_miss_rate 0
Core_0_DTLB_prefetch_requested 0
Core_0_DTLB_prefetch_issued 0
Core_0_DTLB_prefetch_useful 0
Core_0_DTLB_prefetch_useless 0
Core_0_DTLB_prefetch_late 0
Core_0_DTLB_prefetch_accuracy 0
Core_0_DTLB_prefetch_coverage 0
Core_0_DTLB_total_eviction 8367838

Core_0_STLB_total_access 8367838
Core_0_STLB_total_hit 1173981
Core_0_STLB_total_miss 7193857
Core_0_STLB_total_MPKI 71.9386
Core_0_STLB_total_miss_rate 0.859703
Core_0_STLB_demand_access 8367838
Core_0_STLB_demand_hit 1173981
Core_0_STLB_demand_miss 7193857
Core_0_STLB_demand_MPKI 71.9386
Core_0_STLB_demand_miss_rate 0.859703
Core_0_STLB_load_access 8367838
Core_0_STLB_load_hit 1173981
Core_0_STLB_load_miss 7193857
Core_0_STLB_load_MPKI 71.9386
Core_0_STLB_load_miss_rate 0.859703
Core_0_STLB_rfo_access 0
Core_0_STLB_rfo_hit 0
Core_0_STLB_rfo_miss 0
Core_0_STLB_rfo_MPKI 0
Core_0_STLB_rfo_miss_rate 0
Core_0_STLB_prefetch_access 0
Core_0_STLB_prefetch_hit 0
Core_0_STLB_prefetch_miss 0
Core_0_STLB_prefetch_MPKI 0
Core_0_STLB_prefetch_miss_rate 0
Core_0_STLB_writeback_access 0
Core_0_STLB_writeback_hit 0
Core_0_STLB_writeback_miss 0
Core_0_STLB_writeback_MPKI 0
Core_0_STLB_writeback_miss_rate 0
Core_0_STLB_prefetch_requested 0
Core_0_STLB_prefetch_issued 0
Core_0_STLB_prefetch_useful 0
Core_0_STLB_prefetch_useless 0
Core_0_STLB_prefetch_late 0
Core_0_STLB_prefetch_accuracy 0
Core_0_STLB_prefetch_coverage 0
Core_0_STLB_total_eviction 7193857

Core_0_L1I_total_access 16567374
Core_0_L1I_total_hit 16567374
Core_0_L1I_total_miss 0
Core_0_L1I_total_MPKI 0
Core_0_L1I_total_miss_rate 0
Core_0_L1I_demand_access 16567374
Core_0_L1I_demand_hit 16567374
Core_0_L1I_demand_miss 0
Core_0_L1I_demand_MPKI 0
Core_0_L1I_demand_miss_rate 0
Core_0_L1I_load_access 16567374
Core_0_L1I_load_hit 16567374
Core_0_L1I_load_miss 0
Core_0_L1I_load_MPKI 0
Core_0_L1I_load_miss_rate 0
Core_0_L1I_rfo_access 0
Core_0_L1I_rfo_hit 0
Core_0_L1I_rfo_miss 0
Core_0_L1I_rfo_MPKI 0
Core_0_L1I_rfo_miss_rate 0
Core_0_L1I_prefetch_access 0
Core_0_L1I_prefetch_hit 0
Core_0_L1I_prefetch_miss 0
Core_0_L1I_prefetch_MPKI 0
Core_0_L1I_prefetch_miss_rate 0
Core_0_L1I_writeback_access 0
Core_0_L1I_writeback_hit 0
Core_0_L1I_writeback_miss 0
Core_0_L1I_writeback_MPKI 0
Core_0_L1I_writeback_miss_rate 0
Core_0_L1I_prefetch_requested 0
Core_0_L1I_prefetch_issued 0
Core_0_L1I_prefetch_useful 0
Core_0_L1I_prefetch_useless 0
Core_0_L1I_prefetch_late 0
Core_0_L1I_prefetch_accuracy 0
Core_0_L1I_prefetch_coverage 0
Core_0_L1I_total_eviction 0

Core_0_L1D_total_access 118030982
Core_0_L1D_total_hit 91634038
Core_0_L1D_total_miss 26396944
Core_0_L1D_total_MPKI 263.969
Core_0_L1D_total_miss_rate 0.223644
Core_0_L1D_demand_access 38977004
Core_0_L1D_demand_hit 28466021
Core_0_L1D_demand_miss 10510983
Core_0_L1D_demand_MPKI 105.11
Core_0_L1D_demand_miss_rate 0.269671
Core_0_L1D_load_access 38977004
Core_0_L1D_load_hit 28466021
Core_0_L1D_load_miss 10510983
Core_0_L1D_load_MPKI 105.11
Core_0_L1D_load_miss_rate 0.269671
Core_0_L1D_rfo_access 0
Core_0_L1D_rfo_hit 0
Core_0_L1D_rfo_miss 0
Core_0_L1D_rfo_MPKI 0
Core_0_L1D_rfo_miss_rate 0
Core_0_L1D_prefetch_access 78791702
Core_0_L1D_prefetch_hit 62927077
Core_0_L1D_prefetch_miss 15864625
Core_0_L1D_prefetch_MPKI 158.646
Core_0_L1D_prefetch_miss_rate 0.201349
Core_0_L1D_writeback_access 262276
Core_0_L1D_writeback_hit 240940
Core_0_L1D_writeback_miss 21336
Core_0_L1D_writeback_MPKI 0.21336
Core_0_L1D_writeback_miss_rate 0.0813494
Core_0_L1D_prefetch_requested 102793585
Core_0_L1D_prefetch_issued 78791694
Core_0_L1D_prefetch_useful 2075932
Core_0_L1D_prefetch_useless 619899
Core_0_L1D_prefetch_late 106758
Core_0_L1D_prefetch_accuracy 0.0263471
Core_0_L1D_prefetch_coverage 0.164928
Core_0_L1D_total_eviction 18158814

Core_0_L2C_total_access 32638953
Core_0_L2C_total_hit 14031091
Core_0_L2C_total_miss 18607862
Core_0_L2C_total_MPKI 186.079
Core_0_L2C_total_miss_rate 0.570112
Core_0_L2C_demand_access 9227378
Core_0_L2C_demand_hit 1101820
Core_0_L2C_demand_miss 8125558
Core_0_L2C_demand_MPKI 81.2556
Core_0_L2C_demand_miss_rate 0.880592
Core_0_L2C_load_access 9220266
Core_0_L2C_load_hit 1095633
Core_0_L2C_load_miss 8124633
Core_0_L2C_load_MPKI 81.2463
Core_0_L2C_load_miss_rate 0.881171
Core_0_L2C_rfo_access 7112
Core_0_L2C_rfo_hit 6187
Core_0_L2C_rfo_miss 925
Core_0_L2C_rfo_MPKI 0.00925
Core_0_L2C_rfo_miss_rate 0.130062
Core_0_L2C_prefetch_access 23381105
Core_0_L2C_prefetch_hit 12898811
Core_0_L2C_prefetch_miss 10482294
Core_0_L2C_prefetch_MPKI 104.823
Core_0_L2C_prefetch_miss_rate 0.448323
Core_0_L2C_writeback_access 30470
Core_0_L2C_writeback_hit 30460
Core_0_L2C_writeback_miss 10
Core_0_L2C_writeback_MPKI 0.0001
Core_0_L2C_writeback_miss_rate 0.000328192
Core_0_L2C_prefetch_requested 9677198
Core_0_L2C_prefetch_issued 7633352
Core_0_L2C_prefetch_useful 887321
Core_0_L2C_prefetch_useless 665197
Core_0_L2C_prefetch_late 33916
Core_0_L2C_prefetch_accuracy 0.116243
Core_0_L2C_prefetch_coverage 0.0984503
Core_0_L2C_total_eviction 15107162

Core_0_LLC_total_access 11824385
Core_0_LLC_total_hit 956456
Core_0_LLC_total_miss 10867929
Core_0_LLC_total_MPKI 108.679
Core_0_LLC_total_miss_rate 0.919112
Core_0_LLC_demand_access 8075218
Core_0_LLC_demand_hit 513276
Core_0_LLC_demand_miss 7561942
Core_0_LLC_demand_MPKI 75.6194
Core_0_LLC_demand_miss_rate 0.936438
Core_0_LLC_load_access 8074293
Core_0_LLC_load_hit 512351
Core_0_LLC_load_miss 7561942
Core_0_LLC_load_MPKI 75.6194
Core_0_LLC_load_miss_rate 0.936545
Core_0_LLC_rfo_access 925
Core_0_LLC_rfo_hit 925
Core_0_LLC_rfo_miss 0
Core_0_LLC_rfo_MPKI 0
Core_0_LLC_rfo_miss_rate 0
Core_0_LLC_prefetch_access 3733020
Core_0_LLC_prefetch_hit 438501
Core_0_LLC_prefetch_miss 3294519
Core_0_LLC_prefetch_MPKI 32.9452
Core_0_LLC_prefetch_miss_rate 0.882535
Core_0_LLC_writeback_access 16147
Core_0_LLC_writeback_hit 4679
Core_0_LLC_writeback_miss 11468
Core_0_LLC_writeback_MPKI 0.11468
Core_0_LLC_writeback_miss_rate 0.710225
Core_0_LLC_prefetch_requested 0
Core_0_LLC_prefetch_issued 0
Core_0_LLC_prefetch_useful 0
Core_0_LLC_prefetch_useless 0
Core_0_LLC_prefetch_late 0
Core_0_LLC_prefetch_accuracy 0
Core_0_LLC_prefetch_coverage 0
Core_0_LLC_total_eviction 10926314

[DRAM Statistics]
Channel_0_RQ_row_buffer_hit 281085
Channel_0_RQ_row_buffer_miss 10633758
Channel_0_WQ_row_buffer_hit 3010
Channel_0_WQ_row_buffer_miss 10794
Channel_0_WQ_full 0
Channel_0_dbus_congested 8267897
DRAM_total_RQ_row_buffer_hit 281085
DRAM_total_RQ_row_buffer_miss 10633758
DRAM_total_WQ_row_buffer_hit 3010
DRAM_total_WQ_row_buffer_miss 10794
DRAM_total_WQ_full 0
DRAM_total_dbus_congested 8267897
DRAM_avg_congested_cycle 8.76207

======STLB miss causes ========
Core_0_STLB_miss_cause_breakdown
Core_0_STLB_cause_Demand_Data_miss 7193857
Core_0_STLB_cause_Demand_Data_miss_rate 0.859703
Core_0_STLB_cause_Demand_Instruction_miss 0
Core_0_STLB_cause_Demand_Instruction_miss_rate 0
Core_0_STLB_cause_L1D_Prefetch_miss 0
Core_0_STLB_cause_L1D_Prefetch_miss_rate 0
Core_0_STLB_cause_L1I_Prefetch_miss 0
Core_0_STLB_cause_L1I_Prefetch_miss_rate 0
Core_0_STLB_cause_Other_miss 0
Core_0_STLB_cause_Other_miss_rate 0
Core_0_STLB_Demand_miss 7193857
Core_0_STLB_Demand_miss_rate 0.859703
Core_0_STLB_L1D_Prefetch_miss 0
Core_0_STLB_L1D_Prefetch_miss_rate 0
Core_0_STLB_Other_miss 0
Core_0_STLB_Other_miss_rate 0
BERTI TO_L1: 79520962 TO_L2: 37181862 TO_L2_BC_MSHR: 279222
BERTI AVG_LAT: 107.021 NUM_TRACK_LATENCY: 18304113 NUM_CANT_TRACK_LATENCY: 535
BERTI CROSS_PAGE 12501110 NO_CROSS_PAGE: 116702824
BERTI FOUND_BERTI: 47524548 NO_FOUND_BERTI: 800474
BERTI AVERAGE_ISSUED: 3.00415
