[VMEM] WARNING: physical memory size is smaller than virtual memory size.

*** ChampSim Multicore Out-of-Order Simulator ***
Warmup Instructions: 50000000
Simulation Instructions: 100000000
Number of CPUs: 1
Page size: 4096
STLB ideal mode: off
STLB ideal fill: off
Core 0: /data0/tzh/champsim_traces/QMM/srv_60_new.xz
VBerti Prefetcher
No Crossing Page
BERTI HASH ENTANGLING
BERTI IP MASK ffff
Off-chip DRAM Size: 16 GiB Channels: 1 Width: 64-bit Data Rate: 3205 MT/s
[BTB] WARNING: target of return is a lower address than the corresponding call. This is usually a problem with your trace.
[BTB] WARNING: target of return is a lower address than the corresponding call. This is usually a problem with your trace.
[BTB] WARNING: target of return is a lower address than the corresponding call. This is usually a problem with your trace.
[BTB] WARNING: target of return is a lower address than the corresponding call. This is usually a problem with your trace.
[BTB] WARNING: target of return is a lower address than the corresponding call. This is usually a problem with your trace.
[BTB] WARNING: target of return is a lower address than the corresponding call. This is usually a problem with your trace.
[BTB] WARNING: target of return is a lower address than the corresponding call. This is usually a problem with your trace.
[BTB] WARNING: target of return is a lower address than the corresponding call. This is usually a problem with your trace.
[BTB] WARNING: target of return is a lower address than the corresponding call. This is usually a problem with your trace.
[BTB] WARNING: target of return is a lower address than the corresponding call. This is usually a problem with your trace.
*** Reached end of trace: (0, "/data0/tzh/champsim_traces/QMM/srv_60_new.xz")
Warmup halting CPU 0 at instruction 50000001 cycle 10832847 for remainder of phase
Warmup finished CPU 0 instructions: 50000001 cycles: 10832847 cumulative IPC: 4.616 (Simulation time: 00 hr 02 min 52 sec)
Warmup complete CPU 0 instructions: 50000001 cycles: 10832847 cumulative IPC: 4.616 (Simulation time: 00 hr 02 min 52 sec)
*** Reached end of trace: (0, "/data0/tzh/champsim_traces/QMM/srv_60_new.xz")
*** Reached end of trace: (0, "/data0/tzh/champsim_traces/QMM/srv_60_new.xz")
*** Reached end of trace: (0, "/data0/tzh/champsim_traces/QMM/srv_60_new.xz")
Simulation finished CPU 0 instructions: 100000003 cycles: 64068495 cumulative IPC: 1.561 (Simulation time: 00 hr 12 min 11 sec)
Simulation complete CPU 0 instructions: 100000003 cycles: 64068495 cumulative IPC: 1.561 (Simulation time: 00 hr 12 min 11 sec)

ChampSim completed all CPUs

=== Simulation ===
CPU 0 runs /data0/tzh/champsim_traces/QMM/srv_60_new.xz

Region of Interest Statistics

CPU 0 cumulative IPC: 1.561 instructions: 100000003 cycles: 64068495
CPU 0 Branch Prediction Accuracy: 97.19% MPKI: 5.043 Average ROB Occupancy at Mispredict: 90.89
Branch type MPKI
BRANCH_DIRECT_JUMP: 0.4409
BRANCH_INDIRECT: 0.5526
BRANCH_CONDITIONAL: 2.432
BRANCH_DIRECT_CALL: 0.7451
BRANCH_INDIRECT_CALL: 0.1981
BRANCH_RETURN: 0.6741

cpu0->cpu0_STLB TOTAL        ACCESS:    1667893 HIT:    1414617 MISS:     253276 MSHR_MERGE:          0
cpu0->cpu0_STLB LOAD         ACCESS:    1667893 HIT:    1414617 MISS:     253276 MSHR_MERGE:          0
cpu0->cpu0_STLB RFO          ACCESS:          0 HIT:          0 MISS:          0 MSHR_MERGE:          0
cpu0->cpu0_STLB PREFETCH     ACCESS:          0 HIT:          0 MISS:          0 MSHR_MERGE:          0
cpu0->cpu0_STLB WRITE        ACCESS:          0 HIT:          0 MISS:          0 MSHR_MERGE:          0
cpu0->cpu0_STLB TRANSLATION  ACCESS:          0 HIT:          0 MISS:          0 MSHR_MERGE:          0
cpu0->cpu0_STLB PREFETCH REQUESTED:          0 ISSUED:          0 USEFUL:          0 USELESS:          0 LATE:          0
cpu0->cpu0_STLB AVERAGE MISS LATENCY: 29.07 cycles
cpu0->cpu0_L2C TOTAL        ACCESS:    4819064 HIT:    2602072 MISS:    2216992 MSHR_MERGE:       5654
cpu0->cpu0_L2C LOAD         ACCESS:    3834162 HIT:    1884398 MISS:    1949764 MSHR_MERGE:       1214
cpu0->cpu0_L2C RFO          ACCESS:     176652 HIT:      73404 MISS:     103248 MSHR_MERGE:         20
cpu0->cpu0_L2C PREFETCH     ACCESS:      58207 HIT:      30262 MISS:      27945 MSHR_MERGE:       4420
cpu0->cpu0_L2C WRITE        ACCESS:     536857 HIT:     533615 MISS:       3242 MSHR_MERGE:          0
cpu0->cpu0_L2C TRANSLATION  ACCESS:     213186 HIT:      80393 MISS:     132793 MSHR_MERGE:          0
cpu0->cpu0_L2C PREFETCH REQUESTED:      69105 ISSUED:      50748 USEFUL:       9847 USELESS:       9376 LATE:        531
cpu0->cpu0_L2C AVERAGE MISS LATENCY: 25.77 cycles
cpu0->cpu0_L1I TOTAL        ACCESS:   15198401 HIT:   11031399 MISS:    4167002 MSHR_MERGE:    1535839
cpu0->cpu0_L1I LOAD         ACCESS:   15198401 HIT:   11031399 MISS:    4167002 MSHR_MERGE:    1535839
cpu0->cpu0_L1I RFO          ACCESS:          0 HIT:          0 MISS:          0 MSHR_MERGE:          0
cpu0->cpu0_L1I PREFETCH     ACCESS:          0 HIT:          0 MISS:          0 MSHR_MERGE:          0
cpu0->cpu0_L1I WRITE        ACCESS:          0 HIT:          0 MISS:          0 MSHR_MERGE:          0
cpu0->cpu0_L1I TRANSLATION  ACCESS:          0 HIT:          0 MISS:          0 MSHR_MERGE:          0
cpu0->cpu0_L1I PREFETCH REQUESTED:          0 ISSUED:          0 USEFUL:          0 USELESS:          0 LATE:          0
cpu0->cpu0_L1I AVERAGE MISS LATENCY: 15.55 cycles
cpu0->cpu0_L1D TOTAL        ACCESS:   23988625 HIT:   21669827 MISS:    2318798 MSHR_MERGE:     717677
cpu0->cpu0_L1D LOAD         ACCESS:   13512809 HIT:   11898375 MISS:    1614434 MSHR_MERGE:     411423
cpu0->cpu0_L1D RFO          ACCESS:          0 HIT:          0 MISS:          0 MSHR_MERGE:          0
cpu0->cpu0_L1D PREFETCH     ACCESS:      28625 HIT:      18525 MISS:      10100 MSHR_MERGE:       1850
cpu0->cpu0_L1D WRITE        ACCESS:    9884880 HIT:    9408097 MISS:     476783 MSHR_MERGE:     300109
cpu0->cpu0_L1D TRANSLATION  ACCESS:     562311 HIT:     344830 MISS:     217481 MSHR_MERGE:       4295
cpu0->cpu0_L1D PREFETCH REQUESTED:     142801 ISSUED:      28625 USEFUL:       2629 USELESS:        920 LATE:        848
cpu0->cpu0_L1D AVERAGE MISS LATENCY: 31.26 cycles
cpu0->cpu0_ITLB TOTAL        ACCESS:   12868278 HIT:   11839931 MISS:    1028347 MSHR_MERGE:     636417
cpu0->cpu0_ITLB LOAD         ACCESS:   12868278 HIT:   11839931 MISS:    1028347 MSHR_MERGE:     636417
cpu0->cpu0_ITLB RFO          ACCESS:          0 HIT:          0 MISS:          0 MSHR_MERGE:          0
cpu0->cpu0_ITLB PREFETCH     ACCESS:          0 HIT:          0 MISS:          0 MSHR_MERGE:          0
cpu0->cpu0_ITLB WRITE        ACCESS:          0 HIT:          0 MISS:          0 MSHR_MERGE:          0
cpu0->cpu0_ITLB TRANSLATION  ACCESS:          0 HIT:          0 MISS:          0 MSHR_MERGE:          0
cpu0->cpu0_ITLB PREFETCH REQUESTED:          0 ISSUED:          0 USEFUL:          0 USELESS:          0 LATE:          0
cpu0->cpu0_ITLB AVERAGE MISS LATENCY: 10.78 cycles
cpu0->cpu0_DTLB TOTAL        ACCESS:   22105229 HIT:   20363619 MISS:    1741610 MSHR_MERGE:     465646
cpu0->cpu0_DTLB LOAD         ACCESS:   22105229 HIT:   20363619 MISS:    1741610 MSHR_MERGE:     465646
cpu0->cpu0_DTLB RFO          ACCESS:          0 HIT:          0 MISS:          0 MSHR_MERGE:          0
cpu0->cpu0_DTLB PREFETCH     ACCESS:          0 HIT:          0 MISS:          0 MSHR_MERGE:          0
cpu0->cpu0_DTLB WRITE        ACCESS:          0 HIT:          0 MISS:          0 MSHR_MERGE:          0
cpu0->cpu0_DTLB TRANSLATION  ACCESS:          0 HIT:          0 MISS:          0 MSHR_MERGE:          0
cpu0->cpu0_DTLB PREFETCH REQUESTED:          0 ISSUED:          0 USEFUL:          0 USELESS:          0 LATE:          0
cpu0->cpu0_DTLB AVERAGE MISS LATENCY: 9.206 cycles
cpu0->LLC TOTAL        ACCESS:    2529150 HIT:    2389269 MISS:     139881 MSHR_MERGE:          0
cpu0->LLC LOAD         ACCESS:    1948550 HIT:    1841935 MISS:     106615 MSHR_MERGE:          0
cpu0->LLC RFO          ACCESS:     103228 HIT:      82582 MISS:      20646 MSHR_MERGE:          0
cpu0->LLC PREFETCH     ACCESS:      23525 HIT:      17486 MISS:       6039 MSHR_MERGE:          0
cpu0->LLC WRITE        ACCESS:     321054 HIT:     316926 MISS:       4128 MSHR_MERGE:          0
cpu0->LLC TRANSLATION  ACCESS:     132793 HIT:     130340 MISS:       2453 MSHR_MERGE:          0
cpu0->LLC PREFETCH REQUESTED:          0 ISSUED:          0 USEFUL:          0 USELESS:          0 LATE:          0
cpu0->LLC AVERAGE MISS LATENCY: 175.6 cycles

DRAM Statistics

Channel 0 RQ ROW_BUFFER_HIT:       3101
  ROW_BUFFER_MISS:     132648
  AVG DBUS CONGESTED CYCLE: 15.93
Channel 0 WQ ROW_BUFFER_HIT:      19691
  ROW_BUFFER_MISS:      84488
  FULL:          0
Channel 0 REFRESHES ISSUED:       5339

[ROI Statistics]
[System Configuration]
num_cpus 1
cpu_freq 4000
fetch_width 6
decode_width 6
dispatch_width 6
execute_width 6
lq_width 2
sq_width 2
retire_width 6
scheduler_size 128
branch_mispredict_penalty 15
rob_size 352
lq_size 128
sq_size 72
ifetch_buffer_size 64
decode_buffer_size 32
dispatch_buffer_size 32
register_file_size 288
decode_latency 1
dispatch_latency 1
schedule_latency 1
execute_latency 1
page_size 4096
block_size 64
core_0_itlb_set 16
core_0_itlb_way 4
core_0_itlb_rq_size 16
core_0_itlb_wq_size 16
core_0_itlb_pq_size 0
core_0_itlb_mshr_size 8
core_0_itlb_hit_latency 1
core_0_itlb_fill_latency 1
core_0_itlb_max_tag_check 2
core_0_itlb_max_fill 2
core_0_dtlb_set 16
core_0_dtlb_way 4
core_0_dtlb_rq_size 16
core_0_dtlb_wq_size 16
core_0_dtlb_pq_size 0
core_0_dtlb_mshr_size 8
core_0_dtlb_hit_latency 1
core_0_dtlb_fill_latency 1
core_0_dtlb_max_tag_check 2
core_0_dtlb_max_fill 2
core_0_stlb_set 128
core_0_stlb_way 12
core_0_stlb_rq_size 32
core_0_stlb_wq_size 32
core_0_stlb_pq_size 0
core_0_stlb_mshr_size 16
core_0_stlb_hit_latency 4
core_0_stlb_fill_latency 4
core_0_stlb_max_tag_check 1
core_0_stlb_max_fill 1
core_0_l1i_set 64
core_0_l1i_way 8
core_0_l1i_rq_size 64
core_0_l1i_wq_size 64
core_0_l1i_pq_size 32
core_0_l1i_mshr_size 8
core_0_l1i_hit_latency 2
core_0_l1i_fill_latency 2
core_0_l1i_max_tag_check 2
core_0_l1i_max_fill 2
core_0_l1d_set 64
core_0_l1d_way 12
core_0_l1d_rq_size 64
core_0_l1d_wq_size 64
core_0_l1d_pq_size 8
core_0_l1d_mshr_size 16
core_0_l1d_hit_latency 2
core_0_l1d_fill_latency 3
core_0_l1d_max_tag_check 2
core_0_l1d_max_fill 2
core_0_l2c_set 1024
core_0_l2c_way 8
core_0_l2c_rq_size 32
core_0_l2c_wq_size 32
core_0_l2c_pq_size 16
core_0_l2c_mshr_size 32
core_0_l2c_hit_latency 5
core_0_l2c_fill_latency 5
core_0_l2c_max_tag_check 1
core_0_l2c_max_fill 1
llc_set 2048
llc_way 16
llc_rq_size 32
llc_wq_size 32
llc_pq_size 32
llc_mshr_size 64
llc_hit_latency 10
llc_fill_latency 10
llc_max_tag_check 1
llc_max_fill 1
dram_channels 1
dram_ranks 1
dram_bankgroups 8
dram_banks 4
dram_rows 65536
dram_columns 1024
dram_channel_width 8
dram_rq_size 64
dram_wq_size 64
dram_size 17179869184
core_0_itlb_prefetcher no
core_0_dtlb_prefetcher no
core_0_stlb_prefetcher no
core_0_l1i_prefetcher next_line
core_0_l1d_prefetcher vberti_nocross
core_0_l2c_prefetcher ip_stride
llc_prefetcher no
llc_replacement drrip

Core_0_instructions 100000003
Core_0_cycles 64068495
Core_0_IPC 1.56083
Core_0_branch_prediction_accuracy 97.1939
Core_0_branch_MPKI 5.04251
Core_0_average_ROB_occupancy_at_mispredict 90.8935

Core_0_ITLB_total_access 12868278
Core_0_ITLB_total_hit 11839931
Core_0_ITLB_total_miss 1028347
Core_0_ITLB_total_MPKI 10.2835
Core_0_ITLB_total_miss_rate 0.0799133
Core_0_ITLB_demand_access 12868278
Core_0_ITLB_demand_hit 11839931
Core_0_ITLB_demand_miss 1028347
Core_0_ITLB_demand_MPKI 10.2835
Core_0_ITLB_demand_miss_rate 0.0799133
Core_0_ITLB_load_access 12868278
Core_0_ITLB_load_hit 11839931
Core_0_ITLB_load_miss 1028347
Core_0_ITLB_load_MPKI 10.2835
Core_0_ITLB_load_miss_rate 0.0799133
Core_0_ITLB_rfo_access 0
Core_0_ITLB_rfo_hit 0
Core_0_ITLB_rfo_miss 0
Core_0_ITLB_rfo_MPKI 0
Core_0_ITLB_rfo_miss_rate 0
Core_0_ITLB_prefetch_access 0
Core_0_ITLB_prefetch_hit 0
Core_0_ITLB_prefetch_miss 0
Core_0_ITLB_prefetch_MPKI 0
Core_0_ITLB_prefetch_miss_rate 0
Core_0_ITLB_writeback_access 0
Core_0_ITLB_writeback_hit 0
Core_0_ITLB_writeback_miss 0
Core_0_ITLB_writeback_MPKI 0
Core_0_ITLB_writeback_miss_rate 0
Core_0_ITLB_prefetch_requested 0
Core_0_ITLB_prefetch_issued 0
Core_0_ITLB_prefetch_useful 0
Core_0_ITLB_prefetch_useless 0
Core_0_ITLB_prefetch_late 0
Core_0_ITLB_prefetch_accuracy 0
Core_0_ITLB_prefetch_coverage 0
Core_0_ITLB_total_eviction 391930

Core_0_DTLB_total_access 22105229
Core_0_DTLB_total_hit 20363619
Core_0_DTLB_total_miss 1741610
Core_0_DTLB_total_MPKI 17.4161
Core_0_DTLB_total_miss_rate 0.0787872
Core_0_DTLB_demand_access 22105229
Core_0_DTLB_demand_hit 20363619
Core_0_DTLB_demand_miss 1741610
Core_0_DTLB_demand_MPKI 17.4161
Core_0_DTLB_demand_miss_rate 0.0787872
Core_0_DTLB_load_access 22105229
Core_0_DTLB_load_hit 20363619
Core_0_DTLB_load_miss 1741610
Core_0_DTLB_load_MPKI 17.4161
Core_0_DTLB_load_miss_rate 0.0787872
Core_0_DTLB_rfo_access 0
Core_0_DTLB_rfo_hit 0
Core_0_DTLB_rfo_miss 0
Core_0_DTLB_rfo_MPKI 0
Core_0_DTLB_rfo_miss_rate 0
Core_0_DTLB_prefetch_access 0
Core_0_DTLB_prefetch_hit 0
Core_0_DTLB_prefetch_miss 0
Core_0_DTLB_prefetch_MPKI 0
Core_0_DTLB_prefetch_miss_rate 0
Core_0_DTLB_writeback_access 0
Core_0_DTLB_writeback_hit 0
Core_0_DTLB_writeback_miss 0
Core_0_DTLB_writeback_MPKI 0
Core_0_DTLB_writeback_miss_rate 0
Core_0_DTLB_prefetch_requested 0
Core_0_DTLB_prefetch_issued 0
Core_0_DTLB_prefetch_useful 0
Core_0_DTLB_prefetch_useless 0
Core_0_DTLB_prefetch_late 0
Core_0_DTLB_prefetch_accuracy 0
Core_0_DTLB_prefetch_coverage 0
Core_0_DTLB_total_eviction 1275963

Core_0_STLB_total_access 1667893
Core_0_STLB_total_hit 1414617
Core_0_STLB_total_miss 253276
Core_0_STLB_total_MPKI 2.53276
Core_0_STLB_total_miss_rate 0.151854
Core_0_STLB_demand_access 1667893
Core_0_STLB_demand_hit 1414617
Core_0_STLB_demand_miss 253276
Core_0_STLB_demand_MPKI 2.53276
Core_0_STLB_demand_miss_rate 0.151854
Core_0_STLB_load_access 1667893
Core_0_STLB_load_hit 1414617
Core_0_STLB_load_miss 253276
Core_0_STLB_load_MPKI 2.53276
Core_0_STLB_load_miss_rate 0.151854
Core_0_STLB_rfo_access 0
Core_0_STLB_rfo_hit 0
Core_0_STLB_rfo_miss 0
Core_0_STLB_rfo_MPKI 0
Core_0_STLB_rfo_miss_rate 0
Core_0_STLB_prefetch_access 0
Core_0_STLB_prefetch_hit 0
Core_0_STLB_prefetch_miss 0
Core_0_STLB_prefetch_MPKI 0
Core_0_STLB_prefetch_miss_rate 0
Core_0_STLB_writeback_access 0
Core_0_STLB_writeback_hit 0
Core_0_STLB_writeback_miss 0
Core_0_STLB_writeback_MPKI 0
Core_0_STLB_writeback_miss_rate 0
Core_0_STLB_prefetch_requested 0
Core_0_STLB_prefetch_issued 0
Core_0_STLB_prefetch_useful 0
Core_0_STLB_prefetch_useless 0
Core_0_STLB_prefetch_late 0
Core_0_STLB_prefetch_accuracy 0
Core_0_STLB_prefetch_coverage 0
Core_0_STLB_total_eviction 253276

Core_0_L1I_total_access 15198401
Core_0_L1I_total_hit 11031399
Core_0_L1I_total_miss 4167002
Core_0_L1I_total_MPKI 41.67
Core_0_L1I_total_miss_rate 0.274174
Core_0_L1I_demand_access 15198401
Core_0_L1I_demand_hit 11031399
Core_0_L1I_demand_miss 4167002
Core_0_L1I_demand_MPKI 41.67
Core_0_L1I_demand_miss_rate 0.274174
Core_0_L1I_load_access 15198401
Core_0_L1I_load_hit 11031399
Core_0_L1I_load_miss 4167002
Core_0_L1I_load_MPKI 41.67
Core_0_L1I_load_miss_rate 0.274174
Core_0_L1I_rfo_access 0
Core_0_L1I_rfo_hit 0
Core_0_L1I_rfo_miss 0
Core_0_L1I_rfo_MPKI 0
Core_0_L1I_rfo_miss_rate 0
Core_0_L1I_prefetch_access 0
Core_0_L1I_prefetch_hit 0
Core_0_L1I_prefetch_miss 0
Core_0_L1I_prefetch_MPKI 0
Core_0_L1I_prefetch_miss_rate 0
Core_0_L1I_writeback_access 0
Core_0_L1I_writeback_hit 0
Core_0_L1I_writeback_miss 0
Core_0_L1I_writeback_MPKI 0
Core_0_L1I_writeback_miss_rate 0
Core_0_L1I_prefetch_requested 0
Core_0_L1I_prefetch_issued 0
Core_0_L1I_prefetch_useful 0
Core_0_L1I_prefetch_useless 0
Core_0_L1I_prefetch_late 0
Core_0_L1I_prefetch_accuracy 0
Core_0_L1I_prefetch_coverage 0
Core_0_L1I_total_eviction 2631163

Core_0_L1D_total_access 23426314
Core_0_L1D_total_hit 21324997
Core_0_L1D_total_miss 2101317
Core_0_L1D_total_MPKI 21.0132
Core_0_L1D_total_miss_rate 0.089699
Core_0_L1D_demand_access 13512809
Core_0_L1D_demand_hit 11898375
Core_0_L1D_demand_miss 1614434
Core_0_L1D_demand_MPKI 16.1443
Core_0_L1D_demand_miss_rate 0.119474
Core_0_L1D_load_access 13512809
Core_0_L1D_load_hit 11898375
Core_0_L1D_load_miss 1614434
Core_0_L1D_load_MPKI 16.1443
Core_0_L1D_load_miss_rate 0.119474
Core_0_L1D_rfo_access 0
Core_0_L1D_rfo_hit 0
Core_0_L1D_rfo_miss 0
Core_0_L1D_rfo_MPKI 0
Core_0_L1D_rfo_miss_rate 0
Core_0_L1D_prefetch_access 28625
Core_0_L1D_prefetch_hit 18525
Core_0_L1D_prefetch_miss 10100
Core_0_L1D_prefetch_MPKI 0.101
Core_0_L1D_prefetch_miss_rate 0.352838
Core_0_L1D_writeback_access 9884880
Core_0_L1D_writeback_hit 9408097
Core_0_L1D_writeback_miss 476783
Core_0_L1D_writeback_MPKI 4.76783
Core_0_L1D_writeback_miss_rate 0.0482336
Core_0_L1D_prefetch_requested 142801
Core_0_L1D_prefetch_issued 28625
Core_0_L1D_prefetch_useful 2629
Core_0_L1D_prefetch_useless 920
Core_0_L1D_prefetch_late 848
Core_0_L1D_prefetch_accuracy 0.0918428
Core_0_L1D_prefetch_coverage 0.00162579
Core_0_L1D_total_eviction 1596420

Core_0_L2C_total_access 4605878
Core_0_L2C_total_hit 2521679
Core_0_L2C_total_miss 2084199
Core_0_L2C_total_MPKI 20.842
Core_0_L2C_total_miss_rate 0.452509
Core_0_L2C_demand_access 4010814
Core_0_L2C_demand_hit 1957802
Core_0_L2C_demand_miss 2053012
Core_0_L2C_demand_MPKI 20.5301
Core_0_L2C_demand_miss_rate 0.511869
Core_0_L2C_load_access 3834162
Core_0_L2C_load_hit 1884398
Core_0_L2C_load_miss 1949764
Core_0_L2C_load_MPKI 19.4976
Core_0_L2C_load_miss_rate 0.508524
Core_0_L2C_rfo_access 176652
Core_0_L2C_rfo_hit 73404
Core_0_L2C_rfo_miss 103248
Core_0_L2C_rfo_MPKI 1.03248
Core_0_L2C_rfo_miss_rate 0.584471
Core_0_L2C_prefetch_access 58207
Core_0_L2C_prefetch_hit 30262
Core_0_L2C_prefetch_miss 27945
Core_0_L2C_prefetch_MPKI 0.27945
Core_0_L2C_prefetch_miss_rate 0.480097
Core_0_L2C_writeback_access 536857
Core_0_L2C_writeback_hit 533615
Core_0_L2C_writeback_miss 3242
Core_0_L2C_writeback_MPKI 0.03242
Core_0_L2C_writeback_miss_rate 0.00603885
Core_0_L2C_prefetch_requested 69105
Core_0_L2C_prefetch_issued 50748
Core_0_L2C_prefetch_useful 9847
Core_0_L2C_prefetch_useless 9376
Core_0_L2C_prefetch_late 531
Core_0_L2C_prefetch_accuracy 0.194037
Core_0_L2C_prefetch_coverage 0.00477347
Core_0_L2C_total_eviction 2211338

Core_0_LLC_total_access 2396357
Core_0_LLC_total_hit 2258929
Core_0_LLC_total_miss 137428
Core_0_LLC_total_MPKI 1.37428
Core_0_LLC_total_miss_rate 0.0573487
Core_0_LLC_demand_access 2051778
Core_0_LLC_demand_hit 1924517
Core_0_LLC_demand_miss 127261
Core_0_LLC_demand_MPKI 1.27261
Core_0_LLC_demand_miss_rate 0.0620247
Core_0_LLC_load_access 1948550
Core_0_LLC_load_hit 1841935
Core_0_LLC_load_miss 106615
Core_0_LLC_load_MPKI 1.06615
Core_0_LLC_load_miss_rate 0.054715
Core_0_LLC_rfo_access 103228
Core_0_LLC_rfo_hit 82582
Core_0_LLC_rfo_miss 20646
Core_0_LLC_rfo_MPKI 0.20646
Core_0_LLC_rfo_miss_rate 0.200004
Core_0_LLC_prefetch_access 23525
Core_0_LLC_prefetch_hit 17486
Core_0_LLC_prefetch_miss 6039
Core_0_LLC_prefetch_MPKI 0.06039
Core_0_LLC_prefetch_miss_rate 0.256706
Core_0_LLC_writeback_access 321054
Core_0_LLC_writeback_hit 316926
Core_0_LLC_writeback_miss 4128
Core_0_LLC_writeback_MPKI 0.04128
Core_0_LLC_writeback_miss_rate 0.0128577
Core_0_LLC_prefetch_requested 0
Core_0_LLC_prefetch_issued 0
Core_0_LLC_prefetch_useful 0
Core_0_LLC_prefetch_useless 0
Core_0_LLC_prefetch_late 0
Core_0_LLC_prefetch_accuracy 0
Core_0_LLC_prefetch_coverage 0
Core_0_LLC_total_eviction 139878

[DRAM Statistics]
Channel_0_RQ_row_buffer_hit 3101
Channel_0_RQ_row_buffer_miss 132648
Channel_0_WQ_row_buffer_hit 19691
Channel_0_WQ_row_buffer_miss 84488
Channel_0_WQ_full 0
Channel_0_dbus_congested 700894
DRAM_total_RQ_row_buffer_hit 3101
DRAM_total_RQ_row_buffer_miss 132648
DRAM_total_WQ_row_buffer_hit 19691
DRAM_total_WQ_row_buffer_miss 84488
DRAM_total_WQ_full 0
DRAM_total_dbus_congested 700894
DRAM_avg_congested_cycle 15.9331

======STLB miss causes ========
Core_0_STLB_miss_cause_breakdown
Core_0_STLB_cause_Demand_Data_miss 162463
Core_0_STLB_cause_Demand_Data_miss_rate 0.0974061
Core_0_STLB_cause_Demand_Instruction_miss 90813
Core_0_STLB_cause_Demand_Instruction_miss_rate 0.0544477
Core_0_STLB_cause_L1D_Prefetch_miss 0
Core_0_STLB_cause_L1D_Prefetch_miss_rate 0
Core_0_STLB_cause_L1I_Prefetch_miss 0
Core_0_STLB_cause_L1I_Prefetch_miss_rate 0
Core_0_STLB_cause_Other_miss 0
Core_0_STLB_cause_Other_miss_rate 0
Core_0_STLB_Demand_miss 253276
Core_0_STLB_Demand_miss_rate 0.151854
Core_0_STLB_L1D_Prefetch_miss 0
Core_0_STLB_L1D_Prefetch_miss_rate 0
Core_0_STLB_Other_miss 0
Core_0_STLB_Other_miss_rate 0
BERTI TO_L1: 257292 TO_L2: 166216 TO_L2_BC_MSHR: 15983
BERTI AVG_LAT: 23.7918 NUM_TRACK_LATENCY: 2076038 NUM_CANT_TRACK_LATENCY: 0
BERTI CROSS_PAGE 52066 NO_CROSS_PAGE: 423508
BERTI FOUND_BERTI: 1129213 NO_FOUND_BERTI: 31949011
BERTI AVERAGE_ISSUED: 2.02345
