[VMEM] WARNING: physical memory size is smaller than virtual memory size.

*** ChampSim Multicore Out-of-Order Simulator ***
Warmup Instructions: 50000000
Simulation Instructions: 100000000
Number of CPUs: 1
Page size: 4096
STLB ideal mode: off
STLB ideal fill: off
Core 0: /data0/tzh/champsim_traces/QMM/srv_69_new.xz
VBerti Prefetcher
No Crossing Page
BERTI HASH ENTANGLING
BERTI IP MASK ffff
Off-chip DRAM Size: 16 GiB Channels: 1 Width: 64-bit Data Rate: 3205 MT/s
[BTB] WARNING: target of return is a lower address than the corresponding call. This is usually a problem with your trace.
[BTB] WARNING: target of return is a lower address than the corresponding call. This is usually a problem with your trace.
[BTB] WARNING: target of return is a lower address than the corresponding call. This is usually a problem with your trace.
[BTB] WARNING: target of return is a lower address than the corresponding call. This is usually a problem with your trace.
[BTB] WARNING: target of return is a lower address than the corresponding call. This is usually a problem with your trace.
[BTB] WARNING: target of return is a lower address than the corresponding call. This is usually a problem with your trace.
[BTB] WARNING: target of return is a lower address than the corresponding call. This is usually a problem with your trace.
[BTB] WARNING: target of return is a lower address than the corresponding call. This is usually a problem with your trace.
[BTB] WARNING: target of return is a lower address than the corresponding call. This is usually a problem with your trace.
[BTB] WARNING: target of return is a lower address than the corresponding call. This is usually a problem with your trace.
*** Reached end of trace: (0, "/data0/tzh/champsim_traces/QMM/srv_69_new.xz")
Warmup halting CPU 0 at instruction 50000003 cycle 10952685 for remainder of phase
Warmup finished CPU 0 instructions: 50000003 cycles: 10952685 cumulative IPC: 4.565 (Simulation time: 00 hr 02 min 49 sec)
Warmup complete CPU 0 instructions: 50000003 cycles: 10952685 cumulative IPC: 4.565 (Simulation time: 00 hr 02 min 49 sec)
*** Reached end of trace: (0, "/data0/tzh/champsim_traces/QMM/srv_69_new.xz")
*** Reached end of trace: (0, "/data0/tzh/champsim_traces/QMM/srv_69_new.xz")
*** Reached end of trace: (0, "/data0/tzh/champsim_traces/QMM/srv_69_new.xz")
Simulation finished CPU 0 instructions: 100000001 cycles: 66474409 cumulative IPC: 1.504 (Simulation time: 00 hr 13 min 10 sec)
Simulation complete CPU 0 instructions: 100000001 cycles: 66474409 cumulative IPC: 1.504 (Simulation time: 00 hr 13 min 10 sec)

ChampSim completed all CPUs

=== Simulation ===
CPU 0 runs /data0/tzh/champsim_traces/QMM/srv_69_new.xz

Region of Interest Statistics

CPU 0 cumulative IPC: 1.504 instructions: 100000001 cycles: 66474409
CPU 0 Branch Prediction Accuracy: 97% MPKI: 5.401 Average ROB Occupancy at Mispredict: 81.58
Branch type MPKI
BRANCH_DIRECT_JUMP: 0.403
BRANCH_INDIRECT: 0.7142
BRANCH_CONDITIONAL: 2.645
BRANCH_DIRECT_CALL: 0.7611
BRANCH_INDIRECT_CALL: 0.1888
BRANCH_RETURN: 0.6893

cpu0->cpu0_STLB TOTAL        ACCESS:    1598987 HIT:    1372230 MISS:     226757 MSHR_MERGE:          0
cpu0->cpu0_STLB LOAD         ACCESS:    1598987 HIT:    1372230 MISS:     226757 MSHR_MERGE:          0
cpu0->cpu0_STLB RFO          ACCESS:          0 HIT:          0 MISS:          0 MSHR_MERGE:          0
cpu0->cpu0_STLB PREFETCH     ACCESS:          0 HIT:          0 MISS:          0 MSHR_MERGE:          0
cpu0->cpu0_STLB WRITE        ACCESS:          0 HIT:          0 MISS:          0 MSHR_MERGE:          0
cpu0->cpu0_STLB TRANSLATION  ACCESS:          0 HIT:          0 MISS:          0 MSHR_MERGE:          0
cpu0->cpu0_STLB PREFETCH REQUESTED:          0 ISSUED:          0 USEFUL:          0 USELESS:          0 LATE:          0
cpu0->cpu0_STLB AVERAGE MISS LATENCY: 30.44 cycles
cpu0->cpu0_L2C TOTAL        ACCESS:    4539327 HIT:    2544166 MISS:    1995161 MSHR_MERGE:       5081
cpu0->cpu0_L2C LOAD         ACCESS:    3620524 HIT:    1877137 MISS:    1743387 MSHR_MERGE:       1353
cpu0->cpu0_L2C RFO          ACCESS:     170463 HIT:      71399 MISS:      99064 MSHR_MERGE:          9
cpu0->cpu0_L2C PREFETCH     ACCESS:      59972 HIT:      31747 MISS:      28225 MSHR_MERGE:       3719
cpu0->cpu0_L2C WRITE        ACCESS:     498212 HIT:     495817 MISS:       2395 MSHR_MERGE:          0
cpu0->cpu0_L2C TRANSLATION  ACCESS:     190156 HIT:      68066 MISS:     122090 MSHR_MERGE:          0
cpu0->cpu0_L2C PREFETCH REQUESTED:      67367 ISSUED:      48433 USEFUL:      10348 USELESS:       9325 LATE:        535
cpu0->cpu0_L2C AVERAGE MISS LATENCY: 28.65 cycles
cpu0->cpu0_L1I TOTAL        ACCESS:   15240625 HIT:   11250922 MISS:    3989703 MSHR_MERGE:    1461536
cpu0->cpu0_L1I LOAD         ACCESS:   15240625 HIT:   11250922 MISS:    3989703 MSHR_MERGE:    1461536
cpu0->cpu0_L1I RFO          ACCESS:          0 HIT:          0 MISS:          0 MSHR_MERGE:          0
cpu0->cpu0_L1I PREFETCH     ACCESS:          0 HIT:          0 MISS:          0 MSHR_MERGE:          0
cpu0->cpu0_L1I WRITE        ACCESS:          0 HIT:          0 MISS:          0 MSHR_MERGE:          0
cpu0->cpu0_L1I TRANSLATION  ACCESS:          0 HIT:          0 MISS:          0 MSHR_MERGE:          0
cpu0->cpu0_L1I PREFETCH REQUESTED:          0 ISSUED:          0 USEFUL:          0 USELESS:          0 LATE:          0
cpu0->cpu0_L1I AVERAGE MISS LATENCY: 15.31 cycles
cpu0->cpu0_L1D TOTAL        ACCESS:   24077304 HIT:   21915716 MISS:    2161588 MSHR_MERGE:     695702
cpu0->cpu0_L1D LOAD         ACCESS:   13529609 HIT:   12057622 MISS:    1471987 MSHR_MERGE:     379619
cpu0->cpu0_L1D RFO          ACCESS:          0 HIT:          0 MISS:          0 MSHR_MERGE:          0
cpu0->cpu0_L1D PREFETCH     ACCESS:     105231 HIT:      91021 MISS:      14210 MSHR_MERGE:       1317
cpu0->cpu0_L1D WRITE        ACCESS:    9939926 HIT:    9458029 MISS:     481897 MSHR_MERGE:     311428
cpu0->cpu0_L1D TRANSLATION  ACCESS:     502538 HIT:     309044 MISS:     193494 MSHR_MERGE:       3338
cpu0->cpu0_L1D PREFETCH REQUESTED:     193444 ISSUED:     105231 USEFUL:       2163 USELESS:       1312 LATE:        840
cpu0->cpu0_L1D AVERAGE MISS LATENCY: 34.28 cycles
cpu0->cpu0_ITLB TOTAL        ACCESS:   12894312 HIT:   11896015 MISS:     998297 MSHR_MERGE:     610694
cpu0->cpu0_ITLB LOAD         ACCESS:   12894312 HIT:   11896015 MISS:     998297 MSHR_MERGE:     610694
cpu0->cpu0_ITLB RFO          ACCESS:          0 HIT:          0 MISS:          0 MSHR_MERGE:          0
cpu0->cpu0_ITLB PREFETCH     ACCESS:          0 HIT:          0 MISS:          0 MSHR_MERGE:          0
cpu0->cpu0_ITLB WRITE        ACCESS:          0 HIT:          0 MISS:          0 MSHR_MERGE:          0
cpu0->cpu0_ITLB TRANSLATION  ACCESS:          0 HIT:          0 MISS:          0 MSHR_MERGE:          0
cpu0->cpu0_ITLB PREFETCH REQUESTED:          0 ISSUED:          0 USEFUL:          0 USELESS:          0 LATE:          0
cpu0->cpu0_ITLB AVERAGE MISS LATENCY: 10.54 cycles
cpu0->cpu0_DTLB TOTAL        ACCESS:   22267437 HIT:   20618336 MISS:    1649101 MSHR_MERGE:     437717
cpu0->cpu0_DTLB LOAD         ACCESS:   22267437 HIT:   20618336 MISS:    1649101 MSHR_MERGE:     437717
cpu0->cpu0_DTLB RFO          ACCESS:          0 HIT:          0 MISS:          0 MSHR_MERGE:          0
cpu0->cpu0_DTLB PREFETCH     ACCESS:          0 HIT:          0 MISS:          0 MSHR_MERGE:          0
cpu0->cpu0_DTLB WRITE        ACCESS:          0 HIT:          0 MISS:          0 MSHR_MERGE:          0
cpu0->cpu0_DTLB TRANSLATION  ACCESS:          0 HIT:          0 MISS:          0 MSHR_MERGE:          0
cpu0->cpu0_DTLB PREFETCH REQUESTED:          0 ISSUED:          0 USEFUL:          0 USELESS:          0 LATE:          0
cpu0->cpu0_DTLB AVERAGE MISS LATENCY: 9.127 cycles
cpu0->LLC TOTAL        ACCESS:    2283555 HIT:    2124930 MISS:     158625 MSHR_MERGE:          0
cpu0->LLC LOAD         ACCESS:    1742034 HIT:    1623049 MISS:     118985 MSHR_MERGE:          0
cpu0->LLC RFO          ACCESS:      99055 HIT:      75486 MISS:      23569 MSHR_MERGE:          0
cpu0->LLC PREFETCH     ACCESS:      24506 HIT:      16679 MISS:       7827 MSHR_MERGE:          0
cpu0->LLC WRITE        ACCESS:     295870 HIT:     291089 MISS:       4781 MSHR_MERGE:          0
cpu0->LLC TRANSLATION  ACCESS:     122090 HIT:     118627 MISS:       3463 MSHR_MERGE:          0
cpu0->LLC PREFETCH REQUESTED:          0 ISSUED:          0 USEFUL:          0 USELESS:          0 LATE:          0
cpu0->LLC AVERAGE MISS LATENCY: 177.5 cycles

DRAM Statistics

Channel 0 RQ ROW_BUFFER_HIT:       4489
  ROW_BUFFER_MISS:     149340
  AVG DBUS CONGESTED CYCLE: 16.27
Channel 0 WQ ROW_BUFFER_HIT:      21992
  ROW_BUFFER_MISS:      81877
  FULL:          0
Channel 0 REFRESHES ISSUED:       5540

[ROI Statistics]
[System Configuration]
num_cpus 1
cpu_freq 4000
fetch_width 6
decode_width 6
dispatch_width 6
execute_width 6
lq_width 2
sq_width 2
retire_width 6
scheduler_size 128
branch_mispredict_penalty 15
rob_size 352
lq_size 128
sq_size 72
ifetch_buffer_size 64
decode_buffer_size 32
dispatch_buffer_size 32
register_file_size 288
decode_latency 1
dispatch_latency 1
schedule_latency 1
execute_latency 1
page_size 4096
block_size 64
core_0_itlb_set 16
core_0_itlb_way 4
core_0_itlb_rq_size 16
core_0_itlb_wq_size 16
core_0_itlb_pq_size 0
core_0_itlb_mshr_size 8
core_0_itlb_hit_latency 1
core_0_itlb_fill_latency 1
core_0_itlb_max_tag_check 2
core_0_itlb_max_fill 2
core_0_dtlb_set 16
core_0_dtlb_way 4
core_0_dtlb_rq_size 16
core_0_dtlb_wq_size 16
core_0_dtlb_pq_size 0
core_0_dtlb_mshr_size 8
core_0_dtlb_hit_latency 1
core_0_dtlb_fill_latency 1
core_0_dtlb_max_tag_check 2
core_0_dtlb_max_fill 2
core_0_stlb_set 128
core_0_stlb_way 12
core_0_stlb_rq_size 32
core_0_stlb_wq_size 32
core_0_stlb_pq_size 0
core_0_stlb_mshr_size 16
core_0_stlb_hit_latency 4
core_0_stlb_fill_latency 4
core_0_stlb_max_tag_check 1
core_0_stlb_max_fill 1
core_0_l1i_set 64
core_0_l1i_way 8
core_0_l1i_rq_size 64
core_0_l1i_wq_size 64
core_0_l1i_pq_size 32
core_0_l1i_mshr_size 8
core_0_l1i_hit_latency 2
core_0_l1i_fill_latency 2
core_0_l1i_max_tag_check 2
core_0_l1i_max_fill 2
core_0_l1d_set 64
core_0_l1d_way 12
core_0_l1d_rq_size 64
core_0_l1d_wq_size 64
core_0_l1d_pq_size 8
core_0_l1d_mshr_size 16
core_0_l1d_hit_latency 2
core_0_l1d_fill_latency 3
core_0_l1d_max_tag_check 2
core_0_l1d_max_fill 2
core_0_l2c_set 1024
core_0_l2c_way 8
core_0_l2c_rq_size 32
core_0_l2c_wq_size 32
core_0_l2c_pq_size 16
core_0_l2c_mshr_size 32
core_0_l2c_hit_latency 5
core_0_l2c_fill_latency 5
core_0_l2c_max_tag_check 1
core_0_l2c_max_fill 1
llc_set 2048
llc_way 16
llc_rq_size 32
llc_wq_size 32
llc_pq_size 32
llc_mshr_size 64
llc_hit_latency 10
llc_fill_latency 10
llc_max_tag_check 1
llc_max_fill 1
dram_channels 1
dram_ranks 1
dram_bankgroups 8
dram_banks 4
dram_rows 65536
dram_columns 1024
dram_channel_width 8
dram_rq_size 64
dram_wq_size 64
dram_size 17179869184
core_0_itlb_prefetcher no
core_0_dtlb_prefetcher no
core_0_stlb_prefetcher no
core_0_l1i_prefetcher next_line
core_0_l1d_prefetcher vberti_nocross
core_0_l2c_prefetcher ip_stride
llc_prefetcher no
llc_replacement drrip

Core_0_instructions 100000001
Core_0_cycles 66474409
Core_0_IPC 1.50434
Core_0_branch_prediction_accuracy 97.0027
Core_0_branch_MPKI 5.40134
Core_0_average_ROB_occupancy_at_mispredict 81.5795

Core_0_ITLB_total_access 12894312
Core_0_ITLB_total_hit 11896015
Core_0_ITLB_total_miss 998297
Core_0_ITLB_total_MPKI 9.98297
Core_0_ITLB_total_miss_rate 0.0774215
Core_0_ITLB_demand_access 12894312
Core_0_ITLB_demand_hit 11896015
Core_0_ITLB_demand_miss 998297
Core_0_ITLB_demand_MPKI 9.98297
Core_0_ITLB_demand_miss_rate 0.0774215
Core_0_ITLB_load_access 12894312
Core_0_ITLB_load_hit 11896015
Core_0_ITLB_load_miss 998297
Core_0_ITLB_load_MPKI 9.98297
Core_0_ITLB_load_miss_rate 0.0774215
Core_0_ITLB_rfo_access 0
Core_0_ITLB_rfo_hit 0
Core_0_ITLB_rfo_miss 0
Core_0_ITLB_rfo_MPKI 0
Core_0_ITLB_rfo_miss_rate 0
Core_0_ITLB_prefetch_access 0
Core_0_ITLB_prefetch_hit 0
Core_0_ITLB_prefetch_miss 0
Core_0_ITLB_prefetch_MPKI 0
Core_0_ITLB_prefetch_miss_rate 0
Core_0_ITLB_writeback_access 0
Core_0_ITLB_writeback_hit 0
Core_0_ITLB_writeback_miss 0
Core_0_ITLB_writeback_MPKI 0
Core_0_ITLB_writeback_miss_rate 0
Core_0_ITLB_prefetch_requested 0
Core_0_ITLB_prefetch_issued 0
Core_0_ITLB_prefetch_useful 0
Core_0_ITLB_prefetch_useless 0
Core_0_ITLB_prefetch_late 0
Core_0_ITLB_prefetch_accuracy 0
Core_0_ITLB_prefetch_coverage 0
Core_0_ITLB_total_eviction 387603

Core_0_DTLB_total_access 22267437
Core_0_DTLB_total_hit 20618336
Core_0_DTLB_total_miss 1649101
Core_0_DTLB_total_MPKI 16.491
Core_0_DTLB_total_miss_rate 0.0740589
Core_0_DTLB_demand_access 22267437
Core_0_DTLB_demand_hit 20618336
Core_0_DTLB_demand_miss 1649101
Core_0_DTLB_demand_MPKI 16.491
Core_0_DTLB_demand_miss_rate 0.0740589
Core_0_DTLB_load_access 22267437
Core_0_DTLB_load_hit 20618336
Core_0_DTLB_load_miss 1649101
Core_0_DTLB_load_MPKI 16.491
Core_0_DTLB_load_miss_rate 0.0740589
Core_0_DTLB_rfo_access 0
Core_0_DTLB_rfo_hit 0
Core_0_DTLB_rfo_miss 0
Core_0_DTLB_rfo_MPKI 0
Core_0_DTLB_rfo_miss_rate 0
Core_0_DTLB_prefetch_access 0
Core_0_DTLB_prefetch_hit 0
Core_0_DTLB_prefetch_miss 0
Core_0_DTLB_prefetch_MPKI 0
Core_0_DTLB_prefetch_miss_rate 0
Core_0_DTLB_writeback_access 0
Core_0_DTLB_writeback_hit 0
Core_0_DTLB_writeback_miss 0
Core_0_DTLB_writeback_MPKI 0
Core_0_DTLB_writeback_miss_rate 0
Core_0_DTLB_prefetch_requested 0
Core_0_DTLB_prefetch_issued 0
Core_0_DTLB_prefetch_useful 0
Core_0_DTLB_prefetch_useless 0
Core_0_DTLB_prefetch_late 0
Core_0_DTLB_prefetch_accuracy 0
Core_0_DTLB_prefetch_coverage 0
Core_0_DTLB_total_eviction 1211384

Core_0_STLB_total_access 1598987
Core_0_STLB_total_hit 1372230
Core_0_STLB_total_miss 226757
Core_0_STLB_total_MPKI 2.26757
Core_0_STLB_total_miss_rate 0.141813
Core_0_STLB_demand_access 1598987
Core_0_STLB_demand_hit 1372230
Core_0_STLB_demand_miss 226757
Core_0_STLB_demand_MPKI 2.26757
Core_0_STLB_demand_miss_rate 0.141813
Core_0_STLB_load_access 1598987
Core_0_STLB_load_hit 1372230
Core_0_STLB_load_miss 226757
Core_0_STLB_load_MPKI 2.26757
Core_0_STLB_load_miss_rate 0.141813
Core_0_STLB_rfo_access 0
Core_0_STLB_rfo_hit 0
Core_0_STLB_rfo_miss 0
Core_0_STLB_rfo_MPKI 0
Core_0_STLB_rfo_miss_rate 0
Core_0_STLB_prefetch_access 0
Core_0_STLB_prefetch_hit 0
Core_0_STLB_prefetch_miss 0
Core_0_STLB_prefetch_MPKI 0
Core_0_STLB_prefetch_miss_rate 0
Core_0_STLB_writeback_access 0
Core_0_STLB_writeback_hit 0
Core_0_STLB_writeback_miss 0
Core_0_STLB_writeback_MPKI 0
Core_0_STLB_writeback_miss_rate 0
Core_0_STLB_prefetch_requested 0
Core_0_STLB_prefetch_issued 0
Core_0_STLB_prefetch_useful 0
Core_0_STLB_prefetch_useless 0
Core_0_STLB_prefetch_late 0
Core_0_STLB_prefetch_accuracy 0
Core_0_STLB_prefetch_coverage 0
Core_0_STLB_total_eviction 226757

Core_0_L1I_total_access 15240625
Core_0_L1I_total_hit 11250922
Core_0_L1I_total_miss 3989703
Core_0_L1I_total_MPKI 39.897
Core_0_L1I_total_miss_rate 0.261781
Core_0_L1I_demand_access 15240625
Core_0_L1I_demand_hit 11250922
Core_0_L1I_demand_miss 3989703
Core_0_L1I_demand_MPKI 39.897
Core_0_L1I_demand_miss_rate 0.261781
Core_0_L1I_load_access 15240625
Core_0_L1I_load_hit 11250922
Core_0_L1I_load_miss 3989703
Core_0_L1I_load_MPKI 39.897
Core_0_L1I_load_miss_rate 0.261781
Core_0_L1I_rfo_access 0
Core_0_L1I_rfo_hit 0
Core_0_L1I_rfo_miss 0
Core_0_L1I_rfo_MPKI 0
Core_0_L1I_rfo_miss_rate 0
Core_0_L1I_prefetch_access 0
Core_0_L1I_prefetch_hit 0
Core_0_L1I_prefetch_miss 0
Core_0_L1I_prefetch_MPKI 0
Core_0_L1I_prefetch_miss_rate 0
Core_0_L1I_writeback_access 0
Core_0_L1I_writeback_hit 0
Core_0_L1I_writeback_miss 0
Core_0_L1I_writeback_MPKI 0
Core_0_L1I_writeback_miss_rate 0
Core_0_L1I_prefetch_requested 0
Core_0_L1I_prefetch_issued 0
Core_0_L1I_prefetch_useful 0
Core_0_L1I_prefetch_useless 0
Core_0_L1I_prefetch_late 0
Core_0_L1I_prefetch_accuracy 0
Core_0_L1I_prefetch_coverage 0
Core_0_L1I_total_eviction 2528167

Core_0_L1D_total_access 23574766
Core_0_L1D_total_hit 21606672
Core_0_L1D_total_miss 1968094
Core_0_L1D_total_MPKI 19.6809
Core_0_L1D_total_miss_rate 0.0834831
Core_0_L1D_demand_access 13529609
Core_0_L1D_demand_hit 12057622
Core_0_L1D_demand_miss 1471987
Core_0_L1D_demand_MPKI 14.7199
Core_0_L1D_demand_miss_rate 0.108797
Core_0_L1D_load_access 13529609
Core_0_L1D_load_hit 12057622
Core_0_L1D_load_miss 1471987
Core_0_L1D_load_MPKI 14.7199
Core_0_L1D_load_miss_rate 0.108797
Core_0_L1D_rfo_access 0
Core_0_L1D_rfo_hit 0
Core_0_L1D_rfo_miss 0
Core_0_L1D_rfo_MPKI 0
Core_0_L1D_rfo_miss_rate 0
Core_0_L1D_prefetch_access 105231
Core_0_L1D_prefetch_hit 91021
Core_0_L1D_prefetch_miss 14210
Core_0_L1D_prefetch_MPKI 0.1421
Core_0_L1D_prefetch_miss_rate 0.135036
Core_0_L1D_writeback_access 9939926
Core_0_L1D_writeback_hit 9458029
Core_0_L1D_writeback_miss 481897
Core_0_L1D_writeback_MPKI 4.81897
Core_0_L1D_writeback_miss_rate 0.0484809
Core_0_L1D_prefetch_requested 193444
Core_0_L1D_prefetch_issued 105231
Core_0_L1D_prefetch_useful 2163
Core_0_L1D_prefetch_useless 1312
Core_0_L1D_prefetch_late 840
Core_0_L1D_prefetch_accuracy 0.0205548
Core_0_L1D_prefetch_coverage 0.00146729
Core_0_L1D_total_eviction 1456467

Core_0_L2C_total_access 4349171
Core_0_L2C_total_hit 2476100
Core_0_L2C_total_miss 1873071
Core_0_L2C_total_MPKI 18.7307
Core_0_L2C_total_miss_rate 0.430673
Core_0_L2C_demand_access 3790987
Core_0_L2C_demand_hit 1948536
Core_0_L2C_demand_miss 1842451
Core_0_L2C_demand_MPKI 18.4245
Core_0_L2C_demand_miss_rate 0.486008
Core_0_L2C_load_access 3620524
Core_0_L2C_load_hit 1877137
Core_0_L2C_load_miss 1743387
Core_0_L2C_load_MPKI 17.4339
Core_0_L2C_load_miss_rate 0.481529
Core_0_L2C_rfo_access 170463
Core_0_L2C_rfo_hit 71399
Core_0_L2C_rfo_miss 99064
Core_0_L2C_rfo_MPKI 0.99064
Core_0_L2C_rfo_miss_rate 0.581147
Core_0_L2C_prefetch_access 59972
Core_0_L2C_prefetch_hit 31747
Core_0_L2C_prefetch_miss 28225
Core_0_L2C_prefetch_MPKI 0.28225
Core_0_L2C_prefetch_miss_rate 0.470636
Core_0_L2C_writeback_access 498212
Core_0_L2C_writeback_hit 495817
Core_0_L2C_writeback_miss 2395
Core_0_L2C_writeback_MPKI 0.02395
Core_0_L2C_writeback_miss_rate 0.00480719
Core_0_L2C_prefetch_requested 67367
Core_0_L2C_prefetch_issued 48433
Core_0_L2C_prefetch_useful 10348
Core_0_L2C_prefetch_useless 9325
Core_0_L2C_prefetch_late 535
Core_0_L2C_prefetch_accuracy 0.213656
Core_0_L2C_prefetch_coverage 0.00558506
Core_0_L2C_total_eviction 1990073

Core_0_LLC_total_access 2161465
Core_0_LLC_total_hit 2006303
Core_0_LLC_total_miss 155162
Core_0_LLC_total_MPKI 1.55162
Core_0_LLC_total_miss_rate 0.0717856
Core_0_LLC_demand_access 1841089
Core_0_LLC_demand_hit 1698535
Core_0_LLC_demand_miss 142554
Core_0_LLC_demand_MPKI 1.42554
Core_0_LLC_demand_miss_rate 0.0774292
Core_0_LLC_load_access 1742034
Core_0_LLC_load_hit 1623049
Core_0_LLC_load_miss 118985
Core_0_LLC_load_MPKI 1.18985
Core_0_LLC_load_miss_rate 0.0683023
Core_0_LLC_rfo_access 99055
Core_0_LLC_rfo_hit 75486
Core_0_LLC_rfo_miss 23569
Core_0_LLC_rfo_MPKI 0.23569
Core_0_LLC_rfo_miss_rate 0.237939
Core_0_LLC_prefetch_access 24506
Core_0_LLC_prefetch_hit 16679
Core_0_LLC_prefetch_miss 7827
Core_0_LLC_prefetch_MPKI 0.07827
Core_0_LLC_prefetch_miss_rate 0.319391
Core_0_LLC_writeback_access 295870
Core_0_LLC_writeback_hit 291089
Core_0_LLC_writeback_miss 4781
Core_0_LLC_writeback_MPKI 0.04781
Core_0_LLC_writeback_miss_rate 0.0161591
Core_0_LLC_prefetch_requested 0
Core_0_LLC_prefetch_issued 0
Core_0_LLC_prefetch_useful 0
Core_0_LLC_prefetch_useless 0
Core_0_LLC_prefetch_late 0
Core_0_LLC_prefetch_accuracy 0
Core_0_LLC_prefetch_coverage 0
Core_0_LLC_total_eviction 158625

[DRAM Statistics]
Channel_0_RQ_row_buffer_hit 4489
Channel_0_RQ_row_buffer_miss 149340
Channel_0_WQ_row_buffer_hit 21992
Channel_0_WQ_row_buffer_miss 81877
Channel_0_WQ_full 0
Channel_0_dbus_congested 779288
DRAM_total_RQ_row_buffer_hit 4489
DRAM_total_RQ_row_buffer_miss 149340
DRAM_total_WQ_row_buffer_hit 21992
DRAM_total_WQ_row_buffer_miss 81877
DRAM_total_WQ_full 0
DRAM_total_dbus_congested 779288
DRAM_avg_congested_cycle 16.2749

======STLB miss causes ========
Core_0_STLB_miss_cause_breakdown
Core_0_STLB_cause_Demand_Data_miss 142347
Core_0_STLB_cause_Demand_Data_miss_rate 0.0890232
Core_0_STLB_cause_Demand_Instruction_miss 84410
Core_0_STLB_cause_Demand_Instruction_miss_rate 0.0527897
Core_0_STLB_cause_L1D_Prefetch_miss 0
Core_0_STLB_cause_L1D_Prefetch_miss_rate 0
Core_0_STLB_cause_L1I_Prefetch_miss 0
Core_0_STLB_cause_L1I_Prefetch_miss_rate 0
Core_0_STLB_cause_Other_miss 0
Core_0_STLB_cause_Other_miss_rate 0
Core_0_STLB_Demand_miss 226757
Core_0_STLB_Demand_miss_rate 0.141813
Core_0_STLB_L1D_Prefetch_miss 0
Core_0_STLB_L1D_Prefetch_miss_rate 0
Core_0_STLB_Other_miss 0
Core_0_STLB_Other_miss_rate 0
BERTI TO_L1: 285315 TO_L2: 250561 TO_L2_BC_MSHR: 12648
BERTI AVG_LAT: 25.9581 NUM_TRACK_LATENCY: 1894415 NUM_CANT_TRACK_LATENCY: 0
BERTI CROSS_PAGE 78309 NO_CROSS_PAGE: 535876
BERTI FOUND_BERTI: 1231771 NO_FOUND_BERTI: 32021735
BERTI AVERAGE_ISSUED: 3.62557
