[VMEM] WARNING: physical memory size is smaller than virtual memory size.

*** ChampSim Multicore Out-of-Order Simulator ***
Warmup Instructions: 50000000
Simulation Instructions: 100000000
Number of CPUs: 1
Page size: 4096
STLB ideal mode: off
STLB ideal fill: off
Core 0: /data0/tzh/champsim_traces/QMM/srv_0_new.xz
VBerti Prefetcher
No Crossing Page
BERTI HASH ENTANGLING
BERTI IP MASK ffff
Off-chip DRAM Size: 16 GiB Channels: 1 Width: 64-bit Data Rate: 3205 MT/s
[BTB] WARNING: target of return is a lower address than the corresponding call. This is usually a problem with your trace.
[BTB] WARNING: target of return is a lower address than the corresponding call. This is usually a problem with your trace.
[BTB] WARNING: target of return is a lower address than the corresponding call. This is usually a problem with your trace.
[BTB] WARNING: target of return is a lower address than the corresponding call. This is usually a problem with your trace.
[BTB] WARNING: target of return is a lower address than the corresponding call. This is usually a problem with your trace.
[BTB] WARNING: target of return is a lower address than the corresponding call. This is usually a problem with your trace.
[BTB] WARNING: target of return is a lower address than the corresponding call. This is usually a problem with your trace.
[BTB] WARNING: target of return is a lower address than the corresponding call. This is usually a problem with your trace.
[BTB] WARNING: target of return is a lower address than the corresponding call. This is usually a problem with your trace.
[BTB] WARNING: target of return is a lower address than the corresponding call. This is usually a problem with your trace.
*** Reached end of trace: (0, "/data0/tzh/champsim_traces/QMM/srv_0_new.xz")
Warmup halting CPU 0 at instruction 50000002 cycle 10807265 for remainder of phase
Warmup finished CPU 0 instructions: 50000002 cycles: 10807265 cumulative IPC: 4.627 (Simulation time: 00 hr 02 min 46 sec)
Warmup complete CPU 0 instructions: 50000002 cycles: 10807265 cumulative IPC: 4.627 (Simulation time: 00 hr 02 min 46 sec)
*** Reached end of trace: (0, "/data0/tzh/champsim_traces/QMM/srv_0_new.xz")
*** Reached end of trace: (0, "/data0/tzh/champsim_traces/QMM/srv_0_new.xz")
*** Reached end of trace: (0, "/data0/tzh/champsim_traces/QMM/srv_0_new.xz")
Simulation finished CPU 0 instructions: 100000005 cycles: 61959122 cumulative IPC: 1.614 (Simulation time: 00 hr 12 min 03 sec)
Simulation complete CPU 0 instructions: 100000005 cycles: 61959122 cumulative IPC: 1.614 (Simulation time: 00 hr 12 min 03 sec)

ChampSim completed all CPUs

=== Simulation ===
CPU 0 runs /data0/tzh/champsim_traces/QMM/srv_0_new.xz

Region of Interest Statistics

CPU 0 cumulative IPC: 1.614 instructions: 100000005 cycles: 61959122
CPU 0 Branch Prediction Accuracy: 97.36% MPKI: 4.774 Average ROB Occupancy at Mispredict: 94.97
Branch type MPKI
BRANCH_DIRECT_JUMP: 0.4304
BRANCH_INDIRECT: 0.3047
BRANCH_CONDITIONAL: 2.487
BRANCH_DIRECT_CALL: 0.7769
BRANCH_INDIRECT_CALL: 0.1743
BRANCH_RETURN: 0.6011

cpu0->cpu0_STLB TOTAL        ACCESS:    1636424 HIT:    1408234 MISS:     228190 MSHR_MERGE:          0
cpu0->cpu0_STLB LOAD         ACCESS:    1636424 HIT:    1408234 MISS:     228190 MSHR_MERGE:          0
cpu0->cpu0_STLB RFO          ACCESS:          0 HIT:          0 MISS:          0 MSHR_MERGE:          0
cpu0->cpu0_STLB PREFETCH     ACCESS:          0 HIT:          0 MISS:          0 MSHR_MERGE:          0
cpu0->cpu0_STLB WRITE        ACCESS:          0 HIT:          0 MISS:          0 MSHR_MERGE:          0
cpu0->cpu0_STLB TRANSLATION  ACCESS:          0 HIT:          0 MISS:          0 MSHR_MERGE:          0
cpu0->cpu0_STLB PREFETCH REQUESTED:          0 ISSUED:          0 USEFUL:          0 USELESS:          0 LATE:          0
cpu0->cpu0_STLB AVERAGE MISS LATENCY: 29.93 cycles
cpu0->cpu0_L2C TOTAL        ACCESS:    4644037 HIT:    2550752 MISS:    2093285 MSHR_MERGE:       6592
cpu0->cpu0_L2C LOAD         ACCESS:    3700630 HIT:    1862791 MISS:    1837839 MSHR_MERGE:       1534
cpu0->cpu0_L2C RFO          ACCESS:     175048 HIT:      72799 MISS:     102249 MSHR_MERGE:          2
cpu0->cpu0_L2C PREFETCH     ACCESS:      57813 HIT:      29981 MISS:      27832 MSHR_MERGE:       5056
cpu0->cpu0_L2C WRITE        ACCESS:     517700 HIT:     514190 MISS:       3510 MSHR_MERGE:          0
cpu0->cpu0_L2C TRANSLATION  ACCESS:     192846 HIT:      70991 MISS:     121855 MSHR_MERGE:          0
cpu0->cpu0_L2C PREFETCH REQUESTED:      68327 ISSUED:      50185 USEFUL:       9014 USELESS:       9067 LATE:        705
cpu0->cpu0_L2C AVERAGE MISS LATENCY: 26.55 cycles
cpu0->cpu0_L1I TOTAL        ACCESS:   15312305 HIT:   11207230 MISS:    4105075 MSHR_MERGE:    1520116
cpu0->cpu0_L1I LOAD         ACCESS:   15312305 HIT:   11207230 MISS:    4105075 MSHR_MERGE:    1520116
cpu0->cpu0_L1I RFO          ACCESS:          0 HIT:          0 MISS:          0 MSHR_MERGE:          0
cpu0->cpu0_L1I PREFETCH     ACCESS:          0 HIT:          0 MISS:          0 MSHR_MERGE:          0
cpu0->cpu0_L1I WRITE        ACCESS:          0 HIT:          0 MISS:          0 MSHR_MERGE:          0
cpu0->cpu0_L1I TRANSLATION  ACCESS:          0 HIT:          0 MISS:          0 MSHR_MERGE:          0
cpu0->cpu0_L1I PREFETCH REQUESTED:          0 ISSUED:          0 USEFUL:          0 USELESS:          0 LATE:          0
cpu0->cpu0_L1I AVERAGE MISS LATENCY: 15.36 cycles
cpu0->cpu0_L1D TOTAL        ACCESS:   23705470 HIT:   21525570 MISS:    2179900 MSHR_MERGE:     687916
cpu0->cpu0_L1D LOAD         ACCESS:   13264557 HIT:   11766883 MISS:    1497674 MSHR_MERGE:     381996
cpu0->cpu0_L1D RFO          ACCESS:          0 HIT:          0 MISS:          0 MSHR_MERGE:          0
cpu0->cpu0_L1D PREFETCH     ACCESS:      34147 HIT:      24121 MISS:      10026 MSHR_MERGE:       1624
cpu0->cpu0_L1D WRITE        ACCESS:    9900487 HIT:    9424672 MISS:     475815 MSHR_MERGE:     300757
cpu0->cpu0_L1D TRANSLATION  ACCESS:     506279 HIT:     309894 MISS:     196385 MSHR_MERGE:       3539
cpu0->cpu0_L1D PREFETCH REQUESTED:     148433 ISSUED:      34147 USEFUL:       2651 USELESS:        879 LATE:        745
cpu0->cpu0_L1D AVERAGE MISS LATENCY: 32.4 cycles
cpu0->cpu0_ITLB TOTAL        ACCESS:   12973189 HIT:   11969597 MISS:    1003592 MSHR_MERGE:     620717
cpu0->cpu0_ITLB LOAD         ACCESS:   12973189 HIT:   11969597 MISS:    1003592 MSHR_MERGE:     620717
cpu0->cpu0_ITLB RFO          ACCESS:          0 HIT:          0 MISS:          0 MSHR_MERGE:          0
cpu0->cpu0_ITLB PREFETCH     ACCESS:          0 HIT:          0 MISS:          0 MSHR_MERGE:          0
cpu0->cpu0_ITLB WRITE        ACCESS:          0 HIT:          0 MISS:          0 MSHR_MERGE:          0
cpu0->cpu0_ITLB TRANSLATION  ACCESS:          0 HIT:          0 MISS:          0 MSHR_MERGE:          0
cpu0->cpu0_ITLB PREFETCH REQUESTED:          0 ISSUED:          0 USEFUL:          0 USELESS:          0 LATE:          0
cpu0->cpu0_ITLB AVERAGE MISS LATENCY: 10.88 cycles
cpu0->cpu0_DTLB TOTAL        ACCESS:   21866521 HIT:   20167529 MISS:    1698992 MSHR_MERGE:     445441
cpu0->cpu0_DTLB LOAD         ACCESS:   21866521 HIT:   20167529 MISS:    1698992 MSHR_MERGE:     445441
cpu0->cpu0_DTLB RFO          ACCESS:          0 HIT:          0 MISS:          0 MSHR_MERGE:          0
cpu0->cpu0_DTLB PREFETCH     ACCESS:          0 HIT:          0 MISS:          0 MSHR_MERGE:          0
cpu0->cpu0_DTLB WRITE        ACCESS:          0 HIT:          0 MISS:          0 MSHR_MERGE:          0
cpu0->cpu0_DTLB TRANSLATION  ACCESS:          0 HIT:          0 MISS:          0 MSHR_MERGE:          0
cpu0->cpu0_DTLB PREFETCH REQUESTED:          0 ISSUED:          0 USEFUL:          0 USELESS:          0 LATE:          0
cpu0->cpu0_DTLB AVERAGE MISS LATENCY: 8.849 cycles
cpu0->LLC TOTAL        ACCESS:    2393087 HIT:    2228991 MISS:     164096 MSHR_MERGE:          0
cpu0->LLC LOAD         ACCESS:    1836305 HIT:    1729013 MISS:     107292 MSHR_MERGE:          0
cpu0->LLC RFO          ACCESS:     102247 HIT:      82025 MISS:      20222 MSHR_MERGE:          0
cpu0->LLC PREFETCH     ACCESS:      22776 HIT:      16798 MISS:       5978 MSHR_MERGE:          0
cpu0->LLC WRITE        ACCESS:     309904 HIT:     282194 MISS:      27710 MSHR_MERGE:          0
cpu0->LLC TRANSLATION  ACCESS:     121855 HIT:     118961 MISS:       2894 MSHR_MERGE:          0
cpu0->LLC PREFETCH REQUESTED:          0 ISSUED:          0 USEFUL:          0 USELESS:          0 LATE:          0
cpu0->LLC AVERAGE MISS LATENCY: 151.8 cycles

DRAM Statistics

Channel 0 RQ ROW_BUFFER_HIT:       3996
  ROW_BUFFER_MISS:     132390
  AVG DBUS CONGESTED CYCLE: 16.31
Channel 0 WQ ROW_BUFFER_HIT:      19597
  ROW_BUFFER_MISS:      81825
  FULL:          0
Channel 0 REFRESHES ISSUED:       5163

[ROI Statistics]
[System Configuration]
num_cpus 1
cpu_freq 4000
fetch_width 6
decode_width 6
dispatch_width 6
execute_width 6
lq_width 2
sq_width 2
retire_width 6
scheduler_size 128
branch_mispredict_penalty 15
rob_size 352
lq_size 128
sq_size 72
ifetch_buffer_size 64
decode_buffer_size 32
dispatch_buffer_size 32
register_file_size 288
decode_latency 1
dispatch_latency 1
schedule_latency 1
execute_latency 1
page_size 4096
block_size 64
core_0_itlb_set 16
core_0_itlb_way 4
core_0_itlb_rq_size 16
core_0_itlb_wq_size 16
core_0_itlb_pq_size 0
core_0_itlb_mshr_size 8
core_0_itlb_hit_latency 1
core_0_itlb_fill_latency 1
core_0_itlb_max_tag_check 2
core_0_itlb_max_fill 2
core_0_dtlb_set 16
core_0_dtlb_way 4
core_0_dtlb_rq_size 16
core_0_dtlb_wq_size 16
core_0_dtlb_pq_size 0
core_0_dtlb_mshr_size 8
core_0_dtlb_hit_latency 1
core_0_dtlb_fill_latency 1
core_0_dtlb_max_tag_check 2
core_0_dtlb_max_fill 2
core_0_stlb_set 128
core_0_stlb_way 12
core_0_stlb_rq_size 32
core_0_stlb_wq_size 32
core_0_stlb_pq_size 0
core_0_stlb_mshr_size 16
core_0_stlb_hit_latency 4
core_0_stlb_fill_latency 4
core_0_stlb_max_tag_check 1
core_0_stlb_max_fill 1
core_0_l1i_set 64
core_0_l1i_way 8
core_0_l1i_rq_size 64
core_0_l1i_wq_size 64
core_0_l1i_pq_size 32
core_0_l1i_mshr_size 8
core_0_l1i_hit_latency 2
core_0_l1i_fill_latency 2
core_0_l1i_max_tag_check 2
core_0_l1i_max_fill 2
core_0_l1d_set 64
core_0_l1d_way 12
core_0_l1d_rq_size 64
core_0_l1d_wq_size 64
core_0_l1d_pq_size 8
core_0_l1d_mshr_size 16
core_0_l1d_hit_latency 2
core_0_l1d_fill_latency 3
core_0_l1d_max_tag_check 2
core_0_l1d_max_fill 2
core_0_l2c_set 1024
core_0_l2c_way 8
core_0_l2c_rq_size 32
core_0_l2c_wq_size 32
core_0_l2c_pq_size 16
core_0_l2c_mshr_size 32
core_0_l2c_hit_latency 5
core_0_l2c_fill_latency 5
core_0_l2c_max_tag_check 1
core_0_l2c_max_fill 1
llc_set 2048
llc_way 16
llc_rq_size 32
llc_wq_size 32
llc_pq_size 32
llc_mshr_size 64
llc_hit_latency 10
llc_fill_latency 10
llc_max_tag_check 1
llc_max_fill 1
dram_channels 1
dram_ranks 1
dram_bankgroups 8
dram_banks 4
dram_rows 65536
dram_columns 1024
dram_channel_width 8
dram_rq_size 64
dram_wq_size 64
dram_size 17179869184
core_0_itlb_prefetcher no
core_0_dtlb_prefetcher no
core_0_stlb_prefetcher no
core_0_l1i_prefetcher next_line
core_0_l1d_prefetcher vberti_nocross
core_0_l2c_prefetcher ip_stride
llc_prefetcher no
llc_replacement drrip

Core_0_instructions 100000005
Core_0_cycles 61959122
Core_0_IPC 1.61397
Core_0_branch_prediction_accuracy 97.3573
Core_0_branch_MPKI 4.77406
Core_0_average_ROB_occupancy_at_mispredict 94.9683

Core_0_ITLB_total_access 12973189
Core_0_ITLB_total_hit 11969597
Core_0_ITLB_total_miss 1003592
Core_0_ITLB_total_MPKI 10.0359
Core_0_ITLB_total_miss_rate 0.0773589
Core_0_ITLB_demand_access 12973189
Core_0_ITLB_demand_hit 11969597
Core_0_ITLB_demand_miss 1003592
Core_0_ITLB_demand_MPKI 10.0359
Core_0_ITLB_demand_miss_rate 0.0773589
Core_0_ITLB_load_access 12973189
Core_0_ITLB_load_hit 11969597
Core_0_ITLB_load_miss 1003592
Core_0_ITLB_load_MPKI 10.0359
Core_0_ITLB_load_miss_rate 0.0773589
Core_0_ITLB_rfo_access 0
Core_0_ITLB_rfo_hit 0
Core_0_ITLB_rfo_miss 0
Core_0_ITLB_rfo_MPKI 0
Core_0_ITLB_rfo_miss_rate 0
Core_0_ITLB_prefetch_access 0
Core_0_ITLB_prefetch_hit 0
Core_0_ITLB_prefetch_miss 0
Core_0_ITLB_prefetch_MPKI 0
Core_0_ITLB_prefetch_miss_rate 0
Core_0_ITLB_writeback_access 0
Core_0_ITLB_writeback_hit 0
Core_0_ITLB_writeback_miss 0
Core_0_ITLB_writeback_MPKI 0
Core_0_ITLB_writeback_miss_rate 0
Core_0_ITLB_prefetch_requested 0
Core_0_ITLB_prefetch_issued 0
Core_0_ITLB_prefetch_useful 0
Core_0_ITLB_prefetch_useless 0
Core_0_ITLB_prefetch_late 0
Core_0_ITLB_prefetch_accuracy 0
Core_0_ITLB_prefetch_coverage 0
Core_0_ITLB_total_eviction 382874

Core_0_DTLB_total_access 21866521
Core_0_DTLB_total_hit 20167529
Core_0_DTLB_total_miss 1698992
Core_0_DTLB_total_MPKI 16.9899
Core_0_DTLB_total_miss_rate 0.0776983
Core_0_DTLB_demand_access 21866521
Core_0_DTLB_demand_hit 20167529
Core_0_DTLB_demand_miss 1698992
Core_0_DTLB_demand_MPKI 16.9899
Core_0_DTLB_demand_miss_rate 0.0776983
Core_0_DTLB_load_access 21866521
Core_0_DTLB_load_hit 20167529
Core_0_DTLB_load_miss 1698992
Core_0_DTLB_load_MPKI 16.9899
Core_0_DTLB_load_miss_rate 0.0776983
Core_0_DTLB_rfo_access 0
Core_0_DTLB_rfo_hit 0
Core_0_DTLB_rfo_miss 0
Core_0_DTLB_rfo_MPKI 0
Core_0_DTLB_rfo_miss_rate 0
Core_0_DTLB_prefetch_access 0
Core_0_DTLB_prefetch_hit 0
Core_0_DTLB_prefetch_miss 0
Core_0_DTLB_prefetch_MPKI 0
Core_0_DTLB_prefetch_miss_rate 0
Core_0_DTLB_writeback_access 0
Core_0_DTLB_writeback_hit 0
Core_0_DTLB_writeback_miss 0
Core_0_DTLB_writeback_MPKI 0
Core_0_DTLB_writeback_miss_rate 0
Core_0_DTLB_prefetch_requested 0
Core_0_DTLB_prefetch_issued 0
Core_0_DTLB_prefetch_useful 0
Core_0_DTLB_prefetch_useless 0
Core_0_DTLB_prefetch_late 0
Core_0_DTLB_prefetch_accuracy 0
Core_0_DTLB_prefetch_coverage 0
Core_0_DTLB_total_eviction 1253550

Core_0_STLB_total_access 1636424
Core_0_STLB_total_hit 1408234
Core_0_STLB_total_miss 228190
Core_0_STLB_total_MPKI 2.2819
Core_0_STLB_total_miss_rate 0.139444
Core_0_STLB_demand_access 1636424
Core_0_STLB_demand_hit 1408234
Core_0_STLB_demand_miss 228190
Core_0_STLB_demand_MPKI 2.2819
Core_0_STLB_demand_miss_rate 0.139444
Core_0_STLB_load_access 1636424
Core_0_STLB_load_hit 1408234
Core_0_STLB_load_miss 228190
Core_0_STLB_load_MPKI 2.2819
Core_0_STLB_load_miss_rate 0.139444
Core_0_STLB_rfo_access 0
Core_0_STLB_rfo_hit 0
Core_0_STLB_rfo_miss 0
Core_0_STLB_rfo_MPKI 0
Core_0_STLB_rfo_miss_rate 0
Core_0_STLB_prefetch_access 0
Core_0_STLB_prefetch_hit 0
Core_0_STLB_prefetch_miss 0
Core_0_STLB_prefetch_MPKI 0
Core_0_STLB_prefetch_miss_rate 0
Core_0_STLB_writeback_access 0
Core_0_STLB_writeback_hit 0
Core_0_STLB_writeback_miss 0
Core_0_STLB_writeback_MPKI 0
Core_0_STLB_writeback_miss_rate 0
Core_0_STLB_prefetch_requested 0
Core_0_STLB_prefetch_issued 0
Core_0_STLB_prefetch_useful 0
Core_0_STLB_prefetch_useless 0
Core_0_STLB_prefetch_late 0
Core_0_STLB_prefetch_accuracy 0
Core_0_STLB_prefetch_coverage 0
Core_0_STLB_total_eviction 228190

Core_0_L1I_total_access 15312305
Core_0_L1I_total_hit 11207230
Core_0_L1I_total_miss 4105075
Core_0_L1I_total_MPKI 41.0507
Core_0_L1I_total_miss_rate 0.26809
Core_0_L1I_demand_access 15312305
Core_0_L1I_demand_hit 11207230
Core_0_L1I_demand_miss 4105075
Core_0_L1I_demand_MPKI 41.0507
Core_0_L1I_demand_miss_rate 0.26809
Core_0_L1I_load_access 15312305
Core_0_L1I_load_hit 11207230
Core_0_L1I_load_miss 4105075
Core_0_L1I_load_MPKI 41.0507
Core_0_L1I_load_miss_rate 0.26809
Core_0_L1I_rfo_access 0
Core_0_L1I_rfo_hit 0
Core_0_L1I_rfo_miss 0
Core_0_L1I_rfo_MPKI 0
Core_0_L1I_rfo_miss_rate 0
Core_0_L1I_prefetch_access 0
Core_0_L1I_prefetch_hit 0
Core_0_L1I_prefetch_miss 0
Core_0_L1I_prefetch_MPKI 0
Core_0_L1I_prefetch_miss_rate 0
Core_0_L1I_writeback_access 0
Core_0_L1I_writeback_hit 0
Core_0_L1I_writeback_miss 0
Core_0_L1I_writeback_MPKI 0
Core_0_L1I_writeback_miss_rate 0
Core_0_L1I_prefetch_requested 0
Core_0_L1I_prefetch_issued 0
Core_0_L1I_prefetch_useful 0
Core_0_L1I_prefetch_useless 0
Core_0_L1I_prefetch_late 0
Core_0_L1I_prefetch_accuracy 0
Core_0_L1I_prefetch_coverage 0
Core_0_L1I_total_eviction 2584959

Core_0_L1D_total_access 23199191
Core_0_L1D_total_hit 21215676
Core_0_L1D_total_miss 1983515
Core_0_L1D_total_MPKI 19.8351
Core_0_L1D_total_miss_rate 0.0854993
Core_0_L1D_demand_access 13264557
Core_0_L1D_demand_hit 11766883
Core_0_L1D_demand_miss 1497674
Core_0_L1D_demand_MPKI 14.9767
Core_0_L1D_demand_miss_rate 0.112908
Core_0_L1D_load_access 13264557
Core_0_L1D_load_hit 11766883
Core_0_L1D_load_miss 1497674
Core_0_L1D_load_MPKI 14.9767
Core_0_L1D_load_miss_rate 0.112908
Core_0_L1D_rfo_access 0
Core_0_L1D_rfo_hit 0
Core_0_L1D_rfo_miss 0
Core_0_L1D_rfo_MPKI 0
Core_0_L1D_rfo_miss_rate 0
Core_0_L1D_prefetch_access 34147
Core_0_L1D_prefetch_hit 24121
Core_0_L1D_prefetch_miss 10026
Core_0_L1D_prefetch_MPKI 0.10026
Core_0_L1D_prefetch_miss_rate 0.293613
Core_0_L1D_writeback_access 9900487
Core_0_L1D_writeback_hit 9424672
Core_0_L1D_writeback_miss 475815
Core_0_L1D_writeback_MPKI 4.75815
Core_0_L1D_writeback_miss_rate 0.0480598
Core_0_L1D_prefetch_requested 148433
Core_0_L1D_prefetch_issued 34147
Core_0_L1D_prefetch_useful 2651
Core_0_L1D_prefetch_useless 879
Core_0_L1D_prefetch_late 745
Core_0_L1D_prefetch_accuracy 0.0776349
Core_0_L1D_prefetch_coverage 0.00176695
Core_0_L1D_total_eviction 1487112

Core_0_L2C_total_access 4451191
Core_0_L2C_total_hit 2479761
Core_0_L2C_total_miss 1971430
Core_0_L2C_total_MPKI 19.7143
Core_0_L2C_total_miss_rate 0.442899
Core_0_L2C_demand_access 3875678
Core_0_L2C_demand_hit 1935590
Core_0_L2C_demand_miss 1940088
Core_0_L2C_demand_MPKI 19.4009
Core_0_L2C_demand_miss_rate 0.50058
Core_0_L2C_load_access 3700630
Core_0_L2C_load_hit 1862791
Core_0_L2C_load_miss 1837839
Core_0_L2C_load_MPKI 18.3784
Core_0_L2C_load_miss_rate 0.496629
Core_0_L2C_rfo_access 175048
Core_0_L2C_rfo_hit 72799
Core_0_L2C_rfo_miss 102249
Core_0_L2C_rfo_MPKI 1.02249
Core_0_L2C_rfo_miss_rate 0.58412
Core_0_L2C_prefetch_access 57813
Core_0_L2C_prefetch_hit 29981
Core_0_L2C_prefetch_miss 27832
Core_0_L2C_prefetch_MPKI 0.27832
Core_0_L2C_prefetch_miss_rate 0.481414
Core_0_L2C_writeback_access 517700
Core_0_L2C_writeback_hit 514190
Core_0_L2C_writeback_miss 3510
Core_0_L2C_writeback_MPKI 0.0351
Core_0_L2C_writeback_miss_rate 0.00677999
Core_0_L2C_prefetch_requested 68327
Core_0_L2C_prefetch_issued 50185
Core_0_L2C_prefetch_useful 9014
Core_0_L2C_prefetch_useless 9067
Core_0_L2C_prefetch_late 705
Core_0_L2C_prefetch_accuracy 0.179615
Core_0_L2C_prefetch_coverage 0.00462469
Core_0_L2C_total_eviction 2086693

Core_0_LLC_total_access 2271232
Core_0_LLC_total_hit 2110030
Core_0_LLC_total_miss 161202
Core_0_LLC_total_MPKI 1.61202
Core_0_LLC_total_miss_rate 0.0709756
Core_0_LLC_demand_access 1938552
Core_0_LLC_demand_hit 1811038
Core_0_LLC_demand_miss 127514
Core_0_LLC_demand_MPKI 1.27514
Core_0_LLC_demand_miss_rate 0.065778
Core_0_LLC_load_access 1836305
Core_0_LLC_load_hit 1729013
Core_0_LLC_load_miss 107292
Core_0_LLC_load_MPKI 1.07292
Core_0_LLC_load_miss_rate 0.0584282
Core_0_LLC_rfo_access 102247
Core_0_LLC_rfo_hit 82025
Core_0_LLC_rfo_miss 20222
Core_0_LLC_rfo_MPKI 0.20222
Core_0_LLC_rfo_miss_rate 0.197776
Core_0_LLC_prefetch_access 22776
Core_0_LLC_prefetch_hit 16798
Core_0_LLC_prefetch_miss 5978
Core_0_LLC_prefetch_MPKI 0.05978
Core_0_LLC_prefetch_miss_rate 0.262469
Core_0_LLC_writeback_access 309904
Core_0_LLC_writeback_hit 282194
Core_0_LLC_writeback_miss 27710
Core_0_LLC_writeback_MPKI 0.2771
Core_0_LLC_writeback_miss_rate 0.0894148
Core_0_LLC_prefetch_requested 0
Core_0_LLC_prefetch_issued 0
Core_0_LLC_prefetch_useful 0
Core_0_LLC_prefetch_useless 0
Core_0_LLC_prefetch_late 0
Core_0_LLC_prefetch_accuracy 0
Core_0_LLC_prefetch_coverage 0
Core_0_LLC_total_eviction 164096

[DRAM Statistics]
Channel_0_RQ_row_buffer_hit 3996
Channel_0_RQ_row_buffer_miss 132390
Channel_0_WQ_row_buffer_hit 19597
Channel_0_WQ_row_buffer_miss 81825
Channel_0_WQ_full 0
Channel_0_dbus_congested 703903
DRAM_total_RQ_row_buffer_hit 3996
DRAM_total_RQ_row_buffer_miss 132390
DRAM_total_WQ_row_buffer_hit 19597
DRAM_total_WQ_row_buffer_miss 81825
DRAM_total_WQ_full 0
DRAM_total_dbus_congested 703903
DRAM_avg_congested_cycle 16.3102

======STLB miss causes ========
Core_0_STLB_miss_cause_breakdown
Core_0_STLB_cause_Demand_Data_miss 140411
Core_0_STLB_cause_Demand_Data_miss_rate 0.0858036
Core_0_STLB_cause_Demand_Instruction_miss 87779
Core_0_STLB_cause_Demand_Instruction_miss_rate 0.0536407
Core_0_STLB_cause_L1D_Prefetch_miss 0
Core_0_STLB_cause_L1D_Prefetch_miss_rate 0
Core_0_STLB_cause_L1I_Prefetch_miss 0
Core_0_STLB_cause_L1I_Prefetch_miss_rate 0
Core_0_STLB_cause_Other_miss 0
Core_0_STLB_cause_Other_miss_rate 0
Core_0_STLB_Demand_miss 228190
Core_0_STLB_Demand_miss_rate 0.139444
Core_0_STLB_L1D_Prefetch_miss 0
Core_0_STLB_L1D_Prefetch_miss_rate 0
Core_0_STLB_Other_miss 0
Core_0_STLB_Other_miss_rate 0
BERTI TO_L1: 297063 TO_L2: 170307 TO_L2_BC_MSHR: 17310
BERTI AVG_LAT: 24.7163 NUM_TRACK_LATENCY: 1940537 NUM_CANT_TRACK_LATENCY: 0
BERTI CROSS_PAGE 63252 NO_CROSS_PAGE: 467370
BERTI FOUND_BERTI: 1041595 NO_FOUND_BERTI: 31804948
BERTI AVERAGE_ISSUED: 2.13618
