[VMEM] WARNING: physical memory size is smaller than virtual memory size.

*** ChampSim Multicore Out-of-Order Simulator ***
Warmup Instructions: 50000000
Simulation Instructions: 100000000
Number of CPUs: 1
Page size: 4096
STLB ideal mode: off
STLB ideal fill: off
Core 0: /data2/zcq/champsim_traces_gap/sssp.urand-4819B.champsimtrace.xz
VBerti Prefetcher
No Crossing Page
BERTI HASH ENTANGLING
BERTI IP MASK ffff
Off-chip DRAM Size: 16 GiB Channels: 1 Width: 64-bit Data Rate: 3205 MT/s
Warmup halting CPU 0 at instruction 50000000 cycle 41610656 for remainder of phase
Warmup finished CPU 0 instructions: 50000000 cycles: 41610656 cumulative IPC: 1.202 (Simulation time: 00 hr 07 min 48 sec)
Warmup complete CPU 0 instructions: 50000000 cycles: 41610656 cumulative IPC: 1.202 (Simulation time: 00 hr 07 min 48 sec)
Simulation finished CPU 0 instructions: 100000001 cycles: 599142541 cumulative IPC: 0.1669 (Simulation time: 01 hr 04 min 19 sec)
Simulation complete CPU 0 instructions: 100000001 cycles: 599142541 cumulative IPC: 0.1669 (Simulation time: 01 hr 04 min 19 sec)

ChampSim completed all CPUs

=== Simulation ===
CPU 0 runs /data2/zcq/champsim_traces_gap/sssp.urand-4819B.champsimtrace.xz

Region of Interest Statistics

CPU 0 cumulative IPC: 0.1669 instructions: 100000001 cycles: 599142541
CPU 0 Branch Prediction Accuracy: 96.72% MPKI: 4.972 Average ROB Occupancy at Mispredict: 156.9
Branch type MPKI
BRANCH_DIRECT_JUMP: 0
BRANCH_INDIRECT: 0
BRANCH_CONDITIONAL: 4.972
BRANCH_DIRECT_CALL: 0
BRANCH_INDIRECT_CALL: 0
BRANCH_RETURN: 0

cpu0->cpu0_STLB TOTAL        ACCESS:    7603177 HIT:     359424 MISS:    7243753 MSHR_MERGE:          0
cpu0->cpu0_STLB LOAD         ACCESS:    7603177 HIT:     359424 MISS:    7243753 MSHR_MERGE:          0
cpu0->cpu0_STLB RFO          ACCESS:          0 HIT:          0 MISS:          0 MSHR_MERGE:          0
cpu0->cpu0_STLB PREFETCH     ACCESS:          0 HIT:          0 MISS:          0 MSHR_MERGE:          0
cpu0->cpu0_STLB WRITE        ACCESS:          0 HIT:          0 MISS:          0 MSHR_MERGE:          0
cpu0->cpu0_STLB TRANSLATION  ACCESS:          0 HIT:          0 MISS:          0 MSHR_MERGE:          0
cpu0->cpu0_STLB PREFETCH REQUESTED:          0 ISSUED:          0 USEFUL:          0 USELESS:          0 LATE:          0
cpu0->cpu0_STLB AVERAGE MISS LATENCY: 67.52 cycles
cpu0->cpu0_L2C TOTAL        ACCESS:   23676319 HIT:    6518392 MISS:   17157927 MSHR_MERGE:    1846131
cpu0->cpu0_L2C LOAD         ACCESS:    7910883 HIT:     319739 MISS:    7591144 MSHR_MERGE:       3652
cpu0->cpu0_L2C RFO          ACCESS:     180351 HIT:     143478 MISS:      36873 MSHR_MERGE:          0
cpu0->cpu0_L2C PREFETCH     ACCESS:    7457313 HIT:    4193860 MISS:    3263453 MSHR_MERGE:    1842479
cpu0->cpu0_L2C WRITE        ACCESS:     489181 HIT:     485267 MISS:       3914 MSHR_MERGE:          0
cpu0->cpu0_L2C TRANSLATION  ACCESS:    7638591 HIT:    1376048 MISS:    6262543 MSHR_MERGE:          0
cpu0->cpu0_L2C PREFETCH REQUESTED:    2737374 ISSUED:    2737291 USEFUL:     463598 USELESS:     427573 LATE:       1690
cpu0->cpu0_L2C AVERAGE MISS LATENCY: 159.6 cycles
cpu0->cpu0_L1I TOTAL        ACCESS:     521118 HIT:     521118 MISS:          0 MSHR_MERGE:          0
cpu0->cpu0_L1I LOAD         ACCESS:     521118 HIT:     521118 MISS:          0 MSHR_MERGE:          0
cpu0->cpu0_L1I RFO          ACCESS:          0 HIT:          0 MISS:          0 MSHR_MERGE:          0
cpu0->cpu0_L1I PREFETCH     ACCESS:          0 HIT:          0 MISS:          0 MSHR_MERGE:          0
cpu0->cpu0_L1I WRITE        ACCESS:          0 HIT:          0 MISS:          0 MSHR_MERGE:          0
cpu0->cpu0_L1I TRANSLATION  ACCESS:          0 HIT:          0 MISS:          0 MSHR_MERGE:          0
cpu0->cpu0_L1I PREFETCH REQUESTED:          0 ISSUED:          0 USEFUL:          0 USELESS:          0 LATE:          0
cpu0->cpu0_L1I AVERAGE MISS LATENCY: - cycles
cpu0->cpu0_L1D TOTAL        ACCESS:   60566888 HIT:   35820313 MISS:   24746575 MSHR_MERGE:    4067228
cpu0->cpu0_L1D LOAD         ACCESS:   30376715 HIT:   19160001 MISS:   11216714 MSHR_MERGE:    3305832
cpu0->cpu0_L1D RFO          ACCESS:          0 HIT:          0 MISS:          0 MSHR_MERGE:          0
cpu0->cpu0_L1D PREFETCH     ACCESS:    9011480 HIT:    3316317 MISS:    5695163 MSHR_MERGE:     745641
cpu0->cpu0_L1D WRITE        ACCESS:    1406269 HIT:    1222247 MISS:     184022 MSHR_MERGE:       3670
cpu0->cpu0_L1D TRANSLATION  ACCESS:   19772424 HIT:   12121748 MISS:    7650676 MSHR_MERGE:      12085
cpu0->cpu0_L1D PREFETCH REQUESTED:   13904552 ISSUED:    9011480 USEFUL:     238802 USELESS:     233416 LATE:       5520
cpu0->cpu0_L1D AVERAGE MISS LATENCY: 149.8 cycles
cpu0->cpu0_ITLB TOTAL        ACCESS:     519780 HIT:     519780 MISS:          0 MSHR_MERGE:          0
cpu0->cpu0_ITLB LOAD         ACCESS:     519780 HIT:     519780 MISS:          0 MSHR_MERGE:          0
cpu0->cpu0_ITLB RFO          ACCESS:          0 HIT:          0 MISS:          0 MSHR_MERGE:          0
cpu0->cpu0_ITLB PREFETCH     ACCESS:          0 HIT:          0 MISS:          0 MSHR_MERGE:          0
cpu0->cpu0_ITLB WRITE        ACCESS:          0 HIT:          0 MISS:          0 MSHR_MERGE:          0
cpu0->cpu0_ITLB TRANSLATION  ACCESS:          0 HIT:          0 MISS:          0 MSHR_MERGE:          0
cpu0->cpu0_ITLB PREFETCH REQUESTED:          0 ISSUED:          0 USEFUL:          0 USELESS:          0 LATE:          0
cpu0->cpu0_ITLB AVERAGE MISS LATENCY: - cycles
cpu0->cpu0_DTLB TOTAL        ACCESS:   37033946 HIT:   26147733 MISS:   10886213 MSHR_MERGE:    3283035
cpu0->cpu0_DTLB LOAD         ACCESS:   37033946 HIT:   26147733 MISS:   10886213 MSHR_MERGE:    3283035
cpu0->cpu0_DTLB RFO          ACCESS:          0 HIT:          0 MISS:          0 MSHR_MERGE:          0
cpu0->cpu0_DTLB PREFETCH     ACCESS:          0 HIT:          0 MISS:          0 MSHR_MERGE:          0
cpu0->cpu0_DTLB WRITE        ACCESS:          0 HIT:          0 MISS:          0 MSHR_MERGE:          0
cpu0->cpu0_DTLB TRANSLATION  ACCESS:          0 HIT:          0 MISS:          0 MSHR_MERGE:          0
cpu0->cpu0_DTLB PREFETCH REQUESTED:          0 ISSUED:          0 USEFUL:          0 USELESS:          0 LATE:          0
cpu0->cpu0_DTLB AVERAGE MISS LATENCY: 70.34 cycles
cpu0->LLC TOTAL        ACCESS:   15611429 HIT:    5726156 MISS:    9885273 MSHR_MERGE:      17849
cpu0->LLC LOAD         ACCESS:    7587492 HIT:      11916 MISS:    7575576 MSHR_MERGE:          0
cpu0->LLC RFO          ACCESS:      36873 HIT:      19506 MISS:      17367 MSHR_MERGE:          0
cpu0->LLC PREFETCH     ACCESS:    1420973 HIT:      12046 MISS:    1408927 MSHR_MERGE:      17849
cpu0->LLC WRITE        ACCESS:     303548 HIT:      81656 MISS:     221892 MSHR_MERGE:          0
cpu0->LLC TRANSLATION  ACCESS:    6262543 HIT:    5601032 MISS:     661511 MSHR_MERGE:          0
cpu0->LLC PREFETCH REQUESTED:          0 ISSUED:          0 USEFUL:          0 USELESS:          0 LATE:          0
cpu0->LLC AVERAGE MISS LATENCY: 236.1 cycles

DRAM Statistics

Channel 0 RQ ROW_BUFFER_HIT:        136
  ROW_BUFFER_MISS:    9645393
  AVG DBUS CONGESTED CYCLE: 7.426
Channel 0 WQ ROW_BUFFER_HIT:      77288
  ROW_BUFFER_MISS:     199353
  FULL:          0
Channel 0 REFRESHES ISSUED:      49929

[ROI Statistics]
[System Configuration]
num_cpus 1
cpu_freq 4000
fetch_width 6
decode_width 6
dispatch_width 6
execute_width 6
lq_width 2
sq_width 2
retire_width 6
scheduler_size 128
branch_mispredict_penalty 15
rob_size 352
lq_size 128
sq_size 72
ifetch_buffer_size 64
decode_buffer_size 32
dispatch_buffer_size 32
register_file_size 288
decode_latency 1
dispatch_latency 1
schedule_latency 1
execute_latency 1
page_size 4096
block_size 64
core_0_itlb_set 16
core_0_itlb_way 4
core_0_itlb_rq_size 16
core_0_itlb_wq_size 16
core_0_itlb_pq_size 0
core_0_itlb_mshr_size 8
core_0_itlb_hit_latency 1
core_0_itlb_fill_latency 1
core_0_itlb_max_tag_check 2
core_0_itlb_max_fill 2
core_0_dtlb_set 16
core_0_dtlb_way 4
core_0_dtlb_rq_size 16
core_0_dtlb_wq_size 16
core_0_dtlb_pq_size 0
core_0_dtlb_mshr_size 8
core_0_dtlb_hit_latency 1
core_0_dtlb_fill_latency 1
core_0_dtlb_max_tag_check 2
core_0_dtlb_max_fill 2
core_0_stlb_set 128
core_0_stlb_way 12
core_0_stlb_rq_size 32
core_0_stlb_wq_size 32
core_0_stlb_pq_size 0
core_0_stlb_mshr_size 16
core_0_stlb_hit_latency 4
core_0_stlb_fill_latency 4
core_0_stlb_max_tag_check 1
core_0_stlb_max_fill 1
core_0_l1i_set 64
core_0_l1i_way 8
core_0_l1i_rq_size 64
core_0_l1i_wq_size 64
core_0_l1i_pq_size 32
core_0_l1i_mshr_size 8
core_0_l1i_hit_latency 2
core_0_l1i_fill_latency 2
core_0_l1i_max_tag_check 2
core_0_l1i_max_fill 2
core_0_l1d_set 64
core_0_l1d_way 12
core_0_l1d_rq_size 64
core_0_l1d_wq_size 64
core_0_l1d_pq_size 8
core_0_l1d_mshr_size 16
core_0_l1d_hit_latency 2
core_0_l1d_fill_latency 3
core_0_l1d_max_tag_check 2
core_0_l1d_max_fill 2
core_0_l2c_set 1024
core_0_l2c_way 8
core_0_l2c_rq_size 32
core_0_l2c_wq_size 32
core_0_l2c_pq_size 16
core_0_l2c_mshr_size 32
core_0_l2c_hit_latency 5
core_0_l2c_fill_latency 5
core_0_l2c_max_tag_check 1
core_0_l2c_max_fill 1
llc_set 2048
llc_way 16
llc_rq_size 32
llc_wq_size 32
llc_pq_size 32
llc_mshr_size 64
llc_hit_latency 10
llc_fill_latency 10
llc_max_tag_check 1
llc_max_fill 1
dram_channels 1
dram_ranks 1
dram_bankgroups 8
dram_banks 4
dram_rows 65536
dram_columns 1024
dram_channel_width 8
dram_rq_size 64
dram_wq_size 64
dram_size 17179869184
core_0_itlb_prefetcher no
core_0_dtlb_prefetcher no
core_0_stlb_prefetcher no
core_0_l1i_prefetcher next_line
core_0_l1d_prefetcher vberti_nocross
core_0_l2c_prefetcher ip_stride
llc_prefetcher no
llc_replacement drrip

Core_0_instructions 100000001
Core_0_cycles 599142541
Core_0_IPC 0.166905
Core_0_branch_prediction_accuracy 96.7226
Core_0_branch_MPKI 4.97203
Core_0_average_ROB_occupancy_at_mispredict 156.943

Core_0_ITLB_total_access 519780
Core_0_ITLB_total_hit 519780
Core_0_ITLB_total_miss 0
Core_0_ITLB_total_MPKI 0
Core_0_ITLB_total_miss_rate 0
Core_0_ITLB_demand_access 519780
Core_0_ITLB_demand_hit 519780
Core_0_ITLB_demand_miss 0
Core_0_ITLB_demand_MPKI 0
Core_0_ITLB_demand_miss_rate 0
Core_0_ITLB_load_access 519780
Core_0_ITLB_load_hit 519780
Core_0_ITLB_load_miss 0
Core_0_ITLB_load_MPKI 0
Core_0_ITLB_load_miss_rate 0
Core_0_ITLB_rfo_access 0
Core_0_ITLB_rfo_hit 0
Core_0_ITLB_rfo_miss 0
Core_0_ITLB_rfo_MPKI 0
Core_0_ITLB_rfo_miss_rate 0
Core_0_ITLB_prefetch_access 0
Core_0_ITLB_prefetch_hit 0
Core_0_ITLB_prefetch_miss 0
Core_0_ITLB_prefetch_MPKI 0
Core_0_ITLB_prefetch_miss_rate 0
Core_0_ITLB_writeback_access 0
Core_0_ITLB_writeback_hit 0
Core_0_ITLB_writeback_miss 0
Core_0_ITLB_writeback_MPKI 0
Core_0_ITLB_writeback_miss_rate 0
Core_0_ITLB_prefetch_requested 0
Core_0_ITLB_prefetch_issued 0
Core_0_ITLB_prefetch_useful 0
Core_0_ITLB_prefetch_useless 0
Core_0_ITLB_prefetch_late 0
Core_0_ITLB_prefetch_accuracy 0
Core_0_ITLB_prefetch_coverage 0
Core_0_ITLB_total_eviction 0

Core_0_DTLB_total_access 37033946
Core_0_DTLB_total_hit 26147733
Core_0_DTLB_total_miss 10886213
Core_0_DTLB_total_MPKI 108.862
Core_0_DTLB_total_miss_rate 0.293952
Core_0_DTLB_demand_access 37033946
Core_0_DTLB_demand_hit 26147733
Core_0_DTLB_demand_miss 10886213
Core_0_DTLB_demand_MPKI 108.862
Core_0_DTLB_demand_miss_rate 0.293952
Core_0_DTLB_load_access 37033946
Core_0_DTLB_load_hit 26147733
Core_0_DTLB_load_miss 10886213
Core_0_DTLB_load_MPKI 108.862
Core_0_DTLB_load_miss_rate 0.293952
Core_0_DTLB_rfo_access 0
Core_0_DTLB_rfo_hit 0
Core_0_DTLB_rfo_miss 0
Core_0_DTLB_rfo_MPKI 0
Core_0_DTLB_rfo_miss_rate 0
Core_0_DTLB_prefetch_access 0
Core_0_DTLB_prefetch_hit 0
Core_0_DTLB_prefetch_miss 0
Core_0_DTLB_prefetch_MPKI 0
Core_0_DTLB_prefetch_miss_rate 0
Core_0_DTLB_writeback_access 0
Core_0_DTLB_writeback_hit 0
Core_0_DTLB_writeback_miss 0
Core_0_DTLB_writeback_MPKI 0
Core_0_DTLB_writeback_miss_rate 0
Core_0_DTLB_prefetch_requested 0
Core_0_DTLB_prefetch_issued 0
Core_0_DTLB_prefetch_useful 0
Core_0_DTLB_prefetch_useless 0
Core_0_DTLB_prefetch_late 0
Core_0_DTLB_prefetch_accuracy 0
Core_0_DTLB_prefetch_coverage 0
Core_0_DTLB_total_eviction 7603179

Core_0_STLB_total_access 7603177
Core_0_STLB_total_hit 359424
Core_0_STLB_total_miss 7243753
Core_0_STLB_total_MPKI 72.4375
Core_0_STLB_total_miss_rate 0.952727
Core_0_STLB_demand_access 7603177
Core_0_STLB_demand_hit 359424
Core_0_STLB_demand_miss 7243753
Core_0_STLB_demand_MPKI 72.4375
Core_0_STLB_demand_miss_rate 0.952727
Core_0_STLB_load_access 7603177
Core_0_STLB_load_hit 359424
Core_0_STLB_load_miss 7243753
Core_0_STLB_load_MPKI 72.4375
Core_0_STLB_load_miss_rate 0.952727
Core_0_STLB_rfo_access 0
Core_0_STLB_rfo_hit 0
Core_0_STLB_rfo_miss 0
Core_0_STLB_rfo_MPKI 0
Core_0_STLB_rfo_miss_rate 0
Core_0_STLB_prefetch_access 0
Core_0_STLB_prefetch_hit 0
Core_0_STLB_prefetch_miss 0
Core_0_STLB_prefetch_MPKI 0
Core_0_STLB_prefetch_miss_rate 0
Core_0_STLB_writeback_access 0
Core_0_STLB_writeback_hit 0
Core_0_STLB_writeback_miss 0
Core_0_STLB_writeback_MPKI 0
Core_0_STLB_writeback_miss_rate 0
Core_0_STLB_prefetch_requested 0
Core_0_STLB_prefetch_issued 0
Core_0_STLB_prefetch_useful 0
Core_0_STLB_prefetch_useless 0
Core_0_STLB_prefetch_late 0
Core_0_STLB_prefetch_accuracy 0
Core_0_STLB_prefetch_coverage 0
Core_0_STLB_total_eviction 7243755

Core_0_L1I_total_access 521118
Core_0_L1I_total_hit 521118
Core_0_L1I_total_miss 0
Core_0_L1I_total_MPKI 0
Core_0_L1I_total_miss_rate 0
Core_0_L1I_demand_access 521118
Core_0_L1I_demand_hit 521118
Core_0_L1I_demand_miss 0
Core_0_L1I_demand_MPKI 0
Core_0_L1I_demand_miss_rate 0
Core_0_L1I_load_access 521118
Core_0_L1I_load_hit 521118
Core_0_L1I_load_miss 0
Core_0_L1I_load_MPKI 0
Core_0_L1I_load_miss_rate 0
Core_0_L1I_rfo_access 0
Core_0_L1I_rfo_hit 0
Core_0_L1I_rfo_miss 0
Core_0_L1I_rfo_MPKI 0
Core_0_L1I_rfo_miss_rate 0
Core_0_L1I_prefetch_access 0
Core_0_L1I_prefetch_hit 0
Core_0_L1I_prefetch_miss 0
Core_0_L1I_prefetch_MPKI 0
Core_0_L1I_prefetch_miss_rate 0
Core_0_L1I_writeback_access 0
Core_0_L1I_writeback_hit 0
Core_0_L1I_writeback_miss 0
Core_0_L1I_writeback_MPKI 0
Core_0_L1I_writeback_miss_rate 0
Core_0_L1I_prefetch_requested 0
Core_0_L1I_prefetch_issued 0
Core_0_L1I_prefetch_useful 0
Core_0_L1I_prefetch_useless 0
Core_0_L1I_prefetch_late 0
Core_0_L1I_prefetch_accuracy 0
Core_0_L1I_prefetch_coverage 0
Core_0_L1I_total_eviction 0

Core_0_L1D_total_access 40794464
Core_0_L1D_total_hit 23698565
Core_0_L1D_total_miss 17095899
Core_0_L1D_total_MPKI 170.959
Core_0_L1D_total_miss_rate 0.419074
Core_0_L1D_demand_access 30376715
Core_0_L1D_demand_hit 19160001
Core_0_L1D_demand_miss 11216714
Core_0_L1D_demand_MPKI 112.167
Core_0_L1D_demand_miss_rate 0.369254
Core_0_L1D_load_access 30376715
Core_0_L1D_load_hit 19160001
Core_0_L1D_load_miss 11216714
Core_0_L1D_load_MPKI 112.167
Core_0_L1D_load_miss_rate 0.369254
Core_0_L1D_rfo_access 0
Core_0_L1D_rfo_hit 0
Core_0_L1D_rfo_miss 0
Core_0_L1D_rfo_MPKI 0
Core_0_L1D_rfo_miss_rate 0
Core_0_L1D_prefetch_access 9011480
Core_0_L1D_prefetch_hit 3316317
Core_0_L1D_prefetch_miss 5695163
Core_0_L1D_prefetch_MPKI 56.9516
Core_0_L1D_prefetch_miss_rate 0.63199
Core_0_L1D_writeback_access 1406269
Core_0_L1D_writeback_hit 1222247
Core_0_L1D_writeback_miss 184022
Core_0_L1D_writeback_MPKI 1.84022
Core_0_L1D_writeback_miss_rate 0.130858
Core_0_L1D_prefetch_requested 13904552
Core_0_L1D_prefetch_issued 9011480
Core_0_L1D_prefetch_useful 238802
Core_0_L1D_prefetch_useless 233416
Core_0_L1D_prefetch_late 5520
Core_0_L1D_prefetch_accuracy 0.0264998
Core_0_L1D_prefetch_coverage 0.020846
Core_0_L1D_total_eviction 16202058

Core_0_L2C_total_access 16037728
Core_0_L2C_total_hit 5142344
Core_0_L2C_total_miss 10895384
Core_0_L2C_total_MPKI 108.954
Core_0_L2C_total_miss_rate 0.67936
Core_0_L2C_demand_access 8091234
Core_0_L2C_demand_hit 463217
Core_0_L2C_demand_miss 7628017
Core_0_L2C_demand_MPKI 76.2802
Core_0_L2C_demand_miss_rate 0.942751
Core_0_L2C_load_access 7910883
Core_0_L2C_load_hit 319739
Core_0_L2C_load_miss 7591144
Core_0_L2C_load_MPKI 75.9114
Core_0_L2C_load_miss_rate 0.959582
Core_0_L2C_rfo_access 180351
Core_0_L2C_rfo_hit 143478
Core_0_L2C_rfo_miss 36873
Core_0_L2C_rfo_MPKI 0.36873
Core_0_L2C_rfo_miss_rate 0.204451
Core_0_L2C_prefetch_access 7457313
Core_0_L2C_prefetch_hit 4193860
Core_0_L2C_prefetch_miss 3263453
Core_0_L2C_prefetch_MPKI 32.6345
Core_0_L2C_prefetch_miss_rate 0.437618
Core_0_L2C_writeback_access 489181
Core_0_L2C_writeback_hit 485267
Core_0_L2C_writeback_miss 3914
Core_0_L2C_writeback_MPKI 0.03914
Core_0_L2C_writeback_miss_rate 0.00800113
Core_0_L2C_prefetch_requested 2737374
Core_0_L2C_prefetch_issued 2737291
Core_0_L2C_prefetch_useful 463598
Core_0_L2C_prefetch_useless 427573
Core_0_L2C_prefetch_late 1690
Core_0_L2C_prefetch_accuracy 0.169364
Core_0_L2C_prefetch_coverage 0.0572936
Core_0_L2C_total_eviction 15280916

Core_0_LLC_total_access 9348886
Core_0_LLC_total_hit 125124
Core_0_LLC_total_miss 9223762
Core_0_LLC_total_MPKI 92.2376
Core_0_LLC_total_miss_rate 0.986616
Core_0_LLC_demand_access 7624365
Core_0_LLC_demand_hit 31422
Core_0_LLC_demand_miss 7592943
Core_0_LLC_demand_MPKI 75.9294
Core_0_LLC_demand_miss_rate 0.995879
Core_0_LLC_load_access 7587492
Core_0_LLC_load_hit 11916
Core_0_LLC_load_miss 7575576
Core_0_LLC_load_MPKI 75.7558
Core_0_LLC_load_miss_rate 0.99843
Core_0_LLC_rfo_access 36873
Core_0_LLC_rfo_hit 19506
Core_0_LLC_rfo_miss 17367
Core_0_LLC_rfo_MPKI 0.17367
Core_0_LLC_rfo_miss_rate 0.470995
Core_0_LLC_prefetch_access 1420973
Core_0_LLC_prefetch_hit 12046
Core_0_LLC_prefetch_miss 1408927
Core_0_LLC_prefetch_MPKI 14.0893
Core_0_LLC_prefetch_miss_rate 0.991523
Core_0_LLC_writeback_access 303548
Core_0_LLC_writeback_hit 81656
Core_0_LLC_writeback_miss 221892
Core_0_LLC_writeback_MPKI 2.21892
Core_0_LLC_writeback_miss_rate 0.730995
Core_0_LLC_prefetch_requested 0
Core_0_LLC_prefetch_issued 0
Core_0_LLC_prefetch_useful 0
Core_0_LLC_prefetch_useless 0
Core_0_LLC_prefetch_late 0
Core_0_LLC_prefetch_accuracy 0
Core_0_LLC_prefetch_coverage 0
Core_0_LLC_total_eviction 9867427

[DRAM Statistics]
Channel_0_RQ_row_buffer_hit 136
Channel_0_RQ_row_buffer_miss 9645393
Channel_0_WQ_row_buffer_hit 77288
Channel_0_WQ_row_buffer_miss 199353
Channel_0_WQ_full 0
Channel_0_dbus_congested 19165712
DRAM_total_RQ_row_buffer_hit 136
DRAM_total_RQ_row_buffer_miss 9645393
DRAM_total_WQ_row_buffer_hit 77288
DRAM_total_WQ_row_buffer_miss 199353
DRAM_total_WQ_full 0
DRAM_total_dbus_congested 19165712
DRAM_avg_congested_cycle 7.4258

======STLB miss causes ========
Core_0_STLB_miss_cause_breakdown
Core_0_STLB_cause_Demand_Data_miss 7243753
Core_0_STLB_cause_Demand_Data_miss_rate 0.952727
Core_0_STLB_cause_Demand_Instruction_miss 0
Core_0_STLB_cause_Demand_Instruction_miss_rate 0
Core_0_STLB_cause_L1D_Prefetch_miss 0
Core_0_STLB_cause_L1D_Prefetch_miss_rate 0
Core_0_STLB_cause_L1I_Prefetch_miss 0
Core_0_STLB_cause_L1I_Prefetch_miss_rate 0
Core_0_STLB_cause_Other_miss 0
Core_0_STLB_cause_Other_miss_rate 0
Core_0_STLB_Demand_miss 7243753
Core_0_STLB_Demand_miss_rate 0.952727
Core_0_STLB_L1D_Prefetch_miss 0
Core_0_STLB_L1D_Prefetch_miss_rate 0
Core_0_STLB_Other_miss 0
Core_0_STLB_Other_miss_rate 0
BERTI TO_L1: 3422044 TO_L2: 13202083 TO_L2_BC_MSHR: 437486
BERTI AVG_LAT: 170.121 NUM_TRACK_LATENCY: 12711640 NUM_CANT_TRACK_LATENCY: 2616
BERTI CROSS_PAGE 782411 NO_CROSS_PAGE: 16624127
BERTI FOUND_BERTI: 64634574 NO_FOUND_BERTI: 18522901
BERTI AVERAGE_ISSUED: 2.51079
