[VMEM] WARNING: physical memory size is smaller than virtual memory size.

*** ChampSim Multicore Out-of-Order Simulator ***
Warmup Instructions: 50000000
Simulation Instructions: 100000000
Number of CPUs: 1
Page size: 4096
STLB ideal mode: off
STLB ideal fill: off
Core 0: /data2/zcq/champsim_traces_xsbench/xs.XXL100nuclide-861B.champsimtrace.xz
VBerti Prefetcher
No Crossing Page
BERTI HASH ENTANGLING
BERTI IP MASK ffff
Off-chip DRAM Size: 16 GiB Channels: 1 Width: 64-bit Data Rate: 3205 MT/s
Warmup halting CPU 0 at instruction 50000002 cycle 36684002 for remainder of phase
Warmup finished CPU 0 instructions: 50000002 cycles: 36684002 cumulative IPC: 1.363 (Simulation time: 00 hr 06 min 21 sec)
Warmup complete CPU 0 instructions: 50000002 cycles: 36684002 cumulative IPC: 1.363 (Simulation time: 00 hr 06 min 21 sec)
Simulation finished CPU 0 instructions: 100000000 cycles: 691658936 cumulative IPC: 0.1446 (Simulation time: 00 hr 57 min 13 sec)
Simulation complete CPU 0 instructions: 100000000 cycles: 691658936 cumulative IPC: 0.1446 (Simulation time: 00 hr 57 min 13 sec)

ChampSim completed all CPUs

=== Simulation ===
CPU 0 runs /data2/zcq/champsim_traces_xsbench/xs.XXL100nuclide-861B.champsimtrace.xz

Region of Interest Statistics

CPU 0 cumulative IPC: 0.1446 instructions: 100000000 cycles: 691658936
CPU 0 Branch Prediction Accuracy: 87.26% MPKI: 21.5 Average ROB Occupancy at Mispredict: 25.78
Branch type MPKI
BRANCH_DIRECT_JUMP: 0
BRANCH_INDIRECT: 0
BRANCH_CONDITIONAL: 21.5
BRANCH_DIRECT_CALL: 0
BRANCH_INDIRECT_CALL: 0
BRANCH_RETURN: 0

cpu0->cpu0_STLB TOTAL        ACCESS:    3980120 HIT:     123952 MISS:    3856168 MSHR_MERGE:          0
cpu0->cpu0_STLB LOAD         ACCESS:    3980120 HIT:     123952 MISS:    3856168 MSHR_MERGE:          0
cpu0->cpu0_STLB RFO          ACCESS:          0 HIT:          0 MISS:          0 MSHR_MERGE:          0
cpu0->cpu0_STLB PREFETCH     ACCESS:          0 HIT:          0 MISS:          0 MSHR_MERGE:          0
cpu0->cpu0_STLB WRITE        ACCESS:          0 HIT:          0 MISS:          0 MSHR_MERGE:          0
cpu0->cpu0_STLB TRANSLATION  ACCESS:          0 HIT:          0 MISS:          0 MSHR_MERGE:          0
cpu0->cpu0_STLB PREFETCH REQUESTED:          0 ISSUED:          0 USEFUL:          0 USELESS:          0 LATE:          0
cpu0->cpu0_STLB AVERAGE MISS LATENCY: 174.9 cycles
cpu0->cpu0_L2C TOTAL        ACCESS:   10538121 HIT:    1399559 MISS:    9138562 MSHR_MERGE:       9364
cpu0->cpu0_L2C LOAD         ACCESS:    5975507 HIT:     198128 MISS:    5777379 MSHR_MERGE:          0
cpu0->cpu0_L2C RFO          ACCESS:      22936 HIT:      22217 MISS:        719 MSHR_MERGE:          0
cpu0->cpu0_L2C PREFETCH     ACCESS:    1193734 HIT:     968683 MISS:     225051 MSHR_MERGE:       9364
cpu0->cpu0_L2C WRITE        ACCESS:      27801 HIT:      27781 MISS:         20 MSHR_MERGE:          0
cpu0->cpu0_L2C TRANSLATION  ACCESS:    3318143 HIT:     182750 MISS:    3135393 MSHR_MERGE:          0
cpu0->cpu0_L2C PREFETCH REQUESTED:     331147 ISSUED:     331147 USEFUL:      14293 USELESS:     135667 LATE:          0
cpu0->cpu0_L2C AVERAGE MISS LATENCY: 149.4 cycles
cpu0->cpu0_L1I TOTAL        ACCESS:      21994 HIT:      21994 MISS:          0 MSHR_MERGE:          0
cpu0->cpu0_L1I LOAD         ACCESS:      21994 HIT:      21994 MISS:          0 MSHR_MERGE:          0
cpu0->cpu0_L1I RFO          ACCESS:          0 HIT:          0 MISS:          0 MSHR_MERGE:          0
cpu0->cpu0_L1I PREFETCH     ACCESS:          0 HIT:          0 MISS:          0 MSHR_MERGE:          0
cpu0->cpu0_L1I WRITE        ACCESS:          0 HIT:          0 MISS:          0 MSHR_MERGE:          0
cpu0->cpu0_L1I TRANSLATION  ACCESS:          0 HIT:          0 MISS:          0 MSHR_MERGE:          0
cpu0->cpu0_L1I PREFETCH REQUESTED:          0 ISSUED:          0 USEFUL:          0 USELESS:          0 LATE:          0
cpu0->cpu0_L1I AVERAGE MISS LATENCY: - cycles
cpu0->cpu0_L1D TOTAL        ACCESS:   21711608 HIT:    9602453 MISS:   12109155 MSHR_MERGE:    1929947
cpu0->cpu0_L1D LOAD         ACCESS:    9562552 HIT:    3487488 MISS:    6075064 MSHR_MERGE:      99557
cpu0->cpu0_L1D RFO          ACCESS:          0 HIT:          0 MISS:          0 MSHR_MERGE:          0
cpu0->cpu0_L1D PREFETCH     ACCESS:    1881238 HIT:    1018649 MISS:     862589 MSHR_MERGE:          2
cpu0->cpu0_L1D WRITE        ACCESS:    1814801 HIT:    1755901 MISS:      58900 MSHR_MERGE:      35929
cpu0->cpu0_L1D TRANSLATION  ACCESS:    8453017 HIT:    3340415 MISS:    5112602 MSHR_MERGE:    1794459
cpu0->cpu0_L1D PREFETCH REQUESTED:    2071366 ISSUED:    1881238 USEFUL:      35464 USELESS:      37344 LATE:          0
cpu0->cpu0_L1D AVERAGE MISS LATENCY: 152 cycles
cpu0->cpu0_ITLB TOTAL        ACCESS:      17882 HIT:      17882 MISS:          0 MSHR_MERGE:          0
cpu0->cpu0_ITLB LOAD         ACCESS:      17882 HIT:      17882 MISS:          0 MSHR_MERGE:          0
cpu0->cpu0_ITLB RFO          ACCESS:          0 HIT:          0 MISS:          0 MSHR_MERGE:          0
cpu0->cpu0_ITLB PREFETCH     ACCESS:          0 HIT:          0 MISS:          0 MSHR_MERGE:          0
cpu0->cpu0_ITLB WRITE        ACCESS:          0 HIT:          0 MISS:          0 MSHR_MERGE:          0
cpu0->cpu0_ITLB TRANSLATION  ACCESS:          0 HIT:          0 MISS:          0 MSHR_MERGE:          0
cpu0->cpu0_ITLB PREFETCH REQUESTED:          0 ISSUED:          0 USEFUL:          0 USELESS:          0 LATE:          0
cpu0->cpu0_ITLB AVERAGE MISS LATENCY: - cycles
cpu0->cpu0_DTLB TOTAL        ACCESS:   12647973 HIT:    8466309 MISS:    4181664 MSHR_MERGE:     201544
cpu0->cpu0_DTLB LOAD         ACCESS:   12647973 HIT:    8466309 MISS:    4181664 MSHR_MERGE:     201544
cpu0->cpu0_DTLB RFO          ACCESS:          0 HIT:          0 MISS:          0 MSHR_MERGE:          0
cpu0->cpu0_DTLB PREFETCH     ACCESS:          0 HIT:          0 MISS:          0 MSHR_MERGE:          0
cpu0->cpu0_DTLB WRITE        ACCESS:          0 HIT:          0 MISS:          0 MSHR_MERGE:          0
cpu0->cpu0_DTLB TRANSLATION  ACCESS:          0 HIT:          0 MISS:          0 MSHR_MERGE:          0
cpu0->cpu0_DTLB PREFETCH REQUESTED:          0 ISSUED:          0 USEFUL:          0 USELESS:          0 LATE:          0
cpu0->cpu0_DTLB AVERAGE MISS LATENCY: 175.4 cycles
cpu0->LLC TOTAL        ACCESS:    9132015 HIT:    3086169 MISS:    6045846 MSHR_MERGE:          0
cpu0->LLC LOAD         ACCESS:    5777379 HIT:    1339491 MISS:    4437888 MSHR_MERGE:          0
cpu0->LLC RFO          ACCESS:        719 HIT:        719 MISS:          0 MSHR_MERGE:          0
cpu0->LLC PREFETCH     ACCESS:     215687 HIT:      81257 MISS:     134430 MSHR_MERGE:          0
cpu0->LLC WRITE        ACCESS:       2837 HIT:       2816 MISS:         21 MSHR_MERGE:          0
cpu0->LLC TRANSLATION  ACCESS:    3135393 HIT:    1661886 MISS:    1473507 MSHR_MERGE:          0
cpu0->LLC PREFETCH REQUESTED:          0 ISSUED:          0 USEFUL:          0 USELESS:          0 LATE:          0
cpu0->LLC AVERAGE MISS LATENCY: 201.6 cycles

DRAM Statistics

Channel 0 RQ ROW_BUFFER_HIT:      30780
  ROW_BUFFER_MISS:    6015045
  AVG DBUS CONGESTED CYCLE: 2.933
Channel 0 WQ ROW_BUFFER_HIT:          5
  ROW_BUFFER_MISS:         18
  FULL:          0
Channel 0 REFRESHES ISSUED:      57638

[ROI Statistics]
[System Configuration]
num_cpus 1
cpu_freq 4000
fetch_width 6
decode_width 6
dispatch_width 6
execute_width 6
lq_width 2
sq_width 2
retire_width 6
scheduler_size 128
branch_mispredict_penalty 15
rob_size 352
lq_size 128
sq_size 72
ifetch_buffer_size 64
decode_buffer_size 32
dispatch_buffer_size 32
register_file_size 288
decode_latency 1
dispatch_latency 1
schedule_latency 1
execute_latency 1
page_size 4096
block_size 64
core_0_itlb_set 16
core_0_itlb_way 4
core_0_itlb_rq_size 16
core_0_itlb_wq_size 16
core_0_itlb_pq_size 0
core_0_itlb_mshr_size 8
core_0_itlb_hit_latency 1
core_0_itlb_fill_latency 1
core_0_itlb_max_tag_check 2
core_0_itlb_max_fill 2
core_0_dtlb_set 16
core_0_dtlb_way 4
core_0_dtlb_rq_size 16
core_0_dtlb_wq_size 16
core_0_dtlb_pq_size 0
core_0_dtlb_mshr_size 8
core_0_dtlb_hit_latency 1
core_0_dtlb_fill_latency 1
core_0_dtlb_max_tag_check 2
core_0_dtlb_max_fill 2
core_0_stlb_set 128
core_0_stlb_way 12
core_0_stlb_rq_size 32
core_0_stlb_wq_size 32
core_0_stlb_pq_size 0
core_0_stlb_mshr_size 16
core_0_stlb_hit_latency 4
core_0_stlb_fill_latency 4
core_0_stlb_max_tag_check 1
core_0_stlb_max_fill 1
core_0_l1i_set 64
core_0_l1i_way 8
core_0_l1i_rq_size 64
core_0_l1i_wq_size 64
core_0_l1i_pq_size 32
core_0_l1i_mshr_size 8
core_0_l1i_hit_latency 2
core_0_l1i_fill_latency 2
core_0_l1i_max_tag_check 2
core_0_l1i_max_fill 2
core_0_l1d_set 64
core_0_l1d_way 12
core_0_l1d_rq_size 64
core_0_l1d_wq_size 64
core_0_l1d_pq_size 8
core_0_l1d_mshr_size 16
core_0_l1d_hit_latency 2
core_0_l1d_fill_latency 3
core_0_l1d_max_tag_check 2
core_0_l1d_max_fill 2
core_0_l2c_set 1024
core_0_l2c_way 8
core_0_l2c_rq_size 32
core_0_l2c_wq_size 32
core_0_l2c_pq_size 16
core_0_l2c_mshr_size 32
core_0_l2c_hit_latency 5
core_0_l2c_fill_latency 5
core_0_l2c_max_tag_check 1
core_0_l2c_max_fill 1
llc_set 2048
llc_way 16
llc_rq_size 32
llc_wq_size 32
llc_pq_size 32
llc_mshr_size 64
llc_hit_latency 10
llc_fill_latency 10
llc_max_tag_check 1
llc_max_fill 1
dram_channels 1
dram_ranks 1
dram_bankgroups 8
dram_banks 4
dram_rows 65536
dram_columns 1024
dram_channel_width 8
dram_rq_size 64
dram_wq_size 64
dram_size 17179869184
core_0_itlb_prefetcher no
core_0_dtlb_prefetcher no
core_0_stlb_prefetcher no
core_0_l1i_prefetcher next_line
core_0_l1d_prefetcher vberti_nocross
core_0_l2c_prefetcher ip_stride
llc_prefetcher no
llc_replacement drrip

Core_0_instructions 100000000
Core_0_cycles 691658936
Core_0_IPC 0.14458
Core_0_branch_prediction_accuracy 87.2628
Core_0_branch_MPKI 21.5018
Core_0_average_ROB_occupancy_at_mispredict 25.7818

Core_0_ITLB_total_access 17882
Core_0_ITLB_total_hit 17882
Core_0_ITLB_total_miss 0
Core_0_ITLB_total_MPKI 0
Core_0_ITLB_total_miss_rate 0
Core_0_ITLB_demand_access 17882
Core_0_ITLB_demand_hit 17882
Core_0_ITLB_demand_miss 0
Core_0_ITLB_demand_MPKI 0
Core_0_ITLB_demand_miss_rate 0
Core_0_ITLB_load_access 17882
Core_0_ITLB_load_hit 17882
Core_0_ITLB_load_miss 0
Core_0_ITLB_load_MPKI 0
Core_0_ITLB_load_miss_rate 0
Core_0_ITLB_rfo_access 0
Core_0_ITLB_rfo_hit 0
Core_0_ITLB_rfo_miss 0
Core_0_ITLB_rfo_MPKI 0
Core_0_ITLB_rfo_miss_rate 0
Core_0_ITLB_prefetch_access 0
Core_0_ITLB_prefetch_hit 0
Core_0_ITLB_prefetch_miss 0
Core_0_ITLB_prefetch_MPKI 0
Core_0_ITLB_prefetch_miss_rate 0
Core_0_ITLB_writeback_access 0
Core_0_ITLB_writeback_hit 0
Core_0_ITLB_writeback_miss 0
Core_0_ITLB_writeback_MPKI 0
Core_0_ITLB_writeback_miss_rate 0
Core_0_ITLB_prefetch_requested 0
Core_0_ITLB_prefetch_issued 0
Core_0_ITLB_prefetch_useful 0
Core_0_ITLB_prefetch_useless 0
Core_0_ITLB_prefetch_late 0
Core_0_ITLB_prefetch_accuracy 0
Core_0_ITLB_prefetch_coverage 0
Core_0_ITLB_total_eviction 0

Core_0_DTLB_total_access 12647973
Core_0_DTLB_total_hit 8466309
Core_0_DTLB_total_miss 4181664
Core_0_DTLB_total_MPKI 41.8166
Core_0_DTLB_total_miss_rate 0.330619
Core_0_DTLB_demand_access 12647973
Core_0_DTLB_demand_hit 8466309
Core_0_DTLB_demand_miss 4181664
Core_0_DTLB_demand_MPKI 41.8166
Core_0_DTLB_demand_miss_rate 0.330619
Core_0_DTLB_load_access 12647973
Core_0_DTLB_load_hit 8466309
Core_0_DTLB_load_miss 4181664
Core_0_DTLB_load_MPKI 41.8166
Core_0_DTLB_load_miss_rate 0.330619
Core_0_DTLB_rfo_access 0
Core_0_DTLB_rfo_hit 0
Core_0_DTLB_rfo_miss 0
Core_0_DTLB_rfo_MPKI 0
Core_0_DTLB_rfo_miss_rate 0
Core_0_DTLB_prefetch_access 0
Core_0_DTLB_prefetch_hit 0
Core_0_DTLB_prefetch_miss 0
Core_0_DTLB_prefetch_MPKI 0
Core_0_DTLB_prefetch_miss_rate 0
Core_0_DTLB_writeback_access 0
Core_0_DTLB_writeback_hit 0
Core_0_DTLB_writeback_miss 0
Core_0_DTLB_writeback_MPKI 0
Core_0_DTLB_writeback_miss_rate 0
Core_0_DTLB_prefetch_requested 0
Core_0_DTLB_prefetch_issued 0
Core_0_DTLB_prefetch_useful 0
Core_0_DTLB_prefetch_useless 0
Core_0_DTLB_prefetch_late 0
Core_0_DTLB_prefetch_accuracy 0
Core_0_DTLB_prefetch_coverage 0
Core_0_DTLB_total_eviction 3980124

Core_0_STLB_total_access 3980120
Core_0_STLB_total_hit 123952
Core_0_STLB_total_miss 3856168
Core_0_STLB_total_MPKI 38.5617
Core_0_STLB_total_miss_rate 0.968857
Core_0_STLB_demand_access 3980120
Core_0_STLB_demand_hit 123952
Core_0_STLB_demand_miss 3856168
Core_0_STLB_demand_MPKI 38.5617
Core_0_STLB_demand_miss_rate 0.968857
Core_0_STLB_load_access 3980120
Core_0_STLB_load_hit 123952
Core_0_STLB_load_miss 3856168
Core_0_STLB_load_MPKI 38.5617
Core_0_STLB_load_miss_rate 0.968857
Core_0_STLB_rfo_access 0
Core_0_STLB_rfo_hit 0
Core_0_STLB_rfo_miss 0
Core_0_STLB_rfo_MPKI 0
Core_0_STLB_rfo_miss_rate 0
Core_0_STLB_prefetch_access 0
Core_0_STLB_prefetch_hit 0
Core_0_STLB_prefetch_miss 0
Core_0_STLB_prefetch_MPKI 0
Core_0_STLB_prefetch_miss_rate 0
Core_0_STLB_writeback_access 0
Core_0_STLB_writeback_hit 0
Core_0_STLB_writeback_miss 0
Core_0_STLB_writeback_MPKI 0
Core_0_STLB_writeback_miss_rate 0
Core_0_STLB_prefetch_requested 0
Core_0_STLB_prefetch_issued 0
Core_0_STLB_prefetch_useful 0
Core_0_STLB_prefetch_useless 0
Core_0_STLB_prefetch_late 0
Core_0_STLB_prefetch_accuracy 0
Core_0_STLB_prefetch_coverage 0
Core_0_STLB_total_eviction 3856172

Core_0_L1I_total_access 21994
Core_0_L1I_total_hit 21994
Core_0_L1I_total_miss 0
Core_0_L1I_total_MPKI 0
Core_0_L1I_total_miss_rate 0
Core_0_L1I_demand_access 21994
Core_0_L1I_demand_hit 21994
Core_0_L1I_demand_miss 0
Core_0_L1I_demand_MPKI 0
Core_0_L1I_demand_miss_rate 0
Core_0_L1I_load_access 21994
Core_0_L1I_load_hit 21994
Core_0_L1I_load_miss 0
Core_0_L1I_load_MPKI 0
Core_0_L1I_load_miss_rate 0
Core_0_L1I_rfo_access 0
Core_0_L1I_rfo_hit 0
Core_0_L1I_rfo_miss 0
Core_0_L1I_rfo_MPKI 0
Core_0_L1I_rfo_miss_rate 0
Core_0_L1I_prefetch_access 0
Core_0_L1I_prefetch_hit 0
Core_0_L1I_prefetch_miss 0
Core_0_L1I_prefetch_MPKI 0
Core_0_L1I_prefetch_miss_rate 0
Core_0_L1I_writeback_access 0
Core_0_L1I_writeback_hit 0
Core_0_L1I_writeback_miss 0
Core_0_L1I_writeback_MPKI 0
Core_0_L1I_writeback_miss_rate 0
Core_0_L1I_prefetch_requested 0
Core_0_L1I_prefetch_issued 0
Core_0_L1I_prefetch_useful 0
Core_0_L1I_prefetch_useless 0
Core_0_L1I_prefetch_late 0
Core_0_L1I_prefetch_accuracy 0
Core_0_L1I_prefetch_coverage 0
Core_0_L1I_total_eviction 0

Core_0_L1D_total_access 13258591
Core_0_L1D_total_hit 6262038
Core_0_L1D_total_miss 6996553
Core_0_L1D_total_MPKI 69.9655
Core_0_L1D_total_miss_rate 0.5277
Core_0_L1D_demand_access 9562552
Core_0_L1D_demand_hit 3487488
Core_0_L1D_demand_miss 6075064
Core_0_L1D_demand_MPKI 60.7506
Core_0_L1D_demand_miss_rate 0.635297
Core_0_L1D_load_access 9562552
Core_0_L1D_load_hit 3487488
Core_0_L1D_load_miss 6075064
Core_0_L1D_load_MPKI 60.7506
Core_0_L1D_load_miss_rate 0.635297
Core_0_L1D_rfo_access 0
Core_0_L1D_rfo_hit 0
Core_0_L1D_rfo_miss 0
Core_0_L1D_rfo_MPKI 0
Core_0_L1D_rfo_miss_rate 0
Core_0_L1D_prefetch_access 1881238
Core_0_L1D_prefetch_hit 1018649
Core_0_L1D_prefetch_miss 862589
Core_0_L1D_prefetch_MPKI 8.62589
Core_0_L1D_prefetch_miss_rate 0.458522
Core_0_L1D_writeback_access 1814801
Core_0_L1D_writeback_hit 1755901
Core_0_L1D_writeback_miss 58900
Core_0_L1D_writeback_MPKI 0.589
Core_0_L1D_writeback_miss_rate 0.0324553
Core_0_L1D_prefetch_requested 2071366
Core_0_L1D_prefetch_issued 1881238
Core_0_L1D_prefetch_useful 35464
Core_0_L1D_prefetch_useless 37344
Core_0_L1D_prefetch_late 0
Core_0_L1D_prefetch_accuracy 0.0188514
Core_0_L1D_prefetch_coverage 0.00580375
Core_0_L1D_total_eviction 9389431

Core_0_L2C_total_access 7219978
Core_0_L2C_total_hit 1216809
Core_0_L2C_total_miss 6003169
Core_0_L2C_total_MPKI 60.0317
Core_0_L2C_total_miss_rate 0.831466
Core_0_L2C_demand_access 5998443
Core_0_L2C_demand_hit 220345
Core_0_L2C_demand_miss 5778098
Core_0_L2C_demand_MPKI 57.781
Core_0_L2C_demand_miss_rate 0.963266
Core_0_L2C_load_access 5975507
Core_0_L2C_load_hit 198128
Core_0_L2C_load_miss 5777379
Core_0_L2C_load_MPKI 57.7738
Core_0_L2C_load_miss_rate 0.966843
Core_0_L2C_rfo_access 22936
Core_0_L2C_rfo_hit 22217
Core_0_L2C_rfo_miss 719
Core_0_L2C_rfo_MPKI 0.00719
Core_0_L2C_rfo_miss_rate 0.0313481
Core_0_L2C_prefetch_access 1193734
Core_0_L2C_prefetch_hit 968683
Core_0_L2C_prefetch_miss 225051
Core_0_L2C_prefetch_MPKI 2.25051
Core_0_L2C_prefetch_miss_rate 0.188527
Core_0_L2C_writeback_access 27801
Core_0_L2C_writeback_hit 27781
Core_0_L2C_writeback_miss 20
Core_0_L2C_writeback_MPKI 0.0002
Core_0_L2C_writeback_miss_rate 0.000719399
Core_0_L2C_prefetch_requested 331147
Core_0_L2C_prefetch_issued 331147
Core_0_L2C_prefetch_useful 14293
Core_0_L2C_prefetch_useless 135667
Core_0_L2C_prefetch_late 0
Core_0_L2C_prefetch_accuracy 0.0431621
Core_0_L2C_prefetch_coverage 0.00246755
Core_0_L2C_total_eviction 9129192

Core_0_LLC_total_access 5996622
Core_0_LLC_total_hit 1424283
Core_0_LLC_total_miss 4572339
Core_0_LLC_total_MPKI 45.7234
Core_0_LLC_total_miss_rate 0.762486
Core_0_LLC_demand_access 5778098
Core_0_LLC_demand_hit 1340210
Core_0_LLC_demand_miss 4437888
Core_0_LLC_demand_MPKI 44.3789
Core_0_LLC_demand_miss_rate 0.768053
Core_0_LLC_load_access 5777379
Core_0_LLC_load_hit 1339491
Core_0_LLC_load_miss 4437888
Core_0_LLC_load_MPKI 44.3789
Core_0_LLC_load_miss_rate 0.768149
Core_0_LLC_rfo_access 719
Core_0_LLC_rfo_hit 719
Core_0_LLC_rfo_miss 0
Core_0_LLC_rfo_MPKI 0
Core_0_LLC_rfo_miss_rate 0
Core_0_LLC_prefetch_access 215687
Core_0_LLC_prefetch_hit 81257
Core_0_LLC_prefetch_miss 134430
Core_0_LLC_prefetch_MPKI 1.3443
Core_0_LLC_prefetch_miss_rate 0.623264
Core_0_LLC_writeback_access 2837
Core_0_LLC_writeback_hit 2816
Core_0_LLC_writeback_miss 21
Core_0_LLC_writeback_MPKI 0.00021
Core_0_LLC_writeback_miss_rate 0.00740219
Core_0_LLC_prefetch_requested 0
Core_0_LLC_prefetch_issued 0
Core_0_LLC_prefetch_useful 0
Core_0_LLC_prefetch_useless 0
Core_0_LLC_prefetch_late 0
Core_0_LLC_prefetch_accuracy 0
Core_0_LLC_prefetch_coverage 0
Core_0_LLC_total_eviction 6045846

[DRAM Statistics]
Channel_0_RQ_row_buffer_hit 30780
Channel_0_RQ_row_buffer_miss 6015045
Channel_0_WQ_row_buffer_hit 5
Channel_0_WQ_row_buffer_miss 18
Channel_0_WQ_full 0
Channel_0_dbus_congested 6321613
DRAM_total_RQ_row_buffer_hit 30780
DRAM_total_RQ_row_buffer_miss 6015045
DRAM_total_WQ_row_buffer_hit 5
DRAM_total_WQ_row_buffer_miss 18
DRAM_total_WQ_full 0
DRAM_total_dbus_congested 6321613
DRAM_avg_congested_cycle 2.93324

======STLB miss causes ========
Core_0_STLB_miss_cause_breakdown
Core_0_STLB_cause_Demand_Data_miss 3856168
Core_0_STLB_cause_Demand_Data_miss_rate 0.968857
Core_0_STLB_cause_Demand_Instruction_miss 0
Core_0_STLB_cause_Demand_Instruction_miss_rate 0
Core_0_STLB_cause_L1D_Prefetch_miss 0
Core_0_STLB_cause_L1D_Prefetch_miss_rate 0
Core_0_STLB_cause_L1I_Prefetch_miss 0
Core_0_STLB_cause_L1I_Prefetch_miss_rate 0
Core_0_STLB_cause_Other_miss 0
Core_0_STLB_cause_Other_miss_rate 0
Core_0_STLB_Demand_miss 3856168
Core_0_STLB_Demand_miss_rate 0.968857
Core_0_STLB_L1D_Prefetch_miss 0
Core_0_STLB_L1D_Prefetch_miss_rate 0
Core_0_STLB_Other_miss 0
Core_0_STLB_Other_miss_rate 0
BERTI TO_L1: 1328621 TO_L2: 1424188 TO_L2_BC_MSHR: 0
BERTI AVG_LAT: 119.759 NUM_TRACK_LATENCY: 9078433 NUM_CANT_TRACK_LATENCY: 0
BERTI CROSS_PAGE 308272 NO_CROSS_PAGE: 2752809
BERTI FOUND_BERTI: 12319830 NO_FOUND_BERTI: 4167403
BERTI AVERAGE_ISSUED: 2.74214
