[VMEM] WARNING: physical memory size is smaller than virtual memory size.

*** ChampSim Multicore Out-of-Order Simulator ***
Warmup Instructions: 50000000
Simulation Instructions: 100000000
Number of CPUs: 1
Page size: 4096
STLB ideal mode: off
STLB ideal fill: off
Core 0: /data2/zcq/champsim_traces_xsbench/xs.XXL100nuclide-30B.champsimtrace.xz
VBerti Prefetcher
No Crossing Page
BERTI HASH ENTANGLING
BERTI IP MASK ffff
Off-chip DRAM Size: 16 GiB Channels: 1 Width: 64-bit Data Rate: 3205 MT/s
Warmup halting CPU 0 at instruction 50000005 cycle 12779015 for remainder of phase
Warmup finished CPU 0 instructions: 50000005 cycles: 12779015 cumulative IPC: 3.913 (Simulation time: 00 hr 02 min 41 sec)
Warmup complete CPU 0 instructions: 50000005 cycles: 12779015 cumulative IPC: 3.913 (Simulation time: 00 hr 02 min 41 sec)
Simulation finished CPU 0 instructions: 100000005 cycles: 185556640 cumulative IPC: 0.5389 (Simulation time: 00 hr 19 min 28 sec)
Simulation complete CPU 0 instructions: 100000005 cycles: 185556640 cumulative IPC: 0.5389 (Simulation time: 00 hr 19 min 28 sec)

ChampSim completed all CPUs

=== Simulation ===
CPU 0 runs /data2/zcq/champsim_traces_xsbench/xs.XXL100nuclide-30B.champsimtrace.xz

Region of Interest Statistics

CPU 0 cumulative IPC: 0.5389 instructions: 100000005 cycles: 185556640
CPU 0 Branch Prediction Accuracy: 92.65% MPKI: 17.9 Average ROB Occupancy at Mispredict: 29.01
Branch type MPKI
BRANCH_DIRECT_JUMP: 0
BRANCH_INDIRECT: 0
BRANCH_CONDITIONAL: 17.9
BRANCH_DIRECT_CALL: 0
BRANCH_INDIRECT_CALL: 0
BRANCH_RETURN: 0.00076

cpu0->cpu0_STLB TOTAL        ACCESS:     909321 HIT:     780385 MISS:     128936 MSHR_MERGE:          0
cpu0->cpu0_STLB LOAD         ACCESS:     909321 HIT:     780385 MISS:     128936 MSHR_MERGE:          0
cpu0->cpu0_STLB RFO          ACCESS:          0 HIT:          0 MISS:          0 MSHR_MERGE:          0
cpu0->cpu0_STLB PREFETCH     ACCESS:          0 HIT:          0 MISS:          0 MSHR_MERGE:          0
cpu0->cpu0_STLB WRITE        ACCESS:          0 HIT:          0 MISS:          0 MSHR_MERGE:          0
cpu0->cpu0_STLB TRANSLATION  ACCESS:          0 HIT:          0 MISS:          0 MSHR_MERGE:          0
cpu0->cpu0_STLB PREFETCH REQUESTED:          0 ISSUED:          0 USEFUL:          0 USELESS:          0 LATE:          0
cpu0->cpu0_STLB AVERAGE MISS LATENCY: 24.05 cycles
cpu0->cpu0_L2C TOTAL        ACCESS:    7647050 HIT:    5837013 MISS:    1810037 MSHR_MERGE:     227163
cpu0->cpu0_L2C LOAD         ACCESS:    1791919 HIT:     782628 MISS:    1009291 MSHR_MERGE:      32223
cpu0->cpu0_L2C RFO          ACCESS:      83596 HIT:      60347 MISS:      23249 MSHR_MERGE:       3278
cpu0->cpu0_L2C PREFETCH     ACCESS:    5247692 HIT:    4472207 MISS:     775485 MSHR_MERGE:     191662
cpu0->cpu0_L2C WRITE        ACCESS:     450749 HIT:     450696 MISS:         53 MSHR_MERGE:          0
cpu0->cpu0_L2C TRANSLATION  ACCESS:      73094 HIT:      71135 MISS:       1959 MSHR_MERGE:          0
cpu0->cpu0_L2C PREFETCH REQUESTED:    1477041 ISSUED:    1436685 USEFUL:     189098 USELESS:       2860 LATE:      29096
cpu0->cpu0_L2C AVERAGE MISS LATENCY: 149.7 cycles
cpu0->cpu0_L1I TOTAL        ACCESS:    1415719 HIT:    1415719 MISS:          0 MSHR_MERGE:          0
cpu0->cpu0_L1I LOAD         ACCESS:    1415719 HIT:    1415719 MISS:          0 MSHR_MERGE:          0
cpu0->cpu0_L1I RFO          ACCESS:          0 HIT:          0 MISS:          0 MSHR_MERGE:          0
cpu0->cpu0_L1I PREFETCH     ACCESS:          0 HIT:          0 MISS:          0 MSHR_MERGE:          0
cpu0->cpu0_L1I WRITE        ACCESS:          0 HIT:          0 MISS:          0 MSHR_MERGE:          0
cpu0->cpu0_L1I TRANSLATION  ACCESS:          0 HIT:          0 MISS:          0 MSHR_MERGE:          0
cpu0->cpu0_L1I PREFETCH REQUESTED:          0 ISSUED:          0 USEFUL:          0 USELESS:          0 LATE:          0
cpu0->cpu0_L1I AVERAGE MISS LATENCY: - cycles
cpu0->cpu0_L1D TOTAL        ACCESS:   73143329 HIT:   66805865 MISS:    6337464 MSHR_MERGE:     563903
cpu0->cpu0_L1D LOAD         ACCESS:   23093972 HIT:   21005273 MISS:    2088699 MSHR_MERGE:     296780
cpu0->cpu0_L1D RFO          ACCESS:          0 HIT:          0 MISS:          0 MSHR_MERGE:          0
cpu0->cpu0_L1D PREFETCH     ACCESS:   37343016 HIT:   33498123 MISS:    3844893 MSHR_MERGE:      19941
cpu0->cpu0_L1D WRITE        ACCESS:   12448538 HIT:   12117794 MISS:     330744 MSHR_MERGE:     247148
cpu0->cpu0_L1D TRANSLATION  ACCESS:     257803 HIT:     184675 MISS:      73128 MSHR_MERGE:         34
cpu0->cpu0_L1D PREFETCH REQUESTED:  137354024 ISSUED:   37343014 USEFUL:     645147 USELESS:      10755 LATE:      13572
cpu0->cpu0_L1D AVERAGE MISS LATENCY: 88.83 cycles
cpu0->cpu0_ITLB TOTAL        ACCESS:    1346752 HIT:    1346752 MISS:          0 MSHR_MERGE:          0
cpu0->cpu0_ITLB LOAD         ACCESS:    1346752 HIT:    1346752 MISS:          0 MSHR_MERGE:          0
cpu0->cpu0_ITLB RFO          ACCESS:          0 HIT:          0 MISS:          0 MSHR_MERGE:          0
cpu0->cpu0_ITLB PREFETCH     ACCESS:          0 HIT:          0 MISS:          0 MSHR_MERGE:          0
cpu0->cpu0_ITLB WRITE        ACCESS:          0 HIT:          0 MISS:          0 MSHR_MERGE:          0
cpu0->cpu0_ITLB TRANSLATION  ACCESS:          0 HIT:          0 MISS:          0 MSHR_MERGE:          0
cpu0->cpu0_ITLB PREFETCH REQUESTED:          0 ISSUED:          0 USEFUL:          0 USELESS:          0 LATE:          0
cpu0->cpu0_ITLB AVERAGE MISS LATENCY: - cycles
cpu0->cpu0_DTLB TOTAL        ACCESS:   58134102 HIT:   57163551 MISS:     970551 MSHR_MERGE:      61230
cpu0->cpu0_DTLB LOAD         ACCESS:   58134102 HIT:   57163551 MISS:     970551 MSHR_MERGE:      61230
cpu0->cpu0_DTLB RFO          ACCESS:          0 HIT:          0 MISS:          0 MSHR_MERGE:          0
cpu0->cpu0_DTLB PREFETCH     ACCESS:          0 HIT:          0 MISS:          0 MSHR_MERGE:          0
cpu0->cpu0_DTLB WRITE        ACCESS:          0 HIT:          0 MISS:          0 MSHR_MERGE:          0
cpu0->cpu0_DTLB TRANSLATION  ACCESS:          0 HIT:          0 MISS:          0 MSHR_MERGE:          0
cpu0->cpu0_DTLB PREFETCH REQUESTED:          0 ISSUED:          0 USEFUL:          0 USELESS:          0 LATE:          0
cpu0->cpu0_DTLB AVERAGE MISS LATENCY: 8.557 cycles
cpu0->LLC TOTAL        ACCESS:    1866039 HIT:     766698 MISS:    1099341 MSHR_MERGE:      23653
cpu0->LLC LOAD         ACCESS:     977068 HIT:     368279 MISS:     608789 MSHR_MERGE:       4820
cpu0->LLC RFO          ACCESS:      19971 HIT:       7394 MISS:      12577 MSHR_MERGE:        213
cpu0->LLC PREFETCH     ACCESS:     583808 HIT:     190148 MISS:     393660 MSHR_MERGE:      18620
cpu0->LLC WRITE        ACCESS:     283233 HIT:     200762 MISS:      82471 MSHR_MERGE:          0
cpu0->LLC TRANSLATION  ACCESS:       1959 HIT:        115 MISS:       1844 MSHR_MERGE:          0
cpu0->LLC PREFETCH REQUESTED:          0 ISSUED:          0 USEFUL:          0 USELESS:          0 LATE:          0
cpu0->LLC AVERAGE MISS LATENCY: 186.6 cycles

DRAM Statistics

Channel 0 RQ ROW_BUFFER_HIT:      32935
  ROW_BUFFER_MISS:     959756
  AVG DBUS CONGESTED CYCLE: 11.81
Channel 0 WQ ROW_BUFFER_HIT:      35155
  ROW_BUFFER_MISS:     127112
  FULL:        137
Channel 0 REFRESHES ISSUED:      15463

[ROI Statistics]
[System Configuration]
num_cpus 1
cpu_freq 4000
fetch_width 6
decode_width 6
dispatch_width 6
execute_width 6
lq_width 2
sq_width 2
retire_width 6
scheduler_size 128
branch_mispredict_penalty 15
rob_size 352
lq_size 128
sq_size 72
ifetch_buffer_size 64
decode_buffer_size 32
dispatch_buffer_size 32
register_file_size 288
decode_latency 1
dispatch_latency 1
schedule_latency 1
execute_latency 1
page_size 4096
block_size 64
core_0_itlb_set 16
core_0_itlb_way 4
core_0_itlb_rq_size 16
core_0_itlb_wq_size 16
core_0_itlb_pq_size 0
core_0_itlb_mshr_size 8
core_0_itlb_hit_latency 1
core_0_itlb_fill_latency 1
core_0_itlb_max_tag_check 2
core_0_itlb_max_fill 2
core_0_dtlb_set 16
core_0_dtlb_way 4
core_0_dtlb_rq_size 16
core_0_dtlb_wq_size 16
core_0_dtlb_pq_size 0
core_0_dtlb_mshr_size 8
core_0_dtlb_hit_latency 1
core_0_dtlb_fill_latency 1
core_0_dtlb_max_tag_check 2
core_0_dtlb_max_fill 2
core_0_stlb_set 128
core_0_stlb_way 12
core_0_stlb_rq_size 32
core_0_stlb_wq_size 32
core_0_stlb_pq_size 0
core_0_stlb_mshr_size 16
core_0_stlb_hit_latency 4
core_0_stlb_fill_latency 4
core_0_stlb_max_tag_check 1
core_0_stlb_max_fill 1
core_0_l1i_set 64
core_0_l1i_way 8
core_0_l1i_rq_size 64
core_0_l1i_wq_size 64
core_0_l1i_pq_size 32
core_0_l1i_mshr_size 8
core_0_l1i_hit_latency 2
core_0_l1i_fill_latency 2
core_0_l1i_max_tag_check 2
core_0_l1i_max_fill 2
core_0_l1d_set 64
core_0_l1d_way 12
core_0_l1d_rq_size 64
core_0_l1d_wq_size 64
core_0_l1d_pq_size 8
core_0_l1d_mshr_size 16
core_0_l1d_hit_latency 2
core_0_l1d_fill_latency 3
core_0_l1d_max_tag_check 2
core_0_l1d_max_fill 2
core_0_l2c_set 1024
core_0_l2c_way 8
core_0_l2c_rq_size 32
core_0_l2c_wq_size 32
core_0_l2c_pq_size 16
core_0_l2c_mshr_size 32
core_0_l2c_hit_latency 5
core_0_l2c_fill_latency 5
core_0_l2c_max_tag_check 1
core_0_l2c_max_fill 1
llc_set 2048
llc_way 16
llc_rq_size 32
llc_wq_size 32
llc_pq_size 32
llc_mshr_size 64
llc_hit_latency 10
llc_fill_latency 10
llc_max_tag_check 1
llc_max_fill 1
dram_channels 1
dram_ranks 1
dram_bankgroups 8
dram_banks 4
dram_rows 65536
dram_columns 1024
dram_channel_width 8
dram_rq_size 64
dram_wq_size 64
dram_size 17179869184
core_0_itlb_prefetcher no
core_0_dtlb_prefetcher no
core_0_stlb_prefetcher no
core_0_l1i_prefetcher next_line
core_0_l1d_prefetcher vberti_nocross
core_0_l2c_prefetcher ip_stride
llc_prefetcher no
llc_replacement drrip

Core_0_instructions 100000005
Core_0_cycles 185556640
Core_0_IPC 0.538919
Core_0_branch_prediction_accuracy 92.6505
Core_0_branch_MPKI 17.9019
Core_0_average_ROB_occupancy_at_mispredict 29.0125

Core_0_ITLB_total_access 1346752
Core_0_ITLB_total_hit 1346752
Core_0_ITLB_total_miss 0
Core_0_ITLB_total_MPKI 0
Core_0_ITLB_total_miss_rate 0
Core_0_ITLB_demand_access 1346752
Core_0_ITLB_demand_hit 1346752
Core_0_ITLB_demand_miss 0
Core_0_ITLB_demand_MPKI 0
Core_0_ITLB_demand_miss_rate 0
Core_0_ITLB_load_access 1346752
Core_0_ITLB_load_hit 1346752
Core_0_ITLB_load_miss 0
Core_0_ITLB_load_MPKI 0
Core_0_ITLB_load_miss_rate 0
Core_0_ITLB_rfo_access 0
Core_0_ITLB_rfo_hit 0
Core_0_ITLB_rfo_miss 0
Core_0_ITLB_rfo_MPKI 0
Core_0_ITLB_rfo_miss_rate 0
Core_0_ITLB_prefetch_access 0
Core_0_ITLB_prefetch_hit 0
Core_0_ITLB_prefetch_miss 0
Core_0_ITLB_prefetch_MPKI 0
Core_0_ITLB_prefetch_miss_rate 0
Core_0_ITLB_writeback_access 0
Core_0_ITLB_writeback_hit 0
Core_0_ITLB_writeback_miss 0
Core_0_ITLB_writeback_MPKI 0
Core_0_ITLB_writeback_miss_rate 0
Core_0_ITLB_prefetch_requested 0
Core_0_ITLB_prefetch_issued 0
Core_0_ITLB_prefetch_useful 0
Core_0_ITLB_prefetch_useless 0
Core_0_ITLB_prefetch_late 0
Core_0_ITLB_prefetch_accuracy 0
Core_0_ITLB_prefetch_coverage 0
Core_0_ITLB_total_eviction 0

Core_0_DTLB_total_access 58134102
Core_0_DTLB_total_hit 57163551
Core_0_DTLB_total_miss 970551
Core_0_DTLB_total_MPKI 9.70551
Core_0_DTLB_total_miss_rate 0.016695
Core_0_DTLB_demand_access 58134102
Core_0_DTLB_demand_hit 57163551
Core_0_DTLB_demand_miss 970551
Core_0_DTLB_demand_MPKI 9.70551
Core_0_DTLB_demand_miss_rate 0.016695
Core_0_DTLB_load_access 58134102
Core_0_DTLB_load_hit 57163551
Core_0_DTLB_load_miss 970551
Core_0_DTLB_load_MPKI 9.70551
Core_0_DTLB_load_miss_rate 0.016695
Core_0_DTLB_rfo_access 0
Core_0_DTLB_rfo_hit 0
Core_0_DTLB_rfo_miss 0
Core_0_DTLB_rfo_MPKI 0
Core_0_DTLB_rfo_miss_rate 0
Core_0_DTLB_prefetch_access 0
Core_0_DTLB_prefetch_hit 0
Core_0_DTLB_prefetch_miss 0
Core_0_DTLB_prefetch_MPKI 0
Core_0_DTLB_prefetch_miss_rate 0
Core_0_DTLB_writeback_access 0
Core_0_DTLB_writeback_hit 0
Core_0_DTLB_writeback_miss 0
Core_0_DTLB_writeback_MPKI 0
Core_0_DTLB_writeback_miss_rate 0
Core_0_DTLB_prefetch_requested 0
Core_0_DTLB_prefetch_issued 0
Core_0_DTLB_prefetch_useful 0
Core_0_DTLB_prefetch_useless 0
Core_0_DTLB_prefetch_late 0
Core_0_DTLB_prefetch_accuracy 0
Core_0_DTLB_prefetch_coverage 0
Core_0_DTLB_total_eviction 909321

Core_0_STLB_total_access 909321
Core_0_STLB_total_hit 780385
Core_0_STLB_total_miss 128936
Core_0_STLB_total_MPKI 1.28936
Core_0_STLB_total_miss_rate 0.141794
Core_0_STLB_demand_access 909321
Core_0_STLB_demand_hit 780385
Core_0_STLB_demand_miss 128936
Core_0_STLB_demand_MPKI 1.28936
Core_0_STLB_demand_miss_rate 0.141794
Core_0_STLB_load_access 909321
Core_0_STLB_load_hit 780385
Core_0_STLB_load_miss 128936
Core_0_STLB_load_MPKI 1.28936
Core_0_STLB_load_miss_rate 0.141794
Core_0_STLB_rfo_access 0
Core_0_STLB_rfo_hit 0
Core_0_STLB_rfo_miss 0
Core_0_STLB_rfo_MPKI 0
Core_0_STLB_rfo_miss_rate 0
Core_0_STLB_prefetch_access 0
Core_0_STLB_prefetch_hit 0
Core_0_STLB_prefetch_miss 0
Core_0_STLB_prefetch_MPKI 0
Core_0_STLB_prefetch_miss_rate 0
Core_0_STLB_writeback_access 0
Core_0_STLB_writeback_hit 0
Core_0_STLB_writeback_miss 0
Core_0_STLB_writeback_MPKI 0
Core_0_STLB_writeback_miss_rate 0
Core_0_STLB_prefetch_requested 0
Core_0_STLB_prefetch_issued 0
Core_0_STLB_prefetch_useful 0
Core_0_STLB_prefetch_useless 0
Core_0_STLB_prefetch_late 0
Core_0_STLB_prefetch_accuracy 0
Core_0_STLB_prefetch_coverage 0
Core_0_STLB_total_eviction 128936

Core_0_L1I_total_access 1415719
Core_0_L1I_total_hit 1415719
Core_0_L1I_total_miss 0
Core_0_L1I_total_MPKI 0
Core_0_L1I_total_miss_rate 0
Core_0_L1I_demand_access 1415719
Core_0_L1I_demand_hit 1415719
Core_0_L1I_demand_miss 0
Core_0_L1I_demand_MPKI 0
Core_0_L1I_demand_miss_rate 0
Core_0_L1I_load_access 1415719
Core_0_L1I_load_hit 1415719
Core_0_L1I_load_miss 0
Core_0_L1I_load_MPKI 0
Core_0_L1I_load_miss_rate 0
Core_0_L1I_rfo_access 0
Core_0_L1I_rfo_hit 0
Core_0_L1I_rfo_miss 0
Core_0_L1I_rfo_MPKI 0
Core_0_L1I_rfo_miss_rate 0
Core_0_L1I_prefetch_access 0
Core_0_L1I_prefetch_hit 0
Core_0_L1I_prefetch_miss 0
Core_0_L1I_prefetch_MPKI 0
Core_0_L1I_prefetch_miss_rate 0
Core_0_L1I_writeback_access 0
Core_0_L1I_writeback_hit 0
Core_0_L1I_writeback_miss 0
Core_0_L1I_writeback_MPKI 0
Core_0_L1I_writeback_miss_rate 0
Core_0_L1I_prefetch_requested 0
Core_0_L1I_prefetch_issued 0
Core_0_L1I_prefetch_useful 0
Core_0_L1I_prefetch_useless 0
Core_0_L1I_prefetch_late 0
Core_0_L1I_prefetch_accuracy 0
Core_0_L1I_prefetch_coverage 0
Core_0_L1I_total_eviction 0

Core_0_L1D_total_access 72885526
Core_0_L1D_total_hit 66621190
Core_0_L1D_total_miss 6264336
Core_0_L1D_total_MPKI 62.6434
Core_0_L1D_total_miss_rate 0.0859476
Core_0_L1D_demand_access 23093972
Core_0_L1D_demand_hit 21005273
Core_0_L1D_demand_miss 2088699
Core_0_L1D_demand_MPKI 20.887
Core_0_L1D_demand_miss_rate 0.0904435
Core_0_L1D_load_access 23093972
Core_0_L1D_load_hit 21005273
Core_0_L1D_load_miss 2088699
Core_0_L1D_load_MPKI 20.887
Core_0_L1D_load_miss_rate 0.0904435
Core_0_L1D_rfo_access 0
Core_0_L1D_rfo_hit 0
Core_0_L1D_rfo_miss 0
Core_0_L1D_rfo_MPKI 0
Core_0_L1D_rfo_miss_rate 0
Core_0_L1D_prefetch_access 37343016
Core_0_L1D_prefetch_hit 33498123
Core_0_L1D_prefetch_miss 3844893
Core_0_L1D_prefetch_MPKI 38.4489
Core_0_L1D_prefetch_miss_rate 0.102962
Core_0_L1D_writeback_access 12448538
Core_0_L1D_writeback_hit 12117794
Core_0_L1D_writeback_miss 330744
Core_0_L1D_writeback_MPKI 3.30744
Core_0_L1D_writeback_miss_rate 0.0265689
Core_0_L1D_prefetch_requested 137354024
Core_0_L1D_prefetch_issued 37343014
Core_0_L1D_prefetch_useful 645147
Core_0_L1D_prefetch_useless 10755
Core_0_L1D_prefetch_late 13572
Core_0_L1D_prefetch_accuracy 0.0172762
Core_0_L1D_prefetch_coverage 0.235985
Core_0_L1D_total_eviction 2604532

Core_0_L2C_total_access 7573956
Core_0_L2C_total_hit 5765878
Core_0_L2C_total_miss 1808078
Core_0_L2C_total_MPKI 18.0808
Core_0_L2C_total_miss_rate 0.238723
Core_0_L2C_demand_access 1875515
Core_0_L2C_demand_hit 842975
Core_0_L2C_demand_miss 1032540
Core_0_L2C_demand_MPKI 10.3254
Core_0_L2C_demand_miss_rate 0.550537
Core_0_L2C_load_access 1791919
Core_0_L2C_load_hit 782628
Core_0_L2C_load_miss 1009291
Core_0_L2C_load_MPKI 10.0929
Core_0_L2C_load_miss_rate 0.563246
Core_0_L2C_rfo_access 83596
Core_0_L2C_rfo_hit 60347
Core_0_L2C_rfo_miss 23249
Core_0_L2C_rfo_MPKI 0.23249
Core_0_L2C_rfo_miss_rate 0.278111
Core_0_L2C_prefetch_access 5247692
Core_0_L2C_prefetch_hit 4472207
Core_0_L2C_prefetch_miss 775485
Core_0_L2C_prefetch_MPKI 7.75485
Core_0_L2C_prefetch_miss_rate 0.147776
Core_0_L2C_writeback_access 450749
Core_0_L2C_writeback_hit 450696
Core_0_L2C_writeback_miss 53
Core_0_L2C_writeback_MPKI 0.00053
Core_0_L2C_writeback_miss_rate 0.000117582
Core_0_L2C_prefetch_requested 1477041
Core_0_L2C_prefetch_issued 1436685
Core_0_L2C_prefetch_useful 189098
Core_0_L2C_prefetch_useless 2860
Core_0_L2C_prefetch_late 29096
Core_0_L2C_prefetch_accuracy 0.131621
Core_0_L2C_prefetch_coverage 0.154791
Core_0_L2C_total_eviction 1546968

Core_0_LLC_total_access 1864080
Core_0_LLC_total_hit 766583
Core_0_LLC_total_miss 1097497
Core_0_LLC_total_MPKI 10.975
Core_0_LLC_total_miss_rate 0.588761
Core_0_LLC_demand_access 997039
Core_0_LLC_demand_hit 375673
Core_0_LLC_demand_miss 621366
Core_0_LLC_demand_MPKI 6.21366
Core_0_LLC_demand_miss_rate 0.623211
Core_0_LLC_load_access 977068
Core_0_LLC_load_hit 368279
Core_0_LLC_load_miss 608789
Core_0_LLC_load_MPKI 6.08789
Core_0_LLC_load_miss_rate 0.623077
Core_0_LLC_rfo_access 19971
Core_0_LLC_rfo_hit 7394
Core_0_LLC_rfo_miss 12577
Core_0_LLC_rfo_MPKI 0.12577
Core_0_LLC_rfo_miss_rate 0.629763
Core_0_LLC_prefetch_access 583808
Core_0_LLC_prefetch_hit 190148
Core_0_LLC_prefetch_miss 393660
Core_0_LLC_prefetch_MPKI 3.9366
Core_0_LLC_prefetch_miss_rate 0.674297
Core_0_LLC_writeback_access 283233
Core_0_LLC_writeback_hit 200762
Core_0_LLC_writeback_miss 82471
Core_0_LLC_writeback_MPKI 0.82471
Core_0_LLC_writeback_miss_rate 0.291177
Core_0_LLC_prefetch_requested 0
Core_0_LLC_prefetch_issued 0
Core_0_LLC_prefetch_useful 0
Core_0_LLC_prefetch_useless 0
Core_0_LLC_prefetch_late 0
Core_0_LLC_prefetch_accuracy 0
Core_0_LLC_prefetch_coverage 0
Core_0_LLC_total_eviction 1075688

[DRAM Statistics]
Channel_0_RQ_row_buffer_hit 32935
Channel_0_RQ_row_buffer_miss 959756
Channel_0_WQ_row_buffer_hit 35155
Channel_0_WQ_row_buffer_miss 127112
Channel_0_WQ_full 137
Channel_0_dbus_congested 2597354
DRAM_total_RQ_row_buffer_hit 32935
DRAM_total_RQ_row_buffer_miss 959756
DRAM_total_WQ_row_buffer_hit 35155
DRAM_total_WQ_row_buffer_miss 127112
DRAM_total_WQ_full 137
DRAM_total_dbus_congested 2597354
DRAM_avg_congested_cycle 11.8083

======STLB miss causes ========
Core_0_STLB_miss_cause_breakdown
Core_0_STLB_cause_Demand_Data_miss 128935
Core_0_STLB_cause_Demand_Data_miss_rate 0.141793
Core_0_STLB_cause_Demand_Instruction_miss 0
Core_0_STLB_cause_Demand_Instruction_miss_rate 0
Core_0_STLB_cause_L1D_Prefetch_miss 1
Core_0_STLB_cause_L1D_Prefetch_miss_rate 1.09972e-06
Core_0_STLB_cause_L1I_Prefetch_miss 0
Core_0_STLB_cause_L1I_Prefetch_miss_rate 0
Core_0_STLB_cause_Other_miss 0
Core_0_STLB_cause_Other_miss_rate 0
Core_0_STLB_Demand_miss 128935
Core_0_STLB_Demand_miss_rate 0.141793
Core_0_STLB_L1D_Prefetch_miss 1
Core_0_STLB_L1D_Prefetch_miss_rate 1.09972e-06
Core_0_STLB_Other_miss 0
Core_0_STLB_Other_miss_rate 0
BERTI TO_L1: 94568895 TO_L2: 87614145 TO_L2_BC_MSHR: 2667606
BERTI AVG_LAT: 62.1476 NUM_TRACK_LATENCY: 3819273 NUM_CANT_TRACK_LATENCY: 71
BERTI CROSS_PAGE 23828466 NO_CROSS_PAGE: 182183040
BERTI FOUND_BERTI: 35272131 NO_FOUND_BERTI: 12638836
BERTI AVERAGE_ISSUED: 2.76869
