[VMEM] WARNING: physical memory size is smaller than virtual memory size.

*** ChampSim Multicore Out-of-Order Simulator ***
Warmup Instructions: 50000000
Simulation Instructions: 100000000
Number of CPUs: 1
Page size: 4096
STLB ideal mode: off
STLB ideal fill: off
Core 0: /data2/zcq/champsim_traces_xsbench/xs.XXL100hash-563B.champsimtrace.xz
VBerti Prefetcher
No Crossing Page
BERTI HASH ENTANGLING
BERTI IP MASK ffff
Off-chip DRAM Size: 16 GiB Channels: 1 Width: 64-bit Data Rate: 3205 MT/s
Warmup halting CPU 0 at instruction 50000004 cycle 32403193 for remainder of phase
Warmup finished CPU 0 instructions: 50000004 cycles: 32403193 cumulative IPC: 1.543 (Simulation time: 00 hr 05 min 48 sec)
Warmup complete CPU 0 instructions: 50000004 cycles: 32403193 cumulative IPC: 1.543 (Simulation time: 00 hr 05 min 48 sec)
Simulation finished CPU 0 instructions: 100000003 cycles: 506640930 cumulative IPC: 0.1974 (Simulation time: 00 hr 44 min 17 sec)
Simulation complete CPU 0 instructions: 100000003 cycles: 506640930 cumulative IPC: 0.1974 (Simulation time: 00 hr 44 min 17 sec)

ChampSim completed all CPUs

=== Simulation ===
CPU 0 runs /data2/zcq/champsim_traces_xsbench/xs.XXL100hash-563B.champsimtrace.xz

Region of Interest Statistics

CPU 0 cumulative IPC: 0.1974 instructions: 100000003 cycles: 506640930
CPU 0 Branch Prediction Accuracy: 92.93% MPKI: 10.21 Average ROB Occupancy at Mispredict: 65.73
Branch type MPKI
BRANCH_DIRECT_JUMP: 1e-05
BRANCH_INDIRECT: 0
BRANCH_CONDITIONAL: 10.21
BRANCH_DIRECT_CALL: 0
BRANCH_INDIRECT_CALL: 0
BRANCH_RETURN: 0

cpu0->cpu0_STLB TOTAL        ACCESS:     946235 HIT:      12346 MISS:     933889 MSHR_MERGE:          0
cpu0->cpu0_STLB LOAD         ACCESS:     946235 HIT:      12346 MISS:     933889 MSHR_MERGE:          0
cpu0->cpu0_STLB RFO          ACCESS:          0 HIT:          0 MISS:          0 MSHR_MERGE:          0
cpu0->cpu0_STLB PREFETCH     ACCESS:          0 HIT:          0 MISS:          0 MSHR_MERGE:          0
cpu0->cpu0_STLB WRITE        ACCESS:          0 HIT:          0 MISS:          0 MSHR_MERGE:          0
cpu0->cpu0_STLB TRANSLATION  ACCESS:          0 HIT:          0 MISS:          0 MSHR_MERGE:          0
cpu0->cpu0_STLB PREFETCH REQUESTED:          0 ISSUED:          0 USEFUL:          0 USELESS:          0 LATE:          0
cpu0->cpu0_STLB AVERAGE MISS LATENCY: 371.5 cycles
cpu0->cpu0_L2C TOTAL        ACCESS:    7671570 HIT:    2149425 MISS:    5522145 MSHR_MERGE:      37550
cpu0->cpu0_L2C LOAD         ACCESS:    4416220 HIT:      74810 MISS:    4341410 MSHR_MERGE:       2397
cpu0->cpu0_L2C RFO          ACCESS:      12332 HIT:      12253 MISS:         79 MSHR_MERGE:          0
cpu0->cpu0_L2C PREFETCH     ACCESS:    2078280 HIT:    1633768 MISS:     444512 MSHR_MERGE:      35153
cpu0->cpu0_L2C WRITE        ACCESS:      16735 HIT:      16603 MISS:        132 MSHR_MERGE:          0
cpu0->cpu0_L2C TRANSLATION  ACCESS:    1148003 HIT:     411991 MISS:     736012 MSHR_MERGE:          0
cpu0->cpu0_L2C PREFETCH REQUESTED:     552429 ISSUED:     552429 USEFUL:      40733 USELESS:     279762 LATE:       2367
cpu0->cpu0_L2C AVERAGE MISS LATENCY: 220.1 cycles
cpu0->cpu0_L1I TOTAL        ACCESS:     329126 HIT:     329126 MISS:          0 MSHR_MERGE:          0
cpu0->cpu0_L1I LOAD         ACCESS:     329126 HIT:     329126 MISS:          0 MSHR_MERGE:          0
cpu0->cpu0_L1I RFO          ACCESS:          0 HIT:          0 MISS:          0 MSHR_MERGE:          0
cpu0->cpu0_L1I PREFETCH     ACCESS:          0 HIT:          0 MISS:          0 MSHR_MERGE:          0
cpu0->cpu0_L1I WRITE        ACCESS:          0 HIT:          0 MISS:          0 MSHR_MERGE:          0
cpu0->cpu0_L1I TRANSLATION  ACCESS:          0 HIT:          0 MISS:          0 MSHR_MERGE:          0
cpu0->cpu0_L1I PREFETCH REQUESTED:          0 ISSUED:          0 USEFUL:          0 USELESS:          0 LATE:          0
cpu0->cpu0_L1I AVERAGE MISS LATENCY: - cycles
cpu0->cpu0_L1D TOTAL        ACCESS:   23007625 HIT:   14572159 MISS:    8435466 MSHR_MERGE:    1333043
cpu0->cpu0_L1D LOAD         ACCESS:   13728534 HIT:    8317315 MISS:    5411219 MSHR_MERGE:     995001
cpu0->cpu0_L1D RFO          ACCESS:          0 HIT:          0 MISS:          0 MSHR_MERGE:          0
cpu0->cpu0_L1D PREFETCH     ACCESS:    3825645 HIT:    2299772 MISS:    1525873 MSHR_MERGE:         13
cpu0->cpu0_L1D WRITE        ACCESS:    3256345 HIT:    3225303 MISS:      31042 MSHR_MERGE:      18700
cpu0->cpu0_L1D TRANSLATION  ACCESS:    2197101 HIT:     729769 MISS:    1467332 MSHR_MERGE:     319329
cpu0->cpu0_L1D PREFETCH REQUESTED:    3826182 ISSUED:    3825640 USEFUL:     126355 USELESS:      35295 LATE:         45
cpu0->cpu0_L1D AVERAGE MISS LATENCY: 209.9 cycles
cpu0->cpu0_ITLB TOTAL        ACCESS:     272634 HIT:     272634 MISS:          0 MSHR_MERGE:          0
cpu0->cpu0_ITLB LOAD         ACCESS:     272634 HIT:     272634 MISS:          0 MSHR_MERGE:          0
cpu0->cpu0_ITLB RFO          ACCESS:          0 HIT:          0 MISS:          0 MSHR_MERGE:          0
cpu0->cpu0_ITLB PREFETCH     ACCESS:          0 HIT:          0 MISS:          0 MSHR_MERGE:          0
cpu0->cpu0_ITLB WRITE        ACCESS:          0 HIT:          0 MISS:          0 MSHR_MERGE:          0
cpu0->cpu0_ITLB TRANSLATION  ACCESS:          0 HIT:          0 MISS:          0 MSHR_MERGE:          0
cpu0->cpu0_ITLB PREFETCH REQUESTED:          0 ISSUED:          0 USEFUL:          0 USELESS:          0 LATE:          0
cpu0->cpu0_ITLB AVERAGE MISS LATENCY: - cycles
cpu0->cpu0_DTLB TOTAL        ACCESS:   19666456 HIT:   16277671 MISS:    3388785 MSHR_MERGE:    2442550
cpu0->cpu0_DTLB LOAD         ACCESS:   19666456 HIT:   16277671 MISS:    3388785 MSHR_MERGE:    2442550
cpu0->cpu0_DTLB RFO          ACCESS:          0 HIT:          0 MISS:          0 MSHR_MERGE:          0
cpu0->cpu0_DTLB PREFETCH     ACCESS:          0 HIT:          0 MISS:          0 MSHR_MERGE:          0
cpu0->cpu0_DTLB WRITE        ACCESS:          0 HIT:          0 MISS:          0 MSHR_MERGE:          0
cpu0->cpu0_DTLB TRANSLATION  ACCESS:          0 HIT:          0 MISS:          0 MSHR_MERGE:          0
cpu0->cpu0_DTLB PREFETCH REQUESTED:          0 ISSUED:          0 USEFUL:          0 USELESS:          0 LATE:          0
cpu0->cpu0_DTLB AVERAGE MISS LATENCY: 372.6 cycles
cpu0->LLC TOTAL        ACCESS:    5485180 HIT:     173026 MISS:    5312154 MSHR_MERGE:          0
cpu0->LLC LOAD         ACCESS:    4339013 HIT:       8437 MISS:    4330576 MSHR_MERGE:          0
cpu0->LLC RFO          ACCESS:         79 HIT:         79 MISS:          0 MSHR_MERGE:          0
cpu0->LLC PREFETCH     ACCESS:     409359 HIT:      26742 MISS:     382617 MSHR_MERGE:          0
cpu0->LLC WRITE        ACCESS:        717 HIT:        717 MISS:          0 MSHR_MERGE:          0
cpu0->LLC TRANSLATION  ACCESS:     736012 HIT:     137051 MISS:     598961 MSHR_MERGE:          0
cpu0->LLC PREFETCH REQUESTED:          0 ISSUED:          0 USEFUL:          0 USELESS:          0 LATE:          0
cpu0->LLC AVERAGE MISS LATENCY: 210.1 cycles

DRAM Statistics

Channel 0 RQ ROW_BUFFER_HIT:      80459
  ROW_BUFFER_MISS:    5231695
  AVG DBUS CONGESTED CYCLE: 3
Channel 0 WQ ROW_BUFFER_HIT:          1
  ROW_BUFFER_MISS:          0
  FULL:          0
Channel 0 REFRESHES ISSUED:      42220

[ROI Statistics]
[System Configuration]
num_cpus 1
cpu_freq 4000
fetch_width 6
decode_width 6
dispatch_width 6
execute_width 6
lq_width 2
sq_width 2
retire_width 6
scheduler_size 128
branch_mispredict_penalty 15
rob_size 352
lq_size 128
sq_size 72
ifetch_buffer_size 64
decode_buffer_size 32
dispatch_buffer_size 32
register_file_size 288
decode_latency 1
dispatch_latency 1
schedule_latency 1
execute_latency 1
page_size 4096
block_size 64
core_0_itlb_set 16
core_0_itlb_way 4
core_0_itlb_rq_size 16
core_0_itlb_wq_size 16
core_0_itlb_pq_size 0
core_0_itlb_mshr_size 8
core_0_itlb_hit_latency 1
core_0_itlb_fill_latency 1
core_0_itlb_max_tag_check 2
core_0_itlb_max_fill 2
core_0_dtlb_set 16
core_0_dtlb_way 4
core_0_dtlb_rq_size 16
core_0_dtlb_wq_size 16
core_0_dtlb_pq_size 0
core_0_dtlb_mshr_size 8
core_0_dtlb_hit_latency 1
core_0_dtlb_fill_latency 1
core_0_dtlb_max_tag_check 2
core_0_dtlb_max_fill 2
core_0_stlb_set 128
core_0_stlb_way 12
core_0_stlb_rq_size 32
core_0_stlb_wq_size 32
core_0_stlb_pq_size 0
core_0_stlb_mshr_size 16
core_0_stlb_hit_latency 4
core_0_stlb_fill_latency 4
core_0_stlb_max_tag_check 1
core_0_stlb_max_fill 1
core_0_l1i_set 64
core_0_l1i_way 8
core_0_l1i_rq_size 64
core_0_l1i_wq_size 64
core_0_l1i_pq_size 32
core_0_l1i_mshr_size 8
core_0_l1i_hit_latency 2
core_0_l1i_fill_latency 2
core_0_l1i_max_tag_check 2
core_0_l1i_max_fill 2
core_0_l1d_set 64
core_0_l1d_way 12
core_0_l1d_rq_size 64
core_0_l1d_wq_size 64
core_0_l1d_pq_size 8
core_0_l1d_mshr_size 16
core_0_l1d_hit_latency 2
core_0_l1d_fill_latency 3
core_0_l1d_max_tag_check 2
core_0_l1d_max_fill 2
core_0_l2c_set 1024
core_0_l2c_way 8
core_0_l2c_rq_size 32
core_0_l2c_wq_size 32
core_0_l2c_pq_size 16
core_0_l2c_mshr_size 32
core_0_l2c_hit_latency 5
core_0_l2c_fill_latency 5
core_0_l2c_max_tag_check 1
core_0_l2c_max_fill 1
llc_set 2048
llc_way 16
llc_rq_size 32
llc_wq_size 32
llc_pq_size 32
llc_mshr_size 64
llc_hit_latency 10
llc_fill_latency 10
llc_max_tag_check 1
llc_max_fill 1
dram_channels 1
dram_ranks 1
dram_bankgroups 8
dram_banks 4
dram_rows 65536
dram_columns 1024
dram_channel_width 8
dram_rq_size 64
dram_wq_size 64
dram_size 17179869184
core_0_itlb_prefetcher no
core_0_dtlb_prefetcher no
core_0_stlb_prefetcher no
core_0_l1i_prefetcher next_line
core_0_l1d_prefetcher vberti_nocross
core_0_l2c_prefetcher ip_stride
llc_prefetcher no
llc_replacement drrip

Core_0_instructions 100000003
Core_0_cycles 506640930
Core_0_IPC 0.197378
Core_0_branch_prediction_accuracy 92.933
Core_0_branch_MPKI 10.211
Core_0_average_ROB_occupancy_at_mispredict 65.7261

Core_0_ITLB_total_access 272634
Core_0_ITLB_total_hit 272634
Core_0_ITLB_total_miss 0
Core_0_ITLB_total_MPKI 0
Core_0_ITLB_total_miss_rate 0
Core_0_ITLB_demand_access 272634
Core_0_ITLB_demand_hit 272634
Core_0_ITLB_demand_miss 0
Core_0_ITLB_demand_MPKI 0
Core_0_ITLB_demand_miss_rate 0
Core_0_ITLB_load_access 272634
Core_0_ITLB_load_hit 272634
Core_0_ITLB_load_miss 0
Core_0_ITLB_load_MPKI 0
Core_0_ITLB_load_miss_rate 0
Core_0_ITLB_rfo_access 0
Core_0_ITLB_rfo_hit 0
Core_0_ITLB_rfo_miss 0
Core_0_ITLB_rfo_MPKI 0
Core_0_ITLB_rfo_miss_rate 0
Core_0_ITLB_prefetch_access 0
Core_0_ITLB_prefetch_hit 0
Core_0_ITLB_prefetch_miss 0
Core_0_ITLB_prefetch_MPKI 0
Core_0_ITLB_prefetch_miss_rate 0
Core_0_ITLB_writeback_access 0
Core_0_ITLB_writeback_hit 0
Core_0_ITLB_writeback_miss 0
Core_0_ITLB_writeback_MPKI 0
Core_0_ITLB_writeback_miss_rate 0
Core_0_ITLB_prefetch_requested 0
Core_0_ITLB_prefetch_issued 0
Core_0_ITLB_prefetch_useful 0
Core_0_ITLB_prefetch_useless 0
Core_0_ITLB_prefetch_late 0
Core_0_ITLB_prefetch_accuracy 0
Core_0_ITLB_prefetch_coverage 0
Core_0_ITLB_total_eviction 0

Core_0_DTLB_total_access 19666456
Core_0_DTLB_total_hit 16277671
Core_0_DTLB_total_miss 3388785
Core_0_DTLB_total_MPKI 33.8878
Core_0_DTLB_total_miss_rate 0.172313
Core_0_DTLB_demand_access 19666456
Core_0_DTLB_demand_hit 16277671
Core_0_DTLB_demand_miss 3388785
Core_0_DTLB_demand_MPKI 33.8878
Core_0_DTLB_demand_miss_rate 0.172313
Core_0_DTLB_load_access 19666456
Core_0_DTLB_load_hit 16277671
Core_0_DTLB_load_miss 3388785
Core_0_DTLB_load_MPKI 33.8878
Core_0_DTLB_load_miss_rate 0.172313
Core_0_DTLB_rfo_access 0
Core_0_DTLB_rfo_hit 0
Core_0_DTLB_rfo_miss 0
Core_0_DTLB_rfo_MPKI 0
Core_0_DTLB_rfo_miss_rate 0
Core_0_DTLB_prefetch_access 0
Core_0_DTLB_prefetch_hit 0
Core_0_DTLB_prefetch_miss 0
Core_0_DTLB_prefetch_MPKI 0
Core_0_DTLB_prefetch_miss_rate 0
Core_0_DTLB_writeback_access 0
Core_0_DTLB_writeback_hit 0
Core_0_DTLB_writeback_miss 0
Core_0_DTLB_writeback_MPKI 0
Core_0_DTLB_writeback_miss_rate 0
Core_0_DTLB_prefetch_requested 0
Core_0_DTLB_prefetch_issued 0
Core_0_DTLB_prefetch_useful 0
Core_0_DTLB_prefetch_useless 0
Core_0_DTLB_prefetch_late 0
Core_0_DTLB_prefetch_accuracy 0
Core_0_DTLB_prefetch_coverage 0
Core_0_DTLB_total_eviction 946235

Core_0_STLB_total_access 946235
Core_0_STLB_total_hit 12346
Core_0_STLB_total_miss 933889
Core_0_STLB_total_MPKI 9.33889
Core_0_STLB_total_miss_rate 0.986953
Core_0_STLB_demand_access 946235
Core_0_STLB_demand_hit 12346
Core_0_STLB_demand_miss 933889
Core_0_STLB_demand_MPKI 9.33889
Core_0_STLB_demand_miss_rate 0.986953
Core_0_STLB_load_access 946235
Core_0_STLB_load_hit 12346
Core_0_STLB_load_miss 933889
Core_0_STLB_load_MPKI 9.33889
Core_0_STLB_load_miss_rate 0.986953
Core_0_STLB_rfo_access 0
Core_0_STLB_rfo_hit 0
Core_0_STLB_rfo_miss 0
Core_0_STLB_rfo_MPKI 0
Core_0_STLB_rfo_miss_rate 0
Core_0_STLB_prefetch_access 0
Core_0_STLB_prefetch_hit 0
Core_0_STLB_prefetch_miss 0
Core_0_STLB_prefetch_MPKI 0
Core_0_STLB_prefetch_miss_rate 0
Core_0_STLB_writeback_access 0
Core_0_STLB_writeback_hit 0
Core_0_STLB_writeback_miss 0
Core_0_STLB_writeback_MPKI 0
Core_0_STLB_writeback_miss_rate 0
Core_0_STLB_prefetch_requested 0
Core_0_STLB_prefetch_issued 0
Core_0_STLB_prefetch_useful 0
Core_0_STLB_prefetch_useless 0
Core_0_STLB_prefetch_late 0
Core_0_STLB_prefetch_accuracy 0
Core_0_STLB_prefetch_coverage 0
Core_0_STLB_total_eviction 933889

Core_0_L1I_total_access 329126
Core_0_L1I_total_hit 329126
Core_0_L1I_total_miss 0
Core_0_L1I_total_MPKI 0
Core_0_L1I_total_miss_rate 0
Core_0_L1I_demand_access 329126
Core_0_L1I_demand_hit 329126
Core_0_L1I_demand_miss 0
Core_0_L1I_demand_MPKI 0
Core_0_L1I_demand_miss_rate 0
Core_0_L1I_load_access 329126
Core_0_L1I_load_hit 329126
Core_0_L1I_load_miss 0
Core_0_L1I_load_MPKI 0
Core_0_L1I_load_miss_rate 0
Core_0_L1I_rfo_access 0
Core_0_L1I_rfo_hit 0
Core_0_L1I_rfo_miss 0
Core_0_L1I_rfo_MPKI 0
Core_0_L1I_rfo_miss_rate 0
Core_0_L1I_prefetch_access 0
Core_0_L1I_prefetch_hit 0
Core_0_L1I_prefetch_miss 0
Core_0_L1I_prefetch_MPKI 0
Core_0_L1I_prefetch_miss_rate 0
Core_0_L1I_writeback_access 0
Core_0_L1I_writeback_hit 0
Core_0_L1I_writeback_miss 0
Core_0_L1I_writeback_MPKI 0
Core_0_L1I_writeback_miss_rate 0
Core_0_L1I_prefetch_requested 0
Core_0_L1I_prefetch_issued 0
Core_0_L1I_prefetch_useful 0
Core_0_L1I_prefetch_useless 0
Core_0_L1I_prefetch_late 0
Core_0_L1I_prefetch_accuracy 0
Core_0_L1I_prefetch_coverage 0
Core_0_L1I_total_eviction 0

Core_0_L1D_total_access 20810524
Core_0_L1D_total_hit 13842390
Core_0_L1D_total_miss 6968134
Core_0_L1D_total_MPKI 69.6813
Core_0_L1D_total_miss_rate 0.334837
Core_0_L1D_demand_access 13728534
Core_0_L1D_demand_hit 8317315
Core_0_L1D_demand_miss 5411219
Core_0_L1D_demand_MPKI 54.1122
Core_0_L1D_demand_miss_rate 0.394159
Core_0_L1D_load_access 13728534
Core_0_L1D_load_hit 8317315
Core_0_L1D_load_miss 5411219
Core_0_L1D_load_MPKI 54.1122
Core_0_L1D_load_miss_rate 0.394159
Core_0_L1D_rfo_access 0
Core_0_L1D_rfo_hit 0
Core_0_L1D_rfo_miss 0
Core_0_L1D_rfo_MPKI 0
Core_0_L1D_rfo_miss_rate 0
Core_0_L1D_prefetch_access 3825645
Core_0_L1D_prefetch_hit 2299772
Core_0_L1D_prefetch_miss 1525873
Core_0_L1D_prefetch_MPKI 15.2587
Core_0_L1D_prefetch_miss_rate 0.398854
Core_0_L1D_writeback_access 3256345
Core_0_L1D_writeback_hit 3225303
Core_0_L1D_writeback_miss 31042
Core_0_L1D_writeback_MPKI 0.31042
Core_0_L1D_writeback_miss_rate 0.00953277
Core_0_L1D_prefetch_requested 3826182
Core_0_L1D_prefetch_issued 3825640
Core_0_L1D_prefetch_useful 126355
Core_0_L1D_prefetch_useless 35295
Core_0_L1D_prefetch_late 45
Core_0_L1D_prefetch_accuracy 0.0330285
Core_0_L1D_prefetch_coverage 0.0228178
Core_0_L1D_total_eviction 5738210

Core_0_L2C_total_access 6523567
Core_0_L2C_total_hit 1737434
Core_0_L2C_total_miss 4786133
Core_0_L2C_total_MPKI 47.8613
Core_0_L2C_total_miss_rate 0.733668
Core_0_L2C_demand_access 4428552
Core_0_L2C_demand_hit 87063
Core_0_L2C_demand_miss 4341489
Core_0_L2C_demand_MPKI 43.4149
Core_0_L2C_demand_miss_rate 0.980341
Core_0_L2C_load_access 4416220
Core_0_L2C_load_hit 74810
Core_0_L2C_load_miss 4341410
Core_0_L2C_load_MPKI 43.4141
Core_0_L2C_load_miss_rate 0.98306
Core_0_L2C_rfo_access 12332
Core_0_L2C_rfo_hit 12253
Core_0_L2C_rfo_miss 79
Core_0_L2C_rfo_MPKI 0.00079
Core_0_L2C_rfo_miss_rate 0.0064061
Core_0_L2C_prefetch_access 2078280
Core_0_L2C_prefetch_hit 1633768
Core_0_L2C_prefetch_miss 444512
Core_0_L2C_prefetch_MPKI 4.44512
Core_0_L2C_prefetch_miss_rate 0.213885
Core_0_L2C_writeback_access 16735
Core_0_L2C_writeback_hit 16603
Core_0_L2C_writeback_miss 132
Core_0_L2C_writeback_MPKI 0.00132
Core_0_L2C_writeback_miss_rate 0.00788766
Core_0_L2C_prefetch_requested 552429
Core_0_L2C_prefetch_issued 552429
Core_0_L2C_prefetch_useful 40733
Core_0_L2C_prefetch_useless 279762
Core_0_L2C_prefetch_late 2367
Core_0_L2C_prefetch_accuracy 0.0737344
Core_0_L2C_prefetch_coverage 0.00929506
Core_0_L2C_total_eviction 5484593

Core_0_LLC_total_access 4749168
Core_0_LLC_total_hit 35975
Core_0_LLC_total_miss 4713193
Core_0_LLC_total_MPKI 47.1319
Core_0_LLC_total_miss_rate 0.992425
Core_0_LLC_demand_access 4339092
Core_0_LLC_demand_hit 8516
Core_0_LLC_demand_miss 4330576
Core_0_LLC_demand_MPKI 43.3058
Core_0_LLC_demand_miss_rate 0.998037
Core_0_LLC_load_access 4339013
Core_0_LLC_load_hit 8437
Core_0_LLC_load_miss 4330576
Core_0_LLC_load_MPKI 43.3058
Core_0_LLC_load_miss_rate 0.998056
Core_0_LLC_rfo_access 79
Core_0_LLC_rfo_hit 79
Core_0_LLC_rfo_miss 0
Core_0_LLC_rfo_MPKI 0
Core_0_LLC_rfo_miss_rate 0
Core_0_LLC_prefetch_access 409359
Core_0_LLC_prefetch_hit 26742
Core_0_LLC_prefetch_miss 382617
Core_0_LLC_prefetch_MPKI 3.82617
Core_0_LLC_prefetch_miss_rate 0.934673
Core_0_LLC_writeback_access 717
Core_0_LLC_writeback_hit 717
Core_0_LLC_writeback_miss 0
Core_0_LLC_writeback_MPKI 0
Core_0_LLC_writeback_miss_rate 0
Core_0_LLC_prefetch_requested 0
Core_0_LLC_prefetch_issued 0
Core_0_LLC_prefetch_useful 0
Core_0_LLC_prefetch_useless 0
Core_0_LLC_prefetch_late 0
Core_0_LLC_prefetch_accuracy 0
Core_0_LLC_prefetch_coverage 0
Core_0_LLC_total_eviction 5312153

[DRAM Statistics]
Channel_0_RQ_row_buffer_hit 80459
Channel_0_RQ_row_buffer_miss 5231695
Channel_0_WQ_row_buffer_hit 1
Channel_0_WQ_row_buffer_miss 0
Channel_0_WQ_full 0
Channel_0_dbus_congested 8362318
DRAM_total_RQ_row_buffer_hit 80459
DRAM_total_RQ_row_buffer_miss 5231695
DRAM_total_WQ_row_buffer_hit 1
DRAM_total_WQ_row_buffer_miss 0
DRAM_total_WQ_full 0
DRAM_total_dbus_congested 8362318
DRAM_avg_congested_cycle 3.00006

======STLB miss causes ========
Core_0_STLB_miss_cause_breakdown
Core_0_STLB_cause_Demand_Data_miss 933889
Core_0_STLB_cause_Demand_Data_miss_rate 0.986953
Core_0_STLB_cause_Demand_Instruction_miss 0
Core_0_STLB_cause_Demand_Instruction_miss_rate 0
Core_0_STLB_cause_L1D_Prefetch_miss 0
Core_0_STLB_cause_L1D_Prefetch_miss_rate 0
Core_0_STLB_cause_L1I_Prefetch_miss 0
Core_0_STLB_cause_L1I_Prefetch_miss_rate 0
Core_0_STLB_cause_Other_miss 0
Core_0_STLB_cause_Other_miss_rate 0
Core_0_STLB_Demand_miss 933889
Core_0_STLB_Demand_miss_rate 0.986953
Core_0_STLB_L1D_Prefetch_miss 0
Core_0_STLB_L1D_Prefetch_miss_rate 0
Core_0_STLB_Other_miss 0
Core_0_STLB_Other_miss_rate 0
BERTI TO_L1: 4291836 TO_L2: 2557931 TO_L2_BC_MSHR: 0
BERTI AVG_LAT: 152.871 NUM_TRACK_LATENCY: 6878113 NUM_CANT_TRACK_LATENCY: 0
BERTI CROSS_PAGE 259354 NO_CROSS_PAGE: 6849767
BERTI FOUND_BERTI: 14780671 NO_FOUND_BERTI: 8198193
BERTI AVERAGE_ISSUED: 1.95484
