[VMEM] WARNING: physical memory size is smaller than virtual memory size.

*** ChampSim Multicore Out-of-Order Simulator ***
Warmup Instructions: 50000000
Simulation Instructions: 100000000
Number of CPUs: 1
Page size: 4096
Core 0: /data0/tzh/champsim_traces/SPEC06/429.mcf-22B.champsimtrace.xz
VBerti Prefetcher
BERTI HASH ENTANGLING
BERTI IP MASK ffff
Off-chip DRAM Size: 16 GiB Channels: 1 Width: 64-bit Data Rate: 3205 MT/s
Warmup halting CPU 0 at instruction 50000004 cycle 21950334 for remainder of phase
Warmup finished CPU 0 instructions: 50000004 cycles: 21950334 cumulative IPC: 2.278 (Simulation time: 00 hr 04 min 15 sec)
Warmup complete CPU 0 instructions: 50000004 cycles: 21950334 cumulative IPC: 2.278 (Simulation time: 00 hr 04 min 15 sec)
Simulation finished CPU 0 instructions: 100000002 cycles: 128888538 cumulative IPC: 0.7759 (Simulation time: 00 hr 21 min 56 sec)
Simulation complete CPU 0 instructions: 100000002 cycles: 128888538 cumulative IPC: 0.7759 (Simulation time: 00 hr 21 min 56 sec)

ChampSim completed all CPUs

=== Simulation ===
CPU 0 runs /data0/tzh/champsim_traces/SPEC06/429.mcf-22B.champsimtrace.xz

Region of Interest Statistics

CPU 0 cumulative IPC: 0.7759 instructions: 100000002 cycles: 128888538
CPU 0 Branch Prediction Accuracy: 98.2% MPKI: 1.63 Average ROB Occupancy at Mispredict: 116.5
Branch type MPKI
BRANCH_DIRECT_JUMP: 0
BRANCH_INDIRECT: 0
BRANCH_CONDITIONAL: 1.63
BRANCH_DIRECT_CALL: 0
BRANCH_INDIRECT_CALL: 0
BRANCH_RETURN: 0

cpu0->cpu0_STLB TOTAL        ACCESS:     529587 HIT:     189898 MISS:     339689 MSHR_MERGE:          0
cpu0->cpu0_STLB LOAD         ACCESS:     529587 HIT:     189898 MISS:     339689 MSHR_MERGE:          0
cpu0->cpu0_STLB RFO          ACCESS:          0 HIT:          0 MISS:          0 MSHR_MERGE:          0
cpu0->cpu0_STLB PREFETCH     ACCESS:          0 HIT:          0 MISS:          0 MSHR_MERGE:          0
cpu0->cpu0_STLB WRITE        ACCESS:          0 HIT:          0 MISS:          0 MSHR_MERGE:          0
cpu0->cpu0_STLB TRANSLATION  ACCESS:          0 HIT:          0 MISS:          0 MSHR_MERGE:          0
cpu0->cpu0_STLB PREFETCH REQUESTED:          0 ISSUED:          0 USEFUL:          0 USELESS:          0 LATE:          0 TOO_EARLY:          0
cpu0->cpu0_STLB AVERAGE MISS LATENCY: 225.6 cycles
cpu0->cpu0_L2C TOTAL        ACCESS:    6892826 HIT:    2836804 MISS:    4056022 MSHR_MERGE:     685895
cpu0->cpu0_L2C LOAD         ACCESS:    1861513 HIT:     215512 MISS:    1646001 MSHR_MERGE:      20236
cpu0->cpu0_L2C RFO          ACCESS:       4291 HIT:       4247 MISS:         44 MSHR_MERGE:          0
cpu0->cpu0_L2C PREFETCH     ACCESS:    3529805 HIT:    1255714 MISS:    2274091 MSHR_MERGE:     665659
cpu0->cpu0_L2C WRITE        ACCESS:    1341396 HIT:    1339631 MISS:       1765 MSHR_MERGE:          0
cpu0->cpu0_L2C TRANSLATION  ACCESS:     155821 HIT:      21700 MISS:     134121 MSHR_MERGE:          0
cpu0->cpu0_L2C PREFETCH REQUESTED:     687528 ISSUED:     631308 USEFUL:     122995 USELESS:      37618 LATE:       1056 TOO_EARLY:       2399
cpu0->cpu0_L2C AVERAGE MISS LATENCY: 310.6 cycles
cpu0->cpu0_L1I TOTAL        ACCESS:   13319329 HIT:   13319329 MISS:          0 MSHR_MERGE:          0
cpu0->cpu0_L1I LOAD         ACCESS:   13319329 HIT:   13319329 MISS:          0 MSHR_MERGE:          0
cpu0->cpu0_L1I RFO          ACCESS:          0 HIT:          0 MISS:          0 MSHR_MERGE:          0
cpu0->cpu0_L1I PREFETCH     ACCESS:          0 HIT:          0 MISS:          0 MSHR_MERGE:          0
cpu0->cpu0_L1I WRITE        ACCESS:          0 HIT:          0 MISS:          0 MSHR_MERGE:          0
cpu0->cpu0_L1I TRANSLATION  ACCESS:          0 HIT:          0 MISS:          0 MSHR_MERGE:          0
cpu0->cpu0_L1I PREFETCH REQUESTED:          0 ISSUED:          0 USEFUL:          0 USELESS:          0 LATE:          0 TOO_EARLY:          0
cpu0->cpu0_L1I AVERAGE MISS LATENCY: - cycles
cpu0->cpu0_L1D TOTAL        ACCESS:   37914760 HIT:   32216227 MISS:    5698533 MSHR_MERGE:     766346
cpu0->cpu0_L1D LOAD         ACCESS:   13893621 HIT:   11282427 MISS:    2611194 MSHR_MERGE:     749653
cpu0->cpu0_L1D RFO          ACCESS:          0 HIT:          0 MISS:          0 MSHR_MERGE:          0
cpu0->cpu0_L1D PREFETCH     ACCESS:    6224226 HIT:    3310625 MISS:    2913601 MSHR_MERGE:       3072
cpu0->cpu0_L1D WRITE        ACCESS:   17109965 HIT:   17094987 MISS:      14978 MSHR_MERGE:      10682
cpu0->cpu0_L1D TRANSLATION  ACCESS:     686948 HIT:     528188 MISS:     158760 MSHR_MERGE:       2939
cpu0->cpu0_L1D PREFETCH REQUESTED:   15072838 ISSUED:    6224218 USEFUL:    1225588 USELESS:      65850 LATE:      81083 TOO_EARLY:        663
cpu0->cpu0_L1D AVERAGE MISS LATENCY: 280 cycles
cpu0->cpu0_ITLB TOTAL        ACCESS:   10691398 HIT:   10691398 MISS:          0 MSHR_MERGE:          0
cpu0->cpu0_ITLB LOAD         ACCESS:   10691398 HIT:   10691398 MISS:          0 MSHR_MERGE:          0
cpu0->cpu0_ITLB RFO          ACCESS:          0 HIT:          0 MISS:          0 MSHR_MERGE:          0
cpu0->cpu0_ITLB PREFETCH     ACCESS:          0 HIT:          0 MISS:          0 MSHR_MERGE:          0
cpu0->cpu0_ITLB WRITE        ACCESS:          0 HIT:          0 MISS:          0 MSHR_MERGE:          0
cpu0->cpu0_ITLB TRANSLATION  ACCESS:          0 HIT:          0 MISS:          0 MSHR_MERGE:          0
cpu0->cpu0_ITLB PREFETCH REQUESTED:          0 ISSUED:          0 USEFUL:          0 USELESS:          0 LATE:          0 TOO_EARLY:          0
cpu0->cpu0_ITLB AVERAGE MISS LATENCY: - cycles
cpu0->cpu0_DTLB TOTAL        ACCESS:   33785150 HIT:   32515380 MISS:    1269770 MSHR_MERGE:     740183
cpu0->cpu0_DTLB LOAD         ACCESS:   33785150 HIT:   32515380 MISS:    1269770 MSHR_MERGE:     740183
cpu0->cpu0_DTLB RFO          ACCESS:          0 HIT:          0 MISS:          0 MSHR_MERGE:          0
cpu0->cpu0_DTLB PREFETCH     ACCESS:          0 HIT:          0 MISS:          0 MSHR_MERGE:          0
cpu0->cpu0_DTLB WRITE        ACCESS:          0 HIT:          0 MISS:          0 MSHR_MERGE:          0
cpu0->cpu0_DTLB TRANSLATION  ACCESS:          0 HIT:          0 MISS:          0 MSHR_MERGE:          0
cpu0->cpu0_DTLB PREFETCH REQUESTED:          0 ISSUED:          0 USEFUL:          0 USELESS:          0 LATE:          0 TOO_EARLY:          0
cpu0->cpu0_DTLB AVERAGE MISS LATENCY: 149 cycles
cpu0->LLC TOTAL        ACCESS:    4646243 HIT:     972452 MISS:    3673791 MSHR_MERGE:      88102
cpu0->LLC LOAD         ACCESS:    1625765 HIT:      41751 MISS:    1584014 MSHR_MERGE:        117
cpu0->LLC RFO          ACCESS:         44 HIT:         15 MISS:         29 MSHR_MERGE:          0
cpu0->LLC PREFETCH     ACCESS:    1608385 HIT:     220632 MISS:    1387753 MSHR_MERGE:      87985
cpu0->LLC WRITE        ACCESS:    1277928 HIT:     697355 MISS:     580573 MSHR_MERGE:          0
cpu0->LLC TRANSLATION  ACCESS:     134121 HIT:      12699 MISS:     121422 MSHR_MERGE:          0
cpu0->LLC PREFETCH REQUESTED:          0 ISSUED:          0 USEFUL:          0 USELESS:          0 LATE:          0 TOO_EARLY:          0
cpu0->LLC AVERAGE MISS LATENCY: 229.9 cycles

DRAM Statistics

Channel 0 RQ ROW_BUFFER_HIT:      90350
  ROW_BUFFER_MISS:    2914666
  AVG DBUS CONGESTED CYCLE: 6.019
Channel 0 WQ ROW_BUFFER_HIT:     216293
  ROW_BUFFER_MISS:    1023441
  FULL:          0
Channel 0 REFRESHES ISSUED:      10740

[ROI Statistics]
[System Configuration]
num_cpus 1
cpu_freq 4000
fetch_width 6
decode_width 6
dispatch_width 6
execute_width 6
lq_width 2
sq_width 2
retire_width 6
scheduler_size 128
branch_mispredict_penalty 15
rob_size 352
lq_size 128
sq_size 72
ifetch_buffer_size 64
decode_buffer_size 32
dispatch_buffer_size 32
register_file_size 288
decode_latency 1
dispatch_latency 1
schedule_latency 1
execute_latency 1
page_size 4096
block_size 64
core_0_itlb_set 16
core_0_itlb_way 4
core_0_itlb_rq_size 16
core_0_itlb_wq_size 16
core_0_itlb_pq_size 0
core_0_itlb_mshr_size 8
core_0_itlb_hit_latency 1
core_0_itlb_fill_latency 1
core_0_itlb_max_tag_check 2
core_0_itlb_max_fill 2
core_0_dtlb_set 16
core_0_dtlb_way 4
core_0_dtlb_rq_size 16
core_0_dtlb_wq_size 16
core_0_dtlb_pq_size 0
core_0_dtlb_mshr_size 8
core_0_dtlb_hit_latency 1
core_0_dtlb_fill_latency 1
core_0_dtlb_max_tag_check 2
core_0_dtlb_max_fill 2
core_0_stlb_set 128
core_0_stlb_way 12
core_0_stlb_rq_size 32
core_0_stlb_wq_size 32
core_0_stlb_pq_size 0
core_0_stlb_mshr_size 16
core_0_stlb_hit_latency 4
core_0_stlb_fill_latency 4
core_0_stlb_max_tag_check 1
core_0_stlb_max_fill 1
core_0_l1i_set 64
core_0_l1i_way 8
core_0_l1i_rq_size 64
core_0_l1i_wq_size 64
core_0_l1i_pq_size 32
core_0_l1i_mshr_size 8
core_0_l1i_hit_latency 2
core_0_l1i_fill_latency 2
core_0_l1i_max_tag_check 2
core_0_l1i_max_fill 2
core_0_l1d_set 64
core_0_l1d_way 12
core_0_l1d_rq_size 64
core_0_l1d_wq_size 64
core_0_l1d_pq_size 8
core_0_l1d_mshr_size 16
core_0_l1d_hit_latency 2
core_0_l1d_fill_latency 3
core_0_l1d_max_tag_check 2
core_0_l1d_max_fill 2
core_0_l2c_set 1024
core_0_l2c_way 8
core_0_l2c_rq_size 32
core_0_l2c_wq_size 32
core_0_l2c_pq_size 16
core_0_l2c_mshr_size 32
core_0_l2c_hit_latency 5
core_0_l2c_fill_latency 5
core_0_l2c_max_tag_check 1
core_0_l2c_max_fill 1
llc_set 2048
llc_way 16
llc_rq_size 32
llc_wq_size 32
llc_pq_size 32
llc_mshr_size 64
llc_hit_latency 10
llc_fill_latency 10
llc_max_tag_check 1
llc_max_fill 1
dram_channels 1
dram_ranks 1
dram_bankgroups 8
dram_banks 4
dram_rows 65536
dram_columns 1024
dram_channel_width 8
dram_rq_size 64
dram_wq_size 64
dram_size 17179869184
core_0_itlb_prefetcher no
core_0_dtlb_prefetcher no
core_0_stlb_prefetcher no
core_0_l1i_prefetcher next_line
core_0_l1d_prefetcher vberti
core_0_l2c_prefetcher ip_stride
llc_prefetcher no
llc_replacement drrip

Core_0_instructions 100000002
Core_0_cycles 128888538
Core_0_IPC 0.775864
Core_0_branch_prediction_accuracy 98.2042
Core_0_branch_MPKI 1.63038
Core_0_average_ROB_occupancy_at_mispredict 116.482

Core_0_ITLB_total_access 10691398
Core_0_ITLB_total_hit 10691398
Core_0_ITLB_total_miss 0
Core_0_ITLB_total_MPKI 0
Core_0_ITLB_total_miss_rate 0
Core_0_ITLB_demand_access 10691398
Core_0_ITLB_demand_hit 10691398
Core_0_ITLB_demand_miss 0
Core_0_ITLB_demand_MPKI 0
Core_0_ITLB_demand_miss_rate 0
Core_0_ITLB_load_access 10691398
Core_0_ITLB_load_hit 10691398
Core_0_ITLB_load_miss 0
Core_0_ITLB_load_MPKI 0
Core_0_ITLB_load_miss_rate 0
Core_0_ITLB_rfo_access 0
Core_0_ITLB_rfo_hit 0
Core_0_ITLB_rfo_miss 0
Core_0_ITLB_rfo_MPKI 0
Core_0_ITLB_rfo_miss_rate 0
Core_0_ITLB_prefetch_access 0
Core_0_ITLB_prefetch_hit 0
Core_0_ITLB_prefetch_miss 0
Core_0_ITLB_prefetch_MPKI 0
Core_0_ITLB_prefetch_miss_rate 0
Core_0_ITLB_writeback_access 0
Core_0_ITLB_writeback_hit 0
Core_0_ITLB_writeback_miss 0
Core_0_ITLB_writeback_MPKI 0
Core_0_ITLB_writeback_miss_rate 0
Core_0_ITLB_prefetch_requested 0
Core_0_ITLB_prefetch_issued 0
Core_0_ITLB_prefetch_useful 0
Core_0_ITLB_prefetch_useless 0
Core_0_ITLB_prefetch_late 0
Core_0_ITLB_prefetch_fill 0
Core_0_ITLB_prefetch_too_early 0
Core_0_ITLB_prefetch_too_early_among_fill 0
Core_0_ITLB_prefetch_too_early_among_useless 0
Core_0_ITLB_prefetch_pollution_evict 0
Core_0_ITLB_prefetch_pollution_demand 0
Core_0_ITLB_prefetch_pollution_among_prefetch_fill 0
Core_0_ITLB_prefetch_accuracy 0
Core_0_ITLB_prefetch_coverage 0

Core_0_DTLB_total_access 33785150
Core_0_DTLB_total_hit 32515380
Core_0_DTLB_total_miss 1269770
Core_0_DTLB_total_MPKI 12.6977
Core_0_DTLB_total_miss_rate 0.0375837
Core_0_DTLB_demand_access 33785150
Core_0_DTLB_demand_hit 32515380
Core_0_DTLB_demand_miss 1269770
Core_0_DTLB_demand_MPKI 12.6977
Core_0_DTLB_demand_miss_rate 0.0375837
Core_0_DTLB_load_access 33785150
Core_0_DTLB_load_hit 32515380
Core_0_DTLB_load_miss 1269770
Core_0_DTLB_load_MPKI 12.6977
Core_0_DTLB_load_miss_rate 0.0375837
Core_0_DTLB_rfo_access 0
Core_0_DTLB_rfo_hit 0
Core_0_DTLB_rfo_miss 0
Core_0_DTLB_rfo_MPKI 0
Core_0_DTLB_rfo_miss_rate 0
Core_0_DTLB_prefetch_access 0
Core_0_DTLB_prefetch_hit 0
Core_0_DTLB_prefetch_miss 0
Core_0_DTLB_prefetch_MPKI 0
Core_0_DTLB_prefetch_miss_rate 0
Core_0_DTLB_writeback_access 0
Core_0_DTLB_writeback_hit 0
Core_0_DTLB_writeback_miss 0
Core_0_DTLB_writeback_MPKI 0
Core_0_DTLB_writeback_miss_rate 0
Core_0_DTLB_prefetch_requested 0
Core_0_DTLB_prefetch_issued 0
Core_0_DTLB_prefetch_useful 0
Core_0_DTLB_prefetch_useless 0
Core_0_DTLB_prefetch_late 0
Core_0_DTLB_prefetch_fill 0
Core_0_DTLB_prefetch_too_early 0
Core_0_DTLB_prefetch_too_early_among_fill 0
Core_0_DTLB_prefetch_too_early_among_useless 0
Core_0_DTLB_prefetch_pollution_evict 0
Core_0_DTLB_prefetch_pollution_demand 0
Core_0_DTLB_prefetch_pollution_among_prefetch_fill 0
Core_0_DTLB_prefetch_accuracy 0
Core_0_DTLB_prefetch_coverage 0

Core_0_STLB_total_access 529587
Core_0_STLB_total_hit 189898
Core_0_STLB_total_miss 339689
Core_0_STLB_total_MPKI 3.39689
Core_0_STLB_total_miss_rate 0.641422
Core_0_STLB_demand_access 529587
Core_0_STLB_demand_hit 189898
Core_0_STLB_demand_miss 339689
Core_0_STLB_demand_MPKI 3.39689
Core_0_STLB_demand_miss_rate 0.641422
Core_0_STLB_load_access 529587
Core_0_STLB_load_hit 189898
Core_0_STLB_load_miss 339689
Core_0_STLB_load_MPKI 3.39689
Core_0_STLB_load_miss_rate 0.641422
Core_0_STLB_rfo_access 0
Core_0_STLB_rfo_hit 0
Core_0_STLB_rfo_miss 0
Core_0_STLB_rfo_MPKI 0
Core_0_STLB_rfo_miss_rate 0
Core_0_STLB_prefetch_access 0
Core_0_STLB_prefetch_hit 0
Core_0_STLB_prefetch_miss 0
Core_0_STLB_prefetch_MPKI 0
Core_0_STLB_prefetch_miss_rate 0
Core_0_STLB_writeback_access 0
Core_0_STLB_writeback_hit 0
Core_0_STLB_writeback_miss 0
Core_0_STLB_writeback_MPKI 0
Core_0_STLB_writeback_miss_rate 0
Core_0_STLB_prefetch_requested 0
Core_0_STLB_prefetch_issued 0
Core_0_STLB_prefetch_useful 0
Core_0_STLB_prefetch_useless 0
Core_0_STLB_prefetch_late 0
Core_0_STLB_prefetch_fill 0
Core_0_STLB_prefetch_too_early 0
Core_0_STLB_prefetch_too_early_among_fill 0
Core_0_STLB_prefetch_too_early_among_useless 0
Core_0_STLB_prefetch_pollution_evict 0
Core_0_STLB_prefetch_pollution_demand 0
Core_0_STLB_prefetch_pollution_among_prefetch_fill 0
Core_0_STLB_prefetch_accuracy 0
Core_0_STLB_prefetch_coverage 0

Core_0_L1I_total_access 13319329
Core_0_L1I_total_hit 13319329
Core_0_L1I_total_miss 0
Core_0_L1I_total_MPKI 0
Core_0_L1I_total_miss_rate 0
Core_0_L1I_demand_access 13319329
Core_0_L1I_demand_hit 13319329
Core_0_L1I_demand_miss 0
Core_0_L1I_demand_MPKI 0
Core_0_L1I_demand_miss_rate 0
Core_0_L1I_load_access 13319329
Core_0_L1I_load_hit 13319329
Core_0_L1I_load_miss 0
Core_0_L1I_load_MPKI 0
Core_0_L1I_load_miss_rate 0
Core_0_L1I_rfo_access 0
Core_0_L1I_rfo_hit 0
Core_0_L1I_rfo_miss 0
Core_0_L1I_rfo_MPKI 0
Core_0_L1I_rfo_miss_rate 0
Core_0_L1I_prefetch_access 0
Core_0_L1I_prefetch_hit 0
Core_0_L1I_prefetch_miss 0
Core_0_L1I_prefetch_MPKI 0
Core_0_L1I_prefetch_miss_rate 0
Core_0_L1I_writeback_access 0
Core_0_L1I_writeback_hit 0
Core_0_L1I_writeback_miss 0
Core_0_L1I_writeback_MPKI 0
Core_0_L1I_writeback_miss_rate 0
Core_0_L1I_prefetch_requested 0
Core_0_L1I_prefetch_issued 0
Core_0_L1I_prefetch_useful 0
Core_0_L1I_prefetch_useless 0
Core_0_L1I_prefetch_late 0
Core_0_L1I_prefetch_fill 0
Core_0_L1I_prefetch_too_early 0
Core_0_L1I_prefetch_too_early_among_fill 0
Core_0_L1I_prefetch_too_early_among_useless 0
Core_0_L1I_prefetch_pollution_evict 0
Core_0_L1I_prefetch_pollution_demand 0
Core_0_L1I_prefetch_pollution_among_prefetch_fill 0
Core_0_L1I_prefetch_accuracy 0
Core_0_L1I_prefetch_coverage 0

Core_0_L1D_total_access 37227812
Core_0_L1D_total_hit 31688039
Core_0_L1D_total_miss 5539773
Core_0_L1D_total_MPKI 55.3977
Core_0_L1D_total_miss_rate 0.148807
Core_0_L1D_demand_access 13893621
Core_0_L1D_demand_hit 11282427
Core_0_L1D_demand_miss 2611194
Core_0_L1D_demand_MPKI 26.1119
Core_0_L1D_demand_miss_rate 0.187942
Core_0_L1D_load_access 13893621
Core_0_L1D_load_hit 11282427
Core_0_L1D_load_miss 2611194
Core_0_L1D_load_MPKI 26.1119
Core_0_L1D_load_miss_rate 0.187942
Core_0_L1D_rfo_access 0
Core_0_L1D_rfo_hit 0
Core_0_L1D_rfo_miss 0
Core_0_L1D_rfo_MPKI 0
Core_0_L1D_rfo_miss_rate 0
Core_0_L1D_prefetch_access 6224226
Core_0_L1D_prefetch_hit 3310625
Core_0_L1D_prefetch_miss 2913601
Core_0_L1D_prefetch_MPKI 29.136
Core_0_L1D_prefetch_miss_rate 0.468107
Core_0_L1D_writeback_access 17109965
Core_0_L1D_writeback_hit 17094987
Core_0_L1D_writeback_miss 14978
Core_0_L1D_writeback_MPKI 0.14978
Core_0_L1D_writeback_miss_rate 0.000875396
Core_0_L1D_prefetch_requested 15072838
Core_0_L1D_prefetch_issued 6224218
Core_0_L1D_prefetch_useful 1225588
Core_0_L1D_prefetch_useless 65850
Core_0_L1D_prefetch_late 81083
Core_0_L1D_prefetch_fill 1210425
Core_0_L1D_prefetch_too_early 663
Core_0_L1D_prefetch_too_early_among_fill 0.000547741
Core_0_L1D_prefetch_too_early_among_useless 0.0100683
Core_0_L1D_prefetch_pollution_evict 17942
Core_0_L1D_prefetch_pollution_demand 17885
Core_0_L1D_prefetch_pollution_among_prefetch_fill 0.0148229
Core_0_L1D_prefetch_accuracy 0.196906
Core_0_L1D_prefetch_coverage 0.319431

Core_0_L2C_total_access 6737005
Core_0_L2C_total_hit 2815104
Core_0_L2C_total_miss 3921901
Core_0_L2C_total_MPKI 39.219
Core_0_L2C_total_miss_rate 0.582143
Core_0_L2C_demand_access 1865804
Core_0_L2C_demand_hit 219759
Core_0_L2C_demand_miss 1646045
Core_0_L2C_demand_MPKI 16.4604
Core_0_L2C_demand_miss_rate 0.882218
Core_0_L2C_load_access 1861513
Core_0_L2C_load_hit 215512
Core_0_L2C_load_miss 1646001
Core_0_L2C_load_MPKI 16.46
Core_0_L2C_load_miss_rate 0.884228
Core_0_L2C_rfo_access 4291
Core_0_L2C_rfo_hit 4247
Core_0_L2C_rfo_miss 44
Core_0_L2C_rfo_MPKI 0.00044
Core_0_L2C_rfo_miss_rate 0.010254
Core_0_L2C_prefetch_access 3529805
Core_0_L2C_prefetch_hit 1255714
Core_0_L2C_prefetch_miss 2274091
Core_0_L2C_prefetch_MPKI 22.7409
Core_0_L2C_prefetch_miss_rate 0.644254
Core_0_L2C_writeback_access 1341396
Core_0_L2C_writeback_hit 1339631
Core_0_L2C_writeback_miss 1765
Core_0_L2C_writeback_MPKI 0.01765
Core_0_L2C_writeback_miss_rate 0.00131579
Core_0_L2C_prefetch_requested 687528
Core_0_L2C_prefetch_issued 631308
Core_0_L2C_prefetch_useful 122995
Core_0_L2C_prefetch_useless 37618
Core_0_L2C_prefetch_late 1056
Core_0_L2C_prefetch_fill 1421729
Core_0_L2C_prefetch_too_early 2399
Core_0_L2C_prefetch_too_early_among_fill 0.00168738
Core_0_L2C_prefetch_too_early_among_useless 0.0637727
Core_0_L2C_prefetch_pollution_evict 9377
Core_0_L2C_prefetch_pollution_demand 9377
Core_0_L2C_prefetch_pollution_among_prefetch_fill 0.00659549
Core_0_L2C_prefetch_accuracy 0.194826
Core_0_L2C_prefetch_coverage 0.0695264

Core_0_LLC_total_access 4512122
Core_0_LLC_total_hit 959753
Core_0_LLC_total_miss 3552369
Core_0_LLC_total_MPKI 35.5237
Core_0_LLC_total_miss_rate 0.787295
Core_0_LLC_demand_access 1625809
Core_0_LLC_demand_hit 41766
Core_0_LLC_demand_miss 1584043
Core_0_LLC_demand_MPKI 15.8404
Core_0_LLC_demand_miss_rate 0.974311
Core_0_LLC_load_access 1625765
Core_0_LLC_load_hit 41751
Core_0_LLC_load_miss 1584014
Core_0_LLC_load_MPKI 15.8401
Core_0_LLC_load_miss_rate 0.974319
Core_0_LLC_rfo_access 44
Core_0_LLC_rfo_hit 15
Core_0_LLC_rfo_miss 29
Core_0_LLC_rfo_MPKI 0.00029
Core_0_LLC_rfo_miss_rate 0.659091
Core_0_LLC_prefetch_access 1608385
Core_0_LLC_prefetch_hit 220632
Core_0_LLC_prefetch_miss 1387753
Core_0_LLC_prefetch_MPKI 13.8775
Core_0_LLC_prefetch_miss_rate 0.862824
Core_0_LLC_writeback_access 1277928
Core_0_LLC_writeback_hit 697355
Core_0_LLC_writeback_miss 580573
Core_0_LLC_writeback_MPKI 5.80573
Core_0_LLC_writeback_miss_rate 0.454308
Core_0_LLC_prefetch_requested 0
Core_0_LLC_prefetch_issued 0
Core_0_LLC_prefetch_useful 0
Core_0_LLC_prefetch_useless 0
Core_0_LLC_prefetch_late 0
Core_0_LLC_prefetch_fill 1299651
Core_0_LLC_prefetch_too_early 0
Core_0_LLC_prefetch_too_early_among_fill 0
Core_0_LLC_prefetch_too_early_among_useless 0
Core_0_LLC_prefetch_pollution_evict 14272
Core_0_LLC_prefetch_pollution_demand 14272
Core_0_LLC_prefetch_pollution_among_prefetch_fill 0.0109814
Core_0_LLC_prefetch_accuracy 0
Core_0_LLC_prefetch_coverage 0

[DRAM Statistics]
Channel_0_RQ_row_buffer_hit 90350
Channel_0_RQ_row_buffer_miss 2914666
Channel_0_WQ_row_buffer_hit 216293
Channel_0_WQ_row_buffer_miss 1023441
Channel_0_WQ_full 0
Channel_0_dbus_congested 12381698
DRAM_total_RQ_row_buffer_hit 90350
DRAM_total_RQ_row_buffer_miss 2914666
DRAM_total_WQ_row_buffer_hit 216293
DRAM_total_WQ_row_buffer_miss 1023441
DRAM_total_WQ_full 0
DRAM_total_dbus_congested 12381698
DRAM_avg_congested_cycle 6.01925

====== DRAM_RQ_TRAFFIC ========
DRAM_RQ_READ_TRAFFIC_BREAKDOWN:
data_demand_read.count = 1583926
data_demand_read.share = 52.71%

inst_demand_read.count = 0
inst_demand_read.share = 0.00%

cache_inst_prefetch.count = 0
cache_inst_prefetch.share = 0.00%

cache_data_prefetch.count = 1299768
cache_data_prefetch.share = 43.25%

stlb_data_demand.count = 117743
stlb_data_demand.share = 3.92%

stlb_inst_demand.count = 0
stlb_inst_demand.share = 0.00%

stlb_l1i_pref.count = 0
stlb_l1i_pref.share = 0.00%

stlb_l1d_pref.count = 3679
stlb_l1d_pref.share = 0.12%

DRAM_RQ_READ_TRAFFIC_SUMMARY:
cache_demand.count = 1583926
cache_demand.share = 52.71%

cache_prefetch.count = 1299768
cache_prefetch.share = 43.25%

stlb_demand.count = 117743
stlb_demand.share = 3.92%

stlb_prefetch.count = 3679
stlb_prefetch.share = 0.12%

DRAM_RQ_READ_TRAFFIC_DEBUG:
total_classified_read.count = 3005116
unclassified_read.count = 0
total_read_with_other.count = 3005116

classified_plus_unclassified_check.count = 3005116
dram_rq_read_total_observed.count = 3005116
dram_rq_read_total_observed.per_1K_instructions = 30.0512

STLB_MISS_PTW_DRAM_TOUCH_BREAKDOWN:
stlb_miss_total.count = 336414

stlb_miss_touch_dram.count = 120330
stlb_miss_touch_dram.share = 35.77%

stlb_miss_no_dram_touch.count = 216084
stlb_miss_no_dram_touch.share = 64.23%

STLB_MISS_PTW_DRAM_TOUCH_DEBUG:
stlb_miss_touch_plus_no_touch.count = 336414
stlb_miss_total_check.count = 336414

======STLB miss causes ========
Core_0_STLB_miss_cause_breakdown
Core_0_STLB_cause_Demand_Data_miss 296182
Core_0_STLB_cause_Demand_Data_miss_rate 0.55927
Core_0_STLB_cause_Demand_Instruction_miss 0
Core_0_STLB_cause_Demand_Instruction_miss_rate 0
Core_0_STLB_cause_L1D_Prefetch_miss 43507
Core_0_STLB_cause_L1D_Prefetch_miss_rate 0.0821527
Core_0_STLB_cause_L1D_Prefetch_Same_Page_miss 1
Core_0_STLB_cause_L1D_Prefetch_Same_Page_miss_rate 1.88826e-06
Core_0_STLB_cause_L1D_Prefetch_Cross_Page_miss 43506
Core_0_STLB_cause_L1D_Prefetch_Cross_Page_miss_rate 0.0821508
Core_0_STLB_cause_L1I_Prefetch_miss 0
Core_0_STLB_cause_L1I_Prefetch_miss_rate 0
Core_0_STLB_cause_Other_miss 0
Core_0_STLB_cause_Other_miss_rate 0
Core_0_STLB_Demand_miss 296182
Core_0_STLB_Demand_miss_rate 0.55927
Core_0_STLB_L1D_Prefetch_miss 43507
Core_0_STLB_L1D_Prefetch_miss_rate 0.0821527
Core_0_STLB_Other_miss 0
Core_0_STLB_Other_miss_rate 0

========== vBerti-TLB Cross-page Flow Stats ==========

Core_0_vBerti_Requested 15072838
Core_0_vBerti_Cross_page_prefetch_in_Requested 6897214
Core_0_vBerti_Same_page_prefetch_in_Requested 8175624
Core_0_vBerti_Cross_page_prefetch_of_Requested 0.457592
Core_0_vBerti_Issued 6224218
Core_0_vBerti_InPQ_Same_page_prefetch 4061474
Core_0_vBerti_InPQ_Cross_page_prefetch 2162744
Core_0_vBerti_PQ_Drop_Rate 0.587057
Core_0_vBerti_InPQ_Cross_page_prefetch_of_Requested 0.143486
Core_0_vBerti_Cross_page_PQ_Drop_rate 0.686432
Core_0_vBerti_Cross_page_prefetch_of_Issued 0.347472
Core_0_CP_PF_PQFULL_drop 4734470
Core_0_CP_PF_PQFULL_TLB_rescue_enqueued 3359002
Core_0_CP_PF_PQFULL_TLB_rescue_issued 3359002
Core_0_CP_PF_PQFULL_TLB_rescue_translated 3359002

========= DTLB_vBerti Prefetch Stats =========
Core_0_DTLB_demand_access 27874907
Core_0_DTLB_demand_hit 26704627
Core_0_DTLB_demand_miss 1170280
Core_0_DTLB_demand_mshr_merge 684942
Core_0_DTLB_demand_fill 485673
Core_0_DTLB_demand_miss_rate 0.0419833
Core_0_DTLB_demand_mpki 11.7028
Core_0_DTLB_vberti_prefetch_access 5910243
Core_0_DTLB_vberti_prefetch_hit 5810753
Core_0_DTLB_vberti_prefetch_miss 99490
Core_0_DTLB_vberti_prefetch_mshr_merge 55241
Core_0_DTLB_vberti_prefetch_fill 43914
Core_0_DTLB_vberti_prefetch_miss_rate 0.0168335
Core_0_DTLB_vberti_prefetch_mpki 0.9949

=== DTLB_vBerti Same/Cross-page Prefetch Stats ===
Core_0_DTLB_vberti_same_page_prefetch 2685480
Core_0_DTLB_vberti_same_page_prefetch_hit 2685128
Core_0_DTLB_vberti_same_page_prefetch_miss 352
Core_0_DTLB_vberti_same_page_prefetch_mshr_merge 115
Core_0_DTLB_vberti_same_page_prefetch_fill 172
Core_0_DTLB_vberti_same_page_prefetch_miss_rate 0.000131075
Core_0_DTLB_vberti_same_page_prefetch_mpki 0.00352
Core_0_DTLB_vberti_cross_page_prefetch 3224763
Core_0_DTLB_vberti_cross_page_prefetch_hit 3125625
Core_0_DTLB_vberti_cross_page_prefetch_miss 99138
Core_0_DTLB_vberti_cross_page_prefetch_mshr_merge 55126
Core_0_DTLB_vberti_cross_page_prefetch_fill 43742
Core_0_DTLB_vberti_cross_page_prefetch_miss_rate 0.0307427
Core_0_DTLB_vberti_cross_page_prefetch_mpki 0.99138
Core_0_DTLB_same_page_prefetch_miss_rate 0.000131075
Core_0_DTLB_same_page_prefetch_mpki 0.00352
Core_0_DTLB_cross_page_prefetch_miss_rate 0.0307427
Core_0_DTLB_cross_page_prefetch_mpki 0.99138
Core_0_DTLB_cross_page_prefetch_issued 3224763
Core_0_DTLB_cross_page_prefetch_lookups 3224763
Core_0_DTLB_cross_page_prefetch_useful 28796
Core_0_DTLB_cross_page_prefetch_useless 15216
Core_0_DTLB_cross_page_prefetch_late 270
Core_0_DTLB_cross_page_prefetch_too_early 393
Core_0_DTLB_cross_page_prefetch_too_early_among_fill 0.0089845
Core_0_DTLB_cross_page_prefetch_too_early_among_useless 0.0258281
Core_0_DTLB_cross_page_prefetch_pollution_evict 15589
Core_0_DTLB_cross_page_prefetch_pollution_demand 15551
Core_0_DTLB_cross_page_prefetch_pollution_among_prefetch_fill 0.356385
Core_0_DTLB_cross_page_prefetch_accuracy 0.00892965
Core_0_DTLB_cross_page_prefetch_coverage 0.0240152

========= STLB_vBerti Prefetch Stats =========
Core_0_STLB_demand_access 485338
Core_0_STLB_demand_hit 189156
Core_0_STLB_demand_miss 296182
Core_0_STLB_demand_mshr_merge 0
Core_0_STLB_demand_fill 296182
Core_0_STLB_demand_miss_rate 0.610259
Core_0_STLB_demand_mpki 2.96182
Core_0_STLB_vberti_prefetch_access 44249
Core_0_STLB_vberti_prefetch_hit 742
Core_0_STLB_vberti_prefetch_miss 43507
Core_0_STLB_vberti_prefetch_mshr_merge 0
Core_0_STLB_vberti_prefetch_fill 1
Core_0_STLB_vberti_prefetch_miss_rate 0.983231
Core_0_STLB_vberti_prefetch_mpki 0.43507

=== STLB_vBerti Same/Cross-page Prefetch Stats ===
Core_0_STLB_vberti_same_page_prefetch 237
Core_0_STLB_vberti_same_page_prefetch_hit 236
Core_0_STLB_vberti_same_page_prefetch_miss 1
Core_0_STLB_vberti_same_page_prefetch_mshr_merge 0
Core_0_STLB_vberti_same_page_prefetch_fill 1
Core_0_STLB_vberti_same_page_prefetch_miss_rate 0.00421941
Core_0_STLB_vberti_same_page_prefetch_mpki 1e-05
Core_0_STLB_vberti_cross_page_prefetch 44012
Core_0_STLB_vberti_cross_page_prefetch_hit 506
Core_0_STLB_vberti_cross_page_prefetch_miss 43506
Core_0_STLB_vberti_cross_page_prefetch_mshr_merge 0
Core_0_STLB_vberti_cross_page_prefetch_fill 0
Core_0_STLB_vberti_cross_page_prefetch_miss_rate 0.988503
Core_0_STLB_vberti_cross_page_prefetch_mpki 0.43506
Core_0_STLB_same_page_prefetch_miss_rate 0.00421941
Core_0_STLB_same_page_prefetch_mpki 1e-05
Core_0_STLB_cross_page_prefetch_miss_rate 0.988503
Core_0_STLB_cross_page_prefetch_mpki 0.43506
Core_0_STLB_cross_page_prefetch_issued 44012
Core_0_STLB_cross_page_prefetch_lookups 44012
Core_0_STLB_cross_page_prefetch_useful 3275
Core_0_STLB_cross_page_prefetch_useless 12598
Core_0_STLB_cross_page_prefetch_late 3275
Core_0_STLB_cross_page_prefetch_too_early 0
Core_0_STLB_cross_page_prefetch_too_early_among_fill 0
Core_0_STLB_cross_page_prefetch_too_early_among_useless 0
Core_0_STLB_cross_page_prefetch_pollution_evict 0
Core_0_STLB_cross_page_prefetch_pollution_demand 0
Core_0_STLB_cross_page_prefetch_pollution_among_prefetch_fill 0
Core_0_STLB_cross_page_prefetch_accuracy 0.0744115
Core_0_STLB_cross_page_prefetch_coverage 0.0109365

========= STLB Cross-page Prefetch Buffer Stats =========
Core_0_STLB_raw_demand_miss 296182
Core_0_CP_PB_insert 43506
Core_0_CP_PB_demand_hit 3275
Core_0_STLB_PB_demand_miss 292907
Core_0_CP_PB_coverage 0.0110574
Core_0_STLB_raw_demand_mpki 2.96182
Core_0_STLB_PB_demand_mpki 2.92907
Core_0_CP_PB_demand_hit_mpki 0.03275

Core_0_TLB_demand_miss_rate 0.0106254
Core_0_TLB_demand_mpki 2.96182
Core_0_TLB_same_page_prefetch_miss_rate 3.72373e-07
Core_0_TLB_same_page_prefetch_mpki 1e-05
Core_0_TLB_cross_page_prefetch_miss_rate 0.0134912
Core_0_TLB_cross_page_prefetch_mpki 0.43506
Core_0_TLB_cross_page_prefetch_issued 3224763
Core_0_TLB_cross_page_prefetch_lookups 3224763
Core_0_TLB_cross_page_prefetch_useful 1137
Core_0_TLB_cross_page_prefetch_useless 1849
Core_0_TLB_cross_page_prefetch_late 16
Core_0_TLB_cross_page_prefetch_too_early 139
Core_0_TLB_cross_page_prefetch_too_early_among_fill 0.00317772
Core_0_TLB_cross_page_prefetch_too_early_among_useless 0.0751758
Core_0_TLB_cross_page_prefetch_accuracy 0.000352584
Core_0_TLB_cross_page_prefetch_coverage 0.00382418
BERTI TO_L1: 7438665 TO_L2: 10420961 TO_L2_BC_MSHR: 3851592
BERTI AVG_LAT: 179.949 NUM_TRACK_LATENCY: 4389981 NUM_CANT_TRACK_LATENCY: 129
BERTI CROSS_PAGE 7858778 NO_CROSS_PAGE: 10000848
BERTI FOUND_BERTI: 24699308 NO_FOUND_BERTI: 31584783
BERTI AVERAGE_ISSUED: 3.11532
