[VMEM] WARNING: physical memory size is smaller than virtual memory size.

*** ChampSim Multicore Out-of-Order Simulator ***
Warmup Instructions: 50000000
Simulation Instructions: 100000000
Number of CPUs: 1
Page size: 4096
Core 0: /data0/tzh/champsim_traces/SPEC06/429.mcf-192B.champsimtrace.xz
VBerti Prefetcher
BERTI HASH ENTANGLING
BERTI IP MASK ffff
Off-chip DRAM Size: 16 GiB Channels: 1 Width: 64-bit Data Rate: 3205 MT/s
Warmup halting CPU 0 at instruction 50000000 cycle 12244006 for remainder of phase
Warmup finished CPU 0 instructions: 50000000 cycles: 12244006 cumulative IPC: 4.084 (Simulation time: 00 hr 03 min 23 sec)
Warmup complete CPU 0 instructions: 50000000 cycles: 12244006 cumulative IPC: 4.084 (Simulation time: 00 hr 03 min 23 sec)
Simulation finished CPU 0 instructions: 100000000 cycles: 836421612 cumulative IPC: 0.1196 (Simulation time: 00 hr 58 min 14 sec)
Simulation complete CPU 0 instructions: 100000000 cycles: 836421612 cumulative IPC: 0.1196 (Simulation time: 00 hr 58 min 14 sec)

ChampSim completed all CPUs

=== Simulation ===
CPU 0 runs /data0/tzh/champsim_traces/SPEC06/429.mcf-192B.champsimtrace.xz

Region of Interest Statistics

CPU 0 cumulative IPC: 0.1196 instructions: 100000000 cycles: 836421612
CPU 0 Branch Prediction Accuracy: 91.95% MPKI: 19.36 Average ROB Occupancy at Mispredict: 32.42
Branch type MPKI
BRANCH_DIRECT_JUMP: 0.01287
BRANCH_INDIRECT: 0
BRANCH_CONDITIONAL: 19.35
BRANCH_DIRECT_CALL: 1e-05
BRANCH_INDIRECT_CALL: 0
BRANCH_RETURN: 1e-05

cpu0->cpu0_STLB TOTAL        ACCESS:   14594012 HIT:   14310496 MISS:     283516 MSHR_MERGE:          0
cpu0->cpu0_STLB LOAD         ACCESS:   14594012 HIT:   14310496 MISS:     283516 MSHR_MERGE:          0
cpu0->cpu0_STLB RFO          ACCESS:          0 HIT:          0 MISS:          0 MSHR_MERGE:          0
cpu0->cpu0_STLB PREFETCH     ACCESS:          0 HIT:          0 MISS:          0 MSHR_MERGE:          0
cpu0->cpu0_STLB WRITE        ACCESS:          0 HIT:          0 MISS:          0 MSHR_MERGE:          0
cpu0->cpu0_STLB TRANSLATION  ACCESS:          0 HIT:          0 MISS:          0 MSHR_MERGE:          0
cpu0->cpu0_STLB PREFETCH REQUESTED:          0 ISSUED:          0 USEFUL:          0 USELESS:          0 LATE:          0 TOO_EARLY:          0
cpu0->cpu0_STLB AVERAGE MISS LATENCY: 171.5 cycles
cpu0->cpu0_L2C TOTAL        ACCESS:   14792688 HIT:    4162146 MISS:   10630542 MSHR_MERGE:        663
cpu0->cpu0_L2C LOAD         ACCESS:   14330890 HIT:    3977516 MISS:   10353374 MSHR_MERGE:         14
cpu0->cpu0_L2C RFO          ACCESS:       6993 HIT:       1584 MISS:       5409 MSHR_MERGE:          0
cpu0->cpu0_L2C PREFETCH     ACCESS:      33997 HIT:       7401 MISS:      26596 MSHR_MERGE:        649
cpu0->cpu0_L2C WRITE        ACCESS:      74360 HIT:      74360 MISS:          0 MSHR_MERGE:          0
cpu0->cpu0_L2C TRANSLATION  ACCESS:     346448 HIT:     101285 MISS:     245163 MSHR_MERGE:          0
cpu0->cpu0_L2C PREFETCH REQUESTED:       2682 ISSUED:       2682 USEFUL:        724 USELESS:        902 LATE:          9 TOO_EARLY:        191
cpu0->cpu0_L2C AVERAGE MISS LATENCY: 131.4 cycles
cpu0->cpu0_L1I TOTAL        ACCESS:      73121 HIT:      73118 MISS:          3 MSHR_MERGE:          0
cpu0->cpu0_L1I LOAD         ACCESS:      73121 HIT:      73118 MISS:          3 MSHR_MERGE:          0
cpu0->cpu0_L1I RFO          ACCESS:          0 HIT:          0 MISS:          0 MSHR_MERGE:          0
cpu0->cpu0_L1I PREFETCH     ACCESS:          0 HIT:          0 MISS:          0 MSHR_MERGE:          0
cpu0->cpu0_L1I WRITE        ACCESS:          0 HIT:          0 MISS:          0 MSHR_MERGE:          0
cpu0->cpu0_L1I TRANSLATION  ACCESS:          0 HIT:          0 MISS:          0 MSHR_MERGE:          0
cpu0->cpu0_L1I PREFETCH REQUESTED:          0 ISSUED:          0 USEFUL:          0 USELESS:          0 LATE:          0 TOO_EARLY:          0
cpu0->cpu0_L1I AVERAGE MISS LATENCY: 184 cycles
cpu0->cpu0_L1D TOTAL        ACCESS:   25374230 HIT:    6830471 MISS:   18543759 MSHR_MERGE:    3828046
cpu0->cpu0_L1D LOAD         ACCESS:   24548003 HIT:    6391570 MISS:   18156433 MSHR_MERGE:    3825546
cpu0->cpu0_L1D RFO          ACCESS:          0 HIT:          0 MISS:          0 MSHR_MERGE:          0
cpu0->cpu0_L1D PREFETCH     ACCESS:      55471 HIT:      24015 MISS:      31456 MSHR_MERGE:         71
cpu0->cpu0_L1D WRITE        ACCESS:     108042 HIT:     100393 MISS:       7649 MSHR_MERGE:        656
cpu0->cpu0_L1D TRANSLATION  ACCESS:     662714 HIT:     314493 MISS:     348221 MSHR_MERGE:       1773
cpu0->cpu0_L1D PREFETCH REQUESTED:      56716 ISSUED:      55471 USEFUL:        521 USELESS:       5493 LATE:         30 TOO_EARLY:       5222
cpu0->cpu0_L1D AVERAGE MISS LATENCY: 103.6 cycles
cpu0->cpu0_ITLB TOTAL        ACCESS:      69906 HIT:      69905 MISS:          1 MSHR_MERGE:          0
cpu0->cpu0_ITLB LOAD         ACCESS:      69906 HIT:      69905 MISS:          1 MSHR_MERGE:          0
cpu0->cpu0_ITLB RFO          ACCESS:          0 HIT:          0 MISS:          0 MSHR_MERGE:          0
cpu0->cpu0_ITLB PREFETCH     ACCESS:          0 HIT:          0 MISS:          0 MSHR_MERGE:          0
cpu0->cpu0_ITLB WRITE        ACCESS:          0 HIT:          0 MISS:          0 MSHR_MERGE:          0
cpu0->cpu0_ITLB TRANSLATION  ACCESS:          0 HIT:          0 MISS:          0 MSHR_MERGE:          0
cpu0->cpu0_ITLB PREFETCH REQUESTED:          0 ISSUED:          0 USEFUL:          0 USELESS:          0 LATE:          0 TOO_EARLY:          0
cpu0->cpu0_ITLB AVERAGE MISS LATENCY: 394 cycles
cpu0->cpu0_DTLB TOTAL        ACCESS:   24689240 HIT:    6310266 MISS:   18378974 MSHR_MERGE:    3784963
cpu0->cpu0_DTLB LOAD         ACCESS:   24689240 HIT:    6310266 MISS:   18378974 MSHR_MERGE:    3784963
cpu0->cpu0_DTLB RFO          ACCESS:          0 HIT:          0 MISS:          0 MSHR_MERGE:          0
cpu0->cpu0_DTLB PREFETCH     ACCESS:          0 HIT:          0 MISS:          0 MSHR_MERGE:          0
cpu0->cpu0_DTLB WRITE        ACCESS:          0 HIT:          0 MISS:          0 MSHR_MERGE:          0
cpu0->cpu0_DTLB TRANSLATION  ACCESS:          0 HIT:          0 MISS:          0 MSHR_MERGE:          0
cpu0->cpu0_DTLB PREFETCH REQUESTED:          0 ISSUED:          0 USEFUL:          0 USELESS:          0 LATE:          0 TOO_EARLY:          0
cpu0->cpu0_DTLB AVERAGE MISS LATENCY: 8.344 cycles
cpu0->LLC TOTAL        ACCESS:   10700678 HIT:    4585143 MISS:    6115535 MSHR_MERGE:          1
cpu0->LLC LOAD         ACCESS:   10353360 HIT:    4380379 MISS:    5972981 MSHR_MERGE:          0
cpu0->LLC RFO          ACCESS:       5409 HIT:       2410 MISS:       2999 MSHR_MERGE:          0
cpu0->LLC PREFETCH     ACCESS:      25947 HIT:        590 MISS:      25357 MSHR_MERGE:          1
cpu0->LLC WRITE        ACCESS:      70799 HIT:      41594 MISS:      29205 MSHR_MERGE:          0
cpu0->LLC TRANSLATION  ACCESS:     245163 HIT:     160170 MISS:      84993 MSHR_MERGE:          0
cpu0->LLC PREFETCH REQUESTED:          0 ISSUED:          0 USEFUL:          0 USELESS:          0 LATE:          0 TOO_EARLY:          0
cpu0->LLC AVERAGE MISS LATENCY: 201.8 cycles

DRAM Statistics

Channel 0 RQ ROW_BUFFER_HIT:        932
  ROW_BUFFER_MISS:    6085383
  AVG DBUS CONGESTED CYCLE: 4.429
Channel 0 WQ ROW_BUFFER_HIT:      14728
  ROW_BUFFER_MISS:      41117
  FULL:          0
Channel 0 REFRESHES ISSUED:      69702

[ROI Statistics]
[System Configuration]
num_cpus 1
cpu_freq 4000
fetch_width 6
decode_width 6
dispatch_width 6
execute_width 6
lq_width 2
sq_width 2
retire_width 6
scheduler_size 128
branch_mispredict_penalty 15
rob_size 352
lq_size 128
sq_size 72
ifetch_buffer_size 64
decode_buffer_size 32
dispatch_buffer_size 32
register_file_size 288
decode_latency 1
dispatch_latency 1
schedule_latency 1
execute_latency 1
page_size 4096
block_size 64
core_0_itlb_set 16
core_0_itlb_way 4
core_0_itlb_rq_size 16
core_0_itlb_wq_size 16
core_0_itlb_pq_size 0
core_0_itlb_mshr_size 8
core_0_itlb_hit_latency 1
core_0_itlb_fill_latency 1
core_0_itlb_max_tag_check 2
core_0_itlb_max_fill 2
core_0_dtlb_set 16
core_0_dtlb_way 4
core_0_dtlb_rq_size 16
core_0_dtlb_wq_size 16
core_0_dtlb_pq_size 0
core_0_dtlb_mshr_size 8
core_0_dtlb_hit_latency 1
core_0_dtlb_fill_latency 1
core_0_dtlb_max_tag_check 2
core_0_dtlb_max_fill 2
core_0_stlb_set 128
core_0_stlb_way 12
core_0_stlb_rq_size 32
core_0_stlb_wq_size 32
core_0_stlb_pq_size 0
core_0_stlb_mshr_size 16
core_0_stlb_hit_latency 4
core_0_stlb_fill_latency 4
core_0_stlb_max_tag_check 1
core_0_stlb_max_fill 1
core_0_l1i_set 64
core_0_l1i_way 8
core_0_l1i_rq_size 64
core_0_l1i_wq_size 64
core_0_l1i_pq_size 32
core_0_l1i_mshr_size 8
core_0_l1i_hit_latency 2
core_0_l1i_fill_latency 2
core_0_l1i_max_tag_check 2
core_0_l1i_max_fill 2
core_0_l1d_set 64
core_0_l1d_way 12
core_0_l1d_rq_size 64
core_0_l1d_wq_size 64
core_0_l1d_pq_size 8
core_0_l1d_mshr_size 16
core_0_l1d_hit_latency 2
core_0_l1d_fill_latency 3
core_0_l1d_max_tag_check 2
core_0_l1d_max_fill 2
core_0_l2c_set 1024
core_0_l2c_way 8
core_0_l2c_rq_size 32
core_0_l2c_wq_size 32
core_0_l2c_pq_size 16
core_0_l2c_mshr_size 32
core_0_l2c_hit_latency 5
core_0_l2c_fill_latency 5
core_0_l2c_max_tag_check 1
core_0_l2c_max_fill 1
llc_set 2048
llc_way 16
llc_rq_size 32
llc_wq_size 32
llc_pq_size 32
llc_mshr_size 64
llc_hit_latency 10
llc_fill_latency 10
llc_max_tag_check 1
llc_max_fill 1
dram_channels 1
dram_ranks 1
dram_bankgroups 8
dram_banks 4
dram_rows 65536
dram_columns 1024
dram_channel_width 8
dram_rq_size 64
dram_wq_size 64
dram_size 17179869184
core_0_itlb_prefetcher no
core_0_dtlb_prefetcher no
core_0_stlb_prefetcher no
core_0_l1i_prefetcher next_line
core_0_l1d_prefetcher vberti
core_0_l2c_prefetcher ip_stride
llc_prefetcher no
llc_replacement drrip

Core_0_instructions 100000000
Core_0_cycles 836421612
Core_0_IPC 0.119557
Core_0_branch_prediction_accuracy 91.9511
Core_0_branch_MPKI 19.3626
Core_0_average_ROB_occupancy_at_mispredict 32.4165

Core_0_ITLB_total_access 69906
Core_0_ITLB_total_hit 69905
Core_0_ITLB_total_miss 1
Core_0_ITLB_total_MPKI 1e-05
Core_0_ITLB_total_miss_rate 1.43049e-05
Core_0_ITLB_demand_access 69906
Core_0_ITLB_demand_hit 69905
Core_0_ITLB_demand_miss 1
Core_0_ITLB_demand_MPKI 1e-05
Core_0_ITLB_demand_miss_rate 1.43049e-05
Core_0_ITLB_load_access 69906
Core_0_ITLB_load_hit 69905
Core_0_ITLB_load_miss 1
Core_0_ITLB_load_MPKI 1e-05
Core_0_ITLB_load_miss_rate 1.43049e-05
Core_0_ITLB_rfo_access 0
Core_0_ITLB_rfo_hit 0
Core_0_ITLB_rfo_miss 0
Core_0_ITLB_rfo_MPKI 0
Core_0_ITLB_rfo_miss_rate 0
Core_0_ITLB_prefetch_access 0
Core_0_ITLB_prefetch_hit 0
Core_0_ITLB_prefetch_miss 0
Core_0_ITLB_prefetch_MPKI 0
Core_0_ITLB_prefetch_miss_rate 0
Core_0_ITLB_writeback_access 0
Core_0_ITLB_writeback_hit 0
Core_0_ITLB_writeback_miss 0
Core_0_ITLB_writeback_MPKI 0
Core_0_ITLB_writeback_miss_rate 0
Core_0_ITLB_prefetch_requested 0
Core_0_ITLB_prefetch_issued 0
Core_0_ITLB_prefetch_useful 0
Core_0_ITLB_prefetch_useless 0
Core_0_ITLB_prefetch_late 0
Core_0_ITLB_prefetch_fill 0
Core_0_ITLB_prefetch_too_early 0
Core_0_ITLB_prefetch_too_early_among_fill 0
Core_0_ITLB_prefetch_too_early_among_useless 0
Core_0_ITLB_prefetch_pollution_evict 0
Core_0_ITLB_prefetch_pollution_demand 0
Core_0_ITLB_prefetch_pollution_among_prefetch_fill 0
Core_0_ITLB_prefetch_accuracy 0
Core_0_ITLB_prefetch_coverage 0

Core_0_DTLB_total_access 24689240
Core_0_DTLB_total_hit 6310266
Core_0_DTLB_total_miss 18378974
Core_0_DTLB_total_MPKI 183.79
Core_0_DTLB_total_miss_rate 0.744412
Core_0_DTLB_demand_access 24689240
Core_0_DTLB_demand_hit 6310266
Core_0_DTLB_demand_miss 18378974
Core_0_DTLB_demand_MPKI 183.79
Core_0_DTLB_demand_miss_rate 0.744412
Core_0_DTLB_load_access 24689240
Core_0_DTLB_load_hit 6310266
Core_0_DTLB_load_miss 18378974
Core_0_DTLB_load_MPKI 183.79
Core_0_DTLB_load_miss_rate 0.744412
Core_0_DTLB_rfo_access 0
Core_0_DTLB_rfo_hit 0
Core_0_DTLB_rfo_miss 0
Core_0_DTLB_rfo_MPKI 0
Core_0_DTLB_rfo_miss_rate 0
Core_0_DTLB_prefetch_access 0
Core_0_DTLB_prefetch_hit 0
Core_0_DTLB_prefetch_miss 0
Core_0_DTLB_prefetch_MPKI 0
Core_0_DTLB_prefetch_miss_rate 0
Core_0_DTLB_writeback_access 0
Core_0_DTLB_writeback_hit 0
Core_0_DTLB_writeback_miss 0
Core_0_DTLB_writeback_MPKI 0
Core_0_DTLB_writeback_miss_rate 0
Core_0_DTLB_prefetch_requested 0
Core_0_DTLB_prefetch_issued 0
Core_0_DTLB_prefetch_useful 0
Core_0_DTLB_prefetch_useless 0
Core_0_DTLB_prefetch_late 0
Core_0_DTLB_prefetch_fill 0
Core_0_DTLB_prefetch_too_early 0
Core_0_DTLB_prefetch_too_early_among_fill 0
Core_0_DTLB_prefetch_too_early_among_useless 0
Core_0_DTLB_prefetch_pollution_evict 0
Core_0_DTLB_prefetch_pollution_demand 0
Core_0_DTLB_prefetch_pollution_among_prefetch_fill 0
Core_0_DTLB_prefetch_accuracy 0
Core_0_DTLB_prefetch_coverage 0

Core_0_STLB_total_access 14594012
Core_0_STLB_total_hit 14310496
Core_0_STLB_total_miss 283516
Core_0_STLB_total_MPKI 2.83516
Core_0_STLB_total_miss_rate 0.0194269
Core_0_STLB_demand_access 14594012
Core_0_STLB_demand_hit 14310496
Core_0_STLB_demand_miss 283516
Core_0_STLB_demand_MPKI 2.83516
Core_0_STLB_demand_miss_rate 0.0194269
Core_0_STLB_load_access 14594012
Core_0_STLB_load_hit 14310496
Core_0_STLB_load_miss 283516
Core_0_STLB_load_MPKI 2.83516
Core_0_STLB_load_miss_rate 0.0194269
Core_0_STLB_rfo_access 0
Core_0_STLB_rfo_hit 0
Core_0_STLB_rfo_miss 0
Core_0_STLB_rfo_MPKI 0
Core_0_STLB_rfo_miss_rate 0
Core_0_STLB_prefetch_access 0
Core_0_STLB_prefetch_hit 0
Core_0_STLB_prefetch_miss 0
Core_0_STLB_prefetch_MPKI 0
Core_0_STLB_prefetch_miss_rate 0
Core_0_STLB_writeback_access 0
Core_0_STLB_writeback_hit 0
Core_0_STLB_writeback_miss 0
Core_0_STLB_writeback_MPKI 0
Core_0_STLB_writeback_miss_rate 0
Core_0_STLB_prefetch_requested 0
Core_0_STLB_prefetch_issued 0
Core_0_STLB_prefetch_useful 0
Core_0_STLB_prefetch_useless 0
Core_0_STLB_prefetch_late 0
Core_0_STLB_prefetch_fill 0
Core_0_STLB_prefetch_too_early 0
Core_0_STLB_prefetch_too_early_among_fill 0
Core_0_STLB_prefetch_too_early_among_useless 0
Core_0_STLB_prefetch_pollution_evict 0
Core_0_STLB_prefetch_pollution_demand 0
Core_0_STLB_prefetch_pollution_among_prefetch_fill 0
Core_0_STLB_prefetch_accuracy 0
Core_0_STLB_prefetch_coverage 0

Core_0_L1I_total_access 73121
Core_0_L1I_total_hit 73118
Core_0_L1I_total_miss 3
Core_0_L1I_total_MPKI 3e-05
Core_0_L1I_total_miss_rate 4.10279e-05
Core_0_L1I_demand_access 73121
Core_0_L1I_demand_hit 73118
Core_0_L1I_demand_miss 3
Core_0_L1I_demand_MPKI 3e-05
Core_0_L1I_demand_miss_rate 4.10279e-05
Core_0_L1I_load_access 73121
Core_0_L1I_load_hit 73118
Core_0_L1I_load_miss 3
Core_0_L1I_load_MPKI 3e-05
Core_0_L1I_load_miss_rate 4.10279e-05
Core_0_L1I_rfo_access 0
Core_0_L1I_rfo_hit 0
Core_0_L1I_rfo_miss 0
Core_0_L1I_rfo_MPKI 0
Core_0_L1I_rfo_miss_rate 0
Core_0_L1I_prefetch_access 0
Core_0_L1I_prefetch_hit 0
Core_0_L1I_prefetch_miss 0
Core_0_L1I_prefetch_MPKI 0
Core_0_L1I_prefetch_miss_rate 0
Core_0_L1I_writeback_access 0
Core_0_L1I_writeback_hit 0
Core_0_L1I_writeback_miss 0
Core_0_L1I_writeback_MPKI 0
Core_0_L1I_writeback_miss_rate 0
Core_0_L1I_prefetch_requested 0
Core_0_L1I_prefetch_issued 0
Core_0_L1I_prefetch_useful 0
Core_0_L1I_prefetch_useless 0
Core_0_L1I_prefetch_late 0
Core_0_L1I_prefetch_fill 0
Core_0_L1I_prefetch_too_early 0
Core_0_L1I_prefetch_too_early_among_fill 0
Core_0_L1I_prefetch_too_early_among_useless 0
Core_0_L1I_prefetch_pollution_evict 0
Core_0_L1I_prefetch_pollution_demand 0
Core_0_L1I_prefetch_pollution_among_prefetch_fill 0
Core_0_L1I_prefetch_accuracy 0
Core_0_L1I_prefetch_coverage 0

Core_0_L1D_total_access 24711516
Core_0_L1D_total_hit 6515978
Core_0_L1D_total_miss 18195538
Core_0_L1D_total_MPKI 181.955
Core_0_L1D_total_miss_rate 0.736318
Core_0_L1D_demand_access 24548003
Core_0_L1D_demand_hit 6391570
Core_0_L1D_demand_miss 18156433
Core_0_L1D_demand_MPKI 181.564
Core_0_L1D_demand_miss_rate 0.73963
Core_0_L1D_load_access 24548003
Core_0_L1D_load_hit 6391570
Core_0_L1D_load_miss 18156433
Core_0_L1D_load_MPKI 181.564
Core_0_L1D_load_miss_rate 0.73963
Core_0_L1D_rfo_access 0
Core_0_L1D_rfo_hit 0
Core_0_L1D_rfo_miss 0
Core_0_L1D_rfo_MPKI 0
Core_0_L1D_rfo_miss_rate 0
Core_0_L1D_prefetch_access 55471
Core_0_L1D_prefetch_hit 24015
Core_0_L1D_prefetch_miss 31456
Core_0_L1D_prefetch_MPKI 0.31456
Core_0_L1D_prefetch_miss_rate 0.567071
Core_0_L1D_writeback_access 108042
Core_0_L1D_writeback_hit 100393
Core_0_L1D_writeback_miss 7649
Core_0_L1D_writeback_MPKI 0.07649
Core_0_L1D_writeback_miss_rate 0.0707965
Core_0_L1D_prefetch_requested 56716
Core_0_L1D_prefetch_issued 55471
Core_0_L1D_prefetch_useful 521
Core_0_L1D_prefetch_useless 5493
Core_0_L1D_prefetch_late 30
Core_0_L1D_prefetch_fill 5988
Core_0_L1D_prefetch_too_early 5222
Core_0_L1D_prefetch_too_early_among_fill 0.872077
Core_0_L1D_prefetch_too_early_among_useless 0.950664
Core_0_L1D_prefetch_pollution_evict 5463
Core_0_L1D_prefetch_pollution_demand 5454
Core_0_L1D_prefetch_pollution_among_prefetch_fill 0.912325
Core_0_L1D_prefetch_accuracy 0.0093923
Core_0_L1D_prefetch_coverage 2.86942e-05

Core_0_L2C_total_access 14446240
Core_0_L2C_total_hit 4060861
Core_0_L2C_total_miss 10385379
Core_0_L2C_total_MPKI 103.854
Core_0_L2C_total_miss_rate 0.718898
Core_0_L2C_demand_access 14337883
Core_0_L2C_demand_hit 3979100
Core_0_L2C_demand_miss 10358783
Core_0_L2C_demand_MPKI 103.588
Core_0_L2C_demand_miss_rate 0.722476
Core_0_L2C_load_access 14330890
Core_0_L2C_load_hit 3977516
Core_0_L2C_load_miss 10353374
Core_0_L2C_load_MPKI 103.534
Core_0_L2C_load_miss_rate 0.722452
Core_0_L2C_rfo_access 6993
Core_0_L2C_rfo_hit 1584
Core_0_L2C_rfo_miss 5409
Core_0_L2C_rfo_MPKI 0.05409
Core_0_L2C_rfo_miss_rate 0.773488
Core_0_L2C_prefetch_access 33997
Core_0_L2C_prefetch_hit 7401
Core_0_L2C_prefetch_miss 26596
Core_0_L2C_prefetch_MPKI 0.26596
Core_0_L2C_prefetch_miss_rate 0.782304
Core_0_L2C_writeback_access 74360
Core_0_L2C_writeback_hit 74360
Core_0_L2C_writeback_miss 0
Core_0_L2C_writeback_MPKI 0
Core_0_L2C_writeback_miss_rate 0
Core_0_L2C_prefetch_requested 2682
Core_0_L2C_prefetch_issued 2682
Core_0_L2C_prefetch_useful 724
Core_0_L2C_prefetch_useless 902
Core_0_L2C_prefetch_late 9
Core_0_L2C_prefetch_fill 25900
Core_0_L2C_prefetch_too_early 191
Core_0_L2C_prefetch_too_early_among_fill 0.00737452
Core_0_L2C_prefetch_too_early_among_useless 0.211752
Core_0_L2C_prefetch_pollution_evict 12905
Core_0_L2C_prefetch_pollution_demand 12903
Core_0_L2C_prefetch_pollution_among_prefetch_fill 0.498263
Core_0_L2C_prefetch_accuracy 0.269948
Core_0_L2C_prefetch_coverage 6.98875e-05

Core_0_LLC_total_access 10455515
Core_0_LLC_total_hit 4424973
Core_0_LLC_total_miss 6030542
Core_0_LLC_total_MPKI 60.3054
Core_0_LLC_total_miss_rate 0.576781
Core_0_LLC_demand_access 10358769
Core_0_LLC_demand_hit 4382789
Core_0_LLC_demand_miss 5975980
Core_0_LLC_demand_MPKI 59.7598
Core_0_LLC_demand_miss_rate 0.576901
Core_0_LLC_load_access 10353360
Core_0_LLC_load_hit 4380379
Core_0_LLC_load_miss 5972981
Core_0_LLC_load_MPKI 59.7298
Core_0_LLC_load_miss_rate 0.576912
Core_0_LLC_rfo_access 5409
Core_0_LLC_rfo_hit 2410
Core_0_LLC_rfo_miss 2999
Core_0_LLC_rfo_MPKI 0.02999
Core_0_LLC_rfo_miss_rate 0.554446
Core_0_LLC_prefetch_access 25947
Core_0_LLC_prefetch_hit 590
Core_0_LLC_prefetch_miss 25357
Core_0_LLC_prefetch_MPKI 0.25357
Core_0_LLC_prefetch_miss_rate 0.977261
Core_0_LLC_writeback_access 70799
Core_0_LLC_writeback_hit 41594
Core_0_LLC_writeback_miss 29205
Core_0_LLC_writeback_MPKI 0.29205
Core_0_LLC_writeback_miss_rate 0.412506
Core_0_LLC_prefetch_requested 0
Core_0_LLC_prefetch_issued 0
Core_0_LLC_prefetch_useful 0
Core_0_LLC_prefetch_useless 0
Core_0_LLC_prefetch_late 0
Core_0_LLC_prefetch_fill 25356
Core_0_LLC_prefetch_too_early 0
Core_0_LLC_prefetch_too_early_among_fill 0
Core_0_LLC_prefetch_too_early_among_useless 0
Core_0_LLC_prefetch_pollution_evict 3442
Core_0_LLC_prefetch_pollution_demand 3442
Core_0_LLC_prefetch_pollution_among_prefetch_fill 0.135747
Core_0_LLC_prefetch_accuracy 0
Core_0_LLC_prefetch_coverage 0

[DRAM Statistics]
Channel_0_RQ_row_buffer_hit 932
Channel_0_RQ_row_buffer_miss 6085383
Channel_0_WQ_row_buffer_hit 14728
Channel_0_WQ_row_buffer_miss 41117
Channel_0_WQ_full 0
Channel_0_dbus_congested 6596163
DRAM_total_RQ_row_buffer_hit 932
DRAM_total_RQ_row_buffer_miss 6085383
DRAM_total_WQ_row_buffer_hit 14728
DRAM_total_WQ_row_buffer_miss 41117
DRAM_total_WQ_full 0
DRAM_total_dbus_congested 6596163
DRAM_avg_congested_cycle 4.42918

====== DRAM_RQ_TRAFFIC ========
DRAM_RQ_READ_TRAFFIC_BREAKDOWN:
data_demand_read.count = 5975977
data_demand_read.share = 98.19%

inst_demand_read.count = 3
inst_demand_read.share = 0.00%

cache_inst_prefetch.count = 0
cache_inst_prefetch.share = 0.00%

cache_data_prefetch.count = 25356
cache_data_prefetch.share = 0.42%

stlb_data_demand.count = 84427
stlb_data_demand.share = 1.39%

stlb_inst_demand.count = 1
stlb_inst_demand.share = 0.00%

stlb_l1i_pref.count = 0
stlb_l1i_pref.share = 0.00%

stlb_l1d_pref.count = 565
stlb_l1d_pref.share = 0.01%

DRAM_RQ_READ_TRAFFIC_SUMMARY:
cache_demand.count = 5975980
cache_demand.share = 98.19%

cache_prefetch.count = 25356
cache_prefetch.share = 0.42%

stlb_demand.count = 84428
stlb_demand.share = 1.39%

stlb_prefetch.count = 565
stlb_prefetch.share = 0.01%

DRAM_RQ_READ_TRAFFIC_DEBUG:
total_classified_read.count = 6086329
unclassified_read.count = 0
total_read_with_other.count = 6086329

classified_plus_unclassified_check.count = 6086329
dram_rq_read_total_observed.count = 6086329
dram_rq_read_total_observed.per_1K_instructions = 60.8633

STLB_MISS_PTW_DRAM_TOUCH_BREAKDOWN:
stlb_miss_total.count = 282841

stlb_miss_touch_dram.count = 85604
stlb_miss_touch_dram.share = 30.27%

stlb_miss_no_dram_touch.count = 197237
stlb_miss_no_dram_touch.share = 69.73%

STLB_MISS_PTW_DRAM_TOUCH_DEBUG:
stlb_miss_touch_plus_no_touch.count = 282841
stlb_miss_total_check.count = 282841

======STLB miss causes ========
Core_0_STLB_miss_cause_breakdown
Core_0_STLB_cause_Demand_Data_miss 282482
Core_0_STLB_cause_Demand_Data_miss_rate 0.019356
Core_0_STLB_cause_Demand_Instruction_miss 1
Core_0_STLB_cause_Demand_Instruction_miss_rate 6.85213e-08
Core_0_STLB_cause_L1D_Prefetch_miss 1033
Core_0_STLB_cause_L1D_Prefetch_miss_rate 7.07825e-05
Core_0_STLB_cause_L1D_Prefetch_Same_Page_miss 0
Core_0_STLB_cause_L1D_Prefetch_Same_Page_miss_rate 0
Core_0_STLB_cause_L1D_Prefetch_Cross_Page_miss 1033
Core_0_STLB_cause_L1D_Prefetch_Cross_Page_miss_rate 7.07825e-05
Core_0_STLB_cause_L1I_Prefetch_miss 0
Core_0_STLB_cause_L1I_Prefetch_miss_rate 0
Core_0_STLB_cause_Other_miss 0
Core_0_STLB_cause_Other_miss_rate 0
Core_0_STLB_Demand_miss 282483
Core_0_STLB_Demand_miss_rate 0.0193561
Core_0_STLB_L1D_Prefetch_miss 1033
Core_0_STLB_L1D_Prefetch_miss_rate 7.07825e-05
Core_0_STLB_Other_miss 0
Core_0_STLB_Other_miss_rate 0

========== vBerti-TLB Cross-page Flow Stats ==========

Core_0_vBerti_Requested 56716
Core_0_vBerti_Cross_page_prefetch_in_Requested 9657
Core_0_vBerti_Same_page_prefetch_in_Requested 47059
Core_0_vBerti_Cross_page_prefetch_of_Requested 0.170269
Core_0_vBerti_Issued 55471
Core_0_vBerti_InPQ_Same_page_prefetch 46446
Core_0_vBerti_InPQ_Cross_page_prefetch 9025
Core_0_vBerti_PQ_Drop_Rate 0.0219515
Core_0_vBerti_InPQ_Cross_page_prefetch_of_Requested 0.159126
Core_0_vBerti_Cross_page_PQ_Drop_rate 0.0654448
Core_0_vBerti_Cross_page_prefetch_of_Issued 0.162698
Core_0_CP_PF_PQFULL_drop 632
Core_0_CP_PF_PQFULL_TLB_rescue_enqueued 632
Core_0_CP_PF_PQFULL_TLB_rescue_issued 632
Core_0_CP_PF_PQFULL_TLB_rescue_translated 632

========= DTLB_vBerti Prefetch Stats =========
Core_0_DTLB_demand_access 24647694
Core_0_DTLB_demand_hit 6269929
Core_0_DTLB_demand_miss 18377765
Core_0_DTLB_demand_mshr_merge 3784846
Core_0_DTLB_demand_fill 14592919
Core_0_DTLB_demand_miss_rate 0.745618
Core_0_DTLB_demand_mpki 183.778
Core_0_DTLB_vberti_prefetch_access 41546
Core_0_DTLB_vberti_prefetch_hit 40337
Core_0_DTLB_vberti_prefetch_miss 1209
Core_0_DTLB_vberti_prefetch_mshr_merge 117
Core_0_DTLB_vberti_prefetch_fill 1092
Core_0_DTLB_vberti_prefetch_miss_rate 0.0291003
Core_0_DTLB_vberti_prefetch_mpki 0.01209

=== DTLB_vBerti Same/Cross-page Prefetch Stats ===
Core_0_DTLB_vberti_same_page_prefetch 33842
Core_0_DTLB_vberti_same_page_prefetch_hit 33842
Core_0_DTLB_vberti_same_page_prefetch_miss 0
Core_0_DTLB_vberti_same_page_prefetch_mshr_merge 0
Core_0_DTLB_vberti_same_page_prefetch_fill 0
Core_0_DTLB_vberti_same_page_prefetch_miss_rate 0
Core_0_DTLB_vberti_same_page_prefetch_mpki 0
Core_0_DTLB_vberti_cross_page_prefetch 7704
Core_0_DTLB_vberti_cross_page_prefetch_hit 6495
Core_0_DTLB_vberti_cross_page_prefetch_miss 1209
Core_0_DTLB_vberti_cross_page_prefetch_mshr_merge 117
Core_0_DTLB_vberti_cross_page_prefetch_fill 1092
Core_0_DTLB_vberti_cross_page_prefetch_miss_rate 0.156931
Core_0_DTLB_vberti_cross_page_prefetch_mpki 0.01209
Core_0_DTLB_same_page_prefetch_miss_rate 0
Core_0_DTLB_same_page_prefetch_mpki 0
Core_0_DTLB_cross_page_prefetch_miss_rate 0.156931
Core_0_DTLB_cross_page_prefetch_mpki 0.01209
Core_0_DTLB_cross_page_prefetch_issued 7704
Core_0_DTLB_cross_page_prefetch_lookups 7704
Core_0_DTLB_cross_page_prefetch_useful 36
Core_0_DTLB_cross_page_prefetch_useless 1056
Core_0_DTLB_cross_page_prefetch_late 0
Core_0_DTLB_cross_page_prefetch_too_early 699
Core_0_DTLB_cross_page_prefetch_too_early_among_fill 0.64011
Core_0_DTLB_cross_page_prefetch_too_early_among_useless 0.661932
Core_0_DTLB_cross_page_prefetch_pollution_evict 1089
Core_0_DTLB_cross_page_prefetch_pollution_demand 1086
Core_0_DTLB_cross_page_prefetch_pollution_among_prefetch_fill 0.997253
Core_0_DTLB_cross_page_prefetch_accuracy 0.0046729
Core_0_DTLB_cross_page_prefetch_coverage 1.95889e-06

========= STLB_vBerti Prefetch Stats =========
Core_0_STLB_demand_access 14592920
Core_0_STLB_demand_hit 14310437
Core_0_STLB_demand_miss 282483
Core_0_STLB_demand_mshr_merge 0
Core_0_STLB_demand_fill 282483
Core_0_STLB_demand_miss_rate 0.0193575
Core_0_STLB_demand_mpki 2.82483
Core_0_STLB_vberti_prefetch_access 1092
Core_0_STLB_vberti_prefetch_hit 59
Core_0_STLB_vberti_prefetch_miss 1033
Core_0_STLB_vberti_prefetch_mshr_merge 0
Core_0_STLB_vberti_prefetch_fill 0
Core_0_STLB_vberti_prefetch_miss_rate 0.945971
Core_0_STLB_vberti_prefetch_mpki 0.01033

=== STLB_vBerti Same/Cross-page Prefetch Stats ===
Core_0_STLB_vberti_same_page_prefetch 0
Core_0_STLB_vberti_same_page_prefetch_hit 0
Core_0_STLB_vberti_same_page_prefetch_miss 0
Core_0_STLB_vberti_same_page_prefetch_mshr_merge 0
Core_0_STLB_vberti_same_page_prefetch_fill 0
Core_0_STLB_vberti_same_page_prefetch_miss_rate 0
Core_0_STLB_vberti_same_page_prefetch_mpki 0
Core_0_STLB_vberti_cross_page_prefetch 1092
Core_0_STLB_vberti_cross_page_prefetch_hit 59
Core_0_STLB_vberti_cross_page_prefetch_miss 1033
Core_0_STLB_vberti_cross_page_prefetch_mshr_merge 0
Core_0_STLB_vberti_cross_page_prefetch_fill 0
Core_0_STLB_vberti_cross_page_prefetch_miss_rate 0.945971
Core_0_STLB_vberti_cross_page_prefetch_mpki 0.01033
Core_0_STLB_same_page_prefetch_miss_rate 0
Core_0_STLB_same_page_prefetch_mpki 0
Core_0_STLB_cross_page_prefetch_miss_rate 0.945971
Core_0_STLB_cross_page_prefetch_mpki 0.01033
Core_0_STLB_cross_page_prefetch_issued 1092
Core_0_STLB_cross_page_prefetch_lookups 1092
Core_0_STLB_cross_page_prefetch_useful 675
Core_0_STLB_cross_page_prefetch_useless 7
Core_0_STLB_cross_page_prefetch_late 675
Core_0_STLB_cross_page_prefetch_too_early 0
Core_0_STLB_cross_page_prefetch_too_early_among_fill 0
Core_0_STLB_cross_page_prefetch_too_early_among_useless 0
Core_0_STLB_cross_page_prefetch_pollution_evict 0
Core_0_STLB_cross_page_prefetch_pollution_demand 0
Core_0_STLB_cross_page_prefetch_pollution_among_prefetch_fill 0
Core_0_STLB_cross_page_prefetch_accuracy 0.618132
Core_0_STLB_cross_page_prefetch_coverage 0.00238383

========= STLB Cross-page Prefetch Buffer Stats =========
Core_0_STLB_raw_demand_miss 282482
Core_0_CP_PB_insert 1033
Core_0_CP_PB_demand_hit 675
Core_0_STLB_PB_demand_miss 281807
Core_0_CP_PB_coverage 0.00238953
Core_0_STLB_raw_demand_mpki 2.82482
Core_0_STLB_PB_demand_mpki 2.81807
Core_0_CP_PB_demand_hit_mpki 0.00675

Core_0_TLB_demand_miss_rate 0.0114608
Core_0_TLB_demand_mpki 2.82483
Core_0_TLB_same_page_prefetch_miss_rate 0
Core_0_TLB_same_page_prefetch_mpki 0
Core_0_TLB_cross_page_prefetch_miss_rate 0.134086
Core_0_TLB_cross_page_prefetch_mpki 0.01033
Core_0_TLB_cross_page_prefetch_issued 7704
Core_0_TLB_cross_page_prefetch_lookups 7704
Core_0_TLB_cross_page_prefetch_useful 9
Core_0_TLB_cross_page_prefetch_useless 1056
Core_0_TLB_cross_page_prefetch_late 0
Core_0_TLB_cross_page_prefetch_too_early 699
Core_0_TLB_cross_page_prefetch_too_early_among_fill 0.64011
Core_0_TLB_cross_page_prefetch_too_early_among_useless 0.661932
Core_0_TLB_cross_page_prefetch_accuracy 0.00116822
Core_0_TLB_cross_page_prefetch_coverage 3.18593e-05
BERTI TO_L1: 28759 TO_L2: 42719 TO_L2_BC_MSHR: 156
BERTI AVG_LAT: 70.943 NUM_TRACK_LATENCY: 21441714 NUM_CANT_TRACK_LATENCY: 0
BERTI CROSS_PAGE 11495 NO_CROSS_PAGE: 59983
BERTI FOUND_BERTI: 18679243 NO_FOUND_BERTI: 14681227
BERTI AVERAGE_ISSUED: 1.57865
