[VMEM] WARNING: physical memory size is smaller than virtual memory size.

*** ChampSim Multicore Out-of-Order Simulator ***
Warmup Instructions: 50000000
Simulation Instructions: 100000000
Number of CPUs: 1
Page size: 4096
Core 0: /data0/tzh/champsim_traces/SPEC06/473.astar-359B.champsimtrace.xz
VBerti Prefetcher
BERTI HASH ENTANGLING
BERTI IP MASK ffff
Off-chip DRAM Size: 16 GiB Channels: 1 Width: 64-bit Data Rate: 3205 MT/s
Warmup halting CPU 0 at instruction 50000004 cycle 13785567 for remainder of phase
Warmup finished CPU 0 instructions: 50000004 cycles: 13785567 cumulative IPC: 3.627 (Simulation time: 00 hr 03 min 14 sec)
Warmup complete CPU 0 instructions: 50000004 cycles: 13785567 cumulative IPC: 3.627 (Simulation time: 00 hr 03 min 14 sec)
Simulation finished CPU 0 instructions: 100000002 cycles: 515672142 cumulative IPC: 0.1939 (Simulation time: 00 hr 52 min 39 sec)
Simulation complete CPU 0 instructions: 100000002 cycles: 515672142 cumulative IPC: 0.1939 (Simulation time: 00 hr 52 min 39 sec)

ChampSim completed all CPUs

=== Simulation ===
CPU 0 runs /data0/tzh/champsim_traces/SPEC06/473.astar-359B.champsimtrace.xz

Region of Interest Statistics

CPU 0 cumulative IPC: 0.1939 instructions: 100000002 cycles: 515672142
CPU 0 Branch Prediction Accuracy: 93.38% MPKI: 12.98 Average ROB Occupancy at Mispredict: 45.74
Branch type MPKI
BRANCH_DIRECT_JUMP: 4e-05
BRANCH_INDIRECT: 0
BRANCH_CONDITIONAL: 12.98
BRANCH_DIRECT_CALL: 0
BRANCH_INDIRECT_CALL: 0.00021
BRANCH_RETURN: 0

cpu0->cpu0_STLB TOTAL        ACCESS:    3404236 HIT:    1665617 MISS:    1738619 MSHR_MERGE:          0
cpu0->cpu0_STLB LOAD         ACCESS:    3404236 HIT:    1665617 MISS:    1738619 MSHR_MERGE:          0
cpu0->cpu0_STLB RFO          ACCESS:          0 HIT:          0 MISS:          0 MSHR_MERGE:          0
cpu0->cpu0_STLB PREFETCH     ACCESS:          0 HIT:          0 MISS:          0 MSHR_MERGE:          0
cpu0->cpu0_STLB WRITE        ACCESS:          0 HIT:          0 MISS:          0 MSHR_MERGE:          0
cpu0->cpu0_STLB TRANSLATION  ACCESS:          0 HIT:          0 MISS:          0 MSHR_MERGE:          0
cpu0->cpu0_STLB PREFETCH REQUESTED:          0 ISSUED:          0 USEFUL:          0 USELESS:          0 LATE:          0 TOO_EARLY:          0
cpu0->cpu0_STLB AVERAGE MISS LATENCY: 196.8 cycles
cpu0->cpu0_L2C TOTAL        ACCESS:   12986252 HIT:    8466581 MISS:    4519671 MSHR_MERGE:     234390
cpu0->cpu0_L2C LOAD         ACCESS:    3284284 HIT:    1378795 MISS:    1905489 MSHR_MERGE:      45486
cpu0->cpu0_L2C RFO          ACCESS:    1752277 HIT:      17178 MISS:    1735099 MSHR_MERGE:       1175
cpu0->cpu0_L2C PREFETCH     ACCESS:    4456700 HIT:    3947670 MISS:     509030 MSHR_MERGE:     187729
cpu0->cpu0_L2C WRITE        ACCESS:    2609180 HIT:    2608980 MISS:        200 MSHR_MERGE:          0
cpu0->cpu0_L2C TRANSLATION  ACCESS:     883811 HIT:     513958 MISS:     369853 MSHR_MERGE:          0
cpu0->cpu0_L2C PREFETCH REQUESTED:    1454154 ISSUED:    1454051 USEFUL:     137239 USELESS:      12441 LATE:      42143 TOO_EARLY:       7419
cpu0->cpu0_L2C AVERAGE MISS LATENCY: 360.5 cycles
cpu0->cpu0_L1I TOTAL        ACCESS:    1799459 HIT:    1799443 MISS:         16 MSHR_MERGE:          0
cpu0->cpu0_L1I LOAD         ACCESS:    1799459 HIT:    1799443 MISS:         16 MSHR_MERGE:          0
cpu0->cpu0_L1I RFO          ACCESS:          0 HIT:          0 MISS:          0 MSHR_MERGE:          0
cpu0->cpu0_L1I PREFETCH     ACCESS:          0 HIT:          0 MISS:          0 MSHR_MERGE:          0
cpu0->cpu0_L1I WRITE        ACCESS:          0 HIT:          0 MISS:          0 MSHR_MERGE:          0
cpu0->cpu0_L1I TRANSLATION  ACCESS:          0 HIT:          0 MISS:          0 MSHR_MERGE:          0
cpu0->cpu0_L1I PREFETCH REQUESTED:          0 ISSUED:          0 USEFUL:          0 USELESS:          0 LATE:          0 TOO_EARLY:          0
cpu0->cpu0_L1I AVERAGE MISS LATENCY: 247.7 cycles
cpu0->cpu0_L1D TOTAL        ACCESS:   51730598 HIT:   41281257 MISS:   10449341 MSHR_MERGE:    1496495
cpu0->cpu0_L1D LOAD         ACCESS:   26792985 HIT:   22261152 MISS:    4531833 MSHR_MERGE:    1247564
cpu0->cpu0_L1D RFO          ACCESS:          0 HIT:          0 MISS:          0 MSHR_MERGE:          0
cpu0->cpu0_L1D PREFETCH     ACCESS:    9133014 HIT:    6051870 MISS:    3081144 MSHR_MERGE:      48655
cpu0->cpu0_L1D WRITE        ACCESS:   12675512 HIT:   10923088 MISS:    1752424 MSHR_MERGE:        147
cpu0->cpu0_L1D TRANSLATION  ACCESS:    3129087 HIT:    2045147 MISS:    1083940 MSHR_MERGE:     200129
cpu0->cpu0_L1D PREFETCH REQUESTED:  123302373 ISSUED:    9133006 USEFUL:     157581 USELESS:      27979 LATE:       8315 TOO_EARLY:        229
cpu0->cpu0_L1D AVERAGE MISS LATENCY: 253.2 cycles
cpu0->cpu0_ITLB TOTAL        ACCESS:    1799146 HIT:    1799146 MISS:          0 MSHR_MERGE:          0
cpu0->cpu0_ITLB LOAD         ACCESS:    1799146 HIT:    1799146 MISS:          0 MSHR_MERGE:          0
cpu0->cpu0_ITLB RFO          ACCESS:          0 HIT:          0 MISS:          0 MSHR_MERGE:          0
cpu0->cpu0_ITLB PREFETCH     ACCESS:          0 HIT:          0 MISS:          0 MSHR_MERGE:          0
cpu0->cpu0_ITLB WRITE        ACCESS:          0 HIT:          0 MISS:          0 MSHR_MERGE:          0
cpu0->cpu0_ITLB TRANSLATION  ACCESS:          0 HIT:          0 MISS:          0 MSHR_MERGE:          0
cpu0->cpu0_ITLB PREFETCH REQUESTED:          0 ISSUED:          0 USEFUL:          0 USELESS:          0 LATE:          0 TOO_EARLY:          0
cpu0->cpu0_ITLB AVERAGE MISS LATENCY: - cycles
cpu0->cpu0_DTLB TOTAL        ACCESS:   44665890 HIT:   39852063 MISS:    4813827 MSHR_MERGE:    1409591
cpu0->cpu0_DTLB LOAD         ACCESS:   44665890 HIT:   39852063 MISS:    4813827 MSHR_MERGE:    1409591
cpu0->cpu0_DTLB RFO          ACCESS:          0 HIT:          0 MISS:          0 MSHR_MERGE:          0
cpu0->cpu0_DTLB PREFETCH     ACCESS:          0 HIT:          0 MISS:          0 MSHR_MERGE:          0
cpu0->cpu0_DTLB WRITE        ACCESS:          0 HIT:          0 MISS:          0 MSHR_MERGE:          0
cpu0->cpu0_DTLB TRANSLATION  ACCESS:          0 HIT:          0 MISS:          0 MSHR_MERGE:          0
cpu0->cpu0_DTLB PREFETCH REQUESTED:          0 ISSUED:          0 USEFUL:          0 USELESS:          0 LATE:          0 TOO_EARLY:          0
cpu0->cpu0_DTLB AVERAGE MISS LATENCY: 105.1 cycles
cpu0->LLC TOTAL        ACCESS:    6806827 HIT:    1276515 MISS:    5530312 MSHR_MERGE:      44596
cpu0->LLC LOAD         ACCESS:    1860003 HIT:      98796 MISS:    1761207 MSHR_MERGE:       4059
cpu0->LLC RFO          ACCESS:    1733924 HIT:     223769 MISS:    1510155 MSHR_MERGE:          1
cpu0->LLC PREFETCH     ACCESS:     321238 HIT:      48303 MISS:     272935 MSHR_MERGE:      40536
cpu0->LLC WRITE        ACCESS:    2521809 HIT:     660932 MISS:    1860877 MSHR_MERGE:          0
cpu0->LLC TRANSLATION  ACCESS:     369853 HIT:     244715 MISS:     125138 MSHR_MERGE:          0
cpu0->LLC PREFETCH REQUESTED:          0 ISSUED:          0 USEFUL:          0 USELESS:          0 LATE:          0 TOO_EARLY:          0
cpu0->LLC AVERAGE MISS LATENCY: 262.3 cycles

DRAM Statistics

Channel 0 RQ ROW_BUFFER_HIT:     158306
  ROW_BUFFER_MISS:    3465786
  AVG DBUS CONGESTED CYCLE: 15.14
Channel 0 WQ ROW_BUFFER_HIT:     444811
  ROW_BUFFER_MISS:    1782007
  FULL:       2152
Channel 0 REFRESHES ISSUED:      42973

[ROI Statistics]
[System Configuration]
num_cpus 1
cpu_freq 4000
fetch_width 6
decode_width 6
dispatch_width 6
execute_width 6
lq_width 2
sq_width 2
retire_width 6
scheduler_size 128
branch_mispredict_penalty 15
rob_size 352
lq_size 128
sq_size 72
ifetch_buffer_size 64
decode_buffer_size 32
dispatch_buffer_size 32
register_file_size 288
decode_latency 1
dispatch_latency 1
schedule_latency 1
execute_latency 1
page_size 4096
block_size 64
core_0_itlb_set 16
core_0_itlb_way 4
core_0_itlb_rq_size 16
core_0_itlb_wq_size 16
core_0_itlb_pq_size 0
core_0_itlb_mshr_size 8
core_0_itlb_hit_latency 1
core_0_itlb_fill_latency 1
core_0_itlb_max_tag_check 2
core_0_itlb_max_fill 2
core_0_dtlb_set 16
core_0_dtlb_way 4
core_0_dtlb_rq_size 16
core_0_dtlb_wq_size 16
core_0_dtlb_pq_size 0
core_0_dtlb_mshr_size 8
core_0_dtlb_hit_latency 1
core_0_dtlb_fill_latency 1
core_0_dtlb_max_tag_check 2
core_0_dtlb_max_fill 2
core_0_stlb_set 128
core_0_stlb_way 12
core_0_stlb_rq_size 32
core_0_stlb_wq_size 32
core_0_stlb_pq_size 0
core_0_stlb_mshr_size 16
core_0_stlb_hit_latency 4
core_0_stlb_fill_latency 4
core_0_stlb_max_tag_check 1
core_0_stlb_max_fill 1
core_0_l1i_set 64
core_0_l1i_way 8
core_0_l1i_rq_size 64
core_0_l1i_wq_size 64
core_0_l1i_pq_size 32
core_0_l1i_mshr_size 8
core_0_l1i_hit_latency 2
core_0_l1i_fill_latency 2
core_0_l1i_max_tag_check 2
core_0_l1i_max_fill 2
core_0_l1d_set 64
core_0_l1d_way 12
core_0_l1d_rq_size 64
core_0_l1d_wq_size 64
core_0_l1d_pq_size 8
core_0_l1d_mshr_size 16
core_0_l1d_hit_latency 2
core_0_l1d_fill_latency 3
core_0_l1d_max_tag_check 2
core_0_l1d_max_fill 2
core_0_l2c_set 1024
core_0_l2c_way 8
core_0_l2c_rq_size 32
core_0_l2c_wq_size 32
core_0_l2c_pq_size 16
core_0_l2c_mshr_size 32
core_0_l2c_hit_latency 5
core_0_l2c_fill_latency 5
core_0_l2c_max_tag_check 1
core_0_l2c_max_fill 1
llc_set 2048
llc_way 16
llc_rq_size 32
llc_wq_size 32
llc_pq_size 32
llc_mshr_size 64
llc_hit_latency 10
llc_fill_latency 10
llc_max_tag_check 1
llc_max_fill 1
dram_channels 1
dram_ranks 1
dram_bankgroups 8
dram_banks 4
dram_rows 65536
dram_columns 1024
dram_channel_width 8
dram_rq_size 64
dram_wq_size 64
dram_size 17179869184
core_0_itlb_prefetcher no
core_0_dtlb_prefetcher no
core_0_stlb_prefetcher no
core_0_l1i_prefetcher next_line
core_0_l1d_prefetcher vberti
core_0_l2c_prefetcher ip_stride
llc_prefetcher no
llc_replacement drrip

Core_0_instructions 100000002
Core_0_cycles 515672142
Core_0_IPC 0.193922
Core_0_branch_prediction_accuracy 93.3752
Core_0_branch_MPKI 12.9841
Core_0_average_ROB_occupancy_at_mispredict 45.7361

Core_0_ITLB_total_access 1799146
Core_0_ITLB_total_hit 1799146
Core_0_ITLB_total_miss 0
Core_0_ITLB_total_MPKI 0
Core_0_ITLB_total_miss_rate 0
Core_0_ITLB_demand_access 1799146
Core_0_ITLB_demand_hit 1799146
Core_0_ITLB_demand_miss 0
Core_0_ITLB_demand_MPKI 0
Core_0_ITLB_demand_miss_rate 0
Core_0_ITLB_load_access 1799146
Core_0_ITLB_load_hit 1799146
Core_0_ITLB_load_miss 0
Core_0_ITLB_load_MPKI 0
Core_0_ITLB_load_miss_rate 0
Core_0_ITLB_rfo_access 0
Core_0_ITLB_rfo_hit 0
Core_0_ITLB_rfo_miss 0
Core_0_ITLB_rfo_MPKI 0
Core_0_ITLB_rfo_miss_rate 0
Core_0_ITLB_prefetch_access 0
Core_0_ITLB_prefetch_hit 0
Core_0_ITLB_prefetch_miss 0
Core_0_ITLB_prefetch_MPKI 0
Core_0_ITLB_prefetch_miss_rate 0
Core_0_ITLB_writeback_access 0
Core_0_ITLB_writeback_hit 0
Core_0_ITLB_writeback_miss 0
Core_0_ITLB_writeback_MPKI 0
Core_0_ITLB_writeback_miss_rate 0
Core_0_ITLB_prefetch_requested 0
Core_0_ITLB_prefetch_issued 0
Core_0_ITLB_prefetch_useful 0
Core_0_ITLB_prefetch_useless 0
Core_0_ITLB_prefetch_late 0
Core_0_ITLB_prefetch_fill 0
Core_0_ITLB_prefetch_too_early 0
Core_0_ITLB_prefetch_too_early_among_fill 0
Core_0_ITLB_prefetch_too_early_among_useless 0
Core_0_ITLB_prefetch_pollution_evict 0
Core_0_ITLB_prefetch_pollution_demand 0
Core_0_ITLB_prefetch_pollution_among_prefetch_fill 0
Core_0_ITLB_prefetch_accuracy 0
Core_0_ITLB_prefetch_coverage 0

Core_0_DTLB_total_access 44665890
Core_0_DTLB_total_hit 39852063
Core_0_DTLB_total_miss 4813827
Core_0_DTLB_total_MPKI 48.1383
Core_0_DTLB_total_miss_rate 0.107774
Core_0_DTLB_demand_access 44665890
Core_0_DTLB_demand_hit 39852063
Core_0_DTLB_demand_miss 4813827
Core_0_DTLB_demand_MPKI 48.1383
Core_0_DTLB_demand_miss_rate 0.107774
Core_0_DTLB_load_access 44665890
Core_0_DTLB_load_hit 39852063
Core_0_DTLB_load_miss 4813827
Core_0_DTLB_load_MPKI 48.1383
Core_0_DTLB_load_miss_rate 0.107774
Core_0_DTLB_rfo_access 0
Core_0_DTLB_rfo_hit 0
Core_0_DTLB_rfo_miss 0
Core_0_DTLB_rfo_MPKI 0
Core_0_DTLB_rfo_miss_rate 0
Core_0_DTLB_prefetch_access 0
Core_0_DTLB_prefetch_hit 0
Core_0_DTLB_prefetch_miss 0
Core_0_DTLB_prefetch_MPKI 0
Core_0_DTLB_prefetch_miss_rate 0
Core_0_DTLB_writeback_access 0
Core_0_DTLB_writeback_hit 0
Core_0_DTLB_writeback_miss 0
Core_0_DTLB_writeback_MPKI 0
Core_0_DTLB_writeback_miss_rate 0
Core_0_DTLB_prefetch_requested 0
Core_0_DTLB_prefetch_issued 0
Core_0_DTLB_prefetch_useful 0
Core_0_DTLB_prefetch_useless 0
Core_0_DTLB_prefetch_late 0
Core_0_DTLB_prefetch_fill 0
Core_0_DTLB_prefetch_too_early 0
Core_0_DTLB_prefetch_too_early_among_fill 0
Core_0_DTLB_prefetch_too_early_among_useless 0
Core_0_DTLB_prefetch_pollution_evict 0
Core_0_DTLB_prefetch_pollution_demand 0
Core_0_DTLB_prefetch_pollution_among_prefetch_fill 0
Core_0_DTLB_prefetch_accuracy 0
Core_0_DTLB_prefetch_coverage 0

Core_0_STLB_total_access 3404236
Core_0_STLB_total_hit 1665617
Core_0_STLB_total_miss 1738619
Core_0_STLB_total_MPKI 17.3862
Core_0_STLB_total_miss_rate 0.510722
Core_0_STLB_demand_access 3404236
Core_0_STLB_demand_hit 1665617
Core_0_STLB_demand_miss 1738619
Core_0_STLB_demand_MPKI 17.3862
Core_0_STLB_demand_miss_rate 0.510722
Core_0_STLB_load_access 3404236
Core_0_STLB_load_hit 1665617
Core_0_STLB_load_miss 1738619
Core_0_STLB_load_MPKI 17.3862
Core_0_STLB_load_miss_rate 0.510722
Core_0_STLB_rfo_access 0
Core_0_STLB_rfo_hit 0
Core_0_STLB_rfo_miss 0
Core_0_STLB_rfo_MPKI 0
Core_0_STLB_rfo_miss_rate 0
Core_0_STLB_prefetch_access 0
Core_0_STLB_prefetch_hit 0
Core_0_STLB_prefetch_miss 0
Core_0_STLB_prefetch_MPKI 0
Core_0_STLB_prefetch_miss_rate 0
Core_0_STLB_writeback_access 0
Core_0_STLB_writeback_hit 0
Core_0_STLB_writeback_miss 0
Core_0_STLB_writeback_MPKI 0
Core_0_STLB_writeback_miss_rate 0
Core_0_STLB_prefetch_requested 0
Core_0_STLB_prefetch_issued 0
Core_0_STLB_prefetch_useful 0
Core_0_STLB_prefetch_useless 0
Core_0_STLB_prefetch_late 0
Core_0_STLB_prefetch_fill 0
Core_0_STLB_prefetch_too_early 0
Core_0_STLB_prefetch_too_early_among_fill 0
Core_0_STLB_prefetch_too_early_among_useless 0
Core_0_STLB_prefetch_pollution_evict 0
Core_0_STLB_prefetch_pollution_demand 0
Core_0_STLB_prefetch_pollution_among_prefetch_fill 0
Core_0_STLB_prefetch_accuracy 0
Core_0_STLB_prefetch_coverage 0

Core_0_L1I_total_access 1799459
Core_0_L1I_total_hit 1799443
Core_0_L1I_total_miss 16
Core_0_L1I_total_MPKI 0.00016
Core_0_L1I_total_miss_rate 8.89156e-06
Core_0_L1I_demand_access 1799459
Core_0_L1I_demand_hit 1799443
Core_0_L1I_demand_miss 16
Core_0_L1I_demand_MPKI 0.00016
Core_0_L1I_demand_miss_rate 8.89156e-06
Core_0_L1I_load_access 1799459
Core_0_L1I_load_hit 1799443
Core_0_L1I_load_miss 16
Core_0_L1I_load_MPKI 0.00016
Core_0_L1I_load_miss_rate 8.89156e-06
Core_0_L1I_rfo_access 0
Core_0_L1I_rfo_hit 0
Core_0_L1I_rfo_miss 0
Core_0_L1I_rfo_MPKI 0
Core_0_L1I_rfo_miss_rate 0
Core_0_L1I_prefetch_access 0
Core_0_L1I_prefetch_hit 0
Core_0_L1I_prefetch_miss 0
Core_0_L1I_prefetch_MPKI 0
Core_0_L1I_prefetch_miss_rate 0
Core_0_L1I_writeback_access 0
Core_0_L1I_writeback_hit 0
Core_0_L1I_writeback_miss 0
Core_0_L1I_writeback_MPKI 0
Core_0_L1I_writeback_miss_rate 0
Core_0_L1I_prefetch_requested 0
Core_0_L1I_prefetch_issued 0
Core_0_L1I_prefetch_useful 0
Core_0_L1I_prefetch_useless 0
Core_0_L1I_prefetch_late 0
Core_0_L1I_prefetch_fill 0
Core_0_L1I_prefetch_too_early 0
Core_0_L1I_prefetch_too_early_among_fill 0
Core_0_L1I_prefetch_too_early_among_useless 0
Core_0_L1I_prefetch_pollution_evict 0
Core_0_L1I_prefetch_pollution_demand 0
Core_0_L1I_prefetch_pollution_among_prefetch_fill 0
Core_0_L1I_prefetch_accuracy 0
Core_0_L1I_prefetch_coverage 0

Core_0_L1D_total_access 48601511
Core_0_L1D_total_hit 39236110
Core_0_L1D_total_miss 9365401
Core_0_L1D_total_MPKI 93.654
Core_0_L1D_total_miss_rate 0.192698
Core_0_L1D_demand_access 26792985
Core_0_L1D_demand_hit 22261152
Core_0_L1D_demand_miss 4531833
Core_0_L1D_demand_MPKI 45.3183
Core_0_L1D_demand_miss_rate 0.169143
Core_0_L1D_load_access 26792985
Core_0_L1D_load_hit 22261152
Core_0_L1D_load_miss 4531833
Core_0_L1D_load_MPKI 45.3183
Core_0_L1D_load_miss_rate 0.169143
Core_0_L1D_rfo_access 0
Core_0_L1D_rfo_hit 0
Core_0_L1D_rfo_miss 0
Core_0_L1D_rfo_MPKI 0
Core_0_L1D_rfo_miss_rate 0
Core_0_L1D_prefetch_access 9133014
Core_0_L1D_prefetch_hit 6051870
Core_0_L1D_prefetch_miss 3081144
Core_0_L1D_prefetch_MPKI 30.8114
Core_0_L1D_prefetch_miss_rate 0.337363
Core_0_L1D_writeback_access 12675512
Core_0_L1D_writeback_hit 10923088
Core_0_L1D_writeback_miss 1752424
Core_0_L1D_writeback_MPKI 17.5242
Core_0_L1D_writeback_miss_rate 0.138253
Core_0_L1D_prefetch_requested 123302373
Core_0_L1D_prefetch_issued 9133006
Core_0_L1D_prefetch_useful 157581
Core_0_L1D_prefetch_useless 27979
Core_0_L1D_prefetch_late 8315
Core_0_L1D_prefetch_fill 177296
Core_0_L1D_prefetch_too_early 229
Core_0_L1D_prefetch_too_early_among_fill 0.00129163
Core_0_L1D_prefetch_too_early_among_useless 0.00818471
Core_0_L1D_prefetch_pollution_evict 57164
Core_0_L1D_prefetch_pollution_demand 57164
Core_0_L1D_prefetch_pollution_among_prefetch_fill 0.322421
Core_0_L1D_prefetch_accuracy 0.017254
Core_0_L1D_prefetch_coverage 0.0336036

Core_0_L2C_total_access 12102441
Core_0_L2C_total_hit 7952623
Core_0_L2C_total_miss 4149818
Core_0_L2C_total_MPKI 41.4982
Core_0_L2C_total_miss_rate 0.342891
Core_0_L2C_demand_access 5036561
Core_0_L2C_demand_hit 1395973
Core_0_L2C_demand_miss 3640588
Core_0_L2C_demand_MPKI 36.4059
Core_0_L2C_demand_miss_rate 0.722832
Core_0_L2C_load_access 3284284
Core_0_L2C_load_hit 1378795
Core_0_L2C_load_miss 1905489
Core_0_L2C_load_MPKI 19.0549
Core_0_L2C_load_miss_rate 0.580184
Core_0_L2C_rfo_access 1752277
Core_0_L2C_rfo_hit 17178
Core_0_L2C_rfo_miss 1735099
Core_0_L2C_rfo_MPKI 17.351
Core_0_L2C_rfo_miss_rate 0.990197
Core_0_L2C_prefetch_access 4456700
Core_0_L2C_prefetch_hit 3947670
Core_0_L2C_prefetch_miss 509030
Core_0_L2C_prefetch_MPKI 5.0903
Core_0_L2C_prefetch_miss_rate 0.114217
Core_0_L2C_writeback_access 2609180
Core_0_L2C_writeback_hit 2608980
Core_0_L2C_writeback_miss 200
Core_0_L2C_writeback_MPKI 0.002
Core_0_L2C_writeback_miss_rate 7.66524e-05
Core_0_L2C_prefetch_requested 1454154
Core_0_L2C_prefetch_issued 1454051
Core_0_L2C_prefetch_useful 137239
Core_0_L2C_prefetch_useless 12441
Core_0_L2C_prefetch_late 42143
Core_0_L2C_prefetch_fill 185414
Core_0_L2C_prefetch_too_early 7419
Core_0_L2C_prefetch_too_early_among_fill 0.0400132
Core_0_L2C_prefetch_too_early_among_useless 0.596335
Core_0_L2C_prefetch_pollution_evict 141353
Core_0_L2C_prefetch_pollution_demand 141122
Core_0_L2C_prefetch_pollution_among_prefetch_fill 0.762364
Core_0_L2C_prefetch_accuracy 0.0943839
Core_0_L2C_prefetch_coverage 0.0363275

Core_0_LLC_total_access 6436974
Core_0_LLC_total_hit 1031800
Core_0_LLC_total_miss 5405174
Core_0_LLC_total_MPKI 54.0517
Core_0_LLC_total_miss_rate 0.839707
Core_0_LLC_demand_access 3593927
Core_0_LLC_demand_hit 322565
Core_0_LLC_demand_miss 3271362
Core_0_LLC_demand_MPKI 32.7136
Core_0_LLC_demand_miss_rate 0.910247
Core_0_LLC_load_access 1860003
Core_0_LLC_load_hit 98796
Core_0_LLC_load_miss 1761207
Core_0_LLC_load_MPKI 17.6121
Core_0_LLC_load_miss_rate 0.946884
Core_0_LLC_rfo_access 1733924
Core_0_LLC_rfo_hit 223769
Core_0_LLC_rfo_miss 1510155
Core_0_LLC_rfo_MPKI 15.1015
Core_0_LLC_rfo_miss_rate 0.870946
Core_0_LLC_prefetch_access 321238
Core_0_LLC_prefetch_hit 48303
Core_0_LLC_prefetch_miss 272935
Core_0_LLC_prefetch_MPKI 2.72935
Core_0_LLC_prefetch_miss_rate 0.849635
Core_0_LLC_writeback_access 2521809
Core_0_LLC_writeback_hit 660932
Core_0_LLC_writeback_miss 1860877
Core_0_LLC_writeback_MPKI 18.6088
Core_0_LLC_writeback_miss_rate 0.737914
Core_0_LLC_prefetch_requested 0
Core_0_LLC_prefetch_issued 0
Core_0_LLC_prefetch_useful 0
Core_0_LLC_prefetch_useless 0
Core_0_LLC_prefetch_late 0
Core_0_LLC_prefetch_fill 228339
Core_0_LLC_prefetch_too_early 0
Core_0_LLC_prefetch_too_early_among_fill 0
Core_0_LLC_prefetch_too_early_among_useless 0
Core_0_LLC_prefetch_pollution_evict 134587
Core_0_LLC_prefetch_pollution_demand 134587
Core_0_LLC_prefetch_pollution_among_prefetch_fill 0.589417
Core_0_LLC_prefetch_accuracy 0
Core_0_LLC_prefetch_coverage 0

[DRAM Statistics]
Channel_0_RQ_row_buffer_hit 158306
Channel_0_RQ_row_buffer_miss 3465786
Channel_0_WQ_row_buffer_hit 444811
Channel_0_WQ_row_buffer_miss 1782007
Channel_0_WQ_full 2152
Channel_0_dbus_congested 25454042
DRAM_total_RQ_row_buffer_hit 158306
DRAM_total_RQ_row_buffer_miss 3465786
DRAM_total_WQ_row_buffer_hit 444811
DRAM_total_WQ_row_buffer_miss 1782007
DRAM_total_WQ_full 2152
DRAM_total_dbus_congested 25454042
DRAM_avg_congested_cycle 15.1419

====== DRAM_RQ_TRAFFIC ========
DRAM_RQ_READ_TRAFFIC_BREAKDOWN:
data_demand_read.count = 3267286
data_demand_read.share = 90.14%

inst_demand_read.count = 16
inst_demand_read.share = 0.00%

cache_inst_prefetch.count = 0
cache_inst_prefetch.share = 0.00%

cache_data_prefetch.count = 232399
cache_data_prefetch.share = 6.41%

stlb_data_demand.count = 122082
stlb_data_demand.share = 3.37%

stlb_inst_demand.count = 0
stlb_inst_demand.share = 0.00%

stlb_l1i_pref.count = 0
stlb_l1i_pref.share = 0.00%

stlb_l1d_pref.count = 3056
stlb_l1d_pref.share = 0.08%

DRAM_RQ_READ_TRAFFIC_SUMMARY:
cache_demand.count = 3267302
cache_demand.share = 90.14%

cache_prefetch.count = 232399
cache_prefetch.share = 6.41%

stlb_demand.count = 122082
stlb_demand.share = 3.37%

stlb_prefetch.count = 3056
stlb_prefetch.share = 0.08%

DRAM_RQ_READ_TRAFFIC_DEBUG:
total_classified_read.count = 3624839
unclassified_read.count = 0
total_read_with_other.count = 3624839

classified_plus_unclassified_check.count = 3624839
dram_rq_read_total_observed.count = 3624839
dram_rq_read_total_observed.per_1K_instructions = 36.2484

STLB_MISS_PTW_DRAM_TOUCH_BREAKDOWN:
stlb_miss_total.count = 1721653

stlb_miss_touch_dram.count = 151737
stlb_miss_touch_dram.share = 8.81%

stlb_miss_no_dram_touch.count = 1569916
stlb_miss_no_dram_touch.share = 91.19%

STLB_MISS_PTW_DRAM_TOUCH_DEBUG:
stlb_miss_touch_plus_no_touch.count = 1721653
stlb_miss_total_check.count = 1721653

======STLB miss causes ========
Core_0_STLB_miss_cause_breakdown
Core_0_STLB_cause_Demand_Data_miss 1703408
Core_0_STLB_cause_Demand_Data_miss_rate 0.500379
Core_0_STLB_cause_Demand_Instruction_miss 0
Core_0_STLB_cause_Demand_Instruction_miss_rate 0
Core_0_STLB_cause_L1D_Prefetch_miss 35211
Core_0_STLB_cause_L1D_Prefetch_miss_rate 0.0103433
Core_0_STLB_cause_L1D_Prefetch_Same_Page_miss 81
Core_0_STLB_cause_L1D_Prefetch_Same_Page_miss_rate 2.37939e-05
Core_0_STLB_cause_L1D_Prefetch_Cross_Page_miss 35130
Core_0_STLB_cause_L1D_Prefetch_Cross_Page_miss_rate 0.0103195
Core_0_STLB_cause_L1I_Prefetch_miss 0
Core_0_STLB_cause_L1I_Prefetch_miss_rate 0
Core_0_STLB_cause_Other_miss 0
Core_0_STLB_cause_Other_miss_rate 0
Core_0_STLB_Demand_miss 1703408
Core_0_STLB_Demand_miss_rate 0.500379
Core_0_STLB_L1D_Prefetch_miss 35211
Core_0_STLB_L1D_Prefetch_miss_rate 0.0103433
Core_0_STLB_Other_miss 0
Core_0_STLB_Other_miss_rate 0

========== vBerti-TLB Cross-page Flow Stats ==========

Core_0_vBerti_Requested 123302373
Core_0_vBerti_Cross_page_prefetch_in_Requested 49507859
Core_0_vBerti_Same_page_prefetch_in_Requested 73794514
Core_0_vBerti_Cross_page_prefetch_of_Requested 0.401516
Core_0_vBerti_Issued 9133006
Core_0_vBerti_InPQ_Same_page_prefetch 7917198
Core_0_vBerti_InPQ_Cross_page_prefetch 1215808
Core_0_vBerti_PQ_Drop_Rate 0.92593
Core_0_vBerti_InPQ_Cross_page_prefetch_of_Requested 0.00986038
Core_0_vBerti_Cross_page_PQ_Drop_rate 0.975442
Core_0_vBerti_Cross_page_prefetch_of_Issued 0.133122
Core_0_CP_PF_PQFULL_drop 48292051
Core_0_CP_PF_PQFULL_TLB_rescue_enqueued 488243
Core_0_CP_PF_PQFULL_TLB_rescue_issued 488243
Core_0_CP_PF_PQFULL_TLB_rescue_translated 488243

========= DTLB_vBerti Prefetch Stats =========
Core_0_DTLB_demand_access 38157108
Core_0_DTLB_demand_hit 33459105
Core_0_DTLB_demand_miss 4698003
Core_0_DTLB_demand_mshr_merge 1351724
Core_0_DTLB_demand_fill 3347709
Core_0_DTLB_demand_miss_rate 0.123123
Core_0_DTLB_demand_mpki 46.98
Core_0_DTLB_vberti_prefetch_access 6508782
Core_0_DTLB_vberti_prefetch_hit 6392958
Core_0_DTLB_vberti_prefetch_miss 115824
Core_0_DTLB_vberti_prefetch_mshr_merge 57867
Core_0_DTLB_vberti_prefetch_fill 56527
Core_0_DTLB_vberti_prefetch_miss_rate 0.017795
Core_0_DTLB_vberti_prefetch_mpki 1.15824

=== DTLB_vBerti Same/Cross-page Prefetch Stats ===
Core_0_DTLB_vberti_same_page_prefetch 5290319
Core_0_DTLB_vberti_same_page_prefetch_hit 5289425
Core_0_DTLB_vberti_same_page_prefetch_miss 894
Core_0_DTLB_vberti_same_page_prefetch_mshr_merge 248
Core_0_DTLB_vberti_same_page_prefetch_fill 627
Core_0_DTLB_vberti_same_page_prefetch_miss_rate 0.000168988
Core_0_DTLB_vberti_same_page_prefetch_mpki 0.00894
Core_0_DTLB_vberti_cross_page_prefetch 1218463
Core_0_DTLB_vberti_cross_page_prefetch_hit 1103533
Core_0_DTLB_vberti_cross_page_prefetch_miss 114930
Core_0_DTLB_vberti_cross_page_prefetch_mshr_merge 57619
Core_0_DTLB_vberti_cross_page_prefetch_fill 55900
Core_0_DTLB_vberti_cross_page_prefetch_miss_rate 0.0943238
Core_0_DTLB_vberti_cross_page_prefetch_mpki 1.1493
Core_0_DTLB_same_page_prefetch_miss_rate 0.000168988
Core_0_DTLB_same_page_prefetch_mpki 0.00894
Core_0_DTLB_cross_page_prefetch_miss_rate 0.0943238
Core_0_DTLB_cross_page_prefetch_mpki 1.1493
Core_0_DTLB_cross_page_prefetch_issued 1218463
Core_0_DTLB_cross_page_prefetch_lookups 1218463
Core_0_DTLB_cross_page_prefetch_useful 14134
Core_0_DTLB_cross_page_prefetch_useless 43177
Core_0_DTLB_cross_page_prefetch_late 1420
Core_0_DTLB_cross_page_prefetch_too_early 3737
Core_0_DTLB_cross_page_prefetch_too_early_among_fill 0.0668515
Core_0_DTLB_cross_page_prefetch_too_early_among_useless 0.0865507
Core_0_DTLB_cross_page_prefetch_pollution_evict 12891
Core_0_DTLB_cross_page_prefetch_pollution_demand 12592
Core_0_DTLB_cross_page_prefetch_pollution_among_prefetch_fill 0.230608
Core_0_DTLB_cross_page_prefetch_accuracy 0.0115999
Core_0_DTLB_cross_page_prefetch_coverage 0.00299949

========= STLB_vBerti Prefetch Stats =========
Core_0_STLB_demand_access 3346279
Core_0_STLB_demand_hit 1642871
Core_0_STLB_demand_miss 1703408
Core_0_STLB_demand_mshr_merge 0
Core_0_STLB_demand_fill 1703408
Core_0_STLB_demand_miss_rate 0.509045
Core_0_STLB_demand_mpki 17.0341
Core_0_STLB_vberti_prefetch_access 57957
Core_0_STLB_vberti_prefetch_hit 22746
Core_0_STLB_vberti_prefetch_miss 35211
Core_0_STLB_vberti_prefetch_mshr_merge 0
Core_0_STLB_vberti_prefetch_fill 81
Core_0_STLB_vberti_prefetch_miss_rate 0.607537
Core_0_STLB_vberti_prefetch_mpki 0.35211

=== STLB_vBerti Same/Cross-page Prefetch Stats ===
Core_0_STLB_vberti_same_page_prefetch 646
Core_0_STLB_vberti_same_page_prefetch_hit 565
Core_0_STLB_vberti_same_page_prefetch_miss 81
Core_0_STLB_vberti_same_page_prefetch_mshr_merge 0
Core_0_STLB_vberti_same_page_prefetch_fill 81
Core_0_STLB_vberti_same_page_prefetch_miss_rate 0.125387
Core_0_STLB_vberti_same_page_prefetch_mpki 0.00081
Core_0_STLB_vberti_cross_page_prefetch 57311
Core_0_STLB_vberti_cross_page_prefetch_hit 22181
Core_0_STLB_vberti_cross_page_prefetch_miss 35130
Core_0_STLB_vberti_cross_page_prefetch_mshr_merge 0
Core_0_STLB_vberti_cross_page_prefetch_fill 0
Core_0_STLB_vberti_cross_page_prefetch_miss_rate 0.612971
Core_0_STLB_vberti_cross_page_prefetch_mpki 0.3513
Core_0_STLB_same_page_prefetch_miss_rate 0.125387
Core_0_STLB_same_page_prefetch_mpki 0.00081
Core_0_STLB_cross_page_prefetch_miss_rate 0.612971
Core_0_STLB_cross_page_prefetch_mpki 0.3513
Core_0_STLB_cross_page_prefetch_issued 57311
Core_0_STLB_cross_page_prefetch_lookups 57311
Core_0_STLB_cross_page_prefetch_useful 16966
Core_0_STLB_cross_page_prefetch_useless 12584
Core_0_STLB_cross_page_prefetch_late 16966
Core_0_STLB_cross_page_prefetch_too_early 0
Core_0_STLB_cross_page_prefetch_too_early_among_fill 0
Core_0_STLB_cross_page_prefetch_too_early_among_useless 0
Core_0_STLB_cross_page_prefetch_pollution_evict 0
Core_0_STLB_cross_page_prefetch_pollution_demand 0
Core_0_STLB_cross_page_prefetch_pollution_among_prefetch_fill 0
Core_0_STLB_cross_page_prefetch_accuracy 0.296034
Core_0_STLB_cross_page_prefetch_coverage 0.00986181

========= STLB Cross-page Prefetch Buffer Stats =========
Core_0_STLB_raw_demand_miss 1703408
Core_0_CP_PB_insert 35130
Core_0_CP_PB_demand_hit 16966
Core_0_STLB_PB_demand_miss 1686442
Core_0_CP_PB_coverage 0.00996003
Core_0_STLB_raw_demand_mpki 17.0341
Core_0_STLB_PB_demand_mpki 16.8644
Core_0_CP_PB_demand_hit_mpki 0.16966

Core_0_TLB_demand_miss_rate 0.044642
Core_0_TLB_demand_mpki 17.0341
Core_0_TLB_same_page_prefetch_miss_rate 1.5311e-05
Core_0_TLB_same_page_prefetch_mpki 0.00081
Core_0_TLB_cross_page_prefetch_miss_rate 0.0288314
Core_0_TLB_cross_page_prefetch_mpki 0.3513
Core_0_TLB_cross_page_prefetch_issued 1218463
Core_0_TLB_cross_page_prefetch_lookups 1218463
Core_0_TLB_cross_page_prefetch_useful 6453
Core_0_TLB_cross_page_prefetch_useless 37035
Core_0_TLB_cross_page_prefetch_late 1073
Core_0_TLB_cross_page_prefetch_too_early 3359
Core_0_TLB_cross_page_prefetch_too_early_among_fill 0.0600894
Core_0_TLB_cross_page_prefetch_too_early_among_useless 0.090698
Core_0_TLB_cross_page_prefetch_accuracy 0.00529602
Core_0_TLB_cross_page_prefetch_coverage 0.00377399
BERTI TO_L1: 11200250 TO_L2: 123023177 TO_L2_BC_MSHR: 61927274
BERTI AVG_LAT: 204 NUM_TRACK_LATENCY: 7779670 NUM_CANT_TRACK_LATENCY: 725
BERTI CROSS_PAGE 51266118 NO_CROSS_PAGE: 82957309
BERTI FOUND_BERTI: 115311075 NO_FOUND_BERTI: 32732525
BERTI AVERAGE_ISSUED: 4.74399
