[VMEM] WARNING: physical memory size is smaller than virtual memory size.

*** ChampSim Multicore Out-of-Order Simulator ***
Warmup Instructions: 50000000
Simulation Instructions: 100000000
Number of CPUs: 1
Page size: 4096
Core 0: /data0/tzh/champsim_traces/SPEC17/620.omnetpp_s-141B.champsimtrace.xz
VBerti Prefetcher
BERTI HASH ENTANGLING
BERTI IP MASK ffff
Off-chip DRAM Size: 16 GiB Channels: 1 Width: 64-bit Data Rate: 3205 MT/s
Warmup halting CPU 0 at instruction 50000001 cycle 17271851 for remainder of phase
Warmup finished CPU 0 instructions: 50000001 cycles: 17271851 cumulative IPC: 2.895 (Simulation time: 00 hr 04 min 21 sec)
Warmup complete CPU 0 instructions: 50000001 cycles: 17271851 cumulative IPC: 2.895 (Simulation time: 00 hr 04 min 21 sec)
Simulation finished CPU 0 instructions: 100000002 cycles: 213839504 cumulative IPC: 0.4676 (Simulation time: 00 hr 29 min 14 sec)
Simulation complete CPU 0 instructions: 100000002 cycles: 213839504 cumulative IPC: 0.4676 (Simulation time: 00 hr 29 min 14 sec)

ChampSim completed all CPUs

=== Simulation ===
CPU 0 runs /data0/tzh/champsim_traces/SPEC17/620.omnetpp_s-141B.champsimtrace.xz

Region of Interest Statistics

CPU 0 cumulative IPC: 0.4676 instructions: 100000002 cycles: 213839504
CPU 0 Branch Prediction Accuracy: 95.75% MPKI: 8.935 Average ROB Occupancy at Mispredict: 79.78
Branch type MPKI
BRANCH_DIRECT_JUMP: 0.8347
BRANCH_INDIRECT: 0.3618
BRANCH_CONDITIONAL: 6.452
BRANCH_DIRECT_CALL: 5e-05
BRANCH_INDIRECT_CALL: 0.8507
BRANCH_RETURN: 0.4358

cpu0->cpu0_STLB TOTAL        ACCESS:    2274654 HIT:    1774085 MISS:     500569 MSHR_MERGE:          0
cpu0->cpu0_STLB LOAD         ACCESS:    2274654 HIT:    1774085 MISS:     500569 MSHR_MERGE:          0
cpu0->cpu0_STLB RFO          ACCESS:          0 HIT:          0 MISS:          0 MSHR_MERGE:          0
cpu0->cpu0_STLB PREFETCH     ACCESS:          0 HIT:          0 MISS:          0 MSHR_MERGE:          0
cpu0->cpu0_STLB WRITE        ACCESS:          0 HIT:          0 MISS:          0 MSHR_MERGE:          0
cpu0->cpu0_STLB TRANSLATION  ACCESS:          0 HIT:          0 MISS:          0 MSHR_MERGE:          0
cpu0->cpu0_STLB PREFETCH REQUESTED:          0 ISSUED:          0 USEFUL:          0 USELESS:          0 LATE:          0 TOO_EARLY:          0
cpu0->cpu0_STLB AVERAGE MISS LATENCY: 53.24 cycles
cpu0->cpu0_L2C TOTAL        ACCESS:    3428944 HIT:    1679461 MISS:    1749483 MSHR_MERGE:       1242
cpu0->cpu0_L2C LOAD         ACCESS:    1748818 HIT:     521799 MISS:    1227019 MSHR_MERGE:        144
cpu0->cpu0_L2C RFO          ACCESS:     236998 HIT:      52189 MISS:     184809 MSHR_MERGE:          0
cpu0->cpu0_L2C PREFETCH     ACCESS:      69409 HIT:      20883 MISS:      48526 MSHR_MERGE:       1098
cpu0->cpu0_L2C WRITE        ACCESS:     941548 HIT:     939671 MISS:       1877 MSHR_MERGE:          0
cpu0->cpu0_L2C TRANSLATION  ACCESS:     432171 HIT:     144919 MISS:     287252 MSHR_MERGE:          0
cpu0->cpu0_L2C PREFETCH REQUESTED:      24017 ISSUED:      24017 USEFUL:       7323 USELESS:       5271 LATE:          1 TOO_EARLY:       1477
cpu0->cpu0_L2C AVERAGE MISS LATENCY: 143.1 cycles
cpu0->cpu0_L1I TOTAL        ACCESS:   14800337 HIT:   14718660 MISS:      81677 MSHR_MERGE:      21344
cpu0->cpu0_L1I LOAD         ACCESS:   14800337 HIT:   14718660 MISS:      81677 MSHR_MERGE:      21344
cpu0->cpu0_L1I RFO          ACCESS:          0 HIT:          0 MISS:          0 MSHR_MERGE:          0
cpu0->cpu0_L1I PREFETCH     ACCESS:          0 HIT:          0 MISS:          0 MSHR_MERGE:          0
cpu0->cpu0_L1I WRITE        ACCESS:          0 HIT:          0 MISS:          0 MSHR_MERGE:          0
cpu0->cpu0_L1I TRANSLATION  ACCESS:          0 HIT:          0 MISS:          0 MSHR_MERGE:          0
cpu0->cpu0_L1I PREFETCH REQUESTED:          0 ISSUED:          0 USEFUL:          0 USELESS:          0 LATE:          0 TOO_EARLY:          0
cpu0->cpu0_L1I AVERAGE MISS LATENCY: 14.78 cycles
cpu0->cpu0_L1D TOTAL        ACCESS:   38344542 HIT:   34987079 MISS:    3357463 MSHR_MERGE:     954276
cpu0->cpu0_L1D LOAD         ACCESS:   19341866 HIT:   17156628 MISS:    2185238 MSHR_MERGE:     496752
cpu0->cpu0_L1D RFO          ACCESS:          0 HIT:          0 MISS:          0 MSHR_MERGE:          0
cpu0->cpu0_L1D PREFETCH     ACCESS:      48334 HIT:       2678 MISS:      45656 MSHR_MERGE:        131
cpu0->cpu0_L1D WRITE        ACCESS:   17782114 HIT:   17089006 MISS:     693108 MSHR_MERGE:     456103
cpu0->cpu0_L1D TRANSLATION  ACCESS:    1172228 HIT:     738767 MISS:     433461 MSHR_MERGE:       1290
cpu0->cpu0_L1D PREFETCH REQUESTED:      48339 ISSUED:      48334 USEFUL:       1239 USELESS:       2308 LATE:         33 TOO_EARLY:        311
cpu0->cpu0_L1D AVERAGE MISS LATENCY: 111.8 cycles
cpu0->cpu0_ITLB TOTAL        ACCESS:   13133322 HIT:   12817051 MISS:     316271 MSHR_MERGE:     159407
cpu0->cpu0_ITLB LOAD         ACCESS:   13133322 HIT:   12817051 MISS:     316271 MSHR_MERGE:     159407
cpu0->cpu0_ITLB RFO          ACCESS:          0 HIT:          0 MISS:          0 MSHR_MERGE:          0
cpu0->cpu0_ITLB PREFETCH     ACCESS:          0 HIT:          0 MISS:          0 MSHR_MERGE:          0
cpu0->cpu0_ITLB WRITE        ACCESS:          0 HIT:          0 MISS:          0 MSHR_MERGE:          0
cpu0->cpu0_ITLB TRANSLATION  ACCESS:          0 HIT:          0 MISS:          0 MSHR_MERGE:          0
cpu0->cpu0_ITLB PREFETCH REQUESTED:          0 ISSUED:          0 USEFUL:          0 USELESS:          0 LATE:          0 TOO_EARLY:          0
cpu0->cpu0_ITLB AVERAGE MISS LATENCY: 5.532 cycles
cpu0->cpu0_DTLB TOTAL        ACCESS:   35194289 HIT:   32620357 MISS:    2573932 MSHR_MERGE:     456143
cpu0->cpu0_DTLB LOAD         ACCESS:   35194289 HIT:   32620357 MISS:    2573932 MSHR_MERGE:     456143
cpu0->cpu0_DTLB RFO          ACCESS:          0 HIT:          0 MISS:          0 MSHR_MERGE:          0
cpu0->cpu0_DTLB PREFETCH     ACCESS:          0 HIT:          0 MISS:          0 MSHR_MERGE:          0
cpu0->cpu0_DTLB WRITE        ACCESS:          0 HIT:          0 MISS:          0 MSHR_MERGE:          0
cpu0->cpu0_DTLB TRANSLATION  ACCESS:          0 HIT:          0 MISS:          0 MSHR_MERGE:          0
cpu0->cpu0_DTLB PREFETCH REQUESTED:          0 ISSUED:          0 USEFUL:          0 USELESS:          0 LATE:          0 TOO_EARLY:          0
cpu0->cpu0_DTLB AVERAGE MISS LATENCY: 17.49 cycles
cpu0->LLC TOTAL        ACCESS:    2450420 HIT:    1239710 MISS:    1210710 MSHR_MERGE:          0
cpu0->LLC LOAD         ACCESS:    1226875 HIT:     289334 MISS:     937541 MSHR_MERGE:          0
cpu0->LLC RFO          ACCESS:     184809 HIT:      64864 MISS:     119945 MSHR_MERGE:          0
cpu0->LLC PREFETCH     ACCESS:      47428 HIT:       5056 MISS:      42372 MSHR_MERGE:          0
cpu0->LLC WRITE        ACCESS:     704056 HIT:     647671 MISS:      56385 MSHR_MERGE:          0
cpu0->LLC TRANSLATION  ACCESS:     287252 HIT:     232785 MISS:      54467 MSHR_MERGE:          0
cpu0->LLC PREFETCH REQUESTED:          0 ISSUED:          0 USEFUL:          0 USELESS:          0 LATE:          0 TOO_EARLY:          0
cpu0->LLC AVERAGE MISS LATENCY: 186 cycles

DRAM Statistics

Channel 0 RQ ROW_BUFFER_HIT:       6185
  ROW_BUFFER_MISS:    1148127
  AVG DBUS CONGESTED CYCLE: 17.82
Channel 0 WQ ROW_BUFFER_HIT:     142968
  ROW_BUFFER_MISS:     354429
  FULL:          0
Channel 0 REFRESHES ISSUED:      17820

[ROI Statistics]
[System Configuration]
num_cpus 1
cpu_freq 4000
fetch_width 6
decode_width 6
dispatch_width 6
execute_width 6
lq_width 2
sq_width 2
retire_width 6
scheduler_size 128
branch_mispredict_penalty 15
rob_size 352
lq_size 128
sq_size 72
ifetch_buffer_size 64
decode_buffer_size 32
dispatch_buffer_size 32
register_file_size 288
decode_latency 1
dispatch_latency 1
schedule_latency 1
execute_latency 1
page_size 4096
block_size 64
core_0_itlb_set 16
core_0_itlb_way 4
core_0_itlb_rq_size 16
core_0_itlb_wq_size 16
core_0_itlb_pq_size 0
core_0_itlb_mshr_size 8
core_0_itlb_hit_latency 1
core_0_itlb_fill_latency 1
core_0_itlb_max_tag_check 2
core_0_itlb_max_fill 2
core_0_dtlb_set 16
core_0_dtlb_way 4
core_0_dtlb_rq_size 16
core_0_dtlb_wq_size 16
core_0_dtlb_pq_size 0
core_0_dtlb_mshr_size 8
core_0_dtlb_hit_latency 1
core_0_dtlb_fill_latency 1
core_0_dtlb_max_tag_check 2
core_0_dtlb_max_fill 2
core_0_stlb_set 128
core_0_stlb_way 12
core_0_stlb_rq_size 32
core_0_stlb_wq_size 32
core_0_stlb_pq_size 0
core_0_stlb_mshr_size 16
core_0_stlb_hit_latency 4
core_0_stlb_fill_latency 4
core_0_stlb_max_tag_check 1
core_0_stlb_max_fill 1
core_0_l1i_set 64
core_0_l1i_way 8
core_0_l1i_rq_size 64
core_0_l1i_wq_size 64
core_0_l1i_pq_size 32
core_0_l1i_mshr_size 8
core_0_l1i_hit_latency 2
core_0_l1i_fill_latency 2
core_0_l1i_max_tag_check 2
core_0_l1i_max_fill 2
core_0_l1d_set 64
core_0_l1d_way 12
core_0_l1d_rq_size 64
core_0_l1d_wq_size 64
core_0_l1d_pq_size 8
core_0_l1d_mshr_size 16
core_0_l1d_hit_latency 2
core_0_l1d_fill_latency 3
core_0_l1d_max_tag_check 2
core_0_l1d_max_fill 2
core_0_l2c_set 1024
core_0_l2c_way 8
core_0_l2c_rq_size 32
core_0_l2c_wq_size 32
core_0_l2c_pq_size 16
core_0_l2c_mshr_size 32
core_0_l2c_hit_latency 5
core_0_l2c_fill_latency 5
core_0_l2c_max_tag_check 1
core_0_l2c_max_fill 1
llc_set 2048
llc_way 16
llc_rq_size 32
llc_wq_size 32
llc_pq_size 32
llc_mshr_size 64
llc_hit_latency 10
llc_fill_latency 10
llc_max_tag_check 1
llc_max_fill 1
dram_channels 1
dram_ranks 1
dram_bankgroups 8
dram_banks 4
dram_rows 65536
dram_columns 1024
dram_channel_width 8
dram_rq_size 64
dram_wq_size 64
dram_size 17179869184
core_0_itlb_prefetcher no
core_0_dtlb_prefetcher no
core_0_stlb_prefetcher no
core_0_l1i_prefetcher next_line
core_0_l1d_prefetcher vberti
core_0_l2c_prefetcher ip_stride
llc_prefetcher no
llc_replacement drrip

Core_0_instructions 100000002
Core_0_cycles 213839504
Core_0_IPC 0.46764
Core_0_branch_prediction_accuracy 95.7459
Core_0_branch_MPKI 8.9354
Core_0_average_ROB_occupancy_at_mispredict 79.7752

Core_0_ITLB_total_access 13133322
Core_0_ITLB_total_hit 12817051
Core_0_ITLB_total_miss 316271
Core_0_ITLB_total_MPKI 3.16271
Core_0_ITLB_total_miss_rate 0.0240816
Core_0_ITLB_demand_access 13133322
Core_0_ITLB_demand_hit 12817051
Core_0_ITLB_demand_miss 316271
Core_0_ITLB_demand_MPKI 3.16271
Core_0_ITLB_demand_miss_rate 0.0240816
Core_0_ITLB_load_access 13133322
Core_0_ITLB_load_hit 12817051
Core_0_ITLB_load_miss 316271
Core_0_ITLB_load_MPKI 3.16271
Core_0_ITLB_load_miss_rate 0.0240816
Core_0_ITLB_rfo_access 0
Core_0_ITLB_rfo_hit 0
Core_0_ITLB_rfo_miss 0
Core_0_ITLB_rfo_MPKI 0
Core_0_ITLB_rfo_miss_rate 0
Core_0_ITLB_prefetch_access 0
Core_0_ITLB_prefetch_hit 0
Core_0_ITLB_prefetch_miss 0
Core_0_ITLB_prefetch_MPKI 0
Core_0_ITLB_prefetch_miss_rate 0
Core_0_ITLB_writeback_access 0
Core_0_ITLB_writeback_hit 0
Core_0_ITLB_writeback_miss 0
Core_0_ITLB_writeback_MPKI 0
Core_0_ITLB_writeback_miss_rate 0
Core_0_ITLB_prefetch_requested 0
Core_0_ITLB_prefetch_issued 0
Core_0_ITLB_prefetch_useful 0
Core_0_ITLB_prefetch_useless 0
Core_0_ITLB_prefetch_late 0
Core_0_ITLB_prefetch_fill 0
Core_0_ITLB_prefetch_too_early 0
Core_0_ITLB_prefetch_too_early_among_fill 0
Core_0_ITLB_prefetch_too_early_among_useless 0
Core_0_ITLB_prefetch_pollution_evict 0
Core_0_ITLB_prefetch_pollution_demand 0
Core_0_ITLB_prefetch_pollution_among_prefetch_fill 0
Core_0_ITLB_prefetch_accuracy 0
Core_0_ITLB_prefetch_coverage 0

Core_0_DTLB_total_access 35194289
Core_0_DTLB_total_hit 32620357
Core_0_DTLB_total_miss 2573932
Core_0_DTLB_total_MPKI 25.7393
Core_0_DTLB_total_miss_rate 0.0731349
Core_0_DTLB_demand_access 35194289
Core_0_DTLB_demand_hit 32620357
Core_0_DTLB_demand_miss 2573932
Core_0_DTLB_demand_MPKI 25.7393
Core_0_DTLB_demand_miss_rate 0.0731349
Core_0_DTLB_load_access 35194289
Core_0_DTLB_load_hit 32620357
Core_0_DTLB_load_miss 2573932
Core_0_DTLB_load_MPKI 25.7393
Core_0_DTLB_load_miss_rate 0.0731349
Core_0_DTLB_rfo_access 0
Core_0_DTLB_rfo_hit 0
Core_0_DTLB_rfo_miss 0
Core_0_DTLB_rfo_MPKI 0
Core_0_DTLB_rfo_miss_rate 0
Core_0_DTLB_prefetch_access 0
Core_0_DTLB_prefetch_hit 0
Core_0_DTLB_prefetch_miss 0
Core_0_DTLB_prefetch_MPKI 0
Core_0_DTLB_prefetch_miss_rate 0
Core_0_DTLB_writeback_access 0
Core_0_DTLB_writeback_hit 0
Core_0_DTLB_writeback_miss 0
Core_0_DTLB_writeback_MPKI 0
Core_0_DTLB_writeback_miss_rate 0
Core_0_DTLB_prefetch_requested 0
Core_0_DTLB_prefetch_issued 0
Core_0_DTLB_prefetch_useful 0
Core_0_DTLB_prefetch_useless 0
Core_0_DTLB_prefetch_late 0
Core_0_DTLB_prefetch_fill 0
Core_0_DTLB_prefetch_too_early 0
Core_0_DTLB_prefetch_too_early_among_fill 0
Core_0_DTLB_prefetch_too_early_among_useless 0
Core_0_DTLB_prefetch_pollution_evict 0
Core_0_DTLB_prefetch_pollution_demand 0
Core_0_DTLB_prefetch_pollution_among_prefetch_fill 0
Core_0_DTLB_prefetch_accuracy 0
Core_0_DTLB_prefetch_coverage 0

Core_0_STLB_total_access 2274654
Core_0_STLB_total_hit 1774085
Core_0_STLB_total_miss 500569
Core_0_STLB_total_MPKI 5.00569
Core_0_STLB_total_miss_rate 0.220064
Core_0_STLB_demand_access 2274654
Core_0_STLB_demand_hit 1774085
Core_0_STLB_demand_miss 500569
Core_0_STLB_demand_MPKI 5.00569
Core_0_STLB_demand_miss_rate 0.220064
Core_0_STLB_load_access 2274654
Core_0_STLB_load_hit 1774085
Core_0_STLB_load_miss 500569
Core_0_STLB_load_MPKI 5.00569
Core_0_STLB_load_miss_rate 0.220064
Core_0_STLB_rfo_access 0
Core_0_STLB_rfo_hit 0
Core_0_STLB_rfo_miss 0
Core_0_STLB_rfo_MPKI 0
Core_0_STLB_rfo_miss_rate 0
Core_0_STLB_prefetch_access 0
Core_0_STLB_prefetch_hit 0
Core_0_STLB_prefetch_miss 0
Core_0_STLB_prefetch_MPKI 0
Core_0_STLB_prefetch_miss_rate 0
Core_0_STLB_writeback_access 0
Core_0_STLB_writeback_hit 0
Core_0_STLB_writeback_miss 0
Core_0_STLB_writeback_MPKI 0
Core_0_STLB_writeback_miss_rate 0
Core_0_STLB_prefetch_requested 0
Core_0_STLB_prefetch_issued 0
Core_0_STLB_prefetch_useful 0
Core_0_STLB_prefetch_useless 0
Core_0_STLB_prefetch_late 0
Core_0_STLB_prefetch_fill 0
Core_0_STLB_prefetch_too_early 0
Core_0_STLB_prefetch_too_early_among_fill 0
Core_0_STLB_prefetch_too_early_among_useless 0
Core_0_STLB_prefetch_pollution_evict 0
Core_0_STLB_prefetch_pollution_demand 0
Core_0_STLB_prefetch_pollution_among_prefetch_fill 0
Core_0_STLB_prefetch_accuracy 0
Core_0_STLB_prefetch_coverage 0

Core_0_L1I_total_access 14800337
Core_0_L1I_total_hit 14718660
Core_0_L1I_total_miss 81677
Core_0_L1I_total_MPKI 0.81677
Core_0_L1I_total_miss_rate 0.00551859
Core_0_L1I_demand_access 14800337
Core_0_L1I_demand_hit 14718660
Core_0_L1I_demand_miss 81677
Core_0_L1I_demand_MPKI 0.81677
Core_0_L1I_demand_miss_rate 0.00551859
Core_0_L1I_load_access 14800337
Core_0_L1I_load_hit 14718660
Core_0_L1I_load_miss 81677
Core_0_L1I_load_MPKI 0.81677
Core_0_L1I_load_miss_rate 0.00551859
Core_0_L1I_rfo_access 0
Core_0_L1I_rfo_hit 0
Core_0_L1I_rfo_miss 0
Core_0_L1I_rfo_MPKI 0
Core_0_L1I_rfo_miss_rate 0
Core_0_L1I_prefetch_access 0
Core_0_L1I_prefetch_hit 0
Core_0_L1I_prefetch_miss 0
Core_0_L1I_prefetch_MPKI 0
Core_0_L1I_prefetch_miss_rate 0
Core_0_L1I_writeback_access 0
Core_0_L1I_writeback_hit 0
Core_0_L1I_writeback_miss 0
Core_0_L1I_writeback_MPKI 0
Core_0_L1I_writeback_miss_rate 0
Core_0_L1I_prefetch_requested 0
Core_0_L1I_prefetch_issued 0
Core_0_L1I_prefetch_useful 0
Core_0_L1I_prefetch_useless 0
Core_0_L1I_prefetch_late 0
Core_0_L1I_prefetch_fill 0
Core_0_L1I_prefetch_too_early 0
Core_0_L1I_prefetch_too_early_among_fill 0
Core_0_L1I_prefetch_too_early_among_useless 0
Core_0_L1I_prefetch_pollution_evict 0
Core_0_L1I_prefetch_pollution_demand 0
Core_0_L1I_prefetch_pollution_among_prefetch_fill 0
Core_0_L1I_prefetch_accuracy 0
Core_0_L1I_prefetch_coverage 0

Core_0_L1D_total_access 37172314
Core_0_L1D_total_hit 34248312
Core_0_L1D_total_miss 2924002
Core_0_L1D_total_MPKI 29.24
Core_0_L1D_total_miss_rate 0.0786607
Core_0_L1D_demand_access 19341866
Core_0_L1D_demand_hit 17156628
Core_0_L1D_demand_miss 2185238
Core_0_L1D_demand_MPKI 21.8524
Core_0_L1D_demand_miss_rate 0.11298
Core_0_L1D_load_access 19341866
Core_0_L1D_load_hit 17156628
Core_0_L1D_load_miss 2185238
Core_0_L1D_load_MPKI 21.8524
Core_0_L1D_load_miss_rate 0.11298
Core_0_L1D_rfo_access 0
Core_0_L1D_rfo_hit 0
Core_0_L1D_rfo_miss 0
Core_0_L1D_rfo_MPKI 0
Core_0_L1D_rfo_miss_rate 0
Core_0_L1D_prefetch_access 48334
Core_0_L1D_prefetch_hit 2678
Core_0_L1D_prefetch_miss 45656
Core_0_L1D_prefetch_MPKI 0.45656
Core_0_L1D_prefetch_miss_rate 0.944594
Core_0_L1D_writeback_access 17782114
Core_0_L1D_writeback_hit 17089006
Core_0_L1D_writeback_miss 693108
Core_0_L1D_writeback_MPKI 6.93108
Core_0_L1D_writeback_miss_rate 0.0389778
Core_0_L1D_prefetch_requested 48339
Core_0_L1D_prefetch_issued 48334
Core_0_L1D_prefetch_useful 1239
Core_0_L1D_prefetch_useless 2308
Core_0_L1D_prefetch_late 33
Core_0_L1D_prefetch_fill 3514
Core_0_L1D_prefetch_too_early 311
Core_0_L1D_prefetch_too_early_among_fill 0.0885031
Core_0_L1D_prefetch_too_early_among_useless 0.134749
Core_0_L1D_prefetch_pollution_evict 1532
Core_0_L1D_prefetch_pollution_demand 1532
Core_0_L1D_prefetch_pollution_among_prefetch_fill 0.43597
Core_0_L1D_prefetch_accuracy 0.0256341
Core_0_L1D_prefetch_coverage 0.000566665

Core_0_L2C_total_access 2996773
Core_0_L2C_total_hit 1534542
Core_0_L2C_total_miss 1462231
Core_0_L2C_total_MPKI 14.6223
Core_0_L2C_total_miss_rate 0.487935
Core_0_L2C_demand_access 1985816
Core_0_L2C_demand_hit 573988
Core_0_L2C_demand_miss 1411828
Core_0_L2C_demand_MPKI 14.1183
Core_0_L2C_demand_miss_rate 0.710956
Core_0_L2C_load_access 1748818
Core_0_L2C_load_hit 521799
Core_0_L2C_load_miss 1227019
Core_0_L2C_load_MPKI 12.2702
Core_0_L2C_load_miss_rate 0.701628
Core_0_L2C_rfo_access 236998
Core_0_L2C_rfo_hit 52189
Core_0_L2C_rfo_miss 184809
Core_0_L2C_rfo_MPKI 1.84809
Core_0_L2C_rfo_miss_rate 0.779791
Core_0_L2C_prefetch_access 69409
Core_0_L2C_prefetch_hit 20883
Core_0_L2C_prefetch_miss 48526
Core_0_L2C_prefetch_MPKI 0.48526
Core_0_L2C_prefetch_miss_rate 0.699131
Core_0_L2C_writeback_access 941548
Core_0_L2C_writeback_hit 939671
Core_0_L2C_writeback_miss 1877
Core_0_L2C_writeback_MPKI 0.01877
Core_0_L2C_writeback_miss_rate 0.00199353
Core_0_L2C_prefetch_requested 24017
Core_0_L2C_prefetch_issued 24017
Core_0_L2C_prefetch_useful 7323
Core_0_L2C_prefetch_useless 5271
Core_0_L2C_prefetch_late 1
Core_0_L2C_prefetch_fill 47284
Core_0_L2C_prefetch_too_early 1477
Core_0_L2C_prefetch_too_early_among_fill 0.0312368
Core_0_L2C_prefetch_too_early_among_useless 0.280212
Core_0_L2C_prefetch_pollution_evict 18343
Core_0_L2C_prefetch_pollution_demand 18319
Core_0_L2C_prefetch_pollution_among_prefetch_fill 0.387932
Core_0_L2C_prefetch_accuracy 0.304909
Core_0_L2C_prefetch_coverage 0.00516013

Core_0_LLC_total_access 2163168
Core_0_LLC_total_hit 1006925
Core_0_LLC_total_miss 1156243
Core_0_LLC_total_MPKI 11.5624
Core_0_LLC_total_miss_rate 0.534514
Core_0_LLC_demand_access 1411684
Core_0_LLC_demand_hit 354198
Core_0_LLC_demand_miss 1057486
Core_0_LLC_demand_MPKI 10.5749
Core_0_LLC_demand_miss_rate 0.749095
Core_0_LLC_load_access 1226875
Core_0_LLC_load_hit 289334
Core_0_LLC_load_miss 937541
Core_0_LLC_load_MPKI 9.37541
Core_0_LLC_load_miss_rate 0.76417
Core_0_LLC_rfo_access 184809
Core_0_LLC_rfo_hit 64864
Core_0_LLC_rfo_miss 119945
Core_0_LLC_rfo_MPKI 1.19945
Core_0_LLC_rfo_miss_rate 0.649021
Core_0_LLC_prefetch_access 47428
Core_0_LLC_prefetch_hit 5056
Core_0_LLC_prefetch_miss 42372
Core_0_LLC_prefetch_MPKI 0.42372
Core_0_LLC_prefetch_miss_rate 0.893396
Core_0_LLC_writeback_access 704056
Core_0_LLC_writeback_hit 647671
Core_0_LLC_writeback_miss 56385
Core_0_LLC_writeback_MPKI 0.56385
Core_0_LLC_writeback_miss_rate 0.080086
Core_0_LLC_prefetch_requested 0
Core_0_LLC_prefetch_issued 0
Core_0_LLC_prefetch_useful 0
Core_0_LLC_prefetch_useless 0
Core_0_LLC_prefetch_late 0
Core_0_LLC_prefetch_fill 42372
Core_0_LLC_prefetch_too_early 0
Core_0_LLC_prefetch_too_early_among_fill 0
Core_0_LLC_prefetch_too_early_among_useless 0
Core_0_LLC_prefetch_pollution_evict 23642
Core_0_LLC_prefetch_pollution_demand 23642
Core_0_LLC_prefetch_pollution_among_prefetch_fill 0.557963
Core_0_LLC_prefetch_accuracy 0
Core_0_LLC_prefetch_coverage 0

[DRAM Statistics]
Channel_0_RQ_row_buffer_hit 6185
Channel_0_RQ_row_buffer_miss 1148127
Channel_0_WQ_row_buffer_hit 142968
Channel_0_WQ_row_buffer_miss 354429
Channel_0_WQ_full 0
Channel_0_dbus_congested 5087948
DRAM_total_RQ_row_buffer_hit 6185
DRAM_total_RQ_row_buffer_miss 1148127
DRAM_total_WQ_row_buffer_hit 142968
DRAM_total_WQ_row_buffer_miss 354429
DRAM_total_WQ_full 0
DRAM_total_dbus_congested 5087948
DRAM_avg_congested_cycle 17.8237

====== DRAM_RQ_TRAFFIC ========
DRAM_RQ_READ_TRAFFIC_BREAKDOWN:
data_demand_read.count = 1055853
data_demand_read.share = 91.47%

inst_demand_read.count = 1633
inst_demand_read.share = 0.14%

cache_inst_prefetch.count = 0
cache_inst_prefetch.share = 0.00%

cache_data_prefetch.count = 42372
cache_data_prefetch.share = 3.67%

stlb_data_demand.count = 53857
stlb_data_demand.share = 4.67%

stlb_inst_demand.count = 125
stlb_inst_demand.share = 0.01%

stlb_l1i_pref.count = 0
stlb_l1i_pref.share = 0.00%

stlb_l1d_pref.count = 485
stlb_l1d_pref.share = 0.04%

DRAM_RQ_READ_TRAFFIC_SUMMARY:
cache_demand.count = 1057486
cache_demand.share = 91.61%

cache_prefetch.count = 42372
cache_prefetch.share = 3.67%

stlb_demand.count = 53982
stlb_demand.share = 4.68%

stlb_prefetch.count = 485
stlb_prefetch.share = 0.04%

DRAM_RQ_READ_TRAFFIC_DEBUG:
total_classified_read.count = 1154325
unclassified_read.count = 0
total_read_with_other.count = 1154325

classified_plus_unclassified_check.count = 1154325
dram_rq_read_total_observed.count = 1154325
dram_rq_read_total_observed.per_1K_instructions = 11.5432

STLB_MISS_PTW_DRAM_TOUCH_BREAKDOWN:
stlb_miss_total.count = 488987

stlb_miss_touch_dram.count = 54496
stlb_miss_touch_dram.share = 11.14%

stlb_miss_no_dram_touch.count = 434491
stlb_miss_no_dram_touch.share = 88.86%

STLB_MISS_PTW_DRAM_TOUCH_DEBUG:
stlb_miss_touch_plus_no_touch.count = 488987
stlb_miss_total_check.count = 488987

======STLB miss causes ========
Core_0_STLB_miss_cause_breakdown
Core_0_STLB_cause_Demand_Data_miss 482820
Core_0_STLB_cause_Demand_Data_miss_rate 0.212261
Core_0_STLB_cause_Demand_Instruction_miss 1665
Core_0_STLB_cause_Demand_Instruction_miss_rate 0.000731979
Core_0_STLB_cause_L1D_Prefetch_miss 16084
Core_0_STLB_cause_L1D_Prefetch_miss_rate 0.00707097
Core_0_STLB_cause_L1D_Prefetch_Same_Page_miss 0
Core_0_STLB_cause_L1D_Prefetch_Same_Page_miss_rate 0
Core_0_STLB_cause_L1D_Prefetch_Cross_Page_miss 16084
Core_0_STLB_cause_L1D_Prefetch_Cross_Page_miss_rate 0.00707097
Core_0_STLB_cause_L1I_Prefetch_miss 0
Core_0_STLB_cause_L1I_Prefetch_miss_rate 0
Core_0_STLB_cause_Other_miss 0
Core_0_STLB_cause_Other_miss_rate 0
Core_0_STLB_Demand_miss 484485
Core_0_STLB_Demand_miss_rate 0.212993
Core_0_STLB_L1D_Prefetch_miss 16084
Core_0_STLB_L1D_Prefetch_miss_rate 0.00707097
Core_0_STLB_Other_miss 0
Core_0_STLB_Other_miss_rate 0

========== vBerti-TLB Cross-page Flow Stats ==========

Core_0_vBerti_Requested 48339
Core_0_vBerti_Cross_page_prefetch_in_Requested 33604
Core_0_vBerti_Same_page_prefetch_in_Requested 14735
Core_0_vBerti_Cross_page_prefetch_of_Requested 0.695174
Core_0_vBerti_Issued 48334
Core_0_vBerti_InPQ_Same_page_prefetch 14735
Core_0_vBerti_InPQ_Cross_page_prefetch 33599
Core_0_vBerti_PQ_Drop_Rate 0.000103436
Core_0_vBerti_InPQ_Cross_page_prefetch_of_Requested 0.69507
Core_0_vBerti_Cross_page_PQ_Drop_rate 0.000148792
Core_0_vBerti_Cross_page_prefetch_of_Issued 0.695142
Core_0_CP_PF_PQFULL_drop 5
Core_0_CP_PF_PQFULL_TLB_rescue_enqueued 5
Core_0_CP_PF_PQFULL_TLB_rescue_issued 5
Core_0_CP_PF_PQFULL_TLB_rescue_translated 5

========= DTLB_vBerti Prefetch Stats =========
Core_0_DTLB_demand_access 35149613
Core_0_DTLB_demand_hit 32593868
Core_0_DTLB_demand_miss 2555745
Core_0_DTLB_demand_mshr_merge 455622
Core_0_DTLB_demand_fill 2100140
Core_0_DTLB_demand_miss_rate 0.0727105
Core_0_DTLB_demand_mpki 25.5574
Core_0_DTLB_vberti_prefetch_access 44676
Core_0_DTLB_vberti_prefetch_hit 26489
Core_0_DTLB_vberti_prefetch_miss 18187
Core_0_DTLB_vberti_prefetch_mshr_merge 521
Core_0_DTLB_vberti_prefetch_fill 17652
Core_0_DTLB_vberti_prefetch_miss_rate 0.407087
Core_0_DTLB_vberti_prefetch_mpki 0.18187

=== DTLB_vBerti Same/Cross-page Prefetch Stats ===
Core_0_DTLB_vberti_same_page_prefetch 11597
Core_0_DTLB_vberti_same_page_prefetch_hit 11597
Core_0_DTLB_vberti_same_page_prefetch_miss 0
Core_0_DTLB_vberti_same_page_prefetch_mshr_merge 0
Core_0_DTLB_vberti_same_page_prefetch_fill 0
Core_0_DTLB_vberti_same_page_prefetch_miss_rate 0
Core_0_DTLB_vberti_same_page_prefetch_mpki 0
Core_0_DTLB_vberti_cross_page_prefetch 33079
Core_0_DTLB_vberti_cross_page_prefetch_hit 14892
Core_0_DTLB_vberti_cross_page_prefetch_miss 18187
Core_0_DTLB_vberti_cross_page_prefetch_mshr_merge 521
Core_0_DTLB_vberti_cross_page_prefetch_fill 17652
Core_0_DTLB_vberti_cross_page_prefetch_miss_rate 0.549805
Core_0_DTLB_vberti_cross_page_prefetch_mpki 0.18187
Core_0_DTLB_same_page_prefetch_miss_rate 0
Core_0_DTLB_same_page_prefetch_mpki 0
Core_0_DTLB_cross_page_prefetch_miss_rate 0.549805
Core_0_DTLB_cross_page_prefetch_mpki 0.18187
Core_0_DTLB_cross_page_prefetch_issued 33079
Core_0_DTLB_cross_page_prefetch_lookups 33079
Core_0_DTLB_cross_page_prefetch_useful 2605
Core_0_DTLB_cross_page_prefetch_useless 15061
Core_0_DTLB_cross_page_prefetch_late 14
Core_0_DTLB_cross_page_prefetch_too_early 2953
Core_0_DTLB_cross_page_prefetch_too_early_among_fill 0.16729
Core_0_DTLB_cross_page_prefetch_too_early_among_useless 0.196069
Core_0_DTLB_cross_page_prefetch_pollution_evict 12505
Core_0_DTLB_cross_page_prefetch_pollution_demand 12434
Core_0_DTLB_cross_page_prefetch_pollution_among_prefetch_fill 0.708418
Core_0_DTLB_cross_page_prefetch_accuracy 0.0787509
Core_0_DTLB_cross_page_prefetch_coverage 0.00101823

========= STLB_vBerti Prefetch Stats =========
Core_0_STLB_demand_access 2256988
Core_0_STLB_demand_hit 1772503
Core_0_STLB_demand_miss 484485
Core_0_STLB_demand_mshr_merge 0
Core_0_STLB_demand_fill 484487
Core_0_STLB_demand_miss_rate 0.21466
Core_0_STLB_demand_mpki 4.84485
Core_0_STLB_vberti_prefetch_access 17666
Core_0_STLB_vberti_prefetch_hit 1582
Core_0_STLB_vberti_prefetch_miss 16084
Core_0_STLB_vberti_prefetch_mshr_merge 0
Core_0_STLB_vberti_prefetch_fill 0
Core_0_STLB_vberti_prefetch_miss_rate 0.910449
Core_0_STLB_vberti_prefetch_mpki 0.16084

=== STLB_vBerti Same/Cross-page Prefetch Stats ===
Core_0_STLB_vberti_same_page_prefetch 0
Core_0_STLB_vberti_same_page_prefetch_hit 0
Core_0_STLB_vberti_same_page_prefetch_miss 0
Core_0_STLB_vberti_same_page_prefetch_mshr_merge 0
Core_0_STLB_vberti_same_page_prefetch_fill 0
Core_0_STLB_vberti_same_page_prefetch_miss_rate 0
Core_0_STLB_vberti_same_page_prefetch_mpki 0
Core_0_STLB_vberti_cross_page_prefetch 17666
Core_0_STLB_vberti_cross_page_prefetch_hit 1582
Core_0_STLB_vberti_cross_page_prefetch_miss 16084
Core_0_STLB_vberti_cross_page_prefetch_mshr_merge 0
Core_0_STLB_vberti_cross_page_prefetch_fill 0
Core_0_STLB_vberti_cross_page_prefetch_miss_rate 0.910449
Core_0_STLB_vberti_cross_page_prefetch_mpki 0.16084
Core_0_STLB_same_page_prefetch_miss_rate 0
Core_0_STLB_same_page_prefetch_mpki 0
Core_0_STLB_cross_page_prefetch_miss_rate 0.910449
Core_0_STLB_cross_page_prefetch_mpki 0.16084
Core_0_STLB_cross_page_prefetch_issued 17666
Core_0_STLB_cross_page_prefetch_lookups 17666
Core_0_STLB_cross_page_prefetch_useful 11582
Core_0_STLB_cross_page_prefetch_useless 2147
Core_0_STLB_cross_page_prefetch_late 11582
Core_0_STLB_cross_page_prefetch_too_early 0
Core_0_STLB_cross_page_prefetch_too_early_among_fill 0
Core_0_STLB_cross_page_prefetch_too_early_among_useless 0
Core_0_STLB_cross_page_prefetch_pollution_evict 0
Core_0_STLB_cross_page_prefetch_pollution_demand 0
Core_0_STLB_cross_page_prefetch_pollution_among_prefetch_fill 0
Core_0_STLB_cross_page_prefetch_accuracy 0.65561
Core_0_STLB_cross_page_prefetch_coverage 0.0233477

========= STLB Cross-page Prefetch Buffer Stats =========
Core_0_STLB_raw_demand_miss 482820
Core_0_CP_PB_insert 16084
Core_0_CP_PB_demand_hit 11582
Core_0_STLB_PB_demand_miss 471238
Core_0_CP_PB_coverage 0.0239882
Core_0_STLB_raw_demand_mpki 4.8282
Core_0_STLB_PB_demand_mpki 4.71238
Core_0_CP_PB_demand_hit_mpki 0.11582

Core_0_TLB_demand_miss_rate 0.0137835
Core_0_TLB_demand_mpki 4.84485
Core_0_TLB_same_page_prefetch_miss_rate 0
Core_0_TLB_same_page_prefetch_mpki 0
Core_0_TLB_cross_page_prefetch_miss_rate 0.48623
Core_0_TLB_cross_page_prefetch_mpki 0.16084
Core_0_TLB_cross_page_prefetch_issued 33079
Core_0_TLB_cross_page_prefetch_lookups 33079
Core_0_TLB_cross_page_prefetch_useful 1942
Core_0_TLB_cross_page_prefetch_useless 14310
Core_0_TLB_cross_page_prefetch_late 13
Core_0_TLB_cross_page_prefetch_too_early 2679
Core_0_TLB_cross_page_prefetch_too_early_among_fill 0.151768
Core_0_TLB_cross_page_prefetch_too_early_among_useless 0.187212
Core_0_TLB_cross_page_prefetch_accuracy 0.0587079
Core_0_TLB_cross_page_prefetch_coverage 0.00399238
BERTI TO_L1: 11630 TO_L2: 76091 TO_L2_BC_MSHR: 0
BERTI AVG_LAT: 85.9689 NUM_TRACK_LATENCY: 2891961 NUM_CANT_TRACK_LATENCY: 0
BERTI CROSS_PAGE 56115 NO_CROSS_PAGE: 31606
BERTI FOUND_BERTI: 6794649 NO_FOUND_BERTI: 43133665
BERTI AVERAGE_ISSUED: 1.39599
