[VMEM] WARNING: physical memory size is smaller than virtual memory size.

*** ChampSim Multicore Out-of-Order Simulator ***
Warmup Instructions: 50000000
Simulation Instructions: 100000000
Number of CPUs: 1
Page size: 4096
Core 0: /data0/tzh/champsim_traces/SPEC17/623.xalancbmk_s-10B.champsimtrace.xz
VBerti Prefetcher
BERTI HASH ENTANGLING
BERTI IP MASK ffff
Off-chip DRAM Size: 16 GiB Channels: 1 Width: 64-bit Data Rate: 3205 MT/s
Warmup halting CPU 0 at instruction 50000003 cycle 11939536 for remainder of phase
Warmup finished CPU 0 instructions: 50000003 cycles: 11939536 cumulative IPC: 4.188 (Simulation time: 00 hr 02 min 36 sec)
Warmup complete CPU 0 instructions: 50000003 cycles: 11939536 cumulative IPC: 4.188 (Simulation time: 00 hr 02 min 36 sec)
Simulation finished CPU 0 instructions: 100000005 cycles: 147850882 cumulative IPC: 0.6764 (Simulation time: 00 hr 22 min 54 sec)
Simulation complete CPU 0 instructions: 100000005 cycles: 147850882 cumulative IPC: 0.6764 (Simulation time: 00 hr 22 min 54 sec)

ChampSim completed all CPUs

=== Simulation ===
CPU 0 runs /data0/tzh/champsim_traces/SPEC17/623.xalancbmk_s-10B.champsimtrace.xz

Region of Interest Statistics

CPU 0 cumulative IPC: 0.6764 instructions: 100000005 cycles: 147850882
CPU 0 Branch Prediction Accuracy: 99.28% MPKI: 1.862 Average ROB Occupancy at Mispredict: 101.1
Branch type MPKI
BRANCH_DIRECT_JUMP: 0.09703
BRANCH_INDIRECT: 0.018
BRANCH_CONDITIONAL: 1.23
BRANCH_DIRECT_CALL: 9e-05
BRANCH_INDIRECT_CALL: 0.1243
BRANCH_RETURN: 0.3927

cpu0->cpu0_STLB TOTAL        ACCESS:     725804 HIT:     241993 MISS:     483811 MSHR_MERGE:          0
cpu0->cpu0_STLB LOAD         ACCESS:     725804 HIT:     241993 MISS:     483811 MSHR_MERGE:          0
cpu0->cpu0_STLB RFO          ACCESS:          0 HIT:          0 MISS:          0 MSHR_MERGE:          0
cpu0->cpu0_STLB PREFETCH     ACCESS:          0 HIT:          0 MISS:          0 MSHR_MERGE:          0
cpu0->cpu0_STLB WRITE        ACCESS:          0 HIT:          0 MISS:          0 MSHR_MERGE:          0
cpu0->cpu0_STLB TRANSLATION  ACCESS:          0 HIT:          0 MISS:          0 MSHR_MERGE:          0
cpu0->cpu0_STLB PREFETCH REQUESTED:          0 ISSUED:          0 USEFUL:          0 USELESS:          0 LATE:          0 TOO_EARLY:          0
cpu0->cpu0_STLB AVERAGE MISS LATENCY: 47.51 cycles
cpu0->cpu0_L2C TOTAL        ACCESS:    3611919 HIT:     906241 MISS:    2705678 MSHR_MERGE:      42431
cpu0->cpu0_L2C LOAD         ACCESS:    2916633 HIT:     593458 MISS:    2323175 MSHR_MERGE:       3060
cpu0->cpu0_L2C RFO          ACCESS:      37157 HIT:      13739 MISS:      23418 MSHR_MERGE:         67
cpu0->cpu0_L2C PREFETCH     ACCESS:     456881 HIT:     213126 MISS:     243755 MSHR_MERGE:      39304
cpu0->cpu0_L2C WRITE        ACCESS:      80131 HIT:      79671 MISS:        460 MSHR_MERGE:          0
cpu0->cpu0_L2C TRANSLATION  ACCESS:     121117 HIT:       6247 MISS:     114870 MSHR_MERGE:          0
cpu0->cpu0_L2C PREFETCH REQUESTED:     247873 ISSUED:     244544 USEFUL:      68263 USELESS:      29497 LATE:        980 TOO_EARLY:       1823
cpu0->cpu0_L2C AVERAGE MISS LATENCY: 123.1 cycles
cpu0->cpu0_L1I TOTAL        ACCESS:   14763446 HIT:   14240016 MISS:     523430 MSHR_MERGE:     166721
cpu0->cpu0_L1I LOAD         ACCESS:   14763446 HIT:   14240016 MISS:     523430 MSHR_MERGE:     166721
cpu0->cpu0_L1I RFO          ACCESS:          0 HIT:          0 MISS:          0 MSHR_MERGE:          0
cpu0->cpu0_L1I PREFETCH     ACCESS:          0 HIT:          0 MISS:          0 MSHR_MERGE:          0
cpu0->cpu0_L1I WRITE        ACCESS:          0 HIT:          0 MISS:          0 MSHR_MERGE:          0
cpu0->cpu0_L1I TRANSLATION  ACCESS:          0 HIT:          0 MISS:          0 MSHR_MERGE:          0
cpu0->cpu0_L1I PREFETCH REQUESTED:          0 ISSUED:          0 USEFUL:          0 USELESS:          0 LATE:          0 TOO_EARLY:          0
cpu0->cpu0_L1I AVERAGE MISS LATENCY: 12.47 cycles
cpu0->cpu0_L1D TOTAL        ACCESS:   27607678 HIT:   21974626 MISS:    5633052 MSHR_MERGE:    2701367
cpu0->cpu0_L1D LOAD         ACCESS:   20913945 HIT:   15793787 MISS:    5120158 MSHR_MERGE:    2560233
cpu0->cpu0_L1D RFO          ACCESS:          0 HIT:          0 MISS:          0 MSHR_MERGE:          0
cpu0->cpu0_L1D PREFETCH     ACCESS:     833492 HIT:     619236 MISS:     214256 MSHR_MERGE:        771
cpu0->cpu0_L1D WRITE        ACCESS:    4922962 HIT:    4758764 MISS:     164198 MSHR_MERGE:     127040
cpu0->cpu0_L1D TRANSLATION  ACCESS:     937279 HIT:     802839 MISS:     134440 MSHR_MERGE:      13323
cpu0->cpu0_L1D PREFETCH REQUESTED:    4562462 ISSUED:     833492 USEFUL:      60040 USELESS:       5928 LATE:        762 TOO_EARLY:        887
cpu0->cpu0_L1D AVERAGE MISS LATENCY: 119.9 cycles
cpu0->cpu0_ITLB TOTAL        ACCESS:   13356719 HIT:   13191911 MISS:     164808 MSHR_MERGE:      98883
cpu0->cpu0_ITLB LOAD         ACCESS:   13356719 HIT:   13191911 MISS:     164808 MSHR_MERGE:      98883
cpu0->cpu0_ITLB RFO          ACCESS:          0 HIT:          0 MISS:          0 MSHR_MERGE:          0
cpu0->cpu0_ITLB PREFETCH     ACCESS:          0 HIT:          0 MISS:          0 MSHR_MERGE:          0
cpu0->cpu0_ITLB WRITE        ACCESS:          0 HIT:          0 MISS:          0 MSHR_MERGE:          0
cpu0->cpu0_ITLB TRANSLATION  ACCESS:          0 HIT:          0 MISS:          0 MSHR_MERGE:          0
cpu0->cpu0_ITLB PREFETCH REQUESTED:          0 ISSUED:          0 USEFUL:          0 USELESS:          0 LATE:          0 TOO_EARLY:          0
cpu0->cpu0_ITLB AVERAGE MISS LATENCY: 8.407 cycles
cpu0->cpu0_DTLB TOTAL        ACCESS:   25838194 HIT:   24356138 MISS:    1482056 MSHR_MERGE:     822177
cpu0->cpu0_DTLB LOAD         ACCESS:   25838194 HIT:   24356138 MISS:    1482056 MSHR_MERGE:     822177
cpu0->cpu0_DTLB RFO          ACCESS:          0 HIT:          0 MISS:          0 MSHR_MERGE:          0
cpu0->cpu0_DTLB PREFETCH     ACCESS:          0 HIT:          0 MISS:          0 MSHR_MERGE:          0
cpu0->cpu0_DTLB WRITE        ACCESS:          0 HIT:          0 MISS:          0 MSHR_MERGE:          0
cpu0->cpu0_DTLB TRANSLATION  ACCESS:          0 HIT:          0 MISS:          0 MSHR_MERGE:          0
cpu0->cpu0_DTLB PREFETCH REQUESTED:          0 ISSUED:          0 USEFUL:          0 USELESS:          0 LATE:          0 TOO_EARLY:          0
cpu0->cpu0_DTLB AVERAGE MISS LATENCY: 40.07 cycles
cpu0->LLC TOTAL        ACCESS:    2706634 HIT:    1273378 MISS:    1433256 MSHR_MERGE:       1335
cpu0->LLC LOAD         ACCESS:    2320115 HIT:    1108656 MISS:    1211459 MSHR_MERGE:        239
cpu0->LLC RFO          ACCESS:      23351 HIT:       8010 MISS:      15341 MSHR_MERGE:          2
cpu0->LLC PREFETCH     ACCESS:     204451 HIT:      73399 MISS:     131052 MSHR_MERGE:       1094
cpu0->LLC WRITE        ACCESS:      43847 HIT:      32931 MISS:      10916 MSHR_MERGE:          0
cpu0->LLC TRANSLATION  ACCESS:     114870 HIT:      50382 MISS:      64488 MSHR_MERGE:          0
cpu0->LLC PREFETCH REQUESTED:          0 ISSUED:          0 USEFUL:          0 USELESS:          0 LATE:          0 TOO_EARLY:          0
cpu0->LLC AVERAGE MISS LATENCY: 203.3 cycles

DRAM Statistics

Channel 0 RQ ROW_BUFFER_HIT:      21808
  ROW_BUFFER_MISS:    1399154
  AVG DBUS CONGESTED CYCLE: 8.212
Channel 0 WQ ROW_BUFFER_HIT:       9433
  ROW_BUFFER_MISS:      14246
  FULL:          0
Channel 0 REFRESHES ISSUED:      12321

[ROI Statistics]
[System Configuration]
num_cpus 1
cpu_freq 4000
fetch_width 6
decode_width 6
dispatch_width 6
execute_width 6
lq_width 2
sq_width 2
retire_width 6
scheduler_size 128
branch_mispredict_penalty 15
rob_size 352
lq_size 128
sq_size 72
ifetch_buffer_size 64
decode_buffer_size 32
dispatch_buffer_size 32
register_file_size 288
decode_latency 1
dispatch_latency 1
schedule_latency 1
execute_latency 1
page_size 4096
block_size 64
core_0_itlb_set 16
core_0_itlb_way 4
core_0_itlb_rq_size 16
core_0_itlb_wq_size 16
core_0_itlb_pq_size 0
core_0_itlb_mshr_size 8
core_0_itlb_hit_latency 1
core_0_itlb_fill_latency 1
core_0_itlb_max_tag_check 2
core_0_itlb_max_fill 2
core_0_dtlb_set 16
core_0_dtlb_way 4
core_0_dtlb_rq_size 16
core_0_dtlb_wq_size 16
core_0_dtlb_pq_size 0
core_0_dtlb_mshr_size 8
core_0_dtlb_hit_latency 1
core_0_dtlb_fill_latency 1
core_0_dtlb_max_tag_check 2
core_0_dtlb_max_fill 2
core_0_stlb_set 128
core_0_stlb_way 12
core_0_stlb_rq_size 32
core_0_stlb_wq_size 32
core_0_stlb_pq_size 0
core_0_stlb_mshr_size 16
core_0_stlb_hit_latency 4
core_0_stlb_fill_latency 4
core_0_stlb_max_tag_check 1
core_0_stlb_max_fill 1
core_0_l1i_set 64
core_0_l1i_way 8
core_0_l1i_rq_size 64
core_0_l1i_wq_size 64
core_0_l1i_pq_size 32
core_0_l1i_mshr_size 8
core_0_l1i_hit_latency 2
core_0_l1i_fill_latency 2
core_0_l1i_max_tag_check 2
core_0_l1i_max_fill 2
core_0_l1d_set 64
core_0_l1d_way 12
core_0_l1d_rq_size 64
core_0_l1d_wq_size 64
core_0_l1d_pq_size 8
core_0_l1d_mshr_size 16
core_0_l1d_hit_latency 2
core_0_l1d_fill_latency 3
core_0_l1d_max_tag_check 2
core_0_l1d_max_fill 2
core_0_l2c_set 1024
core_0_l2c_way 8
core_0_l2c_rq_size 32
core_0_l2c_wq_size 32
core_0_l2c_pq_size 16
core_0_l2c_mshr_size 32
core_0_l2c_hit_latency 5
core_0_l2c_fill_latency 5
core_0_l2c_max_tag_check 1
core_0_l2c_max_fill 1
llc_set 2048
llc_way 16
llc_rq_size 32
llc_wq_size 32
llc_pq_size 32
llc_mshr_size 64
llc_hit_latency 10
llc_fill_latency 10
llc_max_tag_check 1
llc_max_fill 1
dram_channels 1
dram_ranks 1
dram_bankgroups 8
dram_banks 4
dram_rows 65536
dram_columns 1024
dram_channel_width 8
dram_rq_size 64
dram_wq_size 64
dram_size 17179869184
core_0_itlb_prefetcher no
core_0_dtlb_prefetcher no
core_0_stlb_prefetcher no
core_0_l1i_prefetcher next_line
core_0_l1d_prefetcher vberti
core_0_l2c_prefetcher ip_stride
llc_prefetcher no
llc_replacement drrip

Core_0_instructions 100000005
Core_0_cycles 147850882
Core_0_IPC 0.676357
Core_0_branch_prediction_accuracy 99.2798
Core_0_branch_MPKI 1.86203
Core_0_average_ROB_occupancy_at_mispredict 101.125

Core_0_ITLB_total_access 13356719
Core_0_ITLB_total_hit 13191911
Core_0_ITLB_total_miss 164808
Core_0_ITLB_total_MPKI 1.64808
Core_0_ITLB_total_miss_rate 0.012339
Core_0_ITLB_demand_access 13356719
Core_0_ITLB_demand_hit 13191911
Core_0_ITLB_demand_miss 164808
Core_0_ITLB_demand_MPKI 1.64808
Core_0_ITLB_demand_miss_rate 0.012339
Core_0_ITLB_load_access 13356719
Core_0_ITLB_load_hit 13191911
Core_0_ITLB_load_miss 164808
Core_0_ITLB_load_MPKI 1.64808
Core_0_ITLB_load_miss_rate 0.012339
Core_0_ITLB_rfo_access 0
Core_0_ITLB_rfo_hit 0
Core_0_ITLB_rfo_miss 0
Core_0_ITLB_rfo_MPKI 0
Core_0_ITLB_rfo_miss_rate 0
Core_0_ITLB_prefetch_access 0
Core_0_ITLB_prefetch_hit 0
Core_0_ITLB_prefetch_miss 0
Core_0_ITLB_prefetch_MPKI 0
Core_0_ITLB_prefetch_miss_rate 0
Core_0_ITLB_writeback_access 0
Core_0_ITLB_writeback_hit 0
Core_0_ITLB_writeback_miss 0
Core_0_ITLB_writeback_MPKI 0
Core_0_ITLB_writeback_miss_rate 0
Core_0_ITLB_prefetch_requested 0
Core_0_ITLB_prefetch_issued 0
Core_0_ITLB_prefetch_useful 0
Core_0_ITLB_prefetch_useless 0
Core_0_ITLB_prefetch_late 0
Core_0_ITLB_prefetch_fill 0
Core_0_ITLB_prefetch_too_early 0
Core_0_ITLB_prefetch_too_early_among_fill 0
Core_0_ITLB_prefetch_too_early_among_useless 0
Core_0_ITLB_prefetch_pollution_evict 0
Core_0_ITLB_prefetch_pollution_demand 0
Core_0_ITLB_prefetch_pollution_among_prefetch_fill 0
Core_0_ITLB_prefetch_accuracy 0
Core_0_ITLB_prefetch_coverage 0

Core_0_DTLB_total_access 25838194
Core_0_DTLB_total_hit 24356138
Core_0_DTLB_total_miss 1482056
Core_0_DTLB_total_MPKI 14.8206
Core_0_DTLB_total_miss_rate 0.0573591
Core_0_DTLB_demand_access 25838194
Core_0_DTLB_demand_hit 24356138
Core_0_DTLB_demand_miss 1482056
Core_0_DTLB_demand_MPKI 14.8206
Core_0_DTLB_demand_miss_rate 0.0573591
Core_0_DTLB_load_access 25838194
Core_0_DTLB_load_hit 24356138
Core_0_DTLB_load_miss 1482056
Core_0_DTLB_load_MPKI 14.8206
Core_0_DTLB_load_miss_rate 0.0573591
Core_0_DTLB_rfo_access 0
Core_0_DTLB_rfo_hit 0
Core_0_DTLB_rfo_miss 0
Core_0_DTLB_rfo_MPKI 0
Core_0_DTLB_rfo_miss_rate 0
Core_0_DTLB_prefetch_access 0
Core_0_DTLB_prefetch_hit 0
Core_0_DTLB_prefetch_miss 0
Core_0_DTLB_prefetch_MPKI 0
Core_0_DTLB_prefetch_miss_rate 0
Core_0_DTLB_writeback_access 0
Core_0_DTLB_writeback_hit 0
Core_0_DTLB_writeback_miss 0
Core_0_DTLB_writeback_MPKI 0
Core_0_DTLB_writeback_miss_rate 0
Core_0_DTLB_prefetch_requested 0
Core_0_DTLB_prefetch_issued 0
Core_0_DTLB_prefetch_useful 0
Core_0_DTLB_prefetch_useless 0
Core_0_DTLB_prefetch_late 0
Core_0_DTLB_prefetch_fill 0
Core_0_DTLB_prefetch_too_early 0
Core_0_DTLB_prefetch_too_early_among_fill 0
Core_0_DTLB_prefetch_too_early_among_useless 0
Core_0_DTLB_prefetch_pollution_evict 0
Core_0_DTLB_prefetch_pollution_demand 0
Core_0_DTLB_prefetch_pollution_among_prefetch_fill 0
Core_0_DTLB_prefetch_accuracy 0
Core_0_DTLB_prefetch_coverage 0

Core_0_STLB_total_access 725804
Core_0_STLB_total_hit 241993
Core_0_STLB_total_miss 483811
Core_0_STLB_total_MPKI 4.83811
Core_0_STLB_total_miss_rate 0.666586
Core_0_STLB_demand_access 725804
Core_0_STLB_demand_hit 241993
Core_0_STLB_demand_miss 483811
Core_0_STLB_demand_MPKI 4.83811
Core_0_STLB_demand_miss_rate 0.666586
Core_0_STLB_load_access 725804
Core_0_STLB_load_hit 241993
Core_0_STLB_load_miss 483811
Core_0_STLB_load_MPKI 4.83811
Core_0_STLB_load_miss_rate 0.666586
Core_0_STLB_rfo_access 0
Core_0_STLB_rfo_hit 0
Core_0_STLB_rfo_miss 0
Core_0_STLB_rfo_MPKI 0
Core_0_STLB_rfo_miss_rate 0
Core_0_STLB_prefetch_access 0
Core_0_STLB_prefetch_hit 0
Core_0_STLB_prefetch_miss 0
Core_0_STLB_prefetch_MPKI 0
Core_0_STLB_prefetch_miss_rate 0
Core_0_STLB_writeback_access 0
Core_0_STLB_writeback_hit 0
Core_0_STLB_writeback_miss 0
Core_0_STLB_writeback_MPKI 0
Core_0_STLB_writeback_miss_rate 0
Core_0_STLB_prefetch_requested 0
Core_0_STLB_prefetch_issued 0
Core_0_STLB_prefetch_useful 0
Core_0_STLB_prefetch_useless 0
Core_0_STLB_prefetch_late 0
Core_0_STLB_prefetch_fill 0
Core_0_STLB_prefetch_too_early 0
Core_0_STLB_prefetch_too_early_among_fill 0
Core_0_STLB_prefetch_too_early_among_useless 0
Core_0_STLB_prefetch_pollution_evict 0
Core_0_STLB_prefetch_pollution_demand 0
Core_0_STLB_prefetch_pollution_among_prefetch_fill 0
Core_0_STLB_prefetch_accuracy 0
Core_0_STLB_prefetch_coverage 0

Core_0_L1I_total_access 14763446
Core_0_L1I_total_hit 14240016
Core_0_L1I_total_miss 523430
Core_0_L1I_total_MPKI 5.2343
Core_0_L1I_total_miss_rate 0.0354545
Core_0_L1I_demand_access 14763446
Core_0_L1I_demand_hit 14240016
Core_0_L1I_demand_miss 523430
Core_0_L1I_demand_MPKI 5.2343
Core_0_L1I_demand_miss_rate 0.0354545
Core_0_L1I_load_access 14763446
Core_0_L1I_load_hit 14240016
Core_0_L1I_load_miss 523430
Core_0_L1I_load_MPKI 5.2343
Core_0_L1I_load_miss_rate 0.0354545
Core_0_L1I_rfo_access 0
Core_0_L1I_rfo_hit 0
Core_0_L1I_rfo_miss 0
Core_0_L1I_rfo_MPKI 0
Core_0_L1I_rfo_miss_rate 0
Core_0_L1I_prefetch_access 0
Core_0_L1I_prefetch_hit 0
Core_0_L1I_prefetch_miss 0
Core_0_L1I_prefetch_MPKI 0
Core_0_L1I_prefetch_miss_rate 0
Core_0_L1I_writeback_access 0
Core_0_L1I_writeback_hit 0
Core_0_L1I_writeback_miss 0
Core_0_L1I_writeback_MPKI 0
Core_0_L1I_writeback_miss_rate 0
Core_0_L1I_prefetch_requested 0
Core_0_L1I_prefetch_issued 0
Core_0_L1I_prefetch_useful 0
Core_0_L1I_prefetch_useless 0
Core_0_L1I_prefetch_late 0
Core_0_L1I_prefetch_fill 0
Core_0_L1I_prefetch_too_early 0
Core_0_L1I_prefetch_too_early_among_fill 0
Core_0_L1I_prefetch_too_early_among_useless 0
Core_0_L1I_prefetch_pollution_evict 0
Core_0_L1I_prefetch_pollution_demand 0
Core_0_L1I_prefetch_pollution_among_prefetch_fill 0
Core_0_L1I_prefetch_accuracy 0
Core_0_L1I_prefetch_coverage 0

Core_0_L1D_total_access 26670399
Core_0_L1D_total_hit 21171787
Core_0_L1D_total_miss 5498612
Core_0_L1D_total_MPKI 54.9861
Core_0_L1D_total_miss_rate 0.206169
Core_0_L1D_demand_access 20913945
Core_0_L1D_demand_hit 15793787
Core_0_L1D_demand_miss 5120158
Core_0_L1D_demand_MPKI 51.2016
Core_0_L1D_demand_miss_rate 0.24482
Core_0_L1D_load_access 20913945
Core_0_L1D_load_hit 15793787
Core_0_L1D_load_miss 5120158
Core_0_L1D_load_MPKI 51.2016
Core_0_L1D_load_miss_rate 0.24482
Core_0_L1D_rfo_access 0
Core_0_L1D_rfo_hit 0
Core_0_L1D_rfo_miss 0
Core_0_L1D_rfo_MPKI 0
Core_0_L1D_rfo_miss_rate 0
Core_0_L1D_prefetch_access 833492
Core_0_L1D_prefetch_hit 619236
Core_0_L1D_prefetch_miss 214256
Core_0_L1D_prefetch_MPKI 2.14256
Core_0_L1D_prefetch_miss_rate 0.257058
Core_0_L1D_writeback_access 4922962
Core_0_L1D_writeback_hit 4758764
Core_0_L1D_writeback_miss 164198
Core_0_L1D_writeback_MPKI 1.64198
Core_0_L1D_writeback_miss_rate 0.0333535
Core_0_L1D_prefetch_requested 4562462
Core_0_L1D_prefetch_issued 833492
Core_0_L1D_prefetch_useful 60040
Core_0_L1D_prefetch_useless 5928
Core_0_L1D_prefetch_late 762
Core_0_L1D_prefetch_fill 65204
Core_0_L1D_prefetch_too_early 887
Core_0_L1D_prefetch_too_early_among_fill 0.0136035
Core_0_L1D_prefetch_too_early_among_useless 0.149629
Core_0_L1D_prefetch_pollution_evict 12330
Core_0_L1D_prefetch_pollution_demand 12302
Core_0_L1D_prefetch_pollution_among_prefetch_fill 0.189099
Core_0_L1D_prefetch_accuracy 0.0720343
Core_0_L1D_prefetch_coverage 0.0115903

Core_0_L2C_total_access 3490802
Core_0_L2C_total_hit 899994
Core_0_L2C_total_miss 2590808
Core_0_L2C_total_MPKI 25.9081
Core_0_L2C_total_miss_rate 0.742181
Core_0_L2C_demand_access 2953790
Core_0_L2C_demand_hit 607197
Core_0_L2C_demand_miss 2346593
Core_0_L2C_demand_MPKI 23.4659
Core_0_L2C_demand_miss_rate 0.794435
Core_0_L2C_load_access 2916633
Core_0_L2C_load_hit 593458
Core_0_L2C_load_miss 2323175
Core_0_L2C_load_MPKI 23.2317
Core_0_L2C_load_miss_rate 0.796526
Core_0_L2C_rfo_access 37157
Core_0_L2C_rfo_hit 13739
Core_0_L2C_rfo_miss 23418
Core_0_L2C_rfo_MPKI 0.23418
Core_0_L2C_rfo_miss_rate 0.630245
Core_0_L2C_prefetch_access 456881
Core_0_L2C_prefetch_hit 213126
Core_0_L2C_prefetch_miss 243755
Core_0_L2C_prefetch_MPKI 2.43755
Core_0_L2C_prefetch_miss_rate 0.53352
Core_0_L2C_writeback_access 80131
Core_0_L2C_writeback_hit 79671
Core_0_L2C_writeback_miss 460
Core_0_L2C_writeback_MPKI 0.0046
Core_0_L2C_writeback_miss_rate 0.0057406
Core_0_L2C_prefetch_requested 247873
Core_0_L2C_prefetch_issued 244544
Core_0_L2C_prefetch_useful 68263
Core_0_L2C_prefetch_useless 29497
Core_0_L2C_prefetch_late 980
Core_0_L2C_prefetch_fill 199532
Core_0_L2C_prefetch_too_early 1823
Core_0_L2C_prefetch_too_early_among_fill 0.00913638
Core_0_L2C_prefetch_too_early_among_useless 0.0618029
Core_0_L2C_prefetch_pollution_evict 137952
Core_0_L2C_prefetch_pollution_demand 137556
Core_0_L2C_prefetch_pollution_among_prefetch_fill 0.691378
Core_0_L2C_prefetch_accuracy 0.279144
Core_0_L2C_prefetch_coverage 0.0282679

Core_0_LLC_total_access 2591764
Core_0_LLC_total_hit 1222996
Core_0_LLC_total_miss 1368768
Core_0_LLC_total_MPKI 13.6877
Core_0_LLC_total_miss_rate 0.528122
Core_0_LLC_demand_access 2343466
Core_0_LLC_demand_hit 1116666
Core_0_LLC_demand_miss 1226800
Core_0_LLC_demand_MPKI 12.268
Core_0_LLC_demand_miss_rate 0.523498
Core_0_LLC_load_access 2320115
Core_0_LLC_load_hit 1108656
Core_0_LLC_load_miss 1211459
Core_0_LLC_load_MPKI 12.1146
Core_0_LLC_load_miss_rate 0.522155
Core_0_LLC_rfo_access 23351
Core_0_LLC_rfo_hit 8010
Core_0_LLC_rfo_miss 15341
Core_0_LLC_rfo_MPKI 0.15341
Core_0_LLC_rfo_miss_rate 0.656974
Core_0_LLC_prefetch_access 204451
Core_0_LLC_prefetch_hit 73399
Core_0_LLC_prefetch_miss 131052
Core_0_LLC_prefetch_MPKI 1.31052
Core_0_LLC_prefetch_miss_rate 0.640995
Core_0_LLC_writeback_access 43847
Core_0_LLC_writeback_hit 32931
Core_0_LLC_writeback_miss 10916
Core_0_LLC_writeback_MPKI 0.10916
Core_0_LLC_writeback_miss_rate 0.248957
Core_0_LLC_prefetch_requested 0
Core_0_LLC_prefetch_issued 0
Core_0_LLC_prefetch_useful 0
Core_0_LLC_prefetch_useless 0
Core_0_LLC_prefetch_late 0
Core_0_LLC_prefetch_fill 129717
Core_0_LLC_prefetch_too_early 0
Core_0_LLC_prefetch_too_early_among_fill 0
Core_0_LLC_prefetch_too_early_among_useless 0
Core_0_LLC_prefetch_pollution_evict 87037
Core_0_LLC_prefetch_pollution_demand 87037
Core_0_LLC_prefetch_pollution_among_prefetch_fill 0.670976
Core_0_LLC_prefetch_accuracy 0
Core_0_LLC_prefetch_coverage 0

[DRAM Statistics]
Channel_0_RQ_row_buffer_hit 21808
Channel_0_RQ_row_buffer_miss 1399154
Channel_0_WQ_row_buffer_hit 9433
Channel_0_WQ_row_buffer_miss 14246
Channel_0_WQ_full 0
Channel_0_dbus_congested 1637196
DRAM_total_RQ_row_buffer_hit 21808
DRAM_total_RQ_row_buffer_miss 1399154
DRAM_total_WQ_row_buffer_hit 9433
DRAM_total_WQ_row_buffer_miss 14246
DRAM_total_WQ_full 0
DRAM_total_dbus_congested 1637196
DRAM_avg_congested_cycle 8.21213

====== DRAM_RQ_TRAFFIC ========
DRAM_RQ_READ_TRAFFIC_BREAKDOWN:
data_demand_read.count = 1222577
data_demand_read.share = 86.04%

inst_demand_read.count = 3982
inst_demand_read.share = 0.28%

cache_inst_prefetch.count = 0
cache_inst_prefetch.share = 0.00%

cache_data_prefetch.count = 129958
cache_data_prefetch.share = 9.15%

stlb_data_demand.count = 63592
stlb_data_demand.share = 4.48%

stlb_inst_demand.count = 567
stlb_inst_demand.share = 0.04%

stlb_l1i_pref.count = 0
stlb_l1i_pref.share = 0.00%

stlb_l1d_pref.count = 329
stlb_l1d_pref.share = 0.02%

DRAM_RQ_READ_TRAFFIC_SUMMARY:
cache_demand.count = 1226559
cache_demand.share = 86.32%

cache_prefetch.count = 129958
cache_prefetch.share = 9.15%

stlb_demand.count = 64159
stlb_demand.share = 4.52%

stlb_prefetch.count = 329
stlb_prefetch.share = 0.02%

DRAM_RQ_READ_TRAFFIC_DEBUG:
total_classified_read.count = 1421005
unclassified_read.count = 0
total_read_with_other.count = 1421005

classified_plus_unclassified_check.count = 1421005
dram_rq_read_total_observed.count = 1421005
dram_rq_read_total_observed.per_1K_instructions = 14.21

STLB_MISS_PTW_DRAM_TOUCH_BREAKDOWN:
stlb_miss_total.count = 481644

stlb_miss_touch_dram.count = 64484
stlb_miss_touch_dram.share = 13.39%

stlb_miss_no_dram_touch.count = 417160
stlb_miss_no_dram_touch.share = 86.61%

STLB_MISS_PTW_DRAM_TOUCH_DEBUG:
stlb_miss_touch_plus_no_touch.count = 481644
stlb_miss_total_check.count = 481644

======STLB miss causes ========
Core_0_STLB_miss_cause_breakdown
Core_0_STLB_cause_Demand_Data_miss 473420
Core_0_STLB_cause_Demand_Data_miss_rate 0.65227
Core_0_STLB_cause_Demand_Instruction_miss 4980
Core_0_STLB_cause_Demand_Instruction_miss_rate 0.00686136
Core_0_STLB_cause_L1D_Prefetch_miss 5411
Core_0_STLB_cause_L1D_Prefetch_miss_rate 0.00745518
Core_0_STLB_cause_L1D_Prefetch_Same_Page_miss 0
Core_0_STLB_cause_L1D_Prefetch_Same_Page_miss_rate 0
Core_0_STLB_cause_L1D_Prefetch_Cross_Page_miss 5411
Core_0_STLB_cause_L1D_Prefetch_Cross_Page_miss_rate 0.00745518
Core_0_STLB_cause_L1I_Prefetch_miss 0
Core_0_STLB_cause_L1I_Prefetch_miss_rate 0
Core_0_STLB_cause_Other_miss 0
Core_0_STLB_cause_Other_miss_rate 0
Core_0_STLB_Demand_miss 478400
Core_0_STLB_Demand_miss_rate 0.659131
Core_0_STLB_L1D_Prefetch_miss 5411
Core_0_STLB_L1D_Prefetch_miss_rate 0.00745518
Core_0_STLB_Other_miss 0
Core_0_STLB_Other_miss_rate 0

========== vBerti-TLB Cross-page Flow Stats ==========

Core_0_vBerti_Requested 4562462
Core_0_vBerti_Cross_page_prefetch_in_Requested 600324
Core_0_vBerti_Same_page_prefetch_in_Requested 3962138
Core_0_vBerti_Cross_page_prefetch_of_Requested 0.131579
Core_0_vBerti_Issued 833492
Core_0_vBerti_InPQ_Same_page_prefetch 785074
Core_0_vBerti_InPQ_Cross_page_prefetch 48418
Core_0_vBerti_PQ_Drop_Rate 0.817315
Core_0_vBerti_InPQ_Cross_page_prefetch_of_Requested 0.0106123
Core_0_vBerti_Cross_page_PQ_Drop_rate 0.919347
Core_0_vBerti_Cross_page_prefetch_of_Issued 0.0580905
Core_0_CP_PF_PQFULL_drop 551906
Core_0_CP_PF_PQFULL_TLB_rescue_enqueued 134134
Core_0_CP_PF_PQFULL_TLB_rescue_issued 134134
Core_0_CP_PF_PQFULL_TLB_rescue_translated 134134

========= DTLB_vBerti Prefetch Stats =========
Core_0_DTLB_demand_access 25121235
Core_0_DTLB_demand_hit 23650058
Core_0_DTLB_demand_miss 1471177
Core_0_DTLB_demand_mshr_merge 817858
Core_0_DTLB_demand_fill 653574
Core_0_DTLB_demand_miss_rate 0.0585631
Core_0_DTLB_demand_mpki 14.7118
Core_0_DTLB_vberti_prefetch_access 716959
Core_0_DTLB_vberti_prefetch_hit 706080
Core_0_DTLB_vberti_prefetch_miss 10879
Core_0_DTLB_vberti_prefetch_mshr_merge 4319
Core_0_DTLB_vberti_prefetch_fill 6305
Core_0_DTLB_vberti_prefetch_miss_rate 0.0151738
Core_0_DTLB_vberti_prefetch_mpki 0.10879

=== DTLB_vBerti Same/Cross-page Prefetch Stats ===
Core_0_DTLB_vberti_same_page_prefetch 619461
Core_0_DTLB_vberti_same_page_prefetch_hit 619461
Core_0_DTLB_vberti_same_page_prefetch_miss 0
Core_0_DTLB_vberti_same_page_prefetch_mshr_merge 0
Core_0_DTLB_vberti_same_page_prefetch_fill 0
Core_0_DTLB_vberti_same_page_prefetch_miss_rate 0
Core_0_DTLB_vberti_same_page_prefetch_mpki 0
Core_0_DTLB_vberti_cross_page_prefetch 97498
Core_0_DTLB_vberti_cross_page_prefetch_hit 86619
Core_0_DTLB_vberti_cross_page_prefetch_miss 10879
Core_0_DTLB_vberti_cross_page_prefetch_mshr_merge 4319
Core_0_DTLB_vberti_cross_page_prefetch_fill 6305
Core_0_DTLB_vberti_cross_page_prefetch_miss_rate 0.111582
Core_0_DTLB_vberti_cross_page_prefetch_mpki 0.10879
Core_0_DTLB_same_page_prefetch_miss_rate 0
Core_0_DTLB_same_page_prefetch_mpki 0
Core_0_DTLB_cross_page_prefetch_miss_rate 0.111582
Core_0_DTLB_cross_page_prefetch_mpki 0.10879
Core_0_DTLB_cross_page_prefetch_issued 97498
Core_0_DTLB_cross_page_prefetch_lookups 97498
Core_0_DTLB_cross_page_prefetch_useful 5424
Core_0_DTLB_cross_page_prefetch_useless 1136
Core_0_DTLB_cross_page_prefetch_late 255
Core_0_DTLB_cross_page_prefetch_too_early 191
Core_0_DTLB_cross_page_prefetch_too_early_among_fill 0.0302934
Core_0_DTLB_cross_page_prefetch_too_early_among_useless 0.168134
Core_0_DTLB_cross_page_prefetch_pollution_evict 2896
Core_0_DTLB_cross_page_prefetch_pollution_demand 2723
Core_0_DTLB_cross_page_prefetch_pollution_among_prefetch_fill 0.459318
Core_0_DTLB_cross_page_prefetch_accuracy 0.0556319
Core_0_DTLB_cross_page_prefetch_coverage 0.0036733

========= STLB_vBerti Prefetch Stats =========
Core_0_STLB_demand_access 719244
Core_0_STLB_demand_hit 240844
Core_0_STLB_demand_miss 478400
Core_0_STLB_demand_mshr_merge 0
Core_0_STLB_demand_fill 478400
Core_0_STLB_demand_miss_rate 0.665143
Core_0_STLB_demand_mpki 4.784
Core_0_STLB_vberti_prefetch_access 6560
Core_0_STLB_vberti_prefetch_hit 1149
Core_0_STLB_vberti_prefetch_miss 5411
Core_0_STLB_vberti_prefetch_mshr_merge 0
Core_0_STLB_vberti_prefetch_fill 0
Core_0_STLB_vberti_prefetch_miss_rate 0.824848
Core_0_STLB_vberti_prefetch_mpki 0.05411

=== STLB_vBerti Same/Cross-page Prefetch Stats ===
Core_0_STLB_vberti_same_page_prefetch 0
Core_0_STLB_vberti_same_page_prefetch_hit 0
Core_0_STLB_vberti_same_page_prefetch_miss 0
Core_0_STLB_vberti_same_page_prefetch_mshr_merge 0
Core_0_STLB_vberti_same_page_prefetch_fill 0
Core_0_STLB_vberti_same_page_prefetch_miss_rate 0
Core_0_STLB_vberti_same_page_prefetch_mpki 0
Core_0_STLB_vberti_cross_page_prefetch 6560
Core_0_STLB_vberti_cross_page_prefetch_hit 1149
Core_0_STLB_vberti_cross_page_prefetch_miss 5411
Core_0_STLB_vberti_cross_page_prefetch_mshr_merge 0
Core_0_STLB_vberti_cross_page_prefetch_fill 0
Core_0_STLB_vberti_cross_page_prefetch_miss_rate 0.824848
Core_0_STLB_vberti_cross_page_prefetch_mpki 0.05411
Core_0_STLB_same_page_prefetch_miss_rate 0
Core_0_STLB_same_page_prefetch_mpki 0
Core_0_STLB_cross_page_prefetch_miss_rate 0.824848
Core_0_STLB_cross_page_prefetch_mpki 0.05411
Core_0_STLB_cross_page_prefetch_issued 6560
Core_0_STLB_cross_page_prefetch_lookups 6560
Core_0_STLB_cross_page_prefetch_useful 2167
Core_0_STLB_cross_page_prefetch_useless 2119
Core_0_STLB_cross_page_prefetch_late 2167
Core_0_STLB_cross_page_prefetch_too_early 0
Core_0_STLB_cross_page_prefetch_too_early_among_fill 0
Core_0_STLB_cross_page_prefetch_too_early_among_useless 0
Core_0_STLB_cross_page_prefetch_pollution_evict 0
Core_0_STLB_cross_page_prefetch_pollution_demand 0
Core_0_STLB_cross_page_prefetch_pollution_among_prefetch_fill 0
Core_0_STLB_cross_page_prefetch_accuracy 0.330335
Core_0_STLB_cross_page_prefetch_coverage 0.00450926

========= STLB Cross-page Prefetch Buffer Stats =========
Core_0_STLB_raw_demand_miss 473420
Core_0_CP_PB_insert 5411
Core_0_CP_PB_demand_hit 2167
Core_0_STLB_PB_demand_miss 471253
Core_0_CP_PB_coverage 0.00457733
Core_0_STLB_raw_demand_mpki 4.7342
Core_0_STLB_PB_demand_mpki 4.71253
Core_0_CP_PB_demand_hit_mpki 0.02167

Core_0_TLB_demand_miss_rate 0.0190436
Core_0_TLB_demand_mpki 4.784
Core_0_TLB_same_page_prefetch_miss_rate 0
Core_0_TLB_same_page_prefetch_mpki 0
Core_0_TLB_cross_page_prefetch_miss_rate 0.0554986
Core_0_TLB_cross_page_prefetch_mpki 0.05411
Core_0_TLB_cross_page_prefetch_issued 97498
Core_0_TLB_cross_page_prefetch_lookups 97498
Core_0_TLB_cross_page_prefetch_useful 417
Core_0_TLB_cross_page_prefetch_useless 964
Core_0_TLB_cross_page_prefetch_late 23
Core_0_TLB_cross_page_prefetch_too_early 142
Core_0_TLB_cross_page_prefetch_too_early_among_fill 0.0225218
Core_0_TLB_cross_page_prefetch_too_early_among_useless 0.147303
Core_0_TLB_cross_page_prefetch_accuracy 0.00427701
Core_0_TLB_cross_page_prefetch_coverage 0.000870896
BERTI TO_L1: 5705333 TO_L2: 935900 TO_L2_BC_MSHR: 73200
BERTI AVG_LAT: 79.1243 NUM_TRACK_LATENCY: 4043671 NUM_CANT_TRACK_LATENCY: 0
BERTI CROSS_PAGE 853719 NO_CROSS_PAGE: 5787514
BERTI FOUND_BERTI: 9728943 NO_FOUND_BERTI: 26530301
BERTI AVERAGE_ISSUED: 1.50281
