[VMEM] WARNING: physical memory size is smaller than virtual memory size.

*** ChampSim Multicore Out-of-Order Simulator ***
Warmup Instructions: 50000000
Simulation Instructions: 100000000
Number of CPUs: 1
Page size: 4096
Core 0: /data2/zcq/champsim_traces_gap/bc.kron-2608B.champsimtrace.xz
VBerti Prefetcher
BERTI HASH ENTANGLING
BERTI IP MASK ffff
Off-chip DRAM Size: 16 GiB Channels: 1 Width: 64-bit Data Rate: 3205 MT/s
Warmup halting CPU 0 at instruction 50000002 cycle 21969085 for remainder of phase
Warmup finished CPU 0 instructions: 50000002 cycles: 21969085 cumulative IPC: 2.276 (Simulation time: 00 hr 04 min 24 sec)
Warmup complete CPU 0 instructions: 50000002 cycles: 21969085 cumulative IPC: 2.276 (Simulation time: 00 hr 04 min 24 sec)
Simulation finished CPU 0 instructions: 100000004 cycles: 207936858 cumulative IPC: 0.4809 (Simulation time: 00 hr 22 min 51 sec)
Simulation complete CPU 0 instructions: 100000004 cycles: 207936858 cumulative IPC: 0.4809 (Simulation time: 00 hr 22 min 51 sec)

ChampSim completed all CPUs

=== Simulation ===
CPU 0 runs /data2/zcq/champsim_traces_gap/bc.kron-2608B.champsimtrace.xz

Region of Interest Statistics

CPU 0 cumulative IPC: 0.4809 instructions: 100000004 cycles: 207936858
CPU 0 Branch Prediction Accuracy: 94.53% MPKI: 8.973 Average ROB Occupancy at Mispredict: 177.9
Branch type MPKI
BRANCH_DIRECT_JUMP: 0
BRANCH_INDIRECT: 0
BRANCH_CONDITIONAL: 8.973
BRANCH_DIRECT_CALL: 0
BRANCH_INDIRECT_CALL: 0
BRANCH_RETURN: 0

cpu0->cpu0_STLB TOTAL        ACCESS:    1850946 HIT:      33859 MISS:    1817087 MSHR_MERGE:          0
cpu0->cpu0_STLB LOAD         ACCESS:    1850946 HIT:      33859 MISS:    1817087 MSHR_MERGE:          0
cpu0->cpu0_STLB RFO          ACCESS:          0 HIT:          0 MISS:          0 MSHR_MERGE:          0
cpu0->cpu0_STLB PREFETCH     ACCESS:          0 HIT:          0 MISS:          0 MSHR_MERGE:          0
cpu0->cpu0_STLB WRITE        ACCESS:          0 HIT:          0 MISS:          0 MSHR_MERGE:          0
cpu0->cpu0_STLB TRANSLATION  ACCESS:          0 HIT:          0 MISS:          0 MSHR_MERGE:          0
cpu0->cpu0_STLB PREFETCH REQUESTED:          0 ISSUED:          0 USEFUL:          0 USELESS:          0 LATE:          0 TOO_EARLY:          0
cpu0->cpu0_STLB AVERAGE MISS LATENCY: 111.7 cycles
cpu0->cpu0_L2C TOTAL        ACCESS:    8353538 HIT:    3760565 MISS:    4592973 MSHR_MERGE:     421548
cpu0->cpu0_L2C LOAD         ACCESS:    1952429 HIT:      65266 MISS:    1887163 MSHR_MERGE:        668
cpu0->cpu0_L2C RFO          ACCESS:      24512 HIT:         30 MISS:      24482 MSHR_MERGE:          0
cpu0->cpu0_L2C PREFETCH     ACCESS:    4445950 HIT:    3372488 MISS:    1073462 MSHR_MERGE:     420880
cpu0->cpu0_L2C WRITE        ACCESS:      49788 HIT:      49788 MISS:          0 MSHR_MERGE:          0
cpu0->cpu0_L2C TRANSLATION  ACCESS:    1880859 HIT:     272993 MISS:    1607866 MSHR_MERGE:          0
cpu0->cpu0_L2C PREFETCH REQUESTED:    1260377 ISSUED:    1260377 USEFUL:     320624 USELESS:      56483 LATE:         38 TOO_EARLY:          8
cpu0->cpu0_L2C AVERAGE MISS LATENCY: 165.8 cycles
cpu0->cpu0_L1I TOTAL        ACCESS:     678867 HIT:     678867 MISS:          0 MSHR_MERGE:          0
cpu0->cpu0_L1I LOAD         ACCESS:     678867 HIT:     678867 MISS:          0 MSHR_MERGE:          0
cpu0->cpu0_L1I RFO          ACCESS:          0 HIT:          0 MISS:          0 MSHR_MERGE:          0
cpu0->cpu0_L1I PREFETCH     ACCESS:          0 HIT:          0 MISS:          0 MSHR_MERGE:          0
cpu0->cpu0_L1I WRITE        ACCESS:          0 HIT:          0 MISS:          0 MSHR_MERGE:          0
cpu0->cpu0_L1I TRANSLATION  ACCESS:          0 HIT:          0 MISS:          0 MSHR_MERGE:          0
cpu0->cpu0_L1I PREFETCH REQUESTED:          0 ISSUED:          0 USEFUL:          0 USELESS:          0 LATE:          0 TOO_EARLY:          0
cpu0->cpu0_L1I AVERAGE MISS LATENCY: - cycles
cpu0->cpu0_L1D TOTAL        ACCESS:   23411598 HIT:   16024462 MISS:    7387136 MSHR_MERGE:     294458
cpu0->cpu0_L1D LOAD         ACCESS:   12626669 HIT:   10398895 MISS:    2227774 MSHR_MERGE:     275345
cpu0->cpu0_L1D RFO          ACCESS:          0 HIT:          0 MISS:          0 MSHR_MERGE:          0
cpu0->cpu0_L1D PREFETCH     ACCESS:    5660634 HIT:    2412368 MISS:    3248266 MSHR_MERGE:      13388
cpu0->cpu0_L1D WRITE        ACCESS:      52529 HIT:      28007 MISS:      24522 MSHR_MERGE:         10
cpu0->cpu0_L1D TRANSLATION  ACCESS:    5071766 HIT:    3185192 MISS:    1886574 MSHR_MERGE:       5715
cpu0->cpu0_L1D PREFETCH REQUESTED:    5683613 ISSUED:    5660636 USEFUL:     343826 USELESS:     137572 LATE:        811 TOO_EARLY:        685
cpu0->cpu0_L1D AVERAGE MISS LATENCY: 160.2 cycles
cpu0->cpu0_ITLB TOTAL        ACCESS:     678867 HIT:     678867 MISS:          0 MSHR_MERGE:          0
cpu0->cpu0_ITLB LOAD         ACCESS:     678867 HIT:     678867 MISS:          0 MSHR_MERGE:          0
cpu0->cpu0_ITLB RFO          ACCESS:          0 HIT:          0 MISS:          0 MSHR_MERGE:          0
cpu0->cpu0_ITLB PREFETCH     ACCESS:          0 HIT:          0 MISS:          0 MSHR_MERGE:          0
cpu0->cpu0_ITLB WRITE        ACCESS:          0 HIT:          0 MISS:          0 MSHR_MERGE:          0
cpu0->cpu0_ITLB TRANSLATION  ACCESS:          0 HIT:          0 MISS:          0 MSHR_MERGE:          0
cpu0->cpu0_ITLB PREFETCH REQUESTED:          0 ISSUED:          0 USEFUL:          0 USELESS:          0 LATE:          0 TOO_EARLY:          0
cpu0->cpu0_ITLB AVERAGE MISS LATENCY: - cycles
cpu0->cpu0_DTLB TOTAL        ACCESS:   16182278 HIT:   14223943 MISS:    1958335 MSHR_MERGE:     107389
cpu0->cpu0_DTLB LOAD         ACCESS:   16182278 HIT:   14223943 MISS:    1958335 MSHR_MERGE:     107389
cpu0->cpu0_DTLB RFO          ACCESS:          0 HIT:          0 MISS:          0 MSHR_MERGE:          0
cpu0->cpu0_DTLB PREFETCH     ACCESS:          0 HIT:          0 MISS:          0 MSHR_MERGE:          0
cpu0->cpu0_DTLB WRITE        ACCESS:          0 HIT:          0 MISS:          0 MSHR_MERGE:          0
cpu0->cpu0_DTLB TRANSLATION  ACCESS:          0 HIT:          0 MISS:          0 MSHR_MERGE:          0
cpu0->cpu0_DTLB PREFETCH REQUESTED:          0 ISSUED:          0 USEFUL:          0 USELESS:          0 LATE:          0 TOO_EARLY:          0
cpu0->cpu0_DTLB AVERAGE MISS LATENCY: 115.7 cycles
cpu0->LLC TOTAL        ACCESS:    4221070 HIT:    1093241 MISS:    3127829 MSHR_MERGE:         15
cpu0->LLC LOAD         ACCESS:    1886495 HIT:       4363 MISS:    1882132 MSHR_MERGE:          0
cpu0->LLC RFO          ACCESS:      24482 HIT:          7 MISS:      24475 MSHR_MERGE:          0
cpu0->LLC PREFETCH     ACCESS:     652582 HIT:        118 MISS:     652464 MSHR_MERGE:         15
cpu0->LLC WRITE        ACCESS:      49645 HIT:       9229 MISS:      40416 MSHR_MERGE:          0
cpu0->LLC TRANSLATION  ACCESS:    1607866 HIT:    1079524 MISS:     528342 MSHR_MERGE:          0
cpu0->LLC PREFETCH REQUESTED:          0 ISSUED:          0 USEFUL:          0 USELESS:          0 LATE:          0 TOO_EARLY:          0
cpu0->LLC AVERAGE MISS LATENCY: 213.6 cycles

DRAM Statistics

Channel 0 RQ ROW_BUFFER_HIT:       2294
  ROW_BUFFER_MISS:    3085104
  AVG DBUS CONGESTED CYCLE: 11.75
Channel 0 WQ ROW_BUFFER_HIT:      18904
  ROW_BUFFER_MISS:      31648
  FULL:          0
Channel 0 REFRESHES ISSUED:      17328

[ROI Statistics]
[System Configuration]
num_cpus 1
cpu_freq 4000
fetch_width 6
decode_width 6
dispatch_width 6
execute_width 6
lq_width 2
sq_width 2
retire_width 6
scheduler_size 128
branch_mispredict_penalty 15
rob_size 352
lq_size 128
sq_size 72
ifetch_buffer_size 64
decode_buffer_size 32
dispatch_buffer_size 32
register_file_size 288
decode_latency 1
dispatch_latency 1
schedule_latency 1
execute_latency 1
page_size 4096
block_size 64
core_0_itlb_set 16
core_0_itlb_way 4
core_0_itlb_rq_size 16
core_0_itlb_wq_size 16
core_0_itlb_pq_size 0
core_0_itlb_mshr_size 8
core_0_itlb_hit_latency 1
core_0_itlb_fill_latency 1
core_0_itlb_max_tag_check 2
core_0_itlb_max_fill 2
core_0_dtlb_set 16
core_0_dtlb_way 4
core_0_dtlb_rq_size 16
core_0_dtlb_wq_size 16
core_0_dtlb_pq_size 0
core_0_dtlb_mshr_size 8
core_0_dtlb_hit_latency 1
core_0_dtlb_fill_latency 1
core_0_dtlb_max_tag_check 2
core_0_dtlb_max_fill 2
core_0_stlb_set 128
core_0_stlb_way 12
core_0_stlb_rq_size 32
core_0_stlb_wq_size 32
core_0_stlb_pq_size 0
core_0_stlb_mshr_size 16
core_0_stlb_hit_latency 4
core_0_stlb_fill_latency 4
core_0_stlb_max_tag_check 1
core_0_stlb_max_fill 1
core_0_l1i_set 64
core_0_l1i_way 8
core_0_l1i_rq_size 64
core_0_l1i_wq_size 64
core_0_l1i_pq_size 32
core_0_l1i_mshr_size 8
core_0_l1i_hit_latency 2
core_0_l1i_fill_latency 2
core_0_l1i_max_tag_check 2
core_0_l1i_max_fill 2
core_0_l1d_set 64
core_0_l1d_way 12
core_0_l1d_rq_size 64
core_0_l1d_wq_size 64
core_0_l1d_pq_size 8
core_0_l1d_mshr_size 16
core_0_l1d_hit_latency 2
core_0_l1d_fill_latency 3
core_0_l1d_max_tag_check 2
core_0_l1d_max_fill 2
core_0_l2c_set 1024
core_0_l2c_way 8
core_0_l2c_rq_size 32
core_0_l2c_wq_size 32
core_0_l2c_pq_size 16
core_0_l2c_mshr_size 32
core_0_l2c_hit_latency 5
core_0_l2c_fill_latency 5
core_0_l2c_max_tag_check 1
core_0_l2c_max_fill 1
llc_set 2048
llc_way 16
llc_rq_size 32
llc_wq_size 32
llc_pq_size 32
llc_mshr_size 64
llc_hit_latency 10
llc_fill_latency 10
llc_max_tag_check 1
llc_max_fill 1
dram_channels 1
dram_ranks 1
dram_bankgroups 8
dram_banks 4
dram_rows 65536
dram_columns 1024
dram_channel_width 8
dram_rq_size 64
dram_wq_size 64
dram_size 17179869184
core_0_itlb_prefetcher no
core_0_dtlb_prefetcher no
core_0_stlb_prefetcher no
core_0_l1i_prefetcher next_line
core_0_l1d_prefetcher vberti
core_0_l2c_prefetcher ip_stride
llc_prefetcher no
llc_replacement drrip

Core_0_instructions 100000004
Core_0_cycles 207936858
Core_0_IPC 0.480915
Core_0_branch_prediction_accuracy 94.532
Core_0_branch_MPKI 8.9733
Core_0_average_ROB_occupancy_at_mispredict 177.862

Core_0_ITLB_total_access 678867
Core_0_ITLB_total_hit 678867
Core_0_ITLB_total_miss 0
Core_0_ITLB_total_MPKI 0
Core_0_ITLB_total_miss_rate 0
Core_0_ITLB_demand_access 678867
Core_0_ITLB_demand_hit 678867
Core_0_ITLB_demand_miss 0
Core_0_ITLB_demand_MPKI 0
Core_0_ITLB_demand_miss_rate 0
Core_0_ITLB_load_access 678867
Core_0_ITLB_load_hit 678867
Core_0_ITLB_load_miss 0
Core_0_ITLB_load_MPKI 0
Core_0_ITLB_load_miss_rate 0
Core_0_ITLB_rfo_access 0
Core_0_ITLB_rfo_hit 0
Core_0_ITLB_rfo_miss 0
Core_0_ITLB_rfo_MPKI 0
Core_0_ITLB_rfo_miss_rate 0
Core_0_ITLB_prefetch_access 0
Core_0_ITLB_prefetch_hit 0
Core_0_ITLB_prefetch_miss 0
Core_0_ITLB_prefetch_MPKI 0
Core_0_ITLB_prefetch_miss_rate 0
Core_0_ITLB_writeback_access 0
Core_0_ITLB_writeback_hit 0
Core_0_ITLB_writeback_miss 0
Core_0_ITLB_writeback_MPKI 0
Core_0_ITLB_writeback_miss_rate 0
Core_0_ITLB_prefetch_requested 0
Core_0_ITLB_prefetch_issued 0
Core_0_ITLB_prefetch_useful 0
Core_0_ITLB_prefetch_useless 0
Core_0_ITLB_prefetch_late 0
Core_0_ITLB_prefetch_fill 0
Core_0_ITLB_prefetch_too_early 0
Core_0_ITLB_prefetch_too_early_among_fill 0
Core_0_ITLB_prefetch_too_early_among_useless 0
Core_0_ITLB_prefetch_pollution_evict 0
Core_0_ITLB_prefetch_pollution_demand 0
Core_0_ITLB_prefetch_pollution_among_prefetch_fill 0
Core_0_ITLB_prefetch_accuracy 0
Core_0_ITLB_prefetch_coverage 0

Core_0_DTLB_total_access 16182278
Core_0_DTLB_total_hit 14223943
Core_0_DTLB_total_miss 1958335
Core_0_DTLB_total_MPKI 19.5833
Core_0_DTLB_total_miss_rate 0.121017
Core_0_DTLB_demand_access 16182278
Core_0_DTLB_demand_hit 14223943
Core_0_DTLB_demand_miss 1958335
Core_0_DTLB_demand_MPKI 19.5833
Core_0_DTLB_demand_miss_rate 0.121017
Core_0_DTLB_load_access 16182278
Core_0_DTLB_load_hit 14223943
Core_0_DTLB_load_miss 1958335
Core_0_DTLB_load_MPKI 19.5833
Core_0_DTLB_load_miss_rate 0.121017
Core_0_DTLB_rfo_access 0
Core_0_DTLB_rfo_hit 0
Core_0_DTLB_rfo_miss 0
Core_0_DTLB_rfo_MPKI 0
Core_0_DTLB_rfo_miss_rate 0
Core_0_DTLB_prefetch_access 0
Core_0_DTLB_prefetch_hit 0
Core_0_DTLB_prefetch_miss 0
Core_0_DTLB_prefetch_MPKI 0
Core_0_DTLB_prefetch_miss_rate 0
Core_0_DTLB_writeback_access 0
Core_0_DTLB_writeback_hit 0
Core_0_DTLB_writeback_miss 0
Core_0_DTLB_writeback_MPKI 0
Core_0_DTLB_writeback_miss_rate 0
Core_0_DTLB_prefetch_requested 0
Core_0_DTLB_prefetch_issued 0
Core_0_DTLB_prefetch_useful 0
Core_0_DTLB_prefetch_useless 0
Core_0_DTLB_prefetch_late 0
Core_0_DTLB_prefetch_fill 0
Core_0_DTLB_prefetch_too_early 0
Core_0_DTLB_prefetch_too_early_among_fill 0
Core_0_DTLB_prefetch_too_early_among_useless 0
Core_0_DTLB_prefetch_pollution_evict 0
Core_0_DTLB_prefetch_pollution_demand 0
Core_0_DTLB_prefetch_pollution_among_prefetch_fill 0
Core_0_DTLB_prefetch_accuracy 0
Core_0_DTLB_prefetch_coverage 0

Core_0_STLB_total_access 1850946
Core_0_STLB_total_hit 33859
Core_0_STLB_total_miss 1817087
Core_0_STLB_total_MPKI 18.1709
Core_0_STLB_total_miss_rate 0.981707
Core_0_STLB_demand_access 1850946
Core_0_STLB_demand_hit 33859
Core_0_STLB_demand_miss 1817087
Core_0_STLB_demand_MPKI 18.1709
Core_0_STLB_demand_miss_rate 0.981707
Core_0_STLB_load_access 1850946
Core_0_STLB_load_hit 33859
Core_0_STLB_load_miss 1817087
Core_0_STLB_load_MPKI 18.1709
Core_0_STLB_load_miss_rate 0.981707
Core_0_STLB_rfo_access 0
Core_0_STLB_rfo_hit 0
Core_0_STLB_rfo_miss 0
Core_0_STLB_rfo_MPKI 0
Core_0_STLB_rfo_miss_rate 0
Core_0_STLB_prefetch_access 0
Core_0_STLB_prefetch_hit 0
Core_0_STLB_prefetch_miss 0
Core_0_STLB_prefetch_MPKI 0
Core_0_STLB_prefetch_miss_rate 0
Core_0_STLB_writeback_access 0
Core_0_STLB_writeback_hit 0
Core_0_STLB_writeback_miss 0
Core_0_STLB_writeback_MPKI 0
Core_0_STLB_writeback_miss_rate 0
Core_0_STLB_prefetch_requested 0
Core_0_STLB_prefetch_issued 0
Core_0_STLB_prefetch_useful 0
Core_0_STLB_prefetch_useless 0
Core_0_STLB_prefetch_late 0
Core_0_STLB_prefetch_fill 0
Core_0_STLB_prefetch_too_early 0
Core_0_STLB_prefetch_too_early_among_fill 0
Core_0_STLB_prefetch_too_early_among_useless 0
Core_0_STLB_prefetch_pollution_evict 0
Core_0_STLB_prefetch_pollution_demand 0
Core_0_STLB_prefetch_pollution_among_prefetch_fill 0
Core_0_STLB_prefetch_accuracy 0
Core_0_STLB_prefetch_coverage 0

Core_0_L1I_total_access 678867
Core_0_L1I_total_hit 678867
Core_0_L1I_total_miss 0
Core_0_L1I_total_MPKI 0
Core_0_L1I_total_miss_rate 0
Core_0_L1I_demand_access 678867
Core_0_L1I_demand_hit 678867
Core_0_L1I_demand_miss 0
Core_0_L1I_demand_MPKI 0
Core_0_L1I_demand_miss_rate 0
Core_0_L1I_load_access 678867
Core_0_L1I_load_hit 678867
Core_0_L1I_load_miss 0
Core_0_L1I_load_MPKI 0
Core_0_L1I_load_miss_rate 0
Core_0_L1I_rfo_access 0
Core_0_L1I_rfo_hit 0
Core_0_L1I_rfo_miss 0
Core_0_L1I_rfo_MPKI 0
Core_0_L1I_rfo_miss_rate 0
Core_0_L1I_prefetch_access 0
Core_0_L1I_prefetch_hit 0
Core_0_L1I_prefetch_miss 0
Core_0_L1I_prefetch_MPKI 0
Core_0_L1I_prefetch_miss_rate 0
Core_0_L1I_writeback_access 0
Core_0_L1I_writeback_hit 0
Core_0_L1I_writeback_miss 0
Core_0_L1I_writeback_MPKI 0
Core_0_L1I_writeback_miss_rate 0
Core_0_L1I_prefetch_requested 0
Core_0_L1I_prefetch_issued 0
Core_0_L1I_prefetch_useful 0
Core_0_L1I_prefetch_useless 0
Core_0_L1I_prefetch_late 0
Core_0_L1I_prefetch_fill 0
Core_0_L1I_prefetch_too_early 0
Core_0_L1I_prefetch_too_early_among_fill 0
Core_0_L1I_prefetch_too_early_among_useless 0
Core_0_L1I_prefetch_pollution_evict 0
Core_0_L1I_prefetch_pollution_demand 0
Core_0_L1I_prefetch_pollution_among_prefetch_fill 0
Core_0_L1I_prefetch_accuracy 0
Core_0_L1I_prefetch_coverage 0

Core_0_L1D_total_access 18339832
Core_0_L1D_total_hit 12839270
Core_0_L1D_total_miss 5500562
Core_0_L1D_total_MPKI 55.0056
Core_0_L1D_total_miss_rate 0.299924
Core_0_L1D_demand_access 12626669
Core_0_L1D_demand_hit 10398895
Core_0_L1D_demand_miss 2227774
Core_0_L1D_demand_MPKI 22.2777
Core_0_L1D_demand_miss_rate 0.176434
Core_0_L1D_load_access 12626669
Core_0_L1D_load_hit 10398895
Core_0_L1D_load_miss 2227774
Core_0_L1D_load_MPKI 22.2777
Core_0_L1D_load_miss_rate 0.176434
Core_0_L1D_rfo_access 0
Core_0_L1D_rfo_hit 0
Core_0_L1D_rfo_miss 0
Core_0_L1D_rfo_MPKI 0
Core_0_L1D_rfo_miss_rate 0
Core_0_L1D_prefetch_access 5660634
Core_0_L1D_prefetch_hit 2412368
Core_0_L1D_prefetch_miss 3248266
Core_0_L1D_prefetch_MPKI 32.4827
Core_0_L1D_prefetch_miss_rate 0.573834
Core_0_L1D_writeback_access 52529
Core_0_L1D_writeback_hit 28007
Core_0_L1D_writeback_miss 24522
Core_0_L1D_writeback_MPKI 0.24522
Core_0_L1D_writeback_miss_rate 0.466828
Core_0_L1D_prefetch_requested 5683613
Core_0_L1D_prefetch_issued 5660636
Core_0_L1D_prefetch_useful 343826
Core_0_L1D_prefetch_useless 137572
Core_0_L1D_prefetch_late 811
Core_0_L1D_prefetch_fill 480597
Core_0_L1D_prefetch_too_early 685
Core_0_L1D_prefetch_too_early_among_fill 0.00142531
Core_0_L1D_prefetch_too_early_among_useless 0.00497921
Core_0_L1D_prefetch_pollution_evict 234
Core_0_L1D_prefetch_pollution_demand 219
Core_0_L1D_prefetch_pollution_among_prefetch_fill 0.000486894
Core_0_L1D_prefetch_accuracy 0.0607398
Core_0_L1D_prefetch_coverage 0.133701

Core_0_L2C_total_access 6472679
Core_0_L2C_total_hit 3487572
Core_0_L2C_total_miss 2985107
Core_0_L2C_total_MPKI 29.8511
Core_0_L2C_total_miss_rate 0.461186
Core_0_L2C_demand_access 1976941
Core_0_L2C_demand_hit 65296
Core_0_L2C_demand_miss 1911645
Core_0_L2C_demand_MPKI 19.1164
Core_0_L2C_demand_miss_rate 0.966971
Core_0_L2C_load_access 1952429
Core_0_L2C_load_hit 65266
Core_0_L2C_load_miss 1887163
Core_0_L2C_load_MPKI 18.8716
Core_0_L2C_load_miss_rate 0.966572
Core_0_L2C_rfo_access 24512
Core_0_L2C_rfo_hit 30
Core_0_L2C_rfo_miss 24482
Core_0_L2C_rfo_MPKI 0.24482
Core_0_L2C_rfo_miss_rate 0.998776
Core_0_L2C_prefetch_access 4445950
Core_0_L2C_prefetch_hit 3372488
Core_0_L2C_prefetch_miss 1073462
Core_0_L2C_prefetch_MPKI 10.7346
Core_0_L2C_prefetch_miss_rate 0.241447
Core_0_L2C_writeback_access 49788
Core_0_L2C_writeback_hit 49788
Core_0_L2C_writeback_miss 0
Core_0_L2C_writeback_MPKI 0
Core_0_L2C_writeback_miss_rate 0
Core_0_L2C_prefetch_requested 1260377
Core_0_L2C_prefetch_issued 1260377
Core_0_L2C_prefetch_useful 320624
Core_0_L2C_prefetch_useless 56483
Core_0_L2C_prefetch_late 38
Core_0_L2C_prefetch_fill 651855
Core_0_L2C_prefetch_too_early 8
Core_0_L2C_prefetch_too_early_among_fill 1.22727e-05
Core_0_L2C_prefetch_too_early_among_useless 0.000141636
Core_0_L2C_prefetch_pollution_evict 1137
Core_0_L2C_prefetch_pollution_demand 1137
Core_0_L2C_prefetch_pollution_among_prefetch_fill 0.00174425
Core_0_L2C_prefetch_accuracy 0.254387
Core_0_L2C_prefetch_coverage 0.143631

Core_0_LLC_total_access 2613204
Core_0_LLC_total_hit 13717
Core_0_LLC_total_miss 2599487
Core_0_LLC_total_MPKI 25.9949
Core_0_LLC_total_miss_rate 0.994751
Core_0_LLC_demand_access 1910977
Core_0_LLC_demand_hit 4370
Core_0_LLC_demand_miss 1906607
Core_0_LLC_demand_MPKI 19.0661
Core_0_LLC_demand_miss_rate 0.997713
Core_0_LLC_load_access 1886495
Core_0_LLC_load_hit 4363
Core_0_LLC_load_miss 1882132
Core_0_LLC_load_MPKI 18.8213
Core_0_LLC_load_miss_rate 0.997687
Core_0_LLC_rfo_access 24482
Core_0_LLC_rfo_hit 7
Core_0_LLC_rfo_miss 24475
Core_0_LLC_rfo_MPKI 0.24475
Core_0_LLC_rfo_miss_rate 0.999714
Core_0_LLC_prefetch_access 652582
Core_0_LLC_prefetch_hit 118
Core_0_LLC_prefetch_miss 652464
Core_0_LLC_prefetch_MPKI 6.52464
Core_0_LLC_prefetch_miss_rate 0.999819
Core_0_LLC_writeback_access 49645
Core_0_LLC_writeback_hit 9229
Core_0_LLC_writeback_miss 40416
Core_0_LLC_writeback_MPKI 0.40416
Core_0_LLC_writeback_miss_rate 0.8141
Core_0_LLC_prefetch_requested 0
Core_0_LLC_prefetch_issued 0
Core_0_LLC_prefetch_useful 0
Core_0_LLC_prefetch_useless 0
Core_0_LLC_prefetch_late 0
Core_0_LLC_prefetch_fill 652449
Core_0_LLC_prefetch_too_early 0
Core_0_LLC_prefetch_too_early_among_fill 0
Core_0_LLC_prefetch_too_early_among_useless 0
Core_0_LLC_prefetch_pollution_evict 3366
Core_0_LLC_prefetch_pollution_demand 3366
Core_0_LLC_prefetch_pollution_among_prefetch_fill 0.00515902
Core_0_LLC_prefetch_accuracy 0
Core_0_LLC_prefetch_coverage 0

[DRAM Statistics]
Channel_0_RQ_row_buffer_hit 2294
Channel_0_RQ_row_buffer_miss 3085104
Channel_0_WQ_row_buffer_hit 18904
Channel_0_WQ_row_buffer_miss 31648
Channel_0_WQ_full 0
Channel_0_dbus_congested 4420898
DRAM_total_RQ_row_buffer_hit 2294
DRAM_total_RQ_row_buffer_miss 3085104
DRAM_total_WQ_row_buffer_hit 18904
DRAM_total_WQ_row_buffer_miss 31648
DRAM_total_WQ_full 0
DRAM_total_dbus_congested 4420898
DRAM_avg_congested_cycle 11.7484

====== DRAM_RQ_TRAFFIC ========
DRAM_RQ_READ_TRAFFIC_BREAKDOWN:
data_demand_read.count = 1906607
data_demand_read.share = 61.75%

inst_demand_read.count = 0
inst_demand_read.share = 0.00%

cache_inst_prefetch.count = 0
cache_inst_prefetch.share = 0.00%

cache_data_prefetch.count = 652449
cache_data_prefetch.share = 21.13%

stlb_data_demand.count = 527099
stlb_data_demand.share = 17.07%

stlb_inst_demand.count = 0
stlb_inst_demand.share = 0.00%

stlb_l1i_pref.count = 0
stlb_l1i_pref.share = 0.00%

stlb_l1d_pref.count = 1243
stlb_l1d_pref.share = 0.04%

DRAM_RQ_READ_TRAFFIC_SUMMARY:
cache_demand.count = 1906607
cache_demand.share = 61.75%

cache_prefetch.count = 652449
cache_prefetch.share = 21.13%

stlb_demand.count = 527099
stlb_demand.share = 17.07%

stlb_prefetch.count = 1243
stlb_prefetch.share = 0.04%

DRAM_RQ_READ_TRAFFIC_DEBUG:
total_classified_read.count = 3087398
unclassified_read.count = 0
total_read_with_other.count = 3087398

classified_plus_unclassified_check.count = 3087398
dram_rq_read_total_observed.count = 3087398
dram_rq_read_total_observed.per_1K_instructions = 30.874

STLB_MISS_PTW_DRAM_TOUCH_BREAKDOWN:
stlb_miss_total.count = 1817051

stlb_miss_touch_dram.count = 528029
stlb_miss_touch_dram.share = 29.06%

stlb_miss_no_dram_touch.count = 1289022
stlb_miss_no_dram_touch.share = 70.94%

STLB_MISS_PTW_DRAM_TOUCH_DEBUG:
stlb_miss_touch_plus_no_touch.count = 1817051
stlb_miss_total_check.count = 1817051

======STLB miss causes ========
Core_0_STLB_miss_cause_breakdown
Core_0_STLB_cause_Demand_Data_miss 1806608
Core_0_STLB_cause_Demand_Data_miss_rate 0.976046
Core_0_STLB_cause_Demand_Instruction_miss 0
Core_0_STLB_cause_Demand_Instruction_miss_rate 0
Core_0_STLB_cause_L1D_Prefetch_miss 10479
Core_0_STLB_cause_L1D_Prefetch_miss_rate 0.00566143
Core_0_STLB_cause_L1D_Prefetch_Same_Page_miss 0
Core_0_STLB_cause_L1D_Prefetch_Same_Page_miss_rate 0
Core_0_STLB_cause_L1D_Prefetch_Cross_Page_miss 10479
Core_0_STLB_cause_L1D_Prefetch_Cross_Page_miss_rate 0.00566143
Core_0_STLB_cause_L1I_Prefetch_miss 0
Core_0_STLB_cause_L1I_Prefetch_miss_rate 0
Core_0_STLB_cause_Other_miss 0
Core_0_STLB_cause_Other_miss_rate 0
Core_0_STLB_Demand_miss 1806608
Core_0_STLB_Demand_miss_rate 0.976046
Core_0_STLB_L1D_Prefetch_miss 10479
Core_0_STLB_L1D_Prefetch_miss_rate 0.00566143
Core_0_STLB_Other_miss 0
Core_0_STLB_Other_miss_rate 0

========== vBerti-TLB Cross-page Flow Stats ==========

Core_0_vBerti_Requested 5683613
Core_0_vBerti_Cross_page_prefetch_in_Requested 256910
Core_0_vBerti_Same_page_prefetch_in_Requested 5426703
Core_0_vBerti_Cross_page_prefetch_of_Requested 0.0452019
Core_0_vBerti_Issued 5660636
Core_0_vBerti_InPQ_Same_page_prefetch 5405266
Core_0_vBerti_InPQ_Cross_page_prefetch 255370
Core_0_vBerti_PQ_Drop_Rate 0.00404267
Core_0_vBerti_InPQ_Cross_page_prefetch_of_Requested 0.0449309
Core_0_vBerti_Cross_page_PQ_Drop_rate 0.00599432
Core_0_vBerti_Cross_page_prefetch_of_Issued 0.0451133
Core_0_CP_PF_PQFULL_drop 1540
Core_0_CP_PF_PQFULL_TLB_rescue_enqueued 1537
Core_0_CP_PF_PQFULL_TLB_rescue_issued 1537
Core_0_CP_PF_PQFULL_TLB_rescue_translated 1537

========= DTLB_vBerti Prefetch Stats =========
Core_0_DTLB_demand_access 12638902
Core_0_DTLB_demand_hit 10709938
Core_0_DTLB_demand_miss 1928964
Core_0_DTLB_demand_mshr_merge 88497
Core_0_DTLB_demand_fill 1840500
Core_0_DTLB_demand_miss_rate 0.152621
Core_0_DTLB_demand_mpki 19.2896
Core_0_DTLB_vberti_prefetch_access 3543376
Core_0_DTLB_vberti_prefetch_hit 3514005
Core_0_DTLB_vberti_prefetch_miss 29371
Core_0_DTLB_vberti_prefetch_mshr_merge 18892
Core_0_DTLB_vberti_prefetch_fill 10446
Core_0_DTLB_vberti_prefetch_miss_rate 0.00828899
Core_0_DTLB_vberti_prefetch_mpki 0.29371

=== DTLB_vBerti Same/Cross-page Prefetch Stats ===
Core_0_DTLB_vberti_same_page_prefetch 3345183
Core_0_DTLB_vberti_same_page_prefetch_hit 3345183
Core_0_DTLB_vberti_same_page_prefetch_miss 0
Core_0_DTLB_vberti_same_page_prefetch_mshr_merge 0
Core_0_DTLB_vberti_same_page_prefetch_fill 0
Core_0_DTLB_vberti_same_page_prefetch_miss_rate 0
Core_0_DTLB_vberti_same_page_prefetch_mpki 0
Core_0_DTLB_vberti_cross_page_prefetch 198193
Core_0_DTLB_vberti_cross_page_prefetch_hit 168822
Core_0_DTLB_vberti_cross_page_prefetch_miss 29371
Core_0_DTLB_vberti_cross_page_prefetch_mshr_merge 18892
Core_0_DTLB_vberti_cross_page_prefetch_fill 10446
Core_0_DTLB_vberti_cross_page_prefetch_miss_rate 0.148194
Core_0_DTLB_vberti_cross_page_prefetch_mpki 0.29371
Core_0_DTLB_same_page_prefetch_miss_rate 0
Core_0_DTLB_same_page_prefetch_mpki 0
Core_0_DTLB_cross_page_prefetch_miss_rate 0.148194
Core_0_DTLB_cross_page_prefetch_mpki 0.29371
Core_0_DTLB_cross_page_prefetch_issued 198193
Core_0_DTLB_cross_page_prefetch_lookups 198193
Core_0_DTLB_cross_page_prefetch_useful 7787
Core_0_DTLB_cross_page_prefetch_useless 2692
Core_0_DTLB_cross_page_prefetch_late 33
Core_0_DTLB_cross_page_prefetch_too_early 12
Core_0_DTLB_cross_page_prefetch_too_early_among_fill 0.00114877
Core_0_DTLB_cross_page_prefetch_too_early_among_useless 0.00445765
Core_0_DTLB_cross_page_prefetch_pollution_evict 538
Core_0_DTLB_cross_page_prefetch_pollution_demand 538
Core_0_DTLB_cross_page_prefetch_pollution_among_prefetch_fill 0.051503
Core_0_DTLB_cross_page_prefetch_accuracy 0.03929
Core_0_DTLB_cross_page_prefetch_coverage 0.00402065

========= STLB_vBerti Prefetch Stats =========
Core_0_STLB_demand_access 1840467
Core_0_STLB_demand_hit 33859
Core_0_STLB_demand_miss 1806608
Core_0_STLB_demand_mshr_merge 0
Core_0_STLB_demand_fill 1806608
Core_0_STLB_demand_miss_rate 0.981603
Core_0_STLB_demand_mpki 18.0661
Core_0_STLB_vberti_prefetch_access 10479
Core_0_STLB_vberti_prefetch_hit 0
Core_0_STLB_vberti_prefetch_miss 10479
Core_0_STLB_vberti_prefetch_mshr_merge 0
Core_0_STLB_vberti_prefetch_fill 0
Core_0_STLB_vberti_prefetch_miss_rate 1
Core_0_STLB_vberti_prefetch_mpki 0.10479

=== STLB_vBerti Same/Cross-page Prefetch Stats ===
Core_0_STLB_vberti_same_page_prefetch 0
Core_0_STLB_vberti_same_page_prefetch_hit 0
Core_0_STLB_vberti_same_page_prefetch_miss 0
Core_0_STLB_vberti_same_page_prefetch_mshr_merge 0
Core_0_STLB_vberti_same_page_prefetch_fill 0
Core_0_STLB_vberti_same_page_prefetch_miss_rate 0
Core_0_STLB_vberti_same_page_prefetch_mpki 0
Core_0_STLB_vberti_cross_page_prefetch 10479
Core_0_STLB_vberti_cross_page_prefetch_hit 0
Core_0_STLB_vberti_cross_page_prefetch_miss 10479
Core_0_STLB_vberti_cross_page_prefetch_mshr_merge 0
Core_0_STLB_vberti_cross_page_prefetch_fill 0
Core_0_STLB_vberti_cross_page_prefetch_miss_rate 1
Core_0_STLB_vberti_cross_page_prefetch_mpki 0.10479
Core_0_STLB_same_page_prefetch_miss_rate 0
Core_0_STLB_same_page_prefetch_mpki 0
Core_0_STLB_cross_page_prefetch_miss_rate 1
Core_0_STLB_cross_page_prefetch_mpki 0.10479
Core_0_STLB_cross_page_prefetch_issued 10479
Core_0_STLB_cross_page_prefetch_lookups 10479
Core_0_STLB_cross_page_prefetch_useful 36
Core_0_STLB_cross_page_prefetch_useless 9295
Core_0_STLB_cross_page_prefetch_late 36
Core_0_STLB_cross_page_prefetch_too_early 0
Core_0_STLB_cross_page_prefetch_too_early_among_fill 0
Core_0_STLB_cross_page_prefetch_too_early_among_useless 0
Core_0_STLB_cross_page_prefetch_pollution_evict 0
Core_0_STLB_cross_page_prefetch_pollution_demand 0
Core_0_STLB_cross_page_prefetch_pollution_among_prefetch_fill 0
Core_0_STLB_cross_page_prefetch_accuracy 0.00343544
Core_0_STLB_cross_page_prefetch_coverage 1.99264e-05

========= STLB Cross-page Prefetch Buffer Stats =========
Core_0_STLB_raw_demand_miss 1806608
Core_0_CP_PB_insert 10479
Core_0_CP_PB_demand_hit 36
Core_0_STLB_PB_demand_miss 1806572
Core_0_CP_PB_coverage 1.99268e-05
Core_0_STLB_raw_demand_mpki 18.0661
Core_0_STLB_PB_demand_mpki 18.0657
Core_0_CP_PB_demand_hit_mpki 0.00036

Core_0_TLB_demand_miss_rate 0.14294
Core_0_TLB_demand_mpki 18.0661
Core_0_TLB_same_page_prefetch_miss_rate 0
Core_0_TLB_same_page_prefetch_mpki 0
Core_0_TLB_cross_page_prefetch_miss_rate 0.0528727
Core_0_TLB_cross_page_prefetch_mpki 0.10479
Core_0_TLB_cross_page_prefetch_issued 198193
Core_0_TLB_cross_page_prefetch_lookups 198193
Core_0_TLB_cross_page_prefetch_useful 7787
Core_0_TLB_cross_page_prefetch_useless 2692
Core_0_TLB_cross_page_prefetch_late 33
Core_0_TLB_cross_page_prefetch_too_early 12
Core_0_TLB_cross_page_prefetch_too_early_among_fill 0.00114877
Core_0_TLB_cross_page_prefetch_too_early_among_useless 0.00445765
Core_0_TLB_cross_page_prefetch_accuracy 0.03929
Core_0_TLB_cross_page_prefetch_coverage 0.00429179
BERTI TO_L1: 3845986 TO_L2: 4336779 TO_L2_BC_MSHR: 658
BERTI AVG_LAT: 138.798 NUM_TRACK_LATENCY: 3676459 NUM_CANT_TRACK_LATENCY: 0
BERTI CROSS_PAGE 360376 NO_CROSS_PAGE: 7822389
BERTI FOUND_BERTI: 16890373 NO_FOUND_BERTI: 1372338
BERTI AVERAGE_ISSUED: 2.59584
