[VMEM] WARNING: physical memory size is smaller than virtual memory size.

*** ChampSim Multicore Out-of-Order Simulator ***
Warmup Instructions: 50000000
Simulation Instructions: 100000000
Number of CPUs: 1
Page size: 4096
Core 0: /data2/zcq/champsim_traces_gap/bc.road-79B.champsimtrace.xz
VBerti Prefetcher
BERTI HASH ENTANGLING
BERTI IP MASK ffff
Off-chip DRAM Size: 16 GiB Channels: 1 Width: 64-bit Data Rate: 3205 MT/s
Warmup halting CPU 0 at instruction 50000001 cycle 14578085 for remainder of phase
Warmup finished CPU 0 instructions: 50000001 cycles: 14578085 cumulative IPC: 3.43 (Simulation time: 00 hr 03 min 31 sec)
Warmup complete CPU 0 instructions: 50000001 cycles: 14578085 cumulative IPC: 3.43 (Simulation time: 00 hr 03 min 31 sec)
Simulation finished CPU 0 instructions: 100000003 cycles: 357903224 cumulative IPC: 0.2794 (Simulation time: 00 hr 30 min 48 sec)
Simulation complete CPU 0 instructions: 100000003 cycles: 357903224 cumulative IPC: 0.2794 (Simulation time: 00 hr 30 min 48 sec)

ChampSim completed all CPUs

=== Simulation ===
CPU 0 runs /data2/zcq/champsim_traces_gap/bc.road-79B.champsimtrace.xz

Region of Interest Statistics

CPU 0 cumulative IPC: 0.2794 instructions: 100000003 cycles: 357903224
CPU 0 Branch Prediction Accuracy: 88.49% MPKI: 17.22 Average ROB Occupancy at Mispredict: 37.9
Branch type MPKI
BRANCH_DIRECT_JUMP: 0
BRANCH_INDIRECT: 0
BRANCH_CONDITIONAL: 17.22
BRANCH_DIRECT_CALL: 0
BRANCH_INDIRECT_CALL: 0
BRANCH_RETURN: 0

cpu0->cpu0_STLB TOTAL        ACCESS:    1957981 HIT:    1219085 MISS:     738896 MSHR_MERGE:          0
cpu0->cpu0_STLB LOAD         ACCESS:    1957981 HIT:    1219085 MISS:     738896 MSHR_MERGE:          0
cpu0->cpu0_STLB RFO          ACCESS:          0 HIT:          0 MISS:          0 MSHR_MERGE:          0
cpu0->cpu0_STLB PREFETCH     ACCESS:          0 HIT:          0 MISS:          0 MSHR_MERGE:          0
cpu0->cpu0_STLB WRITE        ACCESS:          0 HIT:          0 MISS:          0 MSHR_MERGE:          0
cpu0->cpu0_STLB TRANSLATION  ACCESS:          0 HIT:          0 MISS:          0 MSHR_MERGE:          0
cpu0->cpu0_STLB PREFETCH REQUESTED:          0 ISSUED:          0 USEFUL:          0 USELESS:          0 LATE:          0 TOO_EARLY:          0
cpu0->cpu0_STLB AVERAGE MISS LATENCY: 24.16 cycles
cpu0->cpu0_L2C TOTAL        ACCESS:   11358305 HIT:    6884481 MISS:    4473824 MSHR_MERGE:      62693
cpu0->cpu0_L2C LOAD         ACCESS:    5153625 HIT:    1165990 MISS:    3987635 MSHR_MERGE:        303
cpu0->cpu0_L2C RFO          ACCESS:       5084 HIT:       2770 MISS:       2314 MSHR_MERGE:          0
cpu0->cpu0_L2C PREFETCH     ACCESS:    3458899 HIT:    3188525 MISS:     270374 MSHR_MERGE:      62390
cpu0->cpu0_L2C WRITE        ACCESS:    2327457 HIT:    2326482 MISS:        975 MSHR_MERGE:          0
cpu0->cpu0_L2C TRANSLATION  ACCESS:     413240 HIT:     200714 MISS:     212526 MSHR_MERGE:          0
cpu0->cpu0_L2C PREFETCH REQUESTED:     854046 ISSUED:     846335 USEFUL:      78960 USELESS:      27928 LATE:        137 TOO_EARLY:      15827
cpu0->cpu0_L2C AVERAGE MISS LATENCY: 62.22 cycles
cpu0->cpu0_L1I TOTAL        ACCESS:    4855892 HIT:    4855892 MISS:          0 MSHR_MERGE:          0
cpu0->cpu0_L1I LOAD         ACCESS:    4855892 HIT:    4855892 MISS:          0 MSHR_MERGE:          0
cpu0->cpu0_L1I RFO          ACCESS:          0 HIT:          0 MISS:          0 MSHR_MERGE:          0
cpu0->cpu0_L1I PREFETCH     ACCESS:          0 HIT:          0 MISS:          0 MSHR_MERGE:          0
cpu0->cpu0_L1I WRITE        ACCESS:          0 HIT:          0 MISS:          0 MSHR_MERGE:          0
cpu0->cpu0_L1I TRANSLATION  ACCESS:          0 HIT:          0 MISS:          0 MSHR_MERGE:          0
cpu0->cpu0_L1I PREFETCH REQUESTED:          0 ISSUED:          0 USEFUL:          0 USELESS:          0 LATE:          0 TOO_EARLY:          0
cpu0->cpu0_L1I AVERAGE MISS LATENCY: - cycles
cpu0->cpu0_L1D TOTAL        ACCESS:   88214210 HIT:   79082873 MISS:    9131337 MSHR_MERGE:     945783
cpu0->cpu0_L1D LOAD         ACCESS:   37404753 HIT:   31316159 MISS:    6088594 MSHR_MERGE:     934958
cpu0->cpu0_L1D RFO          ACCESS:          0 HIT:          0 MISS:          0 MSHR_MERGE:          0
cpu0->cpu0_L1D PREFETCH     ACCESS:   39208324 HIT:   36590171 MISS:    2618153 MSHR_MERGE:       4559
cpu0->cpu0_L1D WRITE        ACCESS:   10046406 HIT:   10037013 MISS:       9393 MSHR_MERGE:       4309
cpu0->cpu0_L1D TRANSLATION  ACCESS:    1554727 HIT:    1139530 MISS:     415197 MSHR_MERGE:       1957
cpu0->cpu0_L1D PREFETCH REQUESTED:   87224828 ISSUED:   39208317 USEFUL:     279755 USELESS:      18586 LATE:          0 TOO_EARLY:        209
cpu0->cpu0_L1D AVERAGE MISS LATENCY: 55.72 cycles
cpu0->cpu0_ITLB TOTAL        ACCESS:    4850610 HIT:    4850610 MISS:          0 MSHR_MERGE:          0
cpu0->cpu0_ITLB LOAD         ACCESS:    4850610 HIT:    4850610 MISS:          0 MSHR_MERGE:          0
cpu0->cpu0_ITLB RFO          ACCESS:          0 HIT:          0 MISS:          0 MSHR_MERGE:          0
cpu0->cpu0_ITLB PREFETCH     ACCESS:          0 HIT:          0 MISS:          0 MSHR_MERGE:          0
cpu0->cpu0_ITLB WRITE        ACCESS:          0 HIT:          0 MISS:          0 MSHR_MERGE:          0
cpu0->cpu0_ITLB TRANSLATION  ACCESS:          0 HIT:          0 MISS:          0 MSHR_MERGE:          0
cpu0->cpu0_ITLB PREFETCH REQUESTED:          0 ISSUED:          0 USEFUL:          0 USELESS:          0 LATE:          0 TOO_EARLY:          0
cpu0->cpu0_ITLB AVERAGE MISS LATENCY: - cycles
cpu0->cpu0_DTLB TOTAL        ACCESS:   71806318 HIT:   69338847 MISS:    2467471 MSHR_MERGE:     509490
cpu0->cpu0_DTLB LOAD         ACCESS:   71806318 HIT:   69338847 MISS:    2467471 MSHR_MERGE:     509490
cpu0->cpu0_DTLB RFO          ACCESS:          0 HIT:          0 MISS:          0 MSHR_MERGE:          0
cpu0->cpu0_DTLB PREFETCH     ACCESS:          0 HIT:          0 MISS:          0 MSHR_MERGE:          0
cpu0->cpu0_DTLB WRITE        ACCESS:          0 HIT:          0 MISS:          0 MSHR_MERGE:          0
cpu0->cpu0_DTLB TRANSLATION  ACCESS:          0 HIT:          0 MISS:          0 MSHR_MERGE:          0
cpu0->cpu0_DTLB PREFETCH REQUESTED:          0 ISSUED:          0 USEFUL:          0 USELESS:          0 LATE:          0 TOO_EARLY:          0
cpu0->cpu0_DTLB AVERAGE MISS LATENCY: 14.48 cycles
cpu0->LLC TOTAL        ACCESS:    6174307 HIT:    4947586 MISS:    1226721 MSHR_MERGE:          0
cpu0->LLC LOAD         ACCESS:    3987326 HIT:    2922558 MISS:    1064768 MSHR_MERGE:          0
cpu0->LLC RFO          ACCESS:       2314 HIT:       2202 MISS:        112 MSHR_MERGE:          0
cpu0->LLC PREFETCH     ACCESS:     207984 HIT:      96260 MISS:     111724 MSHR_MERGE:          0
cpu0->LLC WRITE        ACCESS:    1764157 HIT:    1719796 MISS:      44361 MSHR_MERGE:          0
cpu0->LLC TRANSLATION  ACCESS:     212526 HIT:     206770 MISS:       5756 MSHR_MERGE:          0
cpu0->LLC PREFETCH REQUESTED:          0 ISSUED:          0 USEFUL:          0 USELESS:          0 LATE:          0 TOO_EARLY:          0
cpu0->LLC AVERAGE MISS LATENCY: 177.4 cycles

DRAM Statistics

Channel 0 RQ ROW_BUFFER_HIT:       2425
  ROW_BUFFER_MISS:    1179800
  AVG DBUS CONGESTED CYCLE: 21.12
Channel 0 WQ ROW_BUFFER_HIT:     114089
  ROW_BUFFER_MISS:     302932
  FULL:          0
Channel 0 REFRESHES ISSUED:      29826

[ROI Statistics]
[System Configuration]
num_cpus 1
cpu_freq 4000
fetch_width 6
decode_width 6
dispatch_width 6
execute_width 6
lq_width 2
sq_width 2
retire_width 6
scheduler_size 128
branch_mispredict_penalty 15
rob_size 352
lq_size 128
sq_size 72
ifetch_buffer_size 64
decode_buffer_size 32
dispatch_buffer_size 32
register_file_size 288
decode_latency 1
dispatch_latency 1
schedule_latency 1
execute_latency 1
page_size 4096
block_size 64
core_0_itlb_set 16
core_0_itlb_way 4
core_0_itlb_rq_size 16
core_0_itlb_wq_size 16
core_0_itlb_pq_size 0
core_0_itlb_mshr_size 8
core_0_itlb_hit_latency 1
core_0_itlb_fill_latency 1
core_0_itlb_max_tag_check 2
core_0_itlb_max_fill 2
core_0_dtlb_set 16
core_0_dtlb_way 4
core_0_dtlb_rq_size 16
core_0_dtlb_wq_size 16
core_0_dtlb_pq_size 0
core_0_dtlb_mshr_size 8
core_0_dtlb_hit_latency 1
core_0_dtlb_fill_latency 1
core_0_dtlb_max_tag_check 2
core_0_dtlb_max_fill 2
core_0_stlb_set 128
core_0_stlb_way 12
core_0_stlb_rq_size 32
core_0_stlb_wq_size 32
core_0_stlb_pq_size 0
core_0_stlb_mshr_size 16
core_0_stlb_hit_latency 4
core_0_stlb_fill_latency 4
core_0_stlb_max_tag_check 1
core_0_stlb_max_fill 1
core_0_l1i_set 64
core_0_l1i_way 8
core_0_l1i_rq_size 64
core_0_l1i_wq_size 64
core_0_l1i_pq_size 32
core_0_l1i_mshr_size 8
core_0_l1i_hit_latency 2
core_0_l1i_fill_latency 2
core_0_l1i_max_tag_check 2
core_0_l1i_max_fill 2
core_0_l1d_set 64
core_0_l1d_way 12
core_0_l1d_rq_size 64
core_0_l1d_wq_size 64
core_0_l1d_pq_size 8
core_0_l1d_mshr_size 16
core_0_l1d_hit_latency 2
core_0_l1d_fill_latency 3
core_0_l1d_max_tag_check 2
core_0_l1d_max_fill 2
core_0_l2c_set 1024
core_0_l2c_way 8
core_0_l2c_rq_size 32
core_0_l2c_wq_size 32
core_0_l2c_pq_size 16
core_0_l2c_mshr_size 32
core_0_l2c_hit_latency 5
core_0_l2c_fill_latency 5
core_0_l2c_max_tag_check 1
core_0_l2c_max_fill 1
llc_set 2048
llc_way 16
llc_rq_size 32
llc_wq_size 32
llc_pq_size 32
llc_mshr_size 64
llc_hit_latency 10
llc_fill_latency 10
llc_max_tag_check 1
llc_max_fill 1
dram_channels 1
dram_ranks 1
dram_bankgroups 8
dram_banks 4
dram_rows 65536
dram_columns 1024
dram_channel_width 8
dram_rq_size 64
dram_wq_size 64
dram_size 17179869184
core_0_itlb_prefetcher no
core_0_dtlb_prefetcher no
core_0_stlb_prefetcher no
core_0_l1i_prefetcher next_line
core_0_l1d_prefetcher vberti
core_0_l2c_prefetcher ip_stride
llc_prefetcher no
llc_replacement drrip

Core_0_instructions 100000003
Core_0_cycles 357903224
Core_0_IPC 0.279405
Core_0_branch_prediction_accuracy 88.4904
Core_0_branch_MPKI 17.2176
Core_0_average_ROB_occupancy_at_mispredict 37.897

Core_0_ITLB_total_access 4850610
Core_0_ITLB_total_hit 4850610
Core_0_ITLB_total_miss 0
Core_0_ITLB_total_MPKI 0
Core_0_ITLB_total_miss_rate 0
Core_0_ITLB_demand_access 4850610
Core_0_ITLB_demand_hit 4850610
Core_0_ITLB_demand_miss 0
Core_0_ITLB_demand_MPKI 0
Core_0_ITLB_demand_miss_rate 0
Core_0_ITLB_load_access 4850610
Core_0_ITLB_load_hit 4850610
Core_0_ITLB_load_miss 0
Core_0_ITLB_load_MPKI 0
Core_0_ITLB_load_miss_rate 0
Core_0_ITLB_rfo_access 0
Core_0_ITLB_rfo_hit 0
Core_0_ITLB_rfo_miss 0
Core_0_ITLB_rfo_MPKI 0
Core_0_ITLB_rfo_miss_rate 0
Core_0_ITLB_prefetch_access 0
Core_0_ITLB_prefetch_hit 0
Core_0_ITLB_prefetch_miss 0
Core_0_ITLB_prefetch_MPKI 0
Core_0_ITLB_prefetch_miss_rate 0
Core_0_ITLB_writeback_access 0
Core_0_ITLB_writeback_hit 0
Core_0_ITLB_writeback_miss 0
Core_0_ITLB_writeback_MPKI 0
Core_0_ITLB_writeback_miss_rate 0
Core_0_ITLB_prefetch_requested 0
Core_0_ITLB_prefetch_issued 0
Core_0_ITLB_prefetch_useful 0
Core_0_ITLB_prefetch_useless 0
Core_0_ITLB_prefetch_late 0
Core_0_ITLB_prefetch_fill 0
Core_0_ITLB_prefetch_too_early 0
Core_0_ITLB_prefetch_too_early_among_fill 0
Core_0_ITLB_prefetch_too_early_among_useless 0
Core_0_ITLB_prefetch_pollution_evict 0
Core_0_ITLB_prefetch_pollution_demand 0
Core_0_ITLB_prefetch_pollution_among_prefetch_fill 0
Core_0_ITLB_prefetch_accuracy 0
Core_0_ITLB_prefetch_coverage 0

Core_0_DTLB_total_access 71806318
Core_0_DTLB_total_hit 69338847
Core_0_DTLB_total_miss 2467471
Core_0_DTLB_total_MPKI 24.6747
Core_0_DTLB_total_miss_rate 0.0343629
Core_0_DTLB_demand_access 71806318
Core_0_DTLB_demand_hit 69338847
Core_0_DTLB_demand_miss 2467471
Core_0_DTLB_demand_MPKI 24.6747
Core_0_DTLB_demand_miss_rate 0.0343629
Core_0_DTLB_load_access 71806318
Core_0_DTLB_load_hit 69338847
Core_0_DTLB_load_miss 2467471
Core_0_DTLB_load_MPKI 24.6747
Core_0_DTLB_load_miss_rate 0.0343629
Core_0_DTLB_rfo_access 0
Core_0_DTLB_rfo_hit 0
Core_0_DTLB_rfo_miss 0
Core_0_DTLB_rfo_MPKI 0
Core_0_DTLB_rfo_miss_rate 0
Core_0_DTLB_prefetch_access 0
Core_0_DTLB_prefetch_hit 0
Core_0_DTLB_prefetch_miss 0
Core_0_DTLB_prefetch_MPKI 0
Core_0_DTLB_prefetch_miss_rate 0
Core_0_DTLB_writeback_access 0
Core_0_DTLB_writeback_hit 0
Core_0_DTLB_writeback_miss 0
Core_0_DTLB_writeback_MPKI 0
Core_0_DTLB_writeback_miss_rate 0
Core_0_DTLB_prefetch_requested 0
Core_0_DTLB_prefetch_issued 0
Core_0_DTLB_prefetch_useful 0
Core_0_DTLB_prefetch_useless 0
Core_0_DTLB_prefetch_late 0
Core_0_DTLB_prefetch_fill 0
Core_0_DTLB_prefetch_too_early 0
Core_0_DTLB_prefetch_too_early_among_fill 0
Core_0_DTLB_prefetch_too_early_among_useless 0
Core_0_DTLB_prefetch_pollution_evict 0
Core_0_DTLB_prefetch_pollution_demand 0
Core_0_DTLB_prefetch_pollution_among_prefetch_fill 0
Core_0_DTLB_prefetch_accuracy 0
Core_0_DTLB_prefetch_coverage 0

Core_0_STLB_total_access 1957981
Core_0_STLB_total_hit 1219085
Core_0_STLB_total_miss 738896
Core_0_STLB_total_MPKI 7.38896
Core_0_STLB_total_miss_rate 0.377376
Core_0_STLB_demand_access 1957981
Core_0_STLB_demand_hit 1219085
Core_0_STLB_demand_miss 738896
Core_0_STLB_demand_MPKI 7.38896
Core_0_STLB_demand_miss_rate 0.377376
Core_0_STLB_load_access 1957981
Core_0_STLB_load_hit 1219085
Core_0_STLB_load_miss 738896
Core_0_STLB_load_MPKI 7.38896
Core_0_STLB_load_miss_rate 0.377376
Core_0_STLB_rfo_access 0
Core_0_STLB_rfo_hit 0
Core_0_STLB_rfo_miss 0
Core_0_STLB_rfo_MPKI 0
Core_0_STLB_rfo_miss_rate 0
Core_0_STLB_prefetch_access 0
Core_0_STLB_prefetch_hit 0
Core_0_STLB_prefetch_miss 0
Core_0_STLB_prefetch_MPKI 0
Core_0_STLB_prefetch_miss_rate 0
Core_0_STLB_writeback_access 0
Core_0_STLB_writeback_hit 0
Core_0_STLB_writeback_miss 0
Core_0_STLB_writeback_MPKI 0
Core_0_STLB_writeback_miss_rate 0
Core_0_STLB_prefetch_requested 0
Core_0_STLB_prefetch_issued 0
Core_0_STLB_prefetch_useful 0
Core_0_STLB_prefetch_useless 0
Core_0_STLB_prefetch_late 0
Core_0_STLB_prefetch_fill 0
Core_0_STLB_prefetch_too_early 0
Core_0_STLB_prefetch_too_early_among_fill 0
Core_0_STLB_prefetch_too_early_among_useless 0
Core_0_STLB_prefetch_pollution_evict 0
Core_0_STLB_prefetch_pollution_demand 0
Core_0_STLB_prefetch_pollution_among_prefetch_fill 0
Core_0_STLB_prefetch_accuracy 0
Core_0_STLB_prefetch_coverage 0

Core_0_L1I_total_access 4855892
Core_0_L1I_total_hit 4855892
Core_0_L1I_total_miss 0
Core_0_L1I_total_MPKI 0
Core_0_L1I_total_miss_rate 0
Core_0_L1I_demand_access 4855892
Core_0_L1I_demand_hit 4855892
Core_0_L1I_demand_miss 0
Core_0_L1I_demand_MPKI 0
Core_0_L1I_demand_miss_rate 0
Core_0_L1I_load_access 4855892
Core_0_L1I_load_hit 4855892
Core_0_L1I_load_miss 0
Core_0_L1I_load_MPKI 0
Core_0_L1I_load_miss_rate 0
Core_0_L1I_rfo_access 0
Core_0_L1I_rfo_hit 0
Core_0_L1I_rfo_miss 0
Core_0_L1I_rfo_MPKI 0
Core_0_L1I_rfo_miss_rate 0
Core_0_L1I_prefetch_access 0
Core_0_L1I_prefetch_hit 0
Core_0_L1I_prefetch_miss 0
Core_0_L1I_prefetch_MPKI 0
Core_0_L1I_prefetch_miss_rate 0
Core_0_L1I_writeback_access 0
Core_0_L1I_writeback_hit 0
Core_0_L1I_writeback_miss 0
Core_0_L1I_writeback_MPKI 0
Core_0_L1I_writeback_miss_rate 0
Core_0_L1I_prefetch_requested 0
Core_0_L1I_prefetch_issued 0
Core_0_L1I_prefetch_useful 0
Core_0_L1I_prefetch_useless 0
Core_0_L1I_prefetch_late 0
Core_0_L1I_prefetch_fill 0
Core_0_L1I_prefetch_too_early 0
Core_0_L1I_prefetch_too_early_among_fill 0
Core_0_L1I_prefetch_too_early_among_useless 0
Core_0_L1I_prefetch_pollution_evict 0
Core_0_L1I_prefetch_pollution_demand 0
Core_0_L1I_prefetch_pollution_among_prefetch_fill 0
Core_0_L1I_prefetch_accuracy 0
Core_0_L1I_prefetch_coverage 0

Core_0_L1D_total_access 86659483
Core_0_L1D_total_hit 77943343
Core_0_L1D_total_miss 8716140
Core_0_L1D_total_MPKI 87.1614
Core_0_L1D_total_miss_rate 0.100579
Core_0_L1D_demand_access 37404753
Core_0_L1D_demand_hit 31316159
Core_0_L1D_demand_miss 6088594
Core_0_L1D_demand_MPKI 60.8859
Core_0_L1D_demand_miss_rate 0.162776
Core_0_L1D_load_access 37404753
Core_0_L1D_load_hit 31316159
Core_0_L1D_load_miss 6088594
Core_0_L1D_load_MPKI 60.8859
Core_0_L1D_load_miss_rate 0.162776
Core_0_L1D_rfo_access 0
Core_0_L1D_rfo_hit 0
Core_0_L1D_rfo_miss 0
Core_0_L1D_rfo_MPKI 0
Core_0_L1D_rfo_miss_rate 0
Core_0_L1D_prefetch_access 39208324
Core_0_L1D_prefetch_hit 36590171
Core_0_L1D_prefetch_miss 2618153
Core_0_L1D_prefetch_MPKI 26.1815
Core_0_L1D_prefetch_miss_rate 0.0667754
Core_0_L1D_writeback_access 10046406
Core_0_L1D_writeback_hit 10037013
Core_0_L1D_writeback_miss 9393
Core_0_L1D_writeback_MPKI 0.09393
Core_0_L1D_writeback_miss_rate 0.000934961
Core_0_L1D_prefetch_requested 87224828
Core_0_L1D_prefetch_issued 39208317
Core_0_L1D_prefetch_useful 279755
Core_0_L1D_prefetch_useless 18586
Core_0_L1D_prefetch_late 0
Core_0_L1D_prefetch_fill 298349
Core_0_L1D_prefetch_too_early 209
Core_0_L1D_prefetch_too_early_among_fill 0.000700522
Core_0_L1D_prefetch_too_early_among_useless 0.011245
Core_0_L1D_prefetch_pollution_evict 157773
Core_0_L1D_prefetch_pollution_demand 157771
Core_0_L1D_prefetch_pollution_among_prefetch_fill 0.52882
Core_0_L1D_prefetch_accuracy 0.00713509
Core_0_L1D_prefetch_coverage 0.043929

Core_0_L2C_total_access 10945065
Core_0_L2C_total_hit 6683767
Core_0_L2C_total_miss 4261298
Core_0_L2C_total_MPKI 42.613
Core_0_L2C_total_miss_rate 0.389335
Core_0_L2C_demand_access 5158709
Core_0_L2C_demand_hit 1168760
Core_0_L2C_demand_miss 3989949
Core_0_L2C_demand_MPKI 39.8995
Core_0_L2C_demand_miss_rate 0.773439
Core_0_L2C_load_access 5153625
Core_0_L2C_load_hit 1165990
Core_0_L2C_load_miss 3987635
Core_0_L2C_load_MPKI 39.8763
Core_0_L2C_load_miss_rate 0.773753
Core_0_L2C_rfo_access 5084
Core_0_L2C_rfo_hit 2770
Core_0_L2C_rfo_miss 2314
Core_0_L2C_rfo_MPKI 0.02314
Core_0_L2C_rfo_miss_rate 0.455153
Core_0_L2C_prefetch_access 3458899
Core_0_L2C_prefetch_hit 3188525
Core_0_L2C_prefetch_miss 270374
Core_0_L2C_prefetch_MPKI 2.70374
Core_0_L2C_prefetch_miss_rate 0.0781676
Core_0_L2C_writeback_access 2327457
Core_0_L2C_writeback_hit 2326482
Core_0_L2C_writeback_miss 975
Core_0_L2C_writeback_MPKI 0.00975
Core_0_L2C_writeback_miss_rate 0.000418912
Core_0_L2C_prefetch_requested 854046
Core_0_L2C_prefetch_issued 846335
Core_0_L2C_prefetch_useful 78960
Core_0_L2C_prefetch_useless 27928
Core_0_L2C_prefetch_late 137
Core_0_L2C_prefetch_fill 207671
Core_0_L2C_prefetch_too_early 15827
Core_0_L2C_prefetch_too_early_among_fill 0.0762119
Core_0_L2C_prefetch_too_early_among_useless 0.566707
Core_0_L2C_prefetch_pollution_evict 154639
Core_0_L2C_prefetch_pollution_demand 153936
Core_0_L2C_prefetch_pollution_among_prefetch_fill 0.744635
Core_0_L2C_prefetch_accuracy 0.0932964
Core_0_L2C_prefetch_coverage 0.0194057

Core_0_LLC_total_access 5961781
Core_0_LLC_total_hit 4740816
Core_0_LLC_total_miss 1220965
Core_0_LLC_total_MPKI 12.2096
Core_0_LLC_total_miss_rate 0.204799
Core_0_LLC_demand_access 3989640
Core_0_LLC_demand_hit 2924760
Core_0_LLC_demand_miss 1064880
Core_0_LLC_demand_MPKI 10.6488
Core_0_LLC_demand_miss_rate 0.266911
Core_0_LLC_load_access 3987326
Core_0_LLC_load_hit 2922558
Core_0_LLC_load_miss 1064768
Core_0_LLC_load_MPKI 10.6477
Core_0_LLC_load_miss_rate 0.267038
Core_0_LLC_rfo_access 2314
Core_0_LLC_rfo_hit 2202
Core_0_LLC_rfo_miss 112
Core_0_LLC_rfo_MPKI 0.00112
Core_0_LLC_rfo_miss_rate 0.048401
Core_0_LLC_prefetch_access 207984
Core_0_LLC_prefetch_hit 96260
Core_0_LLC_prefetch_miss 111724
Core_0_LLC_prefetch_MPKI 1.11724
Core_0_LLC_prefetch_miss_rate 0.537176
Core_0_LLC_writeback_access 1764157
Core_0_LLC_writeback_hit 1719796
Core_0_LLC_writeback_miss 44361
Core_0_LLC_writeback_MPKI 0.44361
Core_0_LLC_writeback_miss_rate 0.0251457
Core_0_LLC_prefetch_requested 0
Core_0_LLC_prefetch_issued 0
Core_0_LLC_prefetch_useful 0
Core_0_LLC_prefetch_useless 0
Core_0_LLC_prefetch_late 0
Core_0_LLC_prefetch_fill 111724
Core_0_LLC_prefetch_too_early 0
Core_0_LLC_prefetch_too_early_among_fill 0
Core_0_LLC_prefetch_too_early_among_useless 0
Core_0_LLC_prefetch_pollution_evict 48346
Core_0_LLC_prefetch_pollution_demand 48346
Core_0_LLC_prefetch_pollution_among_prefetch_fill 0.432727
Core_0_LLC_prefetch_accuracy 0
Core_0_LLC_prefetch_coverage 0

[DRAM Statistics]
Channel_0_RQ_row_buffer_hit 2425
Channel_0_RQ_row_buffer_miss 1179800
Channel_0_WQ_row_buffer_hit 114089
Channel_0_WQ_row_buffer_miss 302932
Channel_0_WQ_full 0
Channel_0_dbus_congested 4927497
DRAM_total_RQ_row_buffer_hit 2425
DRAM_total_RQ_row_buffer_miss 1179800
DRAM_total_WQ_row_buffer_hit 114089
DRAM_total_WQ_row_buffer_miss 302932
DRAM_total_WQ_full 0
DRAM_total_dbus_congested 4927497
DRAM_avg_congested_cycle 21.1231

====== DRAM_RQ_TRAFFIC ========
DRAM_RQ_READ_TRAFFIC_BREAKDOWN:
data_demand_read.count = 1064880
data_demand_read.share = 90.06%

inst_demand_read.count = 0
inst_demand_read.share = 0.00%

cache_inst_prefetch.count = 0
cache_inst_prefetch.share = 0.00%

cache_data_prefetch.count = 111724
cache_data_prefetch.share = 9.45%

stlb_data_demand.count = 5564
stlb_data_demand.share = 0.47%

stlb_inst_demand.count = 0
stlb_inst_demand.share = 0.00%

stlb_l1i_pref.count = 0
stlb_l1i_pref.share = 0.00%

stlb_l1d_pref.count = 192
stlb_l1d_pref.share = 0.02%

DRAM_RQ_READ_TRAFFIC_SUMMARY:
cache_demand.count = 1064880
cache_demand.share = 90.06%

cache_prefetch.count = 111724
cache_prefetch.share = 9.45%

stlb_demand.count = 5564
stlb_demand.share = 0.47%

stlb_prefetch.count = 192
stlb_prefetch.share = 0.02%

DRAM_RQ_READ_TRAFFIC_DEBUG:
total_classified_read.count = 1182360
unclassified_read.count = 0
total_read_with_other.count = 1182360

classified_plus_unclassified_check.count = 1182360
dram_rq_read_total_observed.count = 1182360
dram_rq_read_total_observed.per_1K_instructions = 11.8236

STLB_MISS_PTW_DRAM_TOUCH_BREAKDOWN:
stlb_miss_total.count = 737555

stlb_miss_touch_dram.count = 5720
stlb_miss_touch_dram.share = 0.78%

stlb_miss_no_dram_touch.count = 731835
stlb_miss_no_dram_touch.share = 99.22%

STLB_MISS_PTW_DRAM_TOUCH_DEBUG:
stlb_miss_touch_plus_no_touch.count = 737555
stlb_miss_total_check.count = 737555

======STLB miss causes ========
Core_0_STLB_miss_cause_breakdown
Core_0_STLB_cause_Demand_Data_miss 734589
Core_0_STLB_cause_Demand_Data_miss_rate 0.375177
Core_0_STLB_cause_Demand_Instruction_miss 0
Core_0_STLB_cause_Demand_Instruction_miss_rate 0
Core_0_STLB_cause_L1D_Prefetch_miss 4307
Core_0_STLB_cause_L1D_Prefetch_miss_rate 0.00219971
Core_0_STLB_cause_L1D_Prefetch_Same_Page_miss 8
Core_0_STLB_cause_L1D_Prefetch_Same_Page_miss_rate 4.08584e-06
Core_0_STLB_cause_L1D_Prefetch_Cross_Page_miss 4299
Core_0_STLB_cause_L1D_Prefetch_Cross_Page_miss_rate 0.00219563
Core_0_STLB_cause_L1I_Prefetch_miss 0
Core_0_STLB_cause_L1I_Prefetch_miss_rate 0
Core_0_STLB_cause_Other_miss 0
Core_0_STLB_cause_Other_miss_rate 0
Core_0_STLB_Demand_miss 734589
Core_0_STLB_Demand_miss_rate 0.375177
Core_0_STLB_L1D_Prefetch_miss 4307
Core_0_STLB_L1D_Prefetch_miss_rate 0.00219971
Core_0_STLB_Other_miss 0
Core_0_STLB_Other_miss_rate 0

========== vBerti-TLB Cross-page Flow Stats ==========

Core_0_vBerti_Requested 87224828
Core_0_vBerti_Cross_page_prefetch_in_Requested 6398915
Core_0_vBerti_Same_page_prefetch_in_Requested 80825913
Core_0_vBerti_Cross_page_prefetch_of_Requested 0.0733612
Core_0_vBerti_Issued 39208317
Core_0_vBerti_InPQ_Same_page_prefetch 36876015
Core_0_vBerti_InPQ_Cross_page_prefetch 2332302
Core_0_vBerti_PQ_Drop_Rate 0.550491
Core_0_vBerti_InPQ_Cross_page_prefetch_of_Requested 0.026739
Core_0_vBerti_Cross_page_PQ_Drop_rate 0.635516
Core_0_vBerti_Cross_page_prefetch_of_Issued 0.0594849
Core_0_CP_PF_PQFULL_drop 4066613
Core_0_CP_PF_PQFULL_TLB_rescue_enqueued 4039997
Core_0_CP_PF_PQFULL_TLB_rescue_issued 4039997
Core_0_CP_PF_PQFULL_TLB_rescue_translated 4039997

========= DTLB_vBerti Prefetch Stats =========
Core_0_DTLB_demand_access 45464948
Core_0_DTLB_demand_hit 43047052
Core_0_DTLB_demand_miss 2417896
Core_0_DTLB_demand_mshr_merge 466044
Core_0_DTLB_demand_fill 1951853
Core_0_DTLB_demand_miss_rate 0.0531815
Core_0_DTLB_demand_mpki 24.179
Core_0_DTLB_vberti_prefetch_access 26341370
Core_0_DTLB_vberti_prefetch_hit 26291795
Core_0_DTLB_vberti_prefetch_miss 49575
Core_0_DTLB_vberti_prefetch_mshr_merge 43446
Core_0_DTLB_vberti_prefetch_fill 6128
Core_0_DTLB_vberti_prefetch_miss_rate 0.00188202
Core_0_DTLB_vberti_prefetch_mpki 0.49575

=== DTLB_vBerti Same/Cross-page Prefetch Stats ===
Core_0_DTLB_vberti_same_page_prefetch 22783734
Core_0_DTLB_vberti_same_page_prefetch_hit 22783678
Core_0_DTLB_vberti_same_page_prefetch_miss 56
Core_0_DTLB_vberti_same_page_prefetch_mshr_merge 4
Core_0_DTLB_vberti_same_page_prefetch_fill 52
Core_0_DTLB_vberti_same_page_prefetch_miss_rate 2.45789e-06
Core_0_DTLB_vberti_same_page_prefetch_mpki 0.00056
Core_0_DTLB_vberti_cross_page_prefetch 3557636
Core_0_DTLB_vberti_cross_page_prefetch_hit 3508117
Core_0_DTLB_vberti_cross_page_prefetch_miss 49519
Core_0_DTLB_vberti_cross_page_prefetch_mshr_merge 43442
Core_0_DTLB_vberti_cross_page_prefetch_fill 6076
Core_0_DTLB_vberti_cross_page_prefetch_miss_rate 0.0139191
Core_0_DTLB_vberti_cross_page_prefetch_mpki 0.49519
Core_0_DTLB_same_page_prefetch_miss_rate 2.45789e-06
Core_0_DTLB_same_page_prefetch_mpki 0.00056
Core_0_DTLB_cross_page_prefetch_miss_rate 0.0139191
Core_0_DTLB_cross_page_prefetch_mpki 0.49519
Core_0_DTLB_cross_page_prefetch_issued 3557636
Core_0_DTLB_cross_page_prefetch_lookups 3557636
Core_0_DTLB_cross_page_prefetch_useful 4362
Core_0_DTLB_cross_page_prefetch_useless 1715
Core_0_DTLB_cross_page_prefetch_late 1
Core_0_DTLB_cross_page_prefetch_too_early 438
Core_0_DTLB_cross_page_prefetch_too_early_among_fill 0.0720869
Core_0_DTLB_cross_page_prefetch_too_early_among_useless 0.255394
Core_0_DTLB_cross_page_prefetch_pollution_evict 5947
Core_0_DTLB_cross_page_prefetch_pollution_demand 5928
Core_0_DTLB_cross_page_prefetch_pollution_among_prefetch_fill 0.978769
Core_0_DTLB_cross_page_prefetch_accuracy 0.0012261
Core_0_DTLB_cross_page_prefetch_coverage 0.0018008

========= STLB_vBerti Prefetch Stats =========
Core_0_STLB_demand_access 1951852
Core_0_STLB_demand_hit 1217263
Core_0_STLB_demand_miss 734589
Core_0_STLB_demand_mshr_merge 0
Core_0_STLB_demand_fill 734589
Core_0_STLB_demand_miss_rate 0.376355
Core_0_STLB_demand_mpki 7.34589
Core_0_STLB_vberti_prefetch_access 6129
Core_0_STLB_vberti_prefetch_hit 1822
Core_0_STLB_vberti_prefetch_miss 4307
Core_0_STLB_vberti_prefetch_mshr_merge 0
Core_0_STLB_vberti_prefetch_fill 8
Core_0_STLB_vberti_prefetch_miss_rate 0.702725
Core_0_STLB_vberti_prefetch_mpki 0.04307

=== STLB_vBerti Same/Cross-page Prefetch Stats ===
Core_0_STLB_vberti_same_page_prefetch 52
Core_0_STLB_vberti_same_page_prefetch_hit 44
Core_0_STLB_vberti_same_page_prefetch_miss 8
Core_0_STLB_vberti_same_page_prefetch_mshr_merge 0
Core_0_STLB_vberti_same_page_prefetch_fill 8
Core_0_STLB_vberti_same_page_prefetch_miss_rate 0.153846
Core_0_STLB_vberti_same_page_prefetch_mpki 8e-05
Core_0_STLB_vberti_cross_page_prefetch 6077
Core_0_STLB_vberti_cross_page_prefetch_hit 1778
Core_0_STLB_vberti_cross_page_prefetch_miss 4299
Core_0_STLB_vberti_cross_page_prefetch_mshr_merge 0
Core_0_STLB_vberti_cross_page_prefetch_fill 0
Core_0_STLB_vberti_cross_page_prefetch_miss_rate 0.707421
Core_0_STLB_vberti_cross_page_prefetch_mpki 0.04299
Core_0_STLB_same_page_prefetch_miss_rate 0.153846
Core_0_STLB_same_page_prefetch_mpki 8e-05
Core_0_STLB_cross_page_prefetch_miss_rate 0.707421
Core_0_STLB_cross_page_prefetch_mpki 0.04299
Core_0_STLB_cross_page_prefetch_issued 6077
Core_0_STLB_cross_page_prefetch_lookups 6077
Core_0_STLB_cross_page_prefetch_useful 1341
Core_0_STLB_cross_page_prefetch_useless 1120
Core_0_STLB_cross_page_prefetch_late 1341
Core_0_STLB_cross_page_prefetch_too_early 0
Core_0_STLB_cross_page_prefetch_too_early_among_fill 0
Core_0_STLB_cross_page_prefetch_too_early_among_useless 0
Core_0_STLB_cross_page_prefetch_pollution_evict 0
Core_0_STLB_cross_page_prefetch_pollution_demand 0
Core_0_STLB_cross_page_prefetch_pollution_among_prefetch_fill 0
Core_0_STLB_cross_page_prefetch_accuracy 0.220668
Core_0_STLB_cross_page_prefetch_coverage 0.00182218

========= STLB Cross-page Prefetch Buffer Stats =========
Core_0_STLB_raw_demand_miss 734589
Core_0_CP_PB_insert 4299
Core_0_CP_PB_demand_hit 1341
Core_0_STLB_PB_demand_miss 733248
Core_0_CP_PB_coverage 0.00182551
Core_0_STLB_raw_demand_mpki 7.34589
Core_0_STLB_PB_demand_mpki 7.33248
Core_0_CP_PB_demand_hit_mpki 0.01341

Core_0_TLB_demand_miss_rate 0.0161573
Core_0_TLB_demand_mpki 7.34589
Core_0_TLB_same_page_prefetch_miss_rate 3.51128e-07
Core_0_TLB_same_page_prefetch_mpki 8e-05
Core_0_TLB_cross_page_prefetch_miss_rate 0.00120839
Core_0_TLB_cross_page_prefetch_mpki 0.04299
Core_0_TLB_cross_page_prefetch_issued 3557636
Core_0_TLB_cross_page_prefetch_lookups 3557636
Core_0_TLB_cross_page_prefetch_useful 1420
Core_0_TLB_cross_page_prefetch_useless 733
Core_0_TLB_cross_page_prefetch_late 0
Core_0_TLB_cross_page_prefetch_too_early 401
Core_0_TLB_cross_page_prefetch_too_early_among_fill 0.0659974
Core_0_TLB_cross_page_prefetch_too_early_among_useless 0.547067
Core_0_TLB_cross_page_prefetch_accuracy 0.000399141
Core_0_TLB_cross_page_prefetch_coverage 0.00192932
BERTI TO_L1: 114180913 TO_L2: 11318512 TO_L2_BC_MSHR: 5
BERTI AVG_LAT: 40.6387 NUM_TRACK_LATENCY: 8209877 NUM_CANT_TRACK_LATENCY: 34
BERTI CROSS_PAGE 10022494 NO_CROSS_PAGE: 115476931
BERTI FOUND_BERTI: 42326206 NO_FOUND_BERTI: 17998448
BERTI AVERAGE_ISSUED: 3.22667
