[VMEM] WARNING: physical memory size is smaller than virtual memory size.

*** ChampSim Multicore Out-of-Order Simulator ***
Warmup Instructions: 50000000
Simulation Instructions: 100000000
Number of CPUs: 1
Page size: 4096
Core 0: /data2/zcq/champsim_traces_gap/bc.road-174B.champsimtrace.xz
VBerti Prefetcher
BERTI HASH ENTANGLING
BERTI IP MASK ffff
Off-chip DRAM Size: 16 GiB Channels: 1 Width: 64-bit Data Rate: 3205 MT/s
Warmup halting CPU 0 at instruction 50000005 cycle 14801465 for remainder of phase
Warmup finished CPU 0 instructions: 50000005 cycles: 14801465 cumulative IPC: 3.378 (Simulation time: 00 hr 03 min 42 sec)
Warmup complete CPU 0 instructions: 50000005 cycles: 14801465 cumulative IPC: 3.378 (Simulation time: 00 hr 03 min 42 sec)
Simulation finished CPU 0 instructions: 100000000 cycles: 432511482 cumulative IPC: 0.2312 (Simulation time: 00 hr 35 min 03 sec)
Simulation complete CPU 0 instructions: 100000000 cycles: 432511482 cumulative IPC: 0.2312 (Simulation time: 00 hr 35 min 03 sec)

ChampSim completed all CPUs

=== Simulation ===
CPU 0 runs /data2/zcq/champsim_traces_gap/bc.road-174B.champsimtrace.xz

Region of Interest Statistics

CPU 0 cumulative IPC: 0.2312 instructions: 100000000 cycles: 432511482
CPU 0 Branch Prediction Accuracy: 88.47% MPKI: 17.26 Average ROB Occupancy at Mispredict: 37.73
Branch type MPKI
BRANCH_DIRECT_JUMP: 0
BRANCH_INDIRECT: 0
BRANCH_CONDITIONAL: 17.26
BRANCH_DIRECT_CALL: 0
BRANCH_INDIRECT_CALL: 0
BRANCH_RETURN: 0

cpu0->cpu0_STLB TOTAL        ACCESS:    1745951 HIT:     865080 MISS:     880871 MSHR_MERGE:          0
cpu0->cpu0_STLB LOAD         ACCESS:    1745951 HIT:     865080 MISS:     880871 MSHR_MERGE:          0
cpu0->cpu0_STLB RFO          ACCESS:          0 HIT:          0 MISS:          0 MSHR_MERGE:          0
cpu0->cpu0_STLB PREFETCH     ACCESS:          0 HIT:          0 MISS:          0 MSHR_MERGE:          0
cpu0->cpu0_STLB WRITE        ACCESS:          0 HIT:          0 MISS:          0 MSHR_MERGE:          0
cpu0->cpu0_STLB TRANSLATION  ACCESS:          0 HIT:          0 MISS:          0 MSHR_MERGE:          0
cpu0->cpu0_STLB PREFETCH REQUESTED:          0 ISSUED:          0 USEFUL:          0 USELESS:          0 LATE:          0 TOO_EARLY:          0
cpu0->cpu0_STLB AVERAGE MISS LATENCY: 23.91 cycles
cpu0->cpu0_L2C TOTAL        ACCESS:    9866985 HIT:    4524938 MISS:    5342047 MSHR_MERGE:      64414
cpu0->cpu0_L2C LOAD         ACCESS:    4956344 HIT:     241127 MISS:    4715217 MSHR_MERGE:        358
cpu0->cpu0_L2C RFO          ACCESS:       9980 HIT:       8485 MISS:       1495 MSHR_MERGE:          0
cpu0->cpu0_L2C PREFETCH     ACCESS:    2235094 HIT:    1902800 MISS:     332294 MSHR_MERGE:      64056
cpu0->cpu0_L2C WRITE        ACCESS:    2236300 HIT:    2235341 MISS:        959 MSHR_MERGE:          0
cpu0->cpu0_L2C TRANSLATION  ACCESS:     429267 HIT:     137185 MISS:     292082 MSHR_MERGE:          0
cpu0->cpu0_L2C PREFETCH REQUESTED:     462134 ISSUED:     456239 USEFUL:      89215 USELESS:      25802 LATE:         94 TOO_EARLY:      16514
cpu0->cpu0_L2C AVERAGE MISS LATENCY: 74.21 cycles
cpu0->cpu0_L1I TOTAL        ACCESS:    4796806 HIT:    4796806 MISS:          0 MSHR_MERGE:          0
cpu0->cpu0_L1I LOAD         ACCESS:    4796806 HIT:    4796806 MISS:          0 MSHR_MERGE:          0
cpu0->cpu0_L1I RFO          ACCESS:          0 HIT:          0 MISS:          0 MSHR_MERGE:          0
cpu0->cpu0_L1I PREFETCH     ACCESS:          0 HIT:          0 MISS:          0 MSHR_MERGE:          0
cpu0->cpu0_L1I WRITE        ACCESS:          0 HIT:          0 MISS:          0 MSHR_MERGE:          0
cpu0->cpu0_L1I TRANSLATION  ACCESS:          0 HIT:          0 MISS:          0 MSHR_MERGE:          0
cpu0->cpu0_L1I PREFETCH REQUESTED:          0 ISSUED:          0 USEFUL:          0 USELESS:          0 LATE:          0 TOO_EARLY:          0
cpu0->cpu0_L1I AVERAGE MISS LATENCY: - cycles
cpu0->cpu0_L1D TOTAL        ACCESS:   86959874 HIT:   78635528 MISS:    8324346 MSHR_MERGE:    1148243
cpu0->cpu0_L1D LOAD         ACCESS:   36336360 HIT:   30246606 MISS:    6089754 MSHR_MERGE:    1133397
cpu0->cpu0_L1D RFO          ACCESS:          0 HIT:          0 MISS:          0 MSHR_MERGE:          0
cpu0->cpu0_L1D PREFETCH     ACCESS:   38832348 HIT:   37048227 MISS:    1784121 MSHR_MERGE:       3622
cpu0->cpu0_L1D WRITE        ACCESS:    9946661 HIT:    9928390 MISS:      18271 MSHR_MERGE:       8291
cpu0->cpu0_L1D TRANSLATION  ACCESS:    1844505 HIT:    1412305 MISS:     432200 MSHR_MERGE:       2933
cpu0->cpu0_L1D PREFETCH REQUESTED:   86622541 ISSUED:   38832344 USEFUL:     287868 USELESS:      15711 LATE:          4 TOO_EARLY:        434
cpu0->cpu0_L1D AVERAGE MISS LATENCY: 77.85 cycles
cpu0->cpu0_ITLB TOTAL        ACCESS:    4793463 HIT:    4793463 MISS:          0 MSHR_MERGE:          0
cpu0->cpu0_ITLB LOAD         ACCESS:    4793463 HIT:    4793463 MISS:          0 MSHR_MERGE:          0
cpu0->cpu0_ITLB RFO          ACCESS:          0 HIT:          0 MISS:          0 MSHR_MERGE:          0
cpu0->cpu0_ITLB PREFETCH     ACCESS:          0 HIT:          0 MISS:          0 MSHR_MERGE:          0
cpu0->cpu0_ITLB WRITE        ACCESS:          0 HIT:          0 MISS:          0 MSHR_MERGE:          0
cpu0->cpu0_ITLB TRANSLATION  ACCESS:          0 HIT:          0 MISS:          0 MSHR_MERGE:          0
cpu0->cpu0_ITLB PREFETCH REQUESTED:          0 ISSUED:          0 USEFUL:          0 USELESS:          0 LATE:          0 TOO_EARLY:          0
cpu0->cpu0_ITLB AVERAGE MISS LATENCY: - cycles
cpu0->cpu0_DTLB TOTAL        ACCESS:   70272857 HIT:   67994115 MISS:    2278742 MSHR_MERGE:     532791
cpu0->cpu0_DTLB LOAD         ACCESS:   70272857 HIT:   67994115 MISS:    2278742 MSHR_MERGE:     532791
cpu0->cpu0_DTLB RFO          ACCESS:          0 HIT:          0 MISS:          0 MSHR_MERGE:          0
cpu0->cpu0_DTLB PREFETCH     ACCESS:          0 HIT:          0 MISS:          0 MSHR_MERGE:          0
cpu0->cpu0_DTLB WRITE        ACCESS:          0 HIT:          0 MISS:          0 MSHR_MERGE:          0
cpu0->cpu0_DTLB TRANSLATION  ACCESS:          0 HIT:          0 MISS:          0 MSHR_MERGE:          0
cpu0->cpu0_DTLB PREFETCH REQUESTED:          0 ISSUED:          0 USEFUL:          0 USELESS:          0 LATE:          0 TOO_EARLY:          0
cpu0->cpu0_DTLB AVERAGE MISS LATENCY: 17.55 cycles
cpu0->LLC TOTAL        ACCESS:    7382404 HIT:    5637083 MISS:    1745321 MSHR_MERGE:          8
cpu0->LLC LOAD         ACCESS:    4714859 HIT:    3149251 MISS:    1565608 MSHR_MERGE:          0
cpu0->LLC RFO          ACCESS:       1495 HIT:       1369 MISS:        126 MSHR_MERGE:          0
cpu0->LLC PREFETCH     ACCESS:     268237 HIT:     146102 MISS:     122135 MSHR_MERGE:          8
cpu0->LLC WRITE        ACCESS:    2105731 HIT:    2055759 MISS:      49972 MSHR_MERGE:          0
cpu0->LLC TRANSLATION  ACCESS:     292082 HIT:     284602 MISS:       7480 MSHR_MERGE:          0
cpu0->LLC PREFETCH REQUESTED:          0 ISSUED:          0 USEFUL:          0 USELESS:          0 LATE:          0 TOO_EARLY:          0
cpu0->LLC AVERAGE MISS LATENCY: 182 cycles

DRAM Statistics

Channel 0 RQ ROW_BUFFER_HIT:       4407
  ROW_BUFFER_MISS:    1690603
  AVG DBUS CONGESTED CYCLE: 21.74
Channel 0 WQ ROW_BUFFER_HIT:     185787
  ROW_BUFFER_MISS:     403987
  FULL:          0
Channel 0 REFRESHES ISSUED:      36043

[ROI Statistics]
[System Configuration]
num_cpus 1
cpu_freq 4000
fetch_width 6
decode_width 6
dispatch_width 6
execute_width 6
lq_width 2
sq_width 2
retire_width 6
scheduler_size 128
branch_mispredict_penalty 15
rob_size 352
lq_size 128
sq_size 72
ifetch_buffer_size 64
decode_buffer_size 32
dispatch_buffer_size 32
register_file_size 288
decode_latency 1
dispatch_latency 1
schedule_latency 1
execute_latency 1
page_size 4096
block_size 64
core_0_itlb_set 16
core_0_itlb_way 4
core_0_itlb_rq_size 16
core_0_itlb_wq_size 16
core_0_itlb_pq_size 0
core_0_itlb_mshr_size 8
core_0_itlb_hit_latency 1
core_0_itlb_fill_latency 1
core_0_itlb_max_tag_check 2
core_0_itlb_max_fill 2
core_0_dtlb_set 16
core_0_dtlb_way 4
core_0_dtlb_rq_size 16
core_0_dtlb_wq_size 16
core_0_dtlb_pq_size 0
core_0_dtlb_mshr_size 8
core_0_dtlb_hit_latency 1
core_0_dtlb_fill_latency 1
core_0_dtlb_max_tag_check 2
core_0_dtlb_max_fill 2
core_0_stlb_set 128
core_0_stlb_way 12
core_0_stlb_rq_size 32
core_0_stlb_wq_size 32
core_0_stlb_pq_size 0
core_0_stlb_mshr_size 16
core_0_stlb_hit_latency 4
core_0_stlb_fill_latency 4
core_0_stlb_max_tag_check 1
core_0_stlb_max_fill 1
core_0_l1i_set 64
core_0_l1i_way 8
core_0_l1i_rq_size 64
core_0_l1i_wq_size 64
core_0_l1i_pq_size 32
core_0_l1i_mshr_size 8
core_0_l1i_hit_latency 2
core_0_l1i_fill_latency 2
core_0_l1i_max_tag_check 2
core_0_l1i_max_fill 2
core_0_l1d_set 64
core_0_l1d_way 12
core_0_l1d_rq_size 64
core_0_l1d_wq_size 64
core_0_l1d_pq_size 8
core_0_l1d_mshr_size 16
core_0_l1d_hit_latency 2
core_0_l1d_fill_latency 3
core_0_l1d_max_tag_check 2
core_0_l1d_max_fill 2
core_0_l2c_set 1024
core_0_l2c_way 8
core_0_l2c_rq_size 32
core_0_l2c_wq_size 32
core_0_l2c_pq_size 16
core_0_l2c_mshr_size 32
core_0_l2c_hit_latency 5
core_0_l2c_fill_latency 5
core_0_l2c_max_tag_check 1
core_0_l2c_max_fill 1
llc_set 2048
llc_way 16
llc_rq_size 32
llc_wq_size 32
llc_pq_size 32
llc_mshr_size 64
llc_hit_latency 10
llc_fill_latency 10
llc_max_tag_check 1
llc_max_fill 1
dram_channels 1
dram_ranks 1
dram_bankgroups 8
dram_banks 4
dram_rows 65536
dram_columns 1024
dram_channel_width 8
dram_rq_size 64
dram_wq_size 64
dram_size 17179869184
core_0_itlb_prefetcher no
core_0_dtlb_prefetcher no
core_0_stlb_prefetcher no
core_0_l1i_prefetcher next_line
core_0_l1d_prefetcher vberti
core_0_l2c_prefetcher ip_stride
llc_prefetcher no
llc_replacement drrip

Core_0_instructions 100000000
Core_0_cycles 432511482
Core_0_IPC 0.231208
Core_0_branch_prediction_accuracy 88.4719
Core_0_branch_MPKI 17.263
Core_0_average_ROB_occupancy_at_mispredict 37.731

Core_0_ITLB_total_access 4793463
Core_0_ITLB_total_hit 4793463
Core_0_ITLB_total_miss 0
Core_0_ITLB_total_MPKI 0
Core_0_ITLB_total_miss_rate 0
Core_0_ITLB_demand_access 4793463
Core_0_ITLB_demand_hit 4793463
Core_0_ITLB_demand_miss 0
Core_0_ITLB_demand_MPKI 0
Core_0_ITLB_demand_miss_rate 0
Core_0_ITLB_load_access 4793463
Core_0_ITLB_load_hit 4793463
Core_0_ITLB_load_miss 0
Core_0_ITLB_load_MPKI 0
Core_0_ITLB_load_miss_rate 0
Core_0_ITLB_rfo_access 0
Core_0_ITLB_rfo_hit 0
Core_0_ITLB_rfo_miss 0
Core_0_ITLB_rfo_MPKI 0
Core_0_ITLB_rfo_miss_rate 0
Core_0_ITLB_prefetch_access 0
Core_0_ITLB_prefetch_hit 0
Core_0_ITLB_prefetch_miss 0
Core_0_ITLB_prefetch_MPKI 0
Core_0_ITLB_prefetch_miss_rate 0
Core_0_ITLB_writeback_access 0
Core_0_ITLB_writeback_hit 0
Core_0_ITLB_writeback_miss 0
Core_0_ITLB_writeback_MPKI 0
Core_0_ITLB_writeback_miss_rate 0
Core_0_ITLB_prefetch_requested 0
Core_0_ITLB_prefetch_issued 0
Core_0_ITLB_prefetch_useful 0
Core_0_ITLB_prefetch_useless 0
Core_0_ITLB_prefetch_late 0
Core_0_ITLB_prefetch_fill 0
Core_0_ITLB_prefetch_too_early 0
Core_0_ITLB_prefetch_too_early_among_fill 0
Core_0_ITLB_prefetch_too_early_among_useless 0
Core_0_ITLB_prefetch_pollution_evict 0
Core_0_ITLB_prefetch_pollution_demand 0
Core_0_ITLB_prefetch_pollution_among_prefetch_fill 0
Core_0_ITLB_prefetch_accuracy 0
Core_0_ITLB_prefetch_coverage 0

Core_0_DTLB_total_access 70272857
Core_0_DTLB_total_hit 67994115
Core_0_DTLB_total_miss 2278742
Core_0_DTLB_total_MPKI 22.7874
Core_0_DTLB_total_miss_rate 0.0324271
Core_0_DTLB_demand_access 70272857
Core_0_DTLB_demand_hit 67994115
Core_0_DTLB_demand_miss 2278742
Core_0_DTLB_demand_MPKI 22.7874
Core_0_DTLB_demand_miss_rate 0.0324271
Core_0_DTLB_load_access 70272857
Core_0_DTLB_load_hit 67994115
Core_0_DTLB_load_miss 2278742
Core_0_DTLB_load_MPKI 22.7874
Core_0_DTLB_load_miss_rate 0.0324271
Core_0_DTLB_rfo_access 0
Core_0_DTLB_rfo_hit 0
Core_0_DTLB_rfo_miss 0
Core_0_DTLB_rfo_MPKI 0
Core_0_DTLB_rfo_miss_rate 0
Core_0_DTLB_prefetch_access 0
Core_0_DTLB_prefetch_hit 0
Core_0_DTLB_prefetch_miss 0
Core_0_DTLB_prefetch_MPKI 0
Core_0_DTLB_prefetch_miss_rate 0
Core_0_DTLB_writeback_access 0
Core_0_DTLB_writeback_hit 0
Core_0_DTLB_writeback_miss 0
Core_0_DTLB_writeback_MPKI 0
Core_0_DTLB_writeback_miss_rate 0
Core_0_DTLB_prefetch_requested 0
Core_0_DTLB_prefetch_issued 0
Core_0_DTLB_prefetch_useful 0
Core_0_DTLB_prefetch_useless 0
Core_0_DTLB_prefetch_late 0
Core_0_DTLB_prefetch_fill 0
Core_0_DTLB_prefetch_too_early 0
Core_0_DTLB_prefetch_too_early_among_fill 0
Core_0_DTLB_prefetch_too_early_among_useless 0
Core_0_DTLB_prefetch_pollution_evict 0
Core_0_DTLB_prefetch_pollution_demand 0
Core_0_DTLB_prefetch_pollution_among_prefetch_fill 0
Core_0_DTLB_prefetch_accuracy 0
Core_0_DTLB_prefetch_coverage 0

Core_0_STLB_total_access 1745951
Core_0_STLB_total_hit 865080
Core_0_STLB_total_miss 880871
Core_0_STLB_total_MPKI 8.80871
Core_0_STLB_total_miss_rate 0.504522
Core_0_STLB_demand_access 1745951
Core_0_STLB_demand_hit 865080
Core_0_STLB_demand_miss 880871
Core_0_STLB_demand_MPKI 8.80871
Core_0_STLB_demand_miss_rate 0.504522
Core_0_STLB_load_access 1745951
Core_0_STLB_load_hit 865080
Core_0_STLB_load_miss 880871
Core_0_STLB_load_MPKI 8.80871
Core_0_STLB_load_miss_rate 0.504522
Core_0_STLB_rfo_access 0
Core_0_STLB_rfo_hit 0
Core_0_STLB_rfo_miss 0
Core_0_STLB_rfo_MPKI 0
Core_0_STLB_rfo_miss_rate 0
Core_0_STLB_prefetch_access 0
Core_0_STLB_prefetch_hit 0
Core_0_STLB_prefetch_miss 0
Core_0_STLB_prefetch_MPKI 0
Core_0_STLB_prefetch_miss_rate 0
Core_0_STLB_writeback_access 0
Core_0_STLB_writeback_hit 0
Core_0_STLB_writeback_miss 0
Core_0_STLB_writeback_MPKI 0
Core_0_STLB_writeback_miss_rate 0
Core_0_STLB_prefetch_requested 0
Core_0_STLB_prefetch_issued 0
Core_0_STLB_prefetch_useful 0
Core_0_STLB_prefetch_useless 0
Core_0_STLB_prefetch_late 0
Core_0_STLB_prefetch_fill 0
Core_0_STLB_prefetch_too_early 0
Core_0_STLB_prefetch_too_early_among_fill 0
Core_0_STLB_prefetch_too_early_among_useless 0
Core_0_STLB_prefetch_pollution_evict 0
Core_0_STLB_prefetch_pollution_demand 0
Core_0_STLB_prefetch_pollution_among_prefetch_fill 0
Core_0_STLB_prefetch_accuracy 0
Core_0_STLB_prefetch_coverage 0

Core_0_L1I_total_access 4796806
Core_0_L1I_total_hit 4796806
Core_0_L1I_total_miss 0
Core_0_L1I_total_MPKI 0
Core_0_L1I_total_miss_rate 0
Core_0_L1I_demand_access 4796806
Core_0_L1I_demand_hit 4796806
Core_0_L1I_demand_miss 0
Core_0_L1I_demand_MPKI 0
Core_0_L1I_demand_miss_rate 0
Core_0_L1I_load_access 4796806
Core_0_L1I_load_hit 4796806
Core_0_L1I_load_miss 0
Core_0_L1I_load_MPKI 0
Core_0_L1I_load_miss_rate 0
Core_0_L1I_rfo_access 0
Core_0_L1I_rfo_hit 0
Core_0_L1I_rfo_miss 0
Core_0_L1I_rfo_MPKI 0
Core_0_L1I_rfo_miss_rate 0
Core_0_L1I_prefetch_access 0
Core_0_L1I_prefetch_hit 0
Core_0_L1I_prefetch_miss 0
Core_0_L1I_prefetch_MPKI 0
Core_0_L1I_prefetch_miss_rate 0
Core_0_L1I_writeback_access 0
Core_0_L1I_writeback_hit 0
Core_0_L1I_writeback_miss 0
Core_0_L1I_writeback_MPKI 0
Core_0_L1I_writeback_miss_rate 0
Core_0_L1I_prefetch_requested 0
Core_0_L1I_prefetch_issued 0
Core_0_L1I_prefetch_useful 0
Core_0_L1I_prefetch_useless 0
Core_0_L1I_prefetch_late 0
Core_0_L1I_prefetch_fill 0
Core_0_L1I_prefetch_too_early 0
Core_0_L1I_prefetch_too_early_among_fill 0
Core_0_L1I_prefetch_too_early_among_useless 0
Core_0_L1I_prefetch_pollution_evict 0
Core_0_L1I_prefetch_pollution_demand 0
Core_0_L1I_prefetch_pollution_among_prefetch_fill 0
Core_0_L1I_prefetch_accuracy 0
Core_0_L1I_prefetch_coverage 0

Core_0_L1D_total_access 85115369
Core_0_L1D_total_hit 77223223
Core_0_L1D_total_miss 7892146
Core_0_L1D_total_MPKI 78.9215
Core_0_L1D_total_miss_rate 0.0927229
Core_0_L1D_demand_access 36336360
Core_0_L1D_demand_hit 30246606
Core_0_L1D_demand_miss 6089754
Core_0_L1D_demand_MPKI 60.8975
Core_0_L1D_demand_miss_rate 0.167594
Core_0_L1D_load_access 36336360
Core_0_L1D_load_hit 30246606
Core_0_L1D_load_miss 6089754
Core_0_L1D_load_MPKI 60.8975
Core_0_L1D_load_miss_rate 0.167594
Core_0_L1D_rfo_access 0
Core_0_L1D_rfo_hit 0
Core_0_L1D_rfo_miss 0
Core_0_L1D_rfo_MPKI 0
Core_0_L1D_rfo_miss_rate 0
Core_0_L1D_prefetch_access 38832348
Core_0_L1D_prefetch_hit 37048227
Core_0_L1D_prefetch_miss 1784121
Core_0_L1D_prefetch_MPKI 17.8412
Core_0_L1D_prefetch_miss_rate 0.0459442
Core_0_L1D_writeback_access 9946661
Core_0_L1D_writeback_hit 9928390
Core_0_L1D_writeback_miss 18271
Core_0_L1D_writeback_MPKI 0.18271
Core_0_L1D_writeback_miss_rate 0.0018369
Core_0_L1D_prefetch_requested 86622541
Core_0_L1D_prefetch_issued 38832344
Core_0_L1D_prefetch_useful 287868
Core_0_L1D_prefetch_useless 15711
Core_0_L1D_prefetch_late 4
Core_0_L1D_prefetch_fill 303576
Core_0_L1D_prefetch_too_early 434
Core_0_L1D_prefetch_too_early_among_fill 0.00142963
Core_0_L1D_prefetch_too_early_among_useless 0.027624
Core_0_L1D_prefetch_pollution_evict 95914
Core_0_L1D_prefetch_pollution_demand 95892
Core_0_L1D_prefetch_pollution_among_prefetch_fill 0.315947
Core_0_L1D_prefetch_accuracy 0.0074131
Core_0_L1D_prefetch_coverage 0.0451372

Core_0_L2C_total_access 9437718
Core_0_L2C_total_hit 4387753
Core_0_L2C_total_miss 5049965
Core_0_L2C_total_MPKI 50.4997
Core_0_L2C_total_miss_rate 0.535083
Core_0_L2C_demand_access 4966324
Core_0_L2C_demand_hit 249612
Core_0_L2C_demand_miss 4716712
Core_0_L2C_demand_MPKI 47.1671
Core_0_L2C_demand_miss_rate 0.949739
Core_0_L2C_load_access 4956344
Core_0_L2C_load_hit 241127
Core_0_L2C_load_miss 4715217
Core_0_L2C_load_MPKI 47.1522
Core_0_L2C_load_miss_rate 0.95135
Core_0_L2C_rfo_access 9980
Core_0_L2C_rfo_hit 8485
Core_0_L2C_rfo_miss 1495
Core_0_L2C_rfo_MPKI 0.01495
Core_0_L2C_rfo_miss_rate 0.1498
Core_0_L2C_prefetch_access 2235094
Core_0_L2C_prefetch_hit 1902800
Core_0_L2C_prefetch_miss 332294
Core_0_L2C_prefetch_MPKI 3.32294
Core_0_L2C_prefetch_miss_rate 0.148671
Core_0_L2C_writeback_access 2236300
Core_0_L2C_writeback_hit 2235341
Core_0_L2C_writeback_miss 959
Core_0_L2C_writeback_MPKI 0.00959
Core_0_L2C_writeback_miss_rate 0.000428833
Core_0_L2C_prefetch_requested 462134
Core_0_L2C_prefetch_issued 456239
Core_0_L2C_prefetch_useful 89215
Core_0_L2C_prefetch_useless 25802
Core_0_L2C_prefetch_late 94
Core_0_L2C_prefetch_fill 267847
Core_0_L2C_prefetch_too_early 16514
Core_0_L2C_prefetch_too_early_among_fill 0.0616546
Core_0_L2C_prefetch_too_early_among_useless 0.640028
Core_0_L2C_prefetch_pollution_evict 198706
Core_0_L2C_prefetch_pollution_demand 198009
Core_0_L2C_prefetch_pollution_among_prefetch_fill 0.741864
Core_0_L2C_prefetch_accuracy 0.195544
Core_0_L2C_prefetch_coverage 0.0185635

Core_0_LLC_total_access 7090322
Core_0_LLC_total_hit 5352481
Core_0_LLC_total_miss 1737841
Core_0_LLC_total_MPKI 17.3784
Core_0_LLC_total_miss_rate 0.2451
Core_0_LLC_demand_access 4716354
Core_0_LLC_demand_hit 3150620
Core_0_LLC_demand_miss 1565734
Core_0_LLC_demand_MPKI 15.6573
Core_0_LLC_demand_miss_rate 0.33198
Core_0_LLC_load_access 4714859
Core_0_LLC_load_hit 3149251
Core_0_LLC_load_miss 1565608
Core_0_LLC_load_MPKI 15.6561
Core_0_LLC_load_miss_rate 0.332058
Core_0_LLC_rfo_access 1495
Core_0_LLC_rfo_hit 1369
Core_0_LLC_rfo_miss 126
Core_0_LLC_rfo_MPKI 0.00126
Core_0_LLC_rfo_miss_rate 0.0842809
Core_0_LLC_prefetch_access 268237
Core_0_LLC_prefetch_hit 146102
Core_0_LLC_prefetch_miss 122135
Core_0_LLC_prefetch_MPKI 1.22135
Core_0_LLC_prefetch_miss_rate 0.455325
Core_0_LLC_writeback_access 2105731
Core_0_LLC_writeback_hit 2055759
Core_0_LLC_writeback_miss 49972
Core_0_LLC_writeback_MPKI 0.49972
Core_0_LLC_writeback_miss_rate 0.0237314
Core_0_LLC_prefetch_requested 0
Core_0_LLC_prefetch_issued 0
Core_0_LLC_prefetch_useful 0
Core_0_LLC_prefetch_useless 0
Core_0_LLC_prefetch_late 0
Core_0_LLC_prefetch_fill 122127
Core_0_LLC_prefetch_too_early 0
Core_0_LLC_prefetch_too_early_among_fill 0
Core_0_LLC_prefetch_too_early_among_useless 0
Core_0_LLC_prefetch_pollution_evict 70365
Core_0_LLC_prefetch_pollution_demand 70365
Core_0_LLC_prefetch_pollution_among_prefetch_fill 0.576163
Core_0_LLC_prefetch_accuracy 0
Core_0_LLC_prefetch_coverage 0

[DRAM Statistics]
Channel_0_RQ_row_buffer_hit 4407
Channel_0_RQ_row_buffer_miss 1690603
Channel_0_WQ_row_buffer_hit 185787
Channel_0_WQ_row_buffer_miss 403987
Channel_0_WQ_full 0
Channel_0_dbus_congested 7843718
DRAM_total_RQ_row_buffer_hit 4407
DRAM_total_RQ_row_buffer_miss 1690603
DRAM_total_WQ_row_buffer_hit 185787
DRAM_total_WQ_row_buffer_miss 403987
DRAM_total_WQ_full 0
DRAM_total_dbus_congested 7843718
DRAM_avg_congested_cycle 21.7417

====== DRAM_RQ_TRAFFIC ========
DRAM_RQ_READ_TRAFFIC_BREAKDOWN:
data_demand_read.count = 1565734
data_demand_read.share = 92.36%

inst_demand_read.count = 0
inst_demand_read.share = 0.00%

cache_inst_prefetch.count = 0
cache_inst_prefetch.share = 0.00%

cache_data_prefetch.count = 122127
cache_data_prefetch.share = 7.20%

stlb_data_demand.count = 7253
stlb_data_demand.share = 0.43%

stlb_inst_demand.count = 0
stlb_inst_demand.share = 0.00%

stlb_l1i_pref.count = 0
stlb_l1i_pref.share = 0.00%

stlb_l1d_pref.count = 227
stlb_l1d_pref.share = 0.01%

DRAM_RQ_READ_TRAFFIC_SUMMARY:
cache_demand.count = 1565734
cache_demand.share = 92.36%

cache_prefetch.count = 122127
cache_prefetch.share = 7.20%

stlb_demand.count = 7253
stlb_demand.share = 0.43%

stlb_prefetch.count = 227
stlb_prefetch.share = 0.01%

DRAM_RQ_READ_TRAFFIC_DEBUG:
total_classified_read.count = 1695341
unclassified_read.count = 0
total_read_with_other.count = 1695341

classified_plus_unclassified_check.count = 1695341
dram_rq_read_total_observed.count = 1695341
dram_rq_read_total_observed.per_1K_instructions = 16.9534

STLB_MISS_PTW_DRAM_TOUCH_BREAKDOWN:
stlb_miss_total.count = 879347

stlb_miss_touch_dram.count = 7476
stlb_miss_touch_dram.share = 0.85%

stlb_miss_no_dram_touch.count = 871871
stlb_miss_no_dram_touch.share = 99.15%

STLB_MISS_PTW_DRAM_TOUCH_DEBUG:
stlb_miss_touch_plus_no_touch.count = 879347
stlb_miss_total_check.count = 879347

======STLB miss causes ========
Core_0_STLB_miss_cause_breakdown
Core_0_STLB_cause_Demand_Data_miss 875350
Core_0_STLB_cause_Demand_Data_miss_rate 0.50136
Core_0_STLB_cause_Demand_Instruction_miss 0
Core_0_STLB_cause_Demand_Instruction_miss_rate 0
Core_0_STLB_cause_L1D_Prefetch_miss 5521
Core_0_STLB_cause_L1D_Prefetch_miss_rate 0.00316217
Core_0_STLB_cause_L1D_Prefetch_Same_Page_miss 1
Core_0_STLB_cause_L1D_Prefetch_Same_Page_miss_rate 5.72754e-07
Core_0_STLB_cause_L1D_Prefetch_Cross_Page_miss 5520
Core_0_STLB_cause_L1D_Prefetch_Cross_Page_miss_rate 0.0031616
Core_0_STLB_cause_L1I_Prefetch_miss 0
Core_0_STLB_cause_L1I_Prefetch_miss_rate 0
Core_0_STLB_cause_Other_miss 0
Core_0_STLB_cause_Other_miss_rate 0
Core_0_STLB_Demand_miss 875350
Core_0_STLB_Demand_miss_rate 0.50136
Core_0_STLB_L1D_Prefetch_miss 5521
Core_0_STLB_L1D_Prefetch_miss_rate 0.00316217
Core_0_STLB_Other_miss 0
Core_0_STLB_Other_miss_rate 0

========== vBerti-TLB Cross-page Flow Stats ==========

Core_0_vBerti_Requested 86622541
Core_0_vBerti_Cross_page_prefetch_in_Requested 6627574
Core_0_vBerti_Same_page_prefetch_in_Requested 79994967
Core_0_vBerti_Cross_page_prefetch_of_Requested 0.076511
Core_0_vBerti_Issued 38832344
Core_0_vBerti_InPQ_Same_page_prefetch 36344640
Core_0_vBerti_InPQ_Cross_page_prefetch 2487704
Core_0_vBerti_PQ_Drop_Rate 0.551706
Core_0_vBerti_InPQ_Cross_page_prefetch_of_Requested 0.0287189
Core_0_vBerti_Cross_page_PQ_Drop_rate 0.624643
Core_0_vBerti_Cross_page_prefetch_of_Issued 0.0640627
Core_0_CP_PF_PQFULL_drop 4139870
Core_0_CP_PF_PQFULL_TLB_rescue_enqueued 4107138
Core_0_CP_PF_PQFULL_TLB_rescue_issued 4107138
Core_0_CP_PF_PQFULL_TLB_rescue_translated 4107138

========= DTLB_vBerti Prefetch Stats =========
Core_0_DTLB_demand_access 44385233
Core_0_DTLB_demand_hit 42157624
Core_0_DTLB_demand_miss 2227609
Core_0_DTLB_demand_mshr_merge 488557
Core_0_DTLB_demand_fill 1739057
Core_0_DTLB_demand_miss_rate 0.0501881
Core_0_DTLB_demand_mpki 22.2761
Core_0_DTLB_vberti_prefetch_access 25887624
Core_0_DTLB_vberti_prefetch_hit 25836491
Core_0_DTLB_vberti_prefetch_miss 51133
Core_0_DTLB_vberti_prefetch_mshr_merge 44234
Core_0_DTLB_vberti_prefetch_fill 6895
Core_0_DTLB_vberti_prefetch_miss_rate 0.00197519
Core_0_DTLB_vberti_prefetch_mpki 0.51133

=== DTLB_vBerti Same/Cross-page Prefetch Stats ===
Core_0_DTLB_vberti_same_page_prefetch 22223897
Core_0_DTLB_vberti_same_page_prefetch_hit 22223824
Core_0_DTLB_vberti_same_page_prefetch_miss 73
Core_0_DTLB_vberti_same_page_prefetch_mshr_merge 29
Core_0_DTLB_vberti_same_page_prefetch_fill 43
Core_0_DTLB_vberti_same_page_prefetch_miss_rate 3.28475e-06
Core_0_DTLB_vberti_same_page_prefetch_mpki 0.00073
Core_0_DTLB_vberti_cross_page_prefetch 3663727
Core_0_DTLB_vberti_cross_page_prefetch_hit 3612667
Core_0_DTLB_vberti_cross_page_prefetch_miss 51060
Core_0_DTLB_vberti_cross_page_prefetch_mshr_merge 44205
Core_0_DTLB_vberti_cross_page_prefetch_fill 6852
Core_0_DTLB_vberti_cross_page_prefetch_miss_rate 0.0139366
Core_0_DTLB_vberti_cross_page_prefetch_mpki 0.5106
Core_0_DTLB_same_page_prefetch_miss_rate 3.28475e-06
Core_0_DTLB_same_page_prefetch_mpki 0.00073
Core_0_DTLB_cross_page_prefetch_miss_rate 0.0139366
Core_0_DTLB_cross_page_prefetch_mpki 0.5106
Core_0_DTLB_cross_page_prefetch_issued 3663727
Core_0_DTLB_cross_page_prefetch_lookups 3663727
Core_0_DTLB_cross_page_prefetch_useful 4781
Core_0_DTLB_cross_page_prefetch_useless 2074
Core_0_DTLB_cross_page_prefetch_late 3
Core_0_DTLB_cross_page_prefetch_too_early 344
Core_0_DTLB_cross_page_prefetch_too_early_among_fill 0.0502043
Core_0_DTLB_cross_page_prefetch_too_early_among_useless 0.165863
Core_0_DTLB_cross_page_prefetch_pollution_evict 6680
Core_0_DTLB_cross_page_prefetch_pollution_demand 6662
Core_0_DTLB_cross_page_prefetch_pollution_among_prefetch_fill 0.974898
Core_0_DTLB_cross_page_prefetch_accuracy 0.00130496
Core_0_DTLB_cross_page_prefetch_coverage 0.00214165

========= STLB_vBerti Prefetch Stats =========
Core_0_STLB_demand_access 1739052
Core_0_STLB_demand_hit 863702
Core_0_STLB_demand_miss 875350
Core_0_STLB_demand_mshr_merge 0
Core_0_STLB_demand_fill 875351
Core_0_STLB_demand_miss_rate 0.503349
Core_0_STLB_demand_mpki 8.7535
Core_0_STLB_vberti_prefetch_access 6899
Core_0_STLB_vberti_prefetch_hit 1378
Core_0_STLB_vberti_prefetch_miss 5521
Core_0_STLB_vberti_prefetch_mshr_merge 0
Core_0_STLB_vberti_prefetch_fill 1
Core_0_STLB_vberti_prefetch_miss_rate 0.800261
Core_0_STLB_vberti_prefetch_mpki 0.05521

=== STLB_vBerti Same/Cross-page Prefetch Stats ===
Core_0_STLB_vberti_same_page_prefetch 44
Core_0_STLB_vberti_same_page_prefetch_hit 43
Core_0_STLB_vberti_same_page_prefetch_miss 1
Core_0_STLB_vberti_same_page_prefetch_mshr_merge 0
Core_0_STLB_vberti_same_page_prefetch_fill 1
Core_0_STLB_vberti_same_page_prefetch_miss_rate 0.0227273
Core_0_STLB_vberti_same_page_prefetch_mpki 1e-05
Core_0_STLB_vberti_cross_page_prefetch 6855
Core_0_STLB_vberti_cross_page_prefetch_hit 1335
Core_0_STLB_vberti_cross_page_prefetch_miss 5520
Core_0_STLB_vberti_cross_page_prefetch_mshr_merge 0
Core_0_STLB_vberti_cross_page_prefetch_fill 0
Core_0_STLB_vberti_cross_page_prefetch_miss_rate 0.805252
Core_0_STLB_vberti_cross_page_prefetch_mpki 0.0552
Core_0_STLB_same_page_prefetch_miss_rate 0.0227273
Core_0_STLB_same_page_prefetch_mpki 1e-05
Core_0_STLB_cross_page_prefetch_miss_rate 0.805252
Core_0_STLB_cross_page_prefetch_mpki 0.0552
Core_0_STLB_cross_page_prefetch_issued 6855
Core_0_STLB_cross_page_prefetch_lookups 6855
Core_0_STLB_cross_page_prefetch_useful 1524
Core_0_STLB_cross_page_prefetch_useless 1492
Core_0_STLB_cross_page_prefetch_late 1524
Core_0_STLB_cross_page_prefetch_too_early 0
Core_0_STLB_cross_page_prefetch_too_early_among_fill 0
Core_0_STLB_cross_page_prefetch_too_early_among_useless 0
Core_0_STLB_cross_page_prefetch_pollution_evict 0
Core_0_STLB_cross_page_prefetch_pollution_demand 0
Core_0_STLB_cross_page_prefetch_pollution_among_prefetch_fill 0
Core_0_STLB_cross_page_prefetch_accuracy 0.222319
Core_0_STLB_cross_page_prefetch_coverage 0.00173799

========= STLB Cross-page Prefetch Buffer Stats =========
Core_0_STLB_raw_demand_miss 875350
Core_0_CP_PB_insert 5520
Core_0_CP_PB_demand_hit 1524
Core_0_STLB_PB_demand_miss 873826
Core_0_CP_PB_coverage 0.00174102
Core_0_STLB_raw_demand_mpki 8.7535
Core_0_STLB_PB_demand_mpki 8.73826
Core_0_CP_PB_demand_hit_mpki 0.01524

Core_0_TLB_demand_miss_rate 0.0197216
Core_0_TLB_demand_mpki 8.7535
Core_0_TLB_same_page_prefetch_miss_rate 4.49966e-08
Core_0_TLB_same_page_prefetch_mpki 1e-05
Core_0_TLB_cross_page_prefetch_miss_rate 0.00150666
Core_0_TLB_cross_page_prefetch_mpki 0.0552
Core_0_TLB_cross_page_prefetch_issued 3663727
Core_0_TLB_cross_page_prefetch_lookups 3663727
Core_0_TLB_cross_page_prefetch_useful 1465
Core_0_TLB_cross_page_prefetch_useless 465
Core_0_TLB_cross_page_prefetch_late 2
Core_0_TLB_cross_page_prefetch_too_early 309
Core_0_TLB_cross_page_prefetch_too_early_among_fill 0.0450963
Core_0_TLB_cross_page_prefetch_too_early_among_useless 0.664516
Core_0_TLB_cross_page_prefetch_accuracy 0.000399866
Core_0_TLB_cross_page_prefetch_coverage 0.00167082
BERTI TO_L1: 117467181 TO_L2: 8963943 TO_L2_BC_MSHR: 72
BERTI AVG_LAT: 56.4715 NUM_TRACK_LATENCY: 7869271 NUM_CANT_TRACK_LATENCY: 7
BERTI CROSS_PAGE 9830349 NO_CROSS_PAGE: 116600775
BERTI FOUND_BERTI: 42066315 NO_FOUND_BERTI: 17252868
BERTI AVERAGE_ISSUED: 3.23163
