[VMEM] WARNING: physical memory size is smaller than virtual memory size.

*** ChampSim Multicore Out-of-Order Simulator ***
Warmup Instructions: 50000000
Simulation Instructions: 100000000
Number of CPUs: 1
Page size: 4096
Core 0: /data2/zcq/champsim_traces_gap/bfs.road-19B.champsimtrace.xz
VBerti Prefetcher
BERTI HASH ENTANGLING
BERTI IP MASK ffff
Off-chip DRAM Size: 16 GiB Channels: 1 Width: 64-bit Data Rate: 3205 MT/s
Warmup halting CPU 0 at instruction 50000004 cycle 15911434 for remainder of phase
Warmup finished CPU 0 instructions: 50000004 cycles: 15911434 cumulative IPC: 3.142 (Simulation time: 00 hr 03 min 34 sec)
Warmup complete CPU 0 instructions: 50000004 cycles: 15911434 cumulative IPC: 3.142 (Simulation time: 00 hr 03 min 34 sec)
Simulation finished CPU 0 instructions: 100000004 cycles: 426866621 cumulative IPC: 0.2343 (Simulation time: 00 hr 39 min 11 sec)
Simulation complete CPU 0 instructions: 100000004 cycles: 426866621 cumulative IPC: 0.2343 (Simulation time: 00 hr 39 min 11 sec)

ChampSim completed all CPUs

=== Simulation ===
CPU 0 runs /data2/zcq/champsim_traces_gap/bfs.road-19B.champsimtrace.xz

Region of Interest Statistics

CPU 0 cumulative IPC: 0.2343 instructions: 100000004 cycles: 426866621
CPU 0 Branch Prediction Accuracy: 86.76% MPKI: 23.03 Average ROB Occupancy at Mispredict: 20.55
Branch type MPKI
BRANCH_DIRECT_JUMP: 0.00789
BRANCH_INDIRECT: 0.01578
BRANCH_CONDITIONAL: 22.96
BRANCH_DIRECT_CALL: 0
BRANCH_INDIRECT_CALL: 0.00789
BRANCH_RETURN: 0.03156

cpu0->cpu0_STLB TOTAL        ACCESS:    1287111 HIT:    1059523 MISS:     227588 MSHR_MERGE:          0
cpu0->cpu0_STLB LOAD         ACCESS:    1287111 HIT:    1059523 MISS:     227588 MSHR_MERGE:          0
cpu0->cpu0_STLB RFO          ACCESS:          0 HIT:          0 MISS:          0 MSHR_MERGE:          0
cpu0->cpu0_STLB PREFETCH     ACCESS:          0 HIT:          0 MISS:          0 MSHR_MERGE:          0
cpu0->cpu0_STLB WRITE        ACCESS:          0 HIT:          0 MISS:          0 MSHR_MERGE:          0
cpu0->cpu0_STLB TRANSLATION  ACCESS:          0 HIT:          0 MISS:          0 MSHR_MERGE:          0
cpu0->cpu0_STLB PREFETCH REQUESTED:          0 ISSUED:          0 USEFUL:          0 USELESS:          0 LATE:          0 TOO_EARLY:          0
cpu0->cpu0_STLB AVERAGE MISS LATENCY: 41.18 cycles
cpu0->cpu0_L2C TOTAL        ACCESS:   11251756 HIT:    7572236 MISS:    3679520 MSHR_MERGE:      87738
cpu0->cpu0_L2C LOAD         ACCESS:    4955101 HIT:    1710053 MISS:    3245048 MSHR_MERGE:        453
cpu0->cpu0_L2C RFO          ACCESS:      22023 HIT:      14086 MISS:       7937 MSHR_MERGE:          0
cpu0->cpu0_L2C PREFETCH     ACCESS:    4609209 HIT:    4268803 MISS:     340406 MSHR_MERGE:      87285
cpu0->cpu0_L2C WRITE        ACCESS:    1492951 HIT:    1492948 MISS:          3 MSHR_MERGE:          0
cpu0->cpu0_L2C TRANSLATION  ACCESS:     172472 HIT:      86346 MISS:      86126 MSHR_MERGE:          0
cpu0->cpu0_L2C PREFETCH REQUESTED:     972608 ISSUED:     968659 USEFUL:     102250 USELESS:      27236 LATE:        160 TOO_EARLY:      15841
cpu0->cpu0_L2C AVERAGE MISS LATENCY: 71.79 cycles
cpu0->cpu0_L1I TOTAL        ACCESS:    7390201 HIT:    7360862 MISS:      29339 MSHR_MERGE:       8825
cpu0->cpu0_L1I LOAD         ACCESS:    7390201 HIT:    7360862 MISS:      29339 MSHR_MERGE:       8825
cpu0->cpu0_L1I RFO          ACCESS:          0 HIT:          0 MISS:          0 MSHR_MERGE:          0
cpu0->cpu0_L1I PREFETCH     ACCESS:          0 HIT:          0 MISS:          0 MSHR_MERGE:          0
cpu0->cpu0_L1I WRITE        ACCESS:          0 HIT:          0 MISS:          0 MSHR_MERGE:          0
cpu0->cpu0_L1I TRANSLATION  ACCESS:          0 HIT:          0 MISS:          0 MSHR_MERGE:          0
cpu0->cpu0_L1I PREFETCH REQUESTED:          0 ISSUED:          0 USEFUL:          0 USELESS:          0 LATE:          0 TOO_EARLY:          0
cpu0->cpu0_L1I AVERAGE MISS LATENCY: 14.52 cycles
cpu0->cpu0_L1D TOTAL        ACCESS:   98079929 HIT:   88403743 MISS:    9676186 MSHR_MERGE:     903136
cpu0->cpu0_L1D LOAD         ACCESS:   31149539 HIT:   25335657 MISS:    5813882 MSHR_MERGE:     879295
cpu0->cpu0_L1D RFO          ACCESS:          0 HIT:          0 MISS:          0 MSHR_MERGE:          0
cpu0->cpu0_L1D PREFETCH     ACCESS:   55601537 HIT:   51948722 MISS:    3652815 MSHR_MERGE:       8847
cpu0->cpu0_L1D WRITE        ACCESS:   10832777 HIT:   10796217 MISS:      36560 MSHR_MERGE:      14537
cpu0->cpu0_L1D TRANSLATION  ACCESS:     496076 HIT:     323147 MISS:     172929 MSHR_MERGE:        457
cpu0->cpu0_L1D PREFETCH REQUESTED:  126016475 ISSUED:   55601530 USEFUL:     401095 USELESS:      17165 LATE:        115 TOO_EARLY:        563
cpu0->cpu0_L1D AVERAGE MISS LATENCY: 55.38 cycles
cpu0->cpu0_ITLB TOTAL        ACCESS:    7298286 HIT:    7295130 MISS:       3156 MSHR_MERGE:        789
cpu0->cpu0_ITLB LOAD         ACCESS:    7298286 HIT:    7295130 MISS:       3156 MSHR_MERGE:        789
cpu0->cpu0_ITLB RFO          ACCESS:          0 HIT:          0 MISS:          0 MSHR_MERGE:          0
cpu0->cpu0_ITLB PREFETCH     ACCESS:          0 HIT:          0 MISS:          0 MSHR_MERGE:          0
cpu0->cpu0_ITLB WRITE        ACCESS:          0 HIT:          0 MISS:          0 MSHR_MERGE:          0
cpu0->cpu0_ITLB TRANSLATION  ACCESS:          0 HIT:          0 MISS:          0 MSHR_MERGE:          0
cpu0->cpu0_ITLB PREFETCH REQUESTED:          0 ISSUED:          0 USEFUL:          0 USELESS:          0 LATE:          0 TOO_EARLY:          0
cpu0->cpu0_ITLB AVERAGE MISS LATENCY: 18.92 cycles
cpu0->cpu0_DTLB TOTAL        ACCESS:   76603665 HIT:   74917009 MISS:    1686656 MSHR_MERGE:     401912
cpu0->cpu0_DTLB LOAD         ACCESS:   76603665 HIT:   74917009 MISS:    1686656 MSHR_MERGE:     401912
cpu0->cpu0_DTLB RFO          ACCESS:          0 HIT:          0 MISS:          0 MSHR_MERGE:          0
cpu0->cpu0_DTLB PREFETCH     ACCESS:          0 HIT:          0 MISS:          0 MSHR_MERGE:          0
cpu0->cpu0_DTLB WRITE        ACCESS:          0 HIT:          0 MISS:          0 MSHR_MERGE:          0
cpu0->cpu0_DTLB TRANSLATION  ACCESS:          0 HIT:          0 MISS:          0 MSHR_MERGE:          0
cpu0->cpu0_DTLB PREFETCH REQUESTED:          0 ISSUED:          0 USEFUL:          0 USELESS:          0 LATE:          0 TOO_EARLY:          0
cpu0->cpu0_DTLB AVERAGE MISS LATENCY: 12.43 cycles
cpu0->LLC TOTAL        ACCESS:    4500974 HIT:    3252042 MISS:    1248932 MSHR_MERGE:         10
cpu0->LLC LOAD         ACCESS:    3244593 HIT:    2197147 MISS:    1047446 MSHR_MERGE:          0
cpu0->LLC RFO          ACCESS:       7937 HIT:       7903 MISS:         34 MSHR_MERGE:          0
cpu0->LLC PREFETCH     ACCESS:     253121 HIT:      99437 MISS:     153684 MSHR_MERGE:         10
cpu0->LLC WRITE        ACCESS:     909197 HIT:     870982 MISS:      38215 MSHR_MERGE:          0
cpu0->LLC TRANSLATION  ACCESS:      86126 HIT:      76573 MISS:       9553 MSHR_MERGE:          0
cpu0->LLC PREFETCH REQUESTED:          0 ISSUED:          0 USEFUL:          0 USELESS:          0 LATE:          0 TOO_EARLY:          0
cpu0->LLC AVERAGE MISS LATENCY: 172.5 cycles

DRAM Statistics

Channel 0 RQ ROW_BUFFER_HIT:       3379
  ROW_BUFFER_MISS:    1207304
  AVG DBUS CONGESTED CYCLE: 20.76
Channel 0 WQ ROW_BUFFER_HIT:      76189
  ROW_BUFFER_MISS:     205960
  FULL:          0
Channel 0 REFRESHES ISSUED:      35573

[ROI Statistics]
[System Configuration]
num_cpus 1
cpu_freq 4000
fetch_width 6
decode_width 6
dispatch_width 6
execute_width 6
lq_width 2
sq_width 2
retire_width 6
scheduler_size 128
branch_mispredict_penalty 15
rob_size 352
lq_size 128
sq_size 72
ifetch_buffer_size 64
decode_buffer_size 32
dispatch_buffer_size 32
register_file_size 288
decode_latency 1
dispatch_latency 1
schedule_latency 1
execute_latency 1
page_size 4096
block_size 64
core_0_itlb_set 16
core_0_itlb_way 4
core_0_itlb_rq_size 16
core_0_itlb_wq_size 16
core_0_itlb_pq_size 0
core_0_itlb_mshr_size 8
core_0_itlb_hit_latency 1
core_0_itlb_fill_latency 1
core_0_itlb_max_tag_check 2
core_0_itlb_max_fill 2
core_0_dtlb_set 16
core_0_dtlb_way 4
core_0_dtlb_rq_size 16
core_0_dtlb_wq_size 16
core_0_dtlb_pq_size 0
core_0_dtlb_mshr_size 8
core_0_dtlb_hit_latency 1
core_0_dtlb_fill_latency 1
core_0_dtlb_max_tag_check 2
core_0_dtlb_max_fill 2
core_0_stlb_set 128
core_0_stlb_way 12
core_0_stlb_rq_size 32
core_0_stlb_wq_size 32
core_0_stlb_pq_size 0
core_0_stlb_mshr_size 16
core_0_stlb_hit_latency 4
core_0_stlb_fill_latency 4
core_0_stlb_max_tag_check 1
core_0_stlb_max_fill 1
core_0_l1i_set 64
core_0_l1i_way 8
core_0_l1i_rq_size 64
core_0_l1i_wq_size 64
core_0_l1i_pq_size 32
core_0_l1i_mshr_size 8
core_0_l1i_hit_latency 2
core_0_l1i_fill_latency 2
core_0_l1i_max_tag_check 2
core_0_l1i_max_fill 2
core_0_l1d_set 64
core_0_l1d_way 12
core_0_l1d_rq_size 64
core_0_l1d_wq_size 64
core_0_l1d_pq_size 8
core_0_l1d_mshr_size 16
core_0_l1d_hit_latency 2
core_0_l1d_fill_latency 3
core_0_l1d_max_tag_check 2
core_0_l1d_max_fill 2
core_0_l2c_set 1024
core_0_l2c_way 8
core_0_l2c_rq_size 32
core_0_l2c_wq_size 32
core_0_l2c_pq_size 16
core_0_l2c_mshr_size 32
core_0_l2c_hit_latency 5
core_0_l2c_fill_latency 5
core_0_l2c_max_tag_check 1
core_0_l2c_max_fill 1
llc_set 2048
llc_way 16
llc_rq_size 32
llc_wq_size 32
llc_pq_size 32
llc_mshr_size 64
llc_hit_latency 10
llc_fill_latency 10
llc_max_tag_check 1
llc_max_fill 1
dram_channels 1
dram_ranks 1
dram_bankgroups 8
dram_banks 4
dram_rows 65536
dram_columns 1024
dram_channel_width 8
dram_rq_size 64
dram_wq_size 64
dram_size 17179869184
core_0_itlb_prefetcher no
core_0_dtlb_prefetcher no
core_0_stlb_prefetcher no
core_0_l1i_prefetcher next_line
core_0_l1d_prefetcher vberti
core_0_l2c_prefetcher ip_stride
llc_prefetcher no
llc_replacement drrip

Core_0_instructions 100000004
Core_0_cycles 426866621
Core_0_IPC 0.234265
Core_0_branch_prediction_accuracy 86.7629
Core_0_branch_MPKI 23.026
Core_0_average_ROB_occupancy_at_mispredict 20.5468

Core_0_ITLB_total_access 7298286
Core_0_ITLB_total_hit 7295130
Core_0_ITLB_total_miss 3156
Core_0_ITLB_total_MPKI 0.03156
Core_0_ITLB_total_miss_rate 0.00043243
Core_0_ITLB_demand_access 7298286
Core_0_ITLB_demand_hit 7295130
Core_0_ITLB_demand_miss 3156
Core_0_ITLB_demand_MPKI 0.03156
Core_0_ITLB_demand_miss_rate 0.00043243
Core_0_ITLB_load_access 7298286
Core_0_ITLB_load_hit 7295130
Core_0_ITLB_load_miss 3156
Core_0_ITLB_load_MPKI 0.03156
Core_0_ITLB_load_miss_rate 0.00043243
Core_0_ITLB_rfo_access 0
Core_0_ITLB_rfo_hit 0
Core_0_ITLB_rfo_miss 0
Core_0_ITLB_rfo_MPKI 0
Core_0_ITLB_rfo_miss_rate 0
Core_0_ITLB_prefetch_access 0
Core_0_ITLB_prefetch_hit 0
Core_0_ITLB_prefetch_miss 0
Core_0_ITLB_prefetch_MPKI 0
Core_0_ITLB_prefetch_miss_rate 0
Core_0_ITLB_writeback_access 0
Core_0_ITLB_writeback_hit 0
Core_0_ITLB_writeback_miss 0
Core_0_ITLB_writeback_MPKI 0
Core_0_ITLB_writeback_miss_rate 0
Core_0_ITLB_prefetch_requested 0
Core_0_ITLB_prefetch_issued 0
Core_0_ITLB_prefetch_useful 0
Core_0_ITLB_prefetch_useless 0
Core_0_ITLB_prefetch_late 0
Core_0_ITLB_prefetch_fill 0
Core_0_ITLB_prefetch_too_early 0
Core_0_ITLB_prefetch_too_early_among_fill 0
Core_0_ITLB_prefetch_too_early_among_useless 0
Core_0_ITLB_prefetch_pollution_evict 0
Core_0_ITLB_prefetch_pollution_demand 0
Core_0_ITLB_prefetch_pollution_among_prefetch_fill 0
Core_0_ITLB_prefetch_accuracy 0
Core_0_ITLB_prefetch_coverage 0

Core_0_DTLB_total_access 76603665
Core_0_DTLB_total_hit 74917009
Core_0_DTLB_total_miss 1686656
Core_0_DTLB_total_MPKI 16.8666
Core_0_DTLB_total_miss_rate 0.022018
Core_0_DTLB_demand_access 76603665
Core_0_DTLB_demand_hit 74917009
Core_0_DTLB_demand_miss 1686656
Core_0_DTLB_demand_MPKI 16.8666
Core_0_DTLB_demand_miss_rate 0.022018
Core_0_DTLB_load_access 76603665
Core_0_DTLB_load_hit 74917009
Core_0_DTLB_load_miss 1686656
Core_0_DTLB_load_MPKI 16.8666
Core_0_DTLB_load_miss_rate 0.022018
Core_0_DTLB_rfo_access 0
Core_0_DTLB_rfo_hit 0
Core_0_DTLB_rfo_miss 0
Core_0_DTLB_rfo_MPKI 0
Core_0_DTLB_rfo_miss_rate 0
Core_0_DTLB_prefetch_access 0
Core_0_DTLB_prefetch_hit 0
Core_0_DTLB_prefetch_miss 0
Core_0_DTLB_prefetch_MPKI 0
Core_0_DTLB_prefetch_miss_rate 0
Core_0_DTLB_writeback_access 0
Core_0_DTLB_writeback_hit 0
Core_0_DTLB_writeback_miss 0
Core_0_DTLB_writeback_MPKI 0
Core_0_DTLB_writeback_miss_rate 0
Core_0_DTLB_prefetch_requested 0
Core_0_DTLB_prefetch_issued 0
Core_0_DTLB_prefetch_useful 0
Core_0_DTLB_prefetch_useless 0
Core_0_DTLB_prefetch_late 0
Core_0_DTLB_prefetch_fill 0
Core_0_DTLB_prefetch_too_early 0
Core_0_DTLB_prefetch_too_early_among_fill 0
Core_0_DTLB_prefetch_too_early_among_useless 0
Core_0_DTLB_prefetch_pollution_evict 0
Core_0_DTLB_prefetch_pollution_demand 0
Core_0_DTLB_prefetch_pollution_among_prefetch_fill 0
Core_0_DTLB_prefetch_accuracy 0
Core_0_DTLB_prefetch_coverage 0

Core_0_STLB_total_access 1287111
Core_0_STLB_total_hit 1059523
Core_0_STLB_total_miss 227588
Core_0_STLB_total_MPKI 2.27588
Core_0_STLB_total_miss_rate 0.176821
Core_0_STLB_demand_access 1287111
Core_0_STLB_demand_hit 1059523
Core_0_STLB_demand_miss 227588
Core_0_STLB_demand_MPKI 2.27588
Core_0_STLB_demand_miss_rate 0.176821
Core_0_STLB_load_access 1287111
Core_0_STLB_load_hit 1059523
Core_0_STLB_load_miss 227588
Core_0_STLB_load_MPKI 2.27588
Core_0_STLB_load_miss_rate 0.176821
Core_0_STLB_rfo_access 0
Core_0_STLB_rfo_hit 0
Core_0_STLB_rfo_miss 0
Core_0_STLB_rfo_MPKI 0
Core_0_STLB_rfo_miss_rate 0
Core_0_STLB_prefetch_access 0
Core_0_STLB_prefetch_hit 0
Core_0_STLB_prefetch_miss 0
Core_0_STLB_prefetch_MPKI 0
Core_0_STLB_prefetch_miss_rate 0
Core_0_STLB_writeback_access 0
Core_0_STLB_writeback_hit 0
Core_0_STLB_writeback_miss 0
Core_0_STLB_writeback_MPKI 0
Core_0_STLB_writeback_miss_rate 0
Core_0_STLB_prefetch_requested 0
Core_0_STLB_prefetch_issued 0
Core_0_STLB_prefetch_useful 0
Core_0_STLB_prefetch_useless 0
Core_0_STLB_prefetch_late 0
Core_0_STLB_prefetch_fill 0
Core_0_STLB_prefetch_too_early 0
Core_0_STLB_prefetch_too_early_among_fill 0
Core_0_STLB_prefetch_too_early_among_useless 0
Core_0_STLB_prefetch_pollution_evict 0
Core_0_STLB_prefetch_pollution_demand 0
Core_0_STLB_prefetch_pollution_among_prefetch_fill 0
Core_0_STLB_prefetch_accuracy 0
Core_0_STLB_prefetch_coverage 0

Core_0_L1I_total_access 7390201
Core_0_L1I_total_hit 7360862
Core_0_L1I_total_miss 29339
Core_0_L1I_total_MPKI 0.29339
Core_0_L1I_total_miss_rate 0.00396999
Core_0_L1I_demand_access 7390201
Core_0_L1I_demand_hit 7360862
Core_0_L1I_demand_miss 29339
Core_0_L1I_demand_MPKI 0.29339
Core_0_L1I_demand_miss_rate 0.00396999
Core_0_L1I_load_access 7390201
Core_0_L1I_load_hit 7360862
Core_0_L1I_load_miss 29339
Core_0_L1I_load_MPKI 0.29339
Core_0_L1I_load_miss_rate 0.00396999
Core_0_L1I_rfo_access 0
Core_0_L1I_rfo_hit 0
Core_0_L1I_rfo_miss 0
Core_0_L1I_rfo_MPKI 0
Core_0_L1I_rfo_miss_rate 0
Core_0_L1I_prefetch_access 0
Core_0_L1I_prefetch_hit 0
Core_0_L1I_prefetch_miss 0
Core_0_L1I_prefetch_MPKI 0
Core_0_L1I_prefetch_miss_rate 0
Core_0_L1I_writeback_access 0
Core_0_L1I_writeback_hit 0
Core_0_L1I_writeback_miss 0
Core_0_L1I_writeback_MPKI 0
Core_0_L1I_writeback_miss_rate 0
Core_0_L1I_prefetch_requested 0
Core_0_L1I_prefetch_issued 0
Core_0_L1I_prefetch_useful 0
Core_0_L1I_prefetch_useless 0
Core_0_L1I_prefetch_late 0
Core_0_L1I_prefetch_fill 0
Core_0_L1I_prefetch_too_early 0
Core_0_L1I_prefetch_too_early_among_fill 0
Core_0_L1I_prefetch_too_early_among_useless 0
Core_0_L1I_prefetch_pollution_evict 0
Core_0_L1I_prefetch_pollution_demand 0
Core_0_L1I_prefetch_pollution_among_prefetch_fill 0
Core_0_L1I_prefetch_accuracy 0
Core_0_L1I_prefetch_coverage 0

Core_0_L1D_total_access 97583853
Core_0_L1D_total_hit 88080596
Core_0_L1D_total_miss 9503257
Core_0_L1D_total_MPKI 95.0326
Core_0_L1D_total_miss_rate 0.0973855
Core_0_L1D_demand_access 31149539
Core_0_L1D_demand_hit 25335657
Core_0_L1D_demand_miss 5813882
Core_0_L1D_demand_MPKI 58.1388
Core_0_L1D_demand_miss_rate 0.186644
Core_0_L1D_load_access 31149539
Core_0_L1D_load_hit 25335657
Core_0_L1D_load_miss 5813882
Core_0_L1D_load_MPKI 58.1388
Core_0_L1D_load_miss_rate 0.186644
Core_0_L1D_rfo_access 0
Core_0_L1D_rfo_hit 0
Core_0_L1D_rfo_miss 0
Core_0_L1D_rfo_MPKI 0
Core_0_L1D_rfo_miss_rate 0
Core_0_L1D_prefetch_access 55601537
Core_0_L1D_prefetch_hit 51948722
Core_0_L1D_prefetch_miss 3652815
Core_0_L1D_prefetch_MPKI 36.5281
Core_0_L1D_prefetch_miss_rate 0.0656963
Core_0_L1D_writeback_access 10832777
Core_0_L1D_writeback_hit 10796217
Core_0_L1D_writeback_miss 36560
Core_0_L1D_writeback_MPKI 0.3656
Core_0_L1D_writeback_miss_rate 0.00337494
Core_0_L1D_prefetch_requested 126016475
Core_0_L1D_prefetch_issued 55601530
Core_0_L1D_prefetch_useful 401095
Core_0_L1D_prefetch_useless 17165
Core_0_L1D_prefetch_late 115
Core_0_L1D_prefetch_fill 418147
Core_0_L1D_prefetch_too_early 563
Core_0_L1D_prefetch_too_early_among_fill 0.00134642
Core_0_L1D_prefetch_too_early_among_useless 0.0327993
Core_0_L1D_prefetch_pollution_evict 193252
Core_0_L1D_prefetch_pollution_demand 193234
Core_0_L1D_prefetch_pollution_among_prefetch_fill 0.462163
Core_0_L1D_prefetch_accuracy 0.00721374
Core_0_L1D_prefetch_coverage 0.0645368

Core_0_L2C_total_access 11079284
Core_0_L2C_total_hit 7485890
Core_0_L2C_total_miss 3593394
Core_0_L2C_total_MPKI 35.9339
Core_0_L2C_total_miss_rate 0.324334
Core_0_L2C_demand_access 4977124
Core_0_L2C_demand_hit 1724139
Core_0_L2C_demand_miss 3252985
Core_0_L2C_demand_MPKI 32.5298
Core_0_L2C_demand_miss_rate 0.653587
Core_0_L2C_load_access 4955101
Core_0_L2C_load_hit 1710053
Core_0_L2C_load_miss 3245048
Core_0_L2C_load_MPKI 32.4505
Core_0_L2C_load_miss_rate 0.65489
Core_0_L2C_rfo_access 22023
Core_0_L2C_rfo_hit 14086
Core_0_L2C_rfo_miss 7937
Core_0_L2C_rfo_MPKI 0.07937
Core_0_L2C_rfo_miss_rate 0.360396
Core_0_L2C_prefetch_access 4609209
Core_0_L2C_prefetch_hit 4268803
Core_0_L2C_prefetch_miss 340406
Core_0_L2C_prefetch_MPKI 3.40406
Core_0_L2C_prefetch_miss_rate 0.0738535
Core_0_L2C_writeback_access 1492951
Core_0_L2C_writeback_hit 1492948
Core_0_L2C_writeback_miss 3
Core_0_L2C_writeback_MPKI 3e-05
Core_0_L2C_writeback_miss_rate 2.00944e-06
Core_0_L2C_prefetch_requested 972608
Core_0_L2C_prefetch_issued 968659
Core_0_L2C_prefetch_useful 102250
Core_0_L2C_prefetch_useless 27236
Core_0_L2C_prefetch_late 160
Core_0_L2C_prefetch_fill 252643
Core_0_L2C_prefetch_too_early 15841
Core_0_L2C_prefetch_too_early_among_fill 0.0627011
Core_0_L2C_prefetch_too_early_among_useless 0.58162
Core_0_L2C_prefetch_pollution_evict 179752
Core_0_L2C_prefetch_pollution_demand 178784
Core_0_L2C_prefetch_pollution_among_prefetch_fill 0.711486
Core_0_L2C_prefetch_accuracy 0.105558
Core_0_L2C_prefetch_coverage 0.0304748

Core_0_LLC_total_access 4414848
Core_0_LLC_total_hit 3175469
Core_0_LLC_total_miss 1239379
Core_0_LLC_total_MPKI 12.3938
Core_0_LLC_total_miss_rate 0.28073
Core_0_LLC_demand_access 3252530
Core_0_LLC_demand_hit 2205050
Core_0_LLC_demand_miss 1047480
Core_0_LLC_demand_MPKI 10.4748
Core_0_LLC_demand_miss_rate 0.322051
Core_0_LLC_load_access 3244593
Core_0_LLC_load_hit 2197147
Core_0_LLC_load_miss 1047446
Core_0_LLC_load_MPKI 10.4745
Core_0_LLC_load_miss_rate 0.322828
Core_0_LLC_rfo_access 7937
Core_0_LLC_rfo_hit 7903
Core_0_LLC_rfo_miss 34
Core_0_LLC_rfo_MPKI 0.00034
Core_0_LLC_rfo_miss_rate 0.00428373
Core_0_LLC_prefetch_access 253121
Core_0_LLC_prefetch_hit 99437
Core_0_LLC_prefetch_miss 153684
Core_0_LLC_prefetch_MPKI 1.53684
Core_0_LLC_prefetch_miss_rate 0.607156
Core_0_LLC_writeback_access 909197
Core_0_LLC_writeback_hit 870982
Core_0_LLC_writeback_miss 38215
Core_0_LLC_writeback_MPKI 0.38215
Core_0_LLC_writeback_miss_rate 0.0420316
Core_0_LLC_prefetch_requested 0
Core_0_LLC_prefetch_issued 0
Core_0_LLC_prefetch_useful 0
Core_0_LLC_prefetch_useless 0
Core_0_LLC_prefetch_late 0
Core_0_LLC_prefetch_fill 153674
Core_0_LLC_prefetch_too_early 0
Core_0_LLC_prefetch_too_early_among_fill 0
Core_0_LLC_prefetch_too_early_among_useless 0
Core_0_LLC_prefetch_pollution_evict 52326
Core_0_LLC_prefetch_pollution_demand 52326
Core_0_LLC_prefetch_pollution_among_prefetch_fill 0.3405
Core_0_LLC_prefetch_accuracy 0
Core_0_LLC_prefetch_coverage 0

[DRAM Statistics]
Channel_0_RQ_row_buffer_hit 3379
Channel_0_RQ_row_buffer_miss 1207304
Channel_0_WQ_row_buffer_hit 76189
Channel_0_WQ_row_buffer_miss 205960
Channel_0_WQ_full 0
Channel_0_dbus_congested 3656586
DRAM_total_RQ_row_buffer_hit 3379
DRAM_total_RQ_row_buffer_miss 1207304
DRAM_total_WQ_row_buffer_hit 76189
DRAM_total_WQ_row_buffer_miss 205960
DRAM_total_WQ_full 0
DRAM_total_dbus_congested 3656586
DRAM_avg_congested_cycle 20.7556

====== DRAM_RQ_TRAFFIC ========
DRAM_RQ_READ_TRAFFIC_BREAKDOWN:
data_demand_read.count = 1047447
data_demand_read.share = 86.52%

inst_demand_read.count = 33
inst_demand_read.share = 0.00%

cache_inst_prefetch.count = 0
cache_inst_prefetch.share = 0.00%

cache_data_prefetch.count = 153674
cache_data_prefetch.share = 12.69%

stlb_data_demand.count = 9213
stlb_data_demand.share = 0.76%

stlb_inst_demand.count = 64
stlb_inst_demand.share = 0.01%

stlb_l1i_pref.count = 0
stlb_l1i_pref.share = 0.00%

stlb_l1d_pref.count = 276
stlb_l1d_pref.share = 0.02%

DRAM_RQ_READ_TRAFFIC_SUMMARY:
cache_demand.count = 1047480
cache_demand.share = 86.52%

cache_prefetch.count = 153674
cache_prefetch.share = 12.69%

stlb_demand.count = 9277
stlb_demand.share = 0.77%

stlb_prefetch.count = 276
stlb_prefetch.share = 0.02%

DRAM_RQ_READ_TRAFFIC_DEBUG:
total_classified_read.count = 1210707
unclassified_read.count = 0
total_read_with_other.count = 1210707

classified_plus_unclassified_check.count = 1210707
dram_rq_read_total_observed.count = 1210707
dram_rq_read_total_observed.per_1K_instructions = 12.1071

STLB_MISS_PTW_DRAM_TOUCH_BREAKDOWN:
stlb_miss_total.count = 227156

stlb_miss_touch_dram.count = 9487
stlb_miss_touch_dram.share = 4.18%

stlb_miss_no_dram_touch.count = 217669
stlb_miss_no_dram_touch.share = 95.82%

STLB_MISS_PTW_DRAM_TOUCH_DEBUG:
stlb_miss_touch_plus_no_touch.count = 227156
stlb_miss_total_check.count = 227156

======STLB miss causes ========
Core_0_STLB_miss_cause_breakdown
Core_0_STLB_cause_Demand_Data_miss 222044
Core_0_STLB_cause_Demand_Data_miss_rate 0.172513
Core_0_STLB_cause_Demand_Instruction_miss 602
Core_0_STLB_cause_Demand_Instruction_miss_rate 0.000467714
Core_0_STLB_cause_L1D_Prefetch_miss 4942
Core_0_STLB_cause_L1D_Prefetch_miss_rate 0.00383961
Core_0_STLB_cause_L1D_Prefetch_Same_Page_miss 0
Core_0_STLB_cause_L1D_Prefetch_Same_Page_miss_rate 0
Core_0_STLB_cause_L1D_Prefetch_Cross_Page_miss 4942
Core_0_STLB_cause_L1D_Prefetch_Cross_Page_miss_rate 0.00383961
Core_0_STLB_cause_L1I_Prefetch_miss 0
Core_0_STLB_cause_L1I_Prefetch_miss_rate 0
Core_0_STLB_cause_Other_miss 0
Core_0_STLB_cause_Other_miss_rate 0
Core_0_STLB_Demand_miss 222646
Core_0_STLB_Demand_miss_rate 0.172981
Core_0_STLB_L1D_Prefetch_miss 4942
Core_0_STLB_L1D_Prefetch_miss_rate 0.00383961
Core_0_STLB_Other_miss 0
Core_0_STLB_Other_miss_rate 0

========== vBerti-TLB Cross-page Flow Stats ==========

Core_0_vBerti_Requested 126016475
Core_0_vBerti_Cross_page_prefetch_in_Requested 8793649
Core_0_vBerti_Same_page_prefetch_in_Requested 117222826
Core_0_vBerti_Cross_page_prefetch_of_Requested 0.0697817
Core_0_vBerti_Issued 55601530
Core_0_vBerti_InPQ_Same_page_prefetch 52754330
Core_0_vBerti_InPQ_Cross_page_prefetch 2847200
Core_0_vBerti_PQ_Drop_Rate 0.558776
Core_0_vBerti_InPQ_Cross_page_prefetch_of_Requested 0.0225939
Core_0_vBerti_Cross_page_PQ_Drop_rate 0.676221
Core_0_vBerti_Cross_page_prefetch_of_Issued 0.0512072
Core_0_CP_PF_PQFULL_drop 5946449
Core_0_CP_PF_PQFULL_TLB_rescue_enqueued 5906750
Core_0_CP_PF_PQFULL_TLB_rescue_issued 5906750
Core_0_CP_PF_PQFULL_TLB_rescue_translated 5906750

========= DTLB_vBerti Prefetch Stats =========
Core_0_DTLB_demand_access 40134591
Core_0_DTLB_demand_hit 38512087
Core_0_DTLB_demand_miss 1622504
Core_0_DTLB_demand_mshr_merge 345404
Core_0_DTLB_demand_fill 1277103
Core_0_DTLB_demand_miss_rate 0.0404266
Core_0_DTLB_demand_mpki 16.225
Core_0_DTLB_vberti_prefetch_access 36469074
Core_0_DTLB_vberti_prefetch_hit 36404922
Core_0_DTLB_vberti_prefetch_miss 64152
Core_0_DTLB_vberti_prefetch_mshr_merge 56508
Core_0_DTLB_vberti_prefetch_fill 7641
Core_0_DTLB_vberti_prefetch_miss_rate 0.00175908
Core_0_DTLB_vberti_prefetch_mpki 0.64152

=== DTLB_vBerti Same/Cross-page Prefetch Stats ===
Core_0_DTLB_vberti_same_page_prefetch 31756322
Core_0_DTLB_vberti_same_page_prefetch_hit 31756322
Core_0_DTLB_vberti_same_page_prefetch_miss 0
Core_0_DTLB_vberti_same_page_prefetch_mshr_merge 0
Core_0_DTLB_vberti_same_page_prefetch_fill 0
Core_0_DTLB_vberti_same_page_prefetch_miss_rate 0
Core_0_DTLB_vberti_same_page_prefetch_mpki 0
Core_0_DTLB_vberti_cross_page_prefetch 4712752
Core_0_DTLB_vberti_cross_page_prefetch_hit 4648600
Core_0_DTLB_vberti_cross_page_prefetch_miss 64152
Core_0_DTLB_vberti_cross_page_prefetch_mshr_merge 56508
Core_0_DTLB_vberti_cross_page_prefetch_fill 7641
Core_0_DTLB_vberti_cross_page_prefetch_miss_rate 0.0136124
Core_0_DTLB_vberti_cross_page_prefetch_mpki 0.64152
Core_0_DTLB_same_page_prefetch_miss_rate 0
Core_0_DTLB_same_page_prefetch_mpki 0
Core_0_DTLB_cross_page_prefetch_miss_rate 0.0136124
Core_0_DTLB_cross_page_prefetch_mpki 0.64152
Core_0_DTLB_cross_page_prefetch_issued 4712752
Core_0_DTLB_cross_page_prefetch_lookups 4712752
Core_0_DTLB_cross_page_prefetch_useful 6407
Core_0_DTLB_cross_page_prefetch_useless 1237
Core_0_DTLB_cross_page_prefetch_late 3
Core_0_DTLB_cross_page_prefetch_too_early 413
Core_0_DTLB_cross_page_prefetch_too_early_among_fill 0.0540505
Core_0_DTLB_cross_page_prefetch_too_early_among_useless 0.333872
Core_0_DTLB_cross_page_prefetch_pollution_evict 7439
Core_0_DTLB_cross_page_prefetch_pollution_demand 7432
Core_0_DTLB_cross_page_prefetch_pollution_among_prefetch_fill 0.973564
Core_0_DTLB_cross_page_prefetch_accuracy 0.0013595
Core_0_DTLB_cross_page_prefetch_coverage 0.0039333

========= STLB_vBerti Prefetch Stats =========
Core_0_STLB_demand_access 1279467
Core_0_STLB_demand_hit 1056821
Core_0_STLB_demand_miss 222646
Core_0_STLB_demand_mshr_merge 0
Core_0_STLB_demand_fill 222646
Core_0_STLB_demand_miss_rate 0.174015
Core_0_STLB_demand_mpki 2.22646
Core_0_STLB_vberti_prefetch_access 7644
Core_0_STLB_vberti_prefetch_hit 2702
Core_0_STLB_vberti_prefetch_miss 4942
Core_0_STLB_vberti_prefetch_mshr_merge 0
Core_0_STLB_vberti_prefetch_fill 0
Core_0_STLB_vberti_prefetch_miss_rate 0.64652
Core_0_STLB_vberti_prefetch_mpki 0.04942

=== STLB_vBerti Same/Cross-page Prefetch Stats ===
Core_0_STLB_vberti_same_page_prefetch 0
Core_0_STLB_vberti_same_page_prefetch_hit 0
Core_0_STLB_vberti_same_page_prefetch_miss 0
Core_0_STLB_vberti_same_page_prefetch_mshr_merge 0
Core_0_STLB_vberti_same_page_prefetch_fill 0
Core_0_STLB_vberti_same_page_prefetch_miss_rate 0
Core_0_STLB_vberti_same_page_prefetch_mpki 0
Core_0_STLB_vberti_cross_page_prefetch 7644
Core_0_STLB_vberti_cross_page_prefetch_hit 2702
Core_0_STLB_vberti_cross_page_prefetch_miss 4942
Core_0_STLB_vberti_cross_page_prefetch_mshr_merge 0
Core_0_STLB_vberti_cross_page_prefetch_fill 0
Core_0_STLB_vberti_cross_page_prefetch_miss_rate 0.64652
Core_0_STLB_vberti_cross_page_prefetch_mpki 0.04942
Core_0_STLB_same_page_prefetch_miss_rate 0
Core_0_STLB_same_page_prefetch_mpki 0
Core_0_STLB_cross_page_prefetch_miss_rate 0.64652
Core_0_STLB_cross_page_prefetch_mpki 0.04942
Core_0_STLB_cross_page_prefetch_issued 7644
Core_0_STLB_cross_page_prefetch_lookups 7644
Core_0_STLB_cross_page_prefetch_useful 432
Core_0_STLB_cross_page_prefetch_useless 3493
Core_0_STLB_cross_page_prefetch_late 432
Core_0_STLB_cross_page_prefetch_too_early 0
Core_0_STLB_cross_page_prefetch_too_early_among_fill 0
Core_0_STLB_cross_page_prefetch_too_early_among_useless 0
Core_0_STLB_cross_page_prefetch_pollution_evict 0
Core_0_STLB_cross_page_prefetch_pollution_demand 0
Core_0_STLB_cross_page_prefetch_pollution_among_prefetch_fill 0
Core_0_STLB_cross_page_prefetch_accuracy 0.0565149
Core_0_STLB_cross_page_prefetch_coverage 0.00193654

========= STLB Cross-page Prefetch Buffer Stats =========
Core_0_STLB_raw_demand_miss 222044
Core_0_CP_PB_insert 4942
Core_0_CP_PB_demand_hit 432
Core_0_STLB_PB_demand_miss 221612
Core_0_CP_PB_coverage 0.00194556
Core_0_STLB_raw_demand_mpki 2.22044
Core_0_STLB_PB_demand_mpki 2.21612
Core_0_CP_PB_demand_hit_mpki 0.00432

Core_0_TLB_demand_miss_rate 0.00554748
Core_0_TLB_demand_mpki 2.22646
Core_0_TLB_same_page_prefetch_miss_rate 0
Core_0_TLB_same_page_prefetch_mpki 0
Core_0_TLB_cross_page_prefetch_miss_rate 0.00104864
Core_0_TLB_cross_page_prefetch_mpki 0.04942
Core_0_TLB_cross_page_prefetch_issued 4712752
Core_0_TLB_cross_page_prefetch_lookups 4712752
Core_0_TLB_cross_page_prefetch_useful 2155
Core_0_TLB_cross_page_prefetch_useless 1049
Core_0_TLB_cross_page_prefetch_late 2
Core_0_TLB_cross_page_prefetch_too_early 377
Core_0_TLB_cross_page_prefetch_too_early_among_fill 0.0493391
Core_0_TLB_cross_page_prefetch_too_early_among_useless 0.35939
Core_0_TLB_cross_page_prefetch_accuracy 0.00045727
Core_0_TLB_cross_page_prefetch_coverage 0.00958626
BERTI TO_L1: 157994335 TO_L2: 16893666 TO_L2_BC_MSHR: 0
BERTI AVG_LAT: 40.3254 NUM_TRACK_LATENCY: 8010804 NUM_CANT_TRACK_LATENCY: 5
BERTI CROSS_PAGE 12413340 NO_CROSS_PAGE: 162474661
BERTI FOUND_BERTI: 42035650 NO_FOUND_BERTI: 14282545
BERTI AVERAGE_ISSUED: 3.21551
