[VMEM] WARNING: physical memory size is smaller than virtual memory size.

*** ChampSim Multicore Out-of-Order Simulator ***
Warmup Instructions: 50000000
Simulation Instructions: 100000000
Number of CPUs: 1
Page size: 4096
Core 0: /data2/zcq/champsim_traces_gap/bfs.urand-118B.champsimtrace.xz
VBerti Prefetcher
BERTI HASH ENTANGLING
BERTI IP MASK ffff
Off-chip DRAM Size: 16 GiB Channels: 1 Width: 64-bit Data Rate: 3205 MT/s
Warmup halting CPU 0 at instruction 50000000 cycle 42725828 for remainder of phase
Warmup finished CPU 0 instructions: 50000000 cycles: 42725828 cumulative IPC: 1.17 (Simulation time: 00 hr 07 min 59 sec)
Warmup complete CPU 0 instructions: 50000000 cycles: 42725828 cumulative IPC: 1.17 (Simulation time: 00 hr 07 min 59 sec)
Simulation finished CPU 0 instructions: 100000000 cycles: 726982981 cumulative IPC: 0.1376 (Simulation time: 01 hr 18 min 58 sec)
Simulation complete CPU 0 instructions: 100000000 cycles: 726982981 cumulative IPC: 0.1376 (Simulation time: 01 hr 18 min 58 sec)

ChampSim completed all CPUs

=== Simulation ===
CPU 0 runs /data2/zcq/champsim_traces_gap/bfs.urand-118B.champsimtrace.xz

Region of Interest Statistics

CPU 0 cumulative IPC: 0.1376 instructions: 100000000 cycles: 726982981
CPU 0 Branch Prediction Accuracy: 94.45% MPKI: 8.704 Average ROB Occupancy at Mispredict: 70.5
Branch type MPKI
BRANCH_DIRECT_JUMP: 0
BRANCH_INDIRECT: 0
BRANCH_CONDITIONAL: 8.704
BRANCH_DIRECT_CALL: 0
BRANCH_INDIRECT_CALL: 0
BRANCH_RETURN: 0

cpu0->cpu0_STLB TOTAL        ACCESS:    4416481 HIT:     107382 MISS:    4309099 MSHR_MERGE:          0
cpu0->cpu0_STLB LOAD         ACCESS:    4416481 HIT:     107382 MISS:    4309099 MSHR_MERGE:          0
cpu0->cpu0_STLB RFO          ACCESS:          0 HIT:          0 MISS:          0 MSHR_MERGE:          0
cpu0->cpu0_STLB PREFETCH     ACCESS:          0 HIT:          0 MISS:          0 MSHR_MERGE:          0
cpu0->cpu0_STLB WRITE        ACCESS:          0 HIT:          0 MISS:          0 MSHR_MERGE:          0
cpu0->cpu0_STLB TRANSLATION  ACCESS:          0 HIT:          0 MISS:          0 MSHR_MERGE:          0
cpu0->cpu0_STLB PREFETCH REQUESTED:          0 ISSUED:          0 USEFUL:          0 USELESS:          0 LATE:          0 TOO_EARLY:          0
cpu0->cpu0_STLB AVERAGE MISS LATENCY: 121.1 cycles
cpu0->cpu0_L2C TOTAL        ACCESS:   18405985 HIT:    8470596 MISS:    9935389 MSHR_MERGE:     757346
cpu0->cpu0_L2C LOAD         ACCESS:    4502544 HIT:     127588 MISS:    4374956 MSHR_MERGE:         86
cpu0->cpu0_L2C RFO          ACCESS:        632 HIT:        210 MISS:        422 MSHR_MERGE:          0
cpu0->cpu0_L2C PREFETCH     ACCESS:    5529056 HIT:    3681745 MISS:    1847311 MSHR_MERGE:     757260
cpu0->cpu0_L2C WRITE        ACCESS:    3886570 HIT:    3886359 MISS:        211 MSHR_MERGE:          0
cpu0->cpu0_L2C TRANSLATION  ACCESS:    4487183 HIT:     774694 MISS:    3712489 MSHR_MERGE:          0
cpu0->cpu0_L2C PREFETCH REQUESTED:     784542 ISSUED:     774684 USEFUL:     325857 USELESS:     117029 LATE:          0 TOO_EARLY:          7
cpu0->cpu0_L2C AVERAGE MISS LATENCY: 176 cycles
cpu0->cpu0_L1I TOTAL        ACCESS:   14280081 HIT:   14280081 MISS:          0 MSHR_MERGE:          0
cpu0->cpu0_L1I LOAD         ACCESS:   14280081 HIT:   14280081 MISS:          0 MSHR_MERGE:          0
cpu0->cpu0_L1I RFO          ACCESS:          0 HIT:          0 MISS:          0 MSHR_MERGE:          0
cpu0->cpu0_L1I PREFETCH     ACCESS:          0 HIT:          0 MISS:          0 MSHR_MERGE:          0
cpu0->cpu0_L1I WRITE        ACCESS:          0 HIT:          0 MISS:          0 MSHR_MERGE:          0
cpu0->cpu0_L1I TRANSLATION  ACCESS:          0 HIT:          0 MISS:          0 MSHR_MERGE:          0
cpu0->cpu0_L1I PREFETCH REQUESTED:          0 ISSUED:          0 USEFUL:          0 USELESS:          0 LATE:          0 TOO_EARLY:          0
cpu0->cpu0_L1I AVERAGE MISS LATENCY: - cycles
cpu0->cpu0_L1D TOTAL        ACCESS:  157768581 HIT:  143148635 MISS:   14619946 MSHR_MERGE:     639555
cpu0->cpu0_L1D LOAD         ACCESS:   34059225 HIT:   29038805 MISS:    5020420 MSHR_MERGE:     517876
cpu0->cpu0_L1D RFO          ACCESS:          0 HIT:          0 MISS:          0 MSHR_MERGE:          0
cpu0->cpu0_L1D PREFETCH     ACCESS:   90945693 HIT:   85847889 MISS:    5097804 MSHR_MERGE:     107771
cpu0->cpu0_L1D WRITE        ACCESS:   20726678 HIT:   20717778 MISS:       8900 MSHR_MERGE:       8268
cpu0->cpu0_L1D TRANSLATION  ACCESS:   12036985 HIT:    7544163 MISS:    4492822 MSHR_MERGE:       5640
cpu0->cpu0_L1D PREFETCH REQUESTED:  224413632 ISSUED:   90945693 USEFUL:     754049 USELESS:      74539 LATE:        519 TOO_EARLY:        170
cpu0->cpu0_L1D AVERAGE MISS LATENCY: 167.3 cycles
cpu0->cpu0_ITLB TOTAL        ACCESS:   14206816 HIT:   14206816 MISS:          0 MSHR_MERGE:          0
cpu0->cpu0_ITLB LOAD         ACCESS:   14206816 HIT:   14206816 MISS:          0 MSHR_MERGE:          0
cpu0->cpu0_ITLB RFO          ACCESS:          0 HIT:          0 MISS:          0 MSHR_MERGE:          0
cpu0->cpu0_ITLB PREFETCH     ACCESS:          0 HIT:          0 MISS:          0 MSHR_MERGE:          0
cpu0->cpu0_ITLB WRITE        ACCESS:          0 HIT:          0 MISS:          0 MSHR_MERGE:          0
cpu0->cpu0_ITLB TRANSLATION  ACCESS:          0 HIT:          0 MISS:          0 MSHR_MERGE:          0
cpu0->cpu0_ITLB PREFETCH REQUESTED:          0 ISSUED:          0 USEFUL:          0 USELESS:          0 LATE:          0 TOO_EARLY:          0
cpu0->cpu0_ITLB AVERAGE MISS LATENCY: - cycles
cpu0->cpu0_DTLB TOTAL        ACCESS:  112210830 HIT:  107180780 MISS:    5030050 MSHR_MERGE:     613569
cpu0->cpu0_DTLB LOAD         ACCESS:  112210830 HIT:  107180780 MISS:    5030050 MSHR_MERGE:     613569
cpu0->cpu0_DTLB RFO          ACCESS:          0 HIT:          0 MISS:          0 MSHR_MERGE:          0
cpu0->cpu0_DTLB PREFETCH     ACCESS:          0 HIT:          0 MISS:          0 MSHR_MERGE:          0
cpu0->cpu0_DTLB WRITE        ACCESS:          0 HIT:          0 MISS:          0 MSHR_MERGE:          0
cpu0->cpu0_DTLB TRANSLATION  ACCESS:          0 HIT:          0 MISS:          0 MSHR_MERGE:          0
cpu0->cpu0_DTLB PREFETCH REQUESTED:          0 ISSUED:          0 USEFUL:          0 USELESS:          0 LATE:          0 TOO_EARLY:          0
cpu0->cpu0_DTLB AVERAGE MISS LATENCY: 124.1 cycles
cpu0->LLC TOTAL        ACCESS:   13063586 HIT:    6008129 MISS:    7055457 MSHR_MERGE:        347
cpu0->LLC LOAD         ACCESS:    4374870 HIT:       6604 MISS:    4368266 MSHR_MERGE:          0
cpu0->LLC RFO          ACCESS:        422 HIT:        146 MISS:        276 MSHR_MERGE:          0
cpu0->LLC PREFETCH     ACCESS:    1090051 HIT:     314813 MISS:     775238 MSHR_MERGE:        347
cpu0->LLC WRITE        ACCESS:    3885754 HIT:    3436441 MISS:     449313 MSHR_MERGE:          0
cpu0->LLC TRANSLATION  ACCESS:    3712489 HIT:    2250125 MISS:    1462364 MSHR_MERGE:          0
cpu0->LLC PREFETCH REQUESTED:          0 ISSUED:          0 USEFUL:          0 USELESS:          0 LATE:          0 TOO_EARLY:          0
cpu0->LLC AVERAGE MISS LATENCY: 207 cycles

DRAM Statistics

Channel 0 RQ ROW_BUFFER_HIT:       5778
  ROW_BUFFER_MISS:    6599944
  AVG DBUS CONGESTED CYCLE: 7.637
Channel 0 WQ ROW_BUFFER_HIT:    1013383
  ROW_BUFFER_MISS:    2703645
  FULL:          0
Channel 0 REFRESHES ISSUED:      60582

[ROI Statistics]
[System Configuration]
num_cpus 1
cpu_freq 4000
fetch_width 6
decode_width 6
dispatch_width 6
execute_width 6
lq_width 2
sq_width 2
retire_width 6
scheduler_size 128
branch_mispredict_penalty 15
rob_size 352
lq_size 128
sq_size 72
ifetch_buffer_size 64
decode_buffer_size 32
dispatch_buffer_size 32
register_file_size 288
decode_latency 1
dispatch_latency 1
schedule_latency 1
execute_latency 1
page_size 4096
block_size 64
core_0_itlb_set 16
core_0_itlb_way 4
core_0_itlb_rq_size 16
core_0_itlb_wq_size 16
core_0_itlb_pq_size 0
core_0_itlb_mshr_size 8
core_0_itlb_hit_latency 1
core_0_itlb_fill_latency 1
core_0_itlb_max_tag_check 2
core_0_itlb_max_fill 2
core_0_dtlb_set 16
core_0_dtlb_way 4
core_0_dtlb_rq_size 16
core_0_dtlb_wq_size 16
core_0_dtlb_pq_size 0
core_0_dtlb_mshr_size 8
core_0_dtlb_hit_latency 1
core_0_dtlb_fill_latency 1
core_0_dtlb_max_tag_check 2
core_0_dtlb_max_fill 2
core_0_stlb_set 128
core_0_stlb_way 12
core_0_stlb_rq_size 32
core_0_stlb_wq_size 32
core_0_stlb_pq_size 0
core_0_stlb_mshr_size 16
core_0_stlb_hit_latency 4
core_0_stlb_fill_latency 4
core_0_stlb_max_tag_check 1
core_0_stlb_max_fill 1
core_0_l1i_set 64
core_0_l1i_way 8
core_0_l1i_rq_size 64
core_0_l1i_wq_size 64
core_0_l1i_pq_size 32
core_0_l1i_mshr_size 8
core_0_l1i_hit_latency 2
core_0_l1i_fill_latency 2
core_0_l1i_max_tag_check 2
core_0_l1i_max_fill 2
core_0_l1d_set 64
core_0_l1d_way 12
core_0_l1d_rq_size 64
core_0_l1d_wq_size 64
core_0_l1d_pq_size 8
core_0_l1d_mshr_size 16
core_0_l1d_hit_latency 2
core_0_l1d_fill_latency 3
core_0_l1d_max_tag_check 2
core_0_l1d_max_fill 2
core_0_l2c_set 1024
core_0_l2c_way 8
core_0_l2c_rq_size 32
core_0_l2c_wq_size 32
core_0_l2c_pq_size 16
core_0_l2c_mshr_size 32
core_0_l2c_hit_latency 5
core_0_l2c_fill_latency 5
core_0_l2c_max_tag_check 1
core_0_l2c_max_fill 1
llc_set 2048
llc_way 16
llc_rq_size 32
llc_wq_size 32
llc_pq_size 32
llc_mshr_size 64
llc_hit_latency 10
llc_fill_latency 10
llc_max_tag_check 1
llc_max_fill 1
dram_channels 1
dram_ranks 1
dram_bankgroups 8
dram_banks 4
dram_rows 65536
dram_columns 1024
dram_channel_width 8
dram_rq_size 64
dram_wq_size 64
dram_size 17179869184
core_0_itlb_prefetcher no
core_0_dtlb_prefetcher no
core_0_stlb_prefetcher no
core_0_l1i_prefetcher next_line
core_0_l1d_prefetcher vberti
core_0_l2c_prefetcher ip_stride
llc_prefetcher no
llc_replacement drrip

Core_0_instructions 100000000
Core_0_cycles 726982981
Core_0_IPC 0.137555
Core_0_branch_prediction_accuracy 94.4508
Core_0_branch_MPKI 8.70419
Core_0_average_ROB_occupancy_at_mispredict 70.5016

Core_0_ITLB_total_access 14206816
Core_0_ITLB_total_hit 14206816
Core_0_ITLB_total_miss 0
Core_0_ITLB_total_MPKI 0
Core_0_ITLB_total_miss_rate 0
Core_0_ITLB_demand_access 14206816
Core_0_ITLB_demand_hit 14206816
Core_0_ITLB_demand_miss 0
Core_0_ITLB_demand_MPKI 0
Core_0_ITLB_demand_miss_rate 0
Core_0_ITLB_load_access 14206816
Core_0_ITLB_load_hit 14206816
Core_0_ITLB_load_miss 0
Core_0_ITLB_load_MPKI 0
Core_0_ITLB_load_miss_rate 0
Core_0_ITLB_rfo_access 0
Core_0_ITLB_rfo_hit 0
Core_0_ITLB_rfo_miss 0
Core_0_ITLB_rfo_MPKI 0
Core_0_ITLB_rfo_miss_rate 0
Core_0_ITLB_prefetch_access 0
Core_0_ITLB_prefetch_hit 0
Core_0_ITLB_prefetch_miss 0
Core_0_ITLB_prefetch_MPKI 0
Core_0_ITLB_prefetch_miss_rate 0
Core_0_ITLB_writeback_access 0
Core_0_ITLB_writeback_hit 0
Core_0_ITLB_writeback_miss 0
Core_0_ITLB_writeback_MPKI 0
Core_0_ITLB_writeback_miss_rate 0
Core_0_ITLB_prefetch_requested 0
Core_0_ITLB_prefetch_issued 0
Core_0_ITLB_prefetch_useful 0
Core_0_ITLB_prefetch_useless 0
Core_0_ITLB_prefetch_late 0
Core_0_ITLB_prefetch_fill 0
Core_0_ITLB_prefetch_too_early 0
Core_0_ITLB_prefetch_too_early_among_fill 0
Core_0_ITLB_prefetch_too_early_among_useless 0
Core_0_ITLB_prefetch_pollution_evict 0
Core_0_ITLB_prefetch_pollution_demand 0
Core_0_ITLB_prefetch_pollution_among_prefetch_fill 0
Core_0_ITLB_prefetch_accuracy 0
Core_0_ITLB_prefetch_coverage 0

Core_0_DTLB_total_access 112210830
Core_0_DTLB_total_hit 107180780
Core_0_DTLB_total_miss 5030050
Core_0_DTLB_total_MPKI 50.3005
Core_0_DTLB_total_miss_rate 0.0448268
Core_0_DTLB_demand_access 112210830
Core_0_DTLB_demand_hit 107180780
Core_0_DTLB_demand_miss 5030050
Core_0_DTLB_demand_MPKI 50.3005
Core_0_DTLB_demand_miss_rate 0.0448268
Core_0_DTLB_load_access 112210830
Core_0_DTLB_load_hit 107180780
Core_0_DTLB_load_miss 5030050
Core_0_DTLB_load_MPKI 50.3005
Core_0_DTLB_load_miss_rate 0.0448268
Core_0_DTLB_rfo_access 0
Core_0_DTLB_rfo_hit 0
Core_0_DTLB_rfo_miss 0
Core_0_DTLB_rfo_MPKI 0
Core_0_DTLB_rfo_miss_rate 0
Core_0_DTLB_prefetch_access 0
Core_0_DTLB_prefetch_hit 0
Core_0_DTLB_prefetch_miss 0
Core_0_DTLB_prefetch_MPKI 0
Core_0_DTLB_prefetch_miss_rate 0
Core_0_DTLB_writeback_access 0
Core_0_DTLB_writeback_hit 0
Core_0_DTLB_writeback_miss 0
Core_0_DTLB_writeback_MPKI 0
Core_0_DTLB_writeback_miss_rate 0
Core_0_DTLB_prefetch_requested 0
Core_0_DTLB_prefetch_issued 0
Core_0_DTLB_prefetch_useful 0
Core_0_DTLB_prefetch_useless 0
Core_0_DTLB_prefetch_late 0
Core_0_DTLB_prefetch_fill 0
Core_0_DTLB_prefetch_too_early 0
Core_0_DTLB_prefetch_too_early_among_fill 0
Core_0_DTLB_prefetch_too_early_among_useless 0
Core_0_DTLB_prefetch_pollution_evict 0
Core_0_DTLB_prefetch_pollution_demand 0
Core_0_DTLB_prefetch_pollution_among_prefetch_fill 0
Core_0_DTLB_prefetch_accuracy 0
Core_0_DTLB_prefetch_coverage 0

Core_0_STLB_total_access 4416481
Core_0_STLB_total_hit 107382
Core_0_STLB_total_miss 4309099
Core_0_STLB_total_MPKI 43.091
Core_0_STLB_total_miss_rate 0.975686
Core_0_STLB_demand_access 4416481
Core_0_STLB_demand_hit 107382
Core_0_STLB_demand_miss 4309099
Core_0_STLB_demand_MPKI 43.091
Core_0_STLB_demand_miss_rate 0.975686
Core_0_STLB_load_access 4416481
Core_0_STLB_load_hit 107382
Core_0_STLB_load_miss 4309099
Core_0_STLB_load_MPKI 43.091
Core_0_STLB_load_miss_rate 0.975686
Core_0_STLB_rfo_access 0
Core_0_STLB_rfo_hit 0
Core_0_STLB_rfo_miss 0
Core_0_STLB_rfo_MPKI 0
Core_0_STLB_rfo_miss_rate 0
Core_0_STLB_prefetch_access 0
Core_0_STLB_prefetch_hit 0
Core_0_STLB_prefetch_miss 0
Core_0_STLB_prefetch_MPKI 0
Core_0_STLB_prefetch_miss_rate 0
Core_0_STLB_writeback_access 0
Core_0_STLB_writeback_hit 0
Core_0_STLB_writeback_miss 0
Core_0_STLB_writeback_MPKI 0
Core_0_STLB_writeback_miss_rate 0
Core_0_STLB_prefetch_requested 0
Core_0_STLB_prefetch_issued 0
Core_0_STLB_prefetch_useful 0
Core_0_STLB_prefetch_useless 0
Core_0_STLB_prefetch_late 0
Core_0_STLB_prefetch_fill 0
Core_0_STLB_prefetch_too_early 0
Core_0_STLB_prefetch_too_early_among_fill 0
Core_0_STLB_prefetch_too_early_among_useless 0
Core_0_STLB_prefetch_pollution_evict 0
Core_0_STLB_prefetch_pollution_demand 0
Core_0_STLB_prefetch_pollution_among_prefetch_fill 0
Core_0_STLB_prefetch_accuracy 0
Core_0_STLB_prefetch_coverage 0

Core_0_L1I_total_access 14280081
Core_0_L1I_total_hit 14280081
Core_0_L1I_total_miss 0
Core_0_L1I_total_MPKI 0
Core_0_L1I_total_miss_rate 0
Core_0_L1I_demand_access 14280081
Core_0_L1I_demand_hit 14280081
Core_0_L1I_demand_miss 0
Core_0_L1I_demand_MPKI 0
Core_0_L1I_demand_miss_rate 0
Core_0_L1I_load_access 14280081
Core_0_L1I_load_hit 14280081
Core_0_L1I_load_miss 0
Core_0_L1I_load_MPKI 0
Core_0_L1I_load_miss_rate 0
Core_0_L1I_rfo_access 0
Core_0_L1I_rfo_hit 0
Core_0_L1I_rfo_miss 0
Core_0_L1I_rfo_MPKI 0
Core_0_L1I_rfo_miss_rate 0
Core_0_L1I_prefetch_access 0
Core_0_L1I_prefetch_hit 0
Core_0_L1I_prefetch_miss 0
Core_0_L1I_prefetch_MPKI 0
Core_0_L1I_prefetch_miss_rate 0
Core_0_L1I_writeback_access 0
Core_0_L1I_writeback_hit 0
Core_0_L1I_writeback_miss 0
Core_0_L1I_writeback_MPKI 0
Core_0_L1I_writeback_miss_rate 0
Core_0_L1I_prefetch_requested 0
Core_0_L1I_prefetch_issued 0
Core_0_L1I_prefetch_useful 0
Core_0_L1I_prefetch_useless 0
Core_0_L1I_prefetch_late 0
Core_0_L1I_prefetch_fill 0
Core_0_L1I_prefetch_too_early 0
Core_0_L1I_prefetch_too_early_among_fill 0
Core_0_L1I_prefetch_too_early_among_useless 0
Core_0_L1I_prefetch_pollution_evict 0
Core_0_L1I_prefetch_pollution_demand 0
Core_0_L1I_prefetch_pollution_among_prefetch_fill 0
Core_0_L1I_prefetch_accuracy 0
Core_0_L1I_prefetch_coverage 0

Core_0_L1D_total_access 145731596
Core_0_L1D_total_hit 135604472
Core_0_L1D_total_miss 10127124
Core_0_L1D_total_MPKI 101.271
Core_0_L1D_total_miss_rate 0.0694916
Core_0_L1D_demand_access 34059225
Core_0_L1D_demand_hit 29038805
Core_0_L1D_demand_miss 5020420
Core_0_L1D_demand_MPKI 50.2042
Core_0_L1D_demand_miss_rate 0.147403
Core_0_L1D_load_access 34059225
Core_0_L1D_load_hit 29038805
Core_0_L1D_load_miss 5020420
Core_0_L1D_load_MPKI 50.2042
Core_0_L1D_load_miss_rate 0.147403
Core_0_L1D_rfo_access 0
Core_0_L1D_rfo_hit 0
Core_0_L1D_rfo_miss 0
Core_0_L1D_rfo_MPKI 0
Core_0_L1D_rfo_miss_rate 0
Core_0_L1D_prefetch_access 90945693
Core_0_L1D_prefetch_hit 85847889
Core_0_L1D_prefetch_miss 5097804
Core_0_L1D_prefetch_MPKI 50.978
Core_0_L1D_prefetch_miss_rate 0.0560533
Core_0_L1D_writeback_access 20726678
Core_0_L1D_writeback_hit 20717778
Core_0_L1D_writeback_miss 8900
Core_0_L1D_writeback_MPKI 0.089
Core_0_L1D_writeback_miss_rate 0.000429398
Core_0_L1D_prefetch_requested 224413632
Core_0_L1D_prefetch_issued 90945693
Core_0_L1D_prefetch_useful 754049
Core_0_L1D_prefetch_useless 74539
Core_0_L1D_prefetch_late 519
Core_0_L1D_prefetch_fill 828078
Core_0_L1D_prefetch_too_early 170
Core_0_L1D_prefetch_too_early_among_fill 0.000205295
Core_0_L1D_prefetch_too_early_among_useless 0.00228069
Core_0_L1D_prefetch_pollution_evict 139
Core_0_L1D_prefetch_pollution_demand 132
Core_0_L1D_prefetch_pollution_among_prefetch_fill 0.000167859
Core_0_L1D_prefetch_accuracy 0.0082912
Core_0_L1D_prefetch_coverage 0.130583

Core_0_L2C_total_access 13918802
Core_0_L2C_total_hit 7695902
Core_0_L2C_total_miss 6222900
Core_0_L2C_total_MPKI 62.229
Core_0_L2C_total_miss_rate 0.447086
Core_0_L2C_demand_access 4503176
Core_0_L2C_demand_hit 127798
Core_0_L2C_demand_miss 4375378
Core_0_L2C_demand_MPKI 43.7538
Core_0_L2C_demand_miss_rate 0.97162
Core_0_L2C_load_access 4502544
Core_0_L2C_load_hit 127588
Core_0_L2C_load_miss 4374956
Core_0_L2C_load_MPKI 43.7496
Core_0_L2C_load_miss_rate 0.971663
Core_0_L2C_rfo_access 632
Core_0_L2C_rfo_hit 210
Core_0_L2C_rfo_miss 422
Core_0_L2C_rfo_MPKI 0.00422
Core_0_L2C_rfo_miss_rate 0.667722
Core_0_L2C_prefetch_access 5529056
Core_0_L2C_prefetch_hit 3681745
Core_0_L2C_prefetch_miss 1847311
Core_0_L2C_prefetch_MPKI 18.4731
Core_0_L2C_prefetch_miss_rate 0.33411
Core_0_L2C_writeback_access 3886570
Core_0_L2C_writeback_hit 3886359
Core_0_L2C_writeback_miss 211
Core_0_L2C_writeback_MPKI 0.00211
Core_0_L2C_writeback_miss_rate 5.42895e-05
Core_0_L2C_prefetch_requested 784542
Core_0_L2C_prefetch_issued 774684
Core_0_L2C_prefetch_useful 325857
Core_0_L2C_prefetch_useless 117029
Core_0_L2C_prefetch_late 0
Core_0_L2C_prefetch_fill 1089481
Core_0_L2C_prefetch_too_early 7
Core_0_L2C_prefetch_too_early_among_fill 6.42508e-06
Core_0_L2C_prefetch_too_early_among_useless 5.98142e-05
Core_0_L2C_prefetch_pollution_evict 1866
Core_0_L2C_prefetch_pollution_demand 1866
Core_0_L2C_prefetch_pollution_among_prefetch_fill 0.00171274
Core_0_L2C_prefetch_accuracy 0.420632
Core_0_L2C_prefetch_coverage 0.0693131

Core_0_LLC_total_access 9351097
Core_0_LLC_total_hit 3758004
Core_0_LLC_total_miss 5593093
Core_0_LLC_total_MPKI 55.9309
Core_0_LLC_total_miss_rate 0.598122
Core_0_LLC_demand_access 4375292
Core_0_LLC_demand_hit 6750
Core_0_LLC_demand_miss 4368542
Core_0_LLC_demand_MPKI 43.6854
Core_0_LLC_demand_miss_rate 0.998457
Core_0_LLC_load_access 4374870
Core_0_LLC_load_hit 6604
Core_0_LLC_load_miss 4368266
Core_0_LLC_load_MPKI 43.6827
Core_0_LLC_load_miss_rate 0.99849
Core_0_LLC_rfo_access 422
Core_0_LLC_rfo_hit 146
Core_0_LLC_rfo_miss 276
Core_0_LLC_rfo_MPKI 0.00276
Core_0_LLC_rfo_miss_rate 0.654028
Core_0_LLC_prefetch_access 1090051
Core_0_LLC_prefetch_hit 314813
Core_0_LLC_prefetch_miss 775238
Core_0_LLC_prefetch_MPKI 7.75238
Core_0_LLC_prefetch_miss_rate 0.711194
Core_0_LLC_writeback_access 3885754
Core_0_LLC_writeback_hit 3436441
Core_0_LLC_writeback_miss 449313
Core_0_LLC_writeback_MPKI 4.49313
Core_0_LLC_writeback_miss_rate 0.115631
Core_0_LLC_prefetch_requested 0
Core_0_LLC_prefetch_issued 0
Core_0_LLC_prefetch_useful 0
Core_0_LLC_prefetch_useless 0
Core_0_LLC_prefetch_late 0
Core_0_LLC_prefetch_fill 774891
Core_0_LLC_prefetch_too_early 0
Core_0_LLC_prefetch_too_early_among_fill 0
Core_0_LLC_prefetch_too_early_among_useless 0
Core_0_LLC_prefetch_pollution_evict 9520
Core_0_LLC_prefetch_pollution_demand 9520
Core_0_LLC_prefetch_pollution_among_prefetch_fill 0.0122856
Core_0_LLC_prefetch_accuracy 0
Core_0_LLC_prefetch_coverage 0

[DRAM Statistics]
Channel_0_RQ_row_buffer_hit 5778
Channel_0_RQ_row_buffer_miss 6599944
Channel_0_WQ_row_buffer_hit 1013383
Channel_0_WQ_row_buffer_miss 2703645
Channel_0_WQ_full 0
Channel_0_dbus_congested 28940653
DRAM_total_RQ_row_buffer_hit 5778
DRAM_total_RQ_row_buffer_miss 6599944
DRAM_total_WQ_row_buffer_hit 1013383
DRAM_total_WQ_row_buffer_miss 2703645
DRAM_total_WQ_full 0
DRAM_total_dbus_congested 28940653
DRAM_avg_congested_cycle 7.63652

====== DRAM_RQ_TRAFFIC ========
DRAM_RQ_READ_TRAFFIC_BREAKDOWN:
data_demand_read.count = 4368542
data_demand_read.share = 66.13%

inst_demand_read.count = 0
inst_demand_read.share = 0.00%

cache_inst_prefetch.count = 0
cache_inst_prefetch.share = 0.00%

cache_data_prefetch.count = 774891
cache_data_prefetch.share = 11.73%

stlb_data_demand.count = 1460650
stlb_data_demand.share = 22.11%

stlb_inst_demand.count = 0
stlb_inst_demand.share = 0.00%

stlb_l1i_pref.count = 0
stlb_l1i_pref.share = 0.00%

stlb_l1d_pref.count = 1714
stlb_l1d_pref.share = 0.03%

DRAM_RQ_READ_TRAFFIC_SUMMARY:
cache_demand.count = 4368542
cache_demand.share = 66.13%

cache_prefetch.count = 774891
cache_prefetch.share = 11.73%

stlb_demand.count = 1460650
stlb_demand.share = 22.11%

stlb_prefetch.count = 1714
stlb_prefetch.share = 0.03%

DRAM_RQ_READ_TRAFFIC_DEBUG:
total_classified_read.count = 6605797
unclassified_read.count = 0
total_read_with_other.count = 6605797

classified_plus_unclassified_check.count = 6605797
dram_rq_read_total_observed.count = 6605797
dram_rq_read_total_observed.per_1K_instructions = 66.058

STLB_MISS_PTW_DRAM_TOUCH_BREAKDOWN:
stlb_miss_total.count = 4307751

stlb_miss_touch_dram.count = 1384050
stlb_miss_touch_dram.share = 32.13%

stlb_miss_no_dram_touch.count = 2923701
stlb_miss_no_dram_touch.share = 67.87%

STLB_MISS_PTW_DRAM_TOUCH_DEBUG:
stlb_miss_touch_plus_no_touch.count = 4307751
stlb_miss_total_check.count = 4307751

======STLB miss causes ========
Core_0_STLB_miss_cause_breakdown
Core_0_STLB_cause_Demand_Data_miss 4286816
Core_0_STLB_cause_Demand_Data_miss_rate 0.970641
Core_0_STLB_cause_Demand_Instruction_miss 0
Core_0_STLB_cause_Demand_Instruction_miss_rate 0
Core_0_STLB_cause_L1D_Prefetch_miss 22283
Core_0_STLB_cause_L1D_Prefetch_miss_rate 0.00504542
Core_0_STLB_cause_L1D_Prefetch_Same_Page_miss 0
Core_0_STLB_cause_L1D_Prefetch_Same_Page_miss_rate 0
Core_0_STLB_cause_L1D_Prefetch_Cross_Page_miss 22283
Core_0_STLB_cause_L1D_Prefetch_Cross_Page_miss_rate 0.00504542
Core_0_STLB_cause_L1I_Prefetch_miss 0
Core_0_STLB_cause_L1I_Prefetch_miss_rate 0
Core_0_STLB_cause_Other_miss 0
Core_0_STLB_cause_Other_miss_rate 0
Core_0_STLB_Demand_miss 4286816
Core_0_STLB_Demand_miss_rate 0.970641
Core_0_STLB_L1D_Prefetch_miss 22283
Core_0_STLB_L1D_Prefetch_miss_rate 0.00504542
Core_0_STLB_Other_miss 0
Core_0_STLB_Other_miss_rate 0

========== vBerti-TLB Cross-page Flow Stats ==========

Core_0_vBerti_Requested 224413632
Core_0_vBerti_Cross_page_prefetch_in_Requested 14957897
Core_0_vBerti_Same_page_prefetch_in_Requested 209455735
Core_0_vBerti_Cross_page_prefetch_of_Requested 0.0666532
Core_0_vBerti_Issued 90945693
Core_0_vBerti_InPQ_Same_page_prefetch 86655210
Core_0_vBerti_InPQ_Cross_page_prefetch 4290483
Core_0_vBerti_PQ_Drop_Rate 0.594741
Core_0_vBerti_InPQ_Cross_page_prefetch_of_Requested 0.0191186
Core_0_vBerti_Cross_page_PQ_Drop_rate 0.713163
Core_0_vBerti_Cross_page_prefetch_of_Issued 0.0471763
Core_0_CP_PF_PQFULL_drop 10667414
Core_0_CP_PF_PQFULL_TLB_rescue_enqueued 10666027
Core_0_CP_PF_PQFULL_TLB_rescue_issued 10666024
Core_0_CP_PF_PQFULL_TLB_rescue_translated 10666022

========= DTLB_vBerti Prefetch Stats =========
Core_0_DTLB_demand_access 50968822
Core_0_DTLB_demand_hit 46120091
Core_0_DTLB_demand_miss 4848731
Core_0_DTLB_demand_mshr_merge 454580
Core_0_DTLB_demand_fill 4394169
Core_0_DTLB_demand_miss_rate 0.0951313
Core_0_DTLB_demand_mpki 48.4873
Core_0_DTLB_vberti_prefetch_access 61242008
Core_0_DTLB_vberti_prefetch_hit 61060689
Core_0_DTLB_vberti_prefetch_miss 181319
Core_0_DTLB_vberti_prefetch_mshr_merge 158989
Core_0_DTLB_vberti_prefetch_fill 22320
Core_0_DTLB_vberti_prefetch_miss_rate 0.0029607
Core_0_DTLB_vberti_prefetch_mpki 1.81319

=== DTLB_vBerti Same/Cross-page Prefetch Stats ===
Core_0_DTLB_vberti_same_page_prefetch 53325103
Core_0_DTLB_vberti_same_page_prefetch_hit 53325097
Core_0_DTLB_vberti_same_page_prefetch_miss 6
Core_0_DTLB_vberti_same_page_prefetch_mshr_merge 2
Core_0_DTLB_vberti_same_page_prefetch_fill 4
Core_0_DTLB_vberti_same_page_prefetch_miss_rate 1.12517e-07
Core_0_DTLB_vberti_same_page_prefetch_mpki 6e-05
Core_0_DTLB_vberti_cross_page_prefetch 7916905
Core_0_DTLB_vberti_cross_page_prefetch_hit 7735592
Core_0_DTLB_vberti_cross_page_prefetch_miss 181313
Core_0_DTLB_vberti_cross_page_prefetch_mshr_merge 158987
Core_0_DTLB_vberti_cross_page_prefetch_fill 22316
Core_0_DTLB_vberti_cross_page_prefetch_miss_rate 0.022902
Core_0_DTLB_vberti_cross_page_prefetch_mpki 1.81313
Core_0_DTLB_same_page_prefetch_miss_rate 1.12517e-07
Core_0_DTLB_same_page_prefetch_mpki 6e-05
Core_0_DTLB_cross_page_prefetch_miss_rate 0.022902
Core_0_DTLB_cross_page_prefetch_mpki 1.81313
Core_0_DTLB_cross_page_prefetch_issued 7916905
Core_0_DTLB_cross_page_prefetch_lookups 7916905
Core_0_DTLB_cross_page_prefetch_useful 13494
Core_0_DTLB_cross_page_prefetch_useless 8832
Core_0_DTLB_cross_page_prefetch_late 10
Core_0_DTLB_cross_page_prefetch_too_early 33
Core_0_DTLB_cross_page_prefetch_too_early_among_fill 0.00147876
Core_0_DTLB_cross_page_prefetch_too_early_among_useless 0.00373641
Core_0_DTLB_cross_page_prefetch_pollution_evict 2324
Core_0_DTLB_cross_page_prefetch_pollution_demand 2323
Core_0_DTLB_cross_page_prefetch_pollution_among_prefetch_fill 0.104141
Core_0_DTLB_cross_page_prefetch_accuracy 0.00170445
Core_0_DTLB_cross_page_prefetch_coverage 0.00277527

========= STLB_vBerti Prefetch Stats =========
Core_0_STLB_demand_access 4394151
Core_0_STLB_demand_hit 107335
Core_0_STLB_demand_miss 4286816
Core_0_STLB_demand_mshr_merge 0
Core_0_STLB_demand_fill 4286824
Core_0_STLB_demand_miss_rate 0.975573
Core_0_STLB_demand_mpki 42.8682
Core_0_STLB_vberti_prefetch_access 22330
Core_0_STLB_vberti_prefetch_hit 47
Core_0_STLB_vberti_prefetch_miss 22283
Core_0_STLB_vberti_prefetch_mshr_merge 0
Core_0_STLB_vberti_prefetch_fill 0
Core_0_STLB_vberti_prefetch_miss_rate 0.997895
Core_0_STLB_vberti_prefetch_mpki 0.22283

=== STLB_vBerti Same/Cross-page Prefetch Stats ===
Core_0_STLB_vberti_same_page_prefetch 4
Core_0_STLB_vberti_same_page_prefetch_hit 4
Core_0_STLB_vberti_same_page_prefetch_miss 0
Core_0_STLB_vberti_same_page_prefetch_mshr_merge 0
Core_0_STLB_vberti_same_page_prefetch_fill 0
Core_0_STLB_vberti_same_page_prefetch_miss_rate 0
Core_0_STLB_vberti_same_page_prefetch_mpki 0
Core_0_STLB_vberti_cross_page_prefetch 22326
Core_0_STLB_vberti_cross_page_prefetch_hit 43
Core_0_STLB_vberti_cross_page_prefetch_miss 22283
Core_0_STLB_vberti_cross_page_prefetch_mshr_merge 0
Core_0_STLB_vberti_cross_page_prefetch_fill 0
Core_0_STLB_vberti_cross_page_prefetch_miss_rate 0.998074
Core_0_STLB_vberti_cross_page_prefetch_mpki 0.22283
Core_0_STLB_same_page_prefetch_miss_rate 0
Core_0_STLB_same_page_prefetch_mpki 0
Core_0_STLB_cross_page_prefetch_miss_rate 0.998074
Core_0_STLB_cross_page_prefetch_mpki 0.22283
Core_0_STLB_cross_page_prefetch_issued 22326
Core_0_STLB_cross_page_prefetch_lookups 22326
Core_0_STLB_cross_page_prefetch_useful 1348
Core_0_STLB_cross_page_prefetch_useless 9321
Core_0_STLB_cross_page_prefetch_late 1348
Core_0_STLB_cross_page_prefetch_too_early 0
Core_0_STLB_cross_page_prefetch_too_early_among_fill 0
Core_0_STLB_cross_page_prefetch_too_early_among_useless 0
Core_0_STLB_cross_page_prefetch_pollution_evict 0
Core_0_STLB_cross_page_prefetch_pollution_demand 0
Core_0_STLB_cross_page_prefetch_pollution_among_prefetch_fill 0
Core_0_STLB_cross_page_prefetch_accuracy 0.060378
Core_0_STLB_cross_page_prefetch_coverage 0.000314354

========= STLB Cross-page Prefetch Buffer Stats =========
Core_0_STLB_raw_demand_miss 4286816
Core_0_CP_PB_insert 22283
Core_0_CP_PB_demand_hit 1348
Core_0_STLB_PB_demand_miss 4285468
Core_0_CP_PB_coverage 0.000314452
Core_0_STLB_raw_demand_mpki 42.8682
Core_0_STLB_PB_demand_mpki 42.8547
Core_0_CP_PB_demand_hit_mpki 0.01348

Core_0_TLB_demand_miss_rate 0.0841066
Core_0_TLB_demand_mpki 42.8682
Core_0_TLB_same_page_prefetch_miss_rate 0
Core_0_TLB_same_page_prefetch_mpki 0
Core_0_TLB_cross_page_prefetch_miss_rate 0.00281461
Core_0_TLB_cross_page_prefetch_mpki 0.22283
Core_0_TLB_cross_page_prefetch_issued 7916905
Core_0_TLB_cross_page_prefetch_lookups 7916905
Core_0_TLB_cross_page_prefetch_useful 6973
Core_0_TLB_cross_page_prefetch_useless 8786
Core_0_TLB_cross_page_prefetch_late 8
Core_0_TLB_cross_page_prefetch_too_early 30
Core_0_TLB_cross_page_prefetch_too_early_among_fill 0.00134433
Core_0_TLB_cross_page_prefetch_too_early_among_useless 0.00341452
Core_0_TLB_cross_page_prefetch_accuracy 0.000880773
Core_0_TLB_cross_page_prefetch_coverage 0.00162397
BERTI TO_L1: 309730413 TO_L2: 11098123 TO_L2_BC_MSHR: 15461
BERTI AVG_LAT: 148.681 NUM_TRACK_LATENCY: 7916727 NUM_CANT_TRACK_LATENCY: 1097
BERTI CROSS_PAGE 20931365 NO_CROSS_PAGE: 299897171
BERTI FOUND_BERTI: 66405805 NO_FOUND_BERTI: 9165341
BERTI AVERAGE_ISSUED: 2.66127
