[VMEM] WARNING: physical memory size is smaller than virtual memory size.

*** ChampSim Multicore Out-of-Order Simulator ***
Warmup Instructions: 50000000
Simulation Instructions: 100000000
Number of CPUs: 1
Page size: 4096
Core 0: /data2/zcq/champsim_traces_gap/bfs.twitter-10B.champsimtrace.xz
VBerti Prefetcher
BERTI HASH ENTANGLING
BERTI IP MASK ffff
Off-chip DRAM Size: 16 GiB Channels: 1 Width: 64-bit Data Rate: 3205 MT/s
Warmup halting CPU 0 at instruction 50000005 cycle 17707283 for remainder of phase
Warmup finished CPU 0 instructions: 50000005 cycles: 17707283 cumulative IPC: 2.824 (Simulation time: 00 hr 03 min 50 sec)
Warmup complete CPU 0 instructions: 50000005 cycles: 17707283 cumulative IPC: 2.824 (Simulation time: 00 hr 03 min 50 sec)
Simulation finished CPU 0 instructions: 100000004 cycles: 273274177 cumulative IPC: 0.3659 (Simulation time: 00 hr 25 min 08 sec)
Simulation complete CPU 0 instructions: 100000004 cycles: 273274177 cumulative IPC: 0.3659 (Simulation time: 00 hr 25 min 08 sec)

ChampSim completed all CPUs

=== Simulation ===
CPU 0 runs /data2/zcq/champsim_traces_gap/bfs.twitter-10B.champsimtrace.xz

Region of Interest Statistics

CPU 0 cumulative IPC: 0.3659 instructions: 100000004 cycles: 273274177
CPU 0 Branch Prediction Accuracy: 87.43% MPKI: 27.17 Average ROB Occupancy at Mispredict: 19.18
Branch type MPKI
BRANCH_DIRECT_JUMP: 0
BRANCH_INDIRECT: 0
BRANCH_CONDITIONAL: 27.17
BRANCH_DIRECT_CALL: 0
BRANCH_INDIRECT_CALL: 0
BRANCH_RETURN: 0

cpu0->cpu0_STLB TOTAL        ACCESS:     473360 HIT:     202732 MISS:     270628 MSHR_MERGE:          0
cpu0->cpu0_STLB LOAD         ACCESS:     473360 HIT:     202732 MISS:     270628 MSHR_MERGE:          0
cpu0->cpu0_STLB RFO          ACCESS:          0 HIT:          0 MISS:          0 MSHR_MERGE:          0
cpu0->cpu0_STLB PREFETCH     ACCESS:          0 HIT:          0 MISS:          0 MSHR_MERGE:          0
cpu0->cpu0_STLB WRITE        ACCESS:          0 HIT:          0 MISS:          0 MSHR_MERGE:          0
cpu0->cpu0_STLB TRANSLATION  ACCESS:          0 HIT:          0 MISS:          0 MSHR_MERGE:          0
cpu0->cpu0_STLB PREFETCH REQUESTED:          0 ISSUED:          0 USEFUL:          0 USELESS:          0 LATE:          0 TOO_EARLY:          0
cpu0->cpu0_STLB AVERAGE MISS LATENCY: 196.2 cycles
cpu0->cpu0_L2C TOTAL        ACCESS:    4968673 HIT:    1484217 MISS:    3484456 MSHR_MERGE:    1096879
cpu0->cpu0_L2C LOAD         ACCESS:     567829 HIT:      47197 MISS:     520632 MSHR_MERGE:        154
cpu0->cpu0_L2C RFO          ACCESS:       2857 HIT:       2857 MISS:          0 MSHR_MERGE:          0
cpu0->cpu0_L2C PREFETCH     ACCESS:    4132893 HIT:    1237267 MISS:    2895626 MSHR_MERGE:    1096725
cpu0->cpu0_L2C WRITE        ACCESS:     144426 HIT:     144385 MISS:         41 MSHR_MERGE:          0
cpu0->cpu0_L2C TRANSLATION  ACCESS:     120668 HIT:      52511 MISS:      68157 MSHR_MERGE:          0
cpu0->cpu0_L2C PREFETCH REQUESTED:    1948337 ISSUED:    1948337 USEFUL:     735818 USELESS:     318205 LATE:         65 TOO_EARLY:         65
cpu0->cpu0_L2C AVERAGE MISS LATENCY: 195.8 cycles
cpu0->cpu0_L1I TOTAL        ACCESS:        109 HIT:        109 MISS:          0 MSHR_MERGE:          0
cpu0->cpu0_L1I LOAD         ACCESS:        109 HIT:        109 MISS:          0 MSHR_MERGE:          0
cpu0->cpu0_L1I RFO          ACCESS:          0 HIT:          0 MISS:          0 MSHR_MERGE:          0
cpu0->cpu0_L1I PREFETCH     ACCESS:          0 HIT:          0 MISS:          0 MSHR_MERGE:          0
cpu0->cpu0_L1I WRITE        ACCESS:          0 HIT:          0 MISS:          0 MSHR_MERGE:          0
cpu0->cpu0_L1I TRANSLATION  ACCESS:          0 HIT:          0 MISS:          0 MSHR_MERGE:          0
cpu0->cpu0_L1I PREFETCH REQUESTED:          0 ISSUED:          0 USEFUL:          0 USELESS:          0 LATE:          0 TOO_EARLY:          0
cpu0->cpu0_L1I AVERAGE MISS LATENCY: - cycles
cpu0->cpu0_L1D TOTAL        ACCESS:   53544663 HIT:   50653140 MISS:    2891523 MSHR_MERGE:      15408
cpu0->cpu0_L1D LOAD         ACCESS:   15442916 HIT:   14867084 MISS:     575832 MSHR_MERGE:       8003
cpu0->cpu0_L1D RFO          ACCESS:          0 HIT:          0 MISS:          0 MSHR_MERGE:          0
cpu0->cpu0_L1D PREFETCH     ACCESS:   37110475 HIT:   34921218 MISS:    2189257 MSHR_MERGE:       4496
cpu0->cpu0_L1D WRITE        ACCESS:     449656 HIT:     443942 MISS:       5714 MSHR_MERGE:       2857
cpu0->cpu0_L1D TRANSLATION  ACCESS:     541616 HIT:     420896 MISS:     120720 MSHR_MERGE:         52
cpu0->cpu0_L1D PREFETCH REQUESTED:  164202175 ISSUED:   37110467 USEFUL:    1668287 USELESS:     101860 LATE:       4016 TOO_EARLY:          1
cpu0->cpu0_L1D AVERAGE MISS LATENCY: 175.1 cycles
cpu0->cpu0_ITLB TOTAL        ACCESS:        108 HIT:        108 MISS:          0 MSHR_MERGE:          0
cpu0->cpu0_ITLB LOAD         ACCESS:        108 HIT:        108 MISS:          0 MSHR_MERGE:          0
cpu0->cpu0_ITLB RFO          ACCESS:          0 HIT:          0 MISS:          0 MSHR_MERGE:          0
cpu0->cpu0_ITLB PREFETCH     ACCESS:          0 HIT:          0 MISS:          0 MSHR_MERGE:          0
cpu0->cpu0_ITLB WRITE        ACCESS:          0 HIT:          0 MISS:          0 MSHR_MERGE:          0
cpu0->cpu0_ITLB TRANSLATION  ACCESS:          0 HIT:          0 MISS:          0 MSHR_MERGE:          0
cpu0->cpu0_ITLB PREFETCH REQUESTED:          0 ISSUED:          0 USEFUL:          0 USELESS:          0 LATE:          0 TOO_EARLY:          0
cpu0->cpu0_ITLB AVERAGE MISS LATENCY: - cycles
cpu0->cpu0_DTLB TOTAL        ACCESS:   45215957 HIT:   44513838 MISS:     702119 MSHR_MERGE:     228759
cpu0->cpu0_DTLB LOAD         ACCESS:   45215957 HIT:   44513838 MISS:     702119 MSHR_MERGE:     228759
cpu0->cpu0_DTLB RFO          ACCESS:          0 HIT:          0 MISS:          0 MSHR_MERGE:          0
cpu0->cpu0_DTLB PREFETCH     ACCESS:          0 HIT:          0 MISS:          0 MSHR_MERGE:          0
cpu0->cpu0_DTLB WRITE        ACCESS:          0 HIT:          0 MISS:          0 MSHR_MERGE:          0
cpu0->cpu0_DTLB TRANSLATION  ACCESS:          0 HIT:          0 MISS:          0 MSHR_MERGE:          0
cpu0->cpu0_DTLB PREFETCH REQUESTED:          0 ISSUED:          0 USEFUL:          0 USELESS:          0 LATE:          0 TOO_EARLY:          0
cpu0->cpu0_DTLB AVERAGE MISS LATENCY: 117.7 cycles
cpu0->LLC TOTAL        ACCESS:    2529249 HIT:     201244 MISS:    2328005 MSHR_MERGE:       7888
cpu0->LLC LOAD         ACCESS:     520478 HIT:      45127 MISS:     475351 MSHR_MERGE:          5
cpu0->LLC RFO          ACCESS:          0 HIT:          0 MISS:          0 MSHR_MERGE:          0
cpu0->LLC PREFETCH     ACCESS:    1798900 HIT:       8821 MISS:    1790079 MSHR_MERGE:       7883
cpu0->LLC WRITE        ACCESS:     141714 HIT:     124677 MISS:      17037 MSHR_MERGE:          0
cpu0->LLC TRANSLATION  ACCESS:      68157 HIT:      22619 MISS:      45538 MSHR_MERGE:          0
cpu0->LLC PREFETCH REQUESTED:          0 ISSUED:          0 USEFUL:          0 USELESS:          0 LATE:          0 TOO_EARLY:          0
cpu0->LLC AVERAGE MISS LATENCY: 197.2 cycles

DRAM Statistics

Channel 0 RQ ROW_BUFFER_HIT:      73527
  ROW_BUFFER_MISS:    2229553
  AVG DBUS CONGESTED CYCLE: 10.32
Channel 0 WQ ROW_BUFFER_HIT:      44145
  ROW_BUFFER_MISS:      97938
  FULL:          0
Channel 0 REFRESHES ISSUED:      22773

[ROI Statistics]
[System Configuration]
num_cpus 1
cpu_freq 4000
fetch_width 6
decode_width 6
dispatch_width 6
execute_width 6
lq_width 2
sq_width 2
retire_width 6
scheduler_size 128
branch_mispredict_penalty 15
rob_size 352
lq_size 128
sq_size 72
ifetch_buffer_size 64
decode_buffer_size 32
dispatch_buffer_size 32
register_file_size 288
decode_latency 1
dispatch_latency 1
schedule_latency 1
execute_latency 1
page_size 4096
block_size 64
core_0_itlb_set 16
core_0_itlb_way 4
core_0_itlb_rq_size 16
core_0_itlb_wq_size 16
core_0_itlb_pq_size 0
core_0_itlb_mshr_size 8
core_0_itlb_hit_latency 1
core_0_itlb_fill_latency 1
core_0_itlb_max_tag_check 2
core_0_itlb_max_fill 2
core_0_dtlb_set 16
core_0_dtlb_way 4
core_0_dtlb_rq_size 16
core_0_dtlb_wq_size 16
core_0_dtlb_pq_size 0
core_0_dtlb_mshr_size 8
core_0_dtlb_hit_latency 1
core_0_dtlb_fill_latency 1
core_0_dtlb_max_tag_check 2
core_0_dtlb_max_fill 2
core_0_stlb_set 128
core_0_stlb_way 12
core_0_stlb_rq_size 32
core_0_stlb_wq_size 32
core_0_stlb_pq_size 0
core_0_stlb_mshr_size 16
core_0_stlb_hit_latency 4
core_0_stlb_fill_latency 4
core_0_stlb_max_tag_check 1
core_0_stlb_max_fill 1
core_0_l1i_set 64
core_0_l1i_way 8
core_0_l1i_rq_size 64
core_0_l1i_wq_size 64
core_0_l1i_pq_size 32
core_0_l1i_mshr_size 8
core_0_l1i_hit_latency 2
core_0_l1i_fill_latency 2
core_0_l1i_max_tag_check 2
core_0_l1i_max_fill 2
core_0_l1d_set 64
core_0_l1d_way 12
core_0_l1d_rq_size 64
core_0_l1d_wq_size 64
core_0_l1d_pq_size 8
core_0_l1d_mshr_size 16
core_0_l1d_hit_latency 2
core_0_l1d_fill_latency 3
core_0_l1d_max_tag_check 2
core_0_l1d_max_fill 2
core_0_l2c_set 1024
core_0_l2c_way 8
core_0_l2c_rq_size 32
core_0_l2c_wq_size 32
core_0_l2c_pq_size 16
core_0_l2c_mshr_size 32
core_0_l2c_hit_latency 5
core_0_l2c_fill_latency 5
core_0_l2c_max_tag_check 1
core_0_l2c_max_fill 1
llc_set 2048
llc_way 16
llc_rq_size 32
llc_wq_size 32
llc_pq_size 32
llc_mshr_size 64
llc_hit_latency 10
llc_fill_latency 10
llc_max_tag_check 1
llc_max_fill 1
dram_channels 1
dram_ranks 1
dram_bankgroups 8
dram_banks 4
dram_rows 65536
dram_columns 1024
dram_channel_width 8
dram_rq_size 64
dram_wq_size 64
dram_size 17179869184
core_0_itlb_prefetcher no
core_0_dtlb_prefetcher no
core_0_stlb_prefetcher no
core_0_l1i_prefetcher next_line
core_0_l1d_prefetcher vberti
core_0_l2c_prefetcher ip_stride
llc_prefetcher no
llc_replacement drrip

Core_0_instructions 100000004
Core_0_cycles 273274177
Core_0_IPC 0.365933
Core_0_branch_prediction_accuracy 87.4312
Core_0_branch_MPKI 27.168
Core_0_average_ROB_occupancy_at_mispredict 19.1786

Core_0_ITLB_total_access 108
Core_0_ITLB_total_hit 108
Core_0_ITLB_total_miss 0
Core_0_ITLB_total_MPKI 0
Core_0_ITLB_total_miss_rate 0
Core_0_ITLB_demand_access 108
Core_0_ITLB_demand_hit 108
Core_0_ITLB_demand_miss 0
Core_0_ITLB_demand_MPKI 0
Core_0_ITLB_demand_miss_rate 0
Core_0_ITLB_load_access 108
Core_0_ITLB_load_hit 108
Core_0_ITLB_load_miss 0
Core_0_ITLB_load_MPKI 0
Core_0_ITLB_load_miss_rate 0
Core_0_ITLB_rfo_access 0
Core_0_ITLB_rfo_hit 0
Core_0_ITLB_rfo_miss 0
Core_0_ITLB_rfo_MPKI 0
Core_0_ITLB_rfo_miss_rate 0
Core_0_ITLB_prefetch_access 0
Core_0_ITLB_prefetch_hit 0
Core_0_ITLB_prefetch_miss 0
Core_0_ITLB_prefetch_MPKI 0
Core_0_ITLB_prefetch_miss_rate 0
Core_0_ITLB_writeback_access 0
Core_0_ITLB_writeback_hit 0
Core_0_ITLB_writeback_miss 0
Core_0_ITLB_writeback_MPKI 0
Core_0_ITLB_writeback_miss_rate 0
Core_0_ITLB_prefetch_requested 0
Core_0_ITLB_prefetch_issued 0
Core_0_ITLB_prefetch_useful 0
Core_0_ITLB_prefetch_useless 0
Core_0_ITLB_prefetch_late 0
Core_0_ITLB_prefetch_fill 0
Core_0_ITLB_prefetch_too_early 0
Core_0_ITLB_prefetch_too_early_among_fill 0
Core_0_ITLB_prefetch_too_early_among_useless 0
Core_0_ITLB_prefetch_pollution_evict 0
Core_0_ITLB_prefetch_pollution_demand 0
Core_0_ITLB_prefetch_pollution_among_prefetch_fill 0
Core_0_ITLB_prefetch_accuracy 0
Core_0_ITLB_prefetch_coverage 0

Core_0_DTLB_total_access 45215957
Core_0_DTLB_total_hit 44513838
Core_0_DTLB_total_miss 702119
Core_0_DTLB_total_MPKI 7.02119
Core_0_DTLB_total_miss_rate 0.0155281
Core_0_DTLB_demand_access 45215957
Core_0_DTLB_demand_hit 44513838
Core_0_DTLB_demand_miss 702119
Core_0_DTLB_demand_MPKI 7.02119
Core_0_DTLB_demand_miss_rate 0.0155281
Core_0_DTLB_load_access 45215957
Core_0_DTLB_load_hit 44513838
Core_0_DTLB_load_miss 702119
Core_0_DTLB_load_MPKI 7.02119
Core_0_DTLB_load_miss_rate 0.0155281
Core_0_DTLB_rfo_access 0
Core_0_DTLB_rfo_hit 0
Core_0_DTLB_rfo_miss 0
Core_0_DTLB_rfo_MPKI 0
Core_0_DTLB_rfo_miss_rate 0
Core_0_DTLB_prefetch_access 0
Core_0_DTLB_prefetch_hit 0
Core_0_DTLB_prefetch_miss 0
Core_0_DTLB_prefetch_MPKI 0
Core_0_DTLB_prefetch_miss_rate 0
Core_0_DTLB_writeback_access 0
Core_0_DTLB_writeback_hit 0
Core_0_DTLB_writeback_miss 0
Core_0_DTLB_writeback_MPKI 0
Core_0_DTLB_writeback_miss_rate 0
Core_0_DTLB_prefetch_requested 0
Core_0_DTLB_prefetch_issued 0
Core_0_DTLB_prefetch_useful 0
Core_0_DTLB_prefetch_useless 0
Core_0_DTLB_prefetch_late 0
Core_0_DTLB_prefetch_fill 0
Core_0_DTLB_prefetch_too_early 0
Core_0_DTLB_prefetch_too_early_among_fill 0
Core_0_DTLB_prefetch_too_early_among_useless 0
Core_0_DTLB_prefetch_pollution_evict 0
Core_0_DTLB_prefetch_pollution_demand 0
Core_0_DTLB_prefetch_pollution_among_prefetch_fill 0
Core_0_DTLB_prefetch_accuracy 0
Core_0_DTLB_prefetch_coverage 0

Core_0_STLB_total_access 473360
Core_0_STLB_total_hit 202732
Core_0_STLB_total_miss 270628
Core_0_STLB_total_MPKI 2.70628
Core_0_STLB_total_miss_rate 0.571717
Core_0_STLB_demand_access 473360
Core_0_STLB_demand_hit 202732
Core_0_STLB_demand_miss 270628
Core_0_STLB_demand_MPKI 2.70628
Core_0_STLB_demand_miss_rate 0.571717
Core_0_STLB_load_access 473360
Core_0_STLB_load_hit 202732
Core_0_STLB_load_miss 270628
Core_0_STLB_load_MPKI 2.70628
Core_0_STLB_load_miss_rate 0.571717
Core_0_STLB_rfo_access 0
Core_0_STLB_rfo_hit 0
Core_0_STLB_rfo_miss 0
Core_0_STLB_rfo_MPKI 0
Core_0_STLB_rfo_miss_rate 0
Core_0_STLB_prefetch_access 0
Core_0_STLB_prefetch_hit 0
Core_0_STLB_prefetch_miss 0
Core_0_STLB_prefetch_MPKI 0
Core_0_STLB_prefetch_miss_rate 0
Core_0_STLB_writeback_access 0
Core_0_STLB_writeback_hit 0
Core_0_STLB_writeback_miss 0
Core_0_STLB_writeback_MPKI 0
Core_0_STLB_writeback_miss_rate 0
Core_0_STLB_prefetch_requested 0
Core_0_STLB_prefetch_issued 0
Core_0_STLB_prefetch_useful 0
Core_0_STLB_prefetch_useless 0
Core_0_STLB_prefetch_late 0
Core_0_STLB_prefetch_fill 0
Core_0_STLB_prefetch_too_early 0
Core_0_STLB_prefetch_too_early_among_fill 0
Core_0_STLB_prefetch_too_early_among_useless 0
Core_0_STLB_prefetch_pollution_evict 0
Core_0_STLB_prefetch_pollution_demand 0
Core_0_STLB_prefetch_pollution_among_prefetch_fill 0
Core_0_STLB_prefetch_accuracy 0
Core_0_STLB_prefetch_coverage 0

Core_0_L1I_total_access 109
Core_0_L1I_total_hit 109
Core_0_L1I_total_miss 0
Core_0_L1I_total_MPKI 0
Core_0_L1I_total_miss_rate 0
Core_0_L1I_demand_access 109
Core_0_L1I_demand_hit 109
Core_0_L1I_demand_miss 0
Core_0_L1I_demand_MPKI 0
Core_0_L1I_demand_miss_rate 0
Core_0_L1I_load_access 109
Core_0_L1I_load_hit 109
Core_0_L1I_load_miss 0
Core_0_L1I_load_MPKI 0
Core_0_L1I_load_miss_rate 0
Core_0_L1I_rfo_access 0
Core_0_L1I_rfo_hit 0
Core_0_L1I_rfo_miss 0
Core_0_L1I_rfo_MPKI 0
Core_0_L1I_rfo_miss_rate 0
Core_0_L1I_prefetch_access 0
Core_0_L1I_prefetch_hit 0
Core_0_L1I_prefetch_miss 0
Core_0_L1I_prefetch_MPKI 0
Core_0_L1I_prefetch_miss_rate 0
Core_0_L1I_writeback_access 0
Core_0_L1I_writeback_hit 0
Core_0_L1I_writeback_miss 0
Core_0_L1I_writeback_MPKI 0
Core_0_L1I_writeback_miss_rate 0
Core_0_L1I_prefetch_requested 0
Core_0_L1I_prefetch_issued 0
Core_0_L1I_prefetch_useful 0
Core_0_L1I_prefetch_useless 0
Core_0_L1I_prefetch_late 0
Core_0_L1I_prefetch_fill 0
Core_0_L1I_prefetch_too_early 0
Core_0_L1I_prefetch_too_early_among_fill 0
Core_0_L1I_prefetch_too_early_among_useless 0
Core_0_L1I_prefetch_pollution_evict 0
Core_0_L1I_prefetch_pollution_demand 0
Core_0_L1I_prefetch_pollution_among_prefetch_fill 0
Core_0_L1I_prefetch_accuracy 0
Core_0_L1I_prefetch_coverage 0

Core_0_L1D_total_access 53003047
Core_0_L1D_total_hit 50232244
Core_0_L1D_total_miss 2770803
Core_0_L1D_total_MPKI 27.708
Core_0_L1D_total_miss_rate 0.0522763
Core_0_L1D_demand_access 15442916
Core_0_L1D_demand_hit 14867084
Core_0_L1D_demand_miss 575832
Core_0_L1D_demand_MPKI 5.75832
Core_0_L1D_demand_miss_rate 0.0372878
Core_0_L1D_load_access 15442916
Core_0_L1D_load_hit 14867084
Core_0_L1D_load_miss 575832
Core_0_L1D_load_MPKI 5.75832
Core_0_L1D_load_miss_rate 0.0372878
Core_0_L1D_rfo_access 0
Core_0_L1D_rfo_hit 0
Core_0_L1D_rfo_miss 0
Core_0_L1D_rfo_MPKI 0
Core_0_L1D_rfo_miss_rate 0
Core_0_L1D_prefetch_access 37110475
Core_0_L1D_prefetch_hit 34921218
Core_0_L1D_prefetch_miss 2189257
Core_0_L1D_prefetch_MPKI 21.8926
Core_0_L1D_prefetch_miss_rate 0.058993
Core_0_L1D_writeback_access 449656
Core_0_L1D_writeback_hit 443942
Core_0_L1D_writeback_miss 5714
Core_0_L1D_writeback_MPKI 0.05714
Core_0_L1D_writeback_miss_rate 0.0127075
Core_0_L1D_prefetch_requested 164202175
Core_0_L1D_prefetch_issued 37110467
Core_0_L1D_prefetch_useful 1668287
Core_0_L1D_prefetch_useless 101860
Core_0_L1D_prefetch_late 4016
Core_0_L1D_prefetch_fill 1766151
Core_0_L1D_prefetch_too_early 1
Core_0_L1D_prefetch_too_early_among_fill 5.66203e-07
Core_0_L1D_prefetch_too_early_among_useless 9.8174e-06
Core_0_L1D_prefetch_pollution_evict 9616
Core_0_L1D_prefetch_pollution_demand 9615
Core_0_L1D_prefetch_pollution_among_prefetch_fill 0.00544461
Core_0_L1D_prefetch_accuracy 0.0449546
Core_0_L1D_prefetch_coverage 0.743404

Core_0_L2C_total_access 4848005
Core_0_L2C_total_hit 1431706
Core_0_L2C_total_miss 3416299
Core_0_L2C_total_MPKI 34.163
Core_0_L2C_total_miss_rate 0.704681
Core_0_L2C_demand_access 570686
Core_0_L2C_demand_hit 50054
Core_0_L2C_demand_miss 520632
Core_0_L2C_demand_MPKI 5.20632
Core_0_L2C_demand_miss_rate 0.912292
Core_0_L2C_load_access 567829
Core_0_L2C_load_hit 47197
Core_0_L2C_load_miss 520632
Core_0_L2C_load_MPKI 5.20632
Core_0_L2C_load_miss_rate 0.916882
Core_0_L2C_rfo_access 2857
Core_0_L2C_rfo_hit 2857
Core_0_L2C_rfo_miss 0
Core_0_L2C_rfo_MPKI 0
Core_0_L2C_rfo_miss_rate 0
Core_0_L2C_prefetch_access 4132893
Core_0_L2C_prefetch_hit 1237267
Core_0_L2C_prefetch_miss 2895626
Core_0_L2C_prefetch_MPKI 28.9563
Core_0_L2C_prefetch_miss_rate 0.700629
Core_0_L2C_writeback_access 144426
Core_0_L2C_writeback_hit 144385
Core_0_L2C_writeback_miss 41
Core_0_L2C_writeback_MPKI 0.00041
Core_0_L2C_writeback_miss_rate 0.000283882
Core_0_L2C_prefetch_requested 1948337
Core_0_L2C_prefetch_issued 1948337
Core_0_L2C_prefetch_useful 735818
Core_0_L2C_prefetch_useless 318205
Core_0_L2C_prefetch_late 65
Core_0_L2C_prefetch_fill 1782127
Core_0_L2C_prefetch_too_early 65
Core_0_L2C_prefetch_too_early_among_fill 3.64733e-05
Core_0_L2C_prefetch_too_early_among_useless 0.000204271
Core_0_L2C_prefetch_pollution_evict 15879
Core_0_L2C_prefetch_pollution_demand 15862
Core_0_L2C_prefetch_pollution_among_prefetch_fill 0.00891014
Core_0_L2C_prefetch_accuracy 0.377665
Core_0_L2C_prefetch_coverage 0.585633

Core_0_LLC_total_access 2461092
Core_0_LLC_total_hit 178625
Core_0_LLC_total_miss 2282467
Core_0_LLC_total_MPKI 22.8247
Core_0_LLC_total_miss_rate 0.92742
Core_0_LLC_demand_access 520478
Core_0_LLC_demand_hit 45127
Core_0_LLC_demand_miss 475351
Core_0_LLC_demand_MPKI 4.75351
Core_0_LLC_demand_miss_rate 0.913297
Core_0_LLC_load_access 520478
Core_0_LLC_load_hit 45127
Core_0_LLC_load_miss 475351
Core_0_LLC_load_MPKI 4.75351
Core_0_LLC_load_miss_rate 0.913297
Core_0_LLC_rfo_access 0
Core_0_LLC_rfo_hit 0
Core_0_LLC_rfo_miss 0
Core_0_LLC_rfo_MPKI 0
Core_0_LLC_rfo_miss_rate 0
Core_0_LLC_prefetch_access 1798900
Core_0_LLC_prefetch_hit 8821
Core_0_LLC_prefetch_miss 1790079
Core_0_LLC_prefetch_MPKI 17.9008
Core_0_LLC_prefetch_miss_rate 0.995096
Core_0_LLC_writeback_access 141714
Core_0_LLC_writeback_hit 124677
Core_0_LLC_writeback_miss 17037
Core_0_LLC_writeback_MPKI 0.17037
Core_0_LLC_writeback_miss_rate 0.120221
Core_0_LLC_prefetch_requested 0
Core_0_LLC_prefetch_issued 0
Core_0_LLC_prefetch_useful 0
Core_0_LLC_prefetch_useless 0
Core_0_LLC_prefetch_late 0
Core_0_LLC_prefetch_fill 1782191
Core_0_LLC_prefetch_too_early 0
Core_0_LLC_prefetch_too_early_among_fill 0
Core_0_LLC_prefetch_too_early_among_useless 0
Core_0_LLC_prefetch_pollution_evict 18864
Core_0_LLC_prefetch_pollution_demand 18864
Core_0_LLC_prefetch_pollution_among_prefetch_fill 0.0105847
Core_0_LLC_prefetch_accuracy 0
Core_0_LLC_prefetch_coverage 0

[DRAM Statistics]
Channel_0_RQ_row_buffer_hit 73527
Channel_0_RQ_row_buffer_miss 2229553
Channel_0_WQ_row_buffer_hit 44145
Channel_0_WQ_row_buffer_miss 97938
Channel_0_WQ_full 0
Channel_0_dbus_congested 4561162
DRAM_total_RQ_row_buffer_hit 73527
DRAM_total_RQ_row_buffer_miss 2229553
DRAM_total_WQ_row_buffer_hit 44145
DRAM_total_WQ_row_buffer_miss 97938
DRAM_total_WQ_full 0
DRAM_total_dbus_congested 4561162
DRAM_avg_congested_cycle 10.3222

====== DRAM_RQ_TRAFFIC ========
DRAM_RQ_READ_TRAFFIC_BREAKDOWN:
data_demand_read.count = 475346
data_demand_read.share = 20.64%

inst_demand_read.count = 0
inst_demand_read.share = 0.00%

cache_inst_prefetch.count = 0
cache_inst_prefetch.share = 0.00%

cache_data_prefetch.count = 1782196
cache_data_prefetch.share = 77.38%

stlb_data_demand.count = 41996
stlb_data_demand.share = 1.82%

stlb_inst_demand.count = 0
stlb_inst_demand.share = 0.00%

stlb_l1i_pref.count = 0
stlb_l1i_pref.share = 0.00%

stlb_l1d_pref.count = 3542
stlb_l1d_pref.share = 0.15%

DRAM_RQ_READ_TRAFFIC_SUMMARY:
cache_demand.count = 475346
cache_demand.share = 20.64%

cache_prefetch.count = 1782196
cache_prefetch.share = 77.38%

stlb_demand.count = 41996
stlb_demand.share = 1.82%

stlb_prefetch.count = 3542
stlb_prefetch.share = 0.15%

DRAM_RQ_READ_TRAFFIC_DEBUG:
total_classified_read.count = 2303080
unclassified_read.count = 0
total_read_with_other.count = 2303080

classified_plus_unclassified_check.count = 2303080
dram_rq_read_total_observed.count = 2303080
dram_rq_read_total_observed.per_1K_instructions = 23.0308

STLB_MISS_PTW_DRAM_TOUCH_BREAKDOWN:
stlb_miss_total.count = 270474

stlb_miss_touch_dram.count = 45382
stlb_miss_touch_dram.share = 16.78%

stlb_miss_no_dram_touch.count = 225092
stlb_miss_no_dram_touch.share = 83.22%

STLB_MISS_PTW_DRAM_TOUCH_DEBUG:
stlb_miss_touch_plus_no_touch.count = 270474
stlb_miss_total_check.count = 270474

======STLB miss causes ========
Core_0_STLB_miss_cause_breakdown
Core_0_STLB_cause_Demand_Data_miss 242744
Core_0_STLB_cause_Demand_Data_miss_rate 0.512811
Core_0_STLB_cause_Demand_Instruction_miss 0
Core_0_STLB_cause_Demand_Instruction_miss_rate 0
Core_0_STLB_cause_L1D_Prefetch_miss 27884
Core_0_STLB_cause_L1D_Prefetch_miss_rate 0.0589065
Core_0_STLB_cause_L1D_Prefetch_Same_Page_miss 0
Core_0_STLB_cause_L1D_Prefetch_Same_Page_miss_rate 0
Core_0_STLB_cause_L1D_Prefetch_Cross_Page_miss 27884
Core_0_STLB_cause_L1D_Prefetch_Cross_Page_miss_rate 0.0589065
Core_0_STLB_cause_L1I_Prefetch_miss 0
Core_0_STLB_cause_L1I_Prefetch_miss_rate 0
Core_0_STLB_cause_Other_miss 0
Core_0_STLB_cause_Other_miss_rate 0
Core_0_STLB_Demand_miss 242744
Core_0_STLB_Demand_miss_rate 0.512811
Core_0_STLB_L1D_Prefetch_miss 27884
Core_0_STLB_L1D_Prefetch_miss_rate 0.0589065
Core_0_STLB_Other_miss 0
Core_0_STLB_Other_miss_rate 0

========== vBerti-TLB Cross-page Flow Stats ==========

Core_0_vBerti_Requested 164202175
Core_0_vBerti_Cross_page_prefetch_in_Requested 20073974
Core_0_vBerti_Same_page_prefetch_in_Requested 144128201
Core_0_vBerti_Cross_page_prefetch_of_Requested 0.122252
Core_0_vBerti_Issued 37110467
Core_0_vBerti_InPQ_Same_page_prefetch 34899937
Core_0_vBerti_InPQ_Cross_page_prefetch 2210530
Core_0_vBerti_PQ_Drop_Rate 0.773995
Core_0_vBerti_InPQ_Cross_page_prefetch_of_Requested 0.0134622
Core_0_vBerti_Cross_page_PQ_Drop_rate 0.889881
Core_0_vBerti_Cross_page_prefetch_of_Issued 0.0595662
Core_0_CP_PF_PQFULL_drop 17863444
Core_0_CP_PF_PQFULL_TLB_rescue_enqueued 9171748
Core_0_CP_PF_PQFULL_TLB_rescue_issued 9171748
Core_0_CP_PF_PQFULL_TLB_rescue_translated 9171748

========= DTLB_vBerti Prefetch Stats =========
Core_0_DTLB_demand_access 15694024
Core_0_DTLB_demand_hit 15241211
Core_0_DTLB_demand_miss 452813
Core_0_DTLB_demand_mshr_merge 7359
Core_0_DTLB_demand_fill 445456
Core_0_DTLB_demand_miss_rate 0.0288526
Core_0_DTLB_demand_mpki 4.52813
Core_0_DTLB_vberti_prefetch_access 29521933
Core_0_DTLB_vberti_prefetch_hit 29272627
Core_0_DTLB_vberti_prefetch_miss 249306
Core_0_DTLB_vberti_prefetch_mshr_merge 221400
Core_0_DTLB_vberti_prefetch_fill 27904
Core_0_DTLB_vberti_prefetch_miss_rate 0.00844477
Core_0_DTLB_vberti_prefetch_mpki 2.49306

=== DTLB_vBerti Same/Cross-page Prefetch Stats ===
Core_0_DTLB_vberti_same_page_prefetch 22016736
Core_0_DTLB_vberti_same_page_prefetch_hit 22016736
Core_0_DTLB_vberti_same_page_prefetch_miss 0
Core_0_DTLB_vberti_same_page_prefetch_mshr_merge 0
Core_0_DTLB_vberti_same_page_prefetch_fill 0
Core_0_DTLB_vberti_same_page_prefetch_miss_rate 0
Core_0_DTLB_vberti_same_page_prefetch_mpki 0
Core_0_DTLB_vberti_cross_page_prefetch 7505197
Core_0_DTLB_vberti_cross_page_prefetch_hit 7255891
Core_0_DTLB_vberti_cross_page_prefetch_miss 249306
Core_0_DTLB_vberti_cross_page_prefetch_mshr_merge 221400
Core_0_DTLB_vberti_cross_page_prefetch_fill 27904
Core_0_DTLB_vberti_cross_page_prefetch_miss_rate 0.0332178
Core_0_DTLB_vberti_cross_page_prefetch_mpki 2.49306
Core_0_DTLB_same_page_prefetch_miss_rate 0
Core_0_DTLB_same_page_prefetch_mpki 0
Core_0_DTLB_cross_page_prefetch_miss_rate 0.0332178
Core_0_DTLB_cross_page_prefetch_mpki 2.49306
Core_0_DTLB_cross_page_prefetch_issued 7505197
Core_0_DTLB_cross_page_prefetch_lookups 7505197
Core_0_DTLB_cross_page_prefetch_useful 27785
Core_0_DTLB_cross_page_prefetch_useless 121
Core_0_DTLB_cross_page_prefetch_late 2
Core_0_DTLB_cross_page_prefetch_too_early 49
Core_0_DTLB_cross_page_prefetch_too_early_among_fill 0.00175602
Core_0_DTLB_cross_page_prefetch_too_early_among_useless 0.404959
Core_0_DTLB_cross_page_prefetch_pollution_evict 9663
Core_0_DTLB_cross_page_prefetch_pollution_demand 9659
Core_0_DTLB_cross_page_prefetch_pollution_among_prefetch_fill 0.346294
Core_0_DTLB_cross_page_prefetch_accuracy 0.0037021
Core_0_DTLB_cross_page_prefetch_coverage 0.0578134

========= STLB_vBerti Prefetch Stats =========
Core_0_STLB_demand_access 445454
Core_0_STLB_demand_hit 202710
Core_0_STLB_demand_miss 242744
Core_0_STLB_demand_mshr_merge 0
Core_0_STLB_demand_fill 242744
Core_0_STLB_demand_miss_rate 0.544936
Core_0_STLB_demand_mpki 2.42744
Core_0_STLB_vberti_prefetch_access 27906
Core_0_STLB_vberti_prefetch_hit 22
Core_0_STLB_vberti_prefetch_miss 27884
Core_0_STLB_vberti_prefetch_mshr_merge 0
Core_0_STLB_vberti_prefetch_fill 0
Core_0_STLB_vberti_prefetch_miss_rate 0.999212
Core_0_STLB_vberti_prefetch_mpki 0.27884

=== STLB_vBerti Same/Cross-page Prefetch Stats ===
Core_0_STLB_vberti_same_page_prefetch 0
Core_0_STLB_vberti_same_page_prefetch_hit 0
Core_0_STLB_vberti_same_page_prefetch_miss 0
Core_0_STLB_vberti_same_page_prefetch_mshr_merge 0
Core_0_STLB_vberti_same_page_prefetch_fill 0
Core_0_STLB_vberti_same_page_prefetch_miss_rate 0
Core_0_STLB_vberti_same_page_prefetch_mpki 0
Core_0_STLB_vberti_cross_page_prefetch 27906
Core_0_STLB_vberti_cross_page_prefetch_hit 22
Core_0_STLB_vberti_cross_page_prefetch_miss 27884
Core_0_STLB_vberti_cross_page_prefetch_mshr_merge 0
Core_0_STLB_vberti_cross_page_prefetch_fill 0
Core_0_STLB_vberti_cross_page_prefetch_miss_rate 0.999212
Core_0_STLB_vberti_cross_page_prefetch_mpki 0.27884
Core_0_STLB_same_page_prefetch_miss_rate 0
Core_0_STLB_same_page_prefetch_mpki 0
Core_0_STLB_cross_page_prefetch_miss_rate 0.999212
Core_0_STLB_cross_page_prefetch_mpki 0.27884
Core_0_STLB_cross_page_prefetch_issued 27906
Core_0_STLB_cross_page_prefetch_lookups 27906
Core_0_STLB_cross_page_prefetch_useful 154
Core_0_STLB_cross_page_prefetch_useless 27676
Core_0_STLB_cross_page_prefetch_late 154
Core_0_STLB_cross_page_prefetch_too_early 0
Core_0_STLB_cross_page_prefetch_too_early_among_fill 0
Core_0_STLB_cross_page_prefetch_too_early_among_useless 0
Core_0_STLB_cross_page_prefetch_pollution_evict 0
Core_0_STLB_cross_page_prefetch_pollution_demand 0
Core_0_STLB_cross_page_prefetch_pollution_among_prefetch_fill 0
Core_0_STLB_cross_page_prefetch_accuracy 0.00551853
Core_0_STLB_cross_page_prefetch_coverage 0.000634011

========= STLB Cross-page Prefetch Buffer Stats =========
Core_0_STLB_raw_demand_miss 242744
Core_0_CP_PB_insert 27884
Core_0_CP_PB_demand_hit 154
Core_0_STLB_PB_demand_miss 242590
Core_0_CP_PB_coverage 0.000634413
Core_0_STLB_raw_demand_mpki 2.42744
Core_0_STLB_PB_demand_mpki 2.4259
Core_0_CP_PB_demand_hit_mpki 0.00154

Core_0_TLB_demand_miss_rate 0.0154673
Core_0_TLB_demand_mpki 2.42744
Core_0_TLB_same_page_prefetch_miss_rate 0
Core_0_TLB_same_page_prefetch_mpki 0
Core_0_TLB_cross_page_prefetch_miss_rate 0.00371529
Core_0_TLB_cross_page_prefetch_mpki 0.27884
Core_0_TLB_cross_page_prefetch_issued 7505197
Core_0_TLB_cross_page_prefetch_lookups 7505197
Core_0_TLB_cross_page_prefetch_useful 27785
Core_0_TLB_cross_page_prefetch_useless 121
Core_0_TLB_cross_page_prefetch_late 2
Core_0_TLB_cross_page_prefetch_too_early 49
Core_0_TLB_cross_page_prefetch_too_early_among_fill 0.00175602
Core_0_TLB_cross_page_prefetch_too_early_among_useless 0.404959
Core_0_TLB_cross_page_prefetch_accuracy 0.0037021
Core_0_TLB_cross_page_prefetch_coverage 0.102706
BERTI TO_L1: 211038444 TO_L2: 21928593 TO_L2_BC_MSHR: 435720
BERTI AVG_LAT: 102.889 NUM_TRACK_LATENCY: 3460245 NUM_CANT_TRACK_LATENCY: 0
BERTI CROSS_PAGE 28916964 NO_CROSS_PAGE: 204050073
BERTI FOUND_BERTI: 18017667 NO_FOUND_BERTI: 4727955
BERTI AVERAGE_ISSUED: 3.01302
