[VMEM] WARNING: physical memory size is smaller than virtual memory size.

*** ChampSim Multicore Out-of-Order Simulator ***
Warmup Instructions: 50000000
Simulation Instructions: 100000000
Number of CPUs: 1
Page size: 4096
Core 0: /data2/zcq/champsim_traces_gap/cc.kron-17B.champsimtrace.xz
VBerti Prefetcher
BERTI HASH ENTANGLING
BERTI IP MASK ffff
Off-chip DRAM Size: 16 GiB Channels: 1 Width: 64-bit Data Rate: 3205 MT/s
Warmup halting CPU 0 at instruction 50000004 cycle 20775410 for remainder of phase
Warmup finished CPU 0 instructions: 50000004 cycles: 20775410 cumulative IPC: 2.407 (Simulation time: 00 hr 04 min 59 sec)
Warmup complete CPU 0 instructions: 50000004 cycles: 20775410 cumulative IPC: 2.407 (Simulation time: 00 hr 04 min 59 sec)
Simulation finished CPU 0 instructions: 100000001 cycles: 667572647 cumulative IPC: 0.1498 (Simulation time: 00 hr 53 min 33 sec)
Simulation complete CPU 0 instructions: 100000001 cycles: 667572647 cumulative IPC: 0.1498 (Simulation time: 00 hr 53 min 33 sec)

ChampSim completed all CPUs

=== Simulation ===
CPU 0 runs /data2/zcq/champsim_traces_gap/cc.kron-17B.champsimtrace.xz

Region of Interest Statistics

CPU 0 cumulative IPC: 0.1498 instructions: 100000001 cycles: 667572647
CPU 0 Branch Prediction Accuracy: 90.29% MPKI: 17.63 Average ROB Occupancy at Mispredict: 33.55
Branch type MPKI
BRANCH_DIRECT_JUMP: 0
BRANCH_INDIRECT: 0
BRANCH_CONDITIONAL: 17.63
BRANCH_DIRECT_CALL: 0
BRANCH_INDIRECT_CALL: 0
BRANCH_RETURN: 0

cpu0->cpu0_STLB TOTAL        ACCESS:    1941015 HIT:     121032 MISS:    1819983 MSHR_MERGE:          0
cpu0->cpu0_STLB LOAD         ACCESS:    1941015 HIT:     121032 MISS:    1819983 MSHR_MERGE:          0
cpu0->cpu0_STLB RFO          ACCESS:          0 HIT:          0 MISS:          0 MSHR_MERGE:          0
cpu0->cpu0_STLB PREFETCH     ACCESS:          0 HIT:          0 MISS:          0 MSHR_MERGE:          0
cpu0->cpu0_STLB WRITE        ACCESS:          0 HIT:          0 MISS:          0 MSHR_MERGE:          0
cpu0->cpu0_STLB TRANSLATION  ACCESS:          0 HIT:          0 MISS:          0 MSHR_MERGE:          0
cpu0->cpu0_STLB PREFETCH REQUESTED:          0 ISSUED:          0 USEFUL:          0 USELESS:          0 LATE:          0 TOO_EARLY:          0
cpu0->cpu0_STLB AVERAGE MISS LATENCY: 75.55 cycles
cpu0->cpu0_L2C TOTAL        ACCESS:   13523001 HIT:    7845739 MISS:    5677262 MSHR_MERGE:     186451
cpu0->cpu0_L2C LOAD         ACCESS:    2550103 HIT:     477904 MISS:    2072199 MSHR_MERGE:       5243
cpu0->cpu0_L2C RFO          ACCESS:          0 HIT:          0 MISS:          0 MSHR_MERGE:          0
cpu0->cpu0_L2C PREFETCH     ACCESS:    8779559 HIT:    6421328 MISS:    2358231 MSHR_MERGE:     181208
cpu0->cpu0_L2C WRITE        ACCESS:     473719 HIT:     473718 MISS:          1 MSHR_MERGE:          0
cpu0->cpu0_L2C TRANSLATION  ACCESS:    1719620 HIT:     472789 MISS:    1246831 MSHR_MERGE:          0
cpu0->cpu0_L2C PREFETCH REQUESTED:    1776646 ISSUED:    1776646 USEFUL:     432070 USELESS:     150359 LATE:        738 TOO_EARLY:          0
cpu0->cpu0_L2C AVERAGE MISS LATENCY: 143.7 cycles
cpu0->cpu0_L1I TOTAL        ACCESS:       1565 HIT:       1565 MISS:          0 MSHR_MERGE:          0
cpu0->cpu0_L1I LOAD         ACCESS:       1565 HIT:       1565 MISS:          0 MSHR_MERGE:          0
cpu0->cpu0_L1I RFO          ACCESS:          0 HIT:          0 MISS:          0 MSHR_MERGE:          0
cpu0->cpu0_L1I PREFETCH     ACCESS:          0 HIT:          0 MISS:          0 MSHR_MERGE:          0
cpu0->cpu0_L1I WRITE        ACCESS:          0 HIT:          0 MISS:          0 MSHR_MERGE:          0
cpu0->cpu0_L1I TRANSLATION  ACCESS:          0 HIT:          0 MISS:          0 MSHR_MERGE:          0
cpu0->cpu0_L1I PREFETCH REQUESTED:          0 ISSUED:          0 USEFUL:          0 USELESS:          0 LATE:          0 TOO_EARLY:          0
cpu0->cpu0_L1I AVERAGE MISS LATENCY: - cycles
cpu0->cpu0_L1D TOTAL        ACCESS:   60634122 HIT:   49358213 MISS:   11275909 MSHR_MERGE:       2053
cpu0->cpu0_L1D LOAD         ACCESS:   21744891 HIT:   19193681 MISS:    2551210 MSHR_MERGE:       1107
cpu0->cpu0_L1D RFO          ACCESS:          0 HIT:          0 MISS:          0 MSHR_MERGE:          0
cpu0->cpu0_L1D PREFETCH     ACCESS:   32277612 HIT:   25272540 MISS:    7005072 MSHR_MERGE:        939
cpu0->cpu0_L1D WRITE        ACCESS:    1740029 HIT:    1740029 MISS:          0 MSHR_MERGE:          0
cpu0->cpu0_L1D TRANSLATION  ACCESS:    4871590 HIT:    3151963 MISS:    1719627 MSHR_MERGE:          7
cpu0->cpu0_L1D PREFETCH REQUESTED:   80336212 ISSUED:   32277605 USEFUL:     766378 USELESS:      92404 LATE:        531 TOO_EARLY:          0
cpu0->cpu0_L1D AVERAGE MISS LATENCY: 120.5 cycles
cpu0->cpu0_ITLB TOTAL        ACCESS:       1565 HIT:       1565 MISS:          0 MSHR_MERGE:          0
cpu0->cpu0_ITLB LOAD         ACCESS:       1565 HIT:       1565 MISS:          0 MSHR_MERGE:          0
cpu0->cpu0_ITLB RFO          ACCESS:          0 HIT:          0 MISS:          0 MSHR_MERGE:          0
cpu0->cpu0_ITLB PREFETCH     ACCESS:          0 HIT:          0 MISS:          0 MSHR_MERGE:          0
cpu0->cpu0_ITLB WRITE        ACCESS:          0 HIT:          0 MISS:          0 MSHR_MERGE:          0
cpu0->cpu0_ITLB TRANSLATION  ACCESS:          0 HIT:          0 MISS:          0 MSHR_MERGE:          0
cpu0->cpu0_ITLB PREFETCH REQUESTED:          0 ISSUED:          0 USEFUL:          0 USELESS:          0 LATE:          0 TOO_EARLY:          0
cpu0->cpu0_ITLB AVERAGE MISS LATENCY: - cycles
cpu0->cpu0_DTLB TOTAL        ACCESS:   48349426 HIT:   46381339 MISS:    1968087 MSHR_MERGE:      27072
cpu0->cpu0_DTLB LOAD         ACCESS:   48349426 HIT:   46381339 MISS:    1968087 MSHR_MERGE:      27072
cpu0->cpu0_DTLB RFO          ACCESS:          0 HIT:          0 MISS:          0 MSHR_MERGE:          0
cpu0->cpu0_DTLB PREFETCH     ACCESS:          0 HIT:          0 MISS:          0 MSHR_MERGE:          0
cpu0->cpu0_DTLB WRITE        ACCESS:          0 HIT:          0 MISS:          0 MSHR_MERGE:          0
cpu0->cpu0_DTLB TRANSLATION  ACCESS:          0 HIT:          0 MISS:          0 MSHR_MERGE:          0
cpu0->cpu0_DTLB PREFETCH REQUESTED:          0 ISSUED:          0 USEFUL:          0 USELESS:          0 LATE:          0 TOO_EARLY:          0
cpu0->cpu0_DTLB AVERAGE MISS LATENCY: 76.63 cycles
cpu0->LLC TOTAL        ACCESS:    5964560 HIT:    1196806 MISS:    4767754 MSHR_MERGE:          2
cpu0->LLC LOAD         ACCESS:    2066956 HIT:     169420 MISS:    1897536 MSHR_MERGE:          0
cpu0->LLC RFO          ACCESS:          0 HIT:          0 MISS:          0 MSHR_MERGE:          0
cpu0->LLC PREFETCH     ACCESS:    2177023 HIT:        479 MISS:    2176544 MSHR_MERGE:          2
cpu0->LLC WRITE        ACCESS:     473750 HIT:      79236 MISS:     394514 MSHR_MERGE:          0
cpu0->LLC TRANSLATION  ACCESS:    1246831 HIT:     947671 MISS:     299160 MSHR_MERGE:          0
cpu0->LLC PREFETCH REQUESTED:          0 ISSUED:          0 USEFUL:          0 USELESS:          0 LATE:          0 TOO_EARLY:          0
cpu0->LLC AVERAGE MISS LATENCY: 165.2 cycles

DRAM Statistics

Channel 0 RQ ROW_BUFFER_HIT:      72901
  ROW_BUFFER_MISS:    4300337
  AVG DBUS CONGESTED CYCLE: 19.84
Channel 0 WQ ROW_BUFFER_HIT:     165029
  ROW_BUFFER_MISS:     309988
  FULL:          0
Channel 0 REFRESHES ISSUED:      55631

[ROI Statistics]
[System Configuration]
num_cpus 1
cpu_freq 4000
fetch_width 6
decode_width 6
dispatch_width 6
execute_width 6
lq_width 2
sq_width 2
retire_width 6
scheduler_size 128
branch_mispredict_penalty 15
rob_size 352
lq_size 128
sq_size 72
ifetch_buffer_size 64
decode_buffer_size 32
dispatch_buffer_size 32
register_file_size 288
decode_latency 1
dispatch_latency 1
schedule_latency 1
execute_latency 1
page_size 4096
block_size 64
core_0_itlb_set 16
core_0_itlb_way 4
core_0_itlb_rq_size 16
core_0_itlb_wq_size 16
core_0_itlb_pq_size 0
core_0_itlb_mshr_size 8
core_0_itlb_hit_latency 1
core_0_itlb_fill_latency 1
core_0_itlb_max_tag_check 2
core_0_itlb_max_fill 2
core_0_dtlb_set 16
core_0_dtlb_way 4
core_0_dtlb_rq_size 16
core_0_dtlb_wq_size 16
core_0_dtlb_pq_size 0
core_0_dtlb_mshr_size 8
core_0_dtlb_hit_latency 1
core_0_dtlb_fill_latency 1
core_0_dtlb_max_tag_check 2
core_0_dtlb_max_fill 2
core_0_stlb_set 128
core_0_stlb_way 12
core_0_stlb_rq_size 32
core_0_stlb_wq_size 32
core_0_stlb_pq_size 0
core_0_stlb_mshr_size 16
core_0_stlb_hit_latency 4
core_0_stlb_fill_latency 4
core_0_stlb_max_tag_check 1
core_0_stlb_max_fill 1
core_0_l1i_set 64
core_0_l1i_way 8
core_0_l1i_rq_size 64
core_0_l1i_wq_size 64
core_0_l1i_pq_size 32
core_0_l1i_mshr_size 8
core_0_l1i_hit_latency 2
core_0_l1i_fill_latency 2
core_0_l1i_max_tag_check 2
core_0_l1i_max_fill 2
core_0_l1d_set 64
core_0_l1d_way 12
core_0_l1d_rq_size 64
core_0_l1d_wq_size 64
core_0_l1d_pq_size 8
core_0_l1d_mshr_size 16
core_0_l1d_hit_latency 2
core_0_l1d_fill_latency 3
core_0_l1d_max_tag_check 2
core_0_l1d_max_fill 2
core_0_l2c_set 1024
core_0_l2c_way 8
core_0_l2c_rq_size 32
core_0_l2c_wq_size 32
core_0_l2c_pq_size 16
core_0_l2c_mshr_size 32
core_0_l2c_hit_latency 5
core_0_l2c_fill_latency 5
core_0_l2c_max_tag_check 1
core_0_l2c_max_fill 1
llc_set 2048
llc_way 16
llc_rq_size 32
llc_wq_size 32
llc_pq_size 32
llc_mshr_size 64
llc_hit_latency 10
llc_fill_latency 10
llc_max_tag_check 1
llc_max_fill 1
dram_channels 1
dram_ranks 1
dram_bankgroups 8
dram_banks 4
dram_rows 65536
dram_columns 1024
dram_channel_width 8
dram_rq_size 64
dram_wq_size 64
dram_size 17179869184
core_0_itlb_prefetcher no
core_0_dtlb_prefetcher no
core_0_stlb_prefetcher no
core_0_l1i_prefetcher next_line
core_0_l1d_prefetcher vberti
core_0_l2c_prefetcher ip_stride
llc_prefetcher no
llc_replacement drrip

Core_0_instructions 100000001
Core_0_cycles 667572647
Core_0_IPC 0.149796
Core_0_branch_prediction_accuracy 90.2913
Core_0_branch_MPKI 17.6274
Core_0_average_ROB_occupancy_at_mispredict 33.546

Core_0_ITLB_total_access 1565
Core_0_ITLB_total_hit 1565
Core_0_ITLB_total_miss 0
Core_0_ITLB_total_MPKI 0
Core_0_ITLB_total_miss_rate 0
Core_0_ITLB_demand_access 1565
Core_0_ITLB_demand_hit 1565
Core_0_ITLB_demand_miss 0
Core_0_ITLB_demand_MPKI 0
Core_0_ITLB_demand_miss_rate 0
Core_0_ITLB_load_access 1565
Core_0_ITLB_load_hit 1565
Core_0_ITLB_load_miss 0
Core_0_ITLB_load_MPKI 0
Core_0_ITLB_load_miss_rate 0
Core_0_ITLB_rfo_access 0
Core_0_ITLB_rfo_hit 0
Core_0_ITLB_rfo_miss 0
Core_0_ITLB_rfo_MPKI 0
Core_0_ITLB_rfo_miss_rate 0
Core_0_ITLB_prefetch_access 0
Core_0_ITLB_prefetch_hit 0
Core_0_ITLB_prefetch_miss 0
Core_0_ITLB_prefetch_MPKI 0
Core_0_ITLB_prefetch_miss_rate 0
Core_0_ITLB_writeback_access 0
Core_0_ITLB_writeback_hit 0
Core_0_ITLB_writeback_miss 0
Core_0_ITLB_writeback_MPKI 0
Core_0_ITLB_writeback_miss_rate 0
Core_0_ITLB_prefetch_requested 0
Core_0_ITLB_prefetch_issued 0
Core_0_ITLB_prefetch_useful 0
Core_0_ITLB_prefetch_useless 0
Core_0_ITLB_prefetch_late 0
Core_0_ITLB_prefetch_fill 0
Core_0_ITLB_prefetch_too_early 0
Core_0_ITLB_prefetch_too_early_among_fill 0
Core_0_ITLB_prefetch_too_early_among_useless 0
Core_0_ITLB_prefetch_pollution_evict 0
Core_0_ITLB_prefetch_pollution_demand 0
Core_0_ITLB_prefetch_pollution_among_prefetch_fill 0
Core_0_ITLB_prefetch_accuracy 0
Core_0_ITLB_prefetch_coverage 0

Core_0_DTLB_total_access 48349426
Core_0_DTLB_total_hit 46381339
Core_0_DTLB_total_miss 1968087
Core_0_DTLB_total_MPKI 19.6809
Core_0_DTLB_total_miss_rate 0.0407055
Core_0_DTLB_demand_access 48349426
Core_0_DTLB_demand_hit 46381339
Core_0_DTLB_demand_miss 1968087
Core_0_DTLB_demand_MPKI 19.6809
Core_0_DTLB_demand_miss_rate 0.0407055
Core_0_DTLB_load_access 48349426
Core_0_DTLB_load_hit 46381339
Core_0_DTLB_load_miss 1968087
Core_0_DTLB_load_MPKI 19.6809
Core_0_DTLB_load_miss_rate 0.0407055
Core_0_DTLB_rfo_access 0
Core_0_DTLB_rfo_hit 0
Core_0_DTLB_rfo_miss 0
Core_0_DTLB_rfo_MPKI 0
Core_0_DTLB_rfo_miss_rate 0
Core_0_DTLB_prefetch_access 0
Core_0_DTLB_prefetch_hit 0
Core_0_DTLB_prefetch_miss 0
Core_0_DTLB_prefetch_MPKI 0
Core_0_DTLB_prefetch_miss_rate 0
Core_0_DTLB_writeback_access 0
Core_0_DTLB_writeback_hit 0
Core_0_DTLB_writeback_miss 0
Core_0_DTLB_writeback_MPKI 0
Core_0_DTLB_writeback_miss_rate 0
Core_0_DTLB_prefetch_requested 0
Core_0_DTLB_prefetch_issued 0
Core_0_DTLB_prefetch_useful 0
Core_0_DTLB_prefetch_useless 0
Core_0_DTLB_prefetch_late 0
Core_0_DTLB_prefetch_fill 0
Core_0_DTLB_prefetch_too_early 0
Core_0_DTLB_prefetch_too_early_among_fill 0
Core_0_DTLB_prefetch_too_early_among_useless 0
Core_0_DTLB_prefetch_pollution_evict 0
Core_0_DTLB_prefetch_pollution_demand 0
Core_0_DTLB_prefetch_pollution_among_prefetch_fill 0
Core_0_DTLB_prefetch_accuracy 0
Core_0_DTLB_prefetch_coverage 0

Core_0_STLB_total_access 1941015
Core_0_STLB_total_hit 121032
Core_0_STLB_total_miss 1819983
Core_0_STLB_total_MPKI 18.1998
Core_0_STLB_total_miss_rate 0.937645
Core_0_STLB_demand_access 1941015
Core_0_STLB_demand_hit 121032
Core_0_STLB_demand_miss 1819983
Core_0_STLB_demand_MPKI 18.1998
Core_0_STLB_demand_miss_rate 0.937645
Core_0_STLB_load_access 1941015
Core_0_STLB_load_hit 121032
Core_0_STLB_load_miss 1819983
Core_0_STLB_load_MPKI 18.1998
Core_0_STLB_load_miss_rate 0.937645
Core_0_STLB_rfo_access 0
Core_0_STLB_rfo_hit 0
Core_0_STLB_rfo_miss 0
Core_0_STLB_rfo_MPKI 0
Core_0_STLB_rfo_miss_rate 0
Core_0_STLB_prefetch_access 0
Core_0_STLB_prefetch_hit 0
Core_0_STLB_prefetch_miss 0
Core_0_STLB_prefetch_MPKI 0
Core_0_STLB_prefetch_miss_rate 0
Core_0_STLB_writeback_access 0
Core_0_STLB_writeback_hit 0
Core_0_STLB_writeback_miss 0
Core_0_STLB_writeback_MPKI 0
Core_0_STLB_writeback_miss_rate 0
Core_0_STLB_prefetch_requested 0
Core_0_STLB_prefetch_issued 0
Core_0_STLB_prefetch_useful 0
Core_0_STLB_prefetch_useless 0
Core_0_STLB_prefetch_late 0
Core_0_STLB_prefetch_fill 0
Core_0_STLB_prefetch_too_early 0
Core_0_STLB_prefetch_too_early_among_fill 0
Core_0_STLB_prefetch_too_early_among_useless 0
Core_0_STLB_prefetch_pollution_evict 0
Core_0_STLB_prefetch_pollution_demand 0
Core_0_STLB_prefetch_pollution_among_prefetch_fill 0
Core_0_STLB_prefetch_accuracy 0
Core_0_STLB_prefetch_coverage 0

Core_0_L1I_total_access 1565
Core_0_L1I_total_hit 1565
Core_0_L1I_total_miss 0
Core_0_L1I_total_MPKI 0
Core_0_L1I_total_miss_rate 0
Core_0_L1I_demand_access 1565
Core_0_L1I_demand_hit 1565
Core_0_L1I_demand_miss 0
Core_0_L1I_demand_MPKI 0
Core_0_L1I_demand_miss_rate 0
Core_0_L1I_load_access 1565
Core_0_L1I_load_hit 1565
Core_0_L1I_load_miss 0
Core_0_L1I_load_MPKI 0
Core_0_L1I_load_miss_rate 0
Core_0_L1I_rfo_access 0
Core_0_L1I_rfo_hit 0
Core_0_L1I_rfo_miss 0
Core_0_L1I_rfo_MPKI 0
Core_0_L1I_rfo_miss_rate 0
Core_0_L1I_prefetch_access 0
Core_0_L1I_prefetch_hit 0
Core_0_L1I_prefetch_miss 0
Core_0_L1I_prefetch_MPKI 0
Core_0_L1I_prefetch_miss_rate 0
Core_0_L1I_writeback_access 0
Core_0_L1I_writeback_hit 0
Core_0_L1I_writeback_miss 0
Core_0_L1I_writeback_MPKI 0
Core_0_L1I_writeback_miss_rate 0
Core_0_L1I_prefetch_requested 0
Core_0_L1I_prefetch_issued 0
Core_0_L1I_prefetch_useful 0
Core_0_L1I_prefetch_useless 0
Core_0_L1I_prefetch_late 0
Core_0_L1I_prefetch_fill 0
Core_0_L1I_prefetch_too_early 0
Core_0_L1I_prefetch_too_early_among_fill 0
Core_0_L1I_prefetch_too_early_among_useless 0
Core_0_L1I_prefetch_pollution_evict 0
Core_0_L1I_prefetch_pollution_demand 0
Core_0_L1I_prefetch_pollution_among_prefetch_fill 0
Core_0_L1I_prefetch_accuracy 0
Core_0_L1I_prefetch_coverage 0

Core_0_L1D_total_access 55762532
Core_0_L1D_total_hit 46206250
Core_0_L1D_total_miss 9556282
Core_0_L1D_total_MPKI 95.5628
Core_0_L1D_total_miss_rate 0.171375
Core_0_L1D_demand_access 21744891
Core_0_L1D_demand_hit 19193681
Core_0_L1D_demand_miss 2551210
Core_0_L1D_demand_MPKI 25.5121
Core_0_L1D_demand_miss_rate 0.117325
Core_0_L1D_load_access 21744891
Core_0_L1D_load_hit 19193681
Core_0_L1D_load_miss 2551210
Core_0_L1D_load_MPKI 25.5121
Core_0_L1D_load_miss_rate 0.117325
Core_0_L1D_rfo_access 0
Core_0_L1D_rfo_hit 0
Core_0_L1D_rfo_miss 0
Core_0_L1D_rfo_MPKI 0
Core_0_L1D_rfo_miss_rate 0
Core_0_L1D_prefetch_access 32277612
Core_0_L1D_prefetch_hit 25272540
Core_0_L1D_prefetch_miss 7005072
Core_0_L1D_prefetch_MPKI 70.0507
Core_0_L1D_prefetch_miss_rate 0.217026
Core_0_L1D_writeback_access 1740029
Core_0_L1D_writeback_hit 1740029
Core_0_L1D_writeback_miss 0
Core_0_L1D_writeback_MPKI 0
Core_0_L1D_writeback_miss_rate 0
Core_0_L1D_prefetch_requested 80336212
Core_0_L1D_prefetch_issued 32277605
Core_0_L1D_prefetch_useful 766378
Core_0_L1D_prefetch_useless 92404
Core_0_L1D_prefetch_late 531
Core_0_L1D_prefetch_fill 858254
Core_0_L1D_prefetch_too_early 0
Core_0_L1D_prefetch_too_early_among_fill 0
Core_0_L1D_prefetch_too_early_among_useless 0
Core_0_L1D_prefetch_pollution_evict 7229
Core_0_L1D_prefetch_pollution_demand 7229
Core_0_L1D_prefetch_pollution_among_prefetch_fill 0.00842291
Core_0_L1D_prefetch_accuracy 0.0237433
Core_0_L1D_prefetch_coverage 0.231005

Core_0_L2C_total_access 11803381
Core_0_L2C_total_hit 7372950
Core_0_L2C_total_miss 4430431
Core_0_L2C_total_MPKI 44.3043
Core_0_L2C_total_miss_rate 0.375353
Core_0_L2C_demand_access 2550103
Core_0_L2C_demand_hit 477904
Core_0_L2C_demand_miss 2072199
Core_0_L2C_demand_MPKI 20.722
Core_0_L2C_demand_miss_rate 0.812594
Core_0_L2C_load_access 2550103
Core_0_L2C_load_hit 477904
Core_0_L2C_load_miss 2072199
Core_0_L2C_load_MPKI 20.722
Core_0_L2C_load_miss_rate 0.812594
Core_0_L2C_rfo_access 0
Core_0_L2C_rfo_hit 0
Core_0_L2C_rfo_miss 0
Core_0_L2C_rfo_MPKI 0
Core_0_L2C_rfo_miss_rate 0
Core_0_L2C_prefetch_access 8779559
Core_0_L2C_prefetch_hit 6421328
Core_0_L2C_prefetch_miss 2358231
Core_0_L2C_prefetch_MPKI 23.5823
Core_0_L2C_prefetch_miss_rate 0.268605
Core_0_L2C_writeback_access 473719
Core_0_L2C_writeback_hit 473718
Core_0_L2C_writeback_miss 1
Core_0_L2C_writeback_MPKI 1e-05
Core_0_L2C_writeback_miss_rate 2.11096e-06
Core_0_L2C_prefetch_requested 1776646
Core_0_L2C_prefetch_issued 1776646
Core_0_L2C_prefetch_useful 432070
Core_0_L2C_prefetch_useless 150359
Core_0_L2C_prefetch_late 738
Core_0_L2C_prefetch_fill 2171564
Core_0_L2C_prefetch_too_early 0
Core_0_L2C_prefetch_too_early_among_fill 0
Core_0_L2C_prefetch_too_early_among_useless 0
Core_0_L2C_prefetch_pollution_evict 36225
Core_0_L2C_prefetch_pollution_demand 36225
Core_0_L2C_prefetch_pollution_among_prefetch_fill 0.0166815
Core_0_L2C_prefetch_accuracy 0.243194
Core_0_L2C_prefetch_coverage 0.172533

Core_0_LLC_total_access 4717729
Core_0_LLC_total_hit 249135
Core_0_LLC_total_miss 4468594
Core_0_LLC_total_MPKI 44.6859
Core_0_LLC_total_miss_rate 0.947192
Core_0_LLC_demand_access 2066956
Core_0_LLC_demand_hit 169420
Core_0_LLC_demand_miss 1897536
Core_0_LLC_demand_MPKI 18.9754
Core_0_LLC_demand_miss_rate 0.918034
Core_0_LLC_load_access 2066956
Core_0_LLC_load_hit 169420
Core_0_LLC_load_miss 1897536
Core_0_LLC_load_MPKI 18.9754
Core_0_LLC_load_miss_rate 0.918034
Core_0_LLC_rfo_access 0
Core_0_LLC_rfo_hit 0
Core_0_LLC_rfo_miss 0
Core_0_LLC_rfo_MPKI 0
Core_0_LLC_rfo_miss_rate 0
Core_0_LLC_prefetch_access 2177023
Core_0_LLC_prefetch_hit 479
Core_0_LLC_prefetch_miss 2176544
Core_0_LLC_prefetch_MPKI 21.7654
Core_0_LLC_prefetch_miss_rate 0.99978
Core_0_LLC_writeback_access 473750
Core_0_LLC_writeback_hit 79236
Core_0_LLC_writeback_miss 394514
Core_0_LLC_writeback_MPKI 3.94514
Core_0_LLC_writeback_miss_rate 0.832747
Core_0_LLC_prefetch_requested 0
Core_0_LLC_prefetch_issued 0
Core_0_LLC_prefetch_useful 0
Core_0_LLC_prefetch_useless 0
Core_0_LLC_prefetch_late 0
Core_0_LLC_prefetch_fill 2176542
Core_0_LLC_prefetch_too_early 0
Core_0_LLC_prefetch_too_early_among_fill 0
Core_0_LLC_prefetch_too_early_among_useless 0
Core_0_LLC_prefetch_pollution_evict 50101
Core_0_LLC_prefetch_pollution_demand 50101
Core_0_LLC_prefetch_pollution_among_prefetch_fill 0.0230186
Core_0_LLC_prefetch_accuracy 0
Core_0_LLC_prefetch_coverage 0

[DRAM Statistics]
Channel_0_RQ_row_buffer_hit 72901
Channel_0_RQ_row_buffer_miss 4300337
Channel_0_WQ_row_buffer_hit 165029
Channel_0_WQ_row_buffer_miss 309988
Channel_0_WQ_full 0
Channel_0_dbus_congested 14852773
DRAM_total_RQ_row_buffer_hit 72901
DRAM_total_RQ_row_buffer_miss 4300337
DRAM_total_WQ_row_buffer_hit 165029
DRAM_total_WQ_row_buffer_miss 309988
DRAM_total_WQ_full 0
DRAM_total_dbus_congested 14852773
DRAM_avg_congested_cycle 19.8378

====== DRAM_RQ_TRAFFIC ========
DRAM_RQ_READ_TRAFFIC_BREAKDOWN:
data_demand_read.count = 1897536
data_demand_read.share = 43.39%

inst_demand_read.count = 0
inst_demand_read.share = 0.00%

cache_inst_prefetch.count = 0
cache_inst_prefetch.share = 0.00%

cache_data_prefetch.count = 2176542
cache_data_prefetch.share = 49.77%

stlb_data_demand.count = 294078
stlb_data_demand.share = 6.72%

stlb_inst_demand.count = 0
stlb_inst_demand.share = 0.00%

stlb_l1i_pref.count = 0
stlb_l1i_pref.share = 0.00%

stlb_l1d_pref.count = 5082
stlb_l1d_pref.share = 0.12%

DRAM_RQ_READ_TRAFFIC_SUMMARY:
cache_demand.count = 1897536
cache_demand.share = 43.39%

cache_prefetch.count = 2176542
cache_prefetch.share = 49.77%

stlb_demand.count = 294078
stlb_demand.share = 6.72%

stlb_prefetch.count = 5082
stlb_prefetch.share = 0.12%

DRAM_RQ_READ_TRAFFIC_DEBUG:
total_classified_read.count = 4373238
unclassified_read.count = 0
total_read_with_other.count = 4373238

classified_plus_unclassified_check.count = 4373238
dram_rq_read_total_observed.count = 4373238
dram_rq_read_total_observed.per_1K_instructions = 43.7324

STLB_MISS_PTW_DRAM_TOUCH_BREAKDOWN:
stlb_miss_total.count = 1816409

stlb_miss_touch_dram.count = 299044
stlb_miss_touch_dram.share = 16.46%

stlb_miss_no_dram_touch.count = 1517365
stlb_miss_no_dram_touch.share = 83.54%

STLB_MISS_PTW_DRAM_TOUCH_DEBUG:
stlb_miss_touch_plus_no_touch.count = 1816409
stlb_miss_total_check.count = 1816409

======STLB miss causes ========
Core_0_STLB_miss_cause_breakdown
Core_0_STLB_cause_Demand_Data_miss 1778037
Core_0_STLB_cause_Demand_Data_miss_rate 0.916035
Core_0_STLB_cause_Demand_Instruction_miss 0
Core_0_STLB_cause_Demand_Instruction_miss_rate 0
Core_0_STLB_cause_L1D_Prefetch_miss 41946
Core_0_STLB_cause_L1D_Prefetch_miss_rate 0.0216103
Core_0_STLB_cause_L1D_Prefetch_Same_Page_miss 0
Core_0_STLB_cause_L1D_Prefetch_Same_Page_miss_rate 0
Core_0_STLB_cause_L1D_Prefetch_Cross_Page_miss 41946
Core_0_STLB_cause_L1D_Prefetch_Cross_Page_miss_rate 0.0216103
Core_0_STLB_cause_L1I_Prefetch_miss 0
Core_0_STLB_cause_L1I_Prefetch_miss_rate 0
Core_0_STLB_cause_Other_miss 0
Core_0_STLB_cause_Other_miss_rate 0
Core_0_STLB_Demand_miss 1778037
Core_0_STLB_Demand_miss_rate 0.916035
Core_0_STLB_L1D_Prefetch_miss 41946
Core_0_STLB_L1D_Prefetch_miss_rate 0.0216103
Core_0_STLB_Other_miss 0
Core_0_STLB_Other_miss_rate 0

========== vBerti-TLB Cross-page Flow Stats ==========

Core_0_vBerti_Requested 80336212
Core_0_vBerti_Cross_page_prefetch_in_Requested 9936569
Core_0_vBerti_Same_page_prefetch_in_Requested 70399643
Core_0_vBerti_Cross_page_prefetch_of_Requested 0.123687
Core_0_vBerti_Issued 32277605
Core_0_vBerti_InPQ_Same_page_prefetch 30006740
Core_0_vBerti_InPQ_Cross_page_prefetch 2270865
Core_0_vBerti_PQ_Drop_Rate 0.598218
Core_0_vBerti_InPQ_Cross_page_prefetch_of_Requested 0.028267
Core_0_vBerti_Cross_page_PQ_Drop_rate 0.771464
Core_0_vBerti_Cross_page_prefetch_of_Issued 0.0703542
Core_0_CP_PF_PQFULL_drop 7665704
Core_0_CP_PF_PQFULL_TLB_rescue_enqueued 5550467
Core_0_CP_PF_PQFULL_TLB_rescue_issued 5550467
Core_0_CP_PF_PQFULL_TLB_rescue_translated 5550467

========= DTLB_vBerti Prefetch Stats =========
Core_0_DTLB_demand_access 23238226
Core_0_DTLB_demand_hit 21338777
Core_0_DTLB_demand_miss 1899449
Core_0_DTLB_demand_mshr_merge 411
Core_0_DTLB_demand_fill 1899275
Core_0_DTLB_demand_miss_rate 0.0817381
Core_0_DTLB_demand_mpki 18.9945
Core_0_DTLB_vberti_prefetch_access 25111200
Core_0_DTLB_vberti_prefetch_hit 25042562
Core_0_DTLB_vberti_prefetch_miss 68638
Core_0_DTLB_vberti_prefetch_mshr_merge 26661
Core_0_DTLB_vberti_prefetch_fill 41741
Core_0_DTLB_vberti_prefetch_miss_rate 0.00273336
Core_0_DTLB_vberti_prefetch_mpki 0.68638

=== DTLB_vBerti Same/Cross-page Prefetch Stats ===
Core_0_DTLB_vberti_same_page_prefetch 19534533
Core_0_DTLB_vberti_same_page_prefetch_hit 19534533
Core_0_DTLB_vberti_same_page_prefetch_miss 0
Core_0_DTLB_vberti_same_page_prefetch_mshr_merge 0
Core_0_DTLB_vberti_same_page_prefetch_fill 0
Core_0_DTLB_vberti_same_page_prefetch_miss_rate 0
Core_0_DTLB_vberti_same_page_prefetch_mpki 0
Core_0_DTLB_vberti_cross_page_prefetch 5576667
Core_0_DTLB_vberti_cross_page_prefetch_hit 5508029
Core_0_DTLB_vberti_cross_page_prefetch_miss 68638
Core_0_DTLB_vberti_cross_page_prefetch_mshr_merge 26661
Core_0_DTLB_vberti_cross_page_prefetch_fill 41741
Core_0_DTLB_vberti_cross_page_prefetch_miss_rate 0.0123081
Core_0_DTLB_vberti_cross_page_prefetch_mpki 0.68638
Core_0_DTLB_same_page_prefetch_miss_rate 0
Core_0_DTLB_same_page_prefetch_mpki 0
Core_0_DTLB_cross_page_prefetch_miss_rate 0.0123081
Core_0_DTLB_cross_page_prefetch_mpki 0.68638
Core_0_DTLB_cross_page_prefetch_issued 5576667
Core_0_DTLB_cross_page_prefetch_lookups 5576667
Core_0_DTLB_cross_page_prefetch_useful 38924
Core_0_DTLB_cross_page_prefetch_useless 3053
Core_0_DTLB_cross_page_prefetch_late 236
Core_0_DTLB_cross_page_prefetch_too_early 285
Core_0_DTLB_cross_page_prefetch_too_early_among_fill 0.00682782
Core_0_DTLB_cross_page_prefetch_too_early_among_useless 0.0933508
Core_0_DTLB_cross_page_prefetch_pollution_evict 4309
Core_0_DTLB_cross_page_prefetch_pollution_demand 4303
Core_0_DTLB_cross_page_prefetch_pollution_among_prefetch_fill 0.103232
Core_0_DTLB_cross_page_prefetch_accuracy 0.0069798
Core_0_DTLB_cross_page_prefetch_coverage 0.0200808

========= STLB_vBerti Prefetch Stats =========
Core_0_STLB_demand_access 1899038
Core_0_STLB_demand_hit 121001
Core_0_STLB_demand_miss 1778037
Core_0_STLB_demand_mshr_merge 0
Core_0_STLB_demand_fill 1778038
Core_0_STLB_demand_miss_rate 0.936283
Core_0_STLB_demand_mpki 17.7804
Core_0_STLB_vberti_prefetch_access 41977
Core_0_STLB_vberti_prefetch_hit 31
Core_0_STLB_vberti_prefetch_miss 41946
Core_0_STLB_vberti_prefetch_mshr_merge 0
Core_0_STLB_vberti_prefetch_fill 0
Core_0_STLB_vberti_prefetch_miss_rate 0.999262
Core_0_STLB_vberti_prefetch_mpki 0.41946

=== STLB_vBerti Same/Cross-page Prefetch Stats ===
Core_0_STLB_vberti_same_page_prefetch 0
Core_0_STLB_vberti_same_page_prefetch_hit 0
Core_0_STLB_vberti_same_page_prefetch_miss 0
Core_0_STLB_vberti_same_page_prefetch_mshr_merge 0
Core_0_STLB_vberti_same_page_prefetch_fill 0
Core_0_STLB_vberti_same_page_prefetch_miss_rate 0
Core_0_STLB_vberti_same_page_prefetch_mpki 0
Core_0_STLB_vberti_cross_page_prefetch 41977
Core_0_STLB_vberti_cross_page_prefetch_hit 31
Core_0_STLB_vberti_cross_page_prefetch_miss 41946
Core_0_STLB_vberti_cross_page_prefetch_mshr_merge 0
Core_0_STLB_vberti_cross_page_prefetch_fill 0
Core_0_STLB_vberti_cross_page_prefetch_miss_rate 0.999262
Core_0_STLB_vberti_cross_page_prefetch_mpki 0.41946
Core_0_STLB_same_page_prefetch_miss_rate 0
Core_0_STLB_same_page_prefetch_mpki 0
Core_0_STLB_cross_page_prefetch_miss_rate 0.999262
Core_0_STLB_cross_page_prefetch_mpki 0.41946
Core_0_STLB_cross_page_prefetch_issued 41977
Core_0_STLB_cross_page_prefetch_lookups 41977
Core_0_STLB_cross_page_prefetch_useful 3574
Core_0_STLB_cross_page_prefetch_useless 38291
Core_0_STLB_cross_page_prefetch_late 3574
Core_0_STLB_cross_page_prefetch_too_early 0
Core_0_STLB_cross_page_prefetch_too_early_among_fill 0
Core_0_STLB_cross_page_prefetch_too_early_among_useless 0
Core_0_STLB_cross_page_prefetch_pollution_evict 0
Core_0_STLB_cross_page_prefetch_pollution_demand 0
Core_0_STLB_cross_page_prefetch_pollution_among_prefetch_fill 0
Core_0_STLB_cross_page_prefetch_accuracy 0.0851419
Core_0_STLB_cross_page_prefetch_coverage 0.00200605

========= STLB Cross-page Prefetch Buffer Stats =========
Core_0_STLB_raw_demand_miss 1778037
Core_0_CP_PB_insert 41946
Core_0_CP_PB_demand_hit 3574
Core_0_STLB_PB_demand_miss 1774463
Core_0_CP_PB_coverage 0.00201008
Core_0_STLB_raw_demand_mpki 17.7804
Core_0_STLB_PB_demand_mpki 17.7446
Core_0_CP_PB_demand_hit_mpki 0.03574

Core_0_TLB_demand_miss_rate 0.0765135
Core_0_TLB_demand_mpki 17.7804
Core_0_TLB_same_page_prefetch_miss_rate 0
Core_0_TLB_same_page_prefetch_mpki 0
Core_0_TLB_cross_page_prefetch_miss_rate 0.0075217
Core_0_TLB_cross_page_prefetch_mpki 0.41946
Core_0_TLB_cross_page_prefetch_issued 5576667
Core_0_TLB_cross_page_prefetch_lookups 5576667
Core_0_TLB_cross_page_prefetch_useful 38924
Core_0_TLB_cross_page_prefetch_useless 3053
Core_0_TLB_cross_page_prefetch_late 236
Core_0_TLB_cross_page_prefetch_too_early 285
Core_0_TLB_cross_page_prefetch_too_early_among_fill 0.00682782
Core_0_TLB_cross_page_prefetch_too_early_among_useless 0.0933508
Core_0_TLB_cross_page_prefetch_accuracy 0.0069798
Core_0_TLB_cross_page_prefetch_coverage 0.0214226
BERTI TO_L1: 82805282 TO_L2: 23161831 TO_L2_BC_MSHR: 200
BERTI AVG_LAT: 110.672 NUM_TRACK_LATENCY: 5062403 NUM_CANT_TRACK_LATENCY: 0
BERTI CROSS_PAGE 13521743 NO_CROSS_PAGE: 92445370
BERTI FOUND_BERTI: 17095672 NO_FOUND_BERTI: 13936068
BERTI AVERAGE_ISSUED: 4.42423
