[VMEM] WARNING: physical memory size is smaller than virtual memory size.

*** ChampSim Multicore Out-of-Order Simulator ***
Warmup Instructions: 50000000
Simulation Instructions: 100000000
Number of CPUs: 1
Page size: 4096
Core 0: /data2/zcq/champsim_traces_gap/cc.web-34B.champsimtrace.xz
VBerti Prefetcher
BERTI HASH ENTANGLING
BERTI IP MASK ffff
Off-chip DRAM Size: 16 GiB Channels: 1 Width: 64-bit Data Rate: 3205 MT/s
Warmup halting CPU 0 at instruction 50000002 cycle 16439511 for remainder of phase
Warmup finished CPU 0 instructions: 50000002 cycles: 16439511 cumulative IPC: 3.041 (Simulation time: 00 hr 04 min 02 sec)
Warmup complete CPU 0 instructions: 50000002 cycles: 16439511 cumulative IPC: 3.041 (Simulation time: 00 hr 04 min 02 sec)
Simulation finished CPU 0 instructions: 100000005 cycles: 105539518 cumulative IPC: 0.9475 (Simulation time: 00 hr 20 min 25 sec)
Simulation complete CPU 0 instructions: 100000005 cycles: 105539518 cumulative IPC: 0.9475 (Simulation time: 00 hr 20 min 25 sec)

ChampSim completed all CPUs

=== Simulation ===
CPU 0 runs /data2/zcq/champsim_traces_gap/cc.web-34B.champsimtrace.xz

Region of Interest Statistics

CPU 0 cumulative IPC: 0.9475 instructions: 100000005 cycles: 105539518
CPU 0 Branch Prediction Accuracy: 99.01% MPKI: 1.821 Average ROB Occupancy at Mispredict: 97.76
Branch type MPKI
BRANCH_DIRECT_JUMP: 0
BRANCH_INDIRECT: 0
BRANCH_CONDITIONAL: 1.821
BRANCH_DIRECT_CALL: 0
BRANCH_INDIRECT_CALL: 0
BRANCH_RETURN: 0

cpu0->cpu0_STLB TOTAL        ACCESS:     149516 HIT:      23750 MISS:     125766 MSHR_MERGE:          0
cpu0->cpu0_STLB LOAD         ACCESS:     149516 HIT:      23750 MISS:     125766 MSHR_MERGE:          0
cpu0->cpu0_STLB RFO          ACCESS:          0 HIT:          0 MISS:          0 MSHR_MERGE:          0
cpu0->cpu0_STLB PREFETCH     ACCESS:          0 HIT:          0 MISS:          0 MSHR_MERGE:          0
cpu0->cpu0_STLB WRITE        ACCESS:          0 HIT:          0 MISS:          0 MSHR_MERGE:          0
cpu0->cpu0_STLB TRANSLATION  ACCESS:          0 HIT:          0 MISS:          0 MSHR_MERGE:          0
cpu0->cpu0_STLB PREFETCH REQUESTED:          0 ISSUED:          0 USEFUL:          0 USELESS:          0 LATE:          0 TOO_EARLY:          0
cpu0->cpu0_STLB AVERAGE MISS LATENCY: 254.4 cycles
cpu0->cpu0_L2C TOTAL        ACCESS:    9057301 HIT:    1831981 MISS:    7225320 MSHR_MERGE:    2614148
cpu0->cpu0_L2C LOAD         ACCESS:    1458886 HIT:     447224 MISS:    1011662 MSHR_MERGE:     289470
cpu0->cpu0_L2C RFO          ACCESS:          0 HIT:          0 MISS:          0 MSHR_MERGE:          0
cpu0->cpu0_L2C PREFETCH     ACCESS:    7392880 HIT:    1202775 MISS:    6190105 MSHR_MERGE:    2324678
cpu0->cpu0_L2C WRITE        ACCESS:     177965 HIT:     177771 MISS:        194 MSHR_MERGE:          0
cpu0->cpu0_L2C TRANSLATION  ACCESS:      27570 HIT:       4211 MISS:      23359 MSHR_MERGE:          0
cpu0->cpu0_L2C PREFETCH REQUESTED:    2734553 ISSUED:    2732964 USEFUL:     356545 USELESS:     474128 LATE:     122720 TOO_EARLY:         62
cpu0->cpu0_L2C AVERAGE MISS LATENCY: 203.1 cycles
cpu0->cpu0_L1I TOTAL        ACCESS:   12857456 HIT:   12857456 MISS:          0 MSHR_MERGE:          0
cpu0->cpu0_L1I LOAD         ACCESS:   12857456 HIT:   12857456 MISS:          0 MSHR_MERGE:          0
cpu0->cpu0_L1I RFO          ACCESS:          0 HIT:          0 MISS:          0 MSHR_MERGE:          0
cpu0->cpu0_L1I PREFETCH     ACCESS:          0 HIT:          0 MISS:          0 MSHR_MERGE:          0
cpu0->cpu0_L1I WRITE        ACCESS:          0 HIT:          0 MISS:          0 MSHR_MERGE:          0
cpu0->cpu0_L1I TRANSLATION  ACCESS:          0 HIT:          0 MISS:          0 MSHR_MERGE:          0
cpu0->cpu0_L1I PREFETCH REQUESTED:          0 ISSUED:          0 USEFUL:          0 USELESS:          0 LATE:          0 TOO_EARLY:          0
cpu0->cpu0_L1I AVERAGE MISS LATENCY: - cycles
cpu0->cpu0_L1D TOTAL        ACCESS:   43796510 HIT:   37281317 MISS:    6515193 MSHR_MERGE:     285435
cpu0->cpu0_L1D LOAD         ACCESS:   21990908 HIT:   20273882 MISS:    1717026 MSHR_MERGE:     258140
cpu0->cpu0_L1D RFO          ACCESS:          0 HIT:          0 MISS:          0 MSHR_MERGE:          0
cpu0->cpu0_L1D PREFETCH     ACCESS:   19103628 HIT:   14334077 MISS:    4769551 MSHR_MERGE:      26249
cpu0->cpu0_L1D WRITE        ACCESS:    2449906 HIT:    2449906 MISS:          0 MSHR_MERGE:          0
cpu0->cpu0_L1D TRANSLATION  ACCESS:     252068 HIT:     223452 MISS:      28616 MSHR_MERGE:       1046
cpu0->cpu0_L1D PREFETCH REQUESTED:   83337994 ISSUED:   19103627 USEFUL:    1240885 USELESS:     368292 LATE:     188778 TOO_EARLY:        153
cpu0->cpu0_L1D AVERAGE MISS LATENCY: 147.6 cycles
cpu0->cpu0_ITLB TOTAL        ACCESS:   10903595 HIT:   10903595 MISS:          0 MSHR_MERGE:          0
cpu0->cpu0_ITLB LOAD         ACCESS:   10903595 HIT:   10903595 MISS:          0 MSHR_MERGE:          0
cpu0->cpu0_ITLB RFO          ACCESS:          0 HIT:          0 MISS:          0 MSHR_MERGE:          0
cpu0->cpu0_ITLB PREFETCH     ACCESS:          0 HIT:          0 MISS:          0 MSHR_MERGE:          0
cpu0->cpu0_ITLB WRITE        ACCESS:          0 HIT:          0 MISS:          0 MSHR_MERGE:          0
cpu0->cpu0_ITLB TRANSLATION  ACCESS:          0 HIT:          0 MISS:          0 MSHR_MERGE:          0
cpu0->cpu0_ITLB PREFETCH REQUESTED:          0 ISSUED:          0 USEFUL:          0 USELESS:          0 LATE:          0 TOO_EARLY:          0
cpu0->cpu0_ITLB AVERAGE MISS LATENCY: - cycles
cpu0->cpu0_DTLB TOTAL        ACCESS:   38893036 HIT:   37808288 MISS:    1084748 MSHR_MERGE:     935231
cpu0->cpu0_DTLB LOAD         ACCESS:   38893036 HIT:   37808288 MISS:    1084748 MSHR_MERGE:     935231
cpu0->cpu0_DTLB RFO          ACCESS:          0 HIT:          0 MISS:          0 MSHR_MERGE:          0
cpu0->cpu0_DTLB PREFETCH     ACCESS:          0 HIT:          0 MISS:          0 MSHR_MERGE:          0
cpu0->cpu0_DTLB WRITE        ACCESS:          0 HIT:          0 MISS:          0 MSHR_MERGE:          0
cpu0->cpu0_DTLB TRANSLATION  ACCESS:          0 HIT:          0 MISS:          0 MSHR_MERGE:          0
cpu0->cpu0_DTLB PREFETCH REQUESTED:          0 ISSUED:          0 USEFUL:          0 USELESS:          0 LATE:          0 TOO_EARLY:          0
cpu0->cpu0_DTLB AVERAGE MISS LATENCY: 218.5 cycles
cpu0->LLC TOTAL        ACCESS:    4787029 HIT:     190142 MISS:    4596887 MSHR_MERGE:     293109
cpu0->LLC LOAD         ACCESS:     722191 HIT:      42017 MISS:     680174 MSHR_MERGE:      18029
cpu0->LLC RFO          ACCESS:          0 HIT:          0 MISS:          0 MSHR_MERGE:          0
cpu0->LLC PREFETCH     ACCESS:    3865401 HIT:      80070 MISS:    3785331 MSHR_MERGE:     275080
cpu0->LLC WRITE        ACCESS:     176078 HIT:      66669 MISS:     109409 MSHR_MERGE:          0
cpu0->LLC TRANSLATION  ACCESS:      23359 HIT:       1386 MISS:      21973 MSHR_MERGE:          0
cpu0->LLC PREFETCH REQUESTED:          0 ISSUED:          0 USEFUL:          0 USELESS:          0 LATE:          0 TOO_EARLY:          0
cpu0->LLC AVERAGE MISS LATENCY: 193.8 cycles

DRAM Statistics

Channel 0 RQ ROW_BUFFER_HIT:     813528
  ROW_BUFFER_MISS:    3380785
  AVG DBUS CONGESTED CYCLE: 4.555
Channel 0 WQ ROW_BUFFER_HIT:      25648
  ROW_BUFFER_MISS:     144183
  FULL:          0
Channel 0 REFRESHES ISSUED:       8795

[ROI Statistics]
[System Configuration]
num_cpus 1
cpu_freq 4000
fetch_width 6
decode_width 6
dispatch_width 6
execute_width 6
lq_width 2
sq_width 2
retire_width 6
scheduler_size 128
branch_mispredict_penalty 15
rob_size 352
lq_size 128
sq_size 72
ifetch_buffer_size 64
decode_buffer_size 32
dispatch_buffer_size 32
register_file_size 288
decode_latency 1
dispatch_latency 1
schedule_latency 1
execute_latency 1
page_size 4096
block_size 64
core_0_itlb_set 16
core_0_itlb_way 4
core_0_itlb_rq_size 16
core_0_itlb_wq_size 16
core_0_itlb_pq_size 0
core_0_itlb_mshr_size 8
core_0_itlb_hit_latency 1
core_0_itlb_fill_latency 1
core_0_itlb_max_tag_check 2
core_0_itlb_max_fill 2
core_0_dtlb_set 16
core_0_dtlb_way 4
core_0_dtlb_rq_size 16
core_0_dtlb_wq_size 16
core_0_dtlb_pq_size 0
core_0_dtlb_mshr_size 8
core_0_dtlb_hit_latency 1
core_0_dtlb_fill_latency 1
core_0_dtlb_max_tag_check 2
core_0_dtlb_max_fill 2
core_0_stlb_set 128
core_0_stlb_way 12
core_0_stlb_rq_size 32
core_0_stlb_wq_size 32
core_0_stlb_pq_size 0
core_0_stlb_mshr_size 16
core_0_stlb_hit_latency 4
core_0_stlb_fill_latency 4
core_0_stlb_max_tag_check 1
core_0_stlb_max_fill 1
core_0_l1i_set 64
core_0_l1i_way 8
core_0_l1i_rq_size 64
core_0_l1i_wq_size 64
core_0_l1i_pq_size 32
core_0_l1i_mshr_size 8
core_0_l1i_hit_latency 2
core_0_l1i_fill_latency 2
core_0_l1i_max_tag_check 2
core_0_l1i_max_fill 2
core_0_l1d_set 64
core_0_l1d_way 12
core_0_l1d_rq_size 64
core_0_l1d_wq_size 64
core_0_l1d_pq_size 8
core_0_l1d_mshr_size 16
core_0_l1d_hit_latency 2
core_0_l1d_fill_latency 3
core_0_l1d_max_tag_check 2
core_0_l1d_max_fill 2
core_0_l2c_set 1024
core_0_l2c_way 8
core_0_l2c_rq_size 32
core_0_l2c_wq_size 32
core_0_l2c_pq_size 16
core_0_l2c_mshr_size 32
core_0_l2c_hit_latency 5
core_0_l2c_fill_latency 5
core_0_l2c_max_tag_check 1
core_0_l2c_max_fill 1
llc_set 2048
llc_way 16
llc_rq_size 32
llc_wq_size 32
llc_pq_size 32
llc_mshr_size 64
llc_hit_latency 10
llc_fill_latency 10
llc_max_tag_check 1
llc_max_fill 1
dram_channels 1
dram_ranks 1
dram_bankgroups 8
dram_banks 4
dram_rows 65536
dram_columns 1024
dram_channel_width 8
dram_rq_size 64
dram_wq_size 64
dram_size 17179869184
core_0_itlb_prefetcher no
core_0_dtlb_prefetcher no
core_0_stlb_prefetcher no
core_0_l1i_prefetcher next_line
core_0_l1d_prefetcher vberti
core_0_l2c_prefetcher ip_stride
llc_prefetcher no
llc_replacement drrip

Core_0_instructions 100000005
Core_0_cycles 105539518
Core_0_IPC 0.947512
Core_0_branch_prediction_accuracy 99.0084
Core_0_branch_MPKI 1.82094
Core_0_average_ROB_occupancy_at_mispredict 97.7579

Core_0_ITLB_total_access 10903595
Core_0_ITLB_total_hit 10903595
Core_0_ITLB_total_miss 0
Core_0_ITLB_total_MPKI 0
Core_0_ITLB_total_miss_rate 0
Core_0_ITLB_demand_access 10903595
Core_0_ITLB_demand_hit 10903595
Core_0_ITLB_demand_miss 0
Core_0_ITLB_demand_MPKI 0
Core_0_ITLB_demand_miss_rate 0
Core_0_ITLB_load_access 10903595
Core_0_ITLB_load_hit 10903595
Core_0_ITLB_load_miss 0
Core_0_ITLB_load_MPKI 0
Core_0_ITLB_load_miss_rate 0
Core_0_ITLB_rfo_access 0
Core_0_ITLB_rfo_hit 0
Core_0_ITLB_rfo_miss 0
Core_0_ITLB_rfo_MPKI 0
Core_0_ITLB_rfo_miss_rate 0
Core_0_ITLB_prefetch_access 0
Core_0_ITLB_prefetch_hit 0
Core_0_ITLB_prefetch_miss 0
Core_0_ITLB_prefetch_MPKI 0
Core_0_ITLB_prefetch_miss_rate 0
Core_0_ITLB_writeback_access 0
Core_0_ITLB_writeback_hit 0
Core_0_ITLB_writeback_miss 0
Core_0_ITLB_writeback_MPKI 0
Core_0_ITLB_writeback_miss_rate 0
Core_0_ITLB_prefetch_requested 0
Core_0_ITLB_prefetch_issued 0
Core_0_ITLB_prefetch_useful 0
Core_0_ITLB_prefetch_useless 0
Core_0_ITLB_prefetch_late 0
Core_0_ITLB_prefetch_fill 0
Core_0_ITLB_prefetch_too_early 0
Core_0_ITLB_prefetch_too_early_among_fill 0
Core_0_ITLB_prefetch_too_early_among_useless 0
Core_0_ITLB_prefetch_pollution_evict 0
Core_0_ITLB_prefetch_pollution_demand 0
Core_0_ITLB_prefetch_pollution_among_prefetch_fill 0
Core_0_ITLB_prefetch_accuracy 0
Core_0_ITLB_prefetch_coverage 0

Core_0_DTLB_total_access 38893036
Core_0_DTLB_total_hit 37808288
Core_0_DTLB_total_miss 1084748
Core_0_DTLB_total_MPKI 10.8475
Core_0_DTLB_total_miss_rate 0.0278905
Core_0_DTLB_demand_access 38893036
Core_0_DTLB_demand_hit 37808288
Core_0_DTLB_demand_miss 1084748
Core_0_DTLB_demand_MPKI 10.8475
Core_0_DTLB_demand_miss_rate 0.0278905
Core_0_DTLB_load_access 38893036
Core_0_DTLB_load_hit 37808288
Core_0_DTLB_load_miss 1084748
Core_0_DTLB_load_MPKI 10.8475
Core_0_DTLB_load_miss_rate 0.0278905
Core_0_DTLB_rfo_access 0
Core_0_DTLB_rfo_hit 0
Core_0_DTLB_rfo_miss 0
Core_0_DTLB_rfo_MPKI 0
Core_0_DTLB_rfo_miss_rate 0
Core_0_DTLB_prefetch_access 0
Core_0_DTLB_prefetch_hit 0
Core_0_DTLB_prefetch_miss 0
Core_0_DTLB_prefetch_MPKI 0
Core_0_DTLB_prefetch_miss_rate 0
Core_0_DTLB_writeback_access 0
Core_0_DTLB_writeback_hit 0
Core_0_DTLB_writeback_miss 0
Core_0_DTLB_writeback_MPKI 0
Core_0_DTLB_writeback_miss_rate 0
Core_0_DTLB_prefetch_requested 0
Core_0_DTLB_prefetch_issued 0
Core_0_DTLB_prefetch_useful 0
Core_0_DTLB_prefetch_useless 0
Core_0_DTLB_prefetch_late 0
Core_0_DTLB_prefetch_fill 0
Core_0_DTLB_prefetch_too_early 0
Core_0_DTLB_prefetch_too_early_among_fill 0
Core_0_DTLB_prefetch_too_early_among_useless 0
Core_0_DTLB_prefetch_pollution_evict 0
Core_0_DTLB_prefetch_pollution_demand 0
Core_0_DTLB_prefetch_pollution_among_prefetch_fill 0
Core_0_DTLB_prefetch_accuracy 0
Core_0_DTLB_prefetch_coverage 0

Core_0_STLB_total_access 149516
Core_0_STLB_total_hit 23750
Core_0_STLB_total_miss 125766
Core_0_STLB_total_MPKI 1.25766
Core_0_STLB_total_miss_rate 0.841154
Core_0_STLB_demand_access 149516
Core_0_STLB_demand_hit 23750
Core_0_STLB_demand_miss 125766
Core_0_STLB_demand_MPKI 1.25766
Core_0_STLB_demand_miss_rate 0.841154
Core_0_STLB_load_access 149516
Core_0_STLB_load_hit 23750
Core_0_STLB_load_miss 125766
Core_0_STLB_load_MPKI 1.25766
Core_0_STLB_load_miss_rate 0.841154
Core_0_STLB_rfo_access 0
Core_0_STLB_rfo_hit 0
Core_0_STLB_rfo_miss 0
Core_0_STLB_rfo_MPKI 0
Core_0_STLB_rfo_miss_rate 0
Core_0_STLB_prefetch_access 0
Core_0_STLB_prefetch_hit 0
Core_0_STLB_prefetch_miss 0
Core_0_STLB_prefetch_MPKI 0
Core_0_STLB_prefetch_miss_rate 0
Core_0_STLB_writeback_access 0
Core_0_STLB_writeback_hit 0
Core_0_STLB_writeback_miss 0
Core_0_STLB_writeback_MPKI 0
Core_0_STLB_writeback_miss_rate 0
Core_0_STLB_prefetch_requested 0
Core_0_STLB_prefetch_issued 0
Core_0_STLB_prefetch_useful 0
Core_0_STLB_prefetch_useless 0
Core_0_STLB_prefetch_late 0
Core_0_STLB_prefetch_fill 0
Core_0_STLB_prefetch_too_early 0
Core_0_STLB_prefetch_too_early_among_fill 0
Core_0_STLB_prefetch_too_early_among_useless 0
Core_0_STLB_prefetch_pollution_evict 0
Core_0_STLB_prefetch_pollution_demand 0
Core_0_STLB_prefetch_pollution_among_prefetch_fill 0
Core_0_STLB_prefetch_accuracy 0
Core_0_STLB_prefetch_coverage 0

Core_0_L1I_total_access 12857456
Core_0_L1I_total_hit 12857456
Core_0_L1I_total_miss 0
Core_0_L1I_total_MPKI 0
Core_0_L1I_total_miss_rate 0
Core_0_L1I_demand_access 12857456
Core_0_L1I_demand_hit 12857456
Core_0_L1I_demand_miss 0
Core_0_L1I_demand_MPKI 0
Core_0_L1I_demand_miss_rate 0
Core_0_L1I_load_access 12857456
Core_0_L1I_load_hit 12857456
Core_0_L1I_load_miss 0
Core_0_L1I_load_MPKI 0
Core_0_L1I_load_miss_rate 0
Core_0_L1I_rfo_access 0
Core_0_L1I_rfo_hit 0
Core_0_L1I_rfo_miss 0
Core_0_L1I_rfo_MPKI 0
Core_0_L1I_rfo_miss_rate 0
Core_0_L1I_prefetch_access 0
Core_0_L1I_prefetch_hit 0
Core_0_L1I_prefetch_miss 0
Core_0_L1I_prefetch_MPKI 0
Core_0_L1I_prefetch_miss_rate 0
Core_0_L1I_writeback_access 0
Core_0_L1I_writeback_hit 0
Core_0_L1I_writeback_miss 0
Core_0_L1I_writeback_MPKI 0
Core_0_L1I_writeback_miss_rate 0
Core_0_L1I_prefetch_requested 0
Core_0_L1I_prefetch_issued 0
Core_0_L1I_prefetch_useful 0
Core_0_L1I_prefetch_useless 0
Core_0_L1I_prefetch_late 0
Core_0_L1I_prefetch_fill 0
Core_0_L1I_prefetch_too_early 0
Core_0_L1I_prefetch_too_early_among_fill 0
Core_0_L1I_prefetch_too_early_among_useless 0
Core_0_L1I_prefetch_pollution_evict 0
Core_0_L1I_prefetch_pollution_demand 0
Core_0_L1I_prefetch_pollution_among_prefetch_fill 0
Core_0_L1I_prefetch_accuracy 0
Core_0_L1I_prefetch_coverage 0

Core_0_L1D_total_access 43544442
Core_0_L1D_total_hit 37057865
Core_0_L1D_total_miss 6486577
Core_0_L1D_total_MPKI 64.8658
Core_0_L1D_total_miss_rate 0.148965
Core_0_L1D_demand_access 21990908
Core_0_L1D_demand_hit 20273882
Core_0_L1D_demand_miss 1717026
Core_0_L1D_demand_MPKI 17.1703
Core_0_L1D_demand_miss_rate 0.0780789
Core_0_L1D_load_access 21990908
Core_0_L1D_load_hit 20273882
Core_0_L1D_load_miss 1717026
Core_0_L1D_load_MPKI 17.1703
Core_0_L1D_load_miss_rate 0.0780789
Core_0_L1D_rfo_access 0
Core_0_L1D_rfo_hit 0
Core_0_L1D_rfo_miss 0
Core_0_L1D_rfo_MPKI 0
Core_0_L1D_rfo_miss_rate 0
Core_0_L1D_prefetch_access 19103628
Core_0_L1D_prefetch_hit 14334077
Core_0_L1D_prefetch_miss 4769551
Core_0_L1D_prefetch_MPKI 47.6955
Core_0_L1D_prefetch_miss_rate 0.249667
Core_0_L1D_writeback_access 2449906
Core_0_L1D_writeback_hit 2449906
Core_0_L1D_writeback_miss 0
Core_0_L1D_writeback_MPKI 0
Core_0_L1D_writeback_miss_rate 0
Core_0_L1D_prefetch_requested 83337994
Core_0_L1D_prefetch_issued 19103627
Core_0_L1D_prefetch_useful 1240885
Core_0_L1D_prefetch_useless 368292
Core_0_L1D_prefetch_late 188778
Core_0_L1D_prefetch_fill 1420426
Core_0_L1D_prefetch_too_early 153
Core_0_L1D_prefetch_too_early_among_fill 0.000107714
Core_0_L1D_prefetch_too_early_among_useless 0.000415431
Core_0_L1D_prefetch_pollution_evict 12772
Core_0_L1D_prefetch_pollution_demand 12735
Core_0_L1D_prefetch_pollution_among_prefetch_fill 0.00899167
Core_0_L1D_prefetch_accuracy 0.0649555
Core_0_L1D_prefetch_coverage 0.419514

Core_0_L2C_total_access 9029731
Core_0_L2C_total_hit 1827770
Core_0_L2C_total_miss 7201961
Core_0_L2C_total_MPKI 72.0196
Core_0_L2C_total_miss_rate 0.797583
Core_0_L2C_demand_access 1458886
Core_0_L2C_demand_hit 447224
Core_0_L2C_demand_miss 1011662
Core_0_L2C_demand_MPKI 10.1166
Core_0_L2C_demand_miss_rate 0.693448
Core_0_L2C_load_access 1458886
Core_0_L2C_load_hit 447224
Core_0_L2C_load_miss 1011662
Core_0_L2C_load_MPKI 10.1166
Core_0_L2C_load_miss_rate 0.693448
Core_0_L2C_rfo_access 0
Core_0_L2C_rfo_hit 0
Core_0_L2C_rfo_miss 0
Core_0_L2C_rfo_MPKI 0
Core_0_L2C_rfo_miss_rate 0
Core_0_L2C_prefetch_access 7392880
Core_0_L2C_prefetch_hit 1202775
Core_0_L2C_prefetch_miss 6190105
Core_0_L2C_prefetch_MPKI 61.901
Core_0_L2C_prefetch_miss_rate 0.837306
Core_0_L2C_writeback_access 177965
Core_0_L2C_writeback_hit 177771
Core_0_L2C_writeback_miss 194
Core_0_L2C_writeback_MPKI 0.00194
Core_0_L2C_writeback_miss_rate 0.0010901
Core_0_L2C_prefetch_requested 2734553
Core_0_L2C_prefetch_issued 2732964
Core_0_L2C_prefetch_useful 356545
Core_0_L2C_prefetch_useless 474128
Core_0_L2C_prefetch_late 122720
Core_0_L2C_prefetch_fill 3127712
Core_0_L2C_prefetch_too_early 62
Core_0_L2C_prefetch_too_early_among_fill 1.98228e-05
Core_0_L2C_prefetch_too_early_among_useless 0.000130766
Core_0_L2C_prefetch_pollution_evict 14364
Core_0_L2C_prefetch_pollution_demand 14332
Core_0_L2C_prefetch_pollution_among_prefetch_fill 0.00459249
Core_0_L2C_prefetch_accuracy 0.130461
Core_0_L2C_prefetch_coverage 0.260593

Core_0_LLC_total_access 4763670
Core_0_LLC_total_hit 188756
Core_0_LLC_total_miss 4574914
Core_0_LLC_total_MPKI 45.7491
Core_0_LLC_total_miss_rate 0.960376
Core_0_LLC_demand_access 722191
Core_0_LLC_demand_hit 42017
Core_0_LLC_demand_miss 680174
Core_0_LLC_demand_MPKI 6.80174
Core_0_LLC_demand_miss_rate 0.94182
Core_0_LLC_load_access 722191
Core_0_LLC_load_hit 42017
Core_0_LLC_load_miss 680174
Core_0_LLC_load_MPKI 6.80174
Core_0_LLC_load_miss_rate 0.94182
Core_0_LLC_rfo_access 0
Core_0_LLC_rfo_hit 0
Core_0_LLC_rfo_miss 0
Core_0_LLC_rfo_MPKI 0
Core_0_LLC_rfo_miss_rate 0
Core_0_LLC_prefetch_access 3865401
Core_0_LLC_prefetch_hit 80070
Core_0_LLC_prefetch_miss 3785331
Core_0_LLC_prefetch_MPKI 37.8533
Core_0_LLC_prefetch_miss_rate 0.979285
Core_0_LLC_writeback_access 176078
Core_0_LLC_writeback_hit 66669
Core_0_LLC_writeback_miss 109409
Core_0_LLC_writeback_MPKI 1.09409
Core_0_LLC_writeback_miss_rate 0.621367
Core_0_LLC_prefetch_requested 0
Core_0_LLC_prefetch_issued 0
Core_0_LLC_prefetch_useful 0
Core_0_LLC_prefetch_useless 0
Core_0_LLC_prefetch_late 0
Core_0_LLC_prefetch_fill 3492219
Core_0_LLC_prefetch_too_early 0
Core_0_LLC_prefetch_too_early_among_fill 0
Core_0_LLC_prefetch_too_early_among_useless 0
Core_0_LLC_prefetch_pollution_evict 4298
Core_0_LLC_prefetch_pollution_demand 4298
Core_0_LLC_prefetch_pollution_among_prefetch_fill 0.00123074
Core_0_LLC_prefetch_accuracy 0
Core_0_LLC_prefetch_coverage 0

[DRAM Statistics]
Channel_0_RQ_row_buffer_hit 813528
Channel_0_RQ_row_buffer_miss 3380785
Channel_0_WQ_row_buffer_hit 25648
Channel_0_WQ_row_buffer_miss 144183
Channel_0_WQ_full 0
Channel_0_dbus_congested 10439585
DRAM_total_RQ_row_buffer_hit 813528
DRAM_total_RQ_row_buffer_miss 3380785
DRAM_total_WQ_row_buffer_hit 25648
DRAM_total_WQ_row_buffer_miss 144183
DRAM_total_WQ_full 0
DRAM_total_dbus_congested 10439585
DRAM_avg_congested_cycle 4.5551

====== DRAM_RQ_TRAFFIC ========
DRAM_RQ_READ_TRAFFIC_BREAKDOWN:
data_demand_read.count = 662145
data_demand_read.share = 15.79%

inst_demand_read.count = 0
inst_demand_read.share = 0.00%

cache_inst_prefetch.count = 0
cache_inst_prefetch.share = 0.00%

cache_data_prefetch.count = 3510251
cache_data_prefetch.share = 83.69%

stlb_data_demand.count = 9187
stlb_data_demand.share = 0.22%

stlb_inst_demand.count = 0
stlb_inst_demand.share = 0.00%

stlb_l1i_pref.count = 0
stlb_l1i_pref.share = 0.00%

stlb_l1d_pref.count = 12786
stlb_l1d_pref.share = 0.30%

DRAM_RQ_READ_TRAFFIC_SUMMARY:
cache_demand.count = 662145
cache_demand.share = 15.79%

cache_prefetch.count = 3510251
cache_prefetch.share = 83.69%

stlb_demand.count = 9187
stlb_demand.share = 0.22%

stlb_prefetch.count = 12786
stlb_prefetch.share = 0.30%

DRAM_RQ_READ_TRAFFIC_DEBUG:
total_classified_read.count = 4194369
unclassified_read.count = 0
total_read_with_other.count = 4194369

classified_plus_unclassified_check.count = 4194369
dram_rq_read_total_observed.count = 4194369
dram_rq_read_total_observed.per_1K_instructions = 41.9437

STLB_MISS_PTW_DRAM_TOUCH_BREAKDOWN:
stlb_miss_total.count = 125009

stlb_miss_touch_dram.count = 21686
stlb_miss_touch_dram.share = 17.35%

stlb_miss_no_dram_touch.count = 103323
stlb_miss_no_dram_touch.share = 82.65%

STLB_MISS_PTW_DRAM_TOUCH_DEBUG:
stlb_miss_touch_plus_no_touch.count = 125009
stlb_miss_total_check.count = 125009

======STLB miss causes ========
Core_0_STLB_miss_cause_breakdown
Core_0_STLB_cause_Demand_Data_miss 24602
Core_0_STLB_cause_Demand_Data_miss_rate 0.164544
Core_0_STLB_cause_Demand_Instruction_miss 0
Core_0_STLB_cause_Demand_Instruction_miss_rate 0
Core_0_STLB_cause_L1D_Prefetch_miss 101164
Core_0_STLB_cause_L1D_Prefetch_miss_rate 0.67661
Core_0_STLB_cause_L1D_Prefetch_Same_Page_miss 0
Core_0_STLB_cause_L1D_Prefetch_Same_Page_miss_rate 0
Core_0_STLB_cause_L1D_Prefetch_Cross_Page_miss 101164
Core_0_STLB_cause_L1D_Prefetch_Cross_Page_miss_rate 0.67661
Core_0_STLB_cause_L1I_Prefetch_miss 0
Core_0_STLB_cause_L1I_Prefetch_miss_rate 0
Core_0_STLB_cause_Other_miss 0
Core_0_STLB_cause_Other_miss_rate 0
Core_0_STLB_Demand_miss 24602
Core_0_STLB_Demand_miss_rate 0.164544
Core_0_STLB_L1D_Prefetch_miss 101164
Core_0_STLB_L1D_Prefetch_miss_rate 0.67661
Core_0_STLB_Other_miss 0
Core_0_STLB_Other_miss_rate 0

========== vBerti-TLB Cross-page Flow Stats ==========

Core_0_vBerti_Requested 83337994
Core_0_vBerti_Cross_page_prefetch_in_Requested 13249734
Core_0_vBerti_Same_page_prefetch_in_Requested 70088260
Core_0_vBerti_Cross_page_prefetch_of_Requested 0.158988
Core_0_vBerti_Issued 19103627
Core_0_vBerti_InPQ_Same_page_prefetch 16685578
Core_0_vBerti_InPQ_Cross_page_prefetch 2418049
Core_0_vBerti_PQ_Drop_Rate 0.770769
Core_0_vBerti_InPQ_Cross_page_prefetch_of_Requested 0.029015
Core_0_vBerti_Cross_page_PQ_Drop_rate 0.817502
Core_0_vBerti_Cross_page_prefetch_of_Issued 0.126575
Core_0_CP_PF_PQFULL_drop 10831685
Core_0_CP_PF_PQFULL_TLB_rescue_enqueued 6170561
Core_0_CP_PF_PQFULL_TLB_rescue_issued 6170561
Core_0_CP_PF_PQFULL_TLB_rescue_translated 6170558

========= DTLB_vBerti Prefetch Stats =========
Core_0_DTLB_demand_access 22805562
Core_0_DTLB_demand_hit 22656184
Core_0_DTLB_demand_miss 149378
Core_0_DTLB_demand_mshr_merge 101527
Core_0_DTLB_demand_fill 64744
Core_0_DTLB_demand_miss_rate 0.00655007
Core_0_DTLB_demand_mpki 1.49378
Core_0_DTLB_vberti_prefetch_access 16087474
Core_0_DTLB_vberti_prefetch_hit 15152104
Core_0_DTLB_vberti_prefetch_miss 935370
Core_0_DTLB_vberti_prefetch_mshr_merge 833704
Core_0_DTLB_vberti_prefetch_fill 84772
Core_0_DTLB_vberti_prefetch_miss_rate 0.0581428
Core_0_DTLB_vberti_prefetch_mpki 9.3537

=== DTLB_vBerti Same/Cross-page Prefetch Stats ===
Core_0_DTLB_vberti_same_page_prefetch 11471873
Core_0_DTLB_vberti_same_page_prefetch_hit 11471873
Core_0_DTLB_vberti_same_page_prefetch_miss 0
Core_0_DTLB_vberti_same_page_prefetch_mshr_merge 0
Core_0_DTLB_vberti_same_page_prefetch_fill 0
Core_0_DTLB_vberti_same_page_prefetch_miss_rate 0
Core_0_DTLB_vberti_same_page_prefetch_mpki 0
Core_0_DTLB_vberti_cross_page_prefetch 4615601
Core_0_DTLB_vberti_cross_page_prefetch_hit 3680231
Core_0_DTLB_vberti_cross_page_prefetch_miss 935370
Core_0_DTLB_vberti_cross_page_prefetch_mshr_merge 833704
Core_0_DTLB_vberti_cross_page_prefetch_fill 84772
Core_0_DTLB_vberti_cross_page_prefetch_miss_rate 0.202654
Core_0_DTLB_vberti_cross_page_prefetch_mpki 9.3537
Core_0_DTLB_same_page_prefetch_miss_rate 0
Core_0_DTLB_same_page_prefetch_mpki 0
Core_0_DTLB_cross_page_prefetch_miss_rate 0.202654
Core_0_DTLB_cross_page_prefetch_mpki 9.3537
Core_0_DTLB_cross_page_prefetch_issued 4615601
Core_0_DTLB_cross_page_prefetch_lookups 4615601
Core_0_DTLB_cross_page_prefetch_useful 101448
Core_0_DTLB_cross_page_prefetch_useless 218
Core_0_DTLB_cross_page_prefetch_late 16893
Core_0_DTLB_cross_page_prefetch_too_early 34
Core_0_DTLB_cross_page_prefetch_too_early_among_fill 0.000401076
Core_0_DTLB_cross_page_prefetch_too_early_among_useless 0.155963
Core_0_DTLB_cross_page_prefetch_pollution_evict 4983
Core_0_DTLB_cross_page_prefetch_pollution_demand 4710
Core_0_DTLB_cross_page_prefetch_pollution_among_prefetch_fill 0.0587812
Core_0_DTLB_cross_page_prefetch_accuracy 0.0219794
Core_0_DTLB_cross_page_prefetch_coverage 0.404456

========= STLB_vBerti Prefetch Stats =========
Core_0_STLB_demand_access 47851
Core_0_STLB_demand_hit 23249
Core_0_STLB_demand_miss 24602
Core_0_STLB_demand_mshr_merge 0
Core_0_STLB_demand_fill 24602
Core_0_STLB_demand_miss_rate 0.514138
Core_0_STLB_demand_mpki 0.24602
Core_0_STLB_vberti_prefetch_access 101665
Core_0_STLB_vberti_prefetch_hit 501
Core_0_STLB_vberti_prefetch_miss 101164
Core_0_STLB_vberti_prefetch_mshr_merge 0
Core_0_STLB_vberti_prefetch_fill 0
Core_0_STLB_vberti_prefetch_miss_rate 0.995072
Core_0_STLB_vberti_prefetch_mpki 1.01164

=== STLB_vBerti Same/Cross-page Prefetch Stats ===
Core_0_STLB_vberti_same_page_prefetch 0
Core_0_STLB_vberti_same_page_prefetch_hit 0
Core_0_STLB_vberti_same_page_prefetch_miss 0
Core_0_STLB_vberti_same_page_prefetch_mshr_merge 0
Core_0_STLB_vberti_same_page_prefetch_fill 0
Core_0_STLB_vberti_same_page_prefetch_miss_rate 0
Core_0_STLB_vberti_same_page_prefetch_mpki 0
Core_0_STLB_vberti_cross_page_prefetch 101665
Core_0_STLB_vberti_cross_page_prefetch_hit 501
Core_0_STLB_vberti_cross_page_prefetch_miss 101164
Core_0_STLB_vberti_cross_page_prefetch_mshr_merge 0
Core_0_STLB_vberti_cross_page_prefetch_fill 0
Core_0_STLB_vberti_cross_page_prefetch_miss_rate 0.995072
Core_0_STLB_vberti_cross_page_prefetch_mpki 1.01164
Core_0_STLB_same_page_prefetch_miss_rate 0
Core_0_STLB_same_page_prefetch_mpki 0
Core_0_STLB_cross_page_prefetch_miss_rate 0.995072
Core_0_STLB_cross_page_prefetch_mpki 1.01164
Core_0_STLB_cross_page_prefetch_issued 101665
Core_0_STLB_cross_page_prefetch_lookups 101665
Core_0_STLB_cross_page_prefetch_useful 757
Core_0_STLB_cross_page_prefetch_useless 100395
Core_0_STLB_cross_page_prefetch_late 757
Core_0_STLB_cross_page_prefetch_too_early 0
Core_0_STLB_cross_page_prefetch_too_early_among_fill 0
Core_0_STLB_cross_page_prefetch_too_early_among_useless 0
Core_0_STLB_cross_page_prefetch_pollution_evict 0
Core_0_STLB_cross_page_prefetch_pollution_demand 0
Core_0_STLB_cross_page_prefetch_pollution_among_prefetch_fill 0
Core_0_STLB_cross_page_prefetch_accuracy 0.00744602
Core_0_STLB_cross_page_prefetch_coverage 0.0298513

========= STLB Cross-page Prefetch Buffer Stats =========
Core_0_STLB_raw_demand_miss 24602
Core_0_CP_PB_insert 101164
Core_0_CP_PB_demand_hit 757
Core_0_STLB_PB_demand_miss 23845
Core_0_CP_PB_coverage 0.0307699
Core_0_STLB_raw_demand_mpki 0.24602
Core_0_STLB_PB_demand_mpki 0.23845
Core_0_CP_PB_demand_hit_mpki 0.00757

Core_0_TLB_demand_miss_rate 0.00107877
Core_0_TLB_demand_mpki 0.24602
Core_0_TLB_same_page_prefetch_miss_rate 0
Core_0_TLB_same_page_prefetch_mpki 0
Core_0_TLB_cross_page_prefetch_miss_rate 0.0219178
Core_0_TLB_cross_page_prefetch_mpki 1.01164
Core_0_TLB_cross_page_prefetch_issued 4615601
Core_0_TLB_cross_page_prefetch_lookups 4615601
Core_0_TLB_cross_page_prefetch_useful 101435
Core_0_TLB_cross_page_prefetch_useless 155
Core_0_TLB_cross_page_prefetch_late 16893
Core_0_TLB_cross_page_prefetch_too_early 25
Core_0_TLB_cross_page_prefetch_too_early_among_fill 0.000294909
Core_0_TLB_cross_page_prefetch_too_early_among_useless 0.16129
Core_0_TLB_cross_page_prefetch_accuracy 0.0219766
Core_0_TLB_cross_page_prefetch_coverage 0.804803
BERTI TO_L1: 88674340 TO_L2: 25785761 TO_L2_BC_MSHR: 6931776
BERTI AVG_LAT: 138.305 NUM_TRACK_LATENCY: 4501190 NUM_CANT_TRACK_LATENCY: 0
BERTI CROSS_PAGE 18685886 NO_CROSS_PAGE: 95774215
BERTI FOUND_BERTI: 20206954 NO_FOUND_BERTI: 12868888
BERTI AVERAGE_ISSUED: 3.31528
