[VMEM] WARNING: physical memory size is smaller than virtual memory size.

*** ChampSim Multicore Out-of-Order Simulator ***
Warmup Instructions: 50000000
Simulation Instructions: 100000000
Number of CPUs: 1
Page size: 4096
Core 0: /data2/zcq/champsim_traces_gap/cc.web-99B.champsimtrace.xz
VBerti Prefetcher
BERTI HASH ENTANGLING
BERTI IP MASK ffff
Off-chip DRAM Size: 16 GiB Channels: 1 Width: 64-bit Data Rate: 3205 MT/s
Warmup halting CPU 0 at instruction 50000002 cycle 13307158 for remainder of phase
Warmup finished CPU 0 instructions: 50000002 cycles: 13307158 cumulative IPC: 3.757 (Simulation time: 00 hr 03 min 13 sec)
Warmup complete CPU 0 instructions: 50000002 cycles: 13307158 cumulative IPC: 3.757 (Simulation time: 00 hr 03 min 13 sec)
Simulation finished CPU 0 instructions: 100000002 cycles: 108154368 cumulative IPC: 0.9246 (Simulation time: 00 hr 19 min 55 sec)
Simulation complete CPU 0 instructions: 100000002 cycles: 108154368 cumulative IPC: 0.9246 (Simulation time: 00 hr 19 min 55 sec)

ChampSim completed all CPUs

=== Simulation ===
CPU 0 runs /data2/zcq/champsim_traces_gap/cc.web-99B.champsimtrace.xz

Region of Interest Statistics

CPU 0 cumulative IPC: 0.9246 instructions: 100000002 cycles: 108154368
CPU 0 Branch Prediction Accuracy: 99.03% MPKI: 1.788 Average ROB Occupancy at Mispredict: 106.2
Branch type MPKI
BRANCH_DIRECT_JUMP: 0
BRANCH_INDIRECT: 0
BRANCH_CONDITIONAL: 1.788
BRANCH_DIRECT_CALL: 0
BRANCH_INDIRECT_CALL: 0
BRANCH_RETURN: 0

cpu0->cpu0_STLB TOTAL        ACCESS:     147271 HIT:      19929 MISS:     127342 MSHR_MERGE:          0
cpu0->cpu0_STLB LOAD         ACCESS:     147271 HIT:      19929 MISS:     127342 MSHR_MERGE:          0
cpu0->cpu0_STLB RFO          ACCESS:          0 HIT:          0 MISS:          0 MSHR_MERGE:          0
cpu0->cpu0_STLB PREFETCH     ACCESS:          0 HIT:          0 MISS:          0 MSHR_MERGE:          0
cpu0->cpu0_STLB WRITE        ACCESS:          0 HIT:          0 MISS:          0 MSHR_MERGE:          0
cpu0->cpu0_STLB TRANSLATION  ACCESS:          0 HIT:          0 MISS:          0 MSHR_MERGE:          0
cpu0->cpu0_STLB PREFETCH REQUESTED:          0 ISSUED:          0 USEFUL:          0 USELESS:          0 LATE:          0 TOO_EARLY:          0
cpu0->cpu0_STLB AVERAGE MISS LATENCY: 254.3 cycles
cpu0->cpu0_L2C TOTAL        ACCESS:    8957036 HIT:    1921797 MISS:    7035239 MSHR_MERGE:    2372310
cpu0->cpu0_L2C LOAD         ACCESS:    1558401 HIT:     525654 MISS:    1032747 MSHR_MERGE:     297761
cpu0->cpu0_L2C RFO          ACCESS:          0 HIT:          0 MISS:          0 MSHR_MERGE:          0
cpu0->cpu0_L2C PREFETCH     ACCESS:    7188161 HIT:    1208737 MISS:    5979424 MSHR_MERGE:    2074549
cpu0->cpu0_L2C WRITE        ACCESS:     183344 HIT:     183133 MISS:        211 MSHR_MERGE:          0
cpu0->cpu0_L2C TRANSLATION  ACCESS:      27130 HIT:       4273 MISS:      22857 MSHR_MERGE:          0
cpu0->cpu0_L2C PREFETCH REQUESTED:    2399154 ISSUED:    2398296 USEFUL:     337724 USELESS:     422941 LATE:     111590 TOO_EARLY:         11
cpu0->cpu0_L2C AVERAGE MISS LATENCY: 207.3 cycles
cpu0->cpu0_L1I TOTAL        ACCESS:   12655328 HIT:   12655328 MISS:          0 MSHR_MERGE:          0
cpu0->cpu0_L1I LOAD         ACCESS:   12655328 HIT:   12655328 MISS:          0 MSHR_MERGE:          0
cpu0->cpu0_L1I RFO          ACCESS:          0 HIT:          0 MISS:          0 MSHR_MERGE:          0
cpu0->cpu0_L1I PREFETCH     ACCESS:          0 HIT:          0 MISS:          0 MSHR_MERGE:          0
cpu0->cpu0_L1I WRITE        ACCESS:          0 HIT:          0 MISS:          0 MSHR_MERGE:          0
cpu0->cpu0_L1I TRANSLATION  ACCESS:          0 HIT:          0 MISS:          0 MSHR_MERGE:          0
cpu0->cpu0_L1I PREFETCH REQUESTED:          0 ISSUED:          0 USEFUL:          0 USELESS:          0 LATE:          0 TOO_EARLY:          0
cpu0->cpu0_L1I AVERAGE MISS LATENCY: - cycles
cpu0->cpu0_L1D TOTAL        ACCESS:   44050605 HIT:   37339453 MISS:    6711152 MSHR_MERGE:     254272
cpu0->cpu0_L1D LOAD         ACCESS:   22041393 HIT:   20255871 MISS:    1785522 MSHR_MERGE:     227121
cpu0->cpu0_L1D RFO          ACCESS:          0 HIT:          0 MISS:          0 MSHR_MERGE:          0
cpu0->cpu0_L1D PREFETCH     ACCESS:   19288190 HIT:   14390546 MISS:    4897644 MSHR_MERGE:      26295
cpu0->cpu0_L1D WRITE        ACCESS:    2465868 HIT:    2465868 MISS:          0 MSHR_MERGE:          0
cpu0->cpu0_L1D TRANSLATION  ACCESS:     255154 HIT:     227168 MISS:      27986 MSHR_MERGE:        856
cpu0->cpu0_L1D PREFETCH REQUESTED:   84357981 ISSUED:   19288192 USEFUL:    1154892 USELESS:     395592 LATE:     168473 TOO_EARLY:        226
cpu0->cpu0_L1D AVERAGE MISS LATENCY: 145.3 cycles
cpu0->cpu0_ITLB TOTAL        ACCESS:   10725003 HIT:   10725003 MISS:          0 MSHR_MERGE:          0
cpu0->cpu0_ITLB LOAD         ACCESS:   10725003 HIT:   10725003 MISS:          0 MSHR_MERGE:          0
cpu0->cpu0_ITLB RFO          ACCESS:          0 HIT:          0 MISS:          0 MSHR_MERGE:          0
cpu0->cpu0_ITLB PREFETCH     ACCESS:          0 HIT:          0 MISS:          0 MSHR_MERGE:          0
cpu0->cpu0_ITLB WRITE        ACCESS:          0 HIT:          0 MISS:          0 MSHR_MERGE:          0
cpu0->cpu0_ITLB TRANSLATION  ACCESS:          0 HIT:          0 MISS:          0 MSHR_MERGE:          0
cpu0->cpu0_ITLB PREFETCH REQUESTED:          0 ISSUED:          0 USEFUL:          0 USELESS:          0 LATE:          0 TOO_EARLY:          0
cpu0->cpu0_ITLB AVERAGE MISS LATENCY: - cycles
cpu0->cpu0_DTLB TOTAL        ACCESS:   39135316 HIT:   38031251 MISS:    1104065 MSHR_MERGE:     956794
cpu0->cpu0_DTLB LOAD         ACCESS:   39135316 HIT:   38031251 MISS:    1104065 MSHR_MERGE:     956794
cpu0->cpu0_DTLB RFO          ACCESS:          0 HIT:          0 MISS:          0 MSHR_MERGE:          0
cpu0->cpu0_DTLB PREFETCH     ACCESS:          0 HIT:          0 MISS:          0 MSHR_MERGE:          0
cpu0->cpu0_DTLB WRITE        ACCESS:          0 HIT:          0 MISS:          0 MSHR_MERGE:          0
cpu0->cpu0_DTLB TRANSLATION  ACCESS:          0 HIT:          0 MISS:          0 MSHR_MERGE:          0
cpu0->cpu0_DTLB PREFETCH REQUESTED:          0 ISSUED:          0 USEFUL:          0 USELESS:          0 LATE:          0 TOO_EARLY:          0
cpu0->cpu0_DTLB AVERAGE MISS LATENCY: 224.6 cycles
cpu0->LLC TOTAL        ACCESS:    4841569 HIT:     176278 MISS:    4665291 MSHR_MERGE:     233742
cpu0->LLC LOAD         ACCESS:     734986 HIT:      43187 MISS:     691799 MSHR_MERGE:      18644
cpu0->LLC RFO          ACCESS:          0 HIT:          0 MISS:          0 MSHR_MERGE:          0
cpu0->LLC PREFETCH     ACCESS:    3904860 HIT:      79909 MISS:    3824951 MSHR_MERGE:     215098
cpu0->LLC WRITE        ACCESS:     178866 HIT:      51974 MISS:     126892 MSHR_MERGE:          0
cpu0->LLC TRANSLATION  ACCESS:      22857 HIT:       1208 MISS:      21649 MSHR_MERGE:          0
cpu0->LLC PREFETCH REQUESTED:          0 ISSUED:          0 USEFUL:          0 USELESS:          0 LATE:          0 TOO_EARLY:          0
cpu0->LLC AVERAGE MISS LATENCY: 195 cycles

DRAM Statistics

Channel 0 RQ ROW_BUFFER_HIT:     817504
  ROW_BUFFER_MISS:    3487110
  AVG DBUS CONGESTED CYCLE: 4.528
Channel 0 WQ ROW_BUFFER_HIT:      24095
  ROW_BUFFER_MISS:     156818
  FULL:          0
Channel 0 REFRESHES ISSUED:       9013

[ROI Statistics]
[System Configuration]
num_cpus 1
cpu_freq 4000
fetch_width 6
decode_width 6
dispatch_width 6
execute_width 6
lq_width 2
sq_width 2
retire_width 6
scheduler_size 128
branch_mispredict_penalty 15
rob_size 352
lq_size 128
sq_size 72
ifetch_buffer_size 64
decode_buffer_size 32
dispatch_buffer_size 32
register_file_size 288
decode_latency 1
dispatch_latency 1
schedule_latency 1
execute_latency 1
page_size 4096
block_size 64
core_0_itlb_set 16
core_0_itlb_way 4
core_0_itlb_rq_size 16
core_0_itlb_wq_size 16
core_0_itlb_pq_size 0
core_0_itlb_mshr_size 8
core_0_itlb_hit_latency 1
core_0_itlb_fill_latency 1
core_0_itlb_max_tag_check 2
core_0_itlb_max_fill 2
core_0_dtlb_set 16
core_0_dtlb_way 4
core_0_dtlb_rq_size 16
core_0_dtlb_wq_size 16
core_0_dtlb_pq_size 0
core_0_dtlb_mshr_size 8
core_0_dtlb_hit_latency 1
core_0_dtlb_fill_latency 1
core_0_dtlb_max_tag_check 2
core_0_dtlb_max_fill 2
core_0_stlb_set 128
core_0_stlb_way 12
core_0_stlb_rq_size 32
core_0_stlb_wq_size 32
core_0_stlb_pq_size 0
core_0_stlb_mshr_size 16
core_0_stlb_hit_latency 4
core_0_stlb_fill_latency 4
core_0_stlb_max_tag_check 1
core_0_stlb_max_fill 1
core_0_l1i_set 64
core_0_l1i_way 8
core_0_l1i_rq_size 64
core_0_l1i_wq_size 64
core_0_l1i_pq_size 32
core_0_l1i_mshr_size 8
core_0_l1i_hit_latency 2
core_0_l1i_fill_latency 2
core_0_l1i_max_tag_check 2
core_0_l1i_max_fill 2
core_0_l1d_set 64
core_0_l1d_way 12
core_0_l1d_rq_size 64
core_0_l1d_wq_size 64
core_0_l1d_pq_size 8
core_0_l1d_mshr_size 16
core_0_l1d_hit_latency 2
core_0_l1d_fill_latency 3
core_0_l1d_max_tag_check 2
core_0_l1d_max_fill 2
core_0_l2c_set 1024
core_0_l2c_way 8
core_0_l2c_rq_size 32
core_0_l2c_wq_size 32
core_0_l2c_pq_size 16
core_0_l2c_mshr_size 32
core_0_l2c_hit_latency 5
core_0_l2c_fill_latency 5
core_0_l2c_max_tag_check 1
core_0_l2c_max_fill 1
llc_set 2048
llc_way 16
llc_rq_size 32
llc_wq_size 32
llc_pq_size 32
llc_mshr_size 64
llc_hit_latency 10
llc_fill_latency 10
llc_max_tag_check 1
llc_max_fill 1
dram_channels 1
dram_ranks 1
dram_bankgroups 8
dram_banks 4
dram_rows 65536
dram_columns 1024
dram_channel_width 8
dram_rq_size 64
dram_wq_size 64
dram_size 17179869184
core_0_itlb_prefetcher no
core_0_dtlb_prefetcher no
core_0_stlb_prefetcher no
core_0_l1i_prefetcher next_line
core_0_l1d_prefetcher vberti
core_0_l2c_prefetcher ip_stride
llc_prefetcher no
llc_replacement drrip

Core_0_instructions 100000002
Core_0_cycles 108154368
Core_0_IPC 0.924604
Core_0_branch_prediction_accuracy 99.0264
Core_0_branch_MPKI 1.78829
Core_0_average_ROB_occupancy_at_mispredict 106.205

Core_0_ITLB_total_access 10725003
Core_0_ITLB_total_hit 10725003
Core_0_ITLB_total_miss 0
Core_0_ITLB_total_MPKI 0
Core_0_ITLB_total_miss_rate 0
Core_0_ITLB_demand_access 10725003
Core_0_ITLB_demand_hit 10725003
Core_0_ITLB_demand_miss 0
Core_0_ITLB_demand_MPKI 0
Core_0_ITLB_demand_miss_rate 0
Core_0_ITLB_load_access 10725003
Core_0_ITLB_load_hit 10725003
Core_0_ITLB_load_miss 0
Core_0_ITLB_load_MPKI 0
Core_0_ITLB_load_miss_rate 0
Core_0_ITLB_rfo_access 0
Core_0_ITLB_rfo_hit 0
Core_0_ITLB_rfo_miss 0
Core_0_ITLB_rfo_MPKI 0
Core_0_ITLB_rfo_miss_rate 0
Core_0_ITLB_prefetch_access 0
Core_0_ITLB_prefetch_hit 0
Core_0_ITLB_prefetch_miss 0
Core_0_ITLB_prefetch_MPKI 0
Core_0_ITLB_prefetch_miss_rate 0
Core_0_ITLB_writeback_access 0
Core_0_ITLB_writeback_hit 0
Core_0_ITLB_writeback_miss 0
Core_0_ITLB_writeback_MPKI 0
Core_0_ITLB_writeback_miss_rate 0
Core_0_ITLB_prefetch_requested 0
Core_0_ITLB_prefetch_issued 0
Core_0_ITLB_prefetch_useful 0
Core_0_ITLB_prefetch_useless 0
Core_0_ITLB_prefetch_late 0
Core_0_ITLB_prefetch_fill 0
Core_0_ITLB_prefetch_too_early 0
Core_0_ITLB_prefetch_too_early_among_fill 0
Core_0_ITLB_prefetch_too_early_among_useless 0
Core_0_ITLB_prefetch_pollution_evict 0
Core_0_ITLB_prefetch_pollution_demand 0
Core_0_ITLB_prefetch_pollution_among_prefetch_fill 0
Core_0_ITLB_prefetch_accuracy 0
Core_0_ITLB_prefetch_coverage 0

Core_0_DTLB_total_access 39135316
Core_0_DTLB_total_hit 38031251
Core_0_DTLB_total_miss 1104065
Core_0_DTLB_total_MPKI 11.0406
Core_0_DTLB_total_miss_rate 0.0282115
Core_0_DTLB_demand_access 39135316
Core_0_DTLB_demand_hit 38031251
Core_0_DTLB_demand_miss 1104065
Core_0_DTLB_demand_MPKI 11.0406
Core_0_DTLB_demand_miss_rate 0.0282115
Core_0_DTLB_load_access 39135316
Core_0_DTLB_load_hit 38031251
Core_0_DTLB_load_miss 1104065
Core_0_DTLB_load_MPKI 11.0406
Core_0_DTLB_load_miss_rate 0.0282115
Core_0_DTLB_rfo_access 0
Core_0_DTLB_rfo_hit 0
Core_0_DTLB_rfo_miss 0
Core_0_DTLB_rfo_MPKI 0
Core_0_DTLB_rfo_miss_rate 0
Core_0_DTLB_prefetch_access 0
Core_0_DTLB_prefetch_hit 0
Core_0_DTLB_prefetch_miss 0
Core_0_DTLB_prefetch_MPKI 0
Core_0_DTLB_prefetch_miss_rate 0
Core_0_DTLB_writeback_access 0
Core_0_DTLB_writeback_hit 0
Core_0_DTLB_writeback_miss 0
Core_0_DTLB_writeback_MPKI 0
Core_0_DTLB_writeback_miss_rate 0
Core_0_DTLB_prefetch_requested 0
Core_0_DTLB_prefetch_issued 0
Core_0_DTLB_prefetch_useful 0
Core_0_DTLB_prefetch_useless 0
Core_0_DTLB_prefetch_late 0
Core_0_DTLB_prefetch_fill 0
Core_0_DTLB_prefetch_too_early 0
Core_0_DTLB_prefetch_too_early_among_fill 0
Core_0_DTLB_prefetch_too_early_among_useless 0
Core_0_DTLB_prefetch_pollution_evict 0
Core_0_DTLB_prefetch_pollution_demand 0
Core_0_DTLB_prefetch_pollution_among_prefetch_fill 0
Core_0_DTLB_prefetch_accuracy 0
Core_0_DTLB_prefetch_coverage 0

Core_0_STLB_total_access 147271
Core_0_STLB_total_hit 19929
Core_0_STLB_total_miss 127342
Core_0_STLB_total_MPKI 1.27342
Core_0_STLB_total_miss_rate 0.864678
Core_0_STLB_demand_access 147271
Core_0_STLB_demand_hit 19929
Core_0_STLB_demand_miss 127342
Core_0_STLB_demand_MPKI 1.27342
Core_0_STLB_demand_miss_rate 0.864678
Core_0_STLB_load_access 147271
Core_0_STLB_load_hit 19929
Core_0_STLB_load_miss 127342
Core_0_STLB_load_MPKI 1.27342
Core_0_STLB_load_miss_rate 0.864678
Core_0_STLB_rfo_access 0
Core_0_STLB_rfo_hit 0
Core_0_STLB_rfo_miss 0
Core_0_STLB_rfo_MPKI 0
Core_0_STLB_rfo_miss_rate 0
Core_0_STLB_prefetch_access 0
Core_0_STLB_prefetch_hit 0
Core_0_STLB_prefetch_miss 0
Core_0_STLB_prefetch_MPKI 0
Core_0_STLB_prefetch_miss_rate 0
Core_0_STLB_writeback_access 0
Core_0_STLB_writeback_hit 0
Core_0_STLB_writeback_miss 0
Core_0_STLB_writeback_MPKI 0
Core_0_STLB_writeback_miss_rate 0
Core_0_STLB_prefetch_requested 0
Core_0_STLB_prefetch_issued 0
Core_0_STLB_prefetch_useful 0
Core_0_STLB_prefetch_useless 0
Core_0_STLB_prefetch_late 0
Core_0_STLB_prefetch_fill 0
Core_0_STLB_prefetch_too_early 0
Core_0_STLB_prefetch_too_early_among_fill 0
Core_0_STLB_prefetch_too_early_among_useless 0
Core_0_STLB_prefetch_pollution_evict 0
Core_0_STLB_prefetch_pollution_demand 0
Core_0_STLB_prefetch_pollution_among_prefetch_fill 0
Core_0_STLB_prefetch_accuracy 0
Core_0_STLB_prefetch_coverage 0

Core_0_L1I_total_access 12655328
Core_0_L1I_total_hit 12655328
Core_0_L1I_total_miss 0
Core_0_L1I_total_MPKI 0
Core_0_L1I_total_miss_rate 0
Core_0_L1I_demand_access 12655328
Core_0_L1I_demand_hit 12655328
Core_0_L1I_demand_miss 0
Core_0_L1I_demand_MPKI 0
Core_0_L1I_demand_miss_rate 0
Core_0_L1I_load_access 12655328
Core_0_L1I_load_hit 12655328
Core_0_L1I_load_miss 0
Core_0_L1I_load_MPKI 0
Core_0_L1I_load_miss_rate 0
Core_0_L1I_rfo_access 0
Core_0_L1I_rfo_hit 0
Core_0_L1I_rfo_miss 0
Core_0_L1I_rfo_MPKI 0
Core_0_L1I_rfo_miss_rate 0
Core_0_L1I_prefetch_access 0
Core_0_L1I_prefetch_hit 0
Core_0_L1I_prefetch_miss 0
Core_0_L1I_prefetch_MPKI 0
Core_0_L1I_prefetch_miss_rate 0
Core_0_L1I_writeback_access 0
Core_0_L1I_writeback_hit 0
Core_0_L1I_writeback_miss 0
Core_0_L1I_writeback_MPKI 0
Core_0_L1I_writeback_miss_rate 0
Core_0_L1I_prefetch_requested 0
Core_0_L1I_prefetch_issued 0
Core_0_L1I_prefetch_useful 0
Core_0_L1I_prefetch_useless 0
Core_0_L1I_prefetch_late 0
Core_0_L1I_prefetch_fill 0
Core_0_L1I_prefetch_too_early 0
Core_0_L1I_prefetch_too_early_among_fill 0
Core_0_L1I_prefetch_too_early_among_useless 0
Core_0_L1I_prefetch_pollution_evict 0
Core_0_L1I_prefetch_pollution_demand 0
Core_0_L1I_prefetch_pollution_among_prefetch_fill 0
Core_0_L1I_prefetch_accuracy 0
Core_0_L1I_prefetch_coverage 0

Core_0_L1D_total_access 43795451
Core_0_L1D_total_hit 37112285
Core_0_L1D_total_miss 6683166
Core_0_L1D_total_MPKI 66.8317
Core_0_L1D_total_miss_rate 0.1526
Core_0_L1D_demand_access 22041393
Core_0_L1D_demand_hit 20255871
Core_0_L1D_demand_miss 1785522
Core_0_L1D_demand_MPKI 17.8552
Core_0_L1D_demand_miss_rate 0.0810077
Core_0_L1D_load_access 22041393
Core_0_L1D_load_hit 20255871
Core_0_L1D_load_miss 1785522
Core_0_L1D_load_MPKI 17.8552
Core_0_L1D_load_miss_rate 0.0810077
Core_0_L1D_rfo_access 0
Core_0_L1D_rfo_hit 0
Core_0_L1D_rfo_miss 0
Core_0_L1D_rfo_MPKI 0
Core_0_L1D_rfo_miss_rate 0
Core_0_L1D_prefetch_access 19288190
Core_0_L1D_prefetch_hit 14390546
Core_0_L1D_prefetch_miss 4897644
Core_0_L1D_prefetch_MPKI 48.9764
Core_0_L1D_prefetch_miss_rate 0.253919
Core_0_L1D_writeback_access 2465868
Core_0_L1D_writeback_hit 2465868
Core_0_L1D_writeback_miss 0
Core_0_L1D_writeback_MPKI 0
Core_0_L1D_writeback_miss_rate 0
Core_0_L1D_prefetch_requested 84357981
Core_0_L1D_prefetch_issued 19288192
Core_0_L1D_prefetch_useful 1154892
Core_0_L1D_prefetch_useless 395592
Core_0_L1D_prefetch_late 168473
Core_0_L1D_prefetch_fill 1382053
Core_0_L1D_prefetch_too_early 226
Core_0_L1D_prefetch_too_early_among_fill 0.000163525
Core_0_L1D_prefetch_too_early_among_useless 0.000571296
Core_0_L1D_prefetch_pollution_evict 16558
Core_0_L1D_prefetch_pollution_demand 16503
Core_0_L1D_prefetch_pollution_among_prefetch_fill 0.0119807
Core_0_L1D_prefetch_accuracy 0.0598756
Core_0_L1D_prefetch_coverage 0.392765

Core_0_L2C_total_access 8929906
Core_0_L2C_total_hit 1917524
Core_0_L2C_total_miss 7012382
Core_0_L2C_total_MPKI 70.1238
Core_0_L2C_total_miss_rate 0.785269
Core_0_L2C_demand_access 1558401
Core_0_L2C_demand_hit 525654
Core_0_L2C_demand_miss 1032747
Core_0_L2C_demand_MPKI 10.3275
Core_0_L2C_demand_miss_rate 0.662697
Core_0_L2C_load_access 1558401
Core_0_L2C_load_hit 525654
Core_0_L2C_load_miss 1032747
Core_0_L2C_load_MPKI 10.3275
Core_0_L2C_load_miss_rate 0.662697
Core_0_L2C_rfo_access 0
Core_0_L2C_rfo_hit 0
Core_0_L2C_rfo_miss 0
Core_0_L2C_rfo_MPKI 0
Core_0_L2C_rfo_miss_rate 0
Core_0_L2C_prefetch_access 7188161
Core_0_L2C_prefetch_hit 1208737
Core_0_L2C_prefetch_miss 5979424
Core_0_L2C_prefetch_MPKI 59.7942
Core_0_L2C_prefetch_miss_rate 0.831843
Core_0_L2C_writeback_access 183344
Core_0_L2C_writeback_hit 183133
Core_0_L2C_writeback_miss 211
Core_0_L2C_writeback_MPKI 0.00211
Core_0_L2C_writeback_miss_rate 0.00115084
Core_0_L2C_prefetch_requested 2399154
Core_0_L2C_prefetch_issued 2398296
Core_0_L2C_prefetch_useful 337724
Core_0_L2C_prefetch_useless 422941
Core_0_L2C_prefetch_late 111590
Core_0_L2C_prefetch_fill 3211066
Core_0_L2C_prefetch_too_early 11
Core_0_L2C_prefetch_too_early_among_fill 3.42565e-06
Core_0_L2C_prefetch_too_early_among_useless 2.60084e-05
Core_0_L2C_prefetch_pollution_evict 14039
Core_0_L2C_prefetch_pollution_demand 14037
Core_0_L2C_prefetch_pollution_among_prefetch_fill 0.00437207
Core_0_L2C_prefetch_accuracy 0.140818
Core_0_L2C_prefetch_coverage 0.246429

Core_0_LLC_total_access 4818712
Core_0_LLC_total_hit 175070
Core_0_LLC_total_miss 4643642
Core_0_LLC_total_MPKI 46.4364
Core_0_LLC_total_miss_rate 0.963669
Core_0_LLC_demand_access 734986
Core_0_LLC_demand_hit 43187
Core_0_LLC_demand_miss 691799
Core_0_LLC_demand_MPKI 6.91799
Core_0_LLC_demand_miss_rate 0.941241
Core_0_LLC_load_access 734986
Core_0_LLC_load_hit 43187
Core_0_LLC_load_miss 691799
Core_0_LLC_load_MPKI 6.91799
Core_0_LLC_load_miss_rate 0.941241
Core_0_LLC_rfo_access 0
Core_0_LLC_rfo_hit 0
Core_0_LLC_rfo_miss 0
Core_0_LLC_rfo_MPKI 0
Core_0_LLC_rfo_miss_rate 0
Core_0_LLC_prefetch_access 3904860
Core_0_LLC_prefetch_hit 79909
Core_0_LLC_prefetch_miss 3824951
Core_0_LLC_prefetch_MPKI 38.2495
Core_0_LLC_prefetch_miss_rate 0.979536
Core_0_LLC_writeback_access 178866
Core_0_LLC_writeback_hit 51974
Core_0_LLC_writeback_miss 126892
Core_0_LLC_writeback_MPKI 1.26892
Core_0_LLC_writeback_miss_rate 0.709425
Core_0_LLC_prefetch_requested 0
Core_0_LLC_prefetch_issued 0
Core_0_LLC_prefetch_useful 0
Core_0_LLC_prefetch_useless 0
Core_0_LLC_prefetch_late 0
Core_0_LLC_prefetch_fill 3591197
Core_0_LLC_prefetch_too_early 0
Core_0_LLC_prefetch_too_early_among_fill 0
Core_0_LLC_prefetch_too_early_among_useless 0
Core_0_LLC_prefetch_pollution_evict 3087
Core_0_LLC_prefetch_pollution_demand 3087
Core_0_LLC_prefetch_pollution_among_prefetch_fill 0.000859602
Core_0_LLC_prefetch_accuracy 0
Core_0_LLC_prefetch_coverage 0

[DRAM Statistics]
Channel_0_RQ_row_buffer_hit 817504
Channel_0_RQ_row_buffer_miss 3487110
Channel_0_WQ_row_buffer_hit 24095
Channel_0_WQ_row_buffer_miss 156818
Channel_0_WQ_full 0
Channel_0_dbus_congested 10820057
DRAM_total_RQ_row_buffer_hit 817504
DRAM_total_RQ_row_buffer_miss 3487110
DRAM_total_WQ_row_buffer_hit 24095
DRAM_total_WQ_row_buffer_miss 156818
DRAM_total_WQ_full 0
DRAM_total_dbus_congested 10820057
DRAM_avg_congested_cycle 4.52806

====== DRAM_RQ_TRAFFIC ========
DRAM_RQ_READ_TRAFFIC_BREAKDOWN:
data_demand_read.count = 673155
data_demand_read.share = 15.64%

inst_demand_read.count = 0
inst_demand_read.share = 0.00%

cache_inst_prefetch.count = 0
cache_inst_prefetch.share = 0.00%

cache_data_prefetch.count = 3609853
cache_data_prefetch.share = 83.86%

stlb_data_demand.count = 8743
stlb_data_demand.share = 0.20%

stlb_inst_demand.count = 0
stlb_inst_demand.share = 0.00%

stlb_l1i_pref.count = 0
stlb_l1i_pref.share = 0.00%

stlb_l1d_pref.count = 12906
stlb_l1d_pref.share = 0.30%

DRAM_RQ_READ_TRAFFIC_SUMMARY:
cache_demand.count = 673155
cache_demand.share = 15.64%

cache_prefetch.count = 3609853
cache_prefetch.share = 83.86%

stlb_demand.count = 8743
stlb_demand.share = 0.20%

stlb_prefetch.count = 12906
stlb_prefetch.share = 0.30%

DRAM_RQ_READ_TRAFFIC_DEBUG:
total_classified_read.count = 4304657
unclassified_read.count = 0
total_read_with_other.count = 4304657

classified_plus_unclassified_check.count = 4304657
dram_rq_read_total_observed.count = 4304657
dram_rq_read_total_observed.per_1K_instructions = 43.0466

STLB_MISS_PTW_DRAM_TOUCH_BREAKDOWN:
stlb_miss_total.count = 126690

stlb_miss_touch_dram.count = 21371
stlb_miss_touch_dram.share = 16.87%

stlb_miss_no_dram_touch.count = 105319
stlb_miss_no_dram_touch.share = 83.13%

STLB_MISS_PTW_DRAM_TOUCH_DEBUG:
stlb_miss_touch_plus_no_touch.count = 126690
stlb_miss_total_check.count = 126690

======STLB miss causes ========
Core_0_STLB_miss_cause_breakdown
Core_0_STLB_cause_Demand_Data_miss 25347
Core_0_STLB_cause_Demand_Data_miss_rate 0.172111
Core_0_STLB_cause_Demand_Instruction_miss 0
Core_0_STLB_cause_Demand_Instruction_miss_rate 0
Core_0_STLB_cause_L1D_Prefetch_miss 101995
Core_0_STLB_cause_L1D_Prefetch_miss_rate 0.692567
Core_0_STLB_cause_L1D_Prefetch_Same_Page_miss 1
Core_0_STLB_cause_L1D_Prefetch_Same_Page_miss_rate 6.7902e-06
Core_0_STLB_cause_L1D_Prefetch_Cross_Page_miss 101994
Core_0_STLB_cause_L1D_Prefetch_Cross_Page_miss_rate 0.69256
Core_0_STLB_cause_L1I_Prefetch_miss 0
Core_0_STLB_cause_L1I_Prefetch_miss_rate 0
Core_0_STLB_cause_Other_miss 0
Core_0_STLB_cause_Other_miss_rate 0
Core_0_STLB_Demand_miss 25347
Core_0_STLB_Demand_miss_rate 0.172111
Core_0_STLB_L1D_Prefetch_miss 101995
Core_0_STLB_L1D_Prefetch_miss_rate 0.692567
Core_0_STLB_Other_miss 0
Core_0_STLB_Other_miss_rate 0

========== vBerti-TLB Cross-page Flow Stats ==========

Core_0_vBerti_Requested 84357981
Core_0_vBerti_Cross_page_prefetch_in_Requested 13762095
Core_0_vBerti_Same_page_prefetch_in_Requested 70595886
Core_0_vBerti_Cross_page_prefetch_of_Requested 0.163139
Core_0_vBerti_Issued 19288192
Core_0_vBerti_InPQ_Same_page_prefetch 16794152
Core_0_vBerti_InPQ_Cross_page_prefetch 2494040
Core_0_vBerti_PQ_Drop_Rate 0.771353
Core_0_vBerti_InPQ_Cross_page_prefetch_of_Requested 0.029565
Core_0_vBerti_Cross_page_PQ_Drop_rate 0.818775
Core_0_vBerti_Cross_page_prefetch_of_Issued 0.129304
Core_0_CP_PF_PQFULL_drop 11268055
Core_0_CP_PF_PQFULL_TLB_rescue_enqueued 6365336
Core_0_CP_PF_PQFULL_TLB_rescue_issued 6365336
Core_0_CP_PF_PQFULL_TLB_rescue_translated 6365336

========= DTLB_vBerti Prefetch Stats =========
Core_0_DTLB_demand_access 22842750
Core_0_DTLB_demand_hit 22687541
Core_0_DTLB_demand_miss 155209
Core_0_DTLB_demand_mshr_merge 110391
Core_0_DTLB_demand_fill 61292
Core_0_DTLB_demand_miss_rate 0.00679467
Core_0_DTLB_demand_mpki 1.55209
Core_0_DTLB_vberti_prefetch_access 16292566
Core_0_DTLB_vberti_prefetch_hit 15343710
Core_0_DTLB_vberti_prefetch_miss 948856
Core_0_DTLB_vberti_prefetch_mshr_merge 846403
Core_0_DTLB_vberti_prefetch_fill 85979
Core_0_DTLB_vberti_prefetch_miss_rate 0.0582386
Core_0_DTLB_vberti_prefetch_mpki 9.48856

=== DTLB_vBerti Same/Cross-page Prefetch Stats ===
Core_0_DTLB_vberti_same_page_prefetch 11548322
Core_0_DTLB_vberti_same_page_prefetch_hit 11548318
Core_0_DTLB_vberti_same_page_prefetch_miss 4
Core_0_DTLB_vberti_same_page_prefetch_mshr_merge 3
Core_0_DTLB_vberti_same_page_prefetch_fill 0
Core_0_DTLB_vberti_same_page_prefetch_miss_rate 3.46371e-07
Core_0_DTLB_vberti_same_page_prefetch_mpki 4e-05
Core_0_DTLB_vberti_cross_page_prefetch 4744244
Core_0_DTLB_vberti_cross_page_prefetch_hit 3795392
Core_0_DTLB_vberti_cross_page_prefetch_miss 948852
Core_0_DTLB_vberti_cross_page_prefetch_mshr_merge 846400
Core_0_DTLB_vberti_cross_page_prefetch_fill 85979
Core_0_DTLB_vberti_cross_page_prefetch_miss_rate 0.200001
Core_0_DTLB_vberti_cross_page_prefetch_mpki 9.48852
Core_0_DTLB_same_page_prefetch_miss_rate 3.46371e-07
Core_0_DTLB_same_page_prefetch_mpki 4e-05
Core_0_DTLB_cross_page_prefetch_miss_rate 0.200001
Core_0_DTLB_cross_page_prefetch_mpki 9.48852
Core_0_DTLB_cross_page_prefetch_issued 4744244
Core_0_DTLB_cross_page_prefetch_lookups 4744244
Core_0_DTLB_cross_page_prefetch_useful 102334
Core_0_DTLB_cross_page_prefetch_useless 118
Core_0_DTLB_cross_page_prefetch_late 16473
Core_0_DTLB_cross_page_prefetch_too_early 22
Core_0_DTLB_cross_page_prefetch_too_early_among_fill 0.000255876
Core_0_DTLB_cross_page_prefetch_too_early_among_useless 0.186441
Core_0_DTLB_cross_page_prefetch_pollution_evict 5369
Core_0_DTLB_cross_page_prefetch_pollution_demand 5124
Core_0_DTLB_cross_page_prefetch_pollution_among_prefetch_fill 0.0624455
Core_0_DTLB_cross_page_prefetch_accuracy 0.0215701
Core_0_DTLB_cross_page_prefetch_coverage 0.397347

========= STLB_vBerti Prefetch Stats =========
Core_0_STLB_demand_access 44818
Core_0_STLB_demand_hit 19471
Core_0_STLB_demand_miss 25347
Core_0_STLB_demand_mshr_merge 0
Core_0_STLB_demand_fill 25347
Core_0_STLB_demand_miss_rate 0.565554
Core_0_STLB_demand_mpki 0.25347
Core_0_STLB_vberti_prefetch_access 102453
Core_0_STLB_vberti_prefetch_hit 458
Core_0_STLB_vberti_prefetch_miss 101995
Core_0_STLB_vberti_prefetch_mshr_merge 0
Core_0_STLB_vberti_prefetch_fill 1
Core_0_STLB_vberti_prefetch_miss_rate 0.99553
Core_0_STLB_vberti_prefetch_mpki 1.01995

=== STLB_vBerti Same/Cross-page Prefetch Stats ===
Core_0_STLB_vberti_same_page_prefetch 1
Core_0_STLB_vberti_same_page_prefetch_hit 0
Core_0_STLB_vberti_same_page_prefetch_miss 1
Core_0_STLB_vberti_same_page_prefetch_mshr_merge 0
Core_0_STLB_vberti_same_page_prefetch_fill 1
Core_0_STLB_vberti_same_page_prefetch_miss_rate 1
Core_0_STLB_vberti_same_page_prefetch_mpki 1e-05
Core_0_STLB_vberti_cross_page_prefetch 102452
Core_0_STLB_vberti_cross_page_prefetch_hit 458
Core_0_STLB_vberti_cross_page_prefetch_miss 101994
Core_0_STLB_vberti_cross_page_prefetch_mshr_merge 0
Core_0_STLB_vberti_cross_page_prefetch_fill 0
Core_0_STLB_vberti_cross_page_prefetch_miss_rate 0.99553
Core_0_STLB_vberti_cross_page_prefetch_mpki 1.01994
Core_0_STLB_same_page_prefetch_miss_rate 1
Core_0_STLB_same_page_prefetch_mpki 1e-05
Core_0_STLB_cross_page_prefetch_miss_rate 0.99553
Core_0_STLB_cross_page_prefetch_mpki 1.01994
Core_0_STLB_cross_page_prefetch_issued 102452
Core_0_STLB_cross_page_prefetch_lookups 102452
Core_0_STLB_cross_page_prefetch_useful 652
Core_0_STLB_cross_page_prefetch_useless 101336
Core_0_STLB_cross_page_prefetch_late 652
Core_0_STLB_cross_page_prefetch_too_early 0
Core_0_STLB_cross_page_prefetch_too_early_among_fill 0
Core_0_STLB_cross_page_prefetch_too_early_among_useless 0
Core_0_STLB_cross_page_prefetch_pollution_evict 0
Core_0_STLB_cross_page_prefetch_pollution_demand 0
Core_0_STLB_cross_page_prefetch_pollution_among_prefetch_fill 0
Core_0_STLB_cross_page_prefetch_accuracy 0.00636396
Core_0_STLB_cross_page_prefetch_coverage 0.0250779

========= STLB Cross-page Prefetch Buffer Stats =========
Core_0_STLB_raw_demand_miss 25347
Core_0_CP_PB_insert 101994
Core_0_CP_PB_demand_hit 652
Core_0_STLB_PB_demand_miss 24695
Core_0_CP_PB_coverage 0.025723
Core_0_STLB_raw_demand_mpki 0.25347
Core_0_STLB_PB_demand_mpki 0.24695
Core_0_CP_PB_demand_hit_mpki 0.00652

Core_0_TLB_demand_miss_rate 0.00110963
Core_0_TLB_demand_mpki 0.25347
Core_0_TLB_same_page_prefetch_miss_rate 8.65927e-08
Core_0_TLB_same_page_prefetch_mpki 1e-05
Core_0_TLB_cross_page_prefetch_miss_rate 0.0214985
Core_0_TLB_cross_page_prefetch_mpki 1.01994
Core_0_TLB_cross_page_prefetch_issued 4744244
Core_0_TLB_cross_page_prefetch_lookups 4744244
Core_0_TLB_cross_page_prefetch_useful 102324
Core_0_TLB_cross_page_prefetch_useless 94
Core_0_TLB_cross_page_prefetch_late 16473
Core_0_TLB_cross_page_prefetch_too_early 18
Core_0_TLB_cross_page_prefetch_too_early_among_fill 0.000209353
Core_0_TLB_cross_page_prefetch_too_early_among_useless 0.191489
Core_0_TLB_cross_page_prefetch_accuracy 0.021568
Core_0_TLB_cross_page_prefetch_coverage 0.801466
BERTI TO_L1: 92813354 TO_L2: 25243120 TO_L2_BC_MSHR: 5792748
BERTI AVG_LAT: 140.34 NUM_TRACK_LATENCY: 4442047 NUM_CANT_TRACK_LATENCY: 0
BERTI CROSS_PAGE 18974080 NO_CROSS_PAGE: 99082394
BERTI FOUND_BERTI: 20133235 NO_FOUND_BERTI: 12743443
BERTI AVERAGE_ISSUED: 3.30349
