[VMEM] WARNING: physical memory size is smaller than virtual memory size.

*** ChampSim Multicore Out-of-Order Simulator ***
Warmup Instructions: 50000000
Simulation Instructions: 100000000
Number of CPUs: 1
Page size: 4096
Core 0: /data0/tzh/champsim_traces/QMM/compute_int_37_new.xz
VBerti Prefetcher
BERTI HASH ENTANGLING
BERTI IP MASK ffff
Off-chip DRAM Size: 16 GiB Channels: 1 Width: 64-bit Data Rate: 3205 MT/s
*** Reached end of trace: (0, "/data0/tzh/champsim_traces/QMM/compute_int_37_new.xz")
Warmup halting CPU 0 at instruction 50000002 cycle 19472550 for remainder of phase
Warmup finished CPU 0 instructions: 50000002 cycles: 19472550 cumulative IPC: 2.568 (Simulation time: 00 hr 05 min 21 sec)
Warmup complete CPU 0 instructions: 50000002 cycles: 19472550 cumulative IPC: 2.568 (Simulation time: 00 hr 05 min 21 sec)
*** Reached end of trace: (0, "/data0/tzh/champsim_traces/QMM/compute_int_37_new.xz")
*** Reached end of trace: (0, "/data0/tzh/champsim_traces/QMM/compute_int_37_new.xz")
*** Reached end of trace: (0, "/data0/tzh/champsim_traces/QMM/compute_int_37_new.xz")
Simulation finished CPU 0 instructions: 100000002 cycles: 266749969 cumulative IPC: 0.3749 (Simulation time: 01 hr 03 min 04 sec)
Simulation complete CPU 0 instructions: 100000002 cycles: 266749969 cumulative IPC: 0.3749 (Simulation time: 01 hr 03 min 04 sec)

ChampSim completed all CPUs

=== Simulation ===
CPU 0 runs /data0/tzh/champsim_traces/QMM/compute_int_37_new.xz

Region of Interest Statistics

CPU 0 cumulative IPC: 0.3749 instructions: 100000002 cycles: 266749969
CPU 0 Branch Prediction Accuracy: 99.89% MPKI: 0.2 Average ROB Occupancy at Mispredict: 155.3
Branch type MPKI
BRANCH_DIRECT_JUMP: 0
BRANCH_INDIRECT: 0
BRANCH_CONDITIONAL: 0.2
BRANCH_DIRECT_CALL: 0
BRANCH_INDIRECT_CALL: 0
BRANCH_RETURN: 0

cpu0->cpu0_STLB TOTAL        ACCESS:    3019658 HIT:     636240 MISS:    2383418 MSHR_MERGE:          0
cpu0->cpu0_STLB LOAD         ACCESS:    3019658 HIT:     636240 MISS:    2383418 MSHR_MERGE:          0
cpu0->cpu0_STLB RFO          ACCESS:          0 HIT:          0 MISS:          0 MSHR_MERGE:          0
cpu0->cpu0_STLB PREFETCH     ACCESS:          0 HIT:          0 MISS:          0 MSHR_MERGE:          0
cpu0->cpu0_STLB WRITE        ACCESS:          0 HIT:          0 MISS:          0 MSHR_MERGE:          0
cpu0->cpu0_STLB TRANSLATION  ACCESS:          0 HIT:          0 MISS:          0 MSHR_MERGE:          0
cpu0->cpu0_STLB PREFETCH REQUESTED:          0 ISSUED:          0 USEFUL:          0 USELESS:          0 LATE:          0 TOO_EARLY:          0
cpu0->cpu0_STLB AVERAGE MISS LATENCY: 82.02 cycles
cpu0->cpu0_L2C TOTAL        ACCESS:   29545217 HIT:    8657030 MISS:   20888187 MSHR_MERGE:    1961620
cpu0->cpu0_L2C LOAD         ACCESS:   10885073 HIT:    1134250 MISS:    9750823 MSHR_MERGE:     702155
cpu0->cpu0_L2C RFO          ACCESS:     412968 HIT:      89753 MISS:     323215 MSHR_MERGE:          2
cpu0->cpu0_L2C PREFETCH     ACCESS:   13811045 HIT:    5053844 MISS:    8757201 MSHR_MERGE:    1259463
cpu0->cpu0_L2C WRITE        ACCESS:    2133994 HIT:    2133972 MISS:         22 MSHR_MERGE:          0
cpu0->cpu0_L2C TRANSLATION  ACCESS:    2302137 HIT:     245211 MISS:    2056926 MSHR_MERGE:          0
cpu0->cpu0_L2C PREFETCH REQUESTED:    8322719 ISSUED:    8318176 USEFUL:     689936 USELESS:     276830 LATE:     652092 TOO_EARLY:       3738
cpu0->cpu0_L2C AVERAGE MISS LATENCY: 211.9 cycles
cpu0->cpu0_L1I TOTAL        ACCESS:   22100824 HIT:   22099835 MISS:        989 MSHR_MERGE:        424
cpu0->cpu0_L1I LOAD         ACCESS:   22100824 HIT:   22099835 MISS:        989 MSHR_MERGE:        424
cpu0->cpu0_L1I RFO          ACCESS:          0 HIT:          0 MISS:          0 MSHR_MERGE:          0
cpu0->cpu0_L1I PREFETCH     ACCESS:          0 HIT:          0 MISS:          0 MSHR_MERGE:          0
cpu0->cpu0_L1I WRITE        ACCESS:          0 HIT:          0 MISS:          0 MSHR_MERGE:          0
cpu0->cpu0_L1I TRANSLATION  ACCESS:          0 HIT:          0 MISS:          0 MSHR_MERGE:          0
cpu0->cpu0_L1I PREFETCH REQUESTED:          0 ISSUED:          0 USEFUL:          0 USELESS:          0 LATE:          0 TOO_EARLY:          0
cpu0->cpu0_L1I AVERAGE MISS LATENCY: 252.4 cycles
cpu0->cpu0_L1D TOTAL        ACCESS:   37276161 HIT:   16471829 MISS:   20804332 MSHR_MERGE:    1678692
cpu0->cpu0_L1D LOAD         ACCESS:   20882768 HIT:    8758877 MISS:   12123891 MSHR_MERGE:    1239383
cpu0->cpu0_L1D RFO          ACCESS:          0 HIT:          0 MISS:          0 MSHR_MERGE:          0
cpu0->cpu0_L1D PREFETCH     ACCESS:    8270748 HIT:    2703893 MISS:    5566855 MSHR_MERGE:      40829
cpu0->cpu0_L1D WRITE        ACCESS:    2840782 HIT:    2080689 MISS:     760093 MSHR_MERGE:     347124
cpu0->cpu0_L1D TRANSLATION  ACCESS:    5281863 HIT:    2928370 MISS:    2353493 MSHR_MERGE:      51356
cpu0->cpu0_L1D PREFETCH REQUESTED:  624676460 ISSUED:    8270749 USEFUL:     147036 USELESS:      33694 LATE:      19103 TOO_EARLY:       2537
cpu0->cpu0_L1D AVERAGE MISS LATENCY: 198.1 cycles
cpu0->cpu0_ITLB TOTAL        ACCESS:   19399676 HIT:   19399032 MISS:        644 MSHR_MERGE:        460
cpu0->cpu0_ITLB LOAD         ACCESS:   19399676 HIT:   19399032 MISS:        644 MSHR_MERGE:        460
cpu0->cpu0_ITLB RFO          ACCESS:          0 HIT:          0 MISS:          0 MSHR_MERGE:          0
cpu0->cpu0_ITLB PREFETCH     ACCESS:          0 HIT:          0 MISS:          0 MSHR_MERGE:          0
cpu0->cpu0_ITLB WRITE        ACCESS:          0 HIT:          0 MISS:          0 MSHR_MERGE:          0
cpu0->cpu0_ITLB TRANSLATION  ACCESS:          0 HIT:          0 MISS:          0 MSHR_MERGE:          0
cpu0->cpu0_ITLB PREFETCH REQUESTED:          0 ISSUED:          0 USEFUL:          0 USELESS:          0 LATE:          0 TOO_EARLY:          0
cpu0->cpu0_ITLB AVERAGE MISS LATENCY: 254.4 cycles
cpu0->cpu0_DTLB TOTAL        ACCESS:   29167490 HIT:   22786863 MISS:    6380627 MSHR_MERGE:    3361153
cpu0->cpu0_DTLB LOAD         ACCESS:   29167490 HIT:   22786863 MISS:    6380627 MSHR_MERGE:    3361153
cpu0->cpu0_DTLB RFO          ACCESS:          0 HIT:          0 MISS:          0 MSHR_MERGE:          0
cpu0->cpu0_DTLB PREFETCH     ACCESS:          0 HIT:          0 MISS:          0 MSHR_MERGE:          0
cpu0->cpu0_DTLB WRITE        ACCESS:          0 HIT:          0 MISS:          0 MSHR_MERGE:          0
cpu0->cpu0_DTLB TRANSLATION  ACCESS:          0 HIT:          0 MISS:          0 MSHR_MERGE:          0
cpu0->cpu0_DTLB PREFETCH REQUESTED:          0 ISSUED:          0 USEFUL:          0 USELESS:          0 LATE:          0 TOO_EARLY:          0
cpu0->cpu0_DTLB AVERAGE MISS LATENCY: 70.33 cycles
cpu0->LLC TOTAL        ACCESS:   20972731 HIT:    4605031 MISS:   16367700 MSHR_MERGE:    5421822
cpu0->LLC LOAD         ACCESS:    9048667 HIT:     630494 MISS:    8418173 MSHR_MERGE:    3707695
cpu0->LLC RFO          ACCESS:     323213 HIT:     164979 MISS:     158234 MSHR_MERGE:          0
cpu0->LLC PREFETCH     ACCESS:    7497713 HIT:     148051 MISS:    7349662 MSHR_MERGE:    1714127
cpu0->LLC WRITE        ACCESS:    2046212 HIT:    1804274 MISS:     241938 MSHR_MERGE:          0
cpu0->LLC TRANSLATION  ACCESS:    2056926 HIT:    1857233 MISS:     199693 MSHR_MERGE:          0
cpu0->LLC PREFETCH REQUESTED:          0 ISSUED:          0 USEFUL:          0 USELESS:          0 LATE:          0 TOO_EARLY:          0
cpu0->LLC AVERAGE MISS LATENCY: 251.4 cycles

DRAM Statistics

Channel 0 RQ ROW_BUFFER_HIT:    3398661
  ROW_BUFFER_MISS:    7305182
  AVG DBUS CONGESTED CYCLE: 4.669
Channel 0 WQ ROW_BUFFER_HIT:     320005
  ROW_BUFFER_MISS:    1730289
  FULL:          0
Channel 0 REFRESHES ISSUED:      22229

[ROI Statistics]
[System Configuration]
num_cpus 1
cpu_freq 4000
fetch_width 6
decode_width 6
dispatch_width 6
execute_width 6
lq_width 2
sq_width 2
retire_width 6
scheduler_size 128
branch_mispredict_penalty 15
rob_size 352
lq_size 128
sq_size 72
ifetch_buffer_size 64
decode_buffer_size 32
dispatch_buffer_size 32
register_file_size 288
decode_latency 1
dispatch_latency 1
schedule_latency 1
execute_latency 1
page_size 4096
block_size 64
core_0_itlb_set 16
core_0_itlb_way 4
core_0_itlb_rq_size 16
core_0_itlb_wq_size 16
core_0_itlb_pq_size 0
core_0_itlb_mshr_size 8
core_0_itlb_hit_latency 1
core_0_itlb_fill_latency 1
core_0_itlb_max_tag_check 2
core_0_itlb_max_fill 2
core_0_dtlb_set 16
core_0_dtlb_way 4
core_0_dtlb_rq_size 16
core_0_dtlb_wq_size 16
core_0_dtlb_pq_size 0
core_0_dtlb_mshr_size 8
core_0_dtlb_hit_latency 1
core_0_dtlb_fill_latency 1
core_0_dtlb_max_tag_check 2
core_0_dtlb_max_fill 2
core_0_stlb_set 128
core_0_stlb_way 12
core_0_stlb_rq_size 32
core_0_stlb_wq_size 32
core_0_stlb_pq_size 0
core_0_stlb_mshr_size 16
core_0_stlb_hit_latency 4
core_0_stlb_fill_latency 4
core_0_stlb_max_tag_check 1
core_0_stlb_max_fill 1
core_0_l1i_set 64
core_0_l1i_way 8
core_0_l1i_rq_size 64
core_0_l1i_wq_size 64
core_0_l1i_pq_size 32
core_0_l1i_mshr_size 8
core_0_l1i_hit_latency 2
core_0_l1i_fill_latency 2
core_0_l1i_max_tag_check 2
core_0_l1i_max_fill 2
core_0_l1d_set 64
core_0_l1d_way 12
core_0_l1d_rq_size 64
core_0_l1d_wq_size 64
core_0_l1d_pq_size 8
core_0_l1d_mshr_size 16
core_0_l1d_hit_latency 2
core_0_l1d_fill_latency 3
core_0_l1d_max_tag_check 2
core_0_l1d_max_fill 2
core_0_l2c_set 1024
core_0_l2c_way 8
core_0_l2c_rq_size 32
core_0_l2c_wq_size 32
core_0_l2c_pq_size 16
core_0_l2c_mshr_size 32
core_0_l2c_hit_latency 5
core_0_l2c_fill_latency 5
core_0_l2c_max_tag_check 1
core_0_l2c_max_fill 1
llc_set 2048
llc_way 16
llc_rq_size 32
llc_wq_size 32
llc_pq_size 32
llc_mshr_size 64
llc_hit_latency 10
llc_fill_latency 10
llc_max_tag_check 1
llc_max_fill 1
dram_channels 1
dram_ranks 1
dram_bankgroups 8
dram_banks 4
dram_rows 65536
dram_columns 1024
dram_channel_width 8
dram_rq_size 64
dram_wq_size 64
dram_size 17179869184
core_0_itlb_prefetcher no
core_0_dtlb_prefetcher no
core_0_stlb_prefetcher no
core_0_l1i_prefetcher next_line
core_0_l1d_prefetcher vberti
core_0_l2c_prefetcher ip_stride
llc_prefetcher no
llc_replacement drrip

Core_0_instructions 100000002
Core_0_cycles 266749969
Core_0_IPC 0.374883
Core_0_branch_prediction_accuracy 99.8939
Core_0_branch_MPKI 0.20003
Core_0_average_ROB_occupancy_at_mispredict 155.268

Core_0_ITLB_total_access 19399676
Core_0_ITLB_total_hit 19399032
Core_0_ITLB_total_miss 644
Core_0_ITLB_total_MPKI 0.00644
Core_0_ITLB_total_miss_rate 3.31964e-05
Core_0_ITLB_demand_access 19399676
Core_0_ITLB_demand_hit 19399032
Core_0_ITLB_demand_miss 644
Core_0_ITLB_demand_MPKI 0.00644
Core_0_ITLB_demand_miss_rate 3.31964e-05
Core_0_ITLB_load_access 19399676
Core_0_ITLB_load_hit 19399032
Core_0_ITLB_load_miss 644
Core_0_ITLB_load_MPKI 0.00644
Core_0_ITLB_load_miss_rate 3.31964e-05
Core_0_ITLB_rfo_access 0
Core_0_ITLB_rfo_hit 0
Core_0_ITLB_rfo_miss 0
Core_0_ITLB_rfo_MPKI 0
Core_0_ITLB_rfo_miss_rate 0
Core_0_ITLB_prefetch_access 0
Core_0_ITLB_prefetch_hit 0
Core_0_ITLB_prefetch_miss 0
Core_0_ITLB_prefetch_MPKI 0
Core_0_ITLB_prefetch_miss_rate 0
Core_0_ITLB_writeback_access 0
Core_0_ITLB_writeback_hit 0
Core_0_ITLB_writeback_miss 0
Core_0_ITLB_writeback_MPKI 0
Core_0_ITLB_writeback_miss_rate 0
Core_0_ITLB_prefetch_requested 0
Core_0_ITLB_prefetch_issued 0
Core_0_ITLB_prefetch_useful 0
Core_0_ITLB_prefetch_useless 0
Core_0_ITLB_prefetch_late 0
Core_0_ITLB_prefetch_fill 0
Core_0_ITLB_prefetch_too_early 0
Core_0_ITLB_prefetch_too_early_among_fill 0
Core_0_ITLB_prefetch_too_early_among_useless 0
Core_0_ITLB_prefetch_pollution_evict 0
Core_0_ITLB_prefetch_pollution_demand 0
Core_0_ITLB_prefetch_pollution_among_prefetch_fill 0
Core_0_ITLB_prefetch_accuracy 0
Core_0_ITLB_prefetch_coverage 0

Core_0_DTLB_total_access 29167490
Core_0_DTLB_total_hit 22786863
Core_0_DTLB_total_miss 6380627
Core_0_DTLB_total_MPKI 63.8063
Core_0_DTLB_total_miss_rate 0.218758
Core_0_DTLB_demand_access 29167490
Core_0_DTLB_demand_hit 22786863
Core_0_DTLB_demand_miss 6380627
Core_0_DTLB_demand_MPKI 63.8063
Core_0_DTLB_demand_miss_rate 0.218758
Core_0_DTLB_load_access 29167490
Core_0_DTLB_load_hit 22786863
Core_0_DTLB_load_miss 6380627
Core_0_DTLB_load_MPKI 63.8063
Core_0_DTLB_load_miss_rate 0.218758
Core_0_DTLB_rfo_access 0
Core_0_DTLB_rfo_hit 0
Core_0_DTLB_rfo_miss 0
Core_0_DTLB_rfo_MPKI 0
Core_0_DTLB_rfo_miss_rate 0
Core_0_DTLB_prefetch_access 0
Core_0_DTLB_prefetch_hit 0
Core_0_DTLB_prefetch_miss 0
Core_0_DTLB_prefetch_MPKI 0
Core_0_DTLB_prefetch_miss_rate 0
Core_0_DTLB_writeback_access 0
Core_0_DTLB_writeback_hit 0
Core_0_DTLB_writeback_miss 0
Core_0_DTLB_writeback_MPKI 0
Core_0_DTLB_writeback_miss_rate 0
Core_0_DTLB_prefetch_requested 0
Core_0_DTLB_prefetch_issued 0
Core_0_DTLB_prefetch_useful 0
Core_0_DTLB_prefetch_useless 0
Core_0_DTLB_prefetch_late 0
Core_0_DTLB_prefetch_fill 0
Core_0_DTLB_prefetch_too_early 0
Core_0_DTLB_prefetch_too_early_among_fill 0
Core_0_DTLB_prefetch_too_early_among_useless 0
Core_0_DTLB_prefetch_pollution_evict 0
Core_0_DTLB_prefetch_pollution_demand 0
Core_0_DTLB_prefetch_pollution_among_prefetch_fill 0
Core_0_DTLB_prefetch_accuracy 0
Core_0_DTLB_prefetch_coverage 0

Core_0_STLB_total_access 3019658
Core_0_STLB_total_hit 636240
Core_0_STLB_total_miss 2383418
Core_0_STLB_total_MPKI 23.8342
Core_0_STLB_total_miss_rate 0.789301
Core_0_STLB_demand_access 3019658
Core_0_STLB_demand_hit 636240
Core_0_STLB_demand_miss 2383418
Core_0_STLB_demand_MPKI 23.8342
Core_0_STLB_demand_miss_rate 0.789301
Core_0_STLB_load_access 3019658
Core_0_STLB_load_hit 636240
Core_0_STLB_load_miss 2383418
Core_0_STLB_load_MPKI 23.8342
Core_0_STLB_load_miss_rate 0.789301
Core_0_STLB_rfo_access 0
Core_0_STLB_rfo_hit 0
Core_0_STLB_rfo_miss 0
Core_0_STLB_rfo_MPKI 0
Core_0_STLB_rfo_miss_rate 0
Core_0_STLB_prefetch_access 0
Core_0_STLB_prefetch_hit 0
Core_0_STLB_prefetch_miss 0
Core_0_STLB_prefetch_MPKI 0
Core_0_STLB_prefetch_miss_rate 0
Core_0_STLB_writeback_access 0
Core_0_STLB_writeback_hit 0
Core_0_STLB_writeback_miss 0
Core_0_STLB_writeback_MPKI 0
Core_0_STLB_writeback_miss_rate 0
Core_0_STLB_prefetch_requested 0
Core_0_STLB_prefetch_issued 0
Core_0_STLB_prefetch_useful 0
Core_0_STLB_prefetch_useless 0
Core_0_STLB_prefetch_late 0
Core_0_STLB_prefetch_fill 0
Core_0_STLB_prefetch_too_early 0
Core_0_STLB_prefetch_too_early_among_fill 0
Core_0_STLB_prefetch_too_early_among_useless 0
Core_0_STLB_prefetch_pollution_evict 0
Core_0_STLB_prefetch_pollution_demand 0
Core_0_STLB_prefetch_pollution_among_prefetch_fill 0
Core_0_STLB_prefetch_accuracy 0
Core_0_STLB_prefetch_coverage 0

Core_0_L1I_total_access 22100824
Core_0_L1I_total_hit 22099835
Core_0_L1I_total_miss 989
Core_0_L1I_total_MPKI 0.00989
Core_0_L1I_total_miss_rate 4.47495e-05
Core_0_L1I_demand_access 22100824
Core_0_L1I_demand_hit 22099835
Core_0_L1I_demand_miss 989
Core_0_L1I_demand_MPKI 0.00989
Core_0_L1I_demand_miss_rate 4.47495e-05
Core_0_L1I_load_access 22100824
Core_0_L1I_load_hit 22099835
Core_0_L1I_load_miss 989
Core_0_L1I_load_MPKI 0.00989
Core_0_L1I_load_miss_rate 4.47495e-05
Core_0_L1I_rfo_access 0
Core_0_L1I_rfo_hit 0
Core_0_L1I_rfo_miss 0
Core_0_L1I_rfo_MPKI 0
Core_0_L1I_rfo_miss_rate 0
Core_0_L1I_prefetch_access 0
Core_0_L1I_prefetch_hit 0
Core_0_L1I_prefetch_miss 0
Core_0_L1I_prefetch_MPKI 0
Core_0_L1I_prefetch_miss_rate 0
Core_0_L1I_writeback_access 0
Core_0_L1I_writeback_hit 0
Core_0_L1I_writeback_miss 0
Core_0_L1I_writeback_MPKI 0
Core_0_L1I_writeback_miss_rate 0
Core_0_L1I_prefetch_requested 0
Core_0_L1I_prefetch_issued 0
Core_0_L1I_prefetch_useful 0
Core_0_L1I_prefetch_useless 0
Core_0_L1I_prefetch_late 0
Core_0_L1I_prefetch_fill 0
Core_0_L1I_prefetch_too_early 0
Core_0_L1I_prefetch_too_early_among_fill 0
Core_0_L1I_prefetch_too_early_among_useless 0
Core_0_L1I_prefetch_pollution_evict 0
Core_0_L1I_prefetch_pollution_demand 0
Core_0_L1I_prefetch_pollution_among_prefetch_fill 0
Core_0_L1I_prefetch_accuracy 0
Core_0_L1I_prefetch_coverage 0

Core_0_L1D_total_access 31994298
Core_0_L1D_total_hit 13543459
Core_0_L1D_total_miss 18450839
Core_0_L1D_total_MPKI 184.508
Core_0_L1D_total_miss_rate 0.576691
Core_0_L1D_demand_access 20882768
Core_0_L1D_demand_hit 8758877
Core_0_L1D_demand_miss 12123891
Core_0_L1D_demand_MPKI 121.239
Core_0_L1D_demand_miss_rate 0.580569
Core_0_L1D_load_access 20882768
Core_0_L1D_load_hit 8758877
Core_0_L1D_load_miss 12123891
Core_0_L1D_load_MPKI 121.239
Core_0_L1D_load_miss_rate 0.580569
Core_0_L1D_rfo_access 0
Core_0_L1D_rfo_hit 0
Core_0_L1D_rfo_miss 0
Core_0_L1D_rfo_MPKI 0
Core_0_L1D_rfo_miss_rate 0
Core_0_L1D_prefetch_access 8270748
Core_0_L1D_prefetch_hit 2703893
Core_0_L1D_prefetch_miss 5566855
Core_0_L1D_prefetch_MPKI 55.6685
Core_0_L1D_prefetch_miss_rate 0.673078
Core_0_L1D_writeback_access 2840782
Core_0_L1D_writeback_hit 2080689
Core_0_L1D_writeback_miss 760093
Core_0_L1D_writeback_MPKI 7.60093
Core_0_L1D_writeback_miss_rate 0.267565
Core_0_L1D_prefetch_requested 624676460
Core_0_L1D_prefetch_issued 8270749
Core_0_L1D_prefetch_useful 147036
Core_0_L1D_prefetch_useless 33694
Core_0_L1D_prefetch_late 19103
Core_0_L1D_prefetch_fill 161612
Core_0_L1D_prefetch_too_early 2537
Core_0_L1D_prefetch_too_early_among_fill 0.0156981
Core_0_L1D_prefetch_too_early_among_useless 0.0752953
Core_0_L1D_prefetch_pollution_evict 10919
Core_0_L1D_prefetch_pollution_demand 10833
Core_0_L1D_prefetch_pollution_among_prefetch_fill 0.0675631
Core_0_L1D_prefetch_accuracy 0.0177778
Core_0_L1D_prefetch_coverage 0.0119825

Core_0_L2C_total_access 27243080
Core_0_L2C_total_hit 8411819
Core_0_L2C_total_miss 18831261
Core_0_L2C_total_MPKI 188.313
Core_0_L2C_total_miss_rate 0.691231
Core_0_L2C_demand_access 11298041
Core_0_L2C_demand_hit 1224003
Core_0_L2C_demand_miss 10074038
Core_0_L2C_demand_MPKI 100.74
Core_0_L2C_demand_miss_rate 0.891662
Core_0_L2C_load_access 10885073
Core_0_L2C_load_hit 1134250
Core_0_L2C_load_miss 9750823
Core_0_L2C_load_MPKI 97.5082
Core_0_L2C_load_miss_rate 0.895798
Core_0_L2C_rfo_access 412968
Core_0_L2C_rfo_hit 89753
Core_0_L2C_rfo_miss 323215
Core_0_L2C_rfo_MPKI 3.23215
Core_0_L2C_rfo_miss_rate 0.782664
Core_0_L2C_prefetch_access 13811045
Core_0_L2C_prefetch_hit 5053844
Core_0_L2C_prefetch_miss 8757201
Core_0_L2C_prefetch_MPKI 87.572
Core_0_L2C_prefetch_miss_rate 0.634072
Core_0_L2C_writeback_access 2133994
Core_0_L2C_writeback_hit 2133972
Core_0_L2C_writeback_miss 22
Core_0_L2C_writeback_MPKI 0.00022
Core_0_L2C_writeback_miss_rate 1.03093e-05
Core_0_L2C_prefetch_requested 8322719
Core_0_L2C_prefetch_issued 8318176
Core_0_L2C_prefetch_useful 689936
Core_0_L2C_prefetch_useless 276830
Core_0_L2C_prefetch_late 652092
Core_0_L2C_prefetch_fill 886708
Core_0_L2C_prefetch_too_early 3738
Core_0_L2C_prefetch_too_early_among_fill 0.00421559
Core_0_L2C_prefetch_too_early_among_useless 0.0135029
Core_0_L2C_prefetch_pollution_evict 57405
Core_0_L2C_prefetch_pollution_demand 57330
Core_0_L2C_prefetch_pollution_among_prefetch_fill 0.0647395
Core_0_L2C_prefetch_accuracy 0.0829432
Core_0_L2C_prefetch_coverage 0.0640968

Core_0_LLC_total_access 18915805
Core_0_LLC_total_hit 2747798
Core_0_LLC_total_miss 16168007
Core_0_LLC_total_MPKI 161.68
Core_0_LLC_total_miss_rate 0.854735
Core_0_LLC_demand_access 9371880
Core_0_LLC_demand_hit 795473
Core_0_LLC_demand_miss 8576407
Core_0_LLC_demand_MPKI 85.7641
Core_0_LLC_demand_miss_rate 0.915121
Core_0_LLC_load_access 9048667
Core_0_LLC_load_hit 630494
Core_0_LLC_load_miss 8418173
Core_0_LLC_load_MPKI 84.1817
Core_0_LLC_load_miss_rate 0.930322
Core_0_LLC_rfo_access 323213
Core_0_LLC_rfo_hit 164979
Core_0_LLC_rfo_miss 158234
Core_0_LLC_rfo_MPKI 1.58234
Core_0_LLC_rfo_miss_rate 0.489566
Core_0_LLC_prefetch_access 7497713
Core_0_LLC_prefetch_hit 148051
Core_0_LLC_prefetch_miss 7349662
Core_0_LLC_prefetch_MPKI 73.4966
Core_0_LLC_prefetch_miss_rate 0.980254
Core_0_LLC_writeback_access 2046212
Core_0_LLC_writeback_hit 1804274
Core_0_LLC_writeback_miss 241938
Core_0_LLC_writeback_MPKI 2.41938
Core_0_LLC_writeback_miss_rate 0.118237
Core_0_LLC_prefetch_requested 0
Core_0_LLC_prefetch_issued 0
Core_0_LLC_prefetch_useful 0
Core_0_LLC_prefetch_useless 0
Core_0_LLC_prefetch_late 0
Core_0_LLC_prefetch_fill 1927835
Core_0_LLC_prefetch_too_early 0
Core_0_LLC_prefetch_too_early_among_fill 0
Core_0_LLC_prefetch_too_early_among_useless 0
Core_0_LLC_prefetch_pollution_evict 45756
Core_0_LLC_prefetch_pollution_demand 45756
Core_0_LLC_prefetch_pollution_among_prefetch_fill 0.0237344
Core_0_LLC_prefetch_accuracy 0
Core_0_LLC_prefetch_coverage 0

[DRAM Statistics]
Channel_0_RQ_row_buffer_hit 3398661
Channel_0_RQ_row_buffer_miss 7305182
Channel_0_WQ_row_buffer_hit 320005
Channel_0_WQ_row_buffer_miss 1730289
Channel_0_WQ_full 0
Channel_0_dbus_congested 36553934
DRAM_total_RQ_row_buffer_hit 3398661
DRAM_total_RQ_row_buffer_miss 7305182
DRAM_total_WQ_row_buffer_hit 320005
DRAM_total_WQ_row_buffer_miss 1730289
DRAM_total_WQ_full 0
DRAM_total_dbus_congested 36553934
DRAM_avg_congested_cycle 4.66921

====== DRAM_RQ_TRAFFIC ========
DRAM_RQ_READ_TRAFFIC_BREAKDOWN:
data_demand_read.count = 4868147
data_demand_read.share = 45.48%

inst_demand_read.count = 565
inst_demand_read.share = 0.01%

cache_inst_prefetch.count = 0
cache_inst_prefetch.share = 0.00%

cache_data_prefetch.count = 5635535
cache_data_prefetch.share = 52.65%

stlb_data_demand.count = 197895
stlb_data_demand.share = 1.85%

stlb_inst_demand.count = 136
stlb_inst_demand.share = 0.00%

stlb_l1i_pref.count = 0
stlb_l1i_pref.share = 0.00%

stlb_l1d_pref.count = 1662
stlb_l1d_pref.share = 0.02%

DRAM_RQ_READ_TRAFFIC_SUMMARY:
cache_demand.count = 4868712
cache_demand.share = 45.49%

cache_prefetch.count = 5635535
cache_prefetch.share = 52.65%

stlb_demand.count = 198031
stlb_demand.share = 1.85%

stlb_prefetch.count = 1662
stlb_prefetch.share = 0.02%

DRAM_RQ_READ_TRAFFIC_DEBUG:
total_classified_read.count = 10703940
unclassified_read.count = 0
total_read_with_other.count = 10703940

classified_plus_unclassified_check.count = 10703940
dram_rq_read_total_observed.count = 10703940
dram_rq_read_total_observed.per_1K_instructions = 107.039

STLB_MISS_PTW_DRAM_TOUCH_BREAKDOWN:
stlb_miss_total.count = 2376690

stlb_miss_touch_dram.count = 199003
stlb_miss_touch_dram.share = 8.37%

stlb_miss_no_dram_touch.count = 2177687
stlb_miss_no_dram_touch.share = 91.63%

STLB_MISS_PTW_DRAM_TOUCH_DEBUG:
stlb_miss_touch_plus_no_touch.count = 2376690
stlb_miss_total_check.count = 2376690

======STLB miss causes ========
Core_0_STLB_miss_cause_breakdown
Core_0_STLB_cause_Demand_Data_miss 2366368
Core_0_STLB_cause_Demand_Data_miss_rate 0.783654
Core_0_STLB_cause_Demand_Instruction_miss 172
Core_0_STLB_cause_Demand_Instruction_miss_rate 5.69601e-05
Core_0_STLB_cause_L1D_Prefetch_miss 16878
Core_0_STLB_cause_L1D_Prefetch_miss_rate 0.00558937
Core_0_STLB_cause_L1D_Prefetch_Same_Page_miss 2
Core_0_STLB_cause_L1D_Prefetch_Same_Page_miss_rate 6.62327e-07
Core_0_STLB_cause_L1D_Prefetch_Cross_Page_miss 16876
Core_0_STLB_cause_L1D_Prefetch_Cross_Page_miss_rate 0.00558871
Core_0_STLB_cause_L1I_Prefetch_miss 0
Core_0_STLB_cause_L1I_Prefetch_miss_rate 0
Core_0_STLB_cause_Other_miss 0
Core_0_STLB_cause_Other_miss_rate 0
Core_0_STLB_Demand_miss 2366540
Core_0_STLB_Demand_miss_rate 0.783711
Core_0_STLB_L1D_Prefetch_miss 16878
Core_0_STLB_L1D_Prefetch_miss_rate 0.00558937
Core_0_STLB_Other_miss 0
Core_0_STLB_Other_miss_rate 0

========== vBerti-TLB Cross-page Flow Stats ==========

Core_0_vBerti_Requested 624676460
Core_0_vBerti_Cross_page_prefetch_in_Requested 143601625
Core_0_vBerti_Same_page_prefetch_in_Requested 481074835
Core_0_vBerti_Cross_page_prefetch_of_Requested 0.229882
Core_0_vBerti_Issued 8270749
Core_0_vBerti_InPQ_Same_page_prefetch 6940602
Core_0_vBerti_InPQ_Cross_page_prefetch 1330147
Core_0_vBerti_PQ_Drop_Rate 0.98676
Core_0_vBerti_InPQ_Cross_page_prefetch_of_Requested 0.00212934
Core_0_vBerti_Cross_page_PQ_Drop_rate 0.990737
Core_0_vBerti_Cross_page_prefetch_of_Issued 0.160825
Core_0_CP_PF_PQFULL_drop 142271478
Core_0_CP_PF_PQFULL_TLB_rescue_enqueued 871897
Core_0_CP_PF_PQFULL_TLB_rescue_issued 871881
Core_0_CP_PF_PQFULL_TLB_rescue_translated 871881

========= DTLB_vBerti Prefetch Stats =========
Core_0_DTLB_demand_access 23063140
Core_0_DTLB_demand_hit 16758625
Core_0_DTLB_demand_miss 6304515
Core_0_DTLB_demand_mshr_merge 3313414
Core_0_DTLB_demand_fill 2991827
Core_0_DTLB_demand_miss_rate 0.273359
Core_0_DTLB_demand_mpki 63.0451
Core_0_DTLB_vberti_prefetch_access 6104350
Core_0_DTLB_vberti_prefetch_hit 6028238
Core_0_DTLB_vberti_prefetch_miss 76112
Core_0_DTLB_vberti_prefetch_mshr_merge 47739
Core_0_DTLB_vberti_prefetch_fill 27649
Core_0_DTLB_vberti_prefetch_miss_rate 0.0124685
Core_0_DTLB_vberti_prefetch_mpki 0.76112

=== DTLB_vBerti Same/Cross-page Prefetch Stats ===
Core_0_DTLB_vberti_same_page_prefetch 4619075
Core_0_DTLB_vberti_same_page_prefetch_hit 4619073
Core_0_DTLB_vberti_same_page_prefetch_miss 2
Core_0_DTLB_vberti_same_page_prefetch_mshr_merge 0
Core_0_DTLB_vberti_same_page_prefetch_fill 2
Core_0_DTLB_vberti_same_page_prefetch_miss_rate 4.32987e-07
Core_0_DTLB_vberti_same_page_prefetch_mpki 2e-05
Core_0_DTLB_vberti_cross_page_prefetch 1485275
Core_0_DTLB_vberti_cross_page_prefetch_hit 1409165
Core_0_DTLB_vberti_cross_page_prefetch_miss 76110
Core_0_DTLB_vberti_cross_page_prefetch_mshr_merge 47739
Core_0_DTLB_vberti_cross_page_prefetch_fill 27647
Core_0_DTLB_vberti_cross_page_prefetch_miss_rate 0.051243
Core_0_DTLB_vberti_cross_page_prefetch_mpki 0.7611
Core_0_DTLB_same_page_prefetch_miss_rate 4.32987e-07
Core_0_DTLB_same_page_prefetch_mpki 2e-05
Core_0_DTLB_cross_page_prefetch_miss_rate 0.051243
Core_0_DTLB_cross_page_prefetch_mpki 0.7611
Core_0_DTLB_cross_page_prefetch_issued 1485275
Core_0_DTLB_cross_page_prefetch_lookups 1485275
Core_0_DTLB_cross_page_prefetch_useful 25609
Core_0_DTLB_cross_page_prefetch_useless 2762
Core_0_DTLB_cross_page_prefetch_late 724
Core_0_DTLB_cross_page_prefetch_too_early 328
Core_0_DTLB_cross_page_prefetch_too_early_among_fill 0.0118639
Core_0_DTLB_cross_page_prefetch_too_early_among_useless 0.118755
Core_0_DTLB_cross_page_prefetch_pollution_evict 7041
Core_0_DTLB_cross_page_prefetch_pollution_demand 7031
Core_0_DTLB_cross_page_prefetch_pollution_among_prefetch_fill 0.254675
Core_0_DTLB_cross_page_prefetch_accuracy 0.0172419
Core_0_DTLB_cross_page_prefetch_coverage 0.00404558

========= STLB_vBerti Prefetch Stats =========
Core_0_STLB_demand_access 2991285
Core_0_STLB_demand_hit 624745
Core_0_STLB_demand_miss 2366540
Core_0_STLB_demand_mshr_merge 0
Core_0_STLB_demand_fill 2366542
Core_0_STLB_demand_miss_rate 0.791145
Core_0_STLB_demand_mpki 23.6654
Core_0_STLB_vberti_prefetch_access 28373
Core_0_STLB_vberti_prefetch_hit 11495
Core_0_STLB_vberti_prefetch_miss 16878
Core_0_STLB_vberti_prefetch_mshr_merge 0
Core_0_STLB_vberti_prefetch_fill 2
Core_0_STLB_vberti_prefetch_miss_rate 0.594861
Core_0_STLB_vberti_prefetch_mpki 0.16878

=== STLB_vBerti Same/Cross-page Prefetch Stats ===
Core_0_STLB_vberti_same_page_prefetch 2
Core_0_STLB_vberti_same_page_prefetch_hit 0
Core_0_STLB_vberti_same_page_prefetch_miss 2
Core_0_STLB_vberti_same_page_prefetch_mshr_merge 0
Core_0_STLB_vberti_same_page_prefetch_fill 2
Core_0_STLB_vberti_same_page_prefetch_miss_rate 1
Core_0_STLB_vberti_same_page_prefetch_mpki 2e-05
Core_0_STLB_vberti_cross_page_prefetch 28371
Core_0_STLB_vberti_cross_page_prefetch_hit 11495
Core_0_STLB_vberti_cross_page_prefetch_miss 16876
Core_0_STLB_vberti_cross_page_prefetch_mshr_merge 0
Core_0_STLB_vberti_cross_page_prefetch_fill 0
Core_0_STLB_vberti_cross_page_prefetch_miss_rate 0.594833
Core_0_STLB_vberti_cross_page_prefetch_mpki 0.16876
Core_0_STLB_same_page_prefetch_miss_rate 1
Core_0_STLB_same_page_prefetch_mpki 2e-05
Core_0_STLB_cross_page_prefetch_miss_rate 0.594833
Core_0_STLB_cross_page_prefetch_mpki 0.16876
Core_0_STLB_cross_page_prefetch_issued 28371
Core_0_STLB_cross_page_prefetch_lookups 28371
Core_0_STLB_cross_page_prefetch_useful 6728
Core_0_STLB_cross_page_prefetch_useless 8214
Core_0_STLB_cross_page_prefetch_late 6728
Core_0_STLB_cross_page_prefetch_too_early 0
Core_0_STLB_cross_page_prefetch_too_early_among_fill 0
Core_0_STLB_cross_page_prefetch_too_early_among_useless 0
Core_0_STLB_cross_page_prefetch_pollution_evict 0
Core_0_STLB_cross_page_prefetch_pollution_demand 0
Core_0_STLB_cross_page_prefetch_pollution_among_prefetch_fill 0
Core_0_STLB_cross_page_prefetch_accuracy 0.237144
Core_0_STLB_cross_page_prefetch_coverage 0.00283491

========= STLB Cross-page Prefetch Buffer Stats =========
Core_0_STLB_raw_demand_miss 2366368
Core_0_CP_PB_insert 16876
Core_0_CP_PB_demand_hit 6728
Core_0_STLB_PB_demand_miss 2359640
Core_0_CP_PB_coverage 0.00284318
Core_0_STLB_raw_demand_mpki 23.6637
Core_0_STLB_PB_demand_mpki 23.5964
Core_0_CP_PB_demand_hit_mpki 0.06728

Core_0_TLB_demand_miss_rate 0.102611
Core_0_TLB_demand_mpki 23.6654
Core_0_TLB_same_page_prefetch_miss_rate 4.32987e-07
Core_0_TLB_same_page_prefetch_mpki 2e-05
Core_0_TLB_cross_page_prefetch_miss_rate 0.0113622
Core_0_TLB_cross_page_prefetch_mpki 0.16876
Core_0_TLB_cross_page_prefetch_issued 1485275
Core_0_TLB_cross_page_prefetch_lookups 1485275
Core_0_TLB_cross_page_prefetch_useful 2474
Core_0_TLB_cross_page_prefetch_useless 450
Core_0_TLB_cross_page_prefetch_late 207
Core_0_TLB_cross_page_prefetch_too_early 41
Core_0_TLB_cross_page_prefetch_too_early_among_fill 0.00148298
Core_0_TLB_cross_page_prefetch_too_early_among_useless 0.0911111
Core_0_TLB_cross_page_prefetch_accuracy 0.00166568
Core_0_TLB_cross_page_prefetch_coverage 0.00104432
BERTI TO_L1: 7960037 TO_L2: 632264550 TO_L2_BC_MSHR: 180058687
BERTI AVG_LAT: 173.685 NUM_TRACK_LATENCY: 15855456 NUM_CANT_TRACK_LATENCY: 480
BERTI CROSS_PAGE 148338677 NO_CROSS_PAGE: 491885910
BERTI FOUND_BERTI: 200649360 NO_FOUND_BERTI: 15417826
BERTI AVERAGE_ISSUED: 2.7639
