[VMEM] WARNING: physical memory size is smaller than virtual memory size.

*** ChampSim Multicore Out-of-Order Simulator ***
Warmup Instructions: 50000000
Simulation Instructions: 100000000
Number of CPUs: 1
Page size: 4096
Core 0: /data0/tzh/champsim_traces/QMM/compute_int_27_new.xz
VBerti Prefetcher
BERTI HASH ENTANGLING
BERTI IP MASK ffff
Off-chip DRAM Size: 16 GiB Channels: 1 Width: 64-bit Data Rate: 3205 MT/s
*** Reached end of trace: (0, "/data0/tzh/champsim_traces/QMM/compute_int_27_new.xz")
[BTB] WARNING: target of return is a lower address than the corresponding call. This is usually a problem with your trace.
[BTB] WARNING: target of return is a lower address than the corresponding call. This is usually a problem with your trace.
[BTB] WARNING: target of return is a lower address than the corresponding call. This is usually a problem with your trace.
Warmup halting CPU 0 at instruction 50000003 cycle 14778933 for remainder of phase
Warmup finished CPU 0 instructions: 50000003 cycles: 14778933 cumulative IPC: 3.383 (Simulation time: 00 hr 03 min 24 sec)
Warmup complete CPU 0 instructions: 50000003 cycles: 14778933 cumulative IPC: 3.383 (Simulation time: 00 hr 03 min 24 sec)
*** Reached end of trace: (0, "/data0/tzh/champsim_traces/QMM/compute_int_27_new.xz")
[BTB] WARNING: target of return is a lower address than the corresponding call. This is usually a problem with your trace.
[BTB] WARNING: target of return is a lower address than the corresponding call. This is usually a problem with your trace.
[BTB] WARNING: target of return is a lower address than the corresponding call. This is usually a problem with your trace.
*** Reached end of trace: (0, "/data0/tzh/champsim_traces/QMM/compute_int_27_new.xz")
[BTB] WARNING: target of return is a lower address than the corresponding call. This is usually a problem with your trace.
[BTB] WARNING: target of return is a lower address than the corresponding call. This is usually a problem with your trace.
[BTB] WARNING: target of return is a lower address than the corresponding call. This is usually a problem with your trace.
*** Reached end of trace: (0, "/data0/tzh/champsim_traces/QMM/compute_int_27_new.xz")
[BTB] WARNING: target of return is a lower address than the corresponding call. This is usually a problem with your trace.
Simulation finished CPU 0 instructions: 100000000 cycles: 185827218 cumulative IPC: 0.5381 (Simulation time: 00 hr 33 min 49 sec)
Simulation complete CPU 0 instructions: 100000000 cycles: 185827218 cumulative IPC: 0.5381 (Simulation time: 00 hr 33 min 49 sec)

ChampSim completed all CPUs

=== Simulation ===
CPU 0 runs /data0/tzh/champsim_traces/QMM/compute_int_27_new.xz

Region of Interest Statistics

CPU 0 cumulative IPC: 0.5381 instructions: 100000000 cycles: 185827218
CPU 0 Branch Prediction Accuracy: 99.34% MPKI: 1.659 Average ROB Occupancy at Mispredict: 244.3
Branch type MPKI
BRANCH_DIRECT_JUMP: 0
BRANCH_INDIRECT: 0
BRANCH_CONDITIONAL: 1.659
BRANCH_DIRECT_CALL: 0
BRANCH_INDIRECT_CALL: 0
BRANCH_RETURN: 9e-05

cpu0->cpu0_STLB TOTAL        ACCESS:     302112 HIT:      13298 MISS:     288814 MSHR_MERGE:          0
cpu0->cpu0_STLB LOAD         ACCESS:     302112 HIT:      13298 MISS:     288814 MSHR_MERGE:          0
cpu0->cpu0_STLB RFO          ACCESS:          0 HIT:          0 MISS:          0 MSHR_MERGE:          0
cpu0->cpu0_STLB PREFETCH     ACCESS:          0 HIT:          0 MISS:          0 MSHR_MERGE:          0
cpu0->cpu0_STLB WRITE        ACCESS:          0 HIT:          0 MISS:          0 MSHR_MERGE:          0
cpu0->cpu0_STLB TRANSLATION  ACCESS:          0 HIT:          0 MISS:          0 MSHR_MERGE:          0
cpu0->cpu0_STLB PREFETCH REQUESTED:          0 ISSUED:          0 USEFUL:          0 USELESS:          0 LATE:          0 TOO_EARLY:          0
cpu0->cpu0_STLB AVERAGE MISS LATENCY: 104.6 cycles
cpu0->cpu0_L2C TOTAL        ACCESS:   11494996 HIT:    2607909 MISS:    8887087 MSHR_MERGE:    5429990
cpu0->cpu0_L2C LOAD         ACCESS:    1928705 HIT:     142587 MISS:    1786118 MSHR_MERGE:     579614
cpu0->cpu0_L2C RFO          ACCESS:      44662 HIT:       2537 MISS:      42125 MSHR_MERGE:         11
cpu0->cpu0_L2C PREFETCH     ACCESS:    8651755 HIT:    1704971 MISS:    6946784 MSHR_MERGE:    4850365
cpu0->cpu0_L2C WRITE        ACCESS:     750814 HIT:     750637 MISS:        177 MSHR_MERGE:          0
cpu0->cpu0_L2C TRANSLATION  ACCESS:     119060 HIT:       7177 MISS:     111883 MSHR_MERGE:          0
cpu0->cpu0_L2C PREFETCH REQUESTED:    5005635 ISSUED:    3541786 USEFUL:     189523 USELESS:      60302 LATE:      73325 TOO_EARLY:        647
cpu0->cpu0_L2C AVERAGE MISS LATENCY: 223 cycles
cpu0->cpu0_L1I TOTAL        ACCESS:   12841288 HIT:   12840984 MISS:        304 MSHR_MERGE:        103
cpu0->cpu0_L1I LOAD         ACCESS:   12841288 HIT:   12840984 MISS:        304 MSHR_MERGE:        103
cpu0->cpu0_L1I RFO          ACCESS:          0 HIT:          0 MISS:          0 MSHR_MERGE:          0
cpu0->cpu0_L1I PREFETCH     ACCESS:          0 HIT:          0 MISS:          0 MSHR_MERGE:          0
cpu0->cpu0_L1I WRITE        ACCESS:          0 HIT:          0 MISS:          0 MSHR_MERGE:          0
cpu0->cpu0_L1I TRANSLATION  ACCESS:          0 HIT:          0 MISS:          0 MSHR_MERGE:          0
cpu0->cpu0_L1I PREFETCH REQUESTED:          0 ISSUED:          0 USEFUL:          0 USELESS:          0 LATE:          0 TOO_EARLY:          0
cpu0->cpu0_L1I AVERAGE MISS LATENCY: 290.1 cycles
cpu0->cpu0_L1D TOTAL        ACCESS:   30558009 HIT:   21440817 MISS:    9117192 MSHR_MERGE:    1693318
cpu0->cpu0_L1D LOAD         ACCESS:   13848214 HIT:   10620562 MISS:    3227652 MSHR_MERGE:    1299147
cpu0->cpu0_L1D RFO          ACCESS:          0 HIT:          0 MISS:          0 MSHR_MERGE:          0
cpu0->cpu0_L1D PREFETCH     ACCESS:    7764126 HIT:    2100277 MISS:    5663849 MSHR_MERGE:     332222
cpu0->cpu0_L1D WRITE        ACCESS:    8403920 HIT:    8305978 MISS:      97942 MSHR_MERGE:      53260
cpu0->cpu0_L1D TRANSLATION  ACCESS:     541749 HIT:     414000 MISS:     127749 MSHR_MERGE:       8689
cpu0->cpu0_L1D PREFETCH REQUESTED:   69765952 ISSUED:    7764124 USEFUL:     582475 USELESS:      82834 LATE:     317390 TOO_EARLY:        109
cpu0->cpu0_L1D AVERAGE MISS LATENCY: 210 cycles
cpu0->cpu0_ITLB TOTAL        ACCESS:   11596850 HIT:   11596503 MISS:        347 MSHR_MERGE:        243
cpu0->cpu0_ITLB LOAD         ACCESS:   11596850 HIT:   11596503 MISS:        347 MSHR_MERGE:        243
cpu0->cpu0_ITLB RFO          ACCESS:          0 HIT:          0 MISS:          0 MSHR_MERGE:          0
cpu0->cpu0_ITLB PREFETCH     ACCESS:          0 HIT:          0 MISS:          0 MSHR_MERGE:          0
cpu0->cpu0_ITLB WRITE        ACCESS:          0 HIT:          0 MISS:          0 MSHR_MERGE:          0
cpu0->cpu0_ITLB TRANSLATION  ACCESS:          0 HIT:          0 MISS:          0 MSHR_MERGE:          0
cpu0->cpu0_ITLB PREFETCH REQUESTED:          0 ISSUED:          0 USEFUL:          0 USELESS:          0 LATE:          0 TOO_EARLY:          0
cpu0->cpu0_ITLB AVERAGE MISS LATENCY: 286.8 cycles
cpu0->cpu0_DTLB TOTAL        ACCESS:   26819926 HIT:   25920513 MISS:     899413 MSHR_MERGE:     597405
cpu0->cpu0_DTLB LOAD         ACCESS:   26819926 HIT:   25920513 MISS:     899413 MSHR_MERGE:     597405
cpu0->cpu0_DTLB RFO          ACCESS:          0 HIT:          0 MISS:          0 MSHR_MERGE:          0
cpu0->cpu0_DTLB PREFETCH     ACCESS:          0 HIT:          0 MISS:          0 MSHR_MERGE:          0
cpu0->cpu0_DTLB WRITE        ACCESS:          0 HIT:          0 MISS:          0 MSHR_MERGE:          0
cpu0->cpu0_DTLB TRANSLATION  ACCESS:          0 HIT:          0 MISS:          0 MSHR_MERGE:          0
cpu0->cpu0_DTLB PREFETCH REQUESTED:          0 ISSUED:          0 USEFUL:          0 USELESS:          0 LATE:          0 TOO_EARLY:          0
cpu0->cpu0_DTLB AVERAGE MISS LATENCY: 101.1 cycles
cpu0->LLC TOTAL        ACCESS:    4193435 HIT:     733975 MISS:    3459460 MSHR_MERGE:     483878
cpu0->LLC LOAD         ACCESS:    1206504 HIT:      45328 MISS:    1161176 MSHR_MERGE:      31737
cpu0->LLC RFO          ACCESS:      42114 HIT:        283 MISS:      41831 MSHR_MERGE:          0
cpu0->LLC PREFETCH     ACCESS:    2096384 HIT:       6918 MISS:    2089466 MSHR_MERGE:     452141
cpu0->LLC WRITE        ACCESS:     736550 HIT:     652127 MISS:      84423 MSHR_MERGE:          0
cpu0->LLC TRANSLATION  ACCESS:     111883 HIT:      29319 MISS:      82564 MSHR_MERGE:          0
cpu0->LLC PREFETCH REQUESTED:          0 ISSUED:          0 USEFUL:          0 USELESS:          0 LATE:          0 TOO_EARLY:          0
cpu0->LLC AVERAGE MISS LATENCY: 230 cycles

DRAM Statistics

Channel 0 RQ ROW_BUFFER_HIT:     442868
  ROW_BUFFER_MISS:    2448243
  AVG DBUS CONGESTED CYCLE: 5.566
Channel 0 WQ ROW_BUFFER_HIT:     185761
  ROW_BUFFER_MISS:     529258
  FULL:          0
Channel 0 REFRESHES ISSUED:      15486

[ROI Statistics]
[System Configuration]
num_cpus 1
cpu_freq 4000
fetch_width 6
decode_width 6
dispatch_width 6
execute_width 6
lq_width 2
sq_width 2
retire_width 6
scheduler_size 128
branch_mispredict_penalty 15
rob_size 352
lq_size 128
sq_size 72
ifetch_buffer_size 64
decode_buffer_size 32
dispatch_buffer_size 32
register_file_size 288
decode_latency 1
dispatch_latency 1
schedule_latency 1
execute_latency 1
page_size 4096
block_size 64
core_0_itlb_set 16
core_0_itlb_way 4
core_0_itlb_rq_size 16
core_0_itlb_wq_size 16
core_0_itlb_pq_size 0
core_0_itlb_mshr_size 8
core_0_itlb_hit_latency 1
core_0_itlb_fill_latency 1
core_0_itlb_max_tag_check 2
core_0_itlb_max_fill 2
core_0_dtlb_set 16
core_0_dtlb_way 4
core_0_dtlb_rq_size 16
core_0_dtlb_wq_size 16
core_0_dtlb_pq_size 0
core_0_dtlb_mshr_size 8
core_0_dtlb_hit_latency 1
core_0_dtlb_fill_latency 1
core_0_dtlb_max_tag_check 2
core_0_dtlb_max_fill 2
core_0_stlb_set 128
core_0_stlb_way 12
core_0_stlb_rq_size 32
core_0_stlb_wq_size 32
core_0_stlb_pq_size 0
core_0_stlb_mshr_size 16
core_0_stlb_hit_latency 4
core_0_stlb_fill_latency 4
core_0_stlb_max_tag_check 1
core_0_stlb_max_fill 1
core_0_l1i_set 64
core_0_l1i_way 8
core_0_l1i_rq_size 64
core_0_l1i_wq_size 64
core_0_l1i_pq_size 32
core_0_l1i_mshr_size 8
core_0_l1i_hit_latency 2
core_0_l1i_fill_latency 2
core_0_l1i_max_tag_check 2
core_0_l1i_max_fill 2
core_0_l1d_set 64
core_0_l1d_way 12
core_0_l1d_rq_size 64
core_0_l1d_wq_size 64
core_0_l1d_pq_size 8
core_0_l1d_mshr_size 16
core_0_l1d_hit_latency 2
core_0_l1d_fill_latency 3
core_0_l1d_max_tag_check 2
core_0_l1d_max_fill 2
core_0_l2c_set 1024
core_0_l2c_way 8
core_0_l2c_rq_size 32
core_0_l2c_wq_size 32
core_0_l2c_pq_size 16
core_0_l2c_mshr_size 32
core_0_l2c_hit_latency 5
core_0_l2c_fill_latency 5
core_0_l2c_max_tag_check 1
core_0_l2c_max_fill 1
llc_set 2048
llc_way 16
llc_rq_size 32
llc_wq_size 32
llc_pq_size 32
llc_mshr_size 64
llc_hit_latency 10
llc_fill_latency 10
llc_max_tag_check 1
llc_max_fill 1
dram_channels 1
dram_ranks 1
dram_bankgroups 8
dram_banks 4
dram_rows 65536
dram_columns 1024
dram_channel_width 8
dram_rq_size 64
dram_wq_size 64
dram_size 17179869184
core_0_itlb_prefetcher no
core_0_dtlb_prefetcher no
core_0_stlb_prefetcher no
core_0_l1i_prefetcher next_line
core_0_l1d_prefetcher vberti
core_0_l2c_prefetcher ip_stride
llc_prefetcher no
llc_replacement drrip

Core_0_instructions 100000000
Core_0_cycles 185827218
Core_0_IPC 0.538134
Core_0_branch_prediction_accuracy 99.3432
Core_0_branch_MPKI 1.65926
Core_0_average_ROB_occupancy_at_mispredict 244.262

Core_0_ITLB_total_access 11596850
Core_0_ITLB_total_hit 11596503
Core_0_ITLB_total_miss 347
Core_0_ITLB_total_MPKI 0.00347
Core_0_ITLB_total_miss_rate 2.99219e-05
Core_0_ITLB_demand_access 11596850
Core_0_ITLB_demand_hit 11596503
Core_0_ITLB_demand_miss 347
Core_0_ITLB_demand_MPKI 0.00347
Core_0_ITLB_demand_miss_rate 2.99219e-05
Core_0_ITLB_load_access 11596850
Core_0_ITLB_load_hit 11596503
Core_0_ITLB_load_miss 347
Core_0_ITLB_load_MPKI 0.00347
Core_0_ITLB_load_miss_rate 2.99219e-05
Core_0_ITLB_rfo_access 0
Core_0_ITLB_rfo_hit 0
Core_0_ITLB_rfo_miss 0
Core_0_ITLB_rfo_MPKI 0
Core_0_ITLB_rfo_miss_rate 0
Core_0_ITLB_prefetch_access 0
Core_0_ITLB_prefetch_hit 0
Core_0_ITLB_prefetch_miss 0
Core_0_ITLB_prefetch_MPKI 0
Core_0_ITLB_prefetch_miss_rate 0
Core_0_ITLB_writeback_access 0
Core_0_ITLB_writeback_hit 0
Core_0_ITLB_writeback_miss 0
Core_0_ITLB_writeback_MPKI 0
Core_0_ITLB_writeback_miss_rate 0
Core_0_ITLB_prefetch_requested 0
Core_0_ITLB_prefetch_issued 0
Core_0_ITLB_prefetch_useful 0
Core_0_ITLB_prefetch_useless 0
Core_0_ITLB_prefetch_late 0
Core_0_ITLB_prefetch_fill 0
Core_0_ITLB_prefetch_too_early 0
Core_0_ITLB_prefetch_too_early_among_fill 0
Core_0_ITLB_prefetch_too_early_among_useless 0
Core_0_ITLB_prefetch_pollution_evict 0
Core_0_ITLB_prefetch_pollution_demand 0
Core_0_ITLB_prefetch_pollution_among_prefetch_fill 0
Core_0_ITLB_prefetch_accuracy 0
Core_0_ITLB_prefetch_coverage 0

Core_0_DTLB_total_access 26819926
Core_0_DTLB_total_hit 25920513
Core_0_DTLB_total_miss 899413
Core_0_DTLB_total_MPKI 8.99413
Core_0_DTLB_total_miss_rate 0.0335353
Core_0_DTLB_demand_access 26819926
Core_0_DTLB_demand_hit 25920513
Core_0_DTLB_demand_miss 899413
Core_0_DTLB_demand_MPKI 8.99413
Core_0_DTLB_demand_miss_rate 0.0335353
Core_0_DTLB_load_access 26819926
Core_0_DTLB_load_hit 25920513
Core_0_DTLB_load_miss 899413
Core_0_DTLB_load_MPKI 8.99413
Core_0_DTLB_load_miss_rate 0.0335353
Core_0_DTLB_rfo_access 0
Core_0_DTLB_rfo_hit 0
Core_0_DTLB_rfo_miss 0
Core_0_DTLB_rfo_MPKI 0
Core_0_DTLB_rfo_miss_rate 0
Core_0_DTLB_prefetch_access 0
Core_0_DTLB_prefetch_hit 0
Core_0_DTLB_prefetch_miss 0
Core_0_DTLB_prefetch_MPKI 0
Core_0_DTLB_prefetch_miss_rate 0
Core_0_DTLB_writeback_access 0
Core_0_DTLB_writeback_hit 0
Core_0_DTLB_writeback_miss 0
Core_0_DTLB_writeback_MPKI 0
Core_0_DTLB_writeback_miss_rate 0
Core_0_DTLB_prefetch_requested 0
Core_0_DTLB_prefetch_issued 0
Core_0_DTLB_prefetch_useful 0
Core_0_DTLB_prefetch_useless 0
Core_0_DTLB_prefetch_late 0
Core_0_DTLB_prefetch_fill 0
Core_0_DTLB_prefetch_too_early 0
Core_0_DTLB_prefetch_too_early_among_fill 0
Core_0_DTLB_prefetch_too_early_among_useless 0
Core_0_DTLB_prefetch_pollution_evict 0
Core_0_DTLB_prefetch_pollution_demand 0
Core_0_DTLB_prefetch_pollution_among_prefetch_fill 0
Core_0_DTLB_prefetch_accuracy 0
Core_0_DTLB_prefetch_coverage 0

Core_0_STLB_total_access 302112
Core_0_STLB_total_hit 13298
Core_0_STLB_total_miss 288814
Core_0_STLB_total_MPKI 2.88814
Core_0_STLB_total_miss_rate 0.955983
Core_0_STLB_demand_access 302112
Core_0_STLB_demand_hit 13298
Core_0_STLB_demand_miss 288814
Core_0_STLB_demand_MPKI 2.88814
Core_0_STLB_demand_miss_rate 0.955983
Core_0_STLB_load_access 302112
Core_0_STLB_load_hit 13298
Core_0_STLB_load_miss 288814
Core_0_STLB_load_MPKI 2.88814
Core_0_STLB_load_miss_rate 0.955983
Core_0_STLB_rfo_access 0
Core_0_STLB_rfo_hit 0
Core_0_STLB_rfo_miss 0
Core_0_STLB_rfo_MPKI 0
Core_0_STLB_rfo_miss_rate 0
Core_0_STLB_prefetch_access 0
Core_0_STLB_prefetch_hit 0
Core_0_STLB_prefetch_miss 0
Core_0_STLB_prefetch_MPKI 0
Core_0_STLB_prefetch_miss_rate 0
Core_0_STLB_writeback_access 0
Core_0_STLB_writeback_hit 0
Core_0_STLB_writeback_miss 0
Core_0_STLB_writeback_MPKI 0
Core_0_STLB_writeback_miss_rate 0
Core_0_STLB_prefetch_requested 0
Core_0_STLB_prefetch_issued 0
Core_0_STLB_prefetch_useful 0
Core_0_STLB_prefetch_useless 0
Core_0_STLB_prefetch_late 0
Core_0_STLB_prefetch_fill 0
Core_0_STLB_prefetch_too_early 0
Core_0_STLB_prefetch_too_early_among_fill 0
Core_0_STLB_prefetch_too_early_among_useless 0
Core_0_STLB_prefetch_pollution_evict 0
Core_0_STLB_prefetch_pollution_demand 0
Core_0_STLB_prefetch_pollution_among_prefetch_fill 0
Core_0_STLB_prefetch_accuracy 0
Core_0_STLB_prefetch_coverage 0

Core_0_L1I_total_access 12841288
Core_0_L1I_total_hit 12840984
Core_0_L1I_total_miss 304
Core_0_L1I_total_MPKI 0.00304
Core_0_L1I_total_miss_rate 2.36736e-05
Core_0_L1I_demand_access 12841288
Core_0_L1I_demand_hit 12840984
Core_0_L1I_demand_miss 304
Core_0_L1I_demand_MPKI 0.00304
Core_0_L1I_demand_miss_rate 2.36736e-05
Core_0_L1I_load_access 12841288
Core_0_L1I_load_hit 12840984
Core_0_L1I_load_miss 304
Core_0_L1I_load_MPKI 0.00304
Core_0_L1I_load_miss_rate 2.36736e-05
Core_0_L1I_rfo_access 0
Core_0_L1I_rfo_hit 0
Core_0_L1I_rfo_miss 0
Core_0_L1I_rfo_MPKI 0
Core_0_L1I_rfo_miss_rate 0
Core_0_L1I_prefetch_access 0
Core_0_L1I_prefetch_hit 0
Core_0_L1I_prefetch_miss 0
Core_0_L1I_prefetch_MPKI 0
Core_0_L1I_prefetch_miss_rate 0
Core_0_L1I_writeback_access 0
Core_0_L1I_writeback_hit 0
Core_0_L1I_writeback_miss 0
Core_0_L1I_writeback_MPKI 0
Core_0_L1I_writeback_miss_rate 0
Core_0_L1I_prefetch_requested 0
Core_0_L1I_prefetch_issued 0
Core_0_L1I_prefetch_useful 0
Core_0_L1I_prefetch_useless 0
Core_0_L1I_prefetch_late 0
Core_0_L1I_prefetch_fill 0
Core_0_L1I_prefetch_too_early 0
Core_0_L1I_prefetch_too_early_among_fill 0
Core_0_L1I_prefetch_too_early_among_useless 0
Core_0_L1I_prefetch_pollution_evict 0
Core_0_L1I_prefetch_pollution_demand 0
Core_0_L1I_prefetch_pollution_among_prefetch_fill 0
Core_0_L1I_prefetch_accuracy 0
Core_0_L1I_prefetch_coverage 0

Core_0_L1D_total_access 30016260
Core_0_L1D_total_hit 21026817
Core_0_L1D_total_miss 8989443
Core_0_L1D_total_MPKI 89.8944
Core_0_L1D_total_miss_rate 0.299486
Core_0_L1D_demand_access 13848214
Core_0_L1D_demand_hit 10620562
Core_0_L1D_demand_miss 3227652
Core_0_L1D_demand_MPKI 32.2765
Core_0_L1D_demand_miss_rate 0.233074
Core_0_L1D_load_access 13848214
Core_0_L1D_load_hit 10620562
Core_0_L1D_load_miss 3227652
Core_0_L1D_load_MPKI 32.2765
Core_0_L1D_load_miss_rate 0.233074
Core_0_L1D_rfo_access 0
Core_0_L1D_rfo_hit 0
Core_0_L1D_rfo_miss 0
Core_0_L1D_rfo_MPKI 0
Core_0_L1D_rfo_miss_rate 0
Core_0_L1D_prefetch_access 7764126
Core_0_L1D_prefetch_hit 2100277
Core_0_L1D_prefetch_miss 5663849
Core_0_L1D_prefetch_MPKI 56.6385
Core_0_L1D_prefetch_miss_rate 0.72949
Core_0_L1D_writeback_access 8403920
Core_0_L1D_writeback_hit 8305978
Core_0_L1D_writeback_miss 97942
Core_0_L1D_writeback_MPKI 0.97942
Core_0_L1D_writeback_miss_rate 0.0116543
Core_0_L1D_prefetch_requested 69765952
Core_0_L1D_prefetch_issued 7764124
Core_0_L1D_prefetch_useful 582475
Core_0_L1D_prefetch_useless 82834
Core_0_L1D_prefetch_late 317390
Core_0_L1D_prefetch_fill 347912
Core_0_L1D_prefetch_too_early 109
Core_0_L1D_prefetch_too_early_among_fill 0.000313298
Core_0_L1D_prefetch_too_early_among_useless 0.00131588
Core_0_L1D_prefetch_pollution_evict 353
Core_0_L1D_prefetch_pollution_demand 331
Core_0_L1D_prefetch_pollution_among_prefetch_fill 0.00101462
Core_0_L1D_prefetch_accuracy 0.0750213
Core_0_L1D_prefetch_coverage 0.152875

Core_0_L2C_total_access 11375936
Core_0_L2C_total_hit 2600732
Core_0_L2C_total_miss 8775204
Core_0_L2C_total_MPKI 87.752
Core_0_L2C_total_miss_rate 0.771383
Core_0_L2C_demand_access 1973367
Core_0_L2C_demand_hit 145124
Core_0_L2C_demand_miss 1828243
Core_0_L2C_demand_MPKI 18.2824
Core_0_L2C_demand_miss_rate 0.926459
Core_0_L2C_load_access 1928705
Core_0_L2C_load_hit 142587
Core_0_L2C_load_miss 1786118
Core_0_L2C_load_MPKI 17.8612
Core_0_L2C_load_miss_rate 0.926071
Core_0_L2C_rfo_access 44662
Core_0_L2C_rfo_hit 2537
Core_0_L2C_rfo_miss 42125
Core_0_L2C_rfo_MPKI 0.42125
Core_0_L2C_rfo_miss_rate 0.943196
Core_0_L2C_prefetch_access 8651755
Core_0_L2C_prefetch_hit 1704971
Core_0_L2C_prefetch_miss 6946784
Core_0_L2C_prefetch_MPKI 69.4678
Core_0_L2C_prefetch_miss_rate 0.802934
Core_0_L2C_writeback_access 750814
Core_0_L2C_writeback_hit 750637
Core_0_L2C_writeback_miss 177
Core_0_L2C_writeback_MPKI 0.00177
Core_0_L2C_writeback_miss_rate 0.000235744
Core_0_L2C_prefetch_requested 5005635
Core_0_L2C_prefetch_issued 3541786
Core_0_L2C_prefetch_useful 189523
Core_0_L2C_prefetch_useless 60302
Core_0_L2C_prefetch_late 73325
Core_0_L2C_prefetch_fill 995197
Core_0_L2C_prefetch_too_early 647
Core_0_L2C_prefetch_too_early_among_fill 0.000650123
Core_0_L2C_prefetch_too_early_among_useless 0.0107293
Core_0_L2C_prefetch_pollution_evict 1132
Core_0_L2C_prefetch_pollution_demand 1130
Core_0_L2C_prefetch_pollution_among_prefetch_fill 0.00113746
Core_0_L2C_prefetch_accuracy 0.0535106
Core_0_L2C_prefetch_coverage 0.0939271

Core_0_LLC_total_access 4081552
Core_0_LLC_total_hit 704656
Core_0_LLC_total_miss 3376896
Core_0_LLC_total_MPKI 33.769
Core_0_LLC_total_miss_rate 0.827356
Core_0_LLC_demand_access 1248618
Core_0_LLC_demand_hit 45611
Core_0_LLC_demand_miss 1203007
Core_0_LLC_demand_MPKI 12.0301
Core_0_LLC_demand_miss_rate 0.963471
Core_0_LLC_load_access 1206504
Core_0_LLC_load_hit 45328
Core_0_LLC_load_miss 1161176
Core_0_LLC_load_MPKI 11.6118
Core_0_LLC_load_miss_rate 0.96243
Core_0_LLC_rfo_access 42114
Core_0_LLC_rfo_hit 283
Core_0_LLC_rfo_miss 41831
Core_0_LLC_rfo_MPKI 0.41831
Core_0_LLC_rfo_miss_rate 0.99328
Core_0_LLC_prefetch_access 2096384
Core_0_LLC_prefetch_hit 6918
Core_0_LLC_prefetch_miss 2089466
Core_0_LLC_prefetch_MPKI 20.8947
Core_0_LLC_prefetch_miss_rate 0.9967
Core_0_LLC_writeback_access 736550
Core_0_LLC_writeback_hit 652127
Core_0_LLC_writeback_miss 84423
Core_0_LLC_writeback_MPKI 0.84423
Core_0_LLC_writeback_miss_rate 0.11462
Core_0_LLC_prefetch_requested 0
Core_0_LLC_prefetch_issued 0
Core_0_LLC_prefetch_useful 0
Core_0_LLC_prefetch_useless 0
Core_0_LLC_prefetch_late 0
Core_0_LLC_prefetch_fill 1605568
Core_0_LLC_prefetch_too_early 0
Core_0_LLC_prefetch_too_early_among_fill 0
Core_0_LLC_prefetch_too_early_among_useless 0
Core_0_LLC_prefetch_pollution_evict 4876
Core_0_LLC_prefetch_pollution_demand 4876
Core_0_LLC_prefetch_pollution_among_prefetch_fill 0.00303693
Core_0_LLC_prefetch_accuracy 0
Core_0_LLC_prefetch_coverage 0

[DRAM Statistics]
Channel_0_RQ_row_buffer_hit 442868
Channel_0_RQ_row_buffer_miss 2448243
Channel_0_WQ_row_buffer_hit 185761
Channel_0_WQ_row_buffer_miss 529258
Channel_0_WQ_full 0
Channel_0_dbus_congested 10718884
DRAM_total_RQ_row_buffer_hit 442868
DRAM_total_RQ_row_buffer_miss 2448243
DRAM_total_WQ_row_buffer_hit 185761
DRAM_total_WQ_row_buffer_miss 529258
DRAM_total_WQ_full 0
DRAM_total_dbus_congested 10718884
DRAM_avg_congested_cycle 5.56626

====== DRAM_RQ_TRAFFIC ========
DRAM_RQ_READ_TRAFFIC_BREAKDOWN:
data_demand_read.count = 1171069
data_demand_read.share = 40.51%

inst_demand_read.count = 201
inst_demand_read.share = 0.01%

cache_inst_prefetch.count = 0
cache_inst_prefetch.share = 0.00%

cache_data_prefetch.count = 1637325
cache_data_prefetch.share = 56.63%

stlb_data_demand.count = 77351
stlb_data_demand.share = 2.68%

stlb_inst_demand.count = 89
stlb_inst_demand.share = 0.00%

stlb_l1i_pref.count = 0
stlb_l1i_pref.share = 0.00%

stlb_l1d_pref.count = 5124
stlb_l1d_pref.share = 0.18%

DRAM_RQ_READ_TRAFFIC_SUMMARY:
cache_demand.count = 1171270
cache_demand.share = 40.51%

cache_prefetch.count = 1637325
cache_prefetch.share = 56.63%

stlb_demand.count = 77440
stlb_demand.share = 2.68%

stlb_prefetch.count = 5124
stlb_prefetch.share = 0.18%

DRAM_RQ_READ_TRAFFIC_DEBUG:
total_classified_read.count = 2891159
unclassified_read.count = 0
total_read_with_other.count = 2891159

classified_plus_unclassified_check.count = 2891159
dram_rq_read_total_observed.count = 2891159
dram_rq_read_total_observed.per_1K_instructions = 28.9116

STLB_MISS_PTW_DRAM_TOUCH_BREAKDOWN:
stlb_miss_total.count = 275268

stlb_miss_touch_dram.count = 83119
stlb_miss_touch_dram.share = 30.20%

stlb_miss_no_dram_touch.count = 192149
stlb_miss_no_dram_touch.share = 69.80%

STLB_MISS_PTW_DRAM_TOUCH_DEBUG:
stlb_miss_touch_plus_no_touch.count = 275268
stlb_miss_total_check.count = 275268

======STLB miss causes ========
Core_0_STLB_miss_cause_breakdown
Core_0_STLB_cause_Demand_Data_miss 260708
Core_0_STLB_cause_Demand_Data_miss_rate 0.862951
Core_0_STLB_cause_Demand_Instruction_miss 98
Core_0_STLB_cause_Demand_Instruction_miss_rate 0.000324383
Core_0_STLB_cause_L1D_Prefetch_miss 28008
Core_0_STLB_cause_L1D_Prefetch_miss_rate 0.0927073
Core_0_STLB_cause_L1D_Prefetch_Same_Page_miss 0
Core_0_STLB_cause_L1D_Prefetch_Same_Page_miss_rate 0
Core_0_STLB_cause_L1D_Prefetch_Cross_Page_miss 28008
Core_0_STLB_cause_L1D_Prefetch_Cross_Page_miss_rate 0.0927073
Core_0_STLB_cause_L1I_Prefetch_miss 0
Core_0_STLB_cause_L1I_Prefetch_miss_rate 0
Core_0_STLB_cause_Other_miss 0
Core_0_STLB_cause_Other_miss_rate 0
Core_0_STLB_Demand_miss 260806
Core_0_STLB_Demand_miss_rate 0.863276
Core_0_STLB_L1D_Prefetch_miss 28008
Core_0_STLB_L1D_Prefetch_miss_rate 0.0927073
Core_0_STLB_Other_miss 0
Core_0_STLB_Other_miss_rate 0

========== vBerti-TLB Cross-page Flow Stats ==========

Core_0_vBerti_Requested 69765952
Core_0_vBerti_Cross_page_prefetch_in_Requested 8337113
Core_0_vBerti_Same_page_prefetch_in_Requested 61428839
Core_0_vBerti_Cross_page_prefetch_of_Requested 0.119501
Core_0_vBerti_Issued 7764124
Core_0_vBerti_InPQ_Same_page_prefetch 7073641
Core_0_vBerti_InPQ_Cross_page_prefetch 690483
Core_0_vBerti_PQ_Drop_Rate 0.888712
Core_0_vBerti_InPQ_Cross_page_prefetch_of_Requested 0.00989713
Core_0_vBerti_Cross_page_PQ_Drop_rate 0.91718
Core_0_vBerti_Cross_page_prefetch_of_Issued 0.0889325
Core_0_CP_PF_PQFULL_drop 7646630
Core_0_CP_PF_PQFULL_TLB_rescue_enqueued 774412
Core_0_CP_PF_PQFULL_TLB_rescue_issued 774412
Core_0_CP_PF_PQFULL_TLB_rescue_translated 774412

========= DTLB_vBerti Prefetch Stats =========
Core_0_DTLB_demand_access 21189865
Core_0_DTLB_demand_hit 20491319
Core_0_DTLB_demand_miss 698546
Core_0_DTLB_demand_mshr_merge 424642
Core_0_DTLB_demand_fill 277025
Core_0_DTLB_demand_miss_rate 0.032966
Core_0_DTLB_demand_mpki 6.98546
Core_0_DTLB_vberti_prefetch_access 5630061
Core_0_DTLB_vberti_prefetch_hit 5429194
Core_0_DTLB_vberti_prefetch_miss 200867
Core_0_DTLB_vberti_prefetch_mshr_merge 172763
Core_0_DTLB_vberti_prefetch_fill 24983
Core_0_DTLB_vberti_prefetch_miss_rate 0.0356776
Core_0_DTLB_vberti_prefetch_mpki 2.00867

=== DTLB_vBerti Same/Cross-page Prefetch Stats ===
Core_0_DTLB_vberti_same_page_prefetch 4740596
Core_0_DTLB_vberti_same_page_prefetch_hit 4740596
Core_0_DTLB_vberti_same_page_prefetch_miss 0
Core_0_DTLB_vberti_same_page_prefetch_mshr_merge 0
Core_0_DTLB_vberti_same_page_prefetch_fill 0
Core_0_DTLB_vberti_same_page_prefetch_miss_rate 0
Core_0_DTLB_vberti_same_page_prefetch_mpki 0
Core_0_DTLB_vberti_cross_page_prefetch 889465
Core_0_DTLB_vberti_cross_page_prefetch_hit 688598
Core_0_DTLB_vberti_cross_page_prefetch_miss 200867
Core_0_DTLB_vberti_cross_page_prefetch_mshr_merge 172763
Core_0_DTLB_vberti_cross_page_prefetch_fill 24983
Core_0_DTLB_vberti_cross_page_prefetch_miss_rate 0.225829
Core_0_DTLB_vberti_cross_page_prefetch_mpki 2.00867
Core_0_DTLB_same_page_prefetch_miss_rate 0
Core_0_DTLB_same_page_prefetch_mpki 0
Core_0_DTLB_cross_page_prefetch_miss_rate 0.225829
Core_0_DTLB_cross_page_prefetch_mpki 2.00867
Core_0_DTLB_cross_page_prefetch_issued 889465
Core_0_DTLB_cross_page_prefetch_lookups 889465
Core_0_DTLB_cross_page_prefetch_useful 23556
Core_0_DTLB_cross_page_prefetch_useless 4548
Core_0_DTLB_cross_page_prefetch_late 3121
Core_0_DTLB_cross_page_prefetch_too_early 50
Core_0_DTLB_cross_page_prefetch_too_early_among_fill 0.00200136
Core_0_DTLB_cross_page_prefetch_too_early_among_useless 0.0109938
Core_0_DTLB_cross_page_prefetch_pollution_evict 313
Core_0_DTLB_cross_page_prefetch_pollution_demand 283
Core_0_DTLB_cross_page_prefetch_pollution_among_prefetch_fill 0.0125285
Core_0_DTLB_cross_page_prefetch_accuracy 0.0264833
Core_0_DTLB_cross_page_prefetch_coverage 0.0326214

========= STLB_vBerti Prefetch Stats =========
Core_0_STLB_demand_access 274008
Core_0_STLB_demand_hit 13202
Core_0_STLB_demand_miss 260806
Core_0_STLB_demand_mshr_merge 0
Core_0_STLB_demand_fill 260806
Core_0_STLB_demand_miss_rate 0.951819
Core_0_STLB_demand_mpki 2.60806
Core_0_STLB_vberti_prefetch_access 28104
Core_0_STLB_vberti_prefetch_hit 96
Core_0_STLB_vberti_prefetch_miss 28008
Core_0_STLB_vberti_prefetch_mshr_merge 0
Core_0_STLB_vberti_prefetch_fill 0
Core_0_STLB_vberti_prefetch_miss_rate 0.996584
Core_0_STLB_vberti_prefetch_mpki 0.28008

=== STLB_vBerti Same/Cross-page Prefetch Stats ===
Core_0_STLB_vberti_same_page_prefetch 0
Core_0_STLB_vberti_same_page_prefetch_hit 0
Core_0_STLB_vberti_same_page_prefetch_miss 0
Core_0_STLB_vberti_same_page_prefetch_mshr_merge 0
Core_0_STLB_vberti_same_page_prefetch_fill 0
Core_0_STLB_vberti_same_page_prefetch_miss_rate 0
Core_0_STLB_vberti_same_page_prefetch_mpki 0
Core_0_STLB_vberti_cross_page_prefetch 28104
Core_0_STLB_vberti_cross_page_prefetch_hit 96
Core_0_STLB_vberti_cross_page_prefetch_miss 28008
Core_0_STLB_vberti_cross_page_prefetch_mshr_merge 0
Core_0_STLB_vberti_cross_page_prefetch_fill 0
Core_0_STLB_vberti_cross_page_prefetch_miss_rate 0.996584
Core_0_STLB_vberti_cross_page_prefetch_mpki 0.28008
Core_0_STLB_same_page_prefetch_miss_rate 0
Core_0_STLB_same_page_prefetch_mpki 0
Core_0_STLB_cross_page_prefetch_miss_rate 0.996584
Core_0_STLB_cross_page_prefetch_mpki 0.28008
Core_0_STLB_cross_page_prefetch_issued 28104
Core_0_STLB_cross_page_prefetch_lookups 28104
Core_0_STLB_cross_page_prefetch_useful 13546
Core_0_STLB_cross_page_prefetch_useless 13843
Core_0_STLB_cross_page_prefetch_late 13546
Core_0_STLB_cross_page_prefetch_too_early 0
Core_0_STLB_cross_page_prefetch_too_early_among_fill 0
Core_0_STLB_cross_page_prefetch_too_early_among_useless 0
Core_0_STLB_cross_page_prefetch_pollution_evict 0
Core_0_STLB_cross_page_prefetch_pollution_demand 0
Core_0_STLB_cross_page_prefetch_pollution_among_prefetch_fill 0
Core_0_STLB_cross_page_prefetch_accuracy 0.481995
Core_0_STLB_cross_page_prefetch_coverage 0.0493745

========= STLB Cross-page Prefetch Buffer Stats =========
Core_0_STLB_raw_demand_miss 260708
Core_0_CP_PB_insert 28008
Core_0_CP_PB_demand_hit 13546
Core_0_STLB_PB_demand_miss 247162
Core_0_CP_PB_coverage 0.0519585
Core_0_STLB_raw_demand_mpki 2.60708
Core_0_STLB_PB_demand_mpki 2.47162
Core_0_CP_PB_demand_hit_mpki 0.13546

Core_0_TLB_demand_miss_rate 0.0123081
Core_0_TLB_demand_mpki 2.60806
Core_0_TLB_same_page_prefetch_miss_rate 0
Core_0_TLB_same_page_prefetch_mpki 0
Core_0_TLB_cross_page_prefetch_miss_rate 0.0314886
Core_0_TLB_cross_page_prefetch_mpki 0.28008
Core_0_TLB_cross_page_prefetch_issued 889465
Core_0_TLB_cross_page_prefetch_lookups 889465
Core_0_TLB_cross_page_prefetch_useful 9346
Core_0_TLB_cross_page_prefetch_useless 4459
Core_0_TLB_cross_page_prefetch_late 1211
Core_0_TLB_cross_page_prefetch_too_early 49
Core_0_TLB_cross_page_prefetch_too_early_among_fill 0.00196133
Core_0_TLB_cross_page_prefetch_too_early_among_useless 0.010989
Core_0_TLB_cross_page_prefetch_accuracy 0.0105074
Core_0_TLB_cross_page_prefetch_coverage 0.0345953
BERTI TO_L1: 6232927 TO_L2: 69249067 TO_L2_BC_MSHR: 35672989
BERTI AVG_LAT: 152.461 NUM_TRACK_LATENCY: 3728649 NUM_CANT_TRACK_LATENCY: 0
BERTI CROSS_PAGE 9213035 NO_CROSS_PAGE: 66268959
BERTI FOUND_BERTI: 18461370 NO_FOUND_BERTI: 19760605
BERTI AVERAGE_ISSUED: 2.99437
