[VMEM] WARNING: physical memory size is smaller than virtual memory size.

*** ChampSim Multicore Out-of-Order Simulator ***
Warmup Instructions: 50000000
Simulation Instructions: 100000000
Number of CPUs: 1
Page size: 4096
Core 0: /data0/tzh/champsim_traces/Ligra/ligra_BFS.com-lj.ungraph.gcc_6.3.0_O3.drop_21500M.length_250M.champsimtrace.xz
VBerti Prefetcher
BERTI HASH ENTANGLING
BERTI IP MASK ffff
Off-chip DRAM Size: 16 GiB Channels: 1 Width: 64-bit Data Rate: 3205 MT/s
Warmup halting CPU 0 at instruction 50000002 cycle 11948770 for remainder of phase
Warmup finished CPU 0 instructions: 50000002 cycles: 11948770 cumulative IPC: 4.185 (Simulation time: 00 hr 02 min 17 sec)
Warmup complete CPU 0 instructions: 50000002 cycles: 11948770 cumulative IPC: 4.185 (Simulation time: 00 hr 02 min 17 sec)
Simulation finished CPU 0 instructions: 100000000 cycles: 160141964 cumulative IPC: 0.6244 (Simulation time: 00 hr 21 min 12 sec)
Simulation complete CPU 0 instructions: 100000000 cycles: 160141964 cumulative IPC: 0.6244 (Simulation time: 00 hr 21 min 12 sec)

ChampSim completed all CPUs

=== Simulation ===
CPU 0 runs /data0/tzh/champsim_traces/Ligra/ligra_BFS.com-lj.ungraph.gcc_6.3.0_O3.drop_21500M.length_250M.champsimtrace.xz

Region of Interest Statistics

CPU 0 cumulative IPC: 0.6244 instructions: 100000000 cycles: 160141964
CPU 0 Branch Prediction Accuracy: 91.69% MPKI: 19.06 Average ROB Occupancy at Mispredict: 16.09
Branch type MPKI
BRANCH_DIRECT_JUMP: 3.888
BRANCH_INDIRECT: 3e-05
BRANCH_CONDITIONAL: 15.17
BRANCH_DIRECT_CALL: 0.00093
BRANCH_INDIRECT_CALL: 0.00013
BRANCH_RETURN: 0.00113

cpu0->cpu0_STLB TOTAL        ACCESS:     504956 HIT:     396366 MISS:     108590 MSHR_MERGE:          0
cpu0->cpu0_STLB LOAD         ACCESS:     504956 HIT:     396366 MISS:     108590 MSHR_MERGE:          0
cpu0->cpu0_STLB RFO          ACCESS:          0 HIT:          0 MISS:          0 MSHR_MERGE:          0
cpu0->cpu0_STLB PREFETCH     ACCESS:          0 HIT:          0 MISS:          0 MSHR_MERGE:          0
cpu0->cpu0_STLB WRITE        ACCESS:          0 HIT:          0 MISS:          0 MSHR_MERGE:          0
cpu0->cpu0_STLB TRANSLATION  ACCESS:          0 HIT:          0 MISS:          0 MSHR_MERGE:          0
cpu0->cpu0_STLB PREFETCH REQUESTED:          0 ISSUED:          0 USEFUL:          0 USELESS:          0 LATE:          0 TOO_EARLY:          0
cpu0->cpu0_STLB AVERAGE MISS LATENCY: 194.4 cycles
cpu0->cpu0_L2C TOTAL        ACCESS:    8624511 HIT:    4211509 MISS:    4413002 MSHR_MERGE:    1796778
cpu0->cpu0_L2C LOAD         ACCESS:    2217300 HIT:    1613317 MISS:     603983 MSHR_MERGE:      32923
cpu0->cpu0_L2C RFO          ACCESS:     107209 HIT:      25830 MISS:      81379 MSHR_MERGE:      47302
cpu0->cpu0_L2C PREFETCH     ACCESS:    5591711 HIT:    1888378 MISS:    3703333 MSHR_MERGE:    1716553
cpu0->cpu0_L2C WRITE        ACCESS:     655201 HIT:     655194 MISS:          7 MSHR_MERGE:          0
cpu0->cpu0_L2C TRANSLATION  ACCESS:      53090 HIT:      28790 MISS:      24300 MSHR_MERGE:          0
cpu0->cpu0_L2C PREFETCH REQUESTED:    2213426 ISSUED:    2205876 USEFUL:     468018 USELESS:     212772 LATE:      25048 TOO_EARLY:       1378
cpu0->cpu0_L2C AVERAGE MISS LATENCY: 264.8 cycles
cpu0->cpu0_L1I TOTAL        ACCESS:   17920222 HIT:   17919707 MISS:        515 MSHR_MERGE:         68
cpu0->cpu0_L1I LOAD         ACCESS:   17920222 HIT:   17919707 MISS:        515 MSHR_MERGE:         68
cpu0->cpu0_L1I RFO          ACCESS:          0 HIT:          0 MISS:          0 MSHR_MERGE:          0
cpu0->cpu0_L1I PREFETCH     ACCESS:          0 HIT:          0 MISS:          0 MSHR_MERGE:          0
cpu0->cpu0_L1I WRITE        ACCESS:          0 HIT:          0 MISS:          0 MSHR_MERGE:          0
cpu0->cpu0_L1I TRANSLATION  ACCESS:          0 HIT:          0 MISS:          0 MSHR_MERGE:          0
cpu0->cpu0_L1I PREFETCH REQUESTED:          0 ISSUED:          0 USEFUL:          0 USELESS:          0 LATE:          0 TOO_EARLY:          0
cpu0->cpu0_L1I AVERAGE MISS LATENCY: 226.3 cycles
cpu0->cpu0_L1D TOTAL        ACCESS:   95218968 HIT:   88513647 MISS:    6705321 MSHR_MERGE:     870192
cpu0->cpu0_L1D LOAD         ACCESS:   20253128 HIT:   17598998 MISS:    2654130 MSHR_MERGE:     437276
cpu0->cpu0_L1D RFO          ACCESS:          0 HIT:          0 MISS:          0 MSHR_MERGE:          0
cpu0->cpu0_L1D PREFETCH     ACCESS:   54604329 HIT:   51071375 MISS:    3532954 MSHR_MERGE:      74980
cpu0->cpu0_L1D WRITE        ACCESS:   20159009 HIT:   19697948 MISS:     461061 MSHR_MERGE:     353850
cpu0->cpu0_L1D TRANSLATION  ACCESS:     202502 HIT:     145326 MISS:      57176 MSHR_MERGE:       4086
cpu0->cpu0_L1D PREFETCH REQUESTED:  382932288 ISSUED:   54604321 USEFUL:    1444487 USELESS:     132709 LATE:      31028 TOO_EARLY:        320
cpu0->cpu0_L1D AVERAGE MISS LATENCY: 88.59 cycles
cpu0->cpu0_ITLB TOTAL        ACCESS:   17902393 HIT:   17902295 MISS:         98 MSHR_MERGE:         37
cpu0->cpu0_ITLB LOAD         ACCESS:   17902393 HIT:   17902295 MISS:         98 MSHR_MERGE:         37
cpu0->cpu0_ITLB RFO          ACCESS:          0 HIT:          0 MISS:          0 MSHR_MERGE:          0
cpu0->cpu0_ITLB PREFETCH     ACCESS:          0 HIT:          0 MISS:          0 MSHR_MERGE:          0
cpu0->cpu0_ITLB WRITE        ACCESS:          0 HIT:          0 MISS:          0 MSHR_MERGE:          0
cpu0->cpu0_ITLB TRANSLATION  ACCESS:          0 HIT:          0 MISS:          0 MSHR_MERGE:          0
cpu0->cpu0_ITLB PREFETCH REQUESTED:          0 ISSUED:          0 USEFUL:          0 USELESS:          0 LATE:          0 TOO_EARLY:          0
cpu0->cpu0_ITLB AVERAGE MISS LATENCY: 319.4 cycles
cpu0->cpu0_DTLB TOTAL        ACCESS:   77468192 HIT:   76434780 MISS:    1033412 MSHR_MERGE:     528517
cpu0->cpu0_DTLB LOAD         ACCESS:   77468192 HIT:   76434780 MISS:    1033412 MSHR_MERGE:     528517
cpu0->cpu0_DTLB RFO          ACCESS:          0 HIT:          0 MISS:          0 MSHR_MERGE:          0
cpu0->cpu0_DTLB PREFETCH     ACCESS:          0 HIT:          0 MISS:          0 MSHR_MERGE:          0
cpu0->cpu0_DTLB WRITE        ACCESS:          0 HIT:          0 MISS:          0 MSHR_MERGE:          0
cpu0->cpu0_DTLB TRANSLATION  ACCESS:          0 HIT:          0 MISS:          0 MSHR_MERGE:          0
cpu0->cpu0_DTLB PREFETCH REQUESTED:          0 ISSUED:          0 USEFUL:          0 USELESS:          0 LATE:          0 TOO_EARLY:          0
cpu0->cpu0_DTLB AVERAGE MISS LATENCY: 44.55 cycles
cpu0->LLC TOTAL        ACCESS:    3247756 HIT:     491724 MISS:    2756032 MSHR_MERGE:      73584
cpu0->LLC LOAD         ACCESS:     571060 HIT:     172157 MISS:     398903 MSHR_MERGE:       5515
cpu0->LLC RFO          ACCESS:      34077 HIT:       8278 MISS:      25799 MSHR_MERGE:       2868
cpu0->LLC PREFETCH     ACCESS:    1986746 HIT:     107626 MISS:    1879120 MSHR_MERGE:      65201
cpu0->LLC WRITE        ACCESS:     631573 HIT:     200270 MISS:     431303 MSHR_MERGE:          0
cpu0->LLC TRANSLATION  ACCESS:      24300 HIT:       3393 MISS:      20907 MSHR_MERGE:          0
cpu0->LLC PREFETCH REQUESTED:          0 ISSUED:          0 USEFUL:          0 USELESS:          0 LATE:          0 TOO_EARLY:          0
cpu0->LLC AVERAGE MISS LATENCY: 172.3 cycles

DRAM Statistics

Channel 0 RQ ROW_BUFFER_HIT:     234024
  ROW_BUFFER_MISS:    2016996
  AVG DBUS CONGESTED CYCLE: 7.112
Channel 0 WQ ROW_BUFFER_HIT:      55516
  ROW_BUFFER_MISS:     540362
  FULL:       1544
Channel 0 REFRESHES ISSUED:      13345

[ROI Statistics]
[System Configuration]
num_cpus 1
cpu_freq 4000
fetch_width 6
decode_width 6
dispatch_width 6
execute_width 6
lq_width 2
sq_width 2
retire_width 6
scheduler_size 128
branch_mispredict_penalty 15
rob_size 352
lq_size 128
sq_size 72
ifetch_buffer_size 64
decode_buffer_size 32
dispatch_buffer_size 32
register_file_size 288
decode_latency 1
dispatch_latency 1
schedule_latency 1
execute_latency 1
page_size 4096
block_size 64
core_0_itlb_set 16
core_0_itlb_way 4
core_0_itlb_rq_size 16
core_0_itlb_wq_size 16
core_0_itlb_pq_size 0
core_0_itlb_mshr_size 8
core_0_itlb_hit_latency 1
core_0_itlb_fill_latency 1
core_0_itlb_max_tag_check 2
core_0_itlb_max_fill 2
core_0_dtlb_set 16
core_0_dtlb_way 4
core_0_dtlb_rq_size 16
core_0_dtlb_wq_size 16
core_0_dtlb_pq_size 0
core_0_dtlb_mshr_size 8
core_0_dtlb_hit_latency 1
core_0_dtlb_fill_latency 1
core_0_dtlb_max_tag_check 2
core_0_dtlb_max_fill 2
core_0_stlb_set 128
core_0_stlb_way 12
core_0_stlb_rq_size 32
core_0_stlb_wq_size 32
core_0_stlb_pq_size 0
core_0_stlb_mshr_size 16
core_0_stlb_hit_latency 4
core_0_stlb_fill_latency 4
core_0_stlb_max_tag_check 1
core_0_stlb_max_fill 1
core_0_l1i_set 64
core_0_l1i_way 8
core_0_l1i_rq_size 64
core_0_l1i_wq_size 64
core_0_l1i_pq_size 32
core_0_l1i_mshr_size 8
core_0_l1i_hit_latency 2
core_0_l1i_fill_latency 2
core_0_l1i_max_tag_check 2
core_0_l1i_max_fill 2
core_0_l1d_set 64
core_0_l1d_way 12
core_0_l1d_rq_size 64
core_0_l1d_wq_size 64
core_0_l1d_pq_size 8
core_0_l1d_mshr_size 16
core_0_l1d_hit_latency 2
core_0_l1d_fill_latency 3
core_0_l1d_max_tag_check 2
core_0_l1d_max_fill 2
core_0_l2c_set 1024
core_0_l2c_way 8
core_0_l2c_rq_size 32
core_0_l2c_wq_size 32
core_0_l2c_pq_size 16
core_0_l2c_mshr_size 32
core_0_l2c_hit_latency 5
core_0_l2c_fill_latency 5
core_0_l2c_max_tag_check 1
core_0_l2c_max_fill 1
llc_set 2048
llc_way 16
llc_rq_size 32
llc_wq_size 32
llc_pq_size 32
llc_mshr_size 64
llc_hit_latency 10
llc_fill_latency 10
llc_max_tag_check 1
llc_max_fill 1
dram_channels 1
dram_ranks 1
dram_bankgroups 8
dram_banks 4
dram_rows 65536
dram_columns 1024
dram_channel_width 8
dram_rq_size 64
dram_wq_size 64
dram_size 17179869184
core_0_itlb_prefetcher no
core_0_dtlb_prefetcher no
core_0_stlb_prefetcher no
core_0_l1i_prefetcher next_line
core_0_l1d_prefetcher vberti
core_0_l2c_prefetcher ip_stride
llc_prefetcher no
llc_replacement drrip

Core_0_instructions 100000000
Core_0_cycles 160141964
Core_0_IPC 0.624446
Core_0_branch_prediction_accuracy 91.6881
Core_0_branch_MPKI 19.0619
Core_0_average_ROB_occupancy_at_mispredict 16.088

Core_0_ITLB_total_access 17902393
Core_0_ITLB_total_hit 17902295
Core_0_ITLB_total_miss 98
Core_0_ITLB_total_MPKI 0.00098
Core_0_ITLB_total_miss_rate 5.47413e-06
Core_0_ITLB_demand_access 17902393
Core_0_ITLB_demand_hit 17902295
Core_0_ITLB_demand_miss 98
Core_0_ITLB_demand_MPKI 0.00098
Core_0_ITLB_demand_miss_rate 5.47413e-06
Core_0_ITLB_load_access 17902393
Core_0_ITLB_load_hit 17902295
Core_0_ITLB_load_miss 98
Core_0_ITLB_load_MPKI 0.00098
Core_0_ITLB_load_miss_rate 5.47413e-06
Core_0_ITLB_rfo_access 0
Core_0_ITLB_rfo_hit 0
Core_0_ITLB_rfo_miss 0
Core_0_ITLB_rfo_MPKI 0
Core_0_ITLB_rfo_miss_rate 0
Core_0_ITLB_prefetch_access 0
Core_0_ITLB_prefetch_hit 0
Core_0_ITLB_prefetch_miss 0
Core_0_ITLB_prefetch_MPKI 0
Core_0_ITLB_prefetch_miss_rate 0
Core_0_ITLB_writeback_access 0
Core_0_ITLB_writeback_hit 0
Core_0_ITLB_writeback_miss 0
Core_0_ITLB_writeback_MPKI 0
Core_0_ITLB_writeback_miss_rate 0
Core_0_ITLB_prefetch_requested 0
Core_0_ITLB_prefetch_issued 0
Core_0_ITLB_prefetch_useful 0
Core_0_ITLB_prefetch_useless 0
Core_0_ITLB_prefetch_late 0
Core_0_ITLB_prefetch_fill 0
Core_0_ITLB_prefetch_too_early 0
Core_0_ITLB_prefetch_too_early_among_fill 0
Core_0_ITLB_prefetch_too_early_among_useless 0
Core_0_ITLB_prefetch_pollution_evict 0
Core_0_ITLB_prefetch_pollution_demand 0
Core_0_ITLB_prefetch_pollution_among_prefetch_fill 0
Core_0_ITLB_prefetch_accuracy 0
Core_0_ITLB_prefetch_coverage 0

Core_0_DTLB_total_access 77468192
Core_0_DTLB_total_hit 76434780
Core_0_DTLB_total_miss 1033412
Core_0_DTLB_total_MPKI 10.3341
Core_0_DTLB_total_miss_rate 0.0133398
Core_0_DTLB_demand_access 77468192
Core_0_DTLB_demand_hit 76434780
Core_0_DTLB_demand_miss 1033412
Core_0_DTLB_demand_MPKI 10.3341
Core_0_DTLB_demand_miss_rate 0.0133398
Core_0_DTLB_load_access 77468192
Core_0_DTLB_load_hit 76434780
Core_0_DTLB_load_miss 1033412
Core_0_DTLB_load_MPKI 10.3341
Core_0_DTLB_load_miss_rate 0.0133398
Core_0_DTLB_rfo_access 0
Core_0_DTLB_rfo_hit 0
Core_0_DTLB_rfo_miss 0
Core_0_DTLB_rfo_MPKI 0
Core_0_DTLB_rfo_miss_rate 0
Core_0_DTLB_prefetch_access 0
Core_0_DTLB_prefetch_hit 0
Core_0_DTLB_prefetch_miss 0
Core_0_DTLB_prefetch_MPKI 0
Core_0_DTLB_prefetch_miss_rate 0
Core_0_DTLB_writeback_access 0
Core_0_DTLB_writeback_hit 0
Core_0_DTLB_writeback_miss 0
Core_0_DTLB_writeback_MPKI 0
Core_0_DTLB_writeback_miss_rate 0
Core_0_DTLB_prefetch_requested 0
Core_0_DTLB_prefetch_issued 0
Core_0_DTLB_prefetch_useful 0
Core_0_DTLB_prefetch_useless 0
Core_0_DTLB_prefetch_late 0
Core_0_DTLB_prefetch_fill 0
Core_0_DTLB_prefetch_too_early 0
Core_0_DTLB_prefetch_too_early_among_fill 0
Core_0_DTLB_prefetch_too_early_among_useless 0
Core_0_DTLB_prefetch_pollution_evict 0
Core_0_DTLB_prefetch_pollution_demand 0
Core_0_DTLB_prefetch_pollution_among_prefetch_fill 0
Core_0_DTLB_prefetch_accuracy 0
Core_0_DTLB_prefetch_coverage 0

Core_0_STLB_total_access 504956
Core_0_STLB_total_hit 396366
Core_0_STLB_total_miss 108590
Core_0_STLB_total_MPKI 1.0859
Core_0_STLB_total_miss_rate 0.215048
Core_0_STLB_demand_access 504956
Core_0_STLB_demand_hit 396366
Core_0_STLB_demand_miss 108590
Core_0_STLB_demand_MPKI 1.0859
Core_0_STLB_demand_miss_rate 0.215048
Core_0_STLB_load_access 504956
Core_0_STLB_load_hit 396366
Core_0_STLB_load_miss 108590
Core_0_STLB_load_MPKI 1.0859
Core_0_STLB_load_miss_rate 0.215048
Core_0_STLB_rfo_access 0
Core_0_STLB_rfo_hit 0
Core_0_STLB_rfo_miss 0
Core_0_STLB_rfo_MPKI 0
Core_0_STLB_rfo_miss_rate 0
Core_0_STLB_prefetch_access 0
Core_0_STLB_prefetch_hit 0
Core_0_STLB_prefetch_miss 0
Core_0_STLB_prefetch_MPKI 0
Core_0_STLB_prefetch_miss_rate 0
Core_0_STLB_writeback_access 0
Core_0_STLB_writeback_hit 0
Core_0_STLB_writeback_miss 0
Core_0_STLB_writeback_MPKI 0
Core_0_STLB_writeback_miss_rate 0
Core_0_STLB_prefetch_requested 0
Core_0_STLB_prefetch_issued 0
Core_0_STLB_prefetch_useful 0
Core_0_STLB_prefetch_useless 0
Core_0_STLB_prefetch_late 0
Core_0_STLB_prefetch_fill 0
Core_0_STLB_prefetch_too_early 0
Core_0_STLB_prefetch_too_early_among_fill 0
Core_0_STLB_prefetch_too_early_among_useless 0
Core_0_STLB_prefetch_pollution_evict 0
Core_0_STLB_prefetch_pollution_demand 0
Core_0_STLB_prefetch_pollution_among_prefetch_fill 0
Core_0_STLB_prefetch_accuracy 0
Core_0_STLB_prefetch_coverage 0

Core_0_L1I_total_access 17920222
Core_0_L1I_total_hit 17919707
Core_0_L1I_total_miss 515
Core_0_L1I_total_MPKI 0.00515
Core_0_L1I_total_miss_rate 2.87385e-05
Core_0_L1I_demand_access 17920222
Core_0_L1I_demand_hit 17919707
Core_0_L1I_demand_miss 515
Core_0_L1I_demand_MPKI 0.00515
Core_0_L1I_demand_miss_rate 2.87385e-05
Core_0_L1I_load_access 17920222
Core_0_L1I_load_hit 17919707
Core_0_L1I_load_miss 515
Core_0_L1I_load_MPKI 0.00515
Core_0_L1I_load_miss_rate 2.87385e-05
Core_0_L1I_rfo_access 0
Core_0_L1I_rfo_hit 0
Core_0_L1I_rfo_miss 0
Core_0_L1I_rfo_MPKI 0
Core_0_L1I_rfo_miss_rate 0
Core_0_L1I_prefetch_access 0
Core_0_L1I_prefetch_hit 0
Core_0_L1I_prefetch_miss 0
Core_0_L1I_prefetch_MPKI 0
Core_0_L1I_prefetch_miss_rate 0
Core_0_L1I_writeback_access 0
Core_0_L1I_writeback_hit 0
Core_0_L1I_writeback_miss 0
Core_0_L1I_writeback_MPKI 0
Core_0_L1I_writeback_miss_rate 0
Core_0_L1I_prefetch_requested 0
Core_0_L1I_prefetch_issued 0
Core_0_L1I_prefetch_useful 0
Core_0_L1I_prefetch_useless 0
Core_0_L1I_prefetch_late 0
Core_0_L1I_prefetch_fill 0
Core_0_L1I_prefetch_too_early 0
Core_0_L1I_prefetch_too_early_among_fill 0
Core_0_L1I_prefetch_too_early_among_useless 0
Core_0_L1I_prefetch_pollution_evict 0
Core_0_L1I_prefetch_pollution_demand 0
Core_0_L1I_prefetch_pollution_among_prefetch_fill 0
Core_0_L1I_prefetch_accuracy 0
Core_0_L1I_prefetch_coverage 0

Core_0_L1D_total_access 95016466
Core_0_L1D_total_hit 88368321
Core_0_L1D_total_miss 6648145
Core_0_L1D_total_MPKI 66.4814
Core_0_L1D_total_miss_rate 0.0699683
Core_0_L1D_demand_access 20253128
Core_0_L1D_demand_hit 17598998
Core_0_L1D_demand_miss 2654130
Core_0_L1D_demand_MPKI 26.5413
Core_0_L1D_demand_miss_rate 0.131048
Core_0_L1D_load_access 20253128
Core_0_L1D_load_hit 17598998
Core_0_L1D_load_miss 2654130
Core_0_L1D_load_MPKI 26.5413
Core_0_L1D_load_miss_rate 0.131048
Core_0_L1D_rfo_access 0
Core_0_L1D_rfo_hit 0
Core_0_L1D_rfo_miss 0
Core_0_L1D_rfo_MPKI 0
Core_0_L1D_rfo_miss_rate 0
Core_0_L1D_prefetch_access 54604329
Core_0_L1D_prefetch_hit 51071375
Core_0_L1D_prefetch_miss 3532954
Core_0_L1D_prefetch_MPKI 35.3295
Core_0_L1D_prefetch_miss_rate 0.064701
Core_0_L1D_writeback_access 20159009
Core_0_L1D_writeback_hit 19697948
Core_0_L1D_writeback_miss 461061
Core_0_L1D_writeback_MPKI 4.61061
Core_0_L1D_writeback_miss_rate 0.0228712
Core_0_L1D_prefetch_requested 382932288
Core_0_L1D_prefetch_issued 54604321
Core_0_L1D_prefetch_useful 1444487
Core_0_L1D_prefetch_useless 132709
Core_0_L1D_prefetch_late 31028
Core_0_L1D_prefetch_fill 1546188
Core_0_L1D_prefetch_too_early 320
Core_0_L1D_prefetch_too_early_among_fill 0.000206961
Core_0_L1D_prefetch_too_early_among_useless 0.00241129
Core_0_L1D_prefetch_pollution_evict 323962
Core_0_L1D_prefetch_pollution_demand 323941
Core_0_L1D_prefetch_pollution_among_prefetch_fill 0.209523
Core_0_L1D_prefetch_accuracy 0.0264537
Core_0_L1D_prefetch_coverage 0.352433

Core_0_L2C_total_access 8571421
Core_0_L2C_total_hit 4182719
Core_0_L2C_total_miss 4388702
Core_0_L2C_total_MPKI 43.887
Core_0_L2C_total_miss_rate 0.512016
Core_0_L2C_demand_access 2324509
Core_0_L2C_demand_hit 1639147
Core_0_L2C_demand_miss 685362
Core_0_L2C_demand_MPKI 6.85362
Core_0_L2C_demand_miss_rate 0.294842
Core_0_L2C_load_access 2217300
Core_0_L2C_load_hit 1613317
Core_0_L2C_load_miss 603983
Core_0_L2C_load_MPKI 6.03983
Core_0_L2C_load_miss_rate 0.272396
Core_0_L2C_rfo_access 107209
Core_0_L2C_rfo_hit 25830
Core_0_L2C_rfo_miss 81379
Core_0_L2C_rfo_MPKI 0.81379
Core_0_L2C_rfo_miss_rate 0.759069
Core_0_L2C_prefetch_access 5591711
Core_0_L2C_prefetch_hit 1888378
Core_0_L2C_prefetch_miss 3703333
Core_0_L2C_prefetch_MPKI 37.0333
Core_0_L2C_prefetch_miss_rate 0.66229
Core_0_L2C_writeback_access 655201
Core_0_L2C_writeback_hit 655194
Core_0_L2C_writeback_miss 7
Core_0_L2C_writeback_MPKI 7e-05
Core_0_L2C_writeback_miss_rate 1.06837e-05
Core_0_L2C_prefetch_requested 2213426
Core_0_L2C_prefetch_issued 2205876
Core_0_L2C_prefetch_useful 468018
Core_0_L2C_prefetch_useless 212772
Core_0_L2C_prefetch_late 25048
Core_0_L2C_prefetch_fill 1786339
Core_0_L2C_prefetch_too_early 1378
Core_0_L2C_prefetch_too_early_among_fill 0.00077141
Core_0_L2C_prefetch_too_early_among_useless 0.00647642
Core_0_L2C_prefetch_pollution_evict 101461
Core_0_L2C_prefetch_pollution_demand 101162
Core_0_L2C_prefetch_pollution_among_prefetch_fill 0.0567983
Core_0_L2C_prefetch_accuracy 0.212169
Core_0_L2C_prefetch_coverage 0.40578

Core_0_LLC_total_access 3223456
Core_0_LLC_total_hit 488331
Core_0_LLC_total_miss 2735125
Core_0_LLC_total_MPKI 27.3513
Core_0_LLC_total_miss_rate 0.848507
Core_0_LLC_demand_access 605137
Core_0_LLC_demand_hit 180435
Core_0_LLC_demand_miss 424702
Core_0_LLC_demand_MPKI 4.24702
Core_0_LLC_demand_miss_rate 0.701828
Core_0_LLC_load_access 571060
Core_0_LLC_load_hit 172157
Core_0_LLC_load_miss 398903
Core_0_LLC_load_MPKI 3.98903
Core_0_LLC_load_miss_rate 0.698531
Core_0_LLC_rfo_access 34077
Core_0_LLC_rfo_hit 8278
Core_0_LLC_rfo_miss 25799
Core_0_LLC_rfo_MPKI 0.25799
Core_0_LLC_rfo_miss_rate 0.75708
Core_0_LLC_prefetch_access 1986746
Core_0_LLC_prefetch_hit 107626
Core_0_LLC_prefetch_miss 1879120
Core_0_LLC_prefetch_MPKI 18.7912
Core_0_LLC_prefetch_miss_rate 0.945828
Core_0_LLC_writeback_access 631573
Core_0_LLC_writeback_hit 200270
Core_0_LLC_writeback_miss 431303
Core_0_LLC_writeback_MPKI 4.31303
Core_0_LLC_writeback_miss_rate 0.682903
Core_0_LLC_prefetch_requested 0
Core_0_LLC_prefetch_issued 0
Core_0_LLC_prefetch_useful 0
Core_0_LLC_prefetch_useless 0
Core_0_LLC_prefetch_late 0
Core_0_LLC_prefetch_fill 1805535
Core_0_LLC_prefetch_too_early 0
Core_0_LLC_prefetch_too_early_among_fill 0
Core_0_LLC_prefetch_too_early_among_useless 0
Core_0_LLC_prefetch_pollution_evict 29577
Core_0_LLC_prefetch_pollution_demand 29577
Core_0_LLC_prefetch_pollution_among_prefetch_fill 0.0163813
Core_0_LLC_prefetch_accuracy 0
Core_0_LLC_prefetch_coverage 0

[DRAM Statistics]
Channel_0_RQ_row_buffer_hit 234024
Channel_0_RQ_row_buffer_miss 2016996
Channel_0_WQ_row_buffer_hit 55516
Channel_0_WQ_row_buffer_miss 540362
Channel_0_WQ_full 1544
Channel_0_dbus_congested 6785333
DRAM_total_RQ_row_buffer_hit 234024
DRAM_total_RQ_row_buffer_miss 2016996
DRAM_total_WQ_row_buffer_hit 55516
DRAM_total_WQ_row_buffer_miss 540362
DRAM_total_WQ_full 1544
DRAM_total_dbus_congested 6785333
DRAM_avg_congested_cycle 7.11182

====== DRAM_RQ_TRAFFIC ========
DRAM_RQ_READ_TRAFFIC_BREAKDOWN:
data_demand_read.count = 415873
data_demand_read.share = 18.47%

inst_demand_read.count = 446
inst_demand_read.share = 0.02%

cache_inst_prefetch.count = 0
cache_inst_prefetch.share = 0.00%

cache_data_prefetch.count = 1813919
cache_data_prefetch.share = 80.58%

stlb_data_demand.count = 16896
stlb_data_demand.share = 0.75%

stlb_inst_demand.count = 35
stlb_inst_demand.share = 0.00%

stlb_l1i_pref.count = 0
stlb_l1i_pref.share = 0.00%

stlb_l1d_pref.count = 3976
stlb_l1d_pref.share = 0.18%

DRAM_RQ_READ_TRAFFIC_SUMMARY:
cache_demand.count = 416319
cache_demand.share = 18.49%

cache_prefetch.count = 1813919
cache_prefetch.share = 80.58%

stlb_demand.count = 16931
stlb_demand.share = 0.75%

stlb_prefetch.count = 3976
stlb_prefetch.share = 0.18%

DRAM_RQ_READ_TRAFFIC_DEBUG:
total_classified_read.count = 2251145
unclassified_read.count = 0
total_read_with_other.count = 2251145

classified_plus_unclassified_check.count = 2251145
dram_rq_read_total_observed.count = 2251145
dram_rq_read_total_observed.per_1K_instructions = 22.5114

STLB_MISS_PTW_DRAM_TOUCH_BREAKDOWN:
stlb_miss_total.count = 102258

stlb_miss_touch_dram.count = 20844
stlb_miss_touch_dram.share = 20.38%

stlb_miss_no_dram_touch.count = 81414
stlb_miss_no_dram_touch.share = 79.62%

STLB_MISS_PTW_DRAM_TOUCH_DEBUG:
stlb_miss_touch_plus_no_touch.count = 102258
stlb_miss_total_check.count = 102258

======STLB miss causes ========
Core_0_STLB_miss_cause_breakdown
Core_0_STLB_cause_Demand_Data_miss 77477
Core_0_STLB_cause_Demand_Data_miss_rate 0.153433
Core_0_STLB_cause_Demand_Instruction_miss 58
Core_0_STLB_cause_Demand_Instruction_miss_rate 0.000114861
Core_0_STLB_cause_L1D_Prefetch_miss 31055
Core_0_STLB_cause_L1D_Prefetch_miss_rate 0.0615004
Core_0_STLB_cause_L1D_Prefetch_Same_Page_miss 14
Core_0_STLB_cause_L1D_Prefetch_Same_Page_miss_rate 2.77252e-05
Core_0_STLB_cause_L1D_Prefetch_Cross_Page_miss 31041
Core_0_STLB_cause_L1D_Prefetch_Cross_Page_miss_rate 0.0614727
Core_0_STLB_cause_L1I_Prefetch_miss 0
Core_0_STLB_cause_L1I_Prefetch_miss_rate 0
Core_0_STLB_cause_Other_miss 0
Core_0_STLB_cause_Other_miss_rate 0
Core_0_STLB_Demand_miss 77535
Core_0_STLB_Demand_miss_rate 0.153548
Core_0_STLB_L1D_Prefetch_miss 31055
Core_0_STLB_L1D_Prefetch_miss_rate 0.0615004
Core_0_STLB_Other_miss 0
Core_0_STLB_Other_miss_rate 0

========== vBerti-TLB Cross-page Flow Stats ==========

Core_0_vBerti_Requested 382932288
Core_0_vBerti_Cross_page_prefetch_in_Requested 50657205
Core_0_vBerti_Same_page_prefetch_in_Requested 332275083
Core_0_vBerti_Cross_page_prefetch_of_Requested 0.132288
Core_0_vBerti_Issued 54604321
Core_0_vBerti_InPQ_Same_page_prefetch 51804488
Core_0_vBerti_InPQ_Cross_page_prefetch 2799833
Core_0_vBerti_PQ_Drop_Rate 0.857405
Core_0_vBerti_InPQ_Cross_page_prefetch_of_Requested 0.00731156
Core_0_vBerti_Cross_page_PQ_Drop_rate 0.94473
Core_0_vBerti_Cross_page_prefetch_of_Issued 0.0512749
Core_0_CP_PF_PQFULL_drop 47857372
Core_0_CP_PF_PQFULL_TLB_rescue_enqueued 14822000
Core_0_CP_PF_PQFULL_TLB_rescue_issued 14822000
Core_0_CP_PF_PQFULL_TLB_rescue_translated 14822000

========= DTLB_vBerti Prefetch Stats =========
Core_0_DTLB_demand_access 38349395
Core_0_DTLB_demand_hit 37702940
Core_0_DTLB_demand_miss 646455
Core_0_DTLB_demand_mshr_merge 176602
Core_0_DTLB_demand_fill 471144
Core_0_DTLB_demand_miss_rate 0.016857
Core_0_DTLB_demand_mpki 6.46455
Core_0_DTLB_vberti_prefetch_access 39118797
Core_0_DTLB_vberti_prefetch_hit 38731840
Core_0_DTLB_vberti_prefetch_miss 386957
Core_0_DTLB_vberti_prefetch_mshr_merge 351915
Core_0_DTLB_vberti_prefetch_fill 33751
Core_0_DTLB_vberti_prefetch_miss_rate 0.00989184
Core_0_DTLB_vberti_prefetch_mpki 3.86957

=== DTLB_vBerti Same/Cross-page Prefetch Stats ===
Core_0_DTLB_vberti_same_page_prefetch 28999052
Core_0_DTLB_vberti_same_page_prefetch_hit 28998913
Core_0_DTLB_vberti_same_page_prefetch_miss 139
Core_0_DTLB_vberti_same_page_prefetch_mshr_merge 31
Core_0_DTLB_vberti_same_page_prefetch_fill 109
Core_0_DTLB_vberti_same_page_prefetch_miss_rate 4.79326e-06
Core_0_DTLB_vberti_same_page_prefetch_mpki 0.00139
Core_0_DTLB_vberti_cross_page_prefetch 10119745
Core_0_DTLB_vberti_cross_page_prefetch_hit 9732927
Core_0_DTLB_vberti_cross_page_prefetch_miss 386818
Core_0_DTLB_vberti_cross_page_prefetch_mshr_merge 351884
Core_0_DTLB_vberti_cross_page_prefetch_fill 33642
Core_0_DTLB_vberti_cross_page_prefetch_miss_rate 0.0382241
Core_0_DTLB_vberti_cross_page_prefetch_mpki 3.86818
Core_0_DTLB_same_page_prefetch_miss_rate 4.79326e-06
Core_0_DTLB_same_page_prefetch_mpki 0.00139
Core_0_DTLB_cross_page_prefetch_miss_rate 0.0382241
Core_0_DTLB_cross_page_prefetch_mpki 3.86818
Core_0_DTLB_cross_page_prefetch_issued 10119745
Core_0_DTLB_cross_page_prefetch_lookups 10119745
Core_0_DTLB_cross_page_prefetch_useful 29942
Core_0_DTLB_cross_page_prefetch_useless 4992
Core_0_DTLB_cross_page_prefetch_late 1292
Core_0_DTLB_cross_page_prefetch_too_early 1422
Core_0_DTLB_cross_page_prefetch_too_early_among_fill 0.0422686
Core_0_DTLB_cross_page_prefetch_too_early_among_useless 0.284856
Core_0_DTLB_cross_page_prefetch_pollution_evict 12928
Core_0_DTLB_cross_page_prefetch_pollution_demand 12630
Core_0_DTLB_cross_page_prefetch_pollution_among_prefetch_fill 0.384282
Core_0_DTLB_cross_page_prefetch_accuracy 0.00295877
Core_0_DTLB_cross_page_prefetch_coverage 0.0442669

========= STLB_vBerti Prefetch Stats =========
Core_0_STLB_demand_access 469914
Core_0_STLB_demand_hit 392379
Core_0_STLB_demand_miss 77535
Core_0_STLB_demand_mshr_merge 0
Core_0_STLB_demand_fill 77535
Core_0_STLB_demand_miss_rate 0.164998
Core_0_STLB_demand_mpki 0.77535
Core_0_STLB_vberti_prefetch_access 35042
Core_0_STLB_vberti_prefetch_hit 3987
Core_0_STLB_vberti_prefetch_miss 31055
Core_0_STLB_vberti_prefetch_mshr_merge 0
Core_0_STLB_vberti_prefetch_fill 14
Core_0_STLB_vberti_prefetch_miss_rate 0.886222
Core_0_STLB_vberti_prefetch_mpki 0.31055

=== STLB_vBerti Same/Cross-page Prefetch Stats ===
Core_0_STLB_vberti_same_page_prefetch 108
Core_0_STLB_vberti_same_page_prefetch_hit 94
Core_0_STLB_vberti_same_page_prefetch_miss 14
Core_0_STLB_vberti_same_page_prefetch_mshr_merge 0
Core_0_STLB_vberti_same_page_prefetch_fill 14
Core_0_STLB_vberti_same_page_prefetch_miss_rate 0.12963
Core_0_STLB_vberti_same_page_prefetch_mpki 0.00014
Core_0_STLB_vberti_cross_page_prefetch 34934
Core_0_STLB_vberti_cross_page_prefetch_hit 3893
Core_0_STLB_vberti_cross_page_prefetch_miss 31041
Core_0_STLB_vberti_cross_page_prefetch_mshr_merge 0
Core_0_STLB_vberti_cross_page_prefetch_fill 0
Core_0_STLB_vberti_cross_page_prefetch_miss_rate 0.888561
Core_0_STLB_vberti_cross_page_prefetch_mpki 0.31041
Core_0_STLB_same_page_prefetch_miss_rate 0.12963
Core_0_STLB_same_page_prefetch_mpki 0.00014
Core_0_STLB_cross_page_prefetch_miss_rate 0.888561
Core_0_STLB_cross_page_prefetch_mpki 0.31041
Core_0_STLB_cross_page_prefetch_issued 34934
Core_0_STLB_cross_page_prefetch_lookups 34934
Core_0_STLB_cross_page_prefetch_useful 6332
Core_0_STLB_cross_page_prefetch_useless 20829
Core_0_STLB_cross_page_prefetch_late 6332
Core_0_STLB_cross_page_prefetch_too_early 0
Core_0_STLB_cross_page_prefetch_too_early_among_fill 0
Core_0_STLB_cross_page_prefetch_too_early_among_useless 0
Core_0_STLB_cross_page_prefetch_pollution_evict 0
Core_0_STLB_cross_page_prefetch_pollution_demand 0
Core_0_STLB_cross_page_prefetch_pollution_among_prefetch_fill 0
Core_0_STLB_cross_page_prefetch_accuracy 0.181256
Core_0_STLB_cross_page_prefetch_coverage 0.0755005

========= STLB Cross-page Prefetch Buffer Stats =========
Core_0_STLB_raw_demand_miss 77477
Core_0_CP_PB_insert 31041
Core_0_CP_PB_demand_hit 6332
Core_0_STLB_PB_demand_miss 71145
Core_0_CP_PB_coverage 0.0817275
Core_0_STLB_raw_demand_mpki 0.77477
Core_0_STLB_PB_demand_mpki 0.71145
Core_0_CP_PB_demand_hit_mpki 0.06332

Core_0_TLB_demand_miss_rate 0.00202181
Core_0_TLB_demand_mpki 0.77535
Core_0_TLB_same_page_prefetch_miss_rate 4.82774e-07
Core_0_TLB_same_page_prefetch_mpki 0.00014
Core_0_TLB_cross_page_prefetch_miss_rate 0.00306737
Core_0_TLB_cross_page_prefetch_mpki 0.31041
Core_0_TLB_cross_page_prefetch_issued 10119745
Core_0_TLB_cross_page_prefetch_lookups 10119745
Core_0_TLB_cross_page_prefetch_useful 23363
Core_0_TLB_cross_page_prefetch_useless 1788
Core_0_TLB_cross_page_prefetch_late 1179
Core_0_TLB_cross_page_prefetch_too_early 350
Core_0_TLB_cross_page_prefetch_too_early_among_fill 0.0104037
Core_0_TLB_cross_page_prefetch_too_early_among_useless 0.195749
Core_0_TLB_cross_page_prefetch_accuracy 0.00230866
Core_0_TLB_cross_page_prefetch_coverage 0.231551
BERTI TO_L1: 425515993 TO_L2: 51636255 TO_L2_BC_MSHR: 11159558
BERTI AVG_LAT: 119.167 NUM_TRACK_LATENCY: 4039632 NUM_CANT_TRACK_LATENCY: 128
BERTI CROSS_PAGE 63330298 NO_CROSS_PAGE: 413821950
BERTI FOUND_BERTI: 47102598 NO_FOUND_BERTI: 3235930
BERTI AVERAGE_ISSUED: 1.89478
