[VMEM] WARNING: physical memory size is smaller than virtual memory size.

*** ChampSim Multicore Out-of-Order Simulator ***
Warmup Instructions: 50000000
Simulation Instructions: 100000000
Number of CPUs: 1
Page size: 4096
Core 0: /data0/tzh/champsim_traces/Ligra/ligra_PageRank.com-lj.ungraph.gcc_6.3.0_O3.drop_79500M.length_250M.champsimtrace.xz
VBerti Prefetcher
BERTI HASH ENTANGLING
BERTI IP MASK ffff
Off-chip DRAM Size: 16 GiB Channels: 1 Width: 64-bit Data Rate: 3205 MT/s
Warmup halting CPU 0 at instruction 50000004 cycle 13347028 for remainder of phase
Warmup finished CPU 0 instructions: 50000004 cycles: 13347028 cumulative IPC: 3.746 (Simulation time: 00 hr 03 min 59 sec)
Warmup complete CPU 0 instructions: 50000004 cycles: 13347028 cumulative IPC: 3.746 (Simulation time: 00 hr 03 min 59 sec)
Simulation finished CPU 0 instructions: 100000005 cycles: 195733090 cumulative IPC: 0.5109 (Simulation time: 00 hr 29 min 50 sec)
Simulation complete CPU 0 instructions: 100000005 cycles: 195733090 cumulative IPC: 0.5109 (Simulation time: 00 hr 29 min 50 sec)

ChampSim completed all CPUs

=== Simulation ===
CPU 0 runs /data0/tzh/champsim_traces/Ligra/ligra_PageRank.com-lj.ungraph.gcc_6.3.0_O3.drop_79500M.length_250M.champsimtrace.xz

Region of Interest Statistics

CPU 0 cumulative IPC: 0.5109 instructions: 100000005 cycles: 195733090
CPU 0 Branch Prediction Accuracy: 92.68% MPKI: 8.681 Average ROB Occupancy at Mispredict: 142.1
Branch type MPKI
BRANCH_DIRECT_JUMP: 0
BRANCH_INDIRECT: 0
BRANCH_CONDITIONAL: 8.681
BRANCH_DIRECT_CALL: 0
BRANCH_INDIRECT_CALL: 0
BRANCH_RETURN: 0

cpu0->cpu0_STLB TOTAL        ACCESS:    5862849 HIT:    2526847 MISS:    3336002 MSHR_MERGE:          0
cpu0->cpu0_STLB LOAD         ACCESS:    5862849 HIT:    2526847 MISS:    3336002 MSHR_MERGE:          0
cpu0->cpu0_STLB RFO          ACCESS:          0 HIT:          0 MISS:          0 MSHR_MERGE:          0
cpu0->cpu0_STLB PREFETCH     ACCESS:          0 HIT:          0 MISS:          0 MSHR_MERGE:          0
cpu0->cpu0_STLB WRITE        ACCESS:          0 HIT:          0 MISS:          0 MSHR_MERGE:          0
cpu0->cpu0_STLB TRANSLATION  ACCESS:          0 HIT:          0 MISS:          0 MSHR_MERGE:          0
cpu0->cpu0_STLB PREFETCH REQUESTED:          0 ISSUED:          0 USEFUL:          0 USELESS:          0 LATE:          0 TOO_EARLY:          0
cpu0->cpu0_STLB AVERAGE MISS LATENCY: 38.41 cycles
cpu0->cpu0_L2C TOTAL        ACCESS:   10616824 HIT:    3222130 MISS:    7394694 MSHR_MERGE:     308632
cpu0->cpu0_L2C LOAD         ACCESS:    5742656 HIT:     349850 MISS:    5392806 MSHR_MERGE:       4981
cpu0->cpu0_L2C RFO          ACCESS:         37 HIT:         37 MISS:          0 MSHR_MERGE:          0
cpu0->cpu0_L2C PREFETCH     ACCESS:    2053186 HIT:     847413 MISS:    1205773 MSHR_MERGE:     303651
cpu0->cpu0_L2C WRITE        ACCESS:     109018 HIT:     109017 MISS:          1 MSHR_MERGE:          0
cpu0->cpu0_L2C TRANSLATION  ACCESS:    2711927 HIT:    1915813 MISS:     796114 MSHR_MERGE:          0
cpu0->cpu0_L2C PREFETCH REQUESTED:     687862 ISSUED:     687708 USEFUL:     237969 USELESS:      94654 LATE:       4345 TOO_EARLY:      11673
cpu0->cpu0_L2C AVERAGE MISS LATENCY: 202.7 cycles
cpu0->cpu0_L1I TOTAL        ACCESS:    1177131 HIT:    1177131 MISS:          0 MSHR_MERGE:          0
cpu0->cpu0_L1I LOAD         ACCESS:    1177131 HIT:    1177131 MISS:          0 MSHR_MERGE:          0
cpu0->cpu0_L1I RFO          ACCESS:          0 HIT:          0 MISS:          0 MSHR_MERGE:          0
cpu0->cpu0_L1I PREFETCH     ACCESS:          0 HIT:          0 MISS:          0 MSHR_MERGE:          0
cpu0->cpu0_L1I WRITE        ACCESS:          0 HIT:          0 MISS:          0 MSHR_MERGE:          0
cpu0->cpu0_L1I TRANSLATION  ACCESS:          0 HIT:          0 MISS:          0 MSHR_MERGE:          0
cpu0->cpu0_L1I PREFETCH REQUESTED:          0 ISSUED:          0 USEFUL:          0 USELESS:          0 LATE:          0 TOO_EARLY:          0
cpu0->cpu0_L1I AVERAGE MISS LATENCY: - cycles
cpu0->cpu0_L1D TOTAL        ACCESS:   49637412 HIT:   39448985 MISS:   10188427 MSHR_MERGE:     360451
cpu0->cpu0_L1D LOAD         ACCESS:   23171093 HIT:   17096616 MISS:    6074477 MSHR_MERGE:     331820
cpu0->cpu0_L1D RFO          ACCESS:          0 HIT:          0 MISS:          0 MSHR_MERGE:          0
cpu0->cpu0_L1D PREFETCH     ACCESS:   14879868 HIT:   13496916 MISS:    1382952 MSHR_MERGE:       9600
cpu0->cpu0_L1D WRITE        ACCESS:    4575318 HIT:    4575259 MISS:         59 MSHR_MERGE:         20
cpu0->cpu0_L1D TRANSLATION  ACCESS:    7011133 HIT:    4280194 MISS:    2730939 MSHR_MERGE:      19011
cpu0->cpu0_L1D PREFETCH REQUESTED:   56307542 ISSUED:   14879865 USEFUL:     726478 USELESS:       6190 LATE:       1545 TOO_EARLY:       2181
cpu0->cpu0_L1D AVERAGE MISS LATENCY: 157.1 cycles
cpu0->cpu0_ITLB TOTAL        ACCESS:    1153784 HIT:    1153784 MISS:          0 MSHR_MERGE:          0
cpu0->cpu0_ITLB LOAD         ACCESS:    1153784 HIT:    1153784 MISS:          0 MSHR_MERGE:          0
cpu0->cpu0_ITLB RFO          ACCESS:          0 HIT:          0 MISS:          0 MSHR_MERGE:          0
cpu0->cpu0_ITLB PREFETCH     ACCESS:          0 HIT:          0 MISS:          0 MSHR_MERGE:          0
cpu0->cpu0_ITLB WRITE        ACCESS:          0 HIT:          0 MISS:          0 MSHR_MERGE:          0
cpu0->cpu0_ITLB TRANSLATION  ACCESS:          0 HIT:          0 MISS:          0 MSHR_MERGE:          0
cpu0->cpu0_ITLB PREFETCH REQUESTED:          0 ISSUED:          0 USEFUL:          0 USELESS:          0 LATE:          0 TOO_EARLY:          0
cpu0->cpu0_ITLB AVERAGE MISS LATENCY: - cycles
cpu0->cpu0_DTLB TOTAL        ACCESS:   41479785 HIT:   35202636 MISS:    6277149 MSHR_MERGE:     414300
cpu0->cpu0_DTLB LOAD         ACCESS:   41479785 HIT:   35202636 MISS:    6277149 MSHR_MERGE:     414300
cpu0->cpu0_DTLB RFO          ACCESS:          0 HIT:          0 MISS:          0 MSHR_MERGE:          0
cpu0->cpu0_DTLB PREFETCH     ACCESS:          0 HIT:          0 MISS:          0 MSHR_MERGE:          0
cpu0->cpu0_DTLB WRITE        ACCESS:          0 HIT:          0 MISS:          0 MSHR_MERGE:          0
cpu0->cpu0_DTLB TRANSLATION  ACCESS:          0 HIT:          0 MISS:          0 MSHR_MERGE:          0
cpu0->cpu0_DTLB PREFETCH REQUESTED:          0 ISSUED:          0 USEFUL:          0 USELESS:          0 LATE:          0 TOO_EARLY:          0
cpu0->cpu0_DTLB AVERAGE MISS LATENCY: 27.2 cycles
cpu0->LLC TOTAL        ACCESS:    7194983 HIT:    1645237 MISS:    5549746 MSHR_MERGE:      20580
cpu0->LLC LOAD         ACCESS:    5387825 HIT:     809674 MISS:    4578151 MSHR_MERGE:       1358
cpu0->LLC RFO          ACCESS:          0 HIT:          0 MISS:          0 MSHR_MERGE:          0
cpu0->LLC PREFETCH     ACCESS:     902121 HIT:      45931 MISS:     856190 MSHR_MERGE:      19222
cpu0->LLC WRITE        ACCESS:     108923 HIT:      19517 MISS:      89406 MSHR_MERGE:          0
cpu0->LLC TRANSLATION  ACCESS:     796114 HIT:     770115 MISS:      25999 MSHR_MERGE:          0
cpu0->LLC PREFETCH REQUESTED:          0 ISSUED:          0 USEFUL:          0 USELESS:          0 LATE:          0 TOO_EARLY:          0
cpu0->LLC AVERAGE MISS LATENCY: 246.5 cycles

DRAM Statistics

Channel 0 RQ ROW_BUFFER_HIT:      14783
  ROW_BUFFER_MISS:    5424972
  AVG DBUS CONGESTED CYCLE: 3.734
Channel 0 WQ ROW_BUFFER_HIT:      30550
  ROW_BUFFER_MISS:      76823
  FULL:          0
Channel 0 REFRESHES ISSUED:      16311

[ROI Statistics]
[System Configuration]
num_cpus 1
cpu_freq 4000
fetch_width 6
decode_width 6
dispatch_width 6
execute_width 6
lq_width 2
sq_width 2
retire_width 6
scheduler_size 128
branch_mispredict_penalty 15
rob_size 352
lq_size 128
sq_size 72
ifetch_buffer_size 64
decode_buffer_size 32
dispatch_buffer_size 32
register_file_size 288
decode_latency 1
dispatch_latency 1
schedule_latency 1
execute_latency 1
page_size 4096
block_size 64
core_0_itlb_set 16
core_0_itlb_way 4
core_0_itlb_rq_size 16
core_0_itlb_wq_size 16
core_0_itlb_pq_size 0
core_0_itlb_mshr_size 8
core_0_itlb_hit_latency 1
core_0_itlb_fill_latency 1
core_0_itlb_max_tag_check 2
core_0_itlb_max_fill 2
core_0_dtlb_set 16
core_0_dtlb_way 4
core_0_dtlb_rq_size 16
core_0_dtlb_wq_size 16
core_0_dtlb_pq_size 0
core_0_dtlb_mshr_size 8
core_0_dtlb_hit_latency 1
core_0_dtlb_fill_latency 1
core_0_dtlb_max_tag_check 2
core_0_dtlb_max_fill 2
core_0_stlb_set 128
core_0_stlb_way 12
core_0_stlb_rq_size 32
core_0_stlb_wq_size 32
core_0_stlb_pq_size 0
core_0_stlb_mshr_size 16
core_0_stlb_hit_latency 4
core_0_stlb_fill_latency 4
core_0_stlb_max_tag_check 1
core_0_stlb_max_fill 1
core_0_l1i_set 64
core_0_l1i_way 8
core_0_l1i_rq_size 64
core_0_l1i_wq_size 64
core_0_l1i_pq_size 32
core_0_l1i_mshr_size 8
core_0_l1i_hit_latency 2
core_0_l1i_fill_latency 2
core_0_l1i_max_tag_check 2
core_0_l1i_max_fill 2
core_0_l1d_set 64
core_0_l1d_way 12
core_0_l1d_rq_size 64
core_0_l1d_wq_size 64
core_0_l1d_pq_size 8
core_0_l1d_mshr_size 16
core_0_l1d_hit_latency 2
core_0_l1d_fill_latency 3
core_0_l1d_max_tag_check 2
core_0_l1d_max_fill 2
core_0_l2c_set 1024
core_0_l2c_way 8
core_0_l2c_rq_size 32
core_0_l2c_wq_size 32
core_0_l2c_pq_size 16
core_0_l2c_mshr_size 32
core_0_l2c_hit_latency 5
core_0_l2c_fill_latency 5
core_0_l2c_max_tag_check 1
core_0_l2c_max_fill 1
llc_set 2048
llc_way 16
llc_rq_size 32
llc_wq_size 32
llc_pq_size 32
llc_mshr_size 64
llc_hit_latency 10
llc_fill_latency 10
llc_max_tag_check 1
llc_max_fill 1
dram_channels 1
dram_ranks 1
dram_bankgroups 8
dram_banks 4
dram_rows 65536
dram_columns 1024
dram_channel_width 8
dram_rq_size 64
dram_wq_size 64
dram_size 17179869184
core_0_itlb_prefetcher no
core_0_dtlb_prefetcher no
core_0_stlb_prefetcher no
core_0_l1i_prefetcher next_line
core_0_l1d_prefetcher vberti
core_0_l2c_prefetcher ip_stride
llc_prefetcher no
llc_replacement drrip

Core_0_instructions 100000005
Core_0_cycles 195733090
Core_0_IPC 0.5109
Core_0_branch_prediction_accuracy 92.6785
Core_0_branch_MPKI 8.68131
Core_0_average_ROB_occupancy_at_mispredict 142.142

Core_0_ITLB_total_access 1153784
Core_0_ITLB_total_hit 1153784
Core_0_ITLB_total_miss 0
Core_0_ITLB_total_MPKI 0
Core_0_ITLB_total_miss_rate 0
Core_0_ITLB_demand_access 1153784
Core_0_ITLB_demand_hit 1153784
Core_0_ITLB_demand_miss 0
Core_0_ITLB_demand_MPKI 0
Core_0_ITLB_demand_miss_rate 0
Core_0_ITLB_load_access 1153784
Core_0_ITLB_load_hit 1153784
Core_0_ITLB_load_miss 0
Core_0_ITLB_load_MPKI 0
Core_0_ITLB_load_miss_rate 0
Core_0_ITLB_rfo_access 0
Core_0_ITLB_rfo_hit 0
Core_0_ITLB_rfo_miss 0
Core_0_ITLB_rfo_MPKI 0
Core_0_ITLB_rfo_miss_rate 0
Core_0_ITLB_prefetch_access 0
Core_0_ITLB_prefetch_hit 0
Core_0_ITLB_prefetch_miss 0
Core_0_ITLB_prefetch_MPKI 0
Core_0_ITLB_prefetch_miss_rate 0
Core_0_ITLB_writeback_access 0
Core_0_ITLB_writeback_hit 0
Core_0_ITLB_writeback_miss 0
Core_0_ITLB_writeback_MPKI 0
Core_0_ITLB_writeback_miss_rate 0
Core_0_ITLB_prefetch_requested 0
Core_0_ITLB_prefetch_issued 0
Core_0_ITLB_prefetch_useful 0
Core_0_ITLB_prefetch_useless 0
Core_0_ITLB_prefetch_late 0
Core_0_ITLB_prefetch_fill 0
Core_0_ITLB_prefetch_too_early 0
Core_0_ITLB_prefetch_too_early_among_fill 0
Core_0_ITLB_prefetch_too_early_among_useless 0
Core_0_ITLB_prefetch_pollution_evict 0
Core_0_ITLB_prefetch_pollution_demand 0
Core_0_ITLB_prefetch_pollution_among_prefetch_fill 0
Core_0_ITLB_prefetch_accuracy 0
Core_0_ITLB_prefetch_coverage 0

Core_0_DTLB_total_access 41479785
Core_0_DTLB_total_hit 35202636
Core_0_DTLB_total_miss 6277149
Core_0_DTLB_total_MPKI 62.7715
Core_0_DTLB_total_miss_rate 0.15133
Core_0_DTLB_demand_access 41479785
Core_0_DTLB_demand_hit 35202636
Core_0_DTLB_demand_miss 6277149
Core_0_DTLB_demand_MPKI 62.7715
Core_0_DTLB_demand_miss_rate 0.15133
Core_0_DTLB_load_access 41479785
Core_0_DTLB_load_hit 35202636
Core_0_DTLB_load_miss 6277149
Core_0_DTLB_load_MPKI 62.7715
Core_0_DTLB_load_miss_rate 0.15133
Core_0_DTLB_rfo_access 0
Core_0_DTLB_rfo_hit 0
Core_0_DTLB_rfo_miss 0
Core_0_DTLB_rfo_MPKI 0
Core_0_DTLB_rfo_miss_rate 0
Core_0_DTLB_prefetch_access 0
Core_0_DTLB_prefetch_hit 0
Core_0_DTLB_prefetch_miss 0
Core_0_DTLB_prefetch_MPKI 0
Core_0_DTLB_prefetch_miss_rate 0
Core_0_DTLB_writeback_access 0
Core_0_DTLB_writeback_hit 0
Core_0_DTLB_writeback_miss 0
Core_0_DTLB_writeback_MPKI 0
Core_0_DTLB_writeback_miss_rate 0
Core_0_DTLB_prefetch_requested 0
Core_0_DTLB_prefetch_issued 0
Core_0_DTLB_prefetch_useful 0
Core_0_DTLB_prefetch_useless 0
Core_0_DTLB_prefetch_late 0
Core_0_DTLB_prefetch_fill 0
Core_0_DTLB_prefetch_too_early 0
Core_0_DTLB_prefetch_too_early_among_fill 0
Core_0_DTLB_prefetch_too_early_among_useless 0
Core_0_DTLB_prefetch_pollution_evict 0
Core_0_DTLB_prefetch_pollution_demand 0
Core_0_DTLB_prefetch_pollution_among_prefetch_fill 0
Core_0_DTLB_prefetch_accuracy 0
Core_0_DTLB_prefetch_coverage 0

Core_0_STLB_total_access 5862849
Core_0_STLB_total_hit 2526847
Core_0_STLB_total_miss 3336002
Core_0_STLB_total_MPKI 33.36
Core_0_STLB_total_miss_rate 0.569007
Core_0_STLB_demand_access 5862849
Core_0_STLB_demand_hit 2526847
Core_0_STLB_demand_miss 3336002
Core_0_STLB_demand_MPKI 33.36
Core_0_STLB_demand_miss_rate 0.569007
Core_0_STLB_load_access 5862849
Core_0_STLB_load_hit 2526847
Core_0_STLB_load_miss 3336002
Core_0_STLB_load_MPKI 33.36
Core_0_STLB_load_miss_rate 0.569007
Core_0_STLB_rfo_access 0
Core_0_STLB_rfo_hit 0
Core_0_STLB_rfo_miss 0
Core_0_STLB_rfo_MPKI 0
Core_0_STLB_rfo_miss_rate 0
Core_0_STLB_prefetch_access 0
Core_0_STLB_prefetch_hit 0
Core_0_STLB_prefetch_miss 0
Core_0_STLB_prefetch_MPKI 0
Core_0_STLB_prefetch_miss_rate 0
Core_0_STLB_writeback_access 0
Core_0_STLB_writeback_hit 0
Core_0_STLB_writeback_miss 0
Core_0_STLB_writeback_MPKI 0
Core_0_STLB_writeback_miss_rate 0
Core_0_STLB_prefetch_requested 0
Core_0_STLB_prefetch_issued 0
Core_0_STLB_prefetch_useful 0
Core_0_STLB_prefetch_useless 0
Core_0_STLB_prefetch_late 0
Core_0_STLB_prefetch_fill 0
Core_0_STLB_prefetch_too_early 0
Core_0_STLB_prefetch_too_early_among_fill 0
Core_0_STLB_prefetch_too_early_among_useless 0
Core_0_STLB_prefetch_pollution_evict 0
Core_0_STLB_prefetch_pollution_demand 0
Core_0_STLB_prefetch_pollution_among_prefetch_fill 0
Core_0_STLB_prefetch_accuracy 0
Core_0_STLB_prefetch_coverage 0

Core_0_L1I_total_access 1177131
Core_0_L1I_total_hit 1177131
Core_0_L1I_total_miss 0
Core_0_L1I_total_MPKI 0
Core_0_L1I_total_miss_rate 0
Core_0_L1I_demand_access 1177131
Core_0_L1I_demand_hit 1177131
Core_0_L1I_demand_miss 0
Core_0_L1I_demand_MPKI 0
Core_0_L1I_demand_miss_rate 0
Core_0_L1I_load_access 1177131
Core_0_L1I_load_hit 1177131
Core_0_L1I_load_miss 0
Core_0_L1I_load_MPKI 0
Core_0_L1I_load_miss_rate 0
Core_0_L1I_rfo_access 0
Core_0_L1I_rfo_hit 0
Core_0_L1I_rfo_miss 0
Core_0_L1I_rfo_MPKI 0
Core_0_L1I_rfo_miss_rate 0
Core_0_L1I_prefetch_access 0
Core_0_L1I_prefetch_hit 0
Core_0_L1I_prefetch_miss 0
Core_0_L1I_prefetch_MPKI 0
Core_0_L1I_prefetch_miss_rate 0
Core_0_L1I_writeback_access 0
Core_0_L1I_writeback_hit 0
Core_0_L1I_writeback_miss 0
Core_0_L1I_writeback_MPKI 0
Core_0_L1I_writeback_miss_rate 0
Core_0_L1I_prefetch_requested 0
Core_0_L1I_prefetch_issued 0
Core_0_L1I_prefetch_useful 0
Core_0_L1I_prefetch_useless 0
Core_0_L1I_prefetch_late 0
Core_0_L1I_prefetch_fill 0
Core_0_L1I_prefetch_too_early 0
Core_0_L1I_prefetch_too_early_among_fill 0
Core_0_L1I_prefetch_too_early_among_useless 0
Core_0_L1I_prefetch_pollution_evict 0
Core_0_L1I_prefetch_pollution_demand 0
Core_0_L1I_prefetch_pollution_among_prefetch_fill 0
Core_0_L1I_prefetch_accuracy 0
Core_0_L1I_prefetch_coverage 0

Core_0_L1D_total_access 42626279
Core_0_L1D_total_hit 35168791
Core_0_L1D_total_miss 7457488
Core_0_L1D_total_MPKI 74.5749
Core_0_L1D_total_miss_rate 0.17495
Core_0_L1D_demand_access 23171093
Core_0_L1D_demand_hit 17096616
Core_0_L1D_demand_miss 6074477
Core_0_L1D_demand_MPKI 60.7448
Core_0_L1D_demand_miss_rate 0.262158
Core_0_L1D_load_access 23171093
Core_0_L1D_load_hit 17096616
Core_0_L1D_load_miss 6074477
Core_0_L1D_load_MPKI 60.7448
Core_0_L1D_load_miss_rate 0.262158
Core_0_L1D_rfo_access 0
Core_0_L1D_rfo_hit 0
Core_0_L1D_rfo_miss 0
Core_0_L1D_rfo_MPKI 0
Core_0_L1D_rfo_miss_rate 0
Core_0_L1D_prefetch_access 14879868
Core_0_L1D_prefetch_hit 13496916
Core_0_L1D_prefetch_miss 1382952
Core_0_L1D_prefetch_MPKI 13.8295
Core_0_L1D_prefetch_miss_rate 0.0929411
Core_0_L1D_writeback_access 4575318
Core_0_L1D_writeback_hit 4575259
Core_0_L1D_writeback_miss 59
Core_0_L1D_writeback_MPKI 0.00059
Core_0_L1D_writeback_miss_rate 1.28953e-05
Core_0_L1D_prefetch_requested 56307542
Core_0_L1D_prefetch_issued 14879865
Core_0_L1D_prefetch_useful 726478
Core_0_L1D_prefetch_useless 6190
Core_0_L1D_prefetch_late 1545
Core_0_L1D_prefetch_fill 731137
Core_0_L1D_prefetch_too_early 2181
Core_0_L1D_prefetch_too_early_among_fill 0.00298303
Core_0_L1D_prefetch_too_early_among_useless 0.352342
Core_0_L1D_prefetch_pollution_evict 32107
Core_0_L1D_prefetch_pollution_demand 32033
Core_0_L1D_prefetch_pollution_among_prefetch_fill 0.0439138
Core_0_L1D_prefetch_accuracy 0.0488229
Core_0_L1D_prefetch_coverage 0.10682

Core_0_L2C_total_access 7904897
Core_0_L2C_total_hit 1306317
Core_0_L2C_total_miss 6598580
Core_0_L2C_total_MPKI 65.9858
Core_0_L2C_total_miss_rate 0.834746
Core_0_L2C_demand_access 5742693
Core_0_L2C_demand_hit 349887
Core_0_L2C_demand_miss 5392806
Core_0_L2C_demand_MPKI 53.9281
Core_0_L2C_demand_miss_rate 0.939073
Core_0_L2C_load_access 5742656
Core_0_L2C_load_hit 349850
Core_0_L2C_load_miss 5392806
Core_0_L2C_load_MPKI 53.9281
Core_0_L2C_load_miss_rate 0.939079
Core_0_L2C_rfo_access 37
Core_0_L2C_rfo_hit 37
Core_0_L2C_rfo_miss 0
Core_0_L2C_rfo_MPKI 0
Core_0_L2C_rfo_miss_rate 0
Core_0_L2C_prefetch_access 2053186
Core_0_L2C_prefetch_hit 847413
Core_0_L2C_prefetch_miss 1205773
Core_0_L2C_prefetch_MPKI 12.0577
Core_0_L2C_prefetch_miss_rate 0.587269
Core_0_L2C_writeback_access 109018
Core_0_L2C_writeback_hit 109017
Core_0_L2C_writeback_miss 1
Core_0_L2C_writeback_MPKI 1e-05
Core_0_L2C_writeback_miss_rate 9.1728e-06
Core_0_L2C_prefetch_requested 687862
Core_0_L2C_prefetch_issued 687708
Core_0_L2C_prefetch_useful 237969
Core_0_L2C_prefetch_useless 94654
Core_0_L2C_prefetch_late 4345
Core_0_L2C_prefetch_fill 836012
Core_0_L2C_prefetch_too_early 11673
Core_0_L2C_prefetch_too_early_among_fill 0.0139627
Core_0_L2C_prefetch_too_early_among_useless 0.123323
Core_0_L2C_prefetch_pollution_evict 99823
Core_0_L2C_prefetch_pollution_demand 99549
Core_0_L2C_prefetch_pollution_among_prefetch_fill 0.119404
Core_0_L2C_prefetch_accuracy 0.346032
Core_0_L2C_prefetch_coverage 0.0422622

Core_0_LLC_total_access 6398869
Core_0_LLC_total_hit 875122
Core_0_LLC_total_miss 5523747
Core_0_LLC_total_MPKI 55.2375
Core_0_LLC_total_miss_rate 0.863238
Core_0_LLC_demand_access 5387825
Core_0_LLC_demand_hit 809674
Core_0_LLC_demand_miss 4578151
Core_0_LLC_demand_MPKI 45.7815
Core_0_LLC_demand_miss_rate 0.849722
Core_0_LLC_load_access 5387825
Core_0_LLC_load_hit 809674
Core_0_LLC_load_miss 4578151
Core_0_LLC_load_MPKI 45.7815
Core_0_LLC_load_miss_rate 0.849722
Core_0_LLC_rfo_access 0
Core_0_LLC_rfo_hit 0
Core_0_LLC_rfo_miss 0
Core_0_LLC_rfo_MPKI 0
Core_0_LLC_rfo_miss_rate 0
Core_0_LLC_prefetch_access 902121
Core_0_LLC_prefetch_hit 45931
Core_0_LLC_prefetch_miss 856190
Core_0_LLC_prefetch_MPKI 8.5619
Core_0_LLC_prefetch_miss_rate 0.949086
Core_0_LLC_writeback_access 108923
Core_0_LLC_writeback_hit 19517
Core_0_LLC_writeback_miss 89406
Core_0_LLC_writeback_MPKI 0.89406
Core_0_LLC_writeback_miss_rate 0.820818
Core_0_LLC_prefetch_requested 0
Core_0_LLC_prefetch_issued 0
Core_0_LLC_prefetch_useful 0
Core_0_LLC_prefetch_useless 0
Core_0_LLC_prefetch_late 0
Core_0_LLC_prefetch_fill 835610
Core_0_LLC_prefetch_too_early 0
Core_0_LLC_prefetch_too_early_among_fill 0
Core_0_LLC_prefetch_too_early_among_useless 0
Core_0_LLC_prefetch_pollution_evict 206693
Core_0_LLC_prefetch_pollution_demand 206693
Core_0_LLC_prefetch_pollution_among_prefetch_fill 0.247356
Core_0_LLC_prefetch_accuracy 0
Core_0_LLC_prefetch_coverage 0

[DRAM Statistics]
Channel_0_RQ_row_buffer_hit 14783
Channel_0_RQ_row_buffer_miss 5424972
Channel_0_WQ_row_buffer_hit 30550
Channel_0_WQ_row_buffer_miss 76823
Channel_0_WQ_full 0
Channel_0_dbus_congested 9124968
DRAM_total_RQ_row_buffer_hit 14783
DRAM_total_RQ_row_buffer_miss 5424972
DRAM_total_WQ_row_buffer_hit 30550
DRAM_total_WQ_row_buffer_miss 76823
DRAM_total_WQ_full 0
DRAM_total_dbus_congested 9124968
DRAM_avg_congested_cycle 3.7344

====== DRAM_RQ_TRAFFIC ========
DRAM_RQ_READ_TRAFFIC_BREAKDOWN:
data_demand_read.count = 4576793
data_demand_read.share = 84.14%

inst_demand_read.count = 0
inst_demand_read.share = 0.00%

cache_inst_prefetch.count = 0
cache_inst_prefetch.share = 0.00%

cache_data_prefetch.count = 836968
cache_data_prefetch.share = 15.39%

stlb_data_demand.count = 23344
stlb_data_demand.share = 0.43%

stlb_inst_demand.count = 0
stlb_inst_demand.share = 0.00%

stlb_l1i_pref.count = 0
stlb_l1i_pref.share = 0.00%

stlb_l1d_pref.count = 2655
stlb_l1d_pref.share = 0.05%

DRAM_RQ_READ_TRAFFIC_SUMMARY:
cache_demand.count = 4576793
cache_demand.share = 84.14%

cache_prefetch.count = 836968
cache_prefetch.share = 15.39%

stlb_demand.count = 23344
stlb_demand.share = 0.43%

stlb_prefetch.count = 2655
stlb_prefetch.share = 0.05%

DRAM_RQ_READ_TRAFFIC_DEBUG:
total_classified_read.count = 5439760
unclassified_read.count = 0
total_read_with_other.count = 5439760

classified_plus_unclassified_check.count = 5439760
dram_rq_read_total_observed.count = 5439760
dram_rq_read_total_observed.per_1K_instructions = 54.3976

STLB_MISS_PTW_DRAM_TOUCH_BREAKDOWN:
stlb_miss_total.count = 3298897

stlb_miss_touch_dram.count = 26064
stlb_miss_touch_dram.share = 0.79%

stlb_miss_no_dram_touch.count = 3272833
stlb_miss_no_dram_touch.share = 99.21%

STLB_MISS_PTW_DRAM_TOUCH_DEBUG:
stlb_miss_touch_plus_no_touch.count = 3298897
stlb_miss_total_check.count = 3298897

======STLB miss causes ========
Core_0_STLB_miss_cause_breakdown
Core_0_STLB_cause_Demand_Data_miss 3278179
Core_0_STLB_cause_Demand_Data_miss_rate 0.559144
Core_0_STLB_cause_Demand_Instruction_miss 0
Core_0_STLB_cause_Demand_Instruction_miss_rate 0
Core_0_STLB_cause_L1D_Prefetch_miss 57823
Core_0_STLB_cause_L1D_Prefetch_miss_rate 0.00986261
Core_0_STLB_cause_L1D_Prefetch_Same_Page_miss 594
Core_0_STLB_cause_L1D_Prefetch_Same_Page_miss_rate 0.000101316
Core_0_STLB_cause_L1D_Prefetch_Cross_Page_miss 57229
Core_0_STLB_cause_L1D_Prefetch_Cross_Page_miss_rate 0.0097613
Core_0_STLB_cause_L1I_Prefetch_miss 0
Core_0_STLB_cause_L1I_Prefetch_miss_rate 0
Core_0_STLB_cause_Other_miss 0
Core_0_STLB_cause_Other_miss_rate 0
Core_0_STLB_Demand_miss 3278179
Core_0_STLB_Demand_miss_rate 0.559144
Core_0_STLB_L1D_Prefetch_miss 57823
Core_0_STLB_L1D_Prefetch_miss_rate 0.00986261
Core_0_STLB_Other_miss 0
Core_0_STLB_Other_miss_rate 0

========== vBerti-TLB Cross-page Flow Stats ==========

Core_0_vBerti_Requested 56307542
Core_0_vBerti_Cross_page_prefetch_in_Requested 7476073
Core_0_vBerti_Same_page_prefetch_in_Requested 48831469
Core_0_vBerti_Cross_page_prefetch_of_Requested 0.132772
Core_0_vBerti_Issued 14879865
Core_0_vBerti_InPQ_Same_page_prefetch 13953254
Core_0_vBerti_InPQ_Cross_page_prefetch 926611
Core_0_vBerti_PQ_Drop_Rate 0.735739
Core_0_vBerti_InPQ_Cross_page_prefetch_of_Requested 0.0164563
Core_0_vBerti_Cross_page_PQ_Drop_rate 0.876056
Core_0_vBerti_Cross_page_prefetch_of_Issued 0.0622728
Core_0_CP_PF_PQFULL_drop 6549462
Core_0_CP_PF_PQFULL_TLB_rescue_enqueued 4215273
Core_0_CP_PF_PQFULL_TLB_rescue_issued 4215273
Core_0_CP_PF_PQFULL_TLB_rescue_translated 4215273

========= DTLB_vBerti Prefetch Stats =========
Core_0_DTLB_demand_access 27476936
Core_0_DTLB_demand_hit 21383796
Core_0_DTLB_demand_miss 6093140
Core_0_DTLB_demand_mshr_merge 329123
Core_0_DTLB_demand_fill 5764194
Core_0_DTLB_demand_miss_rate 0.221755
Core_0_DTLB_demand_mpki 60.9314
Core_0_DTLB_vberti_prefetch_access 14002849
Core_0_DTLB_vberti_prefetch_hit 13818840
Core_0_DTLB_vberti_prefetch_miss 184009
Core_0_DTLB_vberti_prefetch_mshr_merge 85177
Core_0_DTLB_vberti_prefetch_fill 98661
Core_0_DTLB_vberti_prefetch_miss_rate 0.0131408
Core_0_DTLB_vberti_prefetch_mpki 1.84009

=== DTLB_vBerti Same/Cross-page Prefetch Stats ===
Core_0_DTLB_vberti_same_page_prefetch 10472913
Core_0_DTLB_vberti_same_page_prefetch_hit 10469309
Core_0_DTLB_vberti_same_page_prefetch_miss 3604
Core_0_DTLB_vberti_same_page_prefetch_mshr_merge 1887
Core_0_DTLB_vberti_same_page_prefetch_fill 1609
Core_0_DTLB_vberti_same_page_prefetch_miss_rate 0.000344126
Core_0_DTLB_vberti_same_page_prefetch_mpki 0.03604
Core_0_DTLB_vberti_cross_page_prefetch 3529936
Core_0_DTLB_vberti_cross_page_prefetch_hit 3349531
Core_0_DTLB_vberti_cross_page_prefetch_miss 180405
Core_0_DTLB_vberti_cross_page_prefetch_mshr_merge 83290
Core_0_DTLB_vberti_cross_page_prefetch_fill 97052
Core_0_DTLB_vberti_cross_page_prefetch_miss_rate 0.0511072
Core_0_DTLB_vberti_cross_page_prefetch_mpki 1.80405
Core_0_DTLB_same_page_prefetch_miss_rate 0.000344126
Core_0_DTLB_same_page_prefetch_mpki 0.03604
Core_0_DTLB_cross_page_prefetch_miss_rate 0.0511072
Core_0_DTLB_cross_page_prefetch_mpki 1.80405
Core_0_DTLB_cross_page_prefetch_issued 3529936
Core_0_DTLB_cross_page_prefetch_lookups 3529936
Core_0_DTLB_cross_page_prefetch_useful 13555
Core_0_DTLB_cross_page_prefetch_useless 83560
Core_0_DTLB_cross_page_prefetch_late 64
Core_0_DTLB_cross_page_prefetch_too_early 39982
Core_0_DTLB_cross_page_prefetch_too_early_among_fill 0.411965
Core_0_DTLB_cross_page_prefetch_too_early_among_useless 0.478483
Core_0_DTLB_cross_page_prefetch_pollution_evict 47342
Core_0_DTLB_cross_page_prefetch_pollution_demand 42020
Core_0_DTLB_cross_page_prefetch_pollution_among_prefetch_fill 0.4878
Core_0_DTLB_cross_page_prefetch_accuracy 0.00384001
Core_0_DTLB_cross_page_prefetch_coverage 0.00221969

========= STLB_vBerti Prefetch Stats =========
Core_0_STLB_demand_access 5764017
Core_0_STLB_demand_hit 2485838
Core_0_STLB_demand_miss 3278179
Core_0_STLB_demand_mshr_merge 0
Core_0_STLB_demand_fill 3278185
Core_0_STLB_demand_miss_rate 0.568732
Core_0_STLB_demand_mpki 32.7818
Core_0_STLB_vberti_prefetch_access 98832
Core_0_STLB_vberti_prefetch_hit 41009
Core_0_STLB_vberti_prefetch_miss 57823
Core_0_STLB_vberti_prefetch_mshr_merge 0
Core_0_STLB_vberti_prefetch_fill 594
Core_0_STLB_vberti_prefetch_miss_rate 0.585064
Core_0_STLB_vberti_prefetch_mpki 0.57823

=== STLB_vBerti Same/Cross-page Prefetch Stats ===
Core_0_STLB_vberti_same_page_prefetch 1717
Core_0_STLB_vberti_same_page_prefetch_hit 1123
Core_0_STLB_vberti_same_page_prefetch_miss 594
Core_0_STLB_vberti_same_page_prefetch_mshr_merge 0
Core_0_STLB_vberti_same_page_prefetch_fill 594
Core_0_STLB_vberti_same_page_prefetch_miss_rate 0.345952
Core_0_STLB_vberti_same_page_prefetch_mpki 0.00594
Core_0_STLB_vberti_cross_page_prefetch 97115
Core_0_STLB_vberti_cross_page_prefetch_hit 39886
Core_0_STLB_vberti_cross_page_prefetch_miss 57229
Core_0_STLB_vberti_cross_page_prefetch_mshr_merge 0
Core_0_STLB_vberti_cross_page_prefetch_fill 0
Core_0_STLB_vberti_cross_page_prefetch_miss_rate 0.589291
Core_0_STLB_vberti_cross_page_prefetch_mpki 0.57229
Core_0_STLB_same_page_prefetch_miss_rate 0.345952
Core_0_STLB_same_page_prefetch_mpki 0.00594
Core_0_STLB_cross_page_prefetch_miss_rate 0.589291
Core_0_STLB_cross_page_prefetch_mpki 0.57229
Core_0_STLB_cross_page_prefetch_issued 97115
Core_0_STLB_cross_page_prefetch_lookups 97115
Core_0_STLB_cross_page_prefetch_useful 37103
Core_0_STLB_cross_page_prefetch_useless 7316
Core_0_STLB_cross_page_prefetch_late 37103
Core_0_STLB_cross_page_prefetch_too_early 0
Core_0_STLB_cross_page_prefetch_too_early_among_fill 0
Core_0_STLB_cross_page_prefetch_too_early_among_useless 0
Core_0_STLB_cross_page_prefetch_pollution_evict 0
Core_0_STLB_cross_page_prefetch_pollution_demand 0
Core_0_STLB_cross_page_prefetch_pollution_among_prefetch_fill 0
Core_0_STLB_cross_page_prefetch_accuracy 0.382052
Core_0_STLB_cross_page_prefetch_coverage 0.0111915

========= STLB Cross-page Prefetch Buffer Stats =========
Core_0_STLB_raw_demand_miss 3278179
Core_0_CP_PB_insert 57229
Core_0_CP_PB_demand_hit 37103
Core_0_STLB_PB_demand_miss 3241076
Core_0_CP_PB_coverage 0.0113182
Core_0_STLB_raw_demand_mpki 32.7818
Core_0_STLB_PB_demand_mpki 32.4108
Core_0_CP_PB_demand_hit_mpki 0.37103

Core_0_TLB_demand_miss_rate 0.119307
Core_0_TLB_demand_mpki 32.7818
Core_0_TLB_same_page_prefetch_miss_rate 5.67177e-05
Core_0_TLB_same_page_prefetch_mpki 0.00594
Core_0_TLB_cross_page_prefetch_miss_rate 0.0162125
Core_0_TLB_cross_page_prefetch_mpki 0.57229
Core_0_TLB_cross_page_prefetch_issued 3529936
Core_0_TLB_cross_page_prefetch_lookups 3529936
Core_0_TLB_cross_page_prefetch_useful 12014
Core_0_TLB_cross_page_prefetch_useless 44036
Core_0_TLB_cross_page_prefetch_late 26
Core_0_TLB_cross_page_prefetch_too_early 18124
Core_0_TLB_cross_page_prefetch_too_early_among_fill 0.186745
Core_0_TLB_cross_page_prefetch_too_early_among_useless 0.411572
Core_0_TLB_cross_page_prefetch_accuracy 0.00340346
Core_0_TLB_cross_page_prefetch_coverage 0.00365146
BERTI TO_L1: 55505459 TO_L2: 9521513 TO_L2_BC_MSHR: 3325711
BERTI AVG_LAT: 147.792 NUM_TRACK_LATENCY: 10049690 NUM_CANT_TRACK_LATENCY: 0
BERTI CROSS_PAGE 8678603 NO_CROSS_PAGE: 56348369
BERTI FOUND_BERTI: 46851419 NO_FOUND_BERTI: 13121274
BERTI AVERAGE_ISSUED: 3.42212
