[VMEM] WARNING: physical memory size is smaller than virtual memory size.

*** ChampSim Multicore Out-of-Order Simulator ***
Warmup Instructions: 50000000
Simulation Instructions: 100000000
Number of CPUs: 1
Page size: 4096
Core 0: /data0/tzh/champsim_traces/Ligra/ligra_BellmanFord.com-lj.ungraph.gcc_6.3.0_O3.drop_33750M.length_250M.champsimtrace.xz
VBerti Prefetcher
BERTI HASH ENTANGLING
BERTI IP MASK ffff
Off-chip DRAM Size: 16 GiB Channels: 1 Width: 64-bit Data Rate: 3205 MT/s
Warmup halting CPU 0 at instruction 50000003 cycle 12711863 for remainder of phase
Warmup finished CPU 0 instructions: 50000003 cycles: 12711863 cumulative IPC: 3.933 (Simulation time: 00 hr 03 min 06 sec)
Warmup complete CPU 0 instructions: 50000003 cycles: 12711863 cumulative IPC: 3.933 (Simulation time: 00 hr 03 min 06 sec)
Simulation finished CPU 0 instructions: 100000002 cycles: 248741907 cumulative IPC: 0.402 (Simulation time: 00 hr 23 min 40 sec)
Simulation complete CPU 0 instructions: 100000002 cycles: 248741907 cumulative IPC: 0.402 (Simulation time: 00 hr 23 min 40 sec)

ChampSim completed all CPUs

=== Simulation ===
CPU 0 runs /data0/tzh/champsim_traces/Ligra/ligra_BellmanFord.com-lj.ungraph.gcc_6.3.0_O3.drop_33750M.length_250M.champsimtrace.xz

Region of Interest Statistics

CPU 0 cumulative IPC: 0.402 instructions: 100000002 cycles: 248741907
CPU 0 Branch Prediction Accuracy: 88.13% MPKI: 18.4 Average ROB Occupancy at Mispredict: 26.07
Branch type MPKI
BRANCH_DIRECT_JUMP: 1.331
BRANCH_INDIRECT: 0
BRANCH_CONDITIONAL: 17.07
BRANCH_DIRECT_CALL: 0
BRANCH_INDIRECT_CALL: 0
BRANCH_RETURN: 0

cpu0->cpu0_STLB TOTAL        ACCESS:    1616521 HIT:    1015146 MISS:     601375 MSHR_MERGE:          0
cpu0->cpu0_STLB LOAD         ACCESS:    1616521 HIT:    1015146 MISS:     601375 MSHR_MERGE:          0
cpu0->cpu0_STLB RFO          ACCESS:          0 HIT:          0 MISS:          0 MSHR_MERGE:          0
cpu0->cpu0_STLB PREFETCH     ACCESS:          0 HIT:          0 MISS:          0 MSHR_MERGE:          0
cpu0->cpu0_STLB WRITE        ACCESS:          0 HIT:          0 MISS:          0 MSHR_MERGE:          0
cpu0->cpu0_STLB TRANSLATION  ACCESS:          0 HIT:          0 MISS:          0 MSHR_MERGE:          0
cpu0->cpu0_STLB PREFETCH REQUESTED:          0 ISSUED:          0 USEFUL:          0 USELESS:          0 LATE:          0 TOO_EARLY:          0
cpu0->cpu0_STLB AVERAGE MISS LATENCY: 34.57 cycles
cpu0->cpu0_L2C TOTAL        ACCESS:    9860596 HIT:    5382556 MISS:    4478040 MSHR_MERGE:     837398
cpu0->cpu0_L2C LOAD         ACCESS:    2088404 HIT:     320829 MISS:    1767575 MSHR_MERGE:       8384
cpu0->cpu0_L2C RFO          ACCESS:     120319 HIT:       7293 MISS:     113026 MSHR_MERGE:          0
cpu0->cpu0_L2C PREFETCH     ACCESS:    6759874 HIT:    4259153 MISS:    2500721 MSHR_MERGE:     829014
cpu0->cpu0_L2C WRITE        ACCESS:     420757 HIT:     420732 MISS:         25 MSHR_MERGE:          0
cpu0->cpu0_L2C TRANSLATION  ACCESS:     471242 HIT:     374549 MISS:      96693 MSHR_MERGE:          0
cpu0->cpu0_L2C PREFETCH REQUESTED:    1785252 ISSUED:    1785210 USEFUL:     406320 USELESS:     162325 LATE:       5084 TOO_EARLY:      11367
cpu0->cpu0_L2C AVERAGE MISS LATENCY: 189.7 cycles
cpu0->cpu0_L1I TOTAL        ACCESS:    1148734 HIT:    1148734 MISS:          0 MSHR_MERGE:          0
cpu0->cpu0_L1I LOAD         ACCESS:    1148734 HIT:    1148734 MISS:          0 MSHR_MERGE:          0
cpu0->cpu0_L1I RFO          ACCESS:          0 HIT:          0 MISS:          0 MSHR_MERGE:          0
cpu0->cpu0_L1I PREFETCH     ACCESS:          0 HIT:          0 MISS:          0 MSHR_MERGE:          0
cpu0->cpu0_L1I WRITE        ACCESS:          0 HIT:          0 MISS:          0 MSHR_MERGE:          0
cpu0->cpu0_L1I TRANSLATION  ACCESS:          0 HIT:          0 MISS:          0 MSHR_MERGE:          0
cpu0->cpu0_L1I PREFETCH REQUESTED:          0 ISSUED:          0 USEFUL:          0 USELESS:          0 LATE:          0 TOO_EARLY:          0
cpu0->cpu0_L1I AVERAGE MISS LATENCY: - cycles
cpu0->cpu0_L1D TOTAL        ACCESS:   48740307 HIT:   40391501 MISS:    8348806 MSHR_MERGE:     639342
cpu0->cpu0_L1D LOAD         ACCESS:   23155073 HIT:   20484465 MISS:    2670608 MSHR_MERGE:     582202
cpu0->cpu0_L1D RFO          ACCESS:          0 HIT:          0 MISS:          0 MSHR_MERGE:          0
cpu0->cpu0_L1D PREFETCH     ACCESS:   23630047 HIT:   18578084 MISS:    5051963 MSHR_MERGE:      22466
cpu0->cpu0_L1D WRITE        ACCESS:     756471 HIT:     602556 MISS:     153915 MSHR_MERGE:      33596
cpu0->cpu0_L1D TRANSLATION  ACCESS:    1198716 HIT:     726396 MISS:     472320 MSHR_MERGE:       1078
cpu0->cpu0_L1D PREFETCH REQUESTED:   74743629 ISSUED:   23630044 USEFUL:    1075256 USELESS:     272841 LATE:      14315 TOO_EARLY:        241
cpu0->cpu0_L1D AVERAGE MISS LATENCY: 148.5 cycles
cpu0->cpu0_ITLB TOTAL        ACCESS:    1148729 HIT:    1148729 MISS:          0 MSHR_MERGE:          0
cpu0->cpu0_ITLB LOAD         ACCESS:    1148729 HIT:    1148729 MISS:          0 MSHR_MERGE:          0
cpu0->cpu0_ITLB RFO          ACCESS:          0 HIT:          0 MISS:          0 MSHR_MERGE:          0
cpu0->cpu0_ITLB PREFETCH     ACCESS:          0 HIT:          0 MISS:          0 MSHR_MERGE:          0
cpu0->cpu0_ITLB WRITE        ACCESS:          0 HIT:          0 MISS:          0 MSHR_MERGE:          0
cpu0->cpu0_ITLB TRANSLATION  ACCESS:          0 HIT:          0 MISS:          0 MSHR_MERGE:          0
cpu0->cpu0_ITLB PREFETCH REQUESTED:          0 ISSUED:          0 USEFUL:          0 USELESS:          0 LATE:          0 TOO_EARLY:          0
cpu0->cpu0_ITLB AVERAGE MISS LATENCY: - cycles
cpu0->cpu0_DTLB TOTAL        ACCESS:   41494316 HIT:   39601664 MISS:    1892652 MSHR_MERGE:     276131
cpu0->cpu0_DTLB LOAD         ACCESS:   41494316 HIT:   39601664 MISS:    1892652 MSHR_MERGE:     276131
cpu0->cpu0_DTLB RFO          ACCESS:          0 HIT:          0 MISS:          0 MSHR_MERGE:          0
cpu0->cpu0_DTLB PREFETCH     ACCESS:          0 HIT:          0 MISS:          0 MSHR_MERGE:          0
cpu0->cpu0_DTLB WRITE        ACCESS:          0 HIT:          0 MISS:          0 MSHR_MERGE:          0
cpu0->cpu0_DTLB TRANSLATION  ACCESS:          0 HIT:          0 MISS:          0 MSHR_MERGE:          0
cpu0->cpu0_DTLB PREFETCH REQUESTED:          0 ISSUED:          0 USEFUL:          0 USELESS:          0 LATE:          0 TOO_EARLY:          0
cpu0->cpu0_DTLB AVERAGE MISS LATENCY: 18.21 cycles
cpu0->LLC TOTAL        ACCESS:    4043327 HIT:     547983 MISS:    3495344 MSHR_MERGE:      14557
cpu0->LLC LOAD         ACCESS:    1759191 HIT:     306090 MISS:    1453101 MSHR_MERGE:         54
cpu0->LLC RFO          ACCESS:     113026 HIT:      14941 MISS:      98085 MSHR_MERGE:          0
cpu0->LLC PREFETCH     ACCESS:    1671705 HIT:      30981 MISS:    1640724 MSHR_MERGE:      14503
cpu0->LLC WRITE        ACCESS:     402712 HIT:     106091 MISS:     296621 MSHR_MERGE:          0
cpu0->LLC TRANSLATION  ACCESS:      96693 HIT:      89880 MISS:       6813 MSHR_MERGE:          0
cpu0->LLC PREFETCH REQUESTED:          0 ISSUED:          0 USEFUL:          0 USELESS:          0 LATE:          0 TOO_EARLY:          0
cpu0->LLC AVERAGE MISS LATENCY: 186.4 cycles

DRAM Statistics

Channel 0 RQ ROW_BUFFER_HIT:      54360
  ROW_BUFFER_MISS:    3129786
  AVG DBUS CONGESTED CYCLE: 13.03
Channel 0 WQ ROW_BUFFER_HIT:     100387
  ROW_BUFFER_MISS:     254182
  FULL:          0
Channel 0 REFRESHES ISSUED:      20728

[ROI Statistics]
[System Configuration]
num_cpus 1
cpu_freq 4000
fetch_width 6
decode_width 6
dispatch_width 6
execute_width 6
lq_width 2
sq_width 2
retire_width 6
scheduler_size 128
branch_mispredict_penalty 15
rob_size 352
lq_size 128
sq_size 72
ifetch_buffer_size 64
decode_buffer_size 32
dispatch_buffer_size 32
register_file_size 288
decode_latency 1
dispatch_latency 1
schedule_latency 1
execute_latency 1
page_size 4096
block_size 64
core_0_itlb_set 16
core_0_itlb_way 4
core_0_itlb_rq_size 16
core_0_itlb_wq_size 16
core_0_itlb_pq_size 0
core_0_itlb_mshr_size 8
core_0_itlb_hit_latency 1
core_0_itlb_fill_latency 1
core_0_itlb_max_tag_check 2
core_0_itlb_max_fill 2
core_0_dtlb_set 16
core_0_dtlb_way 4
core_0_dtlb_rq_size 16
core_0_dtlb_wq_size 16
core_0_dtlb_pq_size 0
core_0_dtlb_mshr_size 8
core_0_dtlb_hit_latency 1
core_0_dtlb_fill_latency 1
core_0_dtlb_max_tag_check 2
core_0_dtlb_max_fill 2
core_0_stlb_set 128
core_0_stlb_way 12
core_0_stlb_rq_size 32
core_0_stlb_wq_size 32
core_0_stlb_pq_size 0
core_0_stlb_mshr_size 16
core_0_stlb_hit_latency 4
core_0_stlb_fill_latency 4
core_0_stlb_max_tag_check 1
core_0_stlb_max_fill 1
core_0_l1i_set 64
core_0_l1i_way 8
core_0_l1i_rq_size 64
core_0_l1i_wq_size 64
core_0_l1i_pq_size 32
core_0_l1i_mshr_size 8
core_0_l1i_hit_latency 2
core_0_l1i_fill_latency 2
core_0_l1i_max_tag_check 2
core_0_l1i_max_fill 2
core_0_l1d_set 64
core_0_l1d_way 12
core_0_l1d_rq_size 64
core_0_l1d_wq_size 64
core_0_l1d_pq_size 8
core_0_l1d_mshr_size 16
core_0_l1d_hit_latency 2
core_0_l1d_fill_latency 3
core_0_l1d_max_tag_check 2
core_0_l1d_max_fill 2
core_0_l2c_set 1024
core_0_l2c_way 8
core_0_l2c_rq_size 32
core_0_l2c_wq_size 32
core_0_l2c_pq_size 16
core_0_l2c_mshr_size 32
core_0_l2c_hit_latency 5
core_0_l2c_fill_latency 5
core_0_l2c_max_tag_check 1
core_0_l2c_max_fill 1
llc_set 2048
llc_way 16
llc_rq_size 32
llc_wq_size 32
llc_pq_size 32
llc_mshr_size 64
llc_hit_latency 10
llc_fill_latency 10
llc_max_tag_check 1
llc_max_fill 1
dram_channels 1
dram_ranks 1
dram_bankgroups 8
dram_banks 4
dram_rows 65536
dram_columns 1024
dram_channel_width 8
dram_rq_size 64
dram_wq_size 64
dram_size 17179869184
core_0_itlb_prefetcher no
core_0_dtlb_prefetcher no
core_0_stlb_prefetcher no
core_0_l1i_prefetcher next_line
core_0_l1d_prefetcher vberti
core_0_l2c_prefetcher ip_stride
llc_prefetcher no
llc_replacement drrip

Core_0_instructions 100000002
Core_0_cycles 248741907
Core_0_IPC 0.402023
Core_0_branch_prediction_accuracy 88.1309
Core_0_branch_MPKI 18.4026
Core_0_average_ROB_occupancy_at_mispredict 26.0704

Core_0_ITLB_total_access 1148729
Core_0_ITLB_total_hit 1148729
Core_0_ITLB_total_miss 0
Core_0_ITLB_total_MPKI 0
Core_0_ITLB_total_miss_rate 0
Core_0_ITLB_demand_access 1148729
Core_0_ITLB_demand_hit 1148729
Core_0_ITLB_demand_miss 0
Core_0_ITLB_demand_MPKI 0
Core_0_ITLB_demand_miss_rate 0
Core_0_ITLB_load_access 1148729
Core_0_ITLB_load_hit 1148729
Core_0_ITLB_load_miss 0
Core_0_ITLB_load_MPKI 0
Core_0_ITLB_load_miss_rate 0
Core_0_ITLB_rfo_access 0
Core_0_ITLB_rfo_hit 0
Core_0_ITLB_rfo_miss 0
Core_0_ITLB_rfo_MPKI 0
Core_0_ITLB_rfo_miss_rate 0
Core_0_ITLB_prefetch_access 0
Core_0_ITLB_prefetch_hit 0
Core_0_ITLB_prefetch_miss 0
Core_0_ITLB_prefetch_MPKI 0
Core_0_ITLB_prefetch_miss_rate 0
Core_0_ITLB_writeback_access 0
Core_0_ITLB_writeback_hit 0
Core_0_ITLB_writeback_miss 0
Core_0_ITLB_writeback_MPKI 0
Core_0_ITLB_writeback_miss_rate 0
Core_0_ITLB_prefetch_requested 0
Core_0_ITLB_prefetch_issued 0
Core_0_ITLB_prefetch_useful 0
Core_0_ITLB_prefetch_useless 0
Core_0_ITLB_prefetch_late 0
Core_0_ITLB_prefetch_fill 0
Core_0_ITLB_prefetch_too_early 0
Core_0_ITLB_prefetch_too_early_among_fill 0
Core_0_ITLB_prefetch_too_early_among_useless 0
Core_0_ITLB_prefetch_pollution_evict 0
Core_0_ITLB_prefetch_pollution_demand 0
Core_0_ITLB_prefetch_pollution_among_prefetch_fill 0
Core_0_ITLB_prefetch_accuracy 0
Core_0_ITLB_prefetch_coverage 0

Core_0_DTLB_total_access 41494316
Core_0_DTLB_total_hit 39601664
Core_0_DTLB_total_miss 1892652
Core_0_DTLB_total_MPKI 18.9265
Core_0_DTLB_total_miss_rate 0.0456123
Core_0_DTLB_demand_access 41494316
Core_0_DTLB_demand_hit 39601664
Core_0_DTLB_demand_miss 1892652
Core_0_DTLB_demand_MPKI 18.9265
Core_0_DTLB_demand_miss_rate 0.0456123
Core_0_DTLB_load_access 41494316
Core_0_DTLB_load_hit 39601664
Core_0_DTLB_load_miss 1892652
Core_0_DTLB_load_MPKI 18.9265
Core_0_DTLB_load_miss_rate 0.0456123
Core_0_DTLB_rfo_access 0
Core_0_DTLB_rfo_hit 0
Core_0_DTLB_rfo_miss 0
Core_0_DTLB_rfo_MPKI 0
Core_0_DTLB_rfo_miss_rate 0
Core_0_DTLB_prefetch_access 0
Core_0_DTLB_prefetch_hit 0
Core_0_DTLB_prefetch_miss 0
Core_0_DTLB_prefetch_MPKI 0
Core_0_DTLB_prefetch_miss_rate 0
Core_0_DTLB_writeback_access 0
Core_0_DTLB_writeback_hit 0
Core_0_DTLB_writeback_miss 0
Core_0_DTLB_writeback_MPKI 0
Core_0_DTLB_writeback_miss_rate 0
Core_0_DTLB_prefetch_requested 0
Core_0_DTLB_prefetch_issued 0
Core_0_DTLB_prefetch_useful 0
Core_0_DTLB_prefetch_useless 0
Core_0_DTLB_prefetch_late 0
Core_0_DTLB_prefetch_fill 0
Core_0_DTLB_prefetch_too_early 0
Core_0_DTLB_prefetch_too_early_among_fill 0
Core_0_DTLB_prefetch_too_early_among_useless 0
Core_0_DTLB_prefetch_pollution_evict 0
Core_0_DTLB_prefetch_pollution_demand 0
Core_0_DTLB_prefetch_pollution_among_prefetch_fill 0
Core_0_DTLB_prefetch_accuracy 0
Core_0_DTLB_prefetch_coverage 0

Core_0_STLB_total_access 1616521
Core_0_STLB_total_hit 1015146
Core_0_STLB_total_miss 601375
Core_0_STLB_total_MPKI 6.01375
Core_0_STLB_total_miss_rate 0.372018
Core_0_STLB_demand_access 1616521
Core_0_STLB_demand_hit 1015146
Core_0_STLB_demand_miss 601375
Core_0_STLB_demand_MPKI 6.01375
Core_0_STLB_demand_miss_rate 0.372018
Core_0_STLB_load_access 1616521
Core_0_STLB_load_hit 1015146
Core_0_STLB_load_miss 601375
Core_0_STLB_load_MPKI 6.01375
Core_0_STLB_load_miss_rate 0.372018
Core_0_STLB_rfo_access 0
Core_0_STLB_rfo_hit 0
Core_0_STLB_rfo_miss 0
Core_0_STLB_rfo_MPKI 0
Core_0_STLB_rfo_miss_rate 0
Core_0_STLB_prefetch_access 0
Core_0_STLB_prefetch_hit 0
Core_0_STLB_prefetch_miss 0
Core_0_STLB_prefetch_MPKI 0
Core_0_STLB_prefetch_miss_rate 0
Core_0_STLB_writeback_access 0
Core_0_STLB_writeback_hit 0
Core_0_STLB_writeback_miss 0
Core_0_STLB_writeback_MPKI 0
Core_0_STLB_writeback_miss_rate 0
Core_0_STLB_prefetch_requested 0
Core_0_STLB_prefetch_issued 0
Core_0_STLB_prefetch_useful 0
Core_0_STLB_prefetch_useless 0
Core_0_STLB_prefetch_late 0
Core_0_STLB_prefetch_fill 0
Core_0_STLB_prefetch_too_early 0
Core_0_STLB_prefetch_too_early_among_fill 0
Core_0_STLB_prefetch_too_early_among_useless 0
Core_0_STLB_prefetch_pollution_evict 0
Core_0_STLB_prefetch_pollution_demand 0
Core_0_STLB_prefetch_pollution_among_prefetch_fill 0
Core_0_STLB_prefetch_accuracy 0
Core_0_STLB_prefetch_coverage 0

Core_0_L1I_total_access 1148734
Core_0_L1I_total_hit 1148734
Core_0_L1I_total_miss 0
Core_0_L1I_total_MPKI 0
Core_0_L1I_total_miss_rate 0
Core_0_L1I_demand_access 1148734
Core_0_L1I_demand_hit 1148734
Core_0_L1I_demand_miss 0
Core_0_L1I_demand_MPKI 0
Core_0_L1I_demand_miss_rate 0
Core_0_L1I_load_access 1148734
Core_0_L1I_load_hit 1148734
Core_0_L1I_load_miss 0
Core_0_L1I_load_MPKI 0
Core_0_L1I_load_miss_rate 0
Core_0_L1I_rfo_access 0
Core_0_L1I_rfo_hit 0
Core_0_L1I_rfo_miss 0
Core_0_L1I_rfo_MPKI 0
Core_0_L1I_rfo_miss_rate 0
Core_0_L1I_prefetch_access 0
Core_0_L1I_prefetch_hit 0
Core_0_L1I_prefetch_miss 0
Core_0_L1I_prefetch_MPKI 0
Core_0_L1I_prefetch_miss_rate 0
Core_0_L1I_writeback_access 0
Core_0_L1I_writeback_hit 0
Core_0_L1I_writeback_miss 0
Core_0_L1I_writeback_MPKI 0
Core_0_L1I_writeback_miss_rate 0
Core_0_L1I_prefetch_requested 0
Core_0_L1I_prefetch_issued 0
Core_0_L1I_prefetch_useful 0
Core_0_L1I_prefetch_useless 0
Core_0_L1I_prefetch_late 0
Core_0_L1I_prefetch_fill 0
Core_0_L1I_prefetch_too_early 0
Core_0_L1I_prefetch_too_early_among_fill 0
Core_0_L1I_prefetch_too_early_among_useless 0
Core_0_L1I_prefetch_pollution_evict 0
Core_0_L1I_prefetch_pollution_demand 0
Core_0_L1I_prefetch_pollution_among_prefetch_fill 0
Core_0_L1I_prefetch_accuracy 0
Core_0_L1I_prefetch_coverage 0

Core_0_L1D_total_access 47541591
Core_0_L1D_total_hit 39665105
Core_0_L1D_total_miss 7876486
Core_0_L1D_total_MPKI 78.7649
Core_0_L1D_total_miss_rate 0.165676
Core_0_L1D_demand_access 23155073
Core_0_L1D_demand_hit 20484465
Core_0_L1D_demand_miss 2670608
Core_0_L1D_demand_MPKI 26.7061
Core_0_L1D_demand_miss_rate 0.115336
Core_0_L1D_load_access 23155073
Core_0_L1D_load_hit 20484465
Core_0_L1D_load_miss 2670608
Core_0_L1D_load_MPKI 26.7061
Core_0_L1D_load_miss_rate 0.115336
Core_0_L1D_rfo_access 0
Core_0_L1D_rfo_hit 0
Core_0_L1D_rfo_miss 0
Core_0_L1D_rfo_MPKI 0
Core_0_L1D_rfo_miss_rate 0
Core_0_L1D_prefetch_access 23630047
Core_0_L1D_prefetch_hit 18578084
Core_0_L1D_prefetch_miss 5051963
Core_0_L1D_prefetch_MPKI 50.5196
Core_0_L1D_prefetch_miss_rate 0.213794
Core_0_L1D_writeback_access 756471
Core_0_L1D_writeback_hit 602556
Core_0_L1D_writeback_miss 153915
Core_0_L1D_writeback_MPKI 1.53915
Core_0_L1D_writeback_miss_rate 0.203465
Core_0_L1D_prefetch_requested 74743629
Core_0_L1D_prefetch_issued 23630044
Core_0_L1D_prefetch_useful 1075256
Core_0_L1D_prefetch_useless 272841
Core_0_L1D_prefetch_late 14315
Core_0_L1D_prefetch_fill 1333876
Core_0_L1D_prefetch_too_early 241
Core_0_L1D_prefetch_too_early_among_fill 0.000180676
Core_0_L1D_prefetch_too_early_among_useless 0.000883298
Core_0_L1D_prefetch_pollution_evict 32402
Core_0_L1D_prefetch_pollution_demand 32364
Core_0_L1D_prefetch_pollution_among_prefetch_fill 0.0242916
Core_0_L1D_prefetch_accuracy 0.0455038
Core_0_L1D_prefetch_coverage 0.287052

Core_0_L2C_total_access 9389354
Core_0_L2C_total_hit 5008007
Core_0_L2C_total_miss 4381347
Core_0_L2C_total_MPKI 43.8135
Core_0_L2C_total_miss_rate 0.466629
Core_0_L2C_demand_access 2208723
Core_0_L2C_demand_hit 328122
Core_0_L2C_demand_miss 1880601
Core_0_L2C_demand_MPKI 18.806
Core_0_L2C_demand_miss_rate 0.851443
Core_0_L2C_load_access 2088404
Core_0_L2C_load_hit 320829
Core_0_L2C_load_miss 1767575
Core_0_L2C_load_MPKI 17.6757
Core_0_L2C_load_miss_rate 0.846376
Core_0_L2C_rfo_access 120319
Core_0_L2C_rfo_hit 7293
Core_0_L2C_rfo_miss 113026
Core_0_L2C_rfo_MPKI 1.13026
Core_0_L2C_rfo_miss_rate 0.939386
Core_0_L2C_prefetch_access 6759874
Core_0_L2C_prefetch_hit 4259153
Core_0_L2C_prefetch_miss 2500721
Core_0_L2C_prefetch_MPKI 25.0072
Core_0_L2C_prefetch_miss_rate 0.369936
Core_0_L2C_writeback_access 420757
Core_0_L2C_writeback_hit 420732
Core_0_L2C_writeback_miss 25
Core_0_L2C_writeback_MPKI 0.00025
Core_0_L2C_writeback_miss_rate 5.94167e-05
Core_0_L2C_prefetch_requested 1785252
Core_0_L2C_prefetch_issued 1785210
Core_0_L2C_prefetch_useful 406320
Core_0_L2C_prefetch_useless 162325
Core_0_L2C_prefetch_late 5084
Core_0_L2C_prefetch_fill 1634297
Core_0_L2C_prefetch_too_early 11367
Core_0_L2C_prefetch_too_early_among_fill 0.00695528
Core_0_L2C_prefetch_too_early_among_useless 0.0700262
Core_0_L2C_prefetch_pollution_evict 72098
Core_0_L2C_prefetch_pollution_demand 71238
Core_0_L2C_prefetch_pollution_among_prefetch_fill 0.0441156
Core_0_L2C_prefetch_accuracy 0.227603
Core_0_L2C_prefetch_coverage 0.177671

Core_0_LLC_total_access 3946634
Core_0_LLC_total_hit 458103
Core_0_LLC_total_miss 3488531
Core_0_LLC_total_MPKI 34.8853
Core_0_LLC_total_miss_rate 0.883926
Core_0_LLC_demand_access 1872217
Core_0_LLC_demand_hit 321031
Core_0_LLC_demand_miss 1551186
Core_0_LLC_demand_MPKI 15.5119
Core_0_LLC_demand_miss_rate 0.828529
Core_0_LLC_load_access 1759191
Core_0_LLC_load_hit 306090
Core_0_LLC_load_miss 1453101
Core_0_LLC_load_MPKI 14.531
Core_0_LLC_load_miss_rate 0.826005
Core_0_LLC_rfo_access 113026
Core_0_LLC_rfo_hit 14941
Core_0_LLC_rfo_miss 98085
Core_0_LLC_rfo_MPKI 0.98085
Core_0_LLC_rfo_miss_rate 0.867809
Core_0_LLC_prefetch_access 1671705
Core_0_LLC_prefetch_hit 30981
Core_0_LLC_prefetch_miss 1640724
Core_0_LLC_prefetch_MPKI 16.4072
Core_0_LLC_prefetch_miss_rate 0.981467
Core_0_LLC_writeback_access 402712
Core_0_LLC_writeback_hit 106091
Core_0_LLC_writeback_miss 296621
Core_0_LLC_writeback_MPKI 2.96621
Core_0_LLC_writeback_miss_rate 0.736559
Core_0_LLC_prefetch_requested 0
Core_0_LLC_prefetch_issued 0
Core_0_LLC_prefetch_useful 0
Core_0_LLC_prefetch_useless 0
Core_0_LLC_prefetch_late 0
Core_0_LLC_prefetch_fill 1626167
Core_0_LLC_prefetch_too_early 0
Core_0_LLC_prefetch_too_early_among_fill 0
Core_0_LLC_prefetch_too_early_among_useless 0
Core_0_LLC_prefetch_pollution_evict 158924
Core_0_LLC_prefetch_pollution_demand 158924
Core_0_LLC_prefetch_pollution_among_prefetch_fill 0.0977292
Core_0_LLC_prefetch_accuracy 0
Core_0_LLC_prefetch_coverage 0

[DRAM Statistics]
Channel_0_RQ_row_buffer_hit 54360
Channel_0_RQ_row_buffer_miss 3129786
Channel_0_WQ_row_buffer_hit 100387
Channel_0_WQ_row_buffer_miss 254182
Channel_0_WQ_full 0
Channel_0_dbus_congested 8574180
DRAM_total_RQ_row_buffer_hit 54360
DRAM_total_RQ_row_buffer_miss 3129786
DRAM_total_WQ_row_buffer_hit 100387
DRAM_total_WQ_row_buffer_miss 254182
DRAM_total_WQ_full 0
DRAM_total_dbus_congested 8574180
DRAM_avg_congested_cycle 13.0289

====== DRAM_RQ_TRAFFIC ========
DRAM_RQ_READ_TRAFFIC_BREAKDOWN:
data_demand_read.count = 1551132
data_demand_read.share = 48.71%

inst_demand_read.count = 0
inst_demand_read.share = 0.00%

cache_inst_prefetch.count = 0
cache_inst_prefetch.share = 0.00%

cache_data_prefetch.count = 1626221
cache_data_prefetch.share = 51.07%

stlb_data_demand.count = 3470
stlb_data_demand.share = 0.11%

stlb_inst_demand.count = 0
stlb_inst_demand.share = 0.00%

stlb_l1i_pref.count = 0
stlb_l1i_pref.share = 0.00%

stlb_l1d_pref.count = 3343
stlb_l1d_pref.share = 0.10%

DRAM_RQ_READ_TRAFFIC_SUMMARY:
cache_demand.count = 1551132
cache_demand.share = 48.71%

cache_prefetch.count = 1626221
cache_prefetch.share = 51.07%

stlb_demand.count = 3470
stlb_demand.share = 0.11%

stlb_prefetch.count = 3343
stlb_prefetch.share = 0.10%

DRAM_RQ_READ_TRAFFIC_DEBUG:
total_classified_read.count = 3184166
unclassified_read.count = 0
total_read_with_other.count = 3184166

classified_plus_unclassified_check.count = 3184166
dram_rq_read_total_observed.count = 3184166
dram_rq_read_total_observed.per_1K_instructions = 31.8417

STLB_MISS_PTW_DRAM_TOUCH_BREAKDOWN:
stlb_miss_total.count = 600334

stlb_miss_touch_dram.count = 6775
stlb_miss_touch_dram.share = 1.13%

stlb_miss_no_dram_touch.count = 593559
stlb_miss_no_dram_touch.share = 98.87%

STLB_MISS_PTW_DRAM_TOUCH_DEBUG:
stlb_miss_touch_plus_no_touch.count = 600334
stlb_miss_total_check.count = 600334

======STLB miss causes ========
Core_0_STLB_miss_cause_breakdown
Core_0_STLB_cause_Demand_Data_miss 574219
Core_0_STLB_cause_Demand_Data_miss_rate 0.355219
Core_0_STLB_cause_Demand_Instruction_miss 0
Core_0_STLB_cause_Demand_Instruction_miss_rate 0
Core_0_STLB_cause_L1D_Prefetch_miss 27156
Core_0_STLB_cause_L1D_Prefetch_miss_rate 0.016799
Core_0_STLB_cause_L1D_Prefetch_Same_Page_miss 27
Core_0_STLB_cause_L1D_Prefetch_Same_Page_miss_rate 1.67025e-05
Core_0_STLB_cause_L1D_Prefetch_Cross_Page_miss 27129
Core_0_STLB_cause_L1D_Prefetch_Cross_Page_miss_rate 0.0167823
Core_0_STLB_cause_L1I_Prefetch_miss 0
Core_0_STLB_cause_L1I_Prefetch_miss_rate 0
Core_0_STLB_cause_Other_miss 0
Core_0_STLB_cause_Other_miss_rate 0
Core_0_STLB_Demand_miss 574219
Core_0_STLB_Demand_miss_rate 0.355219
Core_0_STLB_L1D_Prefetch_miss 27156
Core_0_STLB_L1D_Prefetch_miss_rate 0.016799
Core_0_STLB_Other_miss 0
Core_0_STLB_Other_miss_rate 0

========== vBerti-TLB Cross-page Flow Stats ==========

Core_0_vBerti_Requested 74743629
Core_0_vBerti_Cross_page_prefetch_in_Requested 8683174
Core_0_vBerti_Same_page_prefetch_in_Requested 66060455
Core_0_vBerti_Cross_page_prefetch_of_Requested 0.116173
Core_0_vBerti_Issued 23630044
Core_0_vBerti_InPQ_Same_page_prefetch 21700263
Core_0_vBerti_InPQ_Cross_page_prefetch 1929781
Core_0_vBerti_PQ_Drop_Rate 0.683852
Core_0_vBerti_InPQ_Cross_page_prefetch_of_Requested 0.0258187
Core_0_vBerti_Cross_page_PQ_Drop_rate 0.777756
Core_0_vBerti_Cross_page_prefetch_of_Issued 0.0816664
Core_0_CP_PF_PQFULL_drop 6753393
Core_0_CP_PF_PQFULL_TLB_rescue_enqueued 4696284
Core_0_CP_PF_PQFULL_TLB_rescue_issued 4696284
Core_0_CP_PF_PQFULL_TLB_rescue_translated 4696284

========= DTLB_vBerti Prefetch Stats =========
Core_0_DTLB_demand_access 23151016
Core_0_DTLB_demand_hit 21397748
Core_0_DTLB_demand_miss 1753268
Core_0_DTLB_demand_mshr_merge 165703
Core_0_DTLB_demand_fill 1587697
Core_0_DTLB_demand_miss_rate 0.0757318
Core_0_DTLB_demand_mpki 17.5327
Core_0_DTLB_vberti_prefetch_access 18343300
Core_0_DTLB_vberti_prefetch_hit 18203916
Core_0_DTLB_vberti_prefetch_miss 139384
Core_0_DTLB_vberti_prefetch_mshr_merge 110428
Core_0_DTLB_vberti_prefetch_fill 28824
Core_0_DTLB_vberti_prefetch_miss_rate 0.00759863
Core_0_DTLB_vberti_prefetch_mpki 1.39384

=== DTLB_vBerti Same/Cross-page Prefetch Stats ===
Core_0_DTLB_vberti_same_page_prefetch 14302512
Core_0_DTLB_vberti_same_page_prefetch_hit 14302240
Core_0_DTLB_vberti_same_page_prefetch_miss 272
Core_0_DTLB_vberti_same_page_prefetch_mshr_merge 124
Core_0_DTLB_vberti_same_page_prefetch_fill 142
Core_0_DTLB_vberti_same_page_prefetch_miss_rate 1.90176e-05
Core_0_DTLB_vberti_same_page_prefetch_mpki 0.00272
Core_0_DTLB_vberti_cross_page_prefetch 4040788
Core_0_DTLB_vberti_cross_page_prefetch_hit 3901676
Core_0_DTLB_vberti_cross_page_prefetch_miss 139112
Core_0_DTLB_vberti_cross_page_prefetch_mshr_merge 110304
Core_0_DTLB_vberti_cross_page_prefetch_fill 28682
Core_0_DTLB_vberti_cross_page_prefetch_miss_rate 0.0344269
Core_0_DTLB_vberti_cross_page_prefetch_mpki 1.39112
Core_0_DTLB_same_page_prefetch_miss_rate 1.90176e-05
Core_0_DTLB_same_page_prefetch_mpki 0.00272
Core_0_DTLB_cross_page_prefetch_miss_rate 0.0344269
Core_0_DTLB_cross_page_prefetch_mpki 1.39112
Core_0_DTLB_cross_page_prefetch_issued 4040788
Core_0_DTLB_cross_page_prefetch_lookups 4040788
Core_0_DTLB_cross_page_prefetch_useful 26244
Core_0_DTLB_cross_page_prefetch_useless 2564
Core_0_DTLB_cross_page_prefetch_late 126
Core_0_DTLB_cross_page_prefetch_too_early 1371
Core_0_DTLB_cross_page_prefetch_too_early_among_fill 0.0478
Core_0_DTLB_cross_page_prefetch_too_early_among_useless 0.534711
Core_0_DTLB_cross_page_prefetch_pollution_evict 19515
Core_0_DTLB_cross_page_prefetch_pollution_demand 19426
Core_0_DTLB_cross_page_prefetch_pollution_among_prefetch_fill 0.680392
Core_0_DTLB_cross_page_prefetch_accuracy 0.00649477
Core_0_DTLB_cross_page_prefetch_coverage 0.0147479

========= STLB_vBerti Prefetch Stats =========
Core_0_STLB_demand_access 1587565
Core_0_STLB_demand_hit 1013346
Core_0_STLB_demand_miss 574219
Core_0_STLB_demand_mshr_merge 0
Core_0_STLB_demand_fill 574219
Core_0_STLB_demand_miss_rate 0.361698
Core_0_STLB_demand_mpki 5.74219
Core_0_STLB_vberti_prefetch_access 28956
Core_0_STLB_vberti_prefetch_hit 1800
Core_0_STLB_vberti_prefetch_miss 27156
Core_0_STLB_vberti_prefetch_mshr_merge 0
Core_0_STLB_vberti_prefetch_fill 27
Core_0_STLB_vberti_prefetch_miss_rate 0.937837
Core_0_STLB_vberti_prefetch_mpki 0.27156

=== STLB_vBerti Same/Cross-page Prefetch Stats ===
Core_0_STLB_vberti_same_page_prefetch 148
Core_0_STLB_vberti_same_page_prefetch_hit 121
Core_0_STLB_vberti_same_page_prefetch_miss 27
Core_0_STLB_vberti_same_page_prefetch_mshr_merge 0
Core_0_STLB_vberti_same_page_prefetch_fill 27
Core_0_STLB_vberti_same_page_prefetch_miss_rate 0.182432
Core_0_STLB_vberti_same_page_prefetch_mpki 0.00027
Core_0_STLB_vberti_cross_page_prefetch 28808
Core_0_STLB_vberti_cross_page_prefetch_hit 1679
Core_0_STLB_vberti_cross_page_prefetch_miss 27129
Core_0_STLB_vberti_cross_page_prefetch_mshr_merge 0
Core_0_STLB_vberti_cross_page_prefetch_fill 0
Core_0_STLB_vberti_cross_page_prefetch_miss_rate 0.941718
Core_0_STLB_vberti_cross_page_prefetch_mpki 0.27129
Core_0_STLB_same_page_prefetch_miss_rate 0.182432
Core_0_STLB_same_page_prefetch_mpki 0.00027
Core_0_STLB_cross_page_prefetch_miss_rate 0.941718
Core_0_STLB_cross_page_prefetch_mpki 0.27129
Core_0_STLB_cross_page_prefetch_issued 28808
Core_0_STLB_cross_page_prefetch_lookups 28808
Core_0_STLB_cross_page_prefetch_useful 1041
Core_0_STLB_cross_page_prefetch_useless 25518
Core_0_STLB_cross_page_prefetch_late 1041
Core_0_STLB_cross_page_prefetch_too_early 0
Core_0_STLB_cross_page_prefetch_too_early_among_fill 0
Core_0_STLB_cross_page_prefetch_too_early_among_useless 0
Core_0_STLB_cross_page_prefetch_pollution_evict 0
Core_0_STLB_cross_page_prefetch_pollution_demand 0
Core_0_STLB_cross_page_prefetch_pollution_among_prefetch_fill 0
Core_0_STLB_cross_page_prefetch_accuracy 0.0361358
Core_0_STLB_cross_page_prefetch_coverage 0.00180962

========= STLB Cross-page Prefetch Buffer Stats =========
Core_0_STLB_raw_demand_miss 574219
Core_0_CP_PB_insert 27129
Core_0_CP_PB_demand_hit 1041
Core_0_STLB_PB_demand_miss 573178
Core_0_CP_PB_coverage 0.0018129
Core_0_STLB_raw_demand_mpki 5.74219
Core_0_STLB_PB_demand_mpki 5.73178
Core_0_CP_PB_demand_hit_mpki 0.01041

Core_0_TLB_demand_miss_rate 0.0248032
Core_0_TLB_demand_mpki 5.74219
Core_0_TLB_same_page_prefetch_miss_rate 1.88778e-06
Core_0_TLB_same_page_prefetch_mpki 0.00027
Core_0_TLB_cross_page_prefetch_miss_rate 0.00671379
Core_0_TLB_cross_page_prefetch_mpki 0.27129
Core_0_TLB_cross_page_prefetch_issued 4040788
Core_0_TLB_cross_page_prefetch_lookups 4040788
Core_0_TLB_cross_page_prefetch_useful 26183
Core_0_TLB_cross_page_prefetch_useless 2520
Core_0_TLB_cross_page_prefetch_late 126
Core_0_TLB_cross_page_prefetch_too_early 1335
Core_0_TLB_cross_page_prefetch_too_early_among_fill 0.0465449
Core_0_TLB_cross_page_prefetch_too_early_among_useless 0.529762
Core_0_TLB_cross_page_prefetch_accuracy 0.00647968
Core_0_TLB_cross_page_prefetch_coverage 0.0436091
BERTI TO_L1: 47064630 TO_L2: 39855213 TO_L2_BC_MSHR: 176176
BERTI AVG_LAT: 111.683 NUM_TRACK_LATENCY: 5472452 NUM_CANT_TRACK_LATENCY: 0
BERTI CROSS_PAGE 9832926 NO_CROSS_PAGE: 77086917
BERTI FOUND_BERTI: 25572789 NO_FOUND_BERTI: 6637734
BERTI AVERAGE_ISSUED: 2.99774
