[VMEM] WARNING: physical memory size is smaller than virtual memory size.

*** ChampSim Multicore Out-of-Order Simulator ***
Warmup Instructions: 50000000
Simulation Instructions: 100000000
Number of CPUs: 1
Page size: 4096
Core 0: /data0/tzh/champsim_traces/Ligra/ligra_PageRank.com-lj.ungraph.gcc_6.3.0_O3.drop_60750M.length_250M.champsimtrace.xz
VBerti Prefetcher
BERTI HASH ENTANGLING
BERTI IP MASK ffff
Off-chip DRAM Size: 16 GiB Channels: 1 Width: 64-bit Data Rate: 3205 MT/s
Warmup halting CPU 0 at instruction 50000004 cycle 13765941 for remainder of phase
Warmup finished CPU 0 instructions: 50000004 cycles: 13765941 cumulative IPC: 3.632 (Simulation time: 00 hr 04 min 05 sec)
Warmup complete CPU 0 instructions: 50000004 cycles: 13765941 cumulative IPC: 3.632 (Simulation time: 00 hr 04 min 05 sec)
Simulation finished CPU 0 instructions: 100000002 cycles: 117354597 cumulative IPC: 0.8521 (Simulation time: 00 hr 23 min 17 sec)
Simulation complete CPU 0 instructions: 100000002 cycles: 117354597 cumulative IPC: 0.8521 (Simulation time: 00 hr 23 min 17 sec)

ChampSim completed all CPUs

=== Simulation ===
CPU 0 runs /data0/tzh/champsim_traces/Ligra/ligra_PageRank.com-lj.ungraph.gcc_6.3.0_O3.drop_60750M.length_250M.champsimtrace.xz

Region of Interest Statistics

CPU 0 cumulative IPC: 0.8521 instructions: 100000002 cycles: 117354597
CPU 0 Branch Prediction Accuracy: 99.36% MPKI: 1.192 Average ROB Occupancy at Mispredict: 109.1
Branch type MPKI
BRANCH_DIRECT_JUMP: 0.00021
BRANCH_INDIRECT: 0
BRANCH_CONDITIONAL: 1.191
BRANCH_DIRECT_CALL: 6e-05
BRANCH_INDIRECT_CALL: 0
BRANCH_RETURN: 9e-05

cpu0->cpu0_STLB TOTAL        ACCESS:     490864 HIT:     125601 MISS:     365263 MSHR_MERGE:          0
cpu0->cpu0_STLB LOAD         ACCESS:     490864 HIT:     125601 MISS:     365263 MSHR_MERGE:          0
cpu0->cpu0_STLB RFO          ACCESS:          0 HIT:          0 MISS:          0 MSHR_MERGE:          0
cpu0->cpu0_STLB PREFETCH     ACCESS:          0 HIT:          0 MISS:          0 MSHR_MERGE:          0
cpu0->cpu0_STLB WRITE        ACCESS:          0 HIT:          0 MISS:          0 MSHR_MERGE:          0
cpu0->cpu0_STLB TRANSLATION  ACCESS:          0 HIT:          0 MISS:          0 MSHR_MERGE:          0
cpu0->cpu0_STLB PREFETCH REQUESTED:          0 ISSUED:          0 USEFUL:          0 USELESS:          0 LATE:          0 TOO_EARLY:          0
cpu0->cpu0_STLB AVERAGE MISS LATENCY: 45.3 cycles
cpu0->cpu0_L2C TOTAL        ACCESS:    9700370 HIT:    2432755 MISS:    7267615 MSHR_MERGE:    3762031
cpu0->cpu0_L2C LOAD         ACCESS:     940171 HIT:     165492 MISS:     774679 MSHR_MERGE:     130181
cpu0->cpu0_L2C RFO          ACCESS:      30524 HIT:       4648 MISS:      25876 MSHR_MERGE:      17280
cpu0->cpu0_L2C PREFETCH     ACCESS:    7232693 HIT:     876352 MISS:    6356341 MSHR_MERGE:    3614570
cpu0->cpu0_L2C WRITE        ACCESS:    1227901 HIT:    1227896 MISS:          5 MSHR_MERGE:          0
cpu0->cpu0_L2C TRANSLATION  ACCESS:     269081 HIT:     158367 MISS:     110714 MSHR_MERGE:          0
cpu0->cpu0_L2C PREFETCH REQUESTED:    3889522 ISSUED:    3813549 USEFUL:     709338 USELESS:     341169 LATE:      92946 TOO_EARLY:        548
cpu0->cpu0_L2C AVERAGE MISS LATENCY: 268.6 cycles
cpu0->cpu0_L1I TOTAL        ACCESS:   14156410 HIT:   14156315 MISS:         95 MSHR_MERGE:         10
cpu0->cpu0_L1I LOAD         ACCESS:   14156410 HIT:   14156315 MISS:         95 MSHR_MERGE:         10
cpu0->cpu0_L1I RFO          ACCESS:          0 HIT:          0 MISS:          0 MSHR_MERGE:          0
cpu0->cpu0_L1I PREFETCH     ACCESS:          0 HIT:          0 MISS:          0 MSHR_MERGE:          0
cpu0->cpu0_L1I WRITE        ACCESS:          0 HIT:          0 MISS:          0 MSHR_MERGE:          0
cpu0->cpu0_L1I TRANSLATION  ACCESS:          0 HIT:          0 MISS:          0 MSHR_MERGE:          0
cpu0->cpu0_L1I PREFETCH REQUESTED:          0 ISSUED:          0 USEFUL:          0 USELESS:          0 LATE:          0 TOO_EARLY:          0
cpu0->cpu0_L1I AVERAGE MISS LATENCY: 215.9 cycles
cpu0->cpu0_L1D TOTAL        ACCESS:   55349261 HIT:   47568113 MISS:    7781148 MSHR_MERGE:    2977806
cpu0->cpu0_L1D LOAD         ACCESS:   14718201 HIT:   12137876 MISS:    2580325 MSHR_MERGE:    1640239
cpu0->cpu0_L1D RFO          ACCESS:          0 HIT:          0 MISS:          0 MSHR_MERGE:          0
cpu0->cpu0_L1D PREFETCH     ACCESS:   31836067 HIT:   28140124 MISS:    3695943 MSHR_MERGE:     132293
cpu0->cpu0_L1D WRITE        ACCESS:    8001473 HIT:    6767602 MISS:    1233871 MSHR_MERGE:    1203346
cpu0->cpu0_L1D TRANSLATION  ACCESS:     793520 HIT:     522511 MISS:     271009 MSHR_MERGE:       1928
cpu0->cpu0_L1D PREFETCH REQUESTED:  132727617 ISSUED:   31836067 USEFUL:    1998020 USELESS:       4852 LATE:     447261 TOO_EARLY:        457
cpu0->cpu0_L1D AVERAGE MISS LATENCY: 236.7 cycles
cpu0->cpu0_ITLB TOTAL        ACCESS:   12230856 HIT:   12230841 MISS:         15 MSHR_MERGE:          7
cpu0->cpu0_ITLB LOAD         ACCESS:   12230856 HIT:   12230841 MISS:         15 MSHR_MERGE:          7
cpu0->cpu0_ITLB RFO          ACCESS:          0 HIT:          0 MISS:          0 MSHR_MERGE:          0
cpu0->cpu0_ITLB PREFETCH     ACCESS:          0 HIT:          0 MISS:          0 MSHR_MERGE:          0
cpu0->cpu0_ITLB WRITE        ACCESS:          0 HIT:          0 MISS:          0 MSHR_MERGE:          0
cpu0->cpu0_ITLB TRANSLATION  ACCESS:          0 HIT:          0 MISS:          0 MSHR_MERGE:          0
cpu0->cpu0_ITLB PREFETCH REQUESTED:          0 ISSUED:          0 USEFUL:          0 USELESS:          0 LATE:          0 TOO_EARLY:          0
cpu0->cpu0_ITLB AVERAGE MISS LATENCY: 601.8 cycles
cpu0->cpu0_DTLB TOTAL        ACCESS:   37654275 HIT:   36876514 MISS:     777761 MSHR_MERGE:     286905
cpu0->cpu0_DTLB LOAD         ACCESS:   37654275 HIT:   36876514 MISS:     777761 MSHR_MERGE:     286905
cpu0->cpu0_DTLB RFO          ACCESS:          0 HIT:          0 MISS:          0 MSHR_MERGE:          0
cpu0->cpu0_DTLB PREFETCH     ACCESS:          0 HIT:          0 MISS:          0 MSHR_MERGE:          0
cpu0->cpu0_DTLB WRITE        ACCESS:          0 HIT:          0 MISS:          0 MSHR_MERGE:          0
cpu0->cpu0_DTLB TRANSLATION  ACCESS:          0 HIT:          0 MISS:          0 MSHR_MERGE:          0
cpu0->cpu0_DTLB PREFETCH REQUESTED:          0 ISSUED:          0 USEFUL:          0 USELESS:          0 LATE:          0 TOO_EARLY:          0
cpu0->cpu0_DTLB AVERAGE MISS LATENCY: 39.2 cycles
cpu0->LLC TOTAL        ACCESS:    4726371 HIT:    1180183 MISS:    3546188 MSHR_MERGE:     339990
cpu0->LLC LOAD         ACCESS:     644498 HIT:      70796 MISS:     573702 MSHR_MERGE:      11202
cpu0->LLC RFO          ACCESS:       8596 HIT:         32 MISS:       8564 MSHR_MERGE:        345
cpu0->LLC PREFETCH     ACCESS:    2741530 HIT:      79863 MISS:    2661667 MSHR_MERGE:     328443
cpu0->LLC WRITE        ACCESS:    1221033 HIT:     927162 MISS:     293871 MSHR_MERGE:          0
cpu0->LLC TRANSLATION  ACCESS:     110714 HIT:     102330 MISS:       8384 MSHR_MERGE:          0
cpu0->LLC PREFETCH REQUESTED:          0 ISSUED:          0 USEFUL:          0 USELESS:          0 LATE:          0 TOO_EARLY:          0
cpu0->LLC AVERAGE MISS LATENCY: 201.8 cycles

DRAM Statistics

Channel 0 RQ ROW_BUFFER_HIT:     311085
  ROW_BUFFER_MISS:    2601230
  AVG DBUS CONGESTED CYCLE: 6.164
Channel 0 WQ ROW_BUFFER_HIT:     136756
  ROW_BUFFER_MISS:    1061750
  FULL:          0
Channel 0 REFRESHES ISSUED:       9779

[ROI Statistics]
[System Configuration]
num_cpus 1
cpu_freq 4000
fetch_width 6
decode_width 6
dispatch_width 6
execute_width 6
lq_width 2
sq_width 2
retire_width 6
scheduler_size 128
branch_mispredict_penalty 15
rob_size 352
lq_size 128
sq_size 72
ifetch_buffer_size 64
decode_buffer_size 32
dispatch_buffer_size 32
register_file_size 288
decode_latency 1
dispatch_latency 1
schedule_latency 1
execute_latency 1
page_size 4096
block_size 64
core_0_itlb_set 16
core_0_itlb_way 4
core_0_itlb_rq_size 16
core_0_itlb_wq_size 16
core_0_itlb_pq_size 0
core_0_itlb_mshr_size 8
core_0_itlb_hit_latency 1
core_0_itlb_fill_latency 1
core_0_itlb_max_tag_check 2
core_0_itlb_max_fill 2
core_0_dtlb_set 16
core_0_dtlb_way 4
core_0_dtlb_rq_size 16
core_0_dtlb_wq_size 16
core_0_dtlb_pq_size 0
core_0_dtlb_mshr_size 8
core_0_dtlb_hit_latency 1
core_0_dtlb_fill_latency 1
core_0_dtlb_max_tag_check 2
core_0_dtlb_max_fill 2
core_0_stlb_set 128
core_0_stlb_way 12
core_0_stlb_rq_size 32
core_0_stlb_wq_size 32
core_0_stlb_pq_size 0
core_0_stlb_mshr_size 16
core_0_stlb_hit_latency 4
core_0_stlb_fill_latency 4
core_0_stlb_max_tag_check 1
core_0_stlb_max_fill 1
core_0_l1i_set 64
core_0_l1i_way 8
core_0_l1i_rq_size 64
core_0_l1i_wq_size 64
core_0_l1i_pq_size 32
core_0_l1i_mshr_size 8
core_0_l1i_hit_latency 2
core_0_l1i_fill_latency 2
core_0_l1i_max_tag_check 2
core_0_l1i_max_fill 2
core_0_l1d_set 64
core_0_l1d_way 12
core_0_l1d_rq_size 64
core_0_l1d_wq_size 64
core_0_l1d_pq_size 8
core_0_l1d_mshr_size 16
core_0_l1d_hit_latency 2
core_0_l1d_fill_latency 3
core_0_l1d_max_tag_check 2
core_0_l1d_max_fill 2
core_0_l2c_set 1024
core_0_l2c_way 8
core_0_l2c_rq_size 32
core_0_l2c_wq_size 32
core_0_l2c_pq_size 16
core_0_l2c_mshr_size 32
core_0_l2c_hit_latency 5
core_0_l2c_fill_latency 5
core_0_l2c_max_tag_check 1
core_0_l2c_max_fill 1
llc_set 2048
llc_way 16
llc_rq_size 32
llc_wq_size 32
llc_pq_size 32
llc_mshr_size 64
llc_hit_latency 10
llc_fill_latency 10
llc_max_tag_check 1
llc_max_fill 1
dram_channels 1
dram_ranks 1
dram_bankgroups 8
dram_banks 4
dram_rows 65536
dram_columns 1024
dram_channel_width 8
dram_rq_size 64
dram_wq_size 64
dram_size 17179869184
core_0_itlb_prefetcher no
core_0_dtlb_prefetcher no
core_0_stlb_prefetcher no
core_0_l1i_prefetcher next_line
core_0_l1d_prefetcher vberti
core_0_l2c_prefetcher ip_stride
llc_prefetcher no
llc_replacement drrip

Core_0_instructions 100000002
Core_0_cycles 117354597
Core_0_IPC 0.852118
Core_0_branch_prediction_accuracy 99.361
Core_0_branch_MPKI 1.19162
Core_0_average_ROB_occupancy_at_mispredict 109.138

Core_0_ITLB_total_access 12230856
Core_0_ITLB_total_hit 12230841
Core_0_ITLB_total_miss 15
Core_0_ITLB_total_MPKI 0.00015
Core_0_ITLB_total_miss_rate 1.22641e-06
Core_0_ITLB_demand_access 12230856
Core_0_ITLB_demand_hit 12230841
Core_0_ITLB_demand_miss 15
Core_0_ITLB_demand_MPKI 0.00015
Core_0_ITLB_demand_miss_rate 1.22641e-06
Core_0_ITLB_load_access 12230856
Core_0_ITLB_load_hit 12230841
Core_0_ITLB_load_miss 15
Core_0_ITLB_load_MPKI 0.00015
Core_0_ITLB_load_miss_rate 1.22641e-06
Core_0_ITLB_rfo_access 0
Core_0_ITLB_rfo_hit 0
Core_0_ITLB_rfo_miss 0
Core_0_ITLB_rfo_MPKI 0
Core_0_ITLB_rfo_miss_rate 0
Core_0_ITLB_prefetch_access 0
Core_0_ITLB_prefetch_hit 0
Core_0_ITLB_prefetch_miss 0
Core_0_ITLB_prefetch_MPKI 0
Core_0_ITLB_prefetch_miss_rate 0
Core_0_ITLB_writeback_access 0
Core_0_ITLB_writeback_hit 0
Core_0_ITLB_writeback_miss 0
Core_0_ITLB_writeback_MPKI 0
Core_0_ITLB_writeback_miss_rate 0
Core_0_ITLB_prefetch_requested 0
Core_0_ITLB_prefetch_issued 0
Core_0_ITLB_prefetch_useful 0
Core_0_ITLB_prefetch_useless 0
Core_0_ITLB_prefetch_late 0
Core_0_ITLB_prefetch_fill 0
Core_0_ITLB_prefetch_too_early 0
Core_0_ITLB_prefetch_too_early_among_fill 0
Core_0_ITLB_prefetch_too_early_among_useless 0
Core_0_ITLB_prefetch_pollution_evict 0
Core_0_ITLB_prefetch_pollution_demand 0
Core_0_ITLB_prefetch_pollution_among_prefetch_fill 0
Core_0_ITLB_prefetch_accuracy 0
Core_0_ITLB_prefetch_coverage 0

Core_0_DTLB_total_access 37654275
Core_0_DTLB_total_hit 36876514
Core_0_DTLB_total_miss 777761
Core_0_DTLB_total_MPKI 7.77761
Core_0_DTLB_total_miss_rate 0.0206553
Core_0_DTLB_demand_access 37654275
Core_0_DTLB_demand_hit 36876514
Core_0_DTLB_demand_miss 777761
Core_0_DTLB_demand_MPKI 7.77761
Core_0_DTLB_demand_miss_rate 0.0206553
Core_0_DTLB_load_access 37654275
Core_0_DTLB_load_hit 36876514
Core_0_DTLB_load_miss 777761
Core_0_DTLB_load_MPKI 7.77761
Core_0_DTLB_load_miss_rate 0.0206553
Core_0_DTLB_rfo_access 0
Core_0_DTLB_rfo_hit 0
Core_0_DTLB_rfo_miss 0
Core_0_DTLB_rfo_MPKI 0
Core_0_DTLB_rfo_miss_rate 0
Core_0_DTLB_prefetch_access 0
Core_0_DTLB_prefetch_hit 0
Core_0_DTLB_prefetch_miss 0
Core_0_DTLB_prefetch_MPKI 0
Core_0_DTLB_prefetch_miss_rate 0
Core_0_DTLB_writeback_access 0
Core_0_DTLB_writeback_hit 0
Core_0_DTLB_writeback_miss 0
Core_0_DTLB_writeback_MPKI 0
Core_0_DTLB_writeback_miss_rate 0
Core_0_DTLB_prefetch_requested 0
Core_0_DTLB_prefetch_issued 0
Core_0_DTLB_prefetch_useful 0
Core_0_DTLB_prefetch_useless 0
Core_0_DTLB_prefetch_late 0
Core_0_DTLB_prefetch_fill 0
Core_0_DTLB_prefetch_too_early 0
Core_0_DTLB_prefetch_too_early_among_fill 0
Core_0_DTLB_prefetch_too_early_among_useless 0
Core_0_DTLB_prefetch_pollution_evict 0
Core_0_DTLB_prefetch_pollution_demand 0
Core_0_DTLB_prefetch_pollution_among_prefetch_fill 0
Core_0_DTLB_prefetch_accuracy 0
Core_0_DTLB_prefetch_coverage 0

Core_0_STLB_total_access 490864
Core_0_STLB_total_hit 125601
Core_0_STLB_total_miss 365263
Core_0_STLB_total_MPKI 3.65263
Core_0_STLB_total_miss_rate 0.744123
Core_0_STLB_demand_access 490864
Core_0_STLB_demand_hit 125601
Core_0_STLB_demand_miss 365263
Core_0_STLB_demand_MPKI 3.65263
Core_0_STLB_demand_miss_rate 0.744123
Core_0_STLB_load_access 490864
Core_0_STLB_load_hit 125601
Core_0_STLB_load_miss 365263
Core_0_STLB_load_MPKI 3.65263
Core_0_STLB_load_miss_rate 0.744123
Core_0_STLB_rfo_access 0
Core_0_STLB_rfo_hit 0
Core_0_STLB_rfo_miss 0
Core_0_STLB_rfo_MPKI 0
Core_0_STLB_rfo_miss_rate 0
Core_0_STLB_prefetch_access 0
Core_0_STLB_prefetch_hit 0
Core_0_STLB_prefetch_miss 0
Core_0_STLB_prefetch_MPKI 0
Core_0_STLB_prefetch_miss_rate 0
Core_0_STLB_writeback_access 0
Core_0_STLB_writeback_hit 0
Core_0_STLB_writeback_miss 0
Core_0_STLB_writeback_MPKI 0
Core_0_STLB_writeback_miss_rate 0
Core_0_STLB_prefetch_requested 0
Core_0_STLB_prefetch_issued 0
Core_0_STLB_prefetch_useful 0
Core_0_STLB_prefetch_useless 0
Core_0_STLB_prefetch_late 0
Core_0_STLB_prefetch_fill 0
Core_0_STLB_prefetch_too_early 0
Core_0_STLB_prefetch_too_early_among_fill 0
Core_0_STLB_prefetch_too_early_among_useless 0
Core_0_STLB_prefetch_pollution_evict 0
Core_0_STLB_prefetch_pollution_demand 0
Core_0_STLB_prefetch_pollution_among_prefetch_fill 0
Core_0_STLB_prefetch_accuracy 0
Core_0_STLB_prefetch_coverage 0

Core_0_L1I_total_access 14156410
Core_0_L1I_total_hit 14156315
Core_0_L1I_total_miss 95
Core_0_L1I_total_MPKI 0.00095
Core_0_L1I_total_miss_rate 6.71074e-06
Core_0_L1I_demand_access 14156410
Core_0_L1I_demand_hit 14156315
Core_0_L1I_demand_miss 95
Core_0_L1I_demand_MPKI 0.00095
Core_0_L1I_demand_miss_rate 6.71074e-06
Core_0_L1I_load_access 14156410
Core_0_L1I_load_hit 14156315
Core_0_L1I_load_miss 95
Core_0_L1I_load_MPKI 0.00095
Core_0_L1I_load_miss_rate 6.71074e-06
Core_0_L1I_rfo_access 0
Core_0_L1I_rfo_hit 0
Core_0_L1I_rfo_miss 0
Core_0_L1I_rfo_MPKI 0
Core_0_L1I_rfo_miss_rate 0
Core_0_L1I_prefetch_access 0
Core_0_L1I_prefetch_hit 0
Core_0_L1I_prefetch_miss 0
Core_0_L1I_prefetch_MPKI 0
Core_0_L1I_prefetch_miss_rate 0
Core_0_L1I_writeback_access 0
Core_0_L1I_writeback_hit 0
Core_0_L1I_writeback_miss 0
Core_0_L1I_writeback_MPKI 0
Core_0_L1I_writeback_miss_rate 0
Core_0_L1I_prefetch_requested 0
Core_0_L1I_prefetch_issued 0
Core_0_L1I_prefetch_useful 0
Core_0_L1I_prefetch_useless 0
Core_0_L1I_prefetch_late 0
Core_0_L1I_prefetch_fill 0
Core_0_L1I_prefetch_too_early 0
Core_0_L1I_prefetch_too_early_among_fill 0
Core_0_L1I_prefetch_too_early_among_useless 0
Core_0_L1I_prefetch_pollution_evict 0
Core_0_L1I_prefetch_pollution_demand 0
Core_0_L1I_prefetch_pollution_among_prefetch_fill 0
Core_0_L1I_prefetch_accuracy 0
Core_0_L1I_prefetch_coverage 0

Core_0_L1D_total_access 54555741
Core_0_L1D_total_hit 47045602
Core_0_L1D_total_miss 7510139
Core_0_L1D_total_MPKI 75.1014
Core_0_L1D_total_miss_rate 0.13766
Core_0_L1D_demand_access 14718201
Core_0_L1D_demand_hit 12137876
Core_0_L1D_demand_miss 2580325
Core_0_L1D_demand_MPKI 25.8032
Core_0_L1D_demand_miss_rate 0.175315
Core_0_L1D_load_access 14718201
Core_0_L1D_load_hit 12137876
Core_0_L1D_load_miss 2580325
Core_0_L1D_load_MPKI 25.8032
Core_0_L1D_load_miss_rate 0.175315
Core_0_L1D_rfo_access 0
Core_0_L1D_rfo_hit 0
Core_0_L1D_rfo_miss 0
Core_0_L1D_rfo_MPKI 0
Core_0_L1D_rfo_miss_rate 0
Core_0_L1D_prefetch_access 31836067
Core_0_L1D_prefetch_hit 28140124
Core_0_L1D_prefetch_miss 3695943
Core_0_L1D_prefetch_MPKI 36.9594
Core_0_L1D_prefetch_miss_rate 0.116093
Core_0_L1D_writeback_access 8001473
Core_0_L1D_writeback_hit 6767602
Core_0_L1D_writeback_miss 1233871
Core_0_L1D_writeback_MPKI 12.3387
Core_0_L1D_writeback_miss_rate 0.154205
Core_0_L1D_prefetch_requested 132727617
Core_0_L1D_prefetch_issued 31836067
Core_0_L1D_prefetch_useful 1998020
Core_0_L1D_prefetch_useless 4852
Core_0_L1D_prefetch_late 447261
Core_0_L1D_prefetch_fill 1555605
Core_0_L1D_prefetch_too_early 457
Core_0_L1D_prefetch_too_early_among_fill 0.000293776
Core_0_L1D_prefetch_too_early_among_useless 0.094188
Core_0_L1D_prefetch_pollution_evict 2486
Core_0_L1D_prefetch_pollution_demand 2482
Core_0_L1D_prefetch_pollution_among_prefetch_fill 0.00159809
Core_0_L1D_prefetch_accuracy 0.0627596
Core_0_L1D_prefetch_coverage 0.436407

Core_0_L2C_total_access 9431289
Core_0_L2C_total_hit 2274388
Core_0_L2C_total_miss 7156901
Core_0_L2C_total_MPKI 71.569
Core_0_L2C_total_miss_rate 0.758847
Core_0_L2C_demand_access 970695
Core_0_L2C_demand_hit 170140
Core_0_L2C_demand_miss 800555
Core_0_L2C_demand_MPKI 8.00555
Core_0_L2C_demand_miss_rate 0.824724
Core_0_L2C_load_access 940171
Core_0_L2C_load_hit 165492
Core_0_L2C_load_miss 774679
Core_0_L2C_load_MPKI 7.74679
Core_0_L2C_load_miss_rate 0.823977
Core_0_L2C_rfo_access 30524
Core_0_L2C_rfo_hit 4648
Core_0_L2C_rfo_miss 25876
Core_0_L2C_rfo_MPKI 0.25876
Core_0_L2C_rfo_miss_rate 0.847726
Core_0_L2C_prefetch_access 7232693
Core_0_L2C_prefetch_hit 876352
Core_0_L2C_prefetch_miss 6356341
Core_0_L2C_prefetch_MPKI 63.5634
Core_0_L2C_prefetch_miss_rate 0.878835
Core_0_L2C_writeback_access 1227901
Core_0_L2C_writeback_hit 1227896
Core_0_L2C_writeback_miss 5
Core_0_L2C_writeback_MPKI 5e-05
Core_0_L2C_writeback_miss_rate 4.07199e-06
Core_0_L2C_prefetch_requested 3889522
Core_0_L2C_prefetch_issued 3813549
Core_0_L2C_prefetch_useful 709338
Core_0_L2C_prefetch_useless 341169
Core_0_L2C_prefetch_late 92946
Core_0_L2C_prefetch_fill 2157469
Core_0_L2C_prefetch_too_early 548
Core_0_L2C_prefetch_too_early_among_fill 0.000254001
Core_0_L2C_prefetch_too_early_among_useless 0.00160624
Core_0_L2C_prefetch_pollution_evict 10708
Core_0_L2C_prefetch_pollution_demand 10685
Core_0_L2C_prefetch_pollution_among_prefetch_fill 0.00496322
Core_0_L2C_prefetch_accuracy 0.186005
Core_0_L2C_prefetch_coverage 0.469794

Core_0_LLC_total_access 4615657
Core_0_LLC_total_hit 1077853
Core_0_LLC_total_miss 3537804
Core_0_LLC_total_MPKI 35.378
Core_0_LLC_total_miss_rate 0.766479
Core_0_LLC_demand_access 653094
Core_0_LLC_demand_hit 70828
Core_0_LLC_demand_miss 582266
Core_0_LLC_demand_MPKI 5.82266
Core_0_LLC_demand_miss_rate 0.89155
Core_0_LLC_load_access 644498
Core_0_LLC_load_hit 70796
Core_0_LLC_load_miss 573702
Core_0_LLC_load_MPKI 5.73702
Core_0_LLC_load_miss_rate 0.890153
Core_0_LLC_rfo_access 8596
Core_0_LLC_rfo_hit 32
Core_0_LLC_rfo_miss 8564
Core_0_LLC_rfo_MPKI 0.08564
Core_0_LLC_rfo_miss_rate 0.996277
Core_0_LLC_prefetch_access 2741530
Core_0_LLC_prefetch_hit 79863
Core_0_LLC_prefetch_miss 2661667
Core_0_LLC_prefetch_MPKI 26.6167
Core_0_LLC_prefetch_miss_rate 0.970869
Core_0_LLC_writeback_access 1221033
Core_0_LLC_writeback_hit 927162
Core_0_LLC_writeback_miss 293871
Core_0_LLC_writeback_MPKI 2.93871
Core_0_LLC_writeback_miss_rate 0.240674
Core_0_LLC_prefetch_requested 0
Core_0_LLC_prefetch_issued 0
Core_0_LLC_prefetch_useful 0
Core_0_LLC_prefetch_useless 0
Core_0_LLC_prefetch_late 0
Core_0_LLC_prefetch_fill 2321665
Core_0_LLC_prefetch_too_early 0
Core_0_LLC_prefetch_too_early_among_fill 0
Core_0_LLC_prefetch_too_early_among_useless 0
Core_0_LLC_prefetch_pollution_evict 19262
Core_0_LLC_prefetch_pollution_demand 19262
Core_0_LLC_prefetch_pollution_among_prefetch_fill 0.00829663
Core_0_LLC_prefetch_accuracy 0
Core_0_LLC_prefetch_coverage 0

[DRAM Statistics]
Channel_0_RQ_row_buffer_hit 311085
Channel_0_RQ_row_buffer_miss 2601230
Channel_0_WQ_row_buffer_hit 136756
Channel_0_WQ_row_buffer_miss 1061750
Channel_0_WQ_full 0
Channel_0_dbus_congested 12644401
DRAM_total_RQ_row_buffer_hit 311085
DRAM_total_RQ_row_buffer_miss 2601230
DRAM_total_WQ_row_buffer_hit 136756
DRAM_total_WQ_row_buffer_miss 1061750
DRAM_total_WQ_full 0
DRAM_total_dbus_congested 12644401
DRAM_avg_congested_cycle 6.16435

====== DRAM_RQ_TRAFFIC ========
DRAM_RQ_READ_TRAFFIC_BREAKDOWN:
data_demand_read.count = 570634
data_demand_read.share = 19.59%

inst_demand_read.count = 85
inst_demand_read.share = 0.00%

cache_inst_prefetch.count = 0
cache_inst_prefetch.share = 0.00%

cache_data_prefetch.count = 2333224
cache_data_prefetch.share = 80.12%

stlb_data_demand.count = 3466
stlb_data_demand.share = 0.12%

stlb_inst_demand.count = 8
stlb_inst_demand.share = 0.00%

stlb_l1i_pref.count = 0
stlb_l1i_pref.share = 0.00%

stlb_l1d_pref.count = 4910
stlb_l1d_pref.share = 0.17%

DRAM_RQ_READ_TRAFFIC_SUMMARY:
cache_demand.count = 570719
cache_demand.share = 19.60%

cache_prefetch.count = 2333224
cache_prefetch.share = 80.12%

stlb_demand.count = 3474
stlb_demand.share = 0.12%

stlb_prefetch.count = 4910
stlb_prefetch.share = 0.17%

DRAM_RQ_READ_TRAFFIC_DEBUG:
total_classified_read.count = 2912327
unclassified_read.count = 0
total_read_with_other.count = 2912327

classified_plus_unclassified_check.count = 2912327
dram_rq_read_total_observed.count = 2912327
dram_rq_read_total_observed.per_1K_instructions = 29.1233

STLB_MISS_PTW_DRAM_TOUCH_BREAKDOWN:
stlb_miss_total.count = 362479

stlb_miss_touch_dram.count = 8360
stlb_miss_touch_dram.share = 2.31%

stlb_miss_no_dram_touch.count = 354119
stlb_miss_no_dram_touch.share = 97.69%

STLB_MISS_PTW_DRAM_TOUCH_DEBUG:
stlb_miss_touch_plus_no_touch.count = 362479
stlb_miss_total_check.count = 362479

======STLB miss causes ========
Core_0_STLB_miss_cause_breakdown
Core_0_STLB_cause_Demand_Data_miss 326765
Core_0_STLB_cause_Demand_Data_miss_rate 0.665694
Core_0_STLB_cause_Demand_Instruction_miss 8
Core_0_STLB_cause_Demand_Instruction_miss_rate 1.62978e-05
Core_0_STLB_cause_L1D_Prefetch_miss 38490
Core_0_STLB_cause_L1D_Prefetch_miss_rate 0.0784128
Core_0_STLB_cause_L1D_Prefetch_Same_Page_miss 5
Core_0_STLB_cause_L1D_Prefetch_Same_Page_miss_rate 1.01861e-05
Core_0_STLB_cause_L1D_Prefetch_Cross_Page_miss 38485
Core_0_STLB_cause_L1D_Prefetch_Cross_Page_miss_rate 0.0784026
Core_0_STLB_cause_L1I_Prefetch_miss 0
Core_0_STLB_cause_L1I_Prefetch_miss_rate 0
Core_0_STLB_cause_Other_miss 0
Core_0_STLB_cause_Other_miss_rate 0
Core_0_STLB_Demand_miss 326773
Core_0_STLB_Demand_miss_rate 0.66571
Core_0_STLB_L1D_Prefetch_miss 38490
Core_0_STLB_L1D_Prefetch_miss_rate 0.0784128
Core_0_STLB_Other_miss 0
Core_0_STLB_Other_miss_rate 0

========== vBerti-TLB Cross-page Flow Stats ==========

Core_0_vBerti_Requested 132727617
Core_0_vBerti_Cross_page_prefetch_in_Requested 16357654
Core_0_vBerti_Same_page_prefetch_in_Requested 116369963
Core_0_vBerti_Cross_page_prefetch_of_Requested 0.123242
Core_0_vBerti_Issued 31836067
Core_0_vBerti_InPQ_Same_page_prefetch 29370720
Core_0_vBerti_InPQ_Cross_page_prefetch 2465347
Core_0_vBerti_PQ_Drop_Rate 0.76014
Core_0_vBerti_InPQ_Cross_page_prefetch_of_Requested 0.0185745
Core_0_vBerti_Cross_page_PQ_Drop_rate 0.849285
Core_0_vBerti_Cross_page_prefetch_of_Issued 0.0774388
Core_0_CP_PF_PQFULL_drop 13892307
Core_0_CP_PF_PQFULL_TLB_rescue_enqueued 4965291
Core_0_CP_PF_PQFULL_TLB_rescue_issued 4965291
Core_0_CP_PF_PQFULL_TLB_rescue_translated 4965291

========= DTLB_vBerti Prefetch Stats =========
Core_0_DTLB_demand_access 20056864
Core_0_DTLB_demand_hit 19566491
Core_0_DTLB_demand_miss 490373
Core_0_DTLB_demand_mshr_merge 41267
Core_0_DTLB_demand_fill 451017
Core_0_DTLB_demand_miss_rate 0.0244491
Core_0_DTLB_demand_mpki 4.90373
Core_0_DTLB_vberti_prefetch_access 17597411
Core_0_DTLB_vberti_prefetch_hit 17310023
Core_0_DTLB_vberti_prefetch_miss 287388
Core_0_DTLB_vberti_prefetch_mshr_merge 245638
Core_0_DTLB_vberti_prefetch_fill 39843
Core_0_DTLB_vberti_prefetch_miss_rate 0.0163313
Core_0_DTLB_vberti_prefetch_mpki 2.87388

=== DTLB_vBerti Same/Cross-page Prefetch Stats ===
Core_0_DTLB_vberti_same_page_prefetch 13563274
Core_0_DTLB_vberti_same_page_prefetch_hit 13563252
Core_0_DTLB_vberti_same_page_prefetch_miss 22
Core_0_DTLB_vberti_same_page_prefetch_mshr_merge 10
Core_0_DTLB_vberti_same_page_prefetch_fill 12
Core_0_DTLB_vberti_same_page_prefetch_miss_rate 1.62203e-06
Core_0_DTLB_vberti_same_page_prefetch_mpki 0.00022
Core_0_DTLB_vberti_cross_page_prefetch 4034137
Core_0_DTLB_vberti_cross_page_prefetch_hit 3746771
Core_0_DTLB_vberti_cross_page_prefetch_miss 287366
Core_0_DTLB_vberti_cross_page_prefetch_mshr_merge 245628
Core_0_DTLB_vberti_cross_page_prefetch_fill 39831
Core_0_DTLB_vberti_cross_page_prefetch_miss_rate 0.0712336
Core_0_DTLB_vberti_cross_page_prefetch_mpki 2.87366
Core_0_DTLB_same_page_prefetch_miss_rate 1.62203e-06
Core_0_DTLB_same_page_prefetch_mpki 0.00022
Core_0_DTLB_cross_page_prefetch_miss_rate 0.0712336
Core_0_DTLB_cross_page_prefetch_mpki 2.87366
Core_0_DTLB_cross_page_prefetch_issued 4034137
Core_0_DTLB_cross_page_prefetch_lookups 4034137
Core_0_DTLB_cross_page_prefetch_useful 38066
Core_0_DTLB_cross_page_prefetch_useless 3672
Core_0_DTLB_cross_page_prefetch_late 1907
Core_0_DTLB_cross_page_prefetch_too_early 1861
Core_0_DTLB_cross_page_prefetch_too_early_among_fill 0.0467224
Core_0_DTLB_cross_page_prefetch_too_early_among_useless 0.506808
Core_0_DTLB_cross_page_prefetch_pollution_evict 2224
Core_0_DTLB_cross_page_prefetch_pollution_demand 1984
Core_0_DTLB_cross_page_prefetch_pollution_among_prefetch_fill 0.0558359
Core_0_DTLB_cross_page_prefetch_accuracy 0.00943597
Core_0_DTLB_cross_page_prefetch_coverage 0.0720348

========= STLB_vBerti Prefetch Stats =========
Core_0_STLB_demand_access 449114
Core_0_STLB_demand_hit 122341
Core_0_STLB_demand_miss 326773
Core_0_STLB_demand_mshr_merge 0
Core_0_STLB_demand_fill 326777
Core_0_STLB_demand_miss_rate 0.727595
Core_0_STLB_demand_mpki 3.26773
Core_0_STLB_vberti_prefetch_access 41750
Core_0_STLB_vberti_prefetch_hit 3260
Core_0_STLB_vberti_prefetch_miss 38490
Core_0_STLB_vberti_prefetch_mshr_merge 0
Core_0_STLB_vberti_prefetch_fill 5
Core_0_STLB_vberti_prefetch_miss_rate 0.921916
Core_0_STLB_vberti_prefetch_mpki 0.3849

=== STLB_vBerti Same/Cross-page Prefetch Stats ===
Core_0_STLB_vberti_same_page_prefetch 12
Core_0_STLB_vberti_same_page_prefetch_hit 7
Core_0_STLB_vberti_same_page_prefetch_miss 5
Core_0_STLB_vberti_same_page_prefetch_mshr_merge 0
Core_0_STLB_vberti_same_page_prefetch_fill 5
Core_0_STLB_vberti_same_page_prefetch_miss_rate 0.416667
Core_0_STLB_vberti_same_page_prefetch_mpki 5e-05
Core_0_STLB_vberti_cross_page_prefetch 41738
Core_0_STLB_vberti_cross_page_prefetch_hit 3253
Core_0_STLB_vberti_cross_page_prefetch_miss 38485
Core_0_STLB_vberti_cross_page_prefetch_mshr_merge 0
Core_0_STLB_vberti_cross_page_prefetch_fill 0
Core_0_STLB_vberti_cross_page_prefetch_miss_rate 0.922061
Core_0_STLB_vberti_cross_page_prefetch_mpki 0.38485
Core_0_STLB_same_page_prefetch_miss_rate 0.416667
Core_0_STLB_same_page_prefetch_mpki 5e-05
Core_0_STLB_cross_page_prefetch_miss_rate 0.922061
Core_0_STLB_cross_page_prefetch_mpki 0.38485
Core_0_STLB_cross_page_prefetch_issued 41738
Core_0_STLB_cross_page_prefetch_lookups 41738
Core_0_STLB_cross_page_prefetch_useful 2784
Core_0_STLB_cross_page_prefetch_useless 35439
Core_0_STLB_cross_page_prefetch_late 2784
Core_0_STLB_cross_page_prefetch_too_early 0
Core_0_STLB_cross_page_prefetch_too_early_among_fill 0
Core_0_STLB_cross_page_prefetch_too_early_among_useless 0
Core_0_STLB_cross_page_prefetch_pollution_evict 0
Core_0_STLB_cross_page_prefetch_pollution_demand 0
Core_0_STLB_cross_page_prefetch_pollution_among_prefetch_fill 0
Core_0_STLB_cross_page_prefetch_accuracy 0.0667018
Core_0_STLB_cross_page_prefetch_coverage 0.0084477

========= STLB Cross-page Prefetch Buffer Stats =========
Core_0_STLB_raw_demand_miss 326765
Core_0_CP_PB_insert 38485
Core_0_CP_PB_demand_hit 2784
Core_0_STLB_PB_demand_miss 323981
Core_0_CP_PB_coverage 0.00851988
Core_0_STLB_raw_demand_mpki 3.26765
Core_0_STLB_PB_demand_mpki 3.23981
Core_0_CP_PB_demand_hit_mpki 0.02784

Core_0_TLB_demand_miss_rate 0.0162923
Core_0_TLB_demand_mpki 3.26773
Core_0_TLB_same_page_prefetch_miss_rate 3.68643e-07
Core_0_TLB_same_page_prefetch_mpki 5e-05
Core_0_TLB_cross_page_prefetch_miss_rate 0.00953983
Core_0_TLB_cross_page_prefetch_mpki 0.38485
Core_0_TLB_cross_page_prefetch_issued 4034137
Core_0_TLB_cross_page_prefetch_lookups 4034137
Core_0_TLB_cross_page_prefetch_useful 18387
Core_0_TLB_cross_page_prefetch_useless 3242
Core_0_TLB_cross_page_prefetch_late 1341
Core_0_TLB_cross_page_prefetch_too_early 1641
Core_0_TLB_cross_page_prefetch_too_early_among_fill 0.0411991
Core_0_TLB_cross_page_prefetch_too_early_among_useless 0.506169
Core_0_TLB_cross_page_prefetch_accuracy 0.00455785
Core_0_TLB_cross_page_prefetch_coverage 0.0532709
BERTI TO_L1: 103607284 TO_L2: 42637004 TO_L2_BC_MSHR: 19366164
BERTI AVG_LAT: 167.641 NUM_TRACK_LATENCY: 5925225 NUM_CANT_TRACK_LATENCY: 7
BERTI CROSS_PAGE 18164125 NO_CROSS_PAGE: 128080163
BERTI FOUND_BERTI: 23441478 NO_FOUND_BERTI: 10821180
BERTI AVERAGE_ISSUED: 4.26341
