[VMEM] WARNING: physical memory size is smaller than virtual memory size.

*** ChampSim Multicore Out-of-Order Simulator ***
Warmup Instructions: 50000000
Simulation Instructions: 100000000
Number of CPUs: 1
Page size: 4096
Core 0: /data0/tzh/champsim_traces/Ligra/ligra_Components-Shortcut.com-lj.ungraph.gcc_6.3.0_O3.drop_22000M.length_250M.champsimtrace.xz
VBerti Prefetcher
BERTI HASH ENTANGLING
BERTI IP MASK ffff
Off-chip DRAM Size: 16 GiB Channels: 1 Width: 64-bit Data Rate: 3205 MT/s
Warmup halting CPU 0 at instruction 50000004 cycle 13238538 for remainder of phase
Warmup finished CPU 0 instructions: 50000004 cycles: 13238538 cumulative IPC: 3.777 (Simulation time: 00 hr 03 min 14 sec)
Warmup complete CPU 0 instructions: 50000004 cycles: 13238538 cumulative IPC: 3.777 (Simulation time: 00 hr 03 min 14 sec)
Simulation finished CPU 0 instructions: 100000000 cycles: 214256720 cumulative IPC: 0.4667 (Simulation time: 00 hr 25 min 34 sec)
Simulation complete CPU 0 instructions: 100000000 cycles: 214256720 cumulative IPC: 0.4667 (Simulation time: 00 hr 25 min 34 sec)

ChampSim completed all CPUs

=== Simulation ===
CPU 0 runs /data0/tzh/champsim_traces/Ligra/ligra_Components-Shortcut.com-lj.ungraph.gcc_6.3.0_O3.drop_22000M.length_250M.champsimtrace.xz

Region of Interest Statistics

CPU 0 cumulative IPC: 0.4667 instructions: 100000000 cycles: 214256720
CPU 0 Branch Prediction Accuracy: 97.13% MPKI: 7.534 Average ROB Occupancy at Mispredict: 92.29
Branch type MPKI
BRANCH_DIRECT_JUMP: 0
BRANCH_INDIRECT: 0
BRANCH_CONDITIONAL: 7.534
BRANCH_DIRECT_CALL: 0
BRANCH_INDIRECT_CALL: 0
BRANCH_RETURN: 0

cpu0->cpu0_STLB TOTAL        ACCESS:    7307718 HIT:    7173796 MISS:     133922 MSHR_MERGE:          0
cpu0->cpu0_STLB LOAD         ACCESS:    7307718 HIT:    7173796 MISS:     133922 MSHR_MERGE:          0
cpu0->cpu0_STLB RFO          ACCESS:          0 HIT:          0 MISS:          0 MSHR_MERGE:          0
cpu0->cpu0_STLB PREFETCH     ACCESS:          0 HIT:          0 MISS:          0 MSHR_MERGE:          0
cpu0->cpu0_STLB WRITE        ACCESS:          0 HIT:          0 MISS:          0 MSHR_MERGE:          0
cpu0->cpu0_STLB TRANSLATION  ACCESS:          0 HIT:          0 MISS:          0 MSHR_MERGE:          0
cpu0->cpu0_STLB PREFETCH REQUESTED:          0 ISSUED:          0 USEFUL:          0 USELESS:          0 LATE:          0 TOO_EARLY:          0
cpu0->cpu0_STLB AVERAGE MISS LATENCY: 64.82 cycles
cpu0->cpu0_L2C TOTAL        ACCESS:    9618163 HIT:    2807020 MISS:    6811143 MSHR_MERGE:     467374
cpu0->cpu0_L2C LOAD         ACCESS:    7408887 HIT:    2047785 MISS:    5361102 MSHR_MERGE:       1573
cpu0->cpu0_L2C RFO          ACCESS:          0 HIT:          0 MISS:          0 MSHR_MERGE:          0
cpu0->cpu0_L2C PREFETCH     ACCESS:    2062879 HIT:     640614 MISS:    1422265 MSHR_MERGE:     465801
cpu0->cpu0_L2C WRITE        ACCESS:      47151 HIT:      47117 MISS:         34 MSHR_MERGE:          0
cpu0->cpu0_L2C TRANSLATION  ACCESS:      99246 HIT:      71504 MISS:      27742 MSHR_MERGE:          0
cpu0->cpu0_L2C PREFETCH REQUESTED:     877187 ISSUED:     877052 USEFUL:     275350 USELESS:     114721 LATE:       1463 TOO_EARLY:      17532
cpu0->cpu0_L2C AVERAGE MISS LATENCY: 120.2 cycles
cpu0->cpu0_L1I TOTAL        ACCESS:     609829 HIT:     609829 MISS:          0 MSHR_MERGE:          0
cpu0->cpu0_L1I LOAD         ACCESS:     609829 HIT:     609829 MISS:          0 MSHR_MERGE:          0
cpu0->cpu0_L1I RFO          ACCESS:          0 HIT:          0 MISS:          0 MSHR_MERGE:          0
cpu0->cpu0_L1I PREFETCH     ACCESS:          0 HIT:          0 MISS:          0 MSHR_MERGE:          0
cpu0->cpu0_L1I WRITE        ACCESS:          0 HIT:          0 MISS:          0 MSHR_MERGE:          0
cpu0->cpu0_L1I TRANSLATION  ACCESS:          0 HIT:          0 MISS:          0 MSHR_MERGE:          0
cpu0->cpu0_L1I PREFETCH REQUESTED:          0 ISSUED:          0 USEFUL:          0 USELESS:          0 LATE:          0 TOO_EARLY:          0
cpu0->cpu0_L1I AVERAGE MISS LATENCY: - cycles
cpu0->cpu0_L1D TOTAL        ACCESS:   42231731 HIT:   33372303 MISS:    8859428 MSHR_MERGE:     161934
cpu0->cpu0_L1D LOAD         ACCESS:   25950301 HIT:   18390389 MISS:    7559912 MSHR_MERGE:     151020
cpu0->cpu0_L1D RFO          ACCESS:          0 HIT:          0 MISS:          0 MSHR_MERGE:          0
cpu0->cpu0_L1D PREFETCH     ACCESS:   15275293 HIT:   14075583 MISS:    1199710 MSHR_MERGE:      10354
cpu0->cpu0_L1D WRITE        ACCESS:     754404 HIT:     754404 MISS:          0 MSHR_MERGE:          0
cpu0->cpu0_L1D TRANSLATION  ACCESS:     251733 HIT:     151927 MISS:      99806 MSHR_MERGE:        560
cpu0->cpu0_L1D PREFETCH REQUESTED:   75191636 ISSUED:   15275285 USEFUL:     829594 USELESS:        712 LATE:       1091 TOO_EARLY:        532
cpu0->cpu0_L1D AVERAGE MISS LATENCY: 95.04 cycles
cpu0->cpu0_ITLB TOTAL        ACCESS:     441326 HIT:     441326 MISS:          0 MSHR_MERGE:          0
cpu0->cpu0_ITLB LOAD         ACCESS:     441326 HIT:     441326 MISS:          0 MSHR_MERGE:          0
cpu0->cpu0_ITLB RFO          ACCESS:          0 HIT:          0 MISS:          0 MSHR_MERGE:          0
cpu0->cpu0_ITLB PREFETCH     ACCESS:          0 HIT:          0 MISS:          0 MSHR_MERGE:          0
cpu0->cpu0_ITLB WRITE        ACCESS:          0 HIT:          0 MISS:          0 MSHR_MERGE:          0
cpu0->cpu0_ITLB TRANSLATION  ACCESS:          0 HIT:          0 MISS:          0 MSHR_MERGE:          0
cpu0->cpu0_ITLB PREFETCH REQUESTED:          0 ISSUED:          0 USEFUL:          0 USELESS:          0 LATE:          0 TOO_EARLY:          0
cpu0->cpu0_ITLB AVERAGE MISS LATENCY: - cycles
cpu0->cpu0_DTLB TOTAL        ACCESS:   40382951 HIT:   32551921 MISS:    7831030 MSHR_MERGE:     523313
cpu0->cpu0_DTLB LOAD         ACCESS:   40382951 HIT:   32551921 MISS:    7831030 MSHR_MERGE:     523313
cpu0->cpu0_DTLB RFO          ACCESS:          0 HIT:          0 MISS:          0 MSHR_MERGE:          0
cpu0->cpu0_DTLB PREFETCH     ACCESS:          0 HIT:          0 MISS:          0 MSHR_MERGE:          0
cpu0->cpu0_DTLB WRITE        ACCESS:          0 HIT:          0 MISS:          0 MSHR_MERGE:          0
cpu0->cpu0_DTLB TRANSLATION  ACCESS:          0 HIT:          0 MISS:          0 MSHR_MERGE:          0
cpu0->cpu0_DTLB PREFETCH REQUESTED:          0 ISSUED:          0 USEFUL:          0 USELESS:          0 LATE:          0 TOO_EARLY:          0
cpu0->cpu0_DTLB AVERAGE MISS LATENCY: 6.161 cycles
cpu0->LLC TOTAL        ACCESS:    6390861 HIT:    3030058 MISS:    3360803 MSHR_MERGE:      35639
cpu0->LLC LOAD         ACCESS:    5359529 HIT:    2951389 MISS:    2408140 MSHR_MERGE:        340
cpu0->LLC RFO          ACCESS:          0 HIT:          0 MISS:          0 MSHR_MERGE:          0
cpu0->LLC PREFETCH     ACCESS:     956460 HIT:      47787 MISS:     908673 MSHR_MERGE:      35299
cpu0->LLC WRITE        ACCESS:      47130 HIT:      11030 MISS:      36100 MSHR_MERGE:          0
cpu0->LLC TRANSLATION  ACCESS:      27742 HIT:      19852 MISS:       7890 MSHR_MERGE:          0
cpu0->LLC PREFETCH REQUESTED:          0 ISSUED:          0 USEFUL:          0 USELESS:          0 LATE:          0 TOO_EARLY:          0
cpu0->LLC AVERAGE MISS LATENCY: 230.2 cycles

DRAM Statistics

Channel 0 RQ ROW_BUFFER_HIT:       9884
  ROW_BUFFER_MISS:    3279148
  AVG DBUS CONGESTED CYCLE: 7.294
Channel 0 WQ ROW_BUFFER_HIT:      11301
  ROW_BUFFER_MISS:      36320
  FULL:          0
Channel 0 REFRESHES ISSUED:      17854

[ROI Statistics]
[System Configuration]
num_cpus 1
cpu_freq 4000
fetch_width 6
decode_width 6
dispatch_width 6
execute_width 6
lq_width 2
sq_width 2
retire_width 6
scheduler_size 128
branch_mispredict_penalty 15
rob_size 352
lq_size 128
sq_size 72
ifetch_buffer_size 64
decode_buffer_size 32
dispatch_buffer_size 32
register_file_size 288
decode_latency 1
dispatch_latency 1
schedule_latency 1
execute_latency 1
page_size 4096
block_size 64
core_0_itlb_set 16
core_0_itlb_way 4
core_0_itlb_rq_size 16
core_0_itlb_wq_size 16
core_0_itlb_pq_size 0
core_0_itlb_mshr_size 8
core_0_itlb_hit_latency 1
core_0_itlb_fill_latency 1
core_0_itlb_max_tag_check 2
core_0_itlb_max_fill 2
core_0_dtlb_set 16
core_0_dtlb_way 4
core_0_dtlb_rq_size 16
core_0_dtlb_wq_size 16
core_0_dtlb_pq_size 0
core_0_dtlb_mshr_size 8
core_0_dtlb_hit_latency 1
core_0_dtlb_fill_latency 1
core_0_dtlb_max_tag_check 2
core_0_dtlb_max_fill 2
core_0_stlb_set 128
core_0_stlb_way 12
core_0_stlb_rq_size 32
core_0_stlb_wq_size 32
core_0_stlb_pq_size 0
core_0_stlb_mshr_size 16
core_0_stlb_hit_latency 4
core_0_stlb_fill_latency 4
core_0_stlb_max_tag_check 1
core_0_stlb_max_fill 1
core_0_l1i_set 64
core_0_l1i_way 8
core_0_l1i_rq_size 64
core_0_l1i_wq_size 64
core_0_l1i_pq_size 32
core_0_l1i_mshr_size 8
core_0_l1i_hit_latency 2
core_0_l1i_fill_latency 2
core_0_l1i_max_tag_check 2
core_0_l1i_max_fill 2
core_0_l1d_set 64
core_0_l1d_way 12
core_0_l1d_rq_size 64
core_0_l1d_wq_size 64
core_0_l1d_pq_size 8
core_0_l1d_mshr_size 16
core_0_l1d_hit_latency 2
core_0_l1d_fill_latency 3
core_0_l1d_max_tag_check 2
core_0_l1d_max_fill 2
core_0_l2c_set 1024
core_0_l2c_way 8
core_0_l2c_rq_size 32
core_0_l2c_wq_size 32
core_0_l2c_pq_size 16
core_0_l2c_mshr_size 32
core_0_l2c_hit_latency 5
core_0_l2c_fill_latency 5
core_0_l2c_max_tag_check 1
core_0_l2c_max_fill 1
llc_set 2048
llc_way 16
llc_rq_size 32
llc_wq_size 32
llc_pq_size 32
llc_mshr_size 64
llc_hit_latency 10
llc_fill_latency 10
llc_max_tag_check 1
llc_max_fill 1
dram_channels 1
dram_ranks 1
dram_bankgroups 8
dram_banks 4
dram_rows 65536
dram_columns 1024
dram_channel_width 8
dram_rq_size 64
dram_wq_size 64
dram_size 17179869184
core_0_itlb_prefetcher no
core_0_dtlb_prefetcher no
core_0_stlb_prefetcher no
core_0_l1i_prefetcher next_line
core_0_l1d_prefetcher vberti
core_0_l2c_prefetcher ip_stride
llc_prefetcher no
llc_replacement drrip

Core_0_instructions 100000000
Core_0_cycles 214256720
Core_0_IPC 0.46673
Core_0_branch_prediction_accuracy 97.1294
Core_0_branch_MPKI 7.53369
Core_0_average_ROB_occupancy_at_mispredict 92.291

Core_0_ITLB_total_access 441326
Core_0_ITLB_total_hit 441326
Core_0_ITLB_total_miss 0
Core_0_ITLB_total_MPKI 0
Core_0_ITLB_total_miss_rate 0
Core_0_ITLB_demand_access 441326
Core_0_ITLB_demand_hit 441326
Core_0_ITLB_demand_miss 0
Core_0_ITLB_demand_MPKI 0
Core_0_ITLB_demand_miss_rate 0
Core_0_ITLB_load_access 441326
Core_0_ITLB_load_hit 441326
Core_0_ITLB_load_miss 0
Core_0_ITLB_load_MPKI 0
Core_0_ITLB_load_miss_rate 0
Core_0_ITLB_rfo_access 0
Core_0_ITLB_rfo_hit 0
Core_0_ITLB_rfo_miss 0
Core_0_ITLB_rfo_MPKI 0
Core_0_ITLB_rfo_miss_rate 0
Core_0_ITLB_prefetch_access 0
Core_0_ITLB_prefetch_hit 0
Core_0_ITLB_prefetch_miss 0
Core_0_ITLB_prefetch_MPKI 0
Core_0_ITLB_prefetch_miss_rate 0
Core_0_ITLB_writeback_access 0
Core_0_ITLB_writeback_hit 0
Core_0_ITLB_writeback_miss 0
Core_0_ITLB_writeback_MPKI 0
Core_0_ITLB_writeback_miss_rate 0
Core_0_ITLB_prefetch_requested 0
Core_0_ITLB_prefetch_issued 0
Core_0_ITLB_prefetch_useful 0
Core_0_ITLB_prefetch_useless 0
Core_0_ITLB_prefetch_late 0
Core_0_ITLB_prefetch_fill 0
Core_0_ITLB_prefetch_too_early 0
Core_0_ITLB_prefetch_too_early_among_fill 0
Core_0_ITLB_prefetch_too_early_among_useless 0
Core_0_ITLB_prefetch_pollution_evict 0
Core_0_ITLB_prefetch_pollution_demand 0
Core_0_ITLB_prefetch_pollution_among_prefetch_fill 0
Core_0_ITLB_prefetch_accuracy 0
Core_0_ITLB_prefetch_coverage 0

Core_0_DTLB_total_access 40382951
Core_0_DTLB_total_hit 32551921
Core_0_DTLB_total_miss 7831030
Core_0_DTLB_total_MPKI 78.3103
Core_0_DTLB_total_miss_rate 0.193919
Core_0_DTLB_demand_access 40382951
Core_0_DTLB_demand_hit 32551921
Core_0_DTLB_demand_miss 7831030
Core_0_DTLB_demand_MPKI 78.3103
Core_0_DTLB_demand_miss_rate 0.193919
Core_0_DTLB_load_access 40382951
Core_0_DTLB_load_hit 32551921
Core_0_DTLB_load_miss 7831030
Core_0_DTLB_load_MPKI 78.3103
Core_0_DTLB_load_miss_rate 0.193919
Core_0_DTLB_rfo_access 0
Core_0_DTLB_rfo_hit 0
Core_0_DTLB_rfo_miss 0
Core_0_DTLB_rfo_MPKI 0
Core_0_DTLB_rfo_miss_rate 0
Core_0_DTLB_prefetch_access 0
Core_0_DTLB_prefetch_hit 0
Core_0_DTLB_prefetch_miss 0
Core_0_DTLB_prefetch_MPKI 0
Core_0_DTLB_prefetch_miss_rate 0
Core_0_DTLB_writeback_access 0
Core_0_DTLB_writeback_hit 0
Core_0_DTLB_writeback_miss 0
Core_0_DTLB_writeback_MPKI 0
Core_0_DTLB_writeback_miss_rate 0
Core_0_DTLB_prefetch_requested 0
Core_0_DTLB_prefetch_issued 0
Core_0_DTLB_prefetch_useful 0
Core_0_DTLB_prefetch_useless 0
Core_0_DTLB_prefetch_late 0
Core_0_DTLB_prefetch_fill 0
Core_0_DTLB_prefetch_too_early 0
Core_0_DTLB_prefetch_too_early_among_fill 0
Core_0_DTLB_prefetch_too_early_among_useless 0
Core_0_DTLB_prefetch_pollution_evict 0
Core_0_DTLB_prefetch_pollution_demand 0
Core_0_DTLB_prefetch_pollution_among_prefetch_fill 0
Core_0_DTLB_prefetch_accuracy 0
Core_0_DTLB_prefetch_coverage 0

Core_0_STLB_total_access 7307718
Core_0_STLB_total_hit 7173796
Core_0_STLB_total_miss 133922
Core_0_STLB_total_MPKI 1.33922
Core_0_STLB_total_miss_rate 0.0183261
Core_0_STLB_demand_access 7307718
Core_0_STLB_demand_hit 7173796
Core_0_STLB_demand_miss 133922
Core_0_STLB_demand_MPKI 1.33922
Core_0_STLB_demand_miss_rate 0.0183261
Core_0_STLB_load_access 7307718
Core_0_STLB_load_hit 7173796
Core_0_STLB_load_miss 133922
Core_0_STLB_load_MPKI 1.33922
Core_0_STLB_load_miss_rate 0.0183261
Core_0_STLB_rfo_access 0
Core_0_STLB_rfo_hit 0
Core_0_STLB_rfo_miss 0
Core_0_STLB_rfo_MPKI 0
Core_0_STLB_rfo_miss_rate 0
Core_0_STLB_prefetch_access 0
Core_0_STLB_prefetch_hit 0
Core_0_STLB_prefetch_miss 0
Core_0_STLB_prefetch_MPKI 0
Core_0_STLB_prefetch_miss_rate 0
Core_0_STLB_writeback_access 0
Core_0_STLB_writeback_hit 0
Core_0_STLB_writeback_miss 0
Core_0_STLB_writeback_MPKI 0
Core_0_STLB_writeback_miss_rate 0
Core_0_STLB_prefetch_requested 0
Core_0_STLB_prefetch_issued 0
Core_0_STLB_prefetch_useful 0
Core_0_STLB_prefetch_useless 0
Core_0_STLB_prefetch_late 0
Core_0_STLB_prefetch_fill 0
Core_0_STLB_prefetch_too_early 0
Core_0_STLB_prefetch_too_early_among_fill 0
Core_0_STLB_prefetch_too_early_among_useless 0
Core_0_STLB_prefetch_pollution_evict 0
Core_0_STLB_prefetch_pollution_demand 0
Core_0_STLB_prefetch_pollution_among_prefetch_fill 0
Core_0_STLB_prefetch_accuracy 0
Core_0_STLB_prefetch_coverage 0

Core_0_L1I_total_access 609829
Core_0_L1I_total_hit 609829
Core_0_L1I_total_miss 0
Core_0_L1I_total_MPKI 0
Core_0_L1I_total_miss_rate 0
Core_0_L1I_demand_access 609829
Core_0_L1I_demand_hit 609829
Core_0_L1I_demand_miss 0
Core_0_L1I_demand_MPKI 0
Core_0_L1I_demand_miss_rate 0
Core_0_L1I_load_access 609829
Core_0_L1I_load_hit 609829
Core_0_L1I_load_miss 0
Core_0_L1I_load_MPKI 0
Core_0_L1I_load_miss_rate 0
Core_0_L1I_rfo_access 0
Core_0_L1I_rfo_hit 0
Core_0_L1I_rfo_miss 0
Core_0_L1I_rfo_MPKI 0
Core_0_L1I_rfo_miss_rate 0
Core_0_L1I_prefetch_access 0
Core_0_L1I_prefetch_hit 0
Core_0_L1I_prefetch_miss 0
Core_0_L1I_prefetch_MPKI 0
Core_0_L1I_prefetch_miss_rate 0
Core_0_L1I_writeback_access 0
Core_0_L1I_writeback_hit 0
Core_0_L1I_writeback_miss 0
Core_0_L1I_writeback_MPKI 0
Core_0_L1I_writeback_miss_rate 0
Core_0_L1I_prefetch_requested 0
Core_0_L1I_prefetch_issued 0
Core_0_L1I_prefetch_useful 0
Core_0_L1I_prefetch_useless 0
Core_0_L1I_prefetch_late 0
Core_0_L1I_prefetch_fill 0
Core_0_L1I_prefetch_too_early 0
Core_0_L1I_prefetch_too_early_among_fill 0
Core_0_L1I_prefetch_too_early_among_useless 0
Core_0_L1I_prefetch_pollution_evict 0
Core_0_L1I_prefetch_pollution_demand 0
Core_0_L1I_prefetch_pollution_among_prefetch_fill 0
Core_0_L1I_prefetch_accuracy 0
Core_0_L1I_prefetch_coverage 0

Core_0_L1D_total_access 41979998
Core_0_L1D_total_hit 33220376
Core_0_L1D_total_miss 8759622
Core_0_L1D_total_MPKI 87.5962
Core_0_L1D_total_miss_rate 0.208662
Core_0_L1D_demand_access 25950301
Core_0_L1D_demand_hit 18390389
Core_0_L1D_demand_miss 7559912
Core_0_L1D_demand_MPKI 75.5991
Core_0_L1D_demand_miss_rate 0.291323
Core_0_L1D_load_access 25950301
Core_0_L1D_load_hit 18390389
Core_0_L1D_load_miss 7559912
Core_0_L1D_load_MPKI 75.5991
Core_0_L1D_load_miss_rate 0.291323
Core_0_L1D_rfo_access 0
Core_0_L1D_rfo_hit 0
Core_0_L1D_rfo_miss 0
Core_0_L1D_rfo_MPKI 0
Core_0_L1D_rfo_miss_rate 0
Core_0_L1D_prefetch_access 15275293
Core_0_L1D_prefetch_hit 14075583
Core_0_L1D_prefetch_miss 1199710
Core_0_L1D_prefetch_MPKI 11.9971
Core_0_L1D_prefetch_miss_rate 0.0785392
Core_0_L1D_writeback_access 754404
Core_0_L1D_writeback_hit 754404
Core_0_L1D_writeback_miss 0
Core_0_L1D_writeback_MPKI 0
Core_0_L1D_writeback_miss_rate 0
Core_0_L1D_prefetch_requested 75191636
Core_0_L1D_prefetch_issued 15275285
Core_0_L1D_prefetch_useful 829594
Core_0_L1D_prefetch_useless 712
Core_0_L1D_prefetch_late 1091
Core_0_L1D_prefetch_fill 829223
Core_0_L1D_prefetch_too_early 532
Core_0_L1D_prefetch_too_early_among_fill 0.000641564
Core_0_L1D_prefetch_too_early_among_useless 0.747191
Core_0_L1D_prefetch_pollution_evict 195598
Core_0_L1D_prefetch_pollution_demand 195597
Core_0_L1D_prefetch_pollution_among_prefetch_fill 0.235881
Core_0_L1D_prefetch_accuracy 0.0543096
Core_0_L1D_prefetch_coverage 0.0988847

Core_0_L2C_total_access 9518917
Core_0_L2C_total_hit 2735516
Core_0_L2C_total_miss 6783401
Core_0_L2C_total_MPKI 67.834
Core_0_L2C_total_miss_rate 0.712623
Core_0_L2C_demand_access 7408887
Core_0_L2C_demand_hit 2047785
Core_0_L2C_demand_miss 5361102
Core_0_L2C_demand_MPKI 53.611
Core_0_L2C_demand_miss_rate 0.723604
Core_0_L2C_load_access 7408887
Core_0_L2C_load_hit 2047785
Core_0_L2C_load_miss 5361102
Core_0_L2C_load_MPKI 53.611
Core_0_L2C_load_miss_rate 0.723604
Core_0_L2C_rfo_access 0
Core_0_L2C_rfo_hit 0
Core_0_L2C_rfo_miss 0
Core_0_L2C_rfo_MPKI 0
Core_0_L2C_rfo_miss_rate 0
Core_0_L2C_prefetch_access 2062879
Core_0_L2C_prefetch_hit 640614
Core_0_L2C_prefetch_miss 1422265
Core_0_L2C_prefetch_MPKI 14.2226
Core_0_L2C_prefetch_miss_rate 0.689456
Core_0_L2C_writeback_access 47151
Core_0_L2C_writeback_hit 47117
Core_0_L2C_writeback_miss 34
Core_0_L2C_writeback_MPKI 0.00034
Core_0_L2C_writeback_miss_rate 0.000721088
Core_0_L2C_prefetch_requested 877187
Core_0_L2C_prefetch_issued 877052
Core_0_L2C_prefetch_useful 275350
Core_0_L2C_prefetch_useless 114721
Core_0_L2C_prefetch_late 1463
Core_0_L2C_prefetch_fill 888435
Core_0_L2C_prefetch_too_early 17532
Core_0_L2C_prefetch_too_early_among_fill 0.0197336
Core_0_L2C_prefetch_too_early_among_useless 0.152823
Core_0_L2C_prefetch_pollution_evict 452538
Core_0_L2C_prefetch_pollution_demand 451223
Core_0_L2C_prefetch_pollution_among_prefetch_fill 0.509365
Core_0_L2C_prefetch_accuracy 0.313949
Core_0_L2C_prefetch_coverage 0.0488517

Core_0_LLC_total_access 6363119
Core_0_LLC_total_hit 3010206
Core_0_LLC_total_miss 3352913
Core_0_LLC_total_MPKI 33.5291
Core_0_LLC_total_miss_rate 0.526929
Core_0_LLC_demand_access 5359529
Core_0_LLC_demand_hit 2951389
Core_0_LLC_demand_miss 2408140
Core_0_LLC_demand_MPKI 24.0814
Core_0_LLC_demand_miss_rate 0.449319
Core_0_LLC_load_access 5359529
Core_0_LLC_load_hit 2951389
Core_0_LLC_load_miss 2408140
Core_0_LLC_load_MPKI 24.0814
Core_0_LLC_load_miss_rate 0.449319
Core_0_LLC_rfo_access 0
Core_0_LLC_rfo_hit 0
Core_0_LLC_rfo_miss 0
Core_0_LLC_rfo_MPKI 0
Core_0_LLC_rfo_miss_rate 0
Core_0_LLC_prefetch_access 956460
Core_0_LLC_prefetch_hit 47787
Core_0_LLC_prefetch_miss 908673
Core_0_LLC_prefetch_MPKI 9.08673
Core_0_LLC_prefetch_miss_rate 0.950038
Core_0_LLC_writeback_access 47130
Core_0_LLC_writeback_hit 11030
Core_0_LLC_writeback_miss 36100
Core_0_LLC_writeback_MPKI 0.361
Core_0_LLC_writeback_miss_rate 0.765966
Core_0_LLC_prefetch_requested 0
Core_0_LLC_prefetch_issued 0
Core_0_LLC_prefetch_useful 0
Core_0_LLC_prefetch_useless 0
Core_0_LLC_prefetch_late 0
Core_0_LLC_prefetch_fill 873033
Core_0_LLC_prefetch_too_early 0
Core_0_LLC_prefetch_too_early_among_fill 0
Core_0_LLC_prefetch_too_early_among_useless 0
Core_0_LLC_prefetch_pollution_evict 506510
Core_0_LLC_prefetch_pollution_demand 506510
Core_0_LLC_prefetch_pollution_among_prefetch_fill 0.580173
Core_0_LLC_prefetch_accuracy 0
Core_0_LLC_prefetch_coverage 0

[DRAM Statistics]
Channel_0_RQ_row_buffer_hit 9884
Channel_0_RQ_row_buffer_miss 3279148
Channel_0_WQ_row_buffer_hit 11301
Channel_0_WQ_row_buffer_miss 36320
Channel_0_WQ_full 0
Channel_0_dbus_congested 6007250
DRAM_total_RQ_row_buffer_hit 9884
DRAM_total_RQ_row_buffer_miss 3279148
DRAM_total_WQ_row_buffer_hit 11301
DRAM_total_WQ_row_buffer_miss 36320
DRAM_total_WQ_full 0
DRAM_total_dbus_congested 6007250
DRAM_avg_congested_cycle 7.29374

====== DRAM_RQ_TRAFFIC ========
DRAM_RQ_READ_TRAFFIC_BREAKDOWN:
data_demand_read.count = 2407800
data_demand_read.share = 73.21%

inst_demand_read.count = 0
inst_demand_read.share = 0.00%

cache_inst_prefetch.count = 0
cache_inst_prefetch.share = 0.00%

cache_data_prefetch.count = 873374
cache_data_prefetch.share = 26.55%

stlb_data_demand.count = 5043
stlb_data_demand.share = 0.15%

stlb_inst_demand.count = 0
stlb_inst_demand.share = 0.00%

stlb_l1i_pref.count = 0
stlb_l1i_pref.share = 0.00%

stlb_l1d_pref.count = 2847
stlb_l1d_pref.share = 0.09%

DRAM_RQ_READ_TRAFFIC_SUMMARY:
cache_demand.count = 2407800
cache_demand.share = 73.21%

cache_prefetch.count = 873374
cache_prefetch.share = 26.55%

stlb_demand.count = 5043
stlb_demand.share = 0.15%

stlb_prefetch.count = 2847
stlb_prefetch.share = 0.09%

DRAM_RQ_READ_TRAFFIC_DEBUG:
total_classified_read.count = 3289064
unclassified_read.count = 0
total_read_with_other.count = 3289064

classified_plus_unclassified_check.count = 3289064
dram_rq_read_total_observed.count = 3289064
dram_rq_read_total_observed.per_1K_instructions = 32.8906

STLB_MISS_PTW_DRAM_TOUCH_BREAKDOWN:
stlb_miss_total.count = 126436

stlb_miss_touch_dram.count = 7881
stlb_miss_touch_dram.share = 6.23%

stlb_miss_no_dram_touch.count = 118555
stlb_miss_no_dram_touch.share = 93.77%

STLB_MISS_PTW_DRAM_TOUCH_DEBUG:
stlb_miss_touch_plus_no_touch.count = 126436
stlb_miss_total_check.count = 126436

======STLB miss causes ========
Core_0_STLB_miss_cause_breakdown
Core_0_STLB_cause_Demand_Data_miss 106699
Core_0_STLB_cause_Demand_Data_miss_rate 0.0146009
Core_0_STLB_cause_Demand_Instruction_miss 0
Core_0_STLB_cause_Demand_Instruction_miss_rate 0
Core_0_STLB_cause_L1D_Prefetch_miss 27223
Core_0_STLB_cause_L1D_Prefetch_miss_rate 0.00372524
Core_0_STLB_cause_L1D_Prefetch_Same_Page_miss 252
Core_0_STLB_cause_L1D_Prefetch_Same_Page_miss_rate 3.44841e-05
Core_0_STLB_cause_L1D_Prefetch_Cross_Page_miss 26971
Core_0_STLB_cause_L1D_Prefetch_Cross_Page_miss_rate 0.00369076
Core_0_STLB_cause_L1I_Prefetch_miss 0
Core_0_STLB_cause_L1I_Prefetch_miss_rate 0
Core_0_STLB_cause_Other_miss 0
Core_0_STLB_cause_Other_miss_rate 0
Core_0_STLB_Demand_miss 106699
Core_0_STLB_Demand_miss_rate 0.0146009
Core_0_STLB_L1D_Prefetch_miss 27223
Core_0_STLB_L1D_Prefetch_miss_rate 0.00372524
Core_0_STLB_Other_miss 0
Core_0_STLB_Other_miss_rate 0

========== vBerti-TLB Cross-page Flow Stats ==========

Core_0_vBerti_Requested 75191636
Core_0_vBerti_Cross_page_prefetch_in_Requested 9478194
Core_0_vBerti_Same_page_prefetch_in_Requested 65713442
Core_0_vBerti_Cross_page_prefetch_of_Requested 0.126054
Core_0_vBerti_Issued 15275285
Core_0_vBerti_InPQ_Same_page_prefetch 14522882
Core_0_vBerti_InPQ_Cross_page_prefetch 752403
Core_0_vBerti_PQ_Drop_Rate 0.796849
Core_0_vBerti_InPQ_Cross_page_prefetch_of_Requested 0.0100065
Core_0_vBerti_Cross_page_PQ_Drop_rate 0.920617
Core_0_vBerti_Cross_page_prefetch_of_Issued 0.0492562
Core_0_CP_PF_PQFULL_drop 8725791
Core_0_CP_PF_PQFULL_TLB_rescue_enqueued 3878367
Core_0_CP_PF_PQFULL_TLB_rescue_issued 3878367
Core_0_CP_PF_PQFULL_TLB_rescue_translated 3878367

========= DTLB_vBerti Prefetch Stats =========
Core_0_DTLB_demand_access 26356243
Core_0_DTLB_demand_hit 18668703
Core_0_DTLB_demand_miss 7687540
Core_0_DTLB_demand_mshr_merge 443393
Core_0_DTLB_demand_fill 7244380
Core_0_DTLB_demand_miss_rate 0.291678
Core_0_DTLB_demand_mpki 76.8754
Core_0_DTLB_vberti_prefetch_access 14026708
Core_0_DTLB_vberti_prefetch_hit 13883218
Core_0_DTLB_vberti_prefetch_miss 143490
Core_0_DTLB_vberti_prefetch_mshr_merge 79920
Core_0_DTLB_vberti_prefetch_fill 63338
Core_0_DTLB_vberti_prefetch_miss_rate 0.0102298
Core_0_DTLB_vberti_prefetch_mpki 1.4349

=== DTLB_vBerti Same/Cross-page Prefetch Stats ===
Core_0_DTLB_vberti_same_page_prefetch 11116285
Core_0_DTLB_vberti_same_page_prefetch_hit 11113463
Core_0_DTLB_vberti_same_page_prefetch_miss 2822
Core_0_DTLB_vberti_same_page_prefetch_mshr_merge 1288
Core_0_DTLB_vberti_same_page_prefetch_fill 1322
Core_0_DTLB_vberti_same_page_prefetch_miss_rate 0.000253862
Core_0_DTLB_vberti_same_page_prefetch_mpki 0.02822
Core_0_DTLB_vberti_cross_page_prefetch 2910423
Core_0_DTLB_vberti_cross_page_prefetch_hit 2769755
Core_0_DTLB_vberti_cross_page_prefetch_miss 140668
Core_0_DTLB_vberti_cross_page_prefetch_mshr_merge 78632
Core_0_DTLB_vberti_cross_page_prefetch_fill 62016
Core_0_DTLB_vberti_cross_page_prefetch_miss_rate 0.0483325
Core_0_DTLB_vberti_cross_page_prefetch_mpki 1.40668
Core_0_DTLB_same_page_prefetch_miss_rate 0.000253862
Core_0_DTLB_same_page_prefetch_mpki 0.02822
Core_0_DTLB_cross_page_prefetch_miss_rate 0.0483325
Core_0_DTLB_cross_page_prefetch_mpki 1.40668
Core_0_DTLB_cross_page_prefetch_issued 2910423
Core_0_DTLB_cross_page_prefetch_lookups 2910423
Core_0_DTLB_cross_page_prefetch_useful 13934
Core_0_DTLB_cross_page_prefetch_useless 48102
Core_0_DTLB_cross_page_prefetch_late 20
Core_0_DTLB_cross_page_prefetch_too_early 24470
Core_0_DTLB_cross_page_prefetch_too_early_among_fill 0.394576
Core_0_DTLB_cross_page_prefetch_too_early_among_useless 0.508711
Core_0_DTLB_cross_page_prefetch_pollution_evict 52529
Core_0_DTLB_cross_page_prefetch_pollution_demand 48280
Core_0_DTLB_cross_page_prefetch_pollution_among_prefetch_fill 0.847023
Core_0_DTLB_cross_page_prefetch_accuracy 0.00478762
Core_0_DTLB_cross_page_prefetch_coverage 0.00180926

========= STLB_vBerti Prefetch Stats =========
Core_0_STLB_demand_access 7244148
Core_0_STLB_demand_hit 7137449
Core_0_STLB_demand_miss 106699
Core_0_STLB_demand_mshr_merge 0
Core_0_STLB_demand_fill 106699
Core_0_STLB_demand_miss_rate 0.014729
Core_0_STLB_demand_mpki 1.06699
Core_0_STLB_vberti_prefetch_access 63570
Core_0_STLB_vberti_prefetch_hit 36347
Core_0_STLB_vberti_prefetch_miss 27223
Core_0_STLB_vberti_prefetch_mshr_merge 0
Core_0_STLB_vberti_prefetch_fill 252
Core_0_STLB_vberti_prefetch_miss_rate 0.428237
Core_0_STLB_vberti_prefetch_mpki 0.27223

=== STLB_vBerti Same/Cross-page Prefetch Stats ===
Core_0_STLB_vberti_same_page_prefetch 1534
Core_0_STLB_vberti_same_page_prefetch_hit 1282
Core_0_STLB_vberti_same_page_prefetch_miss 252
Core_0_STLB_vberti_same_page_prefetch_mshr_merge 0
Core_0_STLB_vberti_same_page_prefetch_fill 252
Core_0_STLB_vberti_same_page_prefetch_miss_rate 0.164276
Core_0_STLB_vberti_same_page_prefetch_mpki 0.00252
Core_0_STLB_vberti_cross_page_prefetch 62036
Core_0_STLB_vberti_cross_page_prefetch_hit 35065
Core_0_STLB_vberti_cross_page_prefetch_miss 26971
Core_0_STLB_vberti_cross_page_prefetch_mshr_merge 0
Core_0_STLB_vberti_cross_page_prefetch_fill 0
Core_0_STLB_vberti_cross_page_prefetch_miss_rate 0.434764
Core_0_STLB_vberti_cross_page_prefetch_mpki 0.26971
Core_0_STLB_same_page_prefetch_miss_rate 0.164276
Core_0_STLB_same_page_prefetch_mpki 0.00252
Core_0_STLB_cross_page_prefetch_miss_rate 0.434764
Core_0_STLB_cross_page_prefetch_mpki 0.26971
Core_0_STLB_cross_page_prefetch_issued 62036
Core_0_STLB_cross_page_prefetch_lookups 62036
Core_0_STLB_cross_page_prefetch_useful 7486
Core_0_STLB_cross_page_prefetch_useless 11230
Core_0_STLB_cross_page_prefetch_late 7486
Core_0_STLB_cross_page_prefetch_too_early 0
Core_0_STLB_cross_page_prefetch_too_early_among_fill 0
Core_0_STLB_cross_page_prefetch_too_early_among_useless 0
Core_0_STLB_cross_page_prefetch_pollution_evict 0
Core_0_STLB_cross_page_prefetch_pollution_demand 0
Core_0_STLB_cross_page_prefetch_pollution_among_prefetch_fill 0
Core_0_STLB_cross_page_prefetch_accuracy 0.120672
Core_0_STLB_cross_page_prefetch_coverage 0.0655603

========= STLB Cross-page Prefetch Buffer Stats =========
Core_0_STLB_raw_demand_miss 106699
Core_0_CP_PB_insert 26971
Core_0_CP_PB_demand_hit 7486
Core_0_STLB_PB_demand_miss 99213
Core_0_CP_PB_coverage 0.07016
Core_0_STLB_raw_demand_mpki 1.06699
Core_0_STLB_PB_demand_mpki 0.99213
Core_0_CP_PB_demand_hit_mpki 0.07486

Core_0_TLB_demand_miss_rate 0.00404834
Core_0_TLB_demand_mpki 1.06699
Core_0_TLB_same_page_prefetch_miss_rate 2.26694e-05
Core_0_TLB_same_page_prefetch_mpki 0.00252
Core_0_TLB_cross_page_prefetch_miss_rate 0.00926704
Core_0_TLB_cross_page_prefetch_mpki 0.26971
Core_0_TLB_cross_page_prefetch_issued 2910423
Core_0_TLB_cross_page_prefetch_lookups 2910423
Core_0_TLB_cross_page_prefetch_useful 13454
Core_0_TLB_cross_page_prefetch_useless 30286
Core_0_TLB_cross_page_prefetch_late 13
Core_0_TLB_cross_page_prefetch_too_early 14942
Core_0_TLB_cross_page_prefetch_too_early_among_fill 0.240938
Core_0_TLB_cross_page_prefetch_too_early_among_useless 0.493363
Core_0_TLB_cross_page_prefetch_accuracy 0.0046227
Core_0_TLB_cross_page_prefetch_coverage 0.111974
BERTI TO_L1: 89956227 TO_L2: 7939908 TO_L2_BC_MSHR: 2725091
BERTI AVG_LAT: 70.1419 NUM_TRACK_LATENCY: 12621246 NUM_CANT_TRACK_LATENCY: 0
BERTI CROSS_PAGE 12343925 NO_CROSS_PAGE: 85552210
BERTI FOUND_BERTI: 36071686 NO_FOUND_BERTI: 6901682
BERTI AVERAGE_ISSUED: 2.61885
