[VMEM] WARNING: physical memory size is smaller than virtual memory size.

*** ChampSim Multicore Out-of-Order Simulator ***
Warmup Instructions: 50000000
Simulation Instructions: 100000000
Number of CPUs: 1
Page size: 4096
Core 0: /data2/zcq/champsim_traces_gap/pr.kron-90B.champsimtrace.xz
VBerti Prefetcher
BERTI HASH ENTANGLING
BERTI IP MASK ffff
Off-chip DRAM Size: 16 GiB Channels: 1 Width: 64-bit Data Rate: 3205 MT/s
Warmup halting CPU 0 at instruction 50000003 cycle 29224569 for remainder of phase
Warmup finished CPU 0 instructions: 50000003 cycles: 29224569 cumulative IPC: 1.711 (Simulation time: 00 hr 08 min 53 sec)
Warmup complete CPU 0 instructions: 50000003 cycles: 29224569 cumulative IPC: 1.711 (Simulation time: 00 hr 08 min 53 sec)
Simulation CPU 0 warning: IPC 0.023079 < 0.05
Simulation CPU 0 warning: IPC 0.025108 < 0.05
Simulation CPU 0 warning: IPC 0.026254 < 0.05
Simulation CPU 0 warning: IPC 0.022546 < 0.05
Simulation CPU 0 warning: IPC 0.022152 < 0.05
Simulation CPU 0 warning: IPC 0.022626 < 0.05
Simulation CPU 0 warning: IPC 0.023293 < 0.05
Simulation CPU 0 warning: IPC 0.023833 < 0.05
Simulation CPU 0 warning: IPC 0.023486 < 0.05
Simulation CPU 0 warning: IPC 0.022914 < 0.05
Simulation CPU 0 warning: IPC 0.023738 < 0.05
Simulation CPU 0 warning: IPC 0.023805 < 0.05
Simulation CPU 0 warning: IPC 0.023462 < 0.05
Simulation CPU 0 warning: IPC 0.022811 < 0.05
Simulation CPU 0 warning: IPC 0.022808 < 0.05
Simulation CPU 0 warning: IPC 0.022863 < 0.05
Simulation CPU 0 warning: IPC 0.02285 < 0.05
Simulation CPU 0 warning: IPC 0.023431 < 0.05
Simulation CPU 0 warning: IPC 0.024449 < 0.05
Simulation CPU 0 warning: IPC 0.024146 < 0.05
Simulation CPU 0 warning: IPC 0.023796 < 0.05
Simulation CPU 0 warning: IPC 0.023816 < 0.05
Simulation CPU 0 warning: IPC 0.023107 < 0.05
Simulation CPU 0 warning: IPC 0.024124 < 0.05
Simulation CPU 0 warning: IPC 0.024363 < 0.05
Simulation CPU 0 warning: IPC 0.025222 < 0.05
Simulation CPU 0 warning: IPC 0.023803 < 0.05
Simulation CPU 0 warning: IPC 0.023384 < 0.05
Simulation CPU 0 warning: IPC 0.022871 < 0.05
Simulation CPU 0 warning: IPC 0.022076 < 0.05
Simulation CPU 0 warning: IPC 0.023543 < 0.05
Simulation CPU 0 warning: IPC 0.02547 < 0.05
Simulation CPU 0 warning: IPC 0.024615 < 0.05
Simulation CPU 0 warning: IPC 0.023006 < 0.05
Simulation CPU 0 warning: IPC 0.02331 < 0.05
Simulation CPU 0 warning: IPC 0.023255 < 0.05
Simulation CPU 0 warning: IPC 0.023773 < 0.05
Simulation CPU 0 warning: IPC 0.024236 < 0.05
Simulation CPU 0 warning: IPC 0.023883 < 0.05
Simulation CPU 0 warning: IPC 0.025117 < 0.05
Simulation CPU 0 warning: IPC 0.024549 < 0.05
Simulation CPU 0 warning: IPC 0.024531 < 0.05
Simulation CPU 0 warning: IPC 0.02277 < 0.05
Simulation CPU 0 warning: IPC 0.024779 < 0.05
Simulation CPU 0 warning: IPC 0.022961 < 0.05
Simulation CPU 0 warning: IPC 0.02383 < 0.05
Simulation CPU 0 warning: IPC 0.022726 < 0.05
Simulation CPU 0 warning: IPC 0.022168 < 0.05
Simulation CPU 0 warning: IPC 0.024454 < 0.05
Simulation CPU 0 warning: IPC 0.022806 < 0.05
Simulation CPU 0 warning: IPC 0.023722 < 0.05
Simulation CPU 0 warning: IPC 0.023026 < 0.05
Simulation CPU 0 warning: IPC 0.024183 < 0.05
Simulation CPU 0 warning: IPC 0.023001 < 0.05
Simulation CPU 0 warning: IPC 0.023322 < 0.05
Simulation CPU 0 warning: IPC 0.023381 < 0.05
Simulation CPU 0 warning: IPC 0.022768 < 0.05
Simulation CPU 0 warning: IPC 0.023646 < 0.05
Simulation CPU 0 warning: IPC 0.022437 < 0.05
Simulation CPU 0 warning: IPC 0.024503 < 0.05
Simulation CPU 0 warning: IPC 0.023217 < 0.05
Simulation CPU 0 warning: IPC 0.022832 < 0.05
Simulation CPU 0 warning: IPC 0.02327 < 0.05
Simulation CPU 0 warning: IPC 0.022124 < 0.05
Simulation CPU 0 warning: IPC 0.023158 < 0.05
Simulation CPU 0 warning: IPC 0.022732 < 0.05
Simulation CPU 0 warning: IPC 0.023853 < 0.05
Simulation CPU 0 warning: IPC 0.024757 < 0.05
Simulation CPU 0 warning: IPC 0.024674 < 0.05
Simulation CPU 0 warning: IPC 0.024551 < 0.05
Simulation CPU 0 warning: IPC 0.023702 < 0.05
Simulation CPU 0 warning: IPC 0.023718 < 0.05
Simulation CPU 0 warning: IPC 0.022329 < 0.05
Simulation CPU 0 warning: IPC 0.022322 < 0.05
Simulation CPU 0 warning: IPC 0.022062 < 0.05
Simulation CPU 0 warning: IPC 0.023921 < 0.05
Simulation CPU 0 warning: IPC 0.02321 < 0.05
Simulation CPU 0 warning: IPC 0.022573 < 0.05
Simulation CPU 0 warning: IPC 0.023102 < 0.05
Simulation CPU 0 warning: IPC 0.023211 < 0.05
Simulation CPU 0 warning: IPC 0.024491 < 0.05
Simulation CPU 0 warning: IPC 0.022548 < 0.05
Simulation CPU 0 warning: IPC 0.023992 < 0.05
Simulation CPU 0 warning: IPC 0.023565 < 0.05
Simulation CPU 0 warning: IPC 0.024008 < 0.05
Simulation CPU 0 warning: IPC 0.024491 < 0.05
Simulation CPU 0 warning: IPC 0.024315 < 0.05
Simulation CPU 0 warning: IPC 0.023415 < 0.05
Simulation CPU 0 warning: IPC 0.024775 < 0.05
Simulation CPU 0 warning: IPC 0.023507 < 0.05
Simulation CPU 0 warning: IPC 0.02214 < 0.05
Simulation CPU 0 warning: IPC 0.024394 < 0.05
Simulation CPU 0 warning: IPC 0.022337 < 0.05
Simulation CPU 0 warning: IPC 0.022757 < 0.05
Simulation CPU 0 warning: IPC 0.024207 < 0.05
Simulation CPU 0 warning: IPC 0.022689 < 0.05
Simulation CPU 0 warning: IPC 0.022053 < 0.05
Simulation CPU 0 warning: IPC 0.02298 < 0.05
Simulation CPU 0 warning: IPC 0.023442 < 0.05
Simulation CPU 0 warning: IPC 0.023899 < 0.05
Simulation CPU 0 warning: IPC 0.022973 < 0.05
Simulation CPU 0 warning: IPC 0.023756 < 0.05
Simulation CPU 0 warning: IPC 0.023487 < 0.05
Simulation CPU 0 warning: IPC 0.023399 < 0.05
Simulation CPU 0 warning: IPC 0.024832 < 0.05
Simulation CPU 0 warning: IPC 0.022859 < 0.05
Simulation CPU 0 warning: IPC 0.02361 < 0.05
Simulation CPU 0 warning: IPC 0.023657 < 0.05
Simulation CPU 0 warning: IPC 0.022912 < 0.05
Simulation CPU 0 warning: IPC 0.023119 < 0.05
Simulation CPU 0 warning: IPC 0.022395 < 0.05
Simulation CPU 0 warning: IPC 0.022429 < 0.05
Simulation CPU 0 warning: IPC 0.023808 < 0.05
Simulation CPU 0 warning: IPC 0.024309 < 0.05
Simulation CPU 0 warning: IPC 0.02412 < 0.05
Simulation CPU 0 warning: IPC 0.023751 < 0.05
Simulation CPU 0 warning: IPC 0.023884 < 0.05
Simulation CPU 0 warning: IPC 0.02353 < 0.05
Simulation CPU 0 warning: IPC 0.025421 < 0.05
Simulation CPU 0 warning: IPC 0.024462 < 0.05
Simulation CPU 0 warning: IPC 0.023758 < 0.05
Simulation CPU 0 warning: IPC 0.023832 < 0.05
Simulation CPU 0 warning: IPC 0.02428 < 0.05
Simulation CPU 0 warning: IPC 0.024394 < 0.05
Simulation CPU 0 warning: IPC 0.024331 < 0.05
Simulation CPU 0 warning: IPC 0.022934 < 0.05
Simulation CPU 0 warning: IPC 0.023553 < 0.05
Simulation CPU 0 warning: IPC 0.024514 < 0.05
Simulation CPU 0 warning: IPC 0.024071 < 0.05
Simulation CPU 0 warning: IPC 0.024878 < 0.05
Simulation CPU 0 warning: IPC 0.022892 < 0.05
Simulation CPU 0 warning: IPC 0.022121 < 0.05
Simulation CPU 0 warning: IPC 0.022986 < 0.05
Simulation CPU 0 warning: IPC 0.024598 < 0.05
Simulation CPU 0 warning: IPC 0.024113 < 0.05
Simulation CPU 0 warning: IPC 0.022825 < 0.05
Simulation CPU 0 warning: IPC 0.022573 < 0.05
Simulation CPU 0 warning: IPC 0.024631 < 0.05
Simulation CPU 0 warning: IPC 0.022248 < 0.05
Simulation CPU 0 warning: IPC 0.022856 < 0.05
Simulation CPU 0 warning: IPC 0.024742 < 0.05
Simulation CPU 0 warning: IPC 0.023522 < 0.05
Simulation CPU 0 warning: IPC 0.023318 < 0.05
Simulation CPU 0 warning: IPC 0.024619 < 0.05
Simulation CPU 0 warning: IPC 0.022884 < 0.05
Simulation CPU 0 warning: IPC 0.022576 < 0.05
Simulation CPU 0 warning: IPC 0.022626 < 0.05
Simulation CPU 0 warning: IPC 0.022677 < 0.05
Simulation CPU 0 warning: IPC 0.02276 < 0.05
Simulation CPU 0 warning: IPC 0.022533 < 0.05
Simulation CPU 0 warning: IPC 0.02286 < 0.05
Simulation CPU 0 warning: IPC 0.023237 < 0.05
Simulation CPU 0 warning: IPC 0.023731 < 0.05
Simulation CPU 0 warning: IPC 0.023935 < 0.05
Simulation CPU 0 warning: IPC 0.024067 < 0.05
Simulation CPU 0 warning: IPC 0.023919 < 0.05
Simulation CPU 0 warning: IPC 0.024029 < 0.05
Simulation CPU 0 warning: IPC 0.022123 < 0.05
Simulation CPU 0 warning: IPC 0.021068 < 0.05
Simulation CPU 0 warning: IPC 0.022994 < 0.05
Simulation CPU 0 warning: IPC 0.022618 < 0.05
Simulation CPU 0 warning: IPC 0.023434 < 0.05
Simulation CPU 0 warning: IPC 0.023157 < 0.05
Simulation CPU 0 warning: IPC 0.022967 < 0.05
Simulation CPU 0 warning: IPC 0.021981 < 0.05
Simulation CPU 0 warning: IPC 0.022451 < 0.05
Simulation CPU 0 warning: IPC 0.023045 < 0.05
Simulation CPU 0 warning: IPC 0.022953 < 0.05
Simulation CPU 0 warning: IPC 0.021066 < 0.05
Simulation CPU 0 warning: IPC 0.023129 < 0.05
Simulation CPU 0 warning: IPC 0.02457 < 0.05
Simulation CPU 0 warning: IPC 0.024067 < 0.05
Simulation CPU 0 warning: IPC 0.022798 < 0.05
Simulation CPU 0 warning: IPC 0.022009 < 0.05
Simulation CPU 0 warning: IPC 0.023057 < 0.05
Simulation CPU 0 warning: IPC 0.023398 < 0.05
Simulation CPU 0 warning: IPC 0.022533 < 0.05
Simulation CPU 0 warning: IPC 0.023787 < 0.05
Simulation CPU 0 warning: IPC 0.023234 < 0.05
Simulation CPU 0 warning: IPC 0.023571 < 0.05
Simulation CPU 0 warning: IPC 0.022814 < 0.05
Simulation CPU 0 warning: IPC 0.022963 < 0.05
Simulation CPU 0 warning: IPC 0.022904 < 0.05
Simulation CPU 0 warning: IPC 0.023426 < 0.05
Simulation CPU 0 warning: IPC 0.024172 < 0.05
Simulation CPU 0 warning: IPC 0.025143 < 0.05
Simulation CPU 0 warning: IPC 0.022595 < 0.05
Simulation CPU 0 warning: IPC 0.023089 < 0.05
Simulation CPU 0 warning: IPC 0.023664 < 0.05
Simulation CPU 0 warning: IPC 0.024058 < 0.05
Simulation CPU 0 warning: IPC 0.023849 < 0.05
Simulation CPU 0 warning: IPC 0.023258 < 0.05
Simulation CPU 0 warning: IPC 0.023778 < 0.05
Simulation CPU 0 warning: IPC 0.02465 < 0.05
Simulation CPU 0 warning: IPC 0.024499 < 0.05
Simulation CPU 0 warning: IPC 0.023125 < 0.05
Simulation CPU 0 warning: IPC 0.023325 < 0.05
Simulation CPU 0 warning: IPC 0.022513 < 0.05
Simulation CPU 0 warning: IPC 0.022967 < 0.05
Simulation CPU 0 warning: IPC 0.024333 < 0.05
Simulation CPU 0 warning: IPC 0.022573 < 0.05
Simulation CPU 0 warning: IPC 0.022845 < 0.05
Simulation CPU 0 warning: IPC 0.022127 < 0.05
Simulation CPU 0 warning: IPC 0.022818 < 0.05
Simulation CPU 0 warning: IPC 0.024492 < 0.05
Simulation CPU 0 warning: IPC 0.023499 < 0.05
Simulation CPU 0 warning: IPC 0.023494 < 0.05
Simulation CPU 0 warning: IPC 0.025241 < 0.05
Simulation CPU 0 warning: IPC 0.023114 < 0.05
Simulation CPU 0 warning: IPC 0.023816 < 0.05
Simulation CPU 0 warning: IPC 0.022928 < 0.05
Simulation CPU 0 warning: IPC 0.022557 < 0.05
Simulation CPU 0 warning: IPC 0.024063 < 0.05
Simulation CPU 0 warning: IPC 0.024545 < 0.05
Simulation CPU 0 warning: IPC 0.022661 < 0.05
Simulation CPU 0 warning: IPC 0.024231 < 0.05
Simulation CPU 0 warning: IPC 0.024739 < 0.05
Simulation CPU 0 warning: IPC 0.023482 < 0.05
Simulation CPU 0 warning: IPC 0.023781 < 0.05
Simulation CPU 0 warning: IPC 0.02317 < 0.05
Simulation CPU 0 warning: IPC 0.023088 < 0.05
Simulation CPU 0 warning: IPC 0.023491 < 0.05
Simulation CPU 0 warning: IPC 0.02488 < 0.05
Simulation CPU 0 warning: IPC 0.023113 < 0.05
Simulation CPU 0 warning: IPC 0.023479 < 0.05
Simulation CPU 0 warning: IPC 0.024188 < 0.05
Simulation CPU 0 warning: IPC 0.023589 < 0.05
Simulation CPU 0 warning: IPC 0.024306 < 0.05
Simulation CPU 0 warning: IPC 0.025161 < 0.05
Simulation CPU 0 warning: IPC 0.022788 < 0.05
Simulation CPU 0 warning: IPC 0.023235 < 0.05
Simulation CPU 0 warning: IPC 0.024076 < 0.05
Simulation CPU 0 warning: IPC 0.023717 < 0.05
Simulation CPU 0 warning: IPC 0.023483 < 0.05
Simulation CPU 0 warning: IPC 0.02273 < 0.05
Simulation CPU 0 warning: IPC 0.024282 < 0.05
Simulation CPU 0 warning: IPC 0.023625 < 0.05
Simulation CPU 0 warning: IPC 0.023279 < 0.05
Simulation CPU 0 warning: IPC 0.02339 < 0.05
Simulation CPU 0 warning: IPC 0.023011 < 0.05
Simulation CPU 0 warning: IPC 0.023978 < 0.05
Simulation CPU 0 warning: IPC 0.023996 < 0.05
Simulation CPU 0 warning: IPC 0.024572 < 0.05
Simulation CPU 0 warning: IPC 0.022348 < 0.05
Simulation CPU 0 warning: IPC 0.021777 < 0.05
Simulation CPU 0 warning: IPC 0.023163 < 0.05
Simulation CPU 0 warning: IPC 0.023931 < 0.05
Simulation CPU 0 warning: IPC 0.022053 < 0.05
Simulation CPU 0 warning: IPC 0.02219 < 0.05
Simulation CPU 0 warning: IPC 0.023309 < 0.05
Simulation CPU 0 warning: IPC 0.022407 < 0.05
Simulation CPU 0 warning: IPC 0.022903 < 0.05
Simulation CPU 0 warning: IPC 0.02438 < 0.05
Simulation CPU 0 warning: IPC 0.024652 < 0.05
Simulation CPU 0 warning: IPC 0.024167 < 0.05
Simulation CPU 0 warning: IPC 0.023235 < 0.05
Simulation CPU 0 warning: IPC 0.023786 < 0.05
Simulation CPU 0 warning: IPC 0.0227 < 0.05
Simulation CPU 0 warning: IPC 0.023949 < 0.05
Simulation CPU 0 warning: IPC 0.023054 < 0.05
Simulation CPU 0 warning: IPC 0.023682 < 0.05
Simulation CPU 0 warning: IPC 0.023704 < 0.05
Simulation CPU 0 warning: IPC 0.024641 < 0.05
Simulation CPU 0 warning: IPC 0.023838 < 0.05
Simulation CPU 0 warning: IPC 0.023092 < 0.05
Simulation CPU 0 warning: IPC 0.023386 < 0.05
Simulation CPU 0 warning: IPC 0.021863 < 0.05
Simulation CPU 0 warning: IPC 0.02466 < 0.05
Simulation CPU 0 warning: IPC 0.023319 < 0.05
Simulation CPU 0 warning: IPC 0.02401 < 0.05
Simulation CPU 0 warning: IPC 0.022236 < 0.05
Simulation CPU 0 warning: IPC 0.023022 < 0.05
Simulation CPU 0 warning: IPC 0.025077 < 0.05
Simulation CPU 0 warning: IPC 0.023104 < 0.05
Simulation CPU 0 warning: IPC 0.023447 < 0.05
Simulation CPU 0 warning: IPC 0.023367 < 0.05
Simulation CPU 0 warning: IPC 0.023471 < 0.05
Simulation CPU 0 warning: IPC 0.023514 < 0.05
Simulation CPU 0 warning: IPC 0.02251 < 0.05
Simulation CPU 0 warning: IPC 0.023778 < 0.05
Simulation CPU 0 warning: IPC 0.024298 < 0.05
Simulation CPU 0 warning: IPC 0.022371 < 0.05
Simulation CPU 0 warning: IPC 0.024314 < 0.05
Simulation CPU 0 warning: IPC 0.023805 < 0.05
Simulation CPU 0 warning: IPC 0.022284 < 0.05
Simulation CPU 0 warning: IPC 0.022298 < 0.05
Simulation CPU 0 warning: IPC 0.023948 < 0.05
Simulation CPU 0 warning: IPC 0.024289 < 0.05
Simulation CPU 0 warning: IPC 0.023563 < 0.05
Simulation CPU 0 warning: IPC 0.023354 < 0.05
Simulation CPU 0 warning: IPC 0.024201 < 0.05
Simulation CPU 0 warning: IPC 0.023688 < 0.05
Simulation CPU 0 warning: IPC 0.02457 < 0.05
Simulation CPU 0 warning: IPC 0.02378 < 0.05
Simulation CPU 0 warning: IPC 0.022234 < 0.05
Simulation CPU 0 warning: IPC 0.024618 < 0.05
Simulation CPU 0 warning: IPC 0.023184 < 0.05
Simulation CPU 0 warning: IPC 0.024491 < 0.05
Simulation CPU 0 warning: IPC 0.022981 < 0.05
Simulation CPU 0 warning: IPC 0.023491 < 0.05
Simulation CPU 0 warning: IPC 0.023539 < 0.05
Simulation CPU 0 warning: IPC 0.024406 < 0.05
Simulation CPU 0 warning: IPC 0.024909 < 0.05
Simulation CPU 0 warning: IPC 0.023934 < 0.05
Simulation CPU 0 warning: IPC 0.023129 < 0.05
Simulation CPU 0 warning: IPC 0.022555 < 0.05
Simulation CPU 0 warning: IPC 0.023169 < 0.05
Simulation CPU 0 warning: IPC 0.02401 < 0.05
Simulation CPU 0 warning: IPC 0.024107 < 0.05
Simulation CPU 0 warning: IPC 0.023457 < 0.05
Simulation CPU 0 warning: IPC 0.023616 < 0.05
Simulation CPU 0 warning: IPC 0.02549 < 0.05
Simulation CPU 0 warning: IPC 0.023793 < 0.05
Simulation CPU 0 warning: IPC 0.023519 < 0.05
Simulation CPU 0 warning: IPC 0.024782 < 0.05
Simulation CPU 0 warning: IPC 0.02401 < 0.05
Simulation CPU 0 warning: IPC 0.024332 < 0.05
Simulation CPU 0 warning: IPC 0.022772 < 0.05
Simulation CPU 0 warning: IPC 0.02429 < 0.05
Simulation CPU 0 warning: IPC 0.024358 < 0.05
Simulation CPU 0 warning: IPC 0.025746 < 0.05
Simulation CPU 0 warning: IPC 0.024353 < 0.05
Simulation CPU 0 warning: IPC 0.024984 < 0.05
Simulation CPU 0 warning: IPC 0.025071 < 0.05
Simulation CPU 0 warning: IPC 0.024472 < 0.05
Simulation CPU 0 warning: IPC 0.022145 < 0.05
Simulation CPU 0 warning: IPC 0.023042 < 0.05
Simulation CPU 0 warning: IPC 0.02241 < 0.05
Simulation CPU 0 warning: IPC 0.023932 < 0.05
Simulation CPU 0 warning: IPC 0.023076 < 0.05
Simulation CPU 0 warning: IPC 0.023211 < 0.05
Simulation CPU 0 warning: IPC 0.024827 < 0.05
Simulation CPU 0 warning: IPC 0.022378 < 0.05
Simulation CPU 0 warning: IPC 0.024641 < 0.05
Simulation CPU 0 warning: IPC 0.023118 < 0.05
Simulation CPU 0 warning: IPC 0.022511 < 0.05
Simulation CPU 0 warning: IPC 0.021652 < 0.05
Simulation CPU 0 warning: IPC 0.022965 < 0.05
Simulation CPU 0 warning: IPC 0.022774 < 0.05
Simulation CPU 0 warning: IPC 0.024814 < 0.05
Simulation CPU 0 warning: IPC 0.023155 < 0.05
Simulation CPU 0 warning: IPC 0.024722 < 0.05
Simulation CPU 0 warning: IPC 0.024505 < 0.05
Simulation CPU 0 warning: IPC 0.024792 < 0.05
Simulation CPU 0 warning: IPC 0.02455 < 0.05
Simulation CPU 0 warning: IPC 0.023991 < 0.05
Simulation CPU 0 warning: IPC 0.023528 < 0.05
Simulation CPU 0 warning: IPC 0.023222 < 0.05
Simulation CPU 0 warning: IPC 0.023504 < 0.05
Simulation CPU 0 warning: IPC 0.023063 < 0.05
Simulation CPU 0 warning: IPC 0.024819 < 0.05
Simulation CPU 0 warning: IPC 0.022085 < 0.05
Simulation CPU 0 warning: IPC 0.023729 < 0.05
Simulation CPU 0 warning: IPC 0.024501 < 0.05
Simulation CPU 0 warning: IPC 0.024527 < 0.05
Simulation CPU 0 warning: IPC 0.02305 < 0.05
Simulation CPU 0 warning: IPC 0.024956 < 0.05
Simulation CPU 0 warning: IPC 0.025286 < 0.05
Simulation CPU 0 warning: IPC 0.024604 < 0.05
Simulation CPU 0 warning: IPC 0.024283 < 0.05
Simulation CPU 0 warning: IPC 0.024289 < 0.05
Simulation CPU 0 warning: IPC 0.024208 < 0.05
Simulation CPU 0 warning: IPC 0.023746 < 0.05
Simulation CPU 0 warning: IPC 0.024306 < 0.05
Simulation CPU 0 warning: IPC 0.024243 < 0.05
Simulation CPU 0 warning: IPC 0.022149 < 0.05
Simulation CPU 0 warning: IPC 0.023939 < 0.05
Simulation CPU 0 warning: IPC 0.023747 < 0.05
Simulation CPU 0 warning: IPC 0.023839 < 0.05
Simulation CPU 0 warning: IPC 0.024562 < 0.05
Simulation CPU 0 warning: IPC 0.023026 < 0.05
Simulation CPU 0 warning: IPC 0.023719 < 0.05
Simulation CPU 0 warning: IPC 0.022033 < 0.05
Simulation CPU 0 warning: IPC 0.022232 < 0.05
Simulation CPU 0 warning: IPC 0.022678 < 0.05
Simulation CPU 0 warning: IPC 0.023029 < 0.05
Simulation CPU 0 warning: IPC 0.024064 < 0.05
Simulation CPU 0 warning: IPC 0.025113 < 0.05
Simulation CPU 0 warning: IPC 0.023433 < 0.05
Simulation CPU 0 warning: IPC 0.024133 < 0.05
Simulation CPU 0 warning: IPC 0.024023 < 0.05
Simulation CPU 0 warning: IPC 0.022005 < 0.05
Simulation CPU 0 warning: IPC 0.024038 < 0.05
Simulation CPU 0 warning: IPC 0.023984 < 0.05
Simulation CPU 0 warning: IPC 0.023724 < 0.05
Simulation CPU 0 warning: IPC 0.023936 < 0.05
Simulation CPU 0 warning: IPC 0.02217 < 0.05
Simulation CPU 0 warning: IPC 0.022555 < 0.05
Simulation CPU 0 warning: IPC 0.02477 < 0.05
Simulation CPU 0 warning: IPC 0.02346 < 0.05
Simulation CPU 0 warning: IPC 0.023072 < 0.05
Simulation CPU 0 warning: IPC 0.023745 < 0.05
Simulation CPU 0 warning: IPC 0.024244 < 0.05
Simulation CPU 0 warning: IPC 0.023851 < 0.05
Simulation CPU 0 warning: IPC 0.024734 < 0.05
Simulation CPU 0 warning: IPC 0.02435 < 0.05
Simulation CPU 0 warning: IPC 0.024611 < 0.05
Simulation CPU 0 warning: IPC 0.022798 < 0.05
Simulation CPU 0 warning: IPC 0.023736 < 0.05
Simulation CPU 0 warning: IPC 0.024077 < 0.05
Simulation CPU 0 warning: IPC 0.024224 < 0.05
Simulation CPU 0 warning: IPC 0.02398 < 0.05
Simulation CPU 0 warning: IPC 0.023088 < 0.05
Simulation CPU 0 warning: IPC 0.024233 < 0.05
Simulation CPU 0 warning: IPC 0.022787 < 0.05
Simulation CPU 0 warning: IPC 0.023351 < 0.05
Simulation CPU 0 warning: IPC 0.024129 < 0.05
Simulation CPU 0 warning: IPC 0.02269 < 0.05
Simulation CPU 0 warning: IPC 0.022661 < 0.05
Simulation CPU 0 warning: IPC 0.023036 < 0.05
Simulation CPU 0 warning: IPC 0.023692 < 0.05
Simulation CPU 0 warning: IPC 0.024389 < 0.05
Simulation CPU 0 warning: IPC 0.023018 < 0.05
Simulation CPU 0 warning: IPC 0.022361 < 0.05
Simulation CPU 0 warning: IPC 0.025565 < 0.05
Simulation CPU 0 warning: IPC 0.021826 < 0.05
Simulation CPU 0 warning: IPC 0.024779 < 0.05
Simulation CPU 0 warning: IPC 0.024146 < 0.05
Simulation CPU 0 warning: IPC 0.023879 < 0.05
Simulation CPU 0 warning: IPC 0.024067 < 0.05
Simulation CPU 0 warning: IPC 0.023509 < 0.05
Simulation CPU 0 warning: IPC 0.023693 < 0.05
Simulation CPU 0 warning: IPC 0.024746 < 0.05
Simulation CPU 0 warning: IPC 0.024856 < 0.05
Simulation finished CPU 0 instructions: 100000002 cycles: 4244664472 cumulative IPC: 0.02356 (Simulation time: 07 hr 04 min 55 sec)
Simulation complete CPU 0 instructions: 100000002 cycles: 4244664472 cumulative IPC: 0.02356 (Simulation time: 07 hr 04 min 55 sec)

ChampSim completed all CPUs

=== Simulation ===
CPU 0 runs /data2/zcq/champsim_traces_gap/pr.kron-90B.champsimtrace.xz

Region of Interest Statistics

CPU 0 cumulative IPC: 0.02356 instructions: 100000002 cycles: 4244664472
CPU 0 Branch Prediction Accuracy: 97.3% MPKI: 5.276 Average ROB Occupancy at Mispredict: 240.3
Branch type MPKI
BRANCH_DIRECT_JUMP: 0
BRANCH_INDIRECT: 0
BRANCH_CONDITIONAL: 5.276
BRANCH_DIRECT_CALL: 0
BRANCH_INDIRECT_CALL: 0
BRANCH_RETURN: 0

cpu0->cpu0_STLB TOTAL        ACCESS:   17065075 HIT:     259186 MISS:   16805889 MSHR_MERGE:          0
cpu0->cpu0_STLB LOAD         ACCESS:   17065075 HIT:     259186 MISS:   16805889 MSHR_MERGE:          0
cpu0->cpu0_STLB RFO          ACCESS:          0 HIT:          0 MISS:          0 MSHR_MERGE:          0
cpu0->cpu0_STLB PREFETCH     ACCESS:          0 HIT:          0 MISS:          0 MSHR_MERGE:          0
cpu0->cpu0_STLB WRITE        ACCESS:          0 HIT:          0 MISS:          0 MSHR_MERGE:          0
cpu0->cpu0_STLB TRANSLATION  ACCESS:          0 HIT:          0 MISS:          0 MSHR_MERGE:          0
cpu0->cpu0_STLB PREFETCH REQUESTED:          0 ISSUED:          0 USEFUL:          0 USELESS:          0 LATE:          0 TOO_EARLY:          0
cpu0->cpu0_STLB AVERAGE MISS LATENCY: 35.34 cycles
cpu0->cpu0_L2C TOTAL        ACCESS:   39702097 HIT:    8366827 MISS:   31335270 MSHR_MERGE:      26978
cpu0->cpu0_L2C LOAD         ACCESS:   18099517 HIT:     266150 MISS:   17833367 MSHR_MERGE:        999
cpu0->cpu0_L2C RFO          ACCESS:      15676 HIT:      13519 MISS:       2157 MSHR_MERGE:          0
cpu0->cpu0_L2C PREFETCH     ACCESS:    6806900 HIT:    5499671 MISS:    1307229 MSHR_MERGE:      25979
cpu0->cpu0_L2C WRITE        ACCESS:      64081 HIT:      64075 MISS:          6 MSHR_MERGE:          0
cpu0->cpu0_L2C TRANSLATION  ACCESS:   14715923 HIT:    2523412 MISS:   12192511 MSHR_MERGE:          0
cpu0->cpu0_L2C PREFETCH REQUESTED:    3415820 ISSUED:    3415814 USEFUL:     995311 USELESS:      39364 LATE:        956 TOO_EARLY:       3931
cpu0->cpu0_L2C AVERAGE MISS LATENCY: 115.6 cycles
cpu0->cpu0_L1I TOTAL        ACCESS:   14893988 HIT:   14893988 MISS:          0 MSHR_MERGE:          0
cpu0->cpu0_L1I LOAD         ACCESS:   14893988 HIT:   14893988 MISS:          0 MSHR_MERGE:          0
cpu0->cpu0_L1I RFO          ACCESS:          0 HIT:          0 MISS:          0 MSHR_MERGE:          0
cpu0->cpu0_L1I PREFETCH     ACCESS:          0 HIT:          0 MISS:          0 MSHR_MERGE:          0
cpu0->cpu0_L1I WRITE        ACCESS:          0 HIT:          0 MISS:          0 MSHR_MERGE:          0
cpu0->cpu0_L1I TRANSLATION  ACCESS:          0 HIT:          0 MISS:          0 MSHR_MERGE:          0
cpu0->cpu0_L1I PREFETCH REQUESTED:          0 ISSUED:          0 USEFUL:          0 USELESS:          0 LATE:          0 TOO_EARLY:          0
cpu0->cpu0_L1I AVERAGE MISS LATENCY: - cycles
cpu0->cpu0_L1D TOTAL        ACCESS:   99731521 HIT:   63394286 MISS:   36337235 MSHR_MERGE:     112528
cpu0->cpu0_L1D LOAD         ACCESS:   37625436 HIT:   19468632 MISS:   18156804 MSHR_MERGE:      57288
cpu0->cpu0_L1D RFO          ACCESS:          0 HIT:          0 MISS:          0 MSHR_MERGE:          0
cpu0->cpu0_L1D PREFETCH     ACCESS:   22367730 HIT:   18950204 MISS:    3417526 MSHR_MERGE:      23934
cpu0->cpu0_L1D WRITE        ACCESS:     628321 HIT:     581343 MISS:      46978 MSHR_MERGE:      31302
cpu0->cpu0_L1D TRANSLATION  ACCESS:   39110034 HIT:   24394107 MISS:   14715927 MSHR_MERGE:          4
cpu0->cpu0_L1D PREFETCH REQUESTED:   23958716 ISSUED:   22367722 USEFUL:    1225274 USELESS:      42995 LATE:       4311 TOO_EARLY:       2264
cpu0->cpu0_L1D AVERAGE MISS LATENCY: 114.7 cycles
cpu0->cpu0_ITLB TOTAL        ACCESS:   14893988 HIT:   14893988 MISS:          0 MSHR_MERGE:          0
cpu0->cpu0_ITLB LOAD         ACCESS:   14893988 HIT:   14893988 MISS:          0 MSHR_MERGE:          0
cpu0->cpu0_ITLB RFO          ACCESS:          0 HIT:          0 MISS:          0 MSHR_MERGE:          0
cpu0->cpu0_ITLB PREFETCH     ACCESS:          0 HIT:          0 MISS:          0 MSHR_MERGE:          0
cpu0->cpu0_ITLB WRITE        ACCESS:          0 HIT:          0 MISS:          0 MSHR_MERGE:          0
cpu0->cpu0_ITLB TRANSLATION  ACCESS:          0 HIT:          0 MISS:          0 MSHR_MERGE:          0
cpu0->cpu0_ITLB PREFETCH REQUESTED:          0 ISSUED:          0 USEFUL:          0 USELESS:          0 LATE:          0 TOO_EARLY:          0
cpu0->cpu0_ITLB AVERAGE MISS LATENCY: - cycles
cpu0->cpu0_DTLB TOTAL        ACCESS:   58576578 HIT:   41460934 MISS:   17115644 MSHR_MERGE:      50570
cpu0->cpu0_DTLB LOAD         ACCESS:   58576578 HIT:   41460934 MISS:   17115644 MSHR_MERGE:      50570
cpu0->cpu0_DTLB RFO          ACCESS:          0 HIT:          0 MISS:          0 MSHR_MERGE:          0
cpu0->cpu0_DTLB PREFETCH     ACCESS:          0 HIT:          0 MISS:          0 MSHR_MERGE:          0
cpu0->cpu0_DTLB WRITE        ACCESS:          0 HIT:          0 MISS:          0 MSHR_MERGE:          0
cpu0->cpu0_DTLB TRANSLATION  ACCESS:          0 HIT:          0 MISS:          0 MSHR_MERGE:          0
cpu0->cpu0_DTLB PREFETCH REQUESTED:          0 ISSUED:          0 USEFUL:          0 USELESS:          0 LATE:          0 TOO_EARLY:          0
cpu0->cpu0_DTLB AVERAGE MISS LATENCY: 40.78 cycles
cpu0->LLC TOTAL        ACCESS:   31346495 HIT:   13333761 MISS:   18012734 MSHR_MERGE:          1
cpu0->LLC LOAD         ACCESS:   17832368 HIT:    1553447 MISS:   16278921 MSHR_MERGE:          0
cpu0->LLC RFO          ACCESS:       2157 HIT:       2132 MISS:         25 MSHR_MERGE:          0
cpu0->LLC PREFETCH     ACCESS:    1281250 HIT:       1136 MISS:    1280114 MSHR_MERGE:          1
cpu0->LLC WRITE        ACCESS:      38209 HIT:      11601 MISS:      26608 MSHR_MERGE:          0
cpu0->LLC TRANSLATION  ACCESS:   12192511 HIT:   11765445 MISS:     427066 MSHR_MERGE:          0
cpu0->LLC PREFETCH REQUESTED:          0 ISSUED:          0 USEFUL:          0 USELESS:          0 LATE:          0 TOO_EARLY:          0
cpu0->LLC AVERAGE MISS LATENCY: 179.6 cycles

DRAM Statistics

Channel 0 RQ ROW_BUFFER_HIT:      26167
  ROW_BUFFER_MISS:   17959958
  AVG DBUS CONGESTED CYCLE: 14.55
Channel 0 WQ ROW_BUFFER_HIT:       5233
  ROW_BUFFER_MISS:      29244
  FULL:          0
Channel 0 REFRESHES ISSUED:     353722

[ROI Statistics]
[System Configuration]
num_cpus 1
cpu_freq 4000
fetch_width 6
decode_width 6
dispatch_width 6
execute_width 6
lq_width 2
sq_width 2
retire_width 6
scheduler_size 128
branch_mispredict_penalty 15
rob_size 352
lq_size 128
sq_size 72
ifetch_buffer_size 64
decode_buffer_size 32
dispatch_buffer_size 32
register_file_size 288
decode_latency 1
dispatch_latency 1
schedule_latency 1
execute_latency 1
page_size 4096
block_size 64
core_0_itlb_set 16
core_0_itlb_way 4
core_0_itlb_rq_size 16
core_0_itlb_wq_size 16
core_0_itlb_pq_size 0
core_0_itlb_mshr_size 8
core_0_itlb_hit_latency 1
core_0_itlb_fill_latency 1
core_0_itlb_max_tag_check 2
core_0_itlb_max_fill 2
core_0_dtlb_set 16
core_0_dtlb_way 4
core_0_dtlb_rq_size 16
core_0_dtlb_wq_size 16
core_0_dtlb_pq_size 0
core_0_dtlb_mshr_size 8
core_0_dtlb_hit_latency 1
core_0_dtlb_fill_latency 1
core_0_dtlb_max_tag_check 2
core_0_dtlb_max_fill 2
core_0_stlb_set 128
core_0_stlb_way 12
core_0_stlb_rq_size 32
core_0_stlb_wq_size 32
core_0_stlb_pq_size 0
core_0_stlb_mshr_size 16
core_0_stlb_hit_latency 4
core_0_stlb_fill_latency 4
core_0_stlb_max_tag_check 1
core_0_stlb_max_fill 1
core_0_l1i_set 64
core_0_l1i_way 8
core_0_l1i_rq_size 64
core_0_l1i_wq_size 64
core_0_l1i_pq_size 32
core_0_l1i_mshr_size 8
core_0_l1i_hit_latency 2
core_0_l1i_fill_latency 2
core_0_l1i_max_tag_check 2
core_0_l1i_max_fill 2
core_0_l1d_set 64
core_0_l1d_way 12
core_0_l1d_rq_size 64
core_0_l1d_wq_size 64
core_0_l1d_pq_size 8
core_0_l1d_mshr_size 16
core_0_l1d_hit_latency 2
core_0_l1d_fill_latency 3
core_0_l1d_max_tag_check 2
core_0_l1d_max_fill 2
core_0_l2c_set 1024
core_0_l2c_way 8
core_0_l2c_rq_size 32
core_0_l2c_wq_size 32
core_0_l2c_pq_size 16
core_0_l2c_mshr_size 32
core_0_l2c_hit_latency 5
core_0_l2c_fill_latency 5
core_0_l2c_max_tag_check 1
core_0_l2c_max_fill 1
llc_set 2048
llc_way 16
llc_rq_size 32
llc_wq_size 32
llc_pq_size 32
llc_mshr_size 64
llc_hit_latency 10
llc_fill_latency 10
llc_max_tag_check 1
llc_max_fill 1
dram_channels 1
dram_ranks 1
dram_bankgroups 8
dram_banks 4
dram_rows 65536
dram_columns 1024
dram_channel_width 8
dram_rq_size 64
dram_wq_size 64
dram_size 17179869184
core_0_itlb_prefetcher no
core_0_dtlb_prefetcher no
core_0_stlb_prefetcher no
core_0_l1i_prefetcher next_line
core_0_l1d_prefetcher vberti
core_0_l2c_prefetcher ip_stride
llc_prefetcher no
llc_replacement drrip

Core_0_instructions 100000002
Core_0_cycles 4244664472
Core_0_IPC 0.023559
Core_0_branch_prediction_accuracy 97.2966
Core_0_branch_MPKI 5.2756
Core_0_average_ROB_occupancy_at_mispredict 240.326

Core_0_ITLB_total_access 14893988
Core_0_ITLB_total_hit 14893988
Core_0_ITLB_total_miss 0
Core_0_ITLB_total_MPKI 0
Core_0_ITLB_total_miss_rate 0
Core_0_ITLB_demand_access 14893988
Core_0_ITLB_demand_hit 14893988
Core_0_ITLB_demand_miss 0
Core_0_ITLB_demand_MPKI 0
Core_0_ITLB_demand_miss_rate 0
Core_0_ITLB_load_access 14893988
Core_0_ITLB_load_hit 14893988
Core_0_ITLB_load_miss 0
Core_0_ITLB_load_MPKI 0
Core_0_ITLB_load_miss_rate 0
Core_0_ITLB_rfo_access 0
Core_0_ITLB_rfo_hit 0
Core_0_ITLB_rfo_miss 0
Core_0_ITLB_rfo_MPKI 0
Core_0_ITLB_rfo_miss_rate 0
Core_0_ITLB_prefetch_access 0
Core_0_ITLB_prefetch_hit 0
Core_0_ITLB_prefetch_miss 0
Core_0_ITLB_prefetch_MPKI 0
Core_0_ITLB_prefetch_miss_rate 0
Core_0_ITLB_writeback_access 0
Core_0_ITLB_writeback_hit 0
Core_0_ITLB_writeback_miss 0
Core_0_ITLB_writeback_MPKI 0
Core_0_ITLB_writeback_miss_rate 0
Core_0_ITLB_prefetch_requested 0
Core_0_ITLB_prefetch_issued 0
Core_0_ITLB_prefetch_useful 0
Core_0_ITLB_prefetch_useless 0
Core_0_ITLB_prefetch_late 0
Core_0_ITLB_prefetch_fill 0
Core_0_ITLB_prefetch_too_early 0
Core_0_ITLB_prefetch_too_early_among_fill 0
Core_0_ITLB_prefetch_too_early_among_useless 0
Core_0_ITLB_prefetch_pollution_evict 0
Core_0_ITLB_prefetch_pollution_demand 0
Core_0_ITLB_prefetch_pollution_among_prefetch_fill 0
Core_0_ITLB_prefetch_accuracy 0
Core_0_ITLB_prefetch_coverage 0

Core_0_DTLB_total_access 58576578
Core_0_DTLB_total_hit 41460934
Core_0_DTLB_total_miss 17115644
Core_0_DTLB_total_MPKI 171.156
Core_0_DTLB_total_miss_rate 0.292193
Core_0_DTLB_demand_access 58576578
Core_0_DTLB_demand_hit 41460934
Core_0_DTLB_demand_miss 17115644
Core_0_DTLB_demand_MPKI 171.156
Core_0_DTLB_demand_miss_rate 0.292193
Core_0_DTLB_load_access 58576578
Core_0_DTLB_load_hit 41460934
Core_0_DTLB_load_miss 17115644
Core_0_DTLB_load_MPKI 171.156
Core_0_DTLB_load_miss_rate 0.292193
Core_0_DTLB_rfo_access 0
Core_0_DTLB_rfo_hit 0
Core_0_DTLB_rfo_miss 0
Core_0_DTLB_rfo_MPKI 0
Core_0_DTLB_rfo_miss_rate 0
Core_0_DTLB_prefetch_access 0
Core_0_DTLB_prefetch_hit 0
Core_0_DTLB_prefetch_miss 0
Core_0_DTLB_prefetch_MPKI 0
Core_0_DTLB_prefetch_miss_rate 0
Core_0_DTLB_writeback_access 0
Core_0_DTLB_writeback_hit 0
Core_0_DTLB_writeback_miss 0
Core_0_DTLB_writeback_MPKI 0
Core_0_DTLB_writeback_miss_rate 0
Core_0_DTLB_prefetch_requested 0
Core_0_DTLB_prefetch_issued 0
Core_0_DTLB_prefetch_useful 0
Core_0_DTLB_prefetch_useless 0
Core_0_DTLB_prefetch_late 0
Core_0_DTLB_prefetch_fill 0
Core_0_DTLB_prefetch_too_early 0
Core_0_DTLB_prefetch_too_early_among_fill 0
Core_0_DTLB_prefetch_too_early_among_useless 0
Core_0_DTLB_prefetch_pollution_evict 0
Core_0_DTLB_prefetch_pollution_demand 0
Core_0_DTLB_prefetch_pollution_among_prefetch_fill 0
Core_0_DTLB_prefetch_accuracy 0
Core_0_DTLB_prefetch_coverage 0

Core_0_STLB_total_access 17065075
Core_0_STLB_total_hit 259186
Core_0_STLB_total_miss 16805889
Core_0_STLB_total_MPKI 168.059
Core_0_STLB_total_miss_rate 0.984812
Core_0_STLB_demand_access 17065075
Core_0_STLB_demand_hit 259186
Core_0_STLB_demand_miss 16805889
Core_0_STLB_demand_MPKI 168.059
Core_0_STLB_demand_miss_rate 0.984812
Core_0_STLB_load_access 17065075
Core_0_STLB_load_hit 259186
Core_0_STLB_load_miss 16805889
Core_0_STLB_load_MPKI 168.059
Core_0_STLB_load_miss_rate 0.984812
Core_0_STLB_rfo_access 0
Core_0_STLB_rfo_hit 0
Core_0_STLB_rfo_miss 0
Core_0_STLB_rfo_MPKI 0
Core_0_STLB_rfo_miss_rate 0
Core_0_STLB_prefetch_access 0
Core_0_STLB_prefetch_hit 0
Core_0_STLB_prefetch_miss 0
Core_0_STLB_prefetch_MPKI 0
Core_0_STLB_prefetch_miss_rate 0
Core_0_STLB_writeback_access 0
Core_0_STLB_writeback_hit 0
Core_0_STLB_writeback_miss 0
Core_0_STLB_writeback_MPKI 0
Core_0_STLB_writeback_miss_rate 0
Core_0_STLB_prefetch_requested 0
Core_0_STLB_prefetch_issued 0
Core_0_STLB_prefetch_useful 0
Core_0_STLB_prefetch_useless 0
Core_0_STLB_prefetch_late 0
Core_0_STLB_prefetch_fill 0
Core_0_STLB_prefetch_too_early 0
Core_0_STLB_prefetch_too_early_among_fill 0
Core_0_STLB_prefetch_too_early_among_useless 0
Core_0_STLB_prefetch_pollution_evict 0
Core_0_STLB_prefetch_pollution_demand 0
Core_0_STLB_prefetch_pollution_among_prefetch_fill 0
Core_0_STLB_prefetch_accuracy 0
Core_0_STLB_prefetch_coverage 0

Core_0_L1I_total_access 14893988
Core_0_L1I_total_hit 14893988
Core_0_L1I_total_miss 0
Core_0_L1I_total_MPKI 0
Core_0_L1I_total_miss_rate 0
Core_0_L1I_demand_access 14893988
Core_0_L1I_demand_hit 14893988
Core_0_L1I_demand_miss 0
Core_0_L1I_demand_MPKI 0
Core_0_L1I_demand_miss_rate 0
Core_0_L1I_load_access 14893988
Core_0_L1I_load_hit 14893988
Core_0_L1I_load_miss 0
Core_0_L1I_load_MPKI 0
Core_0_L1I_load_miss_rate 0
Core_0_L1I_rfo_access 0
Core_0_L1I_rfo_hit 0
Core_0_L1I_rfo_miss 0
Core_0_L1I_rfo_MPKI 0
Core_0_L1I_rfo_miss_rate 0
Core_0_L1I_prefetch_access 0
Core_0_L1I_prefetch_hit 0
Core_0_L1I_prefetch_miss 0
Core_0_L1I_prefetch_MPKI 0
Core_0_L1I_prefetch_miss_rate 0
Core_0_L1I_writeback_access 0
Core_0_L1I_writeback_hit 0
Core_0_L1I_writeback_miss 0
Core_0_L1I_writeback_MPKI 0
Core_0_L1I_writeback_miss_rate 0
Core_0_L1I_prefetch_requested 0
Core_0_L1I_prefetch_issued 0
Core_0_L1I_prefetch_useful 0
Core_0_L1I_prefetch_useless 0
Core_0_L1I_prefetch_late 0
Core_0_L1I_prefetch_fill 0
Core_0_L1I_prefetch_too_early 0
Core_0_L1I_prefetch_too_early_among_fill 0
Core_0_L1I_prefetch_too_early_among_useless 0
Core_0_L1I_prefetch_pollution_evict 0
Core_0_L1I_prefetch_pollution_demand 0
Core_0_L1I_prefetch_pollution_among_prefetch_fill 0
Core_0_L1I_prefetch_accuracy 0
Core_0_L1I_prefetch_coverage 0

Core_0_L1D_total_access 60621487
Core_0_L1D_total_hit 39000179
Core_0_L1D_total_miss 21621308
Core_0_L1D_total_MPKI 216.213
Core_0_L1D_total_miss_rate 0.356661
Core_0_L1D_demand_access 37625436
Core_0_L1D_demand_hit 19468632
Core_0_L1D_demand_miss 18156804
Core_0_L1D_demand_MPKI 181.568
Core_0_L1D_demand_miss_rate 0.482567
Core_0_L1D_load_access 37625436
Core_0_L1D_load_hit 19468632
Core_0_L1D_load_miss 18156804
Core_0_L1D_load_MPKI 181.568
Core_0_L1D_load_miss_rate 0.482567
Core_0_L1D_rfo_access 0
Core_0_L1D_rfo_hit 0
Core_0_L1D_rfo_miss 0
Core_0_L1D_rfo_MPKI 0
Core_0_L1D_rfo_miss_rate 0
Core_0_L1D_prefetch_access 22367730
Core_0_L1D_prefetch_hit 18950204
Core_0_L1D_prefetch_miss 3417526
Core_0_L1D_prefetch_MPKI 34.1753
Core_0_L1D_prefetch_miss_rate 0.152788
Core_0_L1D_writeback_access 628321
Core_0_L1D_writeback_hit 581343
Core_0_L1D_writeback_miss 46978
Core_0_L1D_writeback_MPKI 0.46978
Core_0_L1D_writeback_miss_rate 0.0747675
Core_0_L1D_prefetch_requested 23958716
Core_0_L1D_prefetch_issued 22367722
Core_0_L1D_prefetch_useful 1225274
Core_0_L1D_prefetch_useless 42995
Core_0_L1D_prefetch_late 4311
Core_0_L1D_prefetch_fill 1263959
Core_0_L1D_prefetch_too_early 2264
Core_0_L1D_prefetch_too_early_among_fill 0.0017912
Core_0_L1D_prefetch_too_early_among_useless 0.0526573
Core_0_L1D_prefetch_pollution_evict 21753
Core_0_L1D_prefetch_pollution_demand 21682
Core_0_L1D_prefetch_pollution_among_prefetch_fill 0.0172102
Core_0_L1D_prefetch_accuracy 0.0547787
Core_0_L1D_prefetch_coverage 0.0632169

Core_0_L2C_total_access 24986174
Core_0_L2C_total_hit 5843415
Core_0_L2C_total_miss 19142759
Core_0_L2C_total_MPKI 191.428
Core_0_L2C_total_miss_rate 0.766134
Core_0_L2C_demand_access 18115193
Core_0_L2C_demand_hit 279669
Core_0_L2C_demand_miss 17835524
Core_0_L2C_demand_MPKI 178.355
Core_0_L2C_demand_miss_rate 0.984562
Core_0_L2C_load_access 18099517
Core_0_L2C_load_hit 266150
Core_0_L2C_load_miss 17833367
Core_0_L2C_load_MPKI 178.334
Core_0_L2C_load_miss_rate 0.985295
Core_0_L2C_rfo_access 15676
Core_0_L2C_rfo_hit 13519
Core_0_L2C_rfo_miss 2157
Core_0_L2C_rfo_MPKI 0.02157
Core_0_L2C_rfo_miss_rate 0.137599
Core_0_L2C_prefetch_access 6806900
Core_0_L2C_prefetch_hit 5499671
Core_0_L2C_prefetch_miss 1307229
Core_0_L2C_prefetch_MPKI 13.0723
Core_0_L2C_prefetch_miss_rate 0.192045
Core_0_L2C_writeback_access 64081
Core_0_L2C_writeback_hit 64075
Core_0_L2C_writeback_miss 6
Core_0_L2C_writeback_MPKI 6e-05
Core_0_L2C_writeback_miss_rate 9.36315e-05
Core_0_L2C_prefetch_requested 3415820
Core_0_L2C_prefetch_issued 3415814
Core_0_L2C_prefetch_useful 995311
Core_0_L2C_prefetch_useless 39364
Core_0_L2C_prefetch_late 956
Core_0_L2C_prefetch_fill 1280246
Core_0_L2C_prefetch_too_early 3931
Core_0_L2C_prefetch_too_early_among_fill 0.0030705
Core_0_L2C_prefetch_too_early_among_useless 0.0998628
Core_0_L2C_prefetch_pollution_evict 115961
Core_0_L2C_prefetch_pollution_demand 115960
Core_0_L2C_prefetch_pollution_among_prefetch_fill 0.0905771
Core_0_L2C_prefetch_accuracy 0.291383
Core_0_L2C_prefetch_coverage 0.0528554

Core_0_LLC_total_access 19153984
Core_0_LLC_total_hit 1568316
Core_0_LLC_total_miss 17585668
Core_0_LLC_total_MPKI 175.857
Core_0_LLC_total_miss_rate 0.918121
Core_0_LLC_demand_access 17834525
Core_0_LLC_demand_hit 1555579
Core_0_LLC_demand_miss 16278946
Core_0_LLC_demand_MPKI 162.789
Core_0_LLC_demand_miss_rate 0.912777
Core_0_LLC_load_access 17832368
Core_0_LLC_load_hit 1553447
Core_0_LLC_load_miss 16278921
Core_0_LLC_load_MPKI 162.789
Core_0_LLC_load_miss_rate 0.912886
Core_0_LLC_rfo_access 2157
Core_0_LLC_rfo_hit 2132
Core_0_LLC_rfo_miss 25
Core_0_LLC_rfo_MPKI 0.00025
Core_0_LLC_rfo_miss_rate 0.0115902
Core_0_LLC_prefetch_access 1281250
Core_0_LLC_prefetch_hit 1136
Core_0_LLC_prefetch_miss 1280114
Core_0_LLC_prefetch_MPKI 12.8011
Core_0_LLC_prefetch_miss_rate 0.999113
Core_0_LLC_writeback_access 38209
Core_0_LLC_writeback_hit 11601
Core_0_LLC_writeback_miss 26608
Core_0_LLC_writeback_MPKI 0.26608
Core_0_LLC_writeback_miss_rate 0.69638
Core_0_LLC_prefetch_requested 0
Core_0_LLC_prefetch_issued 0
Core_0_LLC_prefetch_useful 0
Core_0_LLC_prefetch_useless 0
Core_0_LLC_prefetch_late 0
Core_0_LLC_prefetch_fill 1280113
Core_0_LLC_prefetch_too_early 0
Core_0_LLC_prefetch_too_early_among_fill 0
Core_0_LLC_prefetch_too_early_among_useless 0
Core_0_LLC_prefetch_pollution_evict 315943
Core_0_LLC_prefetch_pollution_demand 315943
Core_0_LLC_prefetch_pollution_among_prefetch_fill 0.246809
Core_0_LLC_prefetch_accuracy 0
Core_0_LLC_prefetch_coverage 0

[DRAM Statistics]
Channel_0_RQ_row_buffer_hit 26167
Channel_0_RQ_row_buffer_miss 17959958
Channel_0_WQ_row_buffer_hit 5233
Channel_0_WQ_row_buffer_miss 29244
Channel_0_WQ_full 0
Channel_0_dbus_congested 3720865
DRAM_total_RQ_row_buffer_hit 26167
DRAM_total_RQ_row_buffer_miss 17959958
DRAM_total_WQ_row_buffer_hit 5233
DRAM_total_WQ_row_buffer_miss 29244
DRAM_total_WQ_full 0
DRAM_total_dbus_congested 3720865
DRAM_avg_congested_cycle 14.552

====== DRAM_RQ_TRAFFIC ========
DRAM_RQ_READ_TRAFFIC_BREAKDOWN:
data_demand_read.count = 16278946
data_demand_read.share = 90.51%

inst_demand_read.count = 0
inst_demand_read.share = 0.00%

cache_inst_prefetch.count = 0
cache_inst_prefetch.share = 0.00%

cache_data_prefetch.count = 1280113
cache_data_prefetch.share = 7.12%

stlb_data_demand.count = 424175
stlb_data_demand.share = 2.36%

stlb_inst_demand.count = 0
stlb_inst_demand.share = 0.00%

stlb_l1i_pref.count = 0
stlb_l1i_pref.share = 0.00%

stlb_l1d_pref.count = 2891
stlb_l1d_pref.share = 0.02%

DRAM_RQ_READ_TRAFFIC_SUMMARY:
cache_demand.count = 16278946
cache_demand.share = 90.51%

cache_prefetch.count = 1280113
cache_prefetch.share = 7.12%

stlb_demand.count = 424175
stlb_demand.share = 2.36%

stlb_prefetch.count = 2891
stlb_prefetch.share = 0.02%

DRAM_RQ_READ_TRAFFIC_DEBUG:
total_classified_read.count = 17986125
unclassified_read.count = 0
total_read_with_other.count = 17986125

classified_plus_unclassified_check.count = 17986125
dram_rq_read_total_observed.count = 17986125
dram_rq_read_total_observed.per_1K_instructions = 179.861

STLB_MISS_PTW_DRAM_TOUCH_BREAKDOWN:
stlb_miss_total.count = 16801646

stlb_miss_touch_dram.count = 426971
stlb_miss_touch_dram.share = 2.54%

stlb_miss_no_dram_touch.count = 16374675
stlb_miss_no_dram_touch.share = 97.46%

STLB_MISS_PTW_DRAM_TOUCH_DEBUG:
stlb_miss_touch_plus_no_touch.count = 16801646
stlb_miss_total_check.count = 16801646

======STLB miss causes ========
Core_0_STLB_miss_cause_breakdown
Core_0_STLB_cause_Demand_Data_miss 16780633
Core_0_STLB_cause_Demand_Data_miss_rate 0.983332
Core_0_STLB_cause_Demand_Instruction_miss 0
Core_0_STLB_cause_Demand_Instruction_miss_rate 0
Core_0_STLB_cause_L1D_Prefetch_miss 25256
Core_0_STLB_cause_L1D_Prefetch_miss_rate 0.00147998
Core_0_STLB_cause_L1D_Prefetch_Same_Page_miss 3
Core_0_STLB_cause_L1D_Prefetch_Same_Page_miss_rate 1.75798e-07
Core_0_STLB_cause_L1D_Prefetch_Cross_Page_miss 25253
Core_0_STLB_cause_L1D_Prefetch_Cross_Page_miss_rate 0.00147981
Core_0_STLB_cause_L1I_Prefetch_miss 0
Core_0_STLB_cause_L1I_Prefetch_miss_rate 0
Core_0_STLB_cause_Other_miss 0
Core_0_STLB_cause_Other_miss_rate 0
Core_0_STLB_Demand_miss 16780633
Core_0_STLB_Demand_miss_rate 0.983332
Core_0_STLB_L1D_Prefetch_miss 25256
Core_0_STLB_L1D_Prefetch_miss_rate 0.00147998
Core_0_STLB_Other_miss 0
Core_0_STLB_Other_miss_rate 0

========== vBerti-TLB Cross-page Flow Stats ==========

Core_0_vBerti_Requested 23958716
Core_0_vBerti_Cross_page_prefetch_in_Requested 816982
Core_0_vBerti_Same_page_prefetch_in_Requested 23141734
Core_0_vBerti_Cross_page_prefetch_of_Requested 0.0340996
Core_0_vBerti_Issued 22367722
Core_0_vBerti_InPQ_Same_page_prefetch 21752439
Core_0_vBerti_InPQ_Cross_page_prefetch 615283
Core_0_vBerti_PQ_Drop_Rate 0.0664056
Core_0_vBerti_InPQ_Cross_page_prefetch_of_Requested 0.025681
Core_0_vBerti_Cross_page_PQ_Drop_rate 0.246883
Core_0_vBerti_Cross_page_prefetch_of_Issued 0.0275076
Core_0_CP_PF_PQFULL_drop 201699
Core_0_CP_PF_PQFULL_TLB_rescue_enqueued 197489
Core_0_CP_PF_PQFULL_TLB_rescue_issued 197489
Core_0_CP_PF_PQFULL_TLB_rescue_translated 197489

========= DTLB_vBerti Prefetch Stats =========
Core_0_DTLB_demand_access 38149400
Core_0_DTLB_demand_hit 21084629
Core_0_DTLB_demand_miss 17064771
Core_0_DTLB_demand_mshr_merge 24956
Core_0_DTLB_demand_fill 17039953
Core_0_DTLB_demand_miss_rate 0.447314
Core_0_DTLB_demand_mpki 170.648
Core_0_DTLB_vberti_prefetch_access 20427178
Core_0_DTLB_vberti_prefetch_hit 20376305
Core_0_DTLB_vberti_prefetch_miss 50873
Core_0_DTLB_vberti_prefetch_mshr_merge 25614
Core_0_DTLB_vberti_prefetch_fill 25129
Core_0_DTLB_vberti_prefetch_miss_rate 0.00249046
Core_0_DTLB_vberti_prefetch_mpki 0.50873

=== DTLB_vBerti Same/Cross-page Prefetch Stats ===
Core_0_DTLB_vberti_same_page_prefetch 19775853
Core_0_DTLB_vberti_same_page_prefetch_hit 19775846
Core_0_DTLB_vberti_same_page_prefetch_miss 7
Core_0_DTLB_vberti_same_page_prefetch_mshr_merge 1
Core_0_DTLB_vberti_same_page_prefetch_fill 6
Core_0_DTLB_vberti_same_page_prefetch_miss_rate 3.53967e-07
Core_0_DTLB_vberti_same_page_prefetch_mpki 7e-05
Core_0_DTLB_vberti_cross_page_prefetch 651325
Core_0_DTLB_vberti_cross_page_prefetch_hit 600459
Core_0_DTLB_vberti_cross_page_prefetch_miss 50866
Core_0_DTLB_vberti_cross_page_prefetch_mshr_merge 25613
Core_0_DTLB_vberti_cross_page_prefetch_fill 25123
Core_0_DTLB_vberti_cross_page_prefetch_miss_rate 0.0780962
Core_0_DTLB_vberti_cross_page_prefetch_mpki 0.50866
Core_0_DTLB_same_page_prefetch_miss_rate 3.53967e-07
Core_0_DTLB_same_page_prefetch_mpki 7e-05
Core_0_DTLB_cross_page_prefetch_miss_rate 0.0780962
Core_0_DTLB_cross_page_prefetch_mpki 0.50866
Core_0_DTLB_cross_page_prefetch_issued 651325
Core_0_DTLB_cross_page_prefetch_lookups 651325
Core_0_DTLB_cross_page_prefetch_useful 19583
Core_0_DTLB_cross_page_prefetch_useless 5670
Core_0_DTLB_cross_page_prefetch_late 130
Core_0_DTLB_cross_page_prefetch_too_early 95
Core_0_DTLB_cross_page_prefetch_too_early_among_fill 0.0037814
Core_0_DTLB_cross_page_prefetch_too_early_among_useless 0.0167549
Core_0_DTLB_cross_page_prefetch_pollution_evict 8123
Core_0_DTLB_cross_page_prefetch_pollution_demand 8117
Core_0_DTLB_cross_page_prefetch_pollution_among_prefetch_fill 0.323329
Core_0_DTLB_cross_page_prefetch_accuracy 0.0300664
Core_0_DTLB_cross_page_prefetch_coverage 0.00114625

========= STLB_vBerti Prefetch Stats =========
Core_0_STLB_demand_access 17039816
Core_0_STLB_demand_hit 259183
Core_0_STLB_demand_miss 16780633
Core_0_STLB_demand_mshr_merge 0
Core_0_STLB_demand_fill 16780640
Core_0_STLB_demand_miss_rate 0.98479
Core_0_STLB_demand_mpki 167.806
Core_0_STLB_vberti_prefetch_access 25259
Core_0_STLB_vberti_prefetch_hit 3
Core_0_STLB_vberti_prefetch_miss 25256
Core_0_STLB_vberti_prefetch_mshr_merge 0
Core_0_STLB_vberti_prefetch_fill 3
Core_0_STLB_vberti_prefetch_miss_rate 0.999881
Core_0_STLB_vberti_prefetch_mpki 0.25256

=== STLB_vBerti Same/Cross-page Prefetch Stats ===
Core_0_STLB_vberti_same_page_prefetch 6
Core_0_STLB_vberti_same_page_prefetch_hit 3
Core_0_STLB_vberti_same_page_prefetch_miss 3
Core_0_STLB_vberti_same_page_prefetch_mshr_merge 0
Core_0_STLB_vberti_same_page_prefetch_fill 3
Core_0_STLB_vberti_same_page_prefetch_miss_rate 0.5
Core_0_STLB_vberti_same_page_prefetch_mpki 3e-05
Core_0_STLB_vberti_cross_page_prefetch 25253
Core_0_STLB_vberti_cross_page_prefetch_hit 0
Core_0_STLB_vberti_cross_page_prefetch_miss 25253
Core_0_STLB_vberti_cross_page_prefetch_mshr_merge 0
Core_0_STLB_vberti_cross_page_prefetch_fill 0
Core_0_STLB_vberti_cross_page_prefetch_miss_rate 1
Core_0_STLB_vberti_cross_page_prefetch_mpki 0.25253
Core_0_STLB_same_page_prefetch_miss_rate 0.5
Core_0_STLB_same_page_prefetch_mpki 3e-05
Core_0_STLB_cross_page_prefetch_miss_rate 1
Core_0_STLB_cross_page_prefetch_mpki 0.25253
Core_0_STLB_cross_page_prefetch_issued 25253
Core_0_STLB_cross_page_prefetch_lookups 25253
Core_0_STLB_cross_page_prefetch_useful 4243
Core_0_STLB_cross_page_prefetch_useless 15452
Core_0_STLB_cross_page_prefetch_late 4243
Core_0_STLB_cross_page_prefetch_too_early 0
Core_0_STLB_cross_page_prefetch_too_early_among_fill 0
Core_0_STLB_cross_page_prefetch_too_early_among_useless 0
Core_0_STLB_cross_page_prefetch_pollution_evict 0
Core_0_STLB_cross_page_prefetch_pollution_demand 0
Core_0_STLB_cross_page_prefetch_pollution_among_prefetch_fill 0
Core_0_STLB_cross_page_prefetch_accuracy 0.16802
Core_0_STLB_cross_page_prefetch_coverage 0.000252787

========= STLB Cross-page Prefetch Buffer Stats =========
Core_0_STLB_raw_demand_miss 16780633
Core_0_CP_PB_insert 25253
Core_0_CP_PB_demand_hit 4243
Core_0_STLB_PB_demand_miss 16776390
Core_0_CP_PB_coverage 0.000252851
Core_0_STLB_raw_demand_mpki 167.806
Core_0_STLB_PB_demand_mpki 167.764
Core_0_CP_PB_demand_hit_mpki 0.04243

Core_0_TLB_demand_miss_rate 0.439866
Core_0_TLB_demand_mpki 167.806
Core_0_TLB_same_page_prefetch_miss_rate 1.517e-07
Core_0_TLB_same_page_prefetch_mpki 3e-05
Core_0_TLB_cross_page_prefetch_miss_rate 0.0387717
Core_0_TLB_cross_page_prefetch_mpki 0.25253
Core_0_TLB_cross_page_prefetch_issued 651325
Core_0_TLB_cross_page_prefetch_lookups 651325
Core_0_TLB_cross_page_prefetch_useful 19583
Core_0_TLB_cross_page_prefetch_useless 5670
Core_0_TLB_cross_page_prefetch_late 130
Core_0_TLB_cross_page_prefetch_too_early 95
Core_0_TLB_cross_page_prefetch_too_early_among_fill 0.0037814
Core_0_TLB_cross_page_prefetch_too_early_among_useless 0.0167549
Core_0_TLB_cross_page_prefetch_accuracy 0.0300664
Core_0_TLB_cross_page_prefetch_coverage 0.00116564
BERTI TO_L1: 21253561 TO_L2: 4274616 TO_L2_BC_MSHR: 140
BERTI AVG_LAT: 120.475 NUM_TRACK_LATENCY: 28968285 NUM_CANT_TRACK_LATENCY: 209
BERTI CROSS_PAGE 928938 NO_CROSS_PAGE: 24599239
BERTI FOUND_BERTI: 46981291 NO_FOUND_BERTI: 1390733
BERTI AVERAGE_ISSUED: 1.19734
