[VMEM] WARNING: physical memory size is smaller than virtual memory size.

*** ChampSim Multicore Out-of-Order Simulator ***
Warmup Instructions: 50000000
Simulation Instructions: 100000000
Number of CPUs: 1
Page size: 4096
Core 0: /data2/zcq/champsim_traces_gap/pr.twitter-3197B.champsimtrace.xz
VBerti Prefetcher
BERTI HASH ENTANGLING
BERTI IP MASK ffff
Off-chip DRAM Size: 16 GiB Channels: 1 Width: 64-bit Data Rate: 3205 MT/s
Warmup halting CPU 0 at instruction 50000004 cycle 22887614 for remainder of phase
Warmup finished CPU 0 instructions: 50000004 cycles: 22887614 cumulative IPC: 2.185 (Simulation time: 00 hr 07 min 12 sec)
Warmup complete CPU 0 instructions: 50000004 cycles: 22887614 cumulative IPC: 2.185 (Simulation time: 00 hr 07 min 12 sec)
Simulation CPU 0 warning: IPC 0.031725 < 0.05
Simulation CPU 0 warning: IPC 0.032727 < 0.05
Simulation CPU 0 warning: IPC 0.034433 < 0.05
Simulation CPU 0 warning: IPC 0.03326 < 0.05
Simulation CPU 0 warning: IPC 0.034168 < 0.05
Simulation CPU 0 warning: IPC 0.029726 < 0.05
Simulation CPU 0 warning: IPC 0.028024 < 0.05
Simulation CPU 0 warning: IPC 0.03232 < 0.05
Simulation CPU 0 warning: IPC 0.032404 < 0.05
Simulation CPU 0 warning: IPC 0.032855 < 0.05
Simulation CPU 0 warning: IPC 0.032389 < 0.05
Simulation CPU 0 warning: IPC 0.027528 < 0.05
Simulation CPU 0 warning: IPC 0.029543 < 0.05
Simulation CPU 0 warning: IPC 0.028554 < 0.05
Simulation CPU 0 warning: IPC 0.029914 < 0.05
Simulation CPU 0 warning: IPC 0.02833 < 0.05
Simulation CPU 0 warning: IPC 0.02673 < 0.05
Simulation CPU 0 warning: IPC 0.029072 < 0.05
Simulation CPU 0 warning: IPC 0.0287 < 0.05
Simulation CPU 0 warning: IPC 0.031093 < 0.05
Simulation CPU 0 warning: IPC 0.029043 < 0.05
Simulation CPU 0 warning: IPC 0.030418 < 0.05
Simulation CPU 0 warning: IPC 0.030227 < 0.05
Simulation CPU 0 warning: IPC 0.029648 < 0.05
Simulation CPU 0 warning: IPC 0.02838 < 0.05
Simulation CPU 0 warning: IPC 0.030632 < 0.05
Simulation CPU 0 warning: IPC 0.033223 < 0.05
Simulation CPU 0 warning: IPC 0.030122 < 0.05
Simulation CPU 0 warning: IPC 0.026788 < 0.05
Simulation CPU 0 warning: IPC 0.030111 < 0.05
Simulation CPU 0 warning: IPC 0.030493 < 0.05
Simulation CPU 0 warning: IPC 0.031395 < 0.05
Simulation CPU 0 warning: IPC 0.028404 < 0.05
Simulation CPU 0 warning: IPC 0.026963 < 0.05
Simulation CPU 0 warning: IPC 0.030984 < 0.05
Simulation CPU 0 warning: IPC 0.030894 < 0.05
Simulation CPU 0 warning: IPC 0.031651 < 0.05
Simulation CPU 0 warning: IPC 0.033314 < 0.05
Simulation CPU 0 warning: IPC 0.030575 < 0.05
Simulation CPU 0 warning: IPC 0.037651 < 0.05
Simulation CPU 0 warning: IPC 0.0345 < 0.05
Simulation CPU 0 warning: IPC 0.032037 < 0.05
Simulation CPU 0 warning: IPC 0.032509 < 0.05
Simulation CPU 0 warning: IPC 0.033624 < 0.05
Simulation CPU 0 warning: IPC 0.032521 < 0.05
Simulation CPU 0 warning: IPC 0.031033 < 0.05
Simulation CPU 0 warning: IPC 0.030738 < 0.05
Simulation CPU 0 warning: IPC 0.030803 < 0.05
Simulation CPU 0 warning: IPC 0.031534 < 0.05
Simulation CPU 0 warning: IPC 0.030828 < 0.05
Simulation CPU 0 warning: IPC 0.030835 < 0.05
Simulation CPU 0 warning: IPC 0.030185 < 0.05
Simulation CPU 0 warning: IPC 0.030436 < 0.05
Simulation CPU 0 warning: IPC 0.029979 < 0.05
Simulation CPU 0 warning: IPC 0.032865 < 0.05
Simulation CPU 0 warning: IPC 0.030437 < 0.05
Simulation CPU 0 warning: IPC 0.030142 < 0.05
Simulation CPU 0 warning: IPC 0.033009 < 0.05
Simulation CPU 0 warning: IPC 0.03019 < 0.05
Simulation CPU 0 warning: IPC 0.03076 < 0.05
Simulation CPU 0 warning: IPC 0.028707 < 0.05
Simulation CPU 0 warning: IPC 0.034387 < 0.05
Simulation CPU 0 warning: IPC 0.034274 < 0.05
Simulation CPU 0 warning: IPC 0.029587 < 0.05
Simulation CPU 0 warning: IPC 0.031838 < 0.05
Simulation CPU 0 warning: IPC 0.029825 < 0.05
Simulation CPU 0 warning: IPC 0.029169 < 0.05
Simulation CPU 0 warning: IPC 0.032917 < 0.05
Simulation CPU 0 warning: IPC 0.033057 < 0.05
Simulation CPU 0 warning: IPC 0.029643 < 0.05
Simulation CPU 0 warning: IPC 0.034903 < 0.05
Simulation CPU 0 warning: IPC 0.032989 < 0.05
Simulation CPU 0 warning: IPC 0.030839 < 0.05
Simulation CPU 0 warning: IPC 0.028161 < 0.05
Simulation CPU 0 warning: IPC 0.033969 < 0.05
Simulation CPU 0 warning: IPC 0.031134 < 0.05
Simulation CPU 0 warning: IPC 0.030638 < 0.05
Simulation CPU 0 warning: IPC 0.03093 < 0.05
Simulation CPU 0 warning: IPC 0.029342 < 0.05
Simulation CPU 0 warning: IPC 0.031417 < 0.05
Simulation CPU 0 warning: IPC 0.031673 < 0.05
Simulation CPU 0 warning: IPC 0.029088 < 0.05
Simulation CPU 0 warning: IPC 0.033777 < 0.05
Simulation CPU 0 warning: IPC 0.030678 < 0.05
Simulation CPU 0 warning: IPC 0.032566 < 0.05
Simulation CPU 0 warning: IPC 0.031661 < 0.05
Simulation CPU 0 warning: IPC 0.030994 < 0.05
Simulation CPU 0 warning: IPC 0.031534 < 0.05
Simulation CPU 0 warning: IPC 0.031379 < 0.05
Simulation CPU 0 warning: IPC 0.029891 < 0.05
Simulation CPU 0 warning: IPC 0.028447 < 0.05
Simulation CPU 0 warning: IPC 0.028119 < 0.05
Simulation CPU 0 warning: IPC 0.030366 < 0.05
Simulation CPU 0 warning: IPC 0.029496 < 0.05
Simulation CPU 0 warning: IPC 0.026018 < 0.05
Simulation CPU 0 warning: IPC 0.031621 < 0.05
Simulation CPU 0 warning: IPC 0.030734 < 0.05
Simulation CPU 0 warning: IPC 0.032055 < 0.05
Simulation CPU 0 warning: IPC 0.028387 < 0.05
Simulation CPU 0 warning: IPC 0.028637 < 0.05
Simulation CPU 0 warning: IPC 0.029672 < 0.05
Simulation CPU 0 warning: IPC 0.032883 < 0.05
Simulation CPU 0 warning: IPC 0.027202 < 0.05
Simulation CPU 0 warning: IPC 0.033079 < 0.05
Simulation CPU 0 warning: IPC 0.029823 < 0.05
Simulation CPU 0 warning: IPC 0.029839 < 0.05
Simulation CPU 0 warning: IPC 0.032695 < 0.05
Simulation CPU 0 warning: IPC 0.031568 < 0.05
Simulation CPU 0 warning: IPC 0.031662 < 0.05
Simulation CPU 0 warning: IPC 0.030633 < 0.05
Simulation CPU 0 warning: IPC 0.034101 < 0.05
Simulation CPU 0 warning: IPC 0.030757 < 0.05
Simulation CPU 0 warning: IPC 0.034674 < 0.05
Simulation CPU 0 warning: IPC 0.032554 < 0.05
Simulation CPU 0 warning: IPC 0.031137 < 0.05
Simulation CPU 0 warning: IPC 0.029605 < 0.05
Simulation CPU 0 warning: IPC 0.030573 < 0.05
Simulation CPU 0 warning: IPC 0.032361 < 0.05
Simulation CPU 0 warning: IPC 0.029669 < 0.05
Simulation CPU 0 warning: IPC 0.028418 < 0.05
Simulation CPU 0 warning: IPC 0.031591 < 0.05
Simulation CPU 0 warning: IPC 0.026409 < 0.05
Simulation CPU 0 warning: IPC 0.029653 < 0.05
Simulation CPU 0 warning: IPC 0.031981 < 0.05
Simulation CPU 0 warning: IPC 0.031937 < 0.05
Simulation CPU 0 warning: IPC 0.026187 < 0.05
Simulation CPU 0 warning: IPC 0.029556 < 0.05
Simulation CPU 0 warning: IPC 0.028757 < 0.05
Simulation CPU 0 warning: IPC 0.02901 < 0.05
Simulation CPU 0 warning: IPC 0.031533 < 0.05
Simulation CPU 0 warning: IPC 0.031052 < 0.05
Simulation CPU 0 warning: IPC 0.031367 < 0.05
Simulation CPU 0 warning: IPC 0.028325 < 0.05
Simulation CPU 0 warning: IPC 0.030515 < 0.05
Simulation CPU 0 warning: IPC 0.030448 < 0.05
Simulation CPU 0 warning: IPC 0.029814 < 0.05
Simulation CPU 0 warning: IPC 0.033132 < 0.05
Simulation CPU 0 warning: IPC 0.032021 < 0.05
Simulation CPU 0 warning: IPC 0.033033 < 0.05
Simulation CPU 0 warning: IPC 0.026397 < 0.05
Simulation CPU 0 warning: IPC 0.028082 < 0.05
Simulation CPU 0 warning: IPC 0.031277 < 0.05
Simulation CPU 0 warning: IPC 0.029507 < 0.05
Simulation CPU 0 warning: IPC 0.032433 < 0.05
Simulation CPU 0 warning: IPC 0.033312 < 0.05
Simulation CPU 0 warning: IPC 0.032295 < 0.05
Simulation CPU 0 warning: IPC 0.030831 < 0.05
Simulation CPU 0 warning: IPC 0.034543 < 0.05
Simulation CPU 0 warning: IPC 0.030812 < 0.05
Simulation CPU 0 warning: IPC 0.030911 < 0.05
Simulation CPU 0 warning: IPC 0.031615 < 0.05
Simulation CPU 0 warning: IPC 0.031287 < 0.05
Simulation CPU 0 warning: IPC 0.03052 < 0.05
Simulation CPU 0 warning: IPC 0.029988 < 0.05
Simulation CPU 0 warning: IPC 0.029044 < 0.05
Simulation CPU 0 warning: IPC 0.032742 < 0.05
Simulation CPU 0 warning: IPC 0.031383 < 0.05
Simulation CPU 0 warning: IPC 0.032491 < 0.05
Simulation CPU 0 warning: IPC 0.029283 < 0.05
Simulation CPU 0 warning: IPC 0.031923 < 0.05
Simulation CPU 0 warning: IPC 0.032525 < 0.05
Simulation CPU 0 warning: IPC 0.03033 < 0.05
Simulation CPU 0 warning: IPC 0.03446 < 0.05
Simulation CPU 0 warning: IPC 0.032931 < 0.05
Simulation CPU 0 warning: IPC 0.034537 < 0.05
Simulation CPU 0 warning: IPC 0.035349 < 0.05
Simulation CPU 0 warning: IPC 0.03222 < 0.05
Simulation CPU 0 warning: IPC 0.032538 < 0.05
Simulation CPU 0 warning: IPC 0.032268 < 0.05
Simulation CPU 0 warning: IPC 0.032439 < 0.05
Simulation CPU 0 warning: IPC 0.033057 < 0.05
Simulation CPU 0 warning: IPC 0.033441 < 0.05
Simulation CPU 0 warning: IPC 0.033027 < 0.05
Simulation CPU 0 warning: IPC 0.027611 < 0.05
Simulation CPU 0 warning: IPC 0.028513 < 0.05
Simulation CPU 0 warning: IPC 0.02837 < 0.05
Simulation CPU 0 warning: IPC 0.031501 < 0.05
Simulation CPU 0 warning: IPC 0.032737 < 0.05
Simulation CPU 0 warning: IPC 0.029376 < 0.05
Simulation CPU 0 warning: IPC 0.031273 < 0.05
Simulation CPU 0 warning: IPC 0.032517 < 0.05
Simulation CPU 0 warning: IPC 0.029067 < 0.05
Simulation CPU 0 warning: IPC 0.03123 < 0.05
Simulation CPU 0 warning: IPC 0.032586 < 0.05
Simulation CPU 0 warning: IPC 0.032566 < 0.05
Simulation CPU 0 warning: IPC 0.031397 < 0.05
Simulation CPU 0 warning: IPC 0.034904 < 0.05
Simulation CPU 0 warning: IPC 0.030489 < 0.05
Simulation CPU 0 warning: IPC 0.034961 < 0.05
Simulation CPU 0 warning: IPC 0.033817 < 0.05
Simulation CPU 0 warning: IPC 0.030433 < 0.05
Simulation CPU 0 warning: IPC 0.028785 < 0.05
Simulation CPU 0 warning: IPC 0.033869 < 0.05
Simulation CPU 0 warning: IPC 0.030339 < 0.05
Simulation CPU 0 warning: IPC 0.032898 < 0.05
Simulation CPU 0 warning: IPC 0.032901 < 0.05
Simulation CPU 0 warning: IPC 0.034808 < 0.05
Simulation CPU 0 warning: IPC 0.032982 < 0.05
Simulation CPU 0 warning: IPC 0.031428 < 0.05
Simulation CPU 0 warning: IPC 0.033116 < 0.05
Simulation CPU 0 warning: IPC 0.034753 < 0.05
Simulation CPU 0 warning: IPC 0.03711 < 0.05
Simulation CPU 0 warning: IPC 0.036408 < 0.05
Simulation CPU 0 warning: IPC 0.036124 < 0.05
Simulation CPU 0 warning: IPC 0.035495 < 0.05
Simulation CPU 0 warning: IPC 0.031461 < 0.05
Simulation CPU 0 warning: IPC 0.032407 < 0.05
Simulation CPU 0 warning: IPC 0.03412 < 0.05
Simulation CPU 0 warning: IPC 0.032281 < 0.05
Simulation CPU 0 warning: IPC 0.033676 < 0.05
Simulation CPU 0 warning: IPC 0.035671 < 0.05
Simulation CPU 0 warning: IPC 0.03456 < 0.05
Simulation CPU 0 warning: IPC 0.029377 < 0.05
Simulation CPU 0 warning: IPC 0.032714 < 0.05
Simulation CPU 0 warning: IPC 0.032555 < 0.05
Simulation CPU 0 warning: IPC 0.032797 < 0.05
Simulation CPU 0 warning: IPC 0.030571 < 0.05
Simulation CPU 0 warning: IPC 0.032455 < 0.05
Simulation CPU 0 warning: IPC 0.031378 < 0.05
Simulation CPU 0 warning: IPC 0.032541 < 0.05
Simulation CPU 0 warning: IPC 0.032935 < 0.05
Simulation CPU 0 warning: IPC 0.031676 < 0.05
Simulation CPU 0 warning: IPC 0.033839 < 0.05
Simulation CPU 0 warning: IPC 0.032452 < 0.05
Simulation CPU 0 warning: IPC 0.03252 < 0.05
Simulation CPU 0 warning: IPC 0.031161 < 0.05
Simulation CPU 0 warning: IPC 0.030868 < 0.05
Simulation CPU 0 warning: IPC 0.03011 < 0.05
Simulation CPU 0 warning: IPC 0.02976 < 0.05
Simulation CPU 0 warning: IPC 0.03357 < 0.05
Simulation CPU 0 warning: IPC 0.030984 < 0.05
Simulation CPU 0 warning: IPC 0.031436 < 0.05
Simulation CPU 0 warning: IPC 0.032219 < 0.05
Simulation CPU 0 warning: IPC 0.028431 < 0.05
Simulation CPU 0 warning: IPC 0.031928 < 0.05
Simulation CPU 0 warning: IPC 0.030883 < 0.05
Simulation CPU 0 warning: IPC 0.02586 < 0.05
Simulation CPU 0 warning: IPC 0.030353 < 0.05
Simulation CPU 0 warning: IPC 0.03151 < 0.05
Simulation CPU 0 warning: IPC 0.029825 < 0.05
Simulation CPU 0 warning: IPC 0.029779 < 0.05
Simulation CPU 0 warning: IPC 0.030577 < 0.05
Simulation CPU 0 warning: IPC 0.035775 < 0.05
Simulation CPU 0 warning: IPC 0.034604 < 0.05
Simulation CPU 0 warning: IPC 0.028453 < 0.05
Simulation CPU 0 warning: IPC 0.030897 < 0.05
Simulation CPU 0 warning: IPC 0.032583 < 0.05
Simulation CPU 0 warning: IPC 0.02662 < 0.05
Simulation CPU 0 warning: IPC 0.029495 < 0.05
Simulation CPU 0 warning: IPC 0.034623 < 0.05
Simulation CPU 0 warning: IPC 0.034166 < 0.05
Simulation CPU 0 warning: IPC 0.034762 < 0.05
Simulation CPU 0 warning: IPC 0.035269 < 0.05
Simulation CPU 0 warning: IPC 0.032744 < 0.05
Simulation CPU 0 warning: IPC 0.035263 < 0.05
Simulation CPU 0 warning: IPC 0.035248 < 0.05
Simulation CPU 0 warning: IPC 0.033817 < 0.05
Simulation CPU 0 warning: IPC 0.033166 < 0.05
Simulation CPU 0 warning: IPC 0.032873 < 0.05
Simulation CPU 0 warning: IPC 0.032683 < 0.05
Simulation CPU 0 warning: IPC 0.028061 < 0.05
Simulation CPU 0 warning: IPC 0.029565 < 0.05
Simulation CPU 0 warning: IPC 0.032329 < 0.05
Simulation CPU 0 warning: IPC 0.031806 < 0.05
Simulation CPU 0 warning: IPC 0.032575 < 0.05
Simulation CPU 0 warning: IPC 0.032112 < 0.05
Simulation CPU 0 warning: IPC 0.032871 < 0.05
Simulation CPU 0 warning: IPC 0.032423 < 0.05
Simulation CPU 0 warning: IPC 0.030468 < 0.05
Simulation CPU 0 warning: IPC 0.033384 < 0.05
Simulation CPU 0 warning: IPC 0.034251 < 0.05
Simulation CPU 0 warning: IPC 0.0336 < 0.05
Simulation CPU 0 warning: IPC 0.029279 < 0.05
Simulation CPU 0 warning: IPC 0.034264 < 0.05
Simulation CPU 0 warning: IPC 0.033818 < 0.05
Simulation CPU 0 warning: IPC 0.033685 < 0.05
Simulation CPU 0 warning: IPC 0.034023 < 0.05
Simulation CPU 0 warning: IPC 0.030315 < 0.05
Simulation CPU 0 warning: IPC 0.0341 < 0.05
Simulation CPU 0 warning: IPC 0.033999 < 0.05
Simulation CPU 0 warning: IPC 0.032382 < 0.05
Simulation CPU 0 warning: IPC 0.032359 < 0.05
Simulation CPU 0 warning: IPC 0.035012 < 0.05
Simulation CPU 0 warning: IPC 0.034743 < 0.05
Simulation CPU 0 warning: IPC 0.032514 < 0.05
Simulation CPU 0 warning: IPC 0.030328 < 0.05
Simulation CPU 0 warning: IPC 0.030337 < 0.05
Simulation CPU 0 warning: IPC 0.030067 < 0.05
Simulation CPU 0 warning: IPC 0.030678 < 0.05
Simulation CPU 0 warning: IPC 0.032716 < 0.05
Simulation CPU 0 warning: IPC 0.031507 < 0.05
Simulation CPU 0 warning: IPC 0.031751 < 0.05
Simulation CPU 0 warning: IPC 0.032407 < 0.05
Simulation CPU 0 warning: IPC 0.031179 < 0.05
Simulation CPU 0 warning: IPC 0.031243 < 0.05
Simulation CPU 0 warning: IPC 0.032532 < 0.05
Simulation CPU 0 warning: IPC 0.030634 < 0.05
Simulation CPU 0 warning: IPC 0.031277 < 0.05
Simulation CPU 0 warning: IPC 0.030456 < 0.05
Simulation CPU 0 warning: IPC 0.032616 < 0.05
Simulation CPU 0 warning: IPC 0.031626 < 0.05
Simulation CPU 0 warning: IPC 0.031492 < 0.05
Simulation CPU 0 warning: IPC 0.032117 < 0.05
Simulation CPU 0 warning: IPC 0.0312 < 0.05
Simulation CPU 0 warning: IPC 0.03244 < 0.05
Simulation CPU 0 warning: IPC 0.032951 < 0.05
Simulation CPU 0 warning: IPC 0.033607 < 0.05
Simulation CPU 0 warning: IPC 0.03137 < 0.05
Simulation CPU 0 warning: IPC 0.032618 < 0.05
Simulation CPU 0 warning: IPC 0.030201 < 0.05
Simulation CPU 0 warning: IPC 0.032648 < 0.05
Simulation CPU 0 warning: IPC 0.030892 < 0.05
Simulation CPU 0 warning: IPC 0.03149 < 0.05
Simulation CPU 0 warning: IPC 0.033488 < 0.05
Simulation CPU 0 warning: IPC 0.033386 < 0.05
Simulation CPU 0 warning: IPC 0.033923 < 0.05
Simulation CPU 0 warning: IPC 0.029253 < 0.05
Simulation finished CPU 0 instructions: 100000002 cycles: 3171758459 cumulative IPC: 0.03153 (Simulation time: 05 hr 01 min 37 sec)
Simulation complete CPU 0 instructions: 100000002 cycles: 3171758459 cumulative IPC: 0.03153 (Simulation time: 05 hr 01 min 37 sec)

ChampSim completed all CPUs

=== Simulation ===
CPU 0 runs /data2/zcq/champsim_traces_gap/pr.twitter-3197B.champsimtrace.xz

Region of Interest Statistics

CPU 0 cumulative IPC: 0.03153 instructions: 100000002 cycles: 3171758459
CPU 0 Branch Prediction Accuracy: 97.56% MPKI: 4.734 Average ROB Occupancy at Mispredict: 262.2
Branch type MPKI
BRANCH_DIRECT_JUMP: 0
BRANCH_INDIRECT: 0
BRANCH_CONDITIONAL: 4.734
BRANCH_DIRECT_CALL: 0
BRANCH_INDIRECT_CALL: 0
BRANCH_RETURN: 0

cpu0->cpu0_STLB TOTAL        ACCESS:   16896480 HIT:    2476479 MISS:   14420001 MSHR_MERGE:          0
cpu0->cpu0_STLB LOAD         ACCESS:   16896480 HIT:    2476479 MISS:   14420001 MSHR_MERGE:          0
cpu0->cpu0_STLB RFO          ACCESS:          0 HIT:          0 MISS:          0 MSHR_MERGE:          0
cpu0->cpu0_STLB PREFETCH     ACCESS:          0 HIT:          0 MISS:          0 MSHR_MERGE:          0
cpu0->cpu0_STLB WRITE        ACCESS:          0 HIT:          0 MISS:          0 MSHR_MERGE:          0
cpu0->cpu0_STLB TRANSLATION  ACCESS:          0 HIT:          0 MISS:          0 MSHR_MERGE:          0
cpu0->cpu0_STLB PREFETCH REQUESTED:          0 ISSUED:          0 USEFUL:          0 USELESS:          0 LATE:          0 TOO_EARLY:          0
cpu0->cpu0_STLB AVERAGE MISS LATENCY: 25.38 cycles
cpu0->cpu0_L2C TOTAL        ACCESS:   36394205 HIT:   14137394 MISS:   22256811 MSHR_MERGE:     223437
cpu0->cpu0_L2C LOAD         ACCESS:   17008384 HIT:    1673784 MISS:   15334600 MSHR_MERGE:       5101
cpu0->cpu0_L2C RFO          ACCESS:      14366 HIT:      12961 MISS:       1405 MSHR_MERGE:          0
cpu0->cpu0_L2C PREFETCH     ACCESS:    7880690 HIT:    6301516 MISS:    1579174 MSHR_MERGE:     218336
cpu0->cpu0_L2C WRITE        ACCESS:      57034 HIT:      57024 MISS:         10 MSHR_MERGE:          0
cpu0->cpu0_L2C TRANSLATION  ACCESS:   11433731 HIT:    6092109 MISS:    5341622 MSHR_MERGE:          0
cpu0->cpu0_L2C PREFETCH REQUESTED:    3122405 ISSUED:    3116390 USEFUL:     883837 USELESS:      35328 LATE:       2583 TOO_EARLY:      14386
cpu0->cpu0_L2C AVERAGE MISS LATENCY: 120 cycles
cpu0->cpu0_L1I TOTAL        ACCESS:   12678004 HIT:   12678004 MISS:          0 MSHR_MERGE:          0
cpu0->cpu0_L1I LOAD         ACCESS:   12678004 HIT:   12678004 MISS:          0 MSHR_MERGE:          0
cpu0->cpu0_L1I RFO          ACCESS:          0 HIT:          0 MISS:          0 MSHR_MERGE:          0
cpu0->cpu0_L1I PREFETCH     ACCESS:          0 HIT:          0 MISS:          0 MSHR_MERGE:          0
cpu0->cpu0_L1I WRITE        ACCESS:          0 HIT:          0 MISS:          0 MSHR_MERGE:          0
cpu0->cpu0_L1I TRANSLATION  ACCESS:          0 HIT:          0 MISS:          0 MSHR_MERGE:          0
cpu0->cpu0_L1I PREFETCH REQUESTED:          0 ISSUED:          0 USEFUL:          0 USELESS:          0 LATE:          0 TOO_EARLY:          0
cpu0->cpu0_L1I AVERAGE MISS LATENCY: - cycles
cpu0->cpu0_L1D TOTAL        ACCESS:   93107777 HIT:   59694898 MISS:   33412879 MSHR_MERGE:     182378
cpu0->cpu0_L1D LOAD         ACCESS:   37943946 HIT:   20838252 MISS:   17105694 MSHR_MERGE:      97310
cpu0->cpu0_L1D RFO          ACCESS:          0 HIT:          0 MISS:          0 MSHR_MERGE:          0
cpu0->cpu0_L1D PREFETCH     ACCESS:   22971758 HIT:   18155710 MISS:    4816048 MSHR_MERGE:      42026
cpu0->cpu0_L1D WRITE        ACCESS:     537486 HIT:     480078 MISS:      57408 MSHR_MERGE:      43042
cpu0->cpu0_L1D TRANSLATION  ACCESS:   31654587 HIT:   20220858 MISS:   11433729 MSHR_MERGE:          0
cpu0->cpu0_L1D PREFETCH REQUESTED:   24207862 ISSUED:   22971753 USEFUL:    1222177 USELESS:      44373 LATE:      13421 TOO_EARLY:       6185
cpu0->cpu0_L1D AVERAGE MISS LATENCY: 95.95 cycles
cpu0->cpu0_ITLB TOTAL        ACCESS:   12678004 HIT:   12678004 MISS:          0 MSHR_MERGE:          0
cpu0->cpu0_ITLB LOAD         ACCESS:   12678004 HIT:   12678004 MISS:          0 MSHR_MERGE:          0
cpu0->cpu0_ITLB RFO          ACCESS:          0 HIT:          0 MISS:          0 MSHR_MERGE:          0
cpu0->cpu0_ITLB PREFETCH     ACCESS:          0 HIT:          0 MISS:          0 MSHR_MERGE:          0
cpu0->cpu0_ITLB WRITE        ACCESS:          0 HIT:          0 MISS:          0 MSHR_MERGE:          0
cpu0->cpu0_ITLB TRANSLATION  ACCESS:          0 HIT:          0 MISS:          0 MSHR_MERGE:          0
cpu0->cpu0_ITLB PREFETCH REQUESTED:          0 ISSUED:          0 USEFUL:          0 USELESS:          0 LATE:          0 TOO_EARLY:          0
cpu0->cpu0_ITLB AVERAGE MISS LATENCY: - cycles
cpu0->cpu0_DTLB TOTAL        ACCESS:   58528027 HIT:   41557067 MISS:   16970960 MSHR_MERGE:      74480
cpu0->cpu0_DTLB LOAD         ACCESS:   58528027 HIT:   41557067 MISS:   16970960 MSHR_MERGE:      74480
cpu0->cpu0_DTLB RFO          ACCESS:          0 HIT:          0 MISS:          0 MSHR_MERGE:          0
cpu0->cpu0_DTLB PREFETCH     ACCESS:          0 HIT:          0 MISS:          0 MSHR_MERGE:          0
cpu0->cpu0_DTLB WRITE        ACCESS:          0 HIT:          0 MISS:          0 MSHR_MERGE:          0
cpu0->cpu0_DTLB TRANSLATION  ACCESS:          0 HIT:          0 MISS:          0 MSHR_MERGE:          0
cpu0->cpu0_DTLB PREFETCH REQUESTED:          0 ISSUED:          0 USEFUL:          0 USELESS:          0 LATE:          0 TOO_EARLY:          0
cpu0->cpu0_DTLB AVERAGE MISS LATENCY: 27.5 cycles
cpu0->LLC TOTAL        ACCESS:   22065827 HIT:    8649415 MISS:   13416412 MSHR_MERGE:       1763
cpu0->LLC LOAD         ACCESS:   15329499 HIT:    3399170 MISS:   11930329 MSHR_MERGE:         10
cpu0->LLC RFO          ACCESS:       1405 HIT:       1405 MISS:          0 MSHR_MERGE:          0
cpu0->LLC PREFETCH     ACCESS:    1360838 HIT:       5046 MISS:    1355792 MSHR_MERGE:       1753
cpu0->LLC WRITE        ACCESS:      32463 HIT:       9510 MISS:      22953 MSHR_MERGE:          0
cpu0->LLC TRANSLATION  ACCESS:    5341622 HIT:    5234284 MISS:     107338 MSHR_MERGE:          0
cpu0->LLC PREFETCH REQUESTED:          0 ISSUED:          0 USEFUL:          0 USELESS:          0 LATE:          0 TOO_EARLY:          0
cpu0->LLC AVERAGE MISS LATENCY: 179.1 cycles

DRAM Statistics

Channel 0 RQ ROW_BUFFER_HIT:      40057
  ROW_BUFFER_MISS:   13351638
  AVG DBUS CONGESTED CYCLE: 13.82
Channel 0 WQ ROW_BUFFER_HIT:       5702
  ROW_BUFFER_MISS:      23636
  FULL:          0
Channel 0 REFRESHES ISSUED:     264313

[ROI Statistics]
[System Configuration]
num_cpus 1
cpu_freq 4000
fetch_width 6
decode_width 6
dispatch_width 6
execute_width 6
lq_width 2
sq_width 2
retire_width 6
scheduler_size 128
branch_mispredict_penalty 15
rob_size 352
lq_size 128
sq_size 72
ifetch_buffer_size 64
decode_buffer_size 32
dispatch_buffer_size 32
register_file_size 288
decode_latency 1
dispatch_latency 1
schedule_latency 1
execute_latency 1
page_size 4096
block_size 64
core_0_itlb_set 16
core_0_itlb_way 4
core_0_itlb_rq_size 16
core_0_itlb_wq_size 16
core_0_itlb_pq_size 0
core_0_itlb_mshr_size 8
core_0_itlb_hit_latency 1
core_0_itlb_fill_latency 1
core_0_itlb_max_tag_check 2
core_0_itlb_max_fill 2
core_0_dtlb_set 16
core_0_dtlb_way 4
core_0_dtlb_rq_size 16
core_0_dtlb_wq_size 16
core_0_dtlb_pq_size 0
core_0_dtlb_mshr_size 8
core_0_dtlb_hit_latency 1
core_0_dtlb_fill_latency 1
core_0_dtlb_max_tag_check 2
core_0_dtlb_max_fill 2
core_0_stlb_set 128
core_0_stlb_way 12
core_0_stlb_rq_size 32
core_0_stlb_wq_size 32
core_0_stlb_pq_size 0
core_0_stlb_mshr_size 16
core_0_stlb_hit_latency 4
core_0_stlb_fill_latency 4
core_0_stlb_max_tag_check 1
core_0_stlb_max_fill 1
core_0_l1i_set 64
core_0_l1i_way 8
core_0_l1i_rq_size 64
core_0_l1i_wq_size 64
core_0_l1i_pq_size 32
core_0_l1i_mshr_size 8
core_0_l1i_hit_latency 2
core_0_l1i_fill_latency 2
core_0_l1i_max_tag_check 2
core_0_l1i_max_fill 2
core_0_l1d_set 64
core_0_l1d_way 12
core_0_l1d_rq_size 64
core_0_l1d_wq_size 64
core_0_l1d_pq_size 8
core_0_l1d_mshr_size 16
core_0_l1d_hit_latency 2
core_0_l1d_fill_latency 3
core_0_l1d_max_tag_check 2
core_0_l1d_max_fill 2
core_0_l2c_set 1024
core_0_l2c_way 8
core_0_l2c_rq_size 32
core_0_l2c_wq_size 32
core_0_l2c_pq_size 16
core_0_l2c_mshr_size 32
core_0_l2c_hit_latency 5
core_0_l2c_fill_latency 5
core_0_l2c_max_tag_check 1
core_0_l2c_max_fill 1
llc_set 2048
llc_way 16
llc_rq_size 32
llc_wq_size 32
llc_pq_size 32
llc_mshr_size 64
llc_hit_latency 10
llc_fill_latency 10
llc_max_tag_check 1
llc_max_fill 1
dram_channels 1
dram_ranks 1
dram_bankgroups 8
dram_banks 4
dram_rows 65536
dram_columns 1024
dram_channel_width 8
dram_rq_size 64
dram_wq_size 64
dram_size 17179869184
core_0_itlb_prefetcher no
core_0_dtlb_prefetcher no
core_0_stlb_prefetcher no
core_0_l1i_prefetcher next_line
core_0_l1d_prefetcher vberti
core_0_l2c_prefetcher ip_stride
llc_prefetcher no
llc_replacement drrip

Core_0_instructions 100000002
Core_0_cycles 3171758459
Core_0_IPC 0.0315283
Core_0_branch_prediction_accuracy 97.5573
Core_0_branch_MPKI 4.73448
Core_0_average_ROB_occupancy_at_mispredict 262.211

Core_0_ITLB_total_access 12678004
Core_0_ITLB_total_hit 12678004
Core_0_ITLB_total_miss 0
Core_0_ITLB_total_MPKI 0
Core_0_ITLB_total_miss_rate 0
Core_0_ITLB_demand_access 12678004
Core_0_ITLB_demand_hit 12678004
Core_0_ITLB_demand_miss 0
Core_0_ITLB_demand_MPKI 0
Core_0_ITLB_demand_miss_rate 0
Core_0_ITLB_load_access 12678004
Core_0_ITLB_load_hit 12678004
Core_0_ITLB_load_miss 0
Core_0_ITLB_load_MPKI 0
Core_0_ITLB_load_miss_rate 0
Core_0_ITLB_rfo_access 0
Core_0_ITLB_rfo_hit 0
Core_0_ITLB_rfo_miss 0
Core_0_ITLB_rfo_MPKI 0
Core_0_ITLB_rfo_miss_rate 0
Core_0_ITLB_prefetch_access 0
Core_0_ITLB_prefetch_hit 0
Core_0_ITLB_prefetch_miss 0
Core_0_ITLB_prefetch_MPKI 0
Core_0_ITLB_prefetch_miss_rate 0
Core_0_ITLB_writeback_access 0
Core_0_ITLB_writeback_hit 0
Core_0_ITLB_writeback_miss 0
Core_0_ITLB_writeback_MPKI 0
Core_0_ITLB_writeback_miss_rate 0
Core_0_ITLB_prefetch_requested 0
Core_0_ITLB_prefetch_issued 0
Core_0_ITLB_prefetch_useful 0
Core_0_ITLB_prefetch_useless 0
Core_0_ITLB_prefetch_late 0
Core_0_ITLB_prefetch_fill 0
Core_0_ITLB_prefetch_too_early 0
Core_0_ITLB_prefetch_too_early_among_fill 0
Core_0_ITLB_prefetch_too_early_among_useless 0
Core_0_ITLB_prefetch_pollution_evict 0
Core_0_ITLB_prefetch_pollution_demand 0
Core_0_ITLB_prefetch_pollution_among_prefetch_fill 0
Core_0_ITLB_prefetch_accuracy 0
Core_0_ITLB_prefetch_coverage 0

Core_0_DTLB_total_access 58528027
Core_0_DTLB_total_hit 41557067
Core_0_DTLB_total_miss 16970960
Core_0_DTLB_total_MPKI 169.71
Core_0_DTLB_total_miss_rate 0.289963
Core_0_DTLB_demand_access 58528027
Core_0_DTLB_demand_hit 41557067
Core_0_DTLB_demand_miss 16970960
Core_0_DTLB_demand_MPKI 169.71
Core_0_DTLB_demand_miss_rate 0.289963
Core_0_DTLB_load_access 58528027
Core_0_DTLB_load_hit 41557067
Core_0_DTLB_load_miss 16970960
Core_0_DTLB_load_MPKI 169.71
Core_0_DTLB_load_miss_rate 0.289963
Core_0_DTLB_rfo_access 0
Core_0_DTLB_rfo_hit 0
Core_0_DTLB_rfo_miss 0
Core_0_DTLB_rfo_MPKI 0
Core_0_DTLB_rfo_miss_rate 0
Core_0_DTLB_prefetch_access 0
Core_0_DTLB_prefetch_hit 0
Core_0_DTLB_prefetch_miss 0
Core_0_DTLB_prefetch_MPKI 0
Core_0_DTLB_prefetch_miss_rate 0
Core_0_DTLB_writeback_access 0
Core_0_DTLB_writeback_hit 0
Core_0_DTLB_writeback_miss 0
Core_0_DTLB_writeback_MPKI 0
Core_0_DTLB_writeback_miss_rate 0
Core_0_DTLB_prefetch_requested 0
Core_0_DTLB_prefetch_issued 0
Core_0_DTLB_prefetch_useful 0
Core_0_DTLB_prefetch_useless 0
Core_0_DTLB_prefetch_late 0
Core_0_DTLB_prefetch_fill 0
Core_0_DTLB_prefetch_too_early 0
Core_0_DTLB_prefetch_too_early_among_fill 0
Core_0_DTLB_prefetch_too_early_among_useless 0
Core_0_DTLB_prefetch_pollution_evict 0
Core_0_DTLB_prefetch_pollution_demand 0
Core_0_DTLB_prefetch_pollution_among_prefetch_fill 0
Core_0_DTLB_prefetch_accuracy 0
Core_0_DTLB_prefetch_coverage 0

Core_0_STLB_total_access 16896480
Core_0_STLB_total_hit 2476479
Core_0_STLB_total_miss 14420001
Core_0_STLB_total_MPKI 144.2
Core_0_STLB_total_miss_rate 0.853432
Core_0_STLB_demand_access 16896480
Core_0_STLB_demand_hit 2476479
Core_0_STLB_demand_miss 14420001
Core_0_STLB_demand_MPKI 144.2
Core_0_STLB_demand_miss_rate 0.853432
Core_0_STLB_load_access 16896480
Core_0_STLB_load_hit 2476479
Core_0_STLB_load_miss 14420001
Core_0_STLB_load_MPKI 144.2
Core_0_STLB_load_miss_rate 0.853432
Core_0_STLB_rfo_access 0
Core_0_STLB_rfo_hit 0
Core_0_STLB_rfo_miss 0
Core_0_STLB_rfo_MPKI 0
Core_0_STLB_rfo_miss_rate 0
Core_0_STLB_prefetch_access 0
Core_0_STLB_prefetch_hit 0
Core_0_STLB_prefetch_miss 0
Core_0_STLB_prefetch_MPKI 0
Core_0_STLB_prefetch_miss_rate 0
Core_0_STLB_writeback_access 0
Core_0_STLB_writeback_hit 0
Core_0_STLB_writeback_miss 0
Core_0_STLB_writeback_MPKI 0
Core_0_STLB_writeback_miss_rate 0
Core_0_STLB_prefetch_requested 0
Core_0_STLB_prefetch_issued 0
Core_0_STLB_prefetch_useful 0
Core_0_STLB_prefetch_useless 0
Core_0_STLB_prefetch_late 0
Core_0_STLB_prefetch_fill 0
Core_0_STLB_prefetch_too_early 0
Core_0_STLB_prefetch_too_early_among_fill 0
Core_0_STLB_prefetch_too_early_among_useless 0
Core_0_STLB_prefetch_pollution_evict 0
Core_0_STLB_prefetch_pollution_demand 0
Core_0_STLB_prefetch_pollution_among_prefetch_fill 0
Core_0_STLB_prefetch_accuracy 0
Core_0_STLB_prefetch_coverage 0

Core_0_L1I_total_access 12678004
Core_0_L1I_total_hit 12678004
Core_0_L1I_total_miss 0
Core_0_L1I_total_MPKI 0
Core_0_L1I_total_miss_rate 0
Core_0_L1I_demand_access 12678004
Core_0_L1I_demand_hit 12678004
Core_0_L1I_demand_miss 0
Core_0_L1I_demand_MPKI 0
Core_0_L1I_demand_miss_rate 0
Core_0_L1I_load_access 12678004
Core_0_L1I_load_hit 12678004
Core_0_L1I_load_miss 0
Core_0_L1I_load_MPKI 0
Core_0_L1I_load_miss_rate 0
Core_0_L1I_rfo_access 0
Core_0_L1I_rfo_hit 0
Core_0_L1I_rfo_miss 0
Core_0_L1I_rfo_MPKI 0
Core_0_L1I_rfo_miss_rate 0
Core_0_L1I_prefetch_access 0
Core_0_L1I_prefetch_hit 0
Core_0_L1I_prefetch_miss 0
Core_0_L1I_prefetch_MPKI 0
Core_0_L1I_prefetch_miss_rate 0
Core_0_L1I_writeback_access 0
Core_0_L1I_writeback_hit 0
Core_0_L1I_writeback_miss 0
Core_0_L1I_writeback_MPKI 0
Core_0_L1I_writeback_miss_rate 0
Core_0_L1I_prefetch_requested 0
Core_0_L1I_prefetch_issued 0
Core_0_L1I_prefetch_useful 0
Core_0_L1I_prefetch_useless 0
Core_0_L1I_prefetch_late 0
Core_0_L1I_prefetch_fill 0
Core_0_L1I_prefetch_too_early 0
Core_0_L1I_prefetch_too_early_among_fill 0
Core_0_L1I_prefetch_too_early_among_useless 0
Core_0_L1I_prefetch_pollution_evict 0
Core_0_L1I_prefetch_pollution_demand 0
Core_0_L1I_prefetch_pollution_among_prefetch_fill 0
Core_0_L1I_prefetch_accuracy 0
Core_0_L1I_prefetch_coverage 0

Core_0_L1D_total_access 61453190
Core_0_L1D_total_hit 39474040
Core_0_L1D_total_miss 21979150
Core_0_L1D_total_MPKI 219.791
Core_0_L1D_total_miss_rate 0.357657
Core_0_L1D_demand_access 37943946
Core_0_L1D_demand_hit 20838252
Core_0_L1D_demand_miss 17105694
Core_0_L1D_demand_MPKI 171.057
Core_0_L1D_demand_miss_rate 0.450815
Core_0_L1D_load_access 37943946
Core_0_L1D_load_hit 20838252
Core_0_L1D_load_miss 17105694
Core_0_L1D_load_MPKI 171.057
Core_0_L1D_load_miss_rate 0.450815
Core_0_L1D_rfo_access 0
Core_0_L1D_rfo_hit 0
Core_0_L1D_rfo_miss 0
Core_0_L1D_rfo_MPKI 0
Core_0_L1D_rfo_miss_rate 0
Core_0_L1D_prefetch_access 22971758
Core_0_L1D_prefetch_hit 18155710
Core_0_L1D_prefetch_miss 4816048
Core_0_L1D_prefetch_MPKI 48.1605
Core_0_L1D_prefetch_miss_rate 0.209651
Core_0_L1D_writeback_access 537486
Core_0_L1D_writeback_hit 480078
Core_0_L1D_writeback_miss 57408
Core_0_L1D_writeback_MPKI 0.57408
Core_0_L1D_writeback_miss_rate 0.106808
Core_0_L1D_prefetch_requested 24207862
Core_0_L1D_prefetch_issued 22971753
Core_0_L1D_prefetch_useful 1222177
Core_0_L1D_prefetch_useless 44373
Core_0_L1D_prefetch_late 13421
Core_0_L1D_prefetch_fill 1253133
Core_0_L1D_prefetch_too_early 6185
Core_0_L1D_prefetch_too_early_among_fill 0.00493563
Core_0_L1D_prefetch_too_early_among_useless 0.139387
Core_0_L1D_prefetch_pollution_evict 98158
Core_0_L1D_prefetch_pollution_demand 97951
Core_0_L1D_prefetch_pollution_among_prefetch_fill 0.0783301
Core_0_L1D_prefetch_accuracy 0.0532035
Core_0_L1D_prefetch_coverage 0.0666841

Core_0_L2C_total_access 24960474
Core_0_L2C_total_hit 8045285
Core_0_L2C_total_miss 16915189
Core_0_L2C_total_MPKI 169.152
Core_0_L2C_total_miss_rate 0.677679
Core_0_L2C_demand_access 17022750
Core_0_L2C_demand_hit 1686745
Core_0_L2C_demand_miss 15336005
Core_0_L2C_demand_MPKI 153.36
Core_0_L2C_demand_miss_rate 0.900912
Core_0_L2C_load_access 17008384
Core_0_L2C_load_hit 1673784
Core_0_L2C_load_miss 15334600
Core_0_L2C_load_MPKI 153.346
Core_0_L2C_load_miss_rate 0.901591
Core_0_L2C_rfo_access 14366
Core_0_L2C_rfo_hit 12961
Core_0_L2C_rfo_miss 1405
Core_0_L2C_rfo_MPKI 0.01405
Core_0_L2C_rfo_miss_rate 0.0978004
Core_0_L2C_prefetch_access 7880690
Core_0_L2C_prefetch_hit 6301516
Core_0_L2C_prefetch_miss 1579174
Core_0_L2C_prefetch_MPKI 15.7917
Core_0_L2C_prefetch_miss_rate 0.200385
Core_0_L2C_writeback_access 57034
Core_0_L2C_writeback_hit 57024
Core_0_L2C_writeback_miss 10
Core_0_L2C_writeback_MPKI 0.0001
Core_0_L2C_writeback_miss_rate 0.000175334
Core_0_L2C_prefetch_requested 3122405
Core_0_L2C_prefetch_issued 3116390
Core_0_L2C_prefetch_useful 883837
Core_0_L2C_prefetch_useless 35328
Core_0_L2C_prefetch_late 2583
Core_0_L2C_prefetch_fill 1352599
Core_0_L2C_prefetch_too_early 14386
Core_0_L2C_prefetch_too_early_among_fill 0.0106358
Core_0_L2C_prefetch_too_early_among_useless 0.407212
Core_0_L2C_prefetch_pollution_evict 276693
Core_0_L2C_prefetch_pollution_demand 276594
Core_0_L2C_prefetch_pollution_among_prefetch_fill 0.204564
Core_0_L2C_prefetch_accuracy 0.283609
Core_0_L2C_prefetch_coverage 0.0544911

Core_0_LLC_total_access 16724205
Core_0_LLC_total_hit 3415131
Core_0_LLC_total_miss 13309074
Core_0_LLC_total_MPKI 133.091
Core_0_LLC_total_miss_rate 0.795797
Core_0_LLC_demand_access 15330904
Core_0_LLC_demand_hit 3400575
Core_0_LLC_demand_miss 11930329
Core_0_LLC_demand_MPKI 119.303
Core_0_LLC_demand_miss_rate 0.778188
Core_0_LLC_load_access 15329499
Core_0_LLC_load_hit 3399170
Core_0_LLC_load_miss 11930329
Core_0_LLC_load_MPKI 119.303
Core_0_LLC_load_miss_rate 0.77826
Core_0_LLC_rfo_access 1405
Core_0_LLC_rfo_hit 1405
Core_0_LLC_rfo_miss 0
Core_0_LLC_rfo_MPKI 0
Core_0_LLC_rfo_miss_rate 0
Core_0_LLC_prefetch_access 1360838
Core_0_LLC_prefetch_hit 5046
Core_0_LLC_prefetch_miss 1355792
Core_0_LLC_prefetch_MPKI 13.5579
Core_0_LLC_prefetch_miss_rate 0.996292
Core_0_LLC_writeback_access 32463
Core_0_LLC_writeback_hit 9510
Core_0_LLC_writeback_miss 22953
Core_0_LLC_writeback_MPKI 0.22953
Core_0_LLC_writeback_miss_rate 0.707051
Core_0_LLC_prefetch_requested 0
Core_0_LLC_prefetch_issued 0
Core_0_LLC_prefetch_useful 0
Core_0_LLC_prefetch_useless 0
Core_0_LLC_prefetch_late 0
Core_0_LLC_prefetch_fill 1354028
Core_0_LLC_prefetch_too_early 0
Core_0_LLC_prefetch_too_early_among_fill 0
Core_0_LLC_prefetch_too_early_among_useless 0
Core_0_LLC_prefetch_pollution_evict 471818
Core_0_LLC_prefetch_pollution_demand 471818
Core_0_LLC_prefetch_pollution_among_prefetch_fill 0.348455
Core_0_LLC_prefetch_accuracy 0
Core_0_LLC_prefetch_coverage 0

[DRAM Statistics]
Channel_0_RQ_row_buffer_hit 40057
Channel_0_RQ_row_buffer_miss 13351638
Channel_0_WQ_row_buffer_hit 5702
Channel_0_WQ_row_buffer_miss 23636
Channel_0_WQ_full 0
Channel_0_dbus_congested 3058387
DRAM_total_RQ_row_buffer_hit 40057
DRAM_total_RQ_row_buffer_miss 13351638
DRAM_total_WQ_row_buffer_hit 5702
DRAM_total_WQ_row_buffer_miss 23636
DRAM_total_WQ_full 0
DRAM_total_dbus_congested 3058387
DRAM_avg_congested_cycle 13.8164

====== DRAM_RQ_TRAFFIC ========
DRAM_RQ_READ_TRAFFIC_BREAKDOWN:
data_demand_read.count = 11930319
data_demand_read.share = 89.09%

inst_demand_read.count = 0
inst_demand_read.share = 0.00%

cache_inst_prefetch.count = 0
cache_inst_prefetch.share = 0.00%

cache_data_prefetch.count = 1354039
cache_data_prefetch.share = 10.11%

stlb_data_demand.count = 104569
stlb_data_demand.share = 0.78%

stlb_inst_demand.count = 0
stlb_inst_demand.share = 0.00%

stlb_l1i_pref.count = 0
stlb_l1i_pref.share = 0.00%

stlb_l1d_pref.count = 2769
stlb_l1d_pref.share = 0.02%

DRAM_RQ_READ_TRAFFIC_SUMMARY:
cache_demand.count = 11930319
cache_demand.share = 89.09%

cache_prefetch.count = 1354039
cache_prefetch.share = 10.11%

stlb_demand.count = 104569
stlb_demand.share = 0.78%

stlb_prefetch.count = 2769
stlb_prefetch.share = 0.02%

DRAM_RQ_READ_TRAFFIC_DEBUG:
total_classified_read.count = 13391696
unclassified_read.count = 0
total_read_with_other.count = 13391696

classified_plus_unclassified_check.count = 13391696
dram_rq_read_total_observed.count = 13391696
dram_rq_read_total_observed.per_1K_instructions = 133.917

STLB_MISS_PTW_DRAM_TOUCH_BREAKDOWN:
stlb_miss_total.count = 14412290

stlb_miss_touch_dram.count = 107315
stlb_miss_touch_dram.share = 0.74%

stlb_miss_no_dram_touch.count = 14304975
stlb_miss_no_dram_touch.share = 99.26%

STLB_MISS_PTW_DRAM_TOUCH_DEBUG:
stlb_miss_touch_plus_no_touch.count = 14412290
stlb_miss_total_check.count = 14412290

======STLB miss causes ========
Core_0_STLB_miss_cause_breakdown
Core_0_STLB_cause_Demand_Data_miss 14388068
Core_0_STLB_cause_Demand_Data_miss_rate 0.851542
Core_0_STLB_cause_Demand_Instruction_miss 0
Core_0_STLB_cause_Demand_Instruction_miss_rate 0
Core_0_STLB_cause_L1D_Prefetch_miss 31933
Core_0_STLB_cause_L1D_Prefetch_miss_rate 0.00188992
Core_0_STLB_cause_L1D_Prefetch_Same_Page_miss 0
Core_0_STLB_cause_L1D_Prefetch_Same_Page_miss_rate 0
Core_0_STLB_cause_L1D_Prefetch_Cross_Page_miss 31933
Core_0_STLB_cause_L1D_Prefetch_Cross_Page_miss_rate 0.00188992
Core_0_STLB_cause_L1I_Prefetch_miss 0
Core_0_STLB_cause_L1I_Prefetch_miss_rate 0
Core_0_STLB_cause_Other_miss 0
Core_0_STLB_cause_Other_miss_rate 0
Core_0_STLB_Demand_miss 14388068
Core_0_STLB_Demand_miss_rate 0.851542
Core_0_STLB_L1D_Prefetch_miss 31933
Core_0_STLB_L1D_Prefetch_miss_rate 0.00188992
Core_0_STLB_Other_miss 0
Core_0_STLB_Other_miss_rate 0

========== vBerti-TLB Cross-page Flow Stats ==========

Core_0_vBerti_Requested 24207862
Core_0_vBerti_Cross_page_prefetch_in_Requested 852207
Core_0_vBerti_Same_page_prefetch_in_Requested 23355655
Core_0_vBerti_Cross_page_prefetch_of_Requested 0.0352037
Core_0_vBerti_Issued 22971753
Core_0_vBerti_InPQ_Same_page_prefetch 22287292
Core_0_vBerti_InPQ_Cross_page_prefetch 684461
Core_0_vBerti_PQ_Drop_Rate 0.0510623
Core_0_vBerti_InPQ_Cross_page_prefetch_of_Requested 0.0282743
Core_0_vBerti_Cross_page_PQ_Drop_rate 0.196837
Core_0_vBerti_Cross_page_prefetch_of_Issued 0.0297958
Core_0_CP_PF_PQFULL_drop 167746
Core_0_CP_PF_PQFULL_TLB_rescue_enqueued 164298
Core_0_CP_PF_PQFULL_TLB_rescue_issued 164298
Core_0_CP_PF_PQFULL_TLB_rescue_translated 164298

========= DTLB_vBerti Prefetch Stats =========
Core_0_DTLB_demand_access 38378866
Core_0_DTLB_demand_hit 21487223
Core_0_DTLB_demand_miss 16891643
Core_0_DTLB_demand_mshr_merge 27336
Core_0_DTLB_demand_fill 16864662
Core_0_DTLB_demand_miss_rate 0.440129
Core_0_DTLB_demand_mpki 168.916
Core_0_DTLB_vberti_prefetch_access 20149161
Core_0_DTLB_vberti_prefetch_hit 20069844
Core_0_DTLB_vberti_prefetch_miss 79317
Core_0_DTLB_vberti_prefetch_mshr_merge 47144
Core_0_DTLB_vberti_prefetch_fill 31826
Core_0_DTLB_vberti_prefetch_miss_rate 0.00393649
Core_0_DTLB_vberti_prefetch_mpki 0.79317

=== DTLB_vBerti Same/Cross-page Prefetch Stats ===
Core_0_DTLB_vberti_same_page_prefetch 19479694
Core_0_DTLB_vberti_same_page_prefetch_hit 19479694
Core_0_DTLB_vberti_same_page_prefetch_miss 0
Core_0_DTLB_vberti_same_page_prefetch_mshr_merge 0
Core_0_DTLB_vberti_same_page_prefetch_fill 0
Core_0_DTLB_vberti_same_page_prefetch_miss_rate 0
Core_0_DTLB_vberti_same_page_prefetch_mpki 0
Core_0_DTLB_vberti_cross_page_prefetch 669467
Core_0_DTLB_vberti_cross_page_prefetch_hit 590150
Core_0_DTLB_vberti_cross_page_prefetch_miss 79317
Core_0_DTLB_vberti_cross_page_prefetch_mshr_merge 47144
Core_0_DTLB_vberti_cross_page_prefetch_fill 31826
Core_0_DTLB_vberti_cross_page_prefetch_miss_rate 0.118478
Core_0_DTLB_vberti_cross_page_prefetch_mpki 0.79317
Core_0_DTLB_same_page_prefetch_miss_rate 0
Core_0_DTLB_same_page_prefetch_mpki 0
Core_0_DTLB_cross_page_prefetch_miss_rate 0.118478
Core_0_DTLB_cross_page_prefetch_mpki 0.79317
Core_0_DTLB_cross_page_prefetch_issued 669467
Core_0_DTLB_cross_page_prefetch_lookups 669467
Core_0_DTLB_cross_page_prefetch_useful 21122
Core_0_DTLB_cross_page_prefetch_useless 11051
Core_0_DTLB_cross_page_prefetch_late 347
Core_0_DTLB_cross_page_prefetch_too_early 1366
Core_0_DTLB_cross_page_prefetch_too_early_among_fill 0.0429209
Core_0_DTLB_cross_page_prefetch_too_early_among_useless 0.123609
Core_0_DTLB_cross_page_prefetch_pollution_evict 20662
Core_0_DTLB_cross_page_prefetch_pollution_demand 20605
Core_0_DTLB_cross_page_prefetch_pollution_among_prefetch_fill 0.649218
Core_0_DTLB_cross_page_prefetch_accuracy 0.0315505
Core_0_DTLB_cross_page_prefetch_coverage 0.00124888

========= STLB_vBerti Prefetch Stats =========
Core_0_STLB_demand_access 16864307
Core_0_STLB_demand_hit 2476239
Core_0_STLB_demand_miss 14388068
Core_0_STLB_demand_mshr_merge 0
Core_0_STLB_demand_fill 14388076
Core_0_STLB_demand_miss_rate 0.853167
Core_0_STLB_demand_mpki 143.881
Core_0_STLB_vberti_prefetch_access 32173
Core_0_STLB_vberti_prefetch_hit 240
Core_0_STLB_vberti_prefetch_miss 31933
Core_0_STLB_vberti_prefetch_mshr_merge 0
Core_0_STLB_vberti_prefetch_fill 0
Core_0_STLB_vberti_prefetch_miss_rate 0.99254
Core_0_STLB_vberti_prefetch_mpki 0.31933

=== STLB_vBerti Same/Cross-page Prefetch Stats ===
Core_0_STLB_vberti_same_page_prefetch 0
Core_0_STLB_vberti_same_page_prefetch_hit 0
Core_0_STLB_vberti_same_page_prefetch_miss 0
Core_0_STLB_vberti_same_page_prefetch_mshr_merge 0
Core_0_STLB_vberti_same_page_prefetch_fill 0
Core_0_STLB_vberti_same_page_prefetch_miss_rate 0
Core_0_STLB_vberti_same_page_prefetch_mpki 0
Core_0_STLB_vberti_cross_page_prefetch 32173
Core_0_STLB_vberti_cross_page_prefetch_hit 240
Core_0_STLB_vberti_cross_page_prefetch_miss 31933
Core_0_STLB_vberti_cross_page_prefetch_mshr_merge 0
Core_0_STLB_vberti_cross_page_prefetch_fill 0
Core_0_STLB_vberti_cross_page_prefetch_miss_rate 0.99254
Core_0_STLB_vberti_cross_page_prefetch_mpki 0.31933
Core_0_STLB_same_page_prefetch_miss_rate 0
Core_0_STLB_same_page_prefetch_mpki 0
Core_0_STLB_cross_page_prefetch_miss_rate 0.99254
Core_0_STLB_cross_page_prefetch_mpki 0.31933
Core_0_STLB_cross_page_prefetch_issued 32173
Core_0_STLB_cross_page_prefetch_lookups 32173
Core_0_STLB_cross_page_prefetch_useful 7711
Core_0_STLB_cross_page_prefetch_useless 15562
Core_0_STLB_cross_page_prefetch_late 7711
Core_0_STLB_cross_page_prefetch_too_early 0
Core_0_STLB_cross_page_prefetch_too_early_among_fill 0
Core_0_STLB_cross_page_prefetch_too_early_among_useless 0
Core_0_STLB_cross_page_prefetch_pollution_evict 0
Core_0_STLB_cross_page_prefetch_pollution_demand 0
Core_0_STLB_cross_page_prefetch_pollution_among_prefetch_fill 0
Core_0_STLB_cross_page_prefetch_accuracy 0.239673
Core_0_STLB_cross_page_prefetch_coverage 0.000535643

========= STLB Cross-page Prefetch Buffer Stats =========
Core_0_STLB_raw_demand_miss 14388068
Core_0_CP_PB_insert 31933
Core_0_CP_PB_demand_hit 7711
Core_0_STLB_PB_demand_miss 14380357
Core_0_CP_PB_coverage 0.00053593
Core_0_STLB_raw_demand_mpki 143.881
Core_0_STLB_PB_demand_mpki 143.804
Core_0_CP_PB_demand_hit_mpki 0.07711

Core_0_TLB_demand_miss_rate 0.374896
Core_0_TLB_demand_mpki 143.881
Core_0_TLB_same_page_prefetch_miss_rate 0
Core_0_TLB_same_page_prefetch_mpki 0
Core_0_TLB_cross_page_prefetch_miss_rate 0.0476991
Core_0_TLB_cross_page_prefetch_mpki 0.31933
Core_0_TLB_cross_page_prefetch_issued 669467
Core_0_TLB_cross_page_prefetch_lookups 669467
Core_0_TLB_cross_page_prefetch_useful 20709
Core_0_TLB_cross_page_prefetch_useless 10907
Core_0_TLB_cross_page_prefetch_late 323
Core_0_TLB_cross_page_prefetch_too_early 1286
Core_0_TLB_cross_page_prefetch_too_early_among_fill 0.0404072
Core_0_TLB_cross_page_prefetch_too_early_among_useless 0.117906
Core_0_TLB_cross_page_prefetch_accuracy 0.0309336
Core_0_TLB_cross_page_prefetch_coverage 0.00143725
BERTI TO_L1: 20359368 TO_L2: 5442612 TO_L2_BC_MSHR: 4870
BERTI AVG_LAT: 107.131 NUM_TRACK_LATENCY: 27639318 NUM_CANT_TRACK_LATENCY: 241
BERTI CROSS_PAGE 970405 NO_CROSS_PAGE: 24831575
BERTI FOUND_BERTI: 47305263 NO_FOUND_BERTI: 1339321
BERTI AVERAGE_ISSUED: 1.25413
