[VMEM] WARNING: physical memory size is smaller than virtual memory size.

*** ChampSim Multicore Out-of-Order Simulator ***
Warmup Instructions: 50000000
Simulation Instructions: 100000000
Number of CPUs: 1
Page size: 4096
Core 0: /data0/tzh/champsim_traces/QMM/srv_5_new.xz
VBerti Prefetcher
BERTI HASH ENTANGLING
BERTI IP MASK ffff
Off-chip DRAM Size: 16 GiB Channels: 1 Width: 64-bit Data Rate: 3205 MT/s
[BTB] WARNING: target of return is a lower address than the corresponding call. This is usually a problem with your trace.
[BTB] WARNING: target of return is a lower address than the corresponding call. This is usually a problem with your trace.
[BTB] WARNING: target of return is a lower address than the corresponding call. This is usually a problem with your trace.
[BTB] WARNING: target of return is a lower address than the corresponding call. This is usually a problem with your trace.
[BTB] WARNING: target of return is a lower address than the corresponding call. This is usually a problem with your trace.
[BTB] WARNING: target of return is a lower address than the corresponding call. This is usually a problem with your trace.
[BTB] WARNING: target of return is a lower address than the corresponding call. This is usually a problem with your trace.
[BTB] WARNING: target of return is a lower address than the corresponding call. This is usually a problem with your trace.
[BTB] WARNING: target of return is a lower address than the corresponding call. This is usually a problem with your trace.
[BTB] WARNING: target of return is a lower address than the corresponding call. This is usually a problem with your trace.
*** Reached end of trace: (0, "/data0/tzh/champsim_traces/QMM/srv_5_new.xz")
Warmup halting CPU 0 at instruction 50000002 cycle 10760251 for remainder of phase
Warmup finished CPU 0 instructions: 50000002 cycles: 10760251 cumulative IPC: 4.647 (Simulation time: 00 hr 03 min 13 sec)
Warmup complete CPU 0 instructions: 50000002 cycles: 10760251 cumulative IPC: 4.647 (Simulation time: 00 hr 03 min 13 sec)
*** Reached end of trace: (0, "/data0/tzh/champsim_traces/QMM/srv_5_new.xz")
*** Reached end of trace: (0, "/data0/tzh/champsim_traces/QMM/srv_5_new.xz")
*** Reached end of trace: (0, "/data0/tzh/champsim_traces/QMM/srv_5_new.xz")
Simulation finished CPU 0 instructions: 100000002 cycles: 52089533 cumulative IPC: 1.92 (Simulation time: 00 hr 13 min 41 sec)
Simulation complete CPU 0 instructions: 100000002 cycles: 52089533 cumulative IPC: 1.92 (Simulation time: 00 hr 13 min 41 sec)

ChampSim completed all CPUs

=== Simulation ===
CPU 0 runs /data0/tzh/champsim_traces/QMM/srv_5_new.xz

Region of Interest Statistics

CPU 0 cumulative IPC: 1.92 instructions: 100000002 cycles: 52089533
CPU 0 Branch Prediction Accuracy: 98.84% MPKI: 2.088 Average ROB Occupancy at Mispredict: 155.9
Branch type MPKI
BRANCH_DIRECT_JUMP: 0.1284
BRANCH_INDIRECT: 0.1745
BRANCH_CONDITIONAL: 1.232
BRANCH_DIRECT_CALL: 0.2364
BRANCH_INDIRECT_CALL: 0.07491
BRANCH_RETURN: 0.2416

cpu0->cpu0_STLB TOTAL        ACCESS:    1664452 HIT:    1504646 MISS:     159806 MSHR_MERGE:          0
cpu0->cpu0_STLB LOAD         ACCESS:    1664452 HIT:    1504646 MISS:     159806 MSHR_MERGE:          0
cpu0->cpu0_STLB RFO          ACCESS:          0 HIT:          0 MISS:          0 MSHR_MERGE:          0
cpu0->cpu0_STLB PREFETCH     ACCESS:          0 HIT:          0 MISS:          0 MSHR_MERGE:          0
cpu0->cpu0_STLB WRITE        ACCESS:          0 HIT:          0 MISS:          0 MSHR_MERGE:          0
cpu0->cpu0_STLB TRANSLATION  ACCESS:          0 HIT:          0 MISS:          0 MSHR_MERGE:          0
cpu0->cpu0_STLB PREFETCH REQUESTED:          0 ISSUED:          0 USEFUL:          0 USELESS:          0 LATE:          0 TOO_EARLY:          0
cpu0->cpu0_STLB AVERAGE MISS LATENCY: 36.14 cycles
cpu0->cpu0_L2C TOTAL        ACCESS:    4548565 HIT:    2974812 MISS:    1573753 MSHR_MERGE:        893
cpu0->cpu0_L2C LOAD         ACCESS:    3673988 HIT:    2295959 MISS:    1378029 MSHR_MERGE:         70
cpu0->cpu0_L2C RFO          ACCESS:     164985 HIT:      83172 MISS:      81813 MSHR_MERGE:          1
cpu0->cpu0_L2C PREFETCH     ACCESS:      36325 HIT:      17282 MISS:      19043 MSHR_MERGE:        822
cpu0->cpu0_L2C WRITE        ACCESS:     523259 HIT:     520664 MISS:       2595 MSHR_MERGE:          0
cpu0->cpu0_L2C TRANSLATION  ACCESS:     150008 HIT:      57735 MISS:      92273 MSHR_MERGE:          0
cpu0->cpu0_L2C PREFETCH REQUESTED:      36107 ISSUED:      35823 USEFUL:      10852 USELESS:       7224 LATE:         71 TOO_EARLY:        438
cpu0->cpu0_L2C AVERAGE MISS LATENCY: 31.65 cycles
cpu0->cpu0_L1I TOTAL        ACCESS:   15895374 HIT:   11684859 MISS:    4210515 MSHR_MERGE:    1635945
cpu0->cpu0_L1I LOAD         ACCESS:   15895374 HIT:   11684859 MISS:    4210515 MSHR_MERGE:    1635945
cpu0->cpu0_L1I RFO          ACCESS:          0 HIT:          0 MISS:          0 MSHR_MERGE:          0
cpu0->cpu0_L1I PREFETCH     ACCESS:          0 HIT:          0 MISS:          0 MSHR_MERGE:          0
cpu0->cpu0_L1I WRITE        ACCESS:          0 HIT:          0 MISS:          0 MSHR_MERGE:          0
cpu0->cpu0_L1I TRANSLATION  ACCESS:          0 HIT:          0 MISS:          0 MSHR_MERGE:          0
cpu0->cpu0_L1I PREFETCH REQUESTED:          0 ISSUED:          0 USEFUL:          0 USELESS:          0 LATE:          0 TOO_EARLY:          0
cpu0->cpu0_L1I AVERAGE MISS LATENCY: 13.07 cycles
cpu0->cpu0_L1D TOTAL        ACCESS:   23092528 HIT:   20990969 MISS:    2101559 MSHR_MERGE:     686610
cpu0->cpu0_L1D LOAD         ACCESS:   12805585 HIT:   11313034 MISS:    1492551 MSHR_MERGE:     393115
cpu0->cpu0_L1D RFO          ACCESS:          0 HIT:          0 MISS:          0 MSHR_MERGE:          0
cpu0->cpu0_L1D PREFETCH     ACCESS:      14024 HIT:      13520 MISS:        504 MSHR_MERGE:          0
cpu0->cpu0_L1D WRITE        ACCESS:    9909750 HIT:    9454247 MISS:     455503 MSHR_MERGE:     290502
cpu0->cpu0_L1D TRANSLATION  ACCESS:     363169 HIT:     210168 MISS:     153001 MSHR_MERGE:       2993
cpu0->cpu0_L1D PREFETCH REQUESTED:      17008 ISSUED:      14024 USEFUL:         31 USELESS:         11 LATE:          2 TOO_EARLY:          0
cpu0->cpu0_L1D AVERAGE MISS LATENCY: 33.59 cycles
cpu0->cpu0_ITLB TOTAL        ACCESS:   13533169 HIT:   12520251 MISS:    1012918 MSHR_MERGE:     629598
cpu0->cpu0_ITLB LOAD         ACCESS:   13533169 HIT:   12520251 MISS:    1012918 MSHR_MERGE:     629598
cpu0->cpu0_ITLB RFO          ACCESS:          0 HIT:          0 MISS:          0 MSHR_MERGE:          0
cpu0->cpu0_ITLB PREFETCH     ACCESS:          0 HIT:          0 MISS:          0 MSHR_MERGE:          0
cpu0->cpu0_ITLB WRITE        ACCESS:          0 HIT:          0 MISS:          0 MSHR_MERGE:          0
cpu0->cpu0_ITLB TRANSLATION  ACCESS:          0 HIT:          0 MISS:          0 MSHR_MERGE:          0
cpu0->cpu0_ITLB PREFETCH REQUESTED:          0 ISSUED:          0 USEFUL:          0 USELESS:          0 LATE:          0 TOO_EARLY:          0
cpu0->cpu0_ITLB AVERAGE MISS LATENCY: 8.728 cycles
cpu0->cpu0_DTLB TOTAL        ACCESS:   21359357 HIT:   19625609 MISS:    1733748 MSHR_MERGE:     452617
cpu0->cpu0_DTLB LOAD         ACCESS:   21359357 HIT:   19625609 MISS:    1733748 MSHR_MERGE:     452617
cpu0->cpu0_DTLB RFO          ACCESS:          0 HIT:          0 MISS:          0 MSHR_MERGE:          0
cpu0->cpu0_DTLB PREFETCH     ACCESS:          0 HIT:          0 MISS:          0 MSHR_MERGE:          0
cpu0->cpu0_DTLB WRITE        ACCESS:          0 HIT:          0 MISS:          0 MSHR_MERGE:          0
cpu0->cpu0_DTLB TRANSLATION  ACCESS:          0 HIT:          0 MISS:          0 MSHR_MERGE:          0
cpu0->cpu0_DTLB PREFETCH REQUESTED:          0 ISSUED:          0 USEFUL:          0 USELESS:          0 LATE:          0 TOO_EARLY:          0
cpu0->cpu0_DTLB AVERAGE MISS LATENCY: 8.533 cycles
cpu0->LLC TOTAL        ACCESS:    1836655 HIT:    1683752 MISS:     152903 MSHR_MERGE:          0
cpu0->LLC LOAD         ACCESS:    1377956 HIT:    1268366 MISS:     109590 MSHR_MERGE:          0
cpu0->LLC RFO          ACCESS:      81812 HIT:      59396 MISS:      22416 MSHR_MERGE:          0
cpu0->LLC PREFETCH     ACCESS:      18221 HIT:       8016 MISS:      10205 MSHR_MERGE:          0
cpu0->LLC WRITE        ACCESS:     266393 HIT:     261157 MISS:       5236 MSHR_MERGE:          0
cpu0->LLC TRANSLATION  ACCESS:      92273 HIT:      86817 MISS:       5456 MSHR_MERGE:          0
cpu0->LLC PREFETCH REQUESTED:          0 ISSUED:          0 USEFUL:          0 USELESS:          0 LATE:          0 TOO_EARLY:          0
cpu0->LLC AVERAGE MISS LATENCY: 180.9 cycles

DRAM Statistics

Channel 0 RQ ROW_BUFFER_HIT:       6367
  ROW_BUFFER_MISS:     141296
  AVG DBUS CONGESTED CYCLE: 15.63
Channel 0 WQ ROW_BUFFER_HIT:      22842
  ROW_BUFFER_MISS:      82739
  FULL:          0
Channel 0 REFRESHES ISSUED:       4341

[ROI Statistics]
[System Configuration]
num_cpus 1
cpu_freq 4000
fetch_width 6
decode_width 6
dispatch_width 6
execute_width 6
lq_width 2
sq_width 2
retire_width 6
scheduler_size 128
branch_mispredict_penalty 15
rob_size 352
lq_size 128
sq_size 72
ifetch_buffer_size 64
decode_buffer_size 32
dispatch_buffer_size 32
register_file_size 288
decode_latency 1
dispatch_latency 1
schedule_latency 1
execute_latency 1
page_size 4096
block_size 64
core_0_itlb_set 16
core_0_itlb_way 4
core_0_itlb_rq_size 16
core_0_itlb_wq_size 16
core_0_itlb_pq_size 0
core_0_itlb_mshr_size 8
core_0_itlb_hit_latency 1
core_0_itlb_fill_latency 1
core_0_itlb_max_tag_check 2
core_0_itlb_max_fill 2
core_0_dtlb_set 16
core_0_dtlb_way 4
core_0_dtlb_rq_size 16
core_0_dtlb_wq_size 16
core_0_dtlb_pq_size 0
core_0_dtlb_mshr_size 8
core_0_dtlb_hit_latency 1
core_0_dtlb_fill_latency 1
core_0_dtlb_max_tag_check 2
core_0_dtlb_max_fill 2
core_0_stlb_set 128
core_0_stlb_way 12
core_0_stlb_rq_size 32
core_0_stlb_wq_size 32
core_0_stlb_pq_size 0
core_0_stlb_mshr_size 16
core_0_stlb_hit_latency 4
core_0_stlb_fill_latency 4
core_0_stlb_max_tag_check 1
core_0_stlb_max_fill 1
core_0_l1i_set 64
core_0_l1i_way 8
core_0_l1i_rq_size 64
core_0_l1i_wq_size 64
core_0_l1i_pq_size 32
core_0_l1i_mshr_size 8
core_0_l1i_hit_latency 2
core_0_l1i_fill_latency 2
core_0_l1i_max_tag_check 2
core_0_l1i_max_fill 2
core_0_l1d_set 64
core_0_l1d_way 12
core_0_l1d_rq_size 64
core_0_l1d_wq_size 64
core_0_l1d_pq_size 8
core_0_l1d_mshr_size 16
core_0_l1d_hit_latency 2
core_0_l1d_fill_latency 3
core_0_l1d_max_tag_check 2
core_0_l1d_max_fill 2
core_0_l2c_set 1024
core_0_l2c_way 8
core_0_l2c_rq_size 32
core_0_l2c_wq_size 32
core_0_l2c_pq_size 16
core_0_l2c_mshr_size 32
core_0_l2c_hit_latency 5
core_0_l2c_fill_latency 5
core_0_l2c_max_tag_check 1
core_0_l2c_max_fill 1
llc_set 2048
llc_way 16
llc_rq_size 32
llc_wq_size 32
llc_pq_size 32
llc_mshr_size 64
llc_hit_latency 10
llc_fill_latency 10
llc_max_tag_check 1
llc_max_fill 1
dram_channels 1
dram_ranks 1
dram_bankgroups 8
dram_banks 4
dram_rows 65536
dram_columns 1024
dram_channel_width 8
dram_rq_size 64
dram_wq_size 64
dram_size 17179869184
core_0_itlb_prefetcher no
core_0_dtlb_prefetcher no
core_0_stlb_prefetcher no
core_0_l1i_prefetcher next_line
core_0_l1d_prefetcher vberti
core_0_l2c_prefetcher ip_stride
llc_prefetcher no
llc_replacement drrip

Core_0_instructions 100000002
Core_0_cycles 52089533
Core_0_IPC 1.91977
Core_0_branch_prediction_accuracy 98.8369
Core_0_branch_MPKI 2.08804
Core_0_average_ROB_occupancy_at_mispredict 155.866

Core_0_ITLB_total_access 13533169
Core_0_ITLB_total_hit 12520251
Core_0_ITLB_total_miss 1012918
Core_0_ITLB_total_MPKI 10.1292
Core_0_ITLB_total_miss_rate 0.0748471
Core_0_ITLB_demand_access 13533169
Core_0_ITLB_demand_hit 12520251
Core_0_ITLB_demand_miss 1012918
Core_0_ITLB_demand_MPKI 10.1292
Core_0_ITLB_demand_miss_rate 0.0748471
Core_0_ITLB_load_access 13533169
Core_0_ITLB_load_hit 12520251
Core_0_ITLB_load_miss 1012918
Core_0_ITLB_load_MPKI 10.1292
Core_0_ITLB_load_miss_rate 0.0748471
Core_0_ITLB_rfo_access 0
Core_0_ITLB_rfo_hit 0
Core_0_ITLB_rfo_miss 0
Core_0_ITLB_rfo_MPKI 0
Core_0_ITLB_rfo_miss_rate 0
Core_0_ITLB_prefetch_access 0
Core_0_ITLB_prefetch_hit 0
Core_0_ITLB_prefetch_miss 0
Core_0_ITLB_prefetch_MPKI 0
Core_0_ITLB_prefetch_miss_rate 0
Core_0_ITLB_writeback_access 0
Core_0_ITLB_writeback_hit 0
Core_0_ITLB_writeback_miss 0
Core_0_ITLB_writeback_MPKI 0
Core_0_ITLB_writeback_miss_rate 0
Core_0_ITLB_prefetch_requested 0
Core_0_ITLB_prefetch_issued 0
Core_0_ITLB_prefetch_useful 0
Core_0_ITLB_prefetch_useless 0
Core_0_ITLB_prefetch_late 0
Core_0_ITLB_prefetch_fill 0
Core_0_ITLB_prefetch_too_early 0
Core_0_ITLB_prefetch_too_early_among_fill 0
Core_0_ITLB_prefetch_too_early_among_useless 0
Core_0_ITLB_prefetch_pollution_evict 0
Core_0_ITLB_prefetch_pollution_demand 0
Core_0_ITLB_prefetch_pollution_among_prefetch_fill 0
Core_0_ITLB_prefetch_accuracy 0
Core_0_ITLB_prefetch_coverage 0

Core_0_DTLB_total_access 21359357
Core_0_DTLB_total_hit 19625609
Core_0_DTLB_total_miss 1733748
Core_0_DTLB_total_MPKI 17.3375
Core_0_DTLB_total_miss_rate 0.0811704
Core_0_DTLB_demand_access 21359357
Core_0_DTLB_demand_hit 19625609
Core_0_DTLB_demand_miss 1733748
Core_0_DTLB_demand_MPKI 17.3375
Core_0_DTLB_demand_miss_rate 0.0811704
Core_0_DTLB_load_access 21359357
Core_0_DTLB_load_hit 19625609
Core_0_DTLB_load_miss 1733748
Core_0_DTLB_load_MPKI 17.3375
Core_0_DTLB_load_miss_rate 0.0811704
Core_0_DTLB_rfo_access 0
Core_0_DTLB_rfo_hit 0
Core_0_DTLB_rfo_miss 0
Core_0_DTLB_rfo_MPKI 0
Core_0_DTLB_rfo_miss_rate 0
Core_0_DTLB_prefetch_access 0
Core_0_DTLB_prefetch_hit 0
Core_0_DTLB_prefetch_miss 0
Core_0_DTLB_prefetch_MPKI 0
Core_0_DTLB_prefetch_miss_rate 0
Core_0_DTLB_writeback_access 0
Core_0_DTLB_writeback_hit 0
Core_0_DTLB_writeback_miss 0
Core_0_DTLB_writeback_MPKI 0
Core_0_DTLB_writeback_miss_rate 0
Core_0_DTLB_prefetch_requested 0
Core_0_DTLB_prefetch_issued 0
Core_0_DTLB_prefetch_useful 0
Core_0_DTLB_prefetch_useless 0
Core_0_DTLB_prefetch_late 0
Core_0_DTLB_prefetch_fill 0
Core_0_DTLB_prefetch_too_early 0
Core_0_DTLB_prefetch_too_early_among_fill 0
Core_0_DTLB_prefetch_too_early_among_useless 0
Core_0_DTLB_prefetch_pollution_evict 0
Core_0_DTLB_prefetch_pollution_demand 0
Core_0_DTLB_prefetch_pollution_among_prefetch_fill 0
Core_0_DTLB_prefetch_accuracy 0
Core_0_DTLB_prefetch_coverage 0

Core_0_STLB_total_access 1664452
Core_0_STLB_total_hit 1504646
Core_0_STLB_total_miss 159806
Core_0_STLB_total_MPKI 1.59806
Core_0_STLB_total_miss_rate 0.0960112
Core_0_STLB_demand_access 1664452
Core_0_STLB_demand_hit 1504646
Core_0_STLB_demand_miss 159806
Core_0_STLB_demand_MPKI 1.59806
Core_0_STLB_demand_miss_rate 0.0960112
Core_0_STLB_load_access 1664452
Core_0_STLB_load_hit 1504646
Core_0_STLB_load_miss 159806
Core_0_STLB_load_MPKI 1.59806
Core_0_STLB_load_miss_rate 0.0960112
Core_0_STLB_rfo_access 0
Core_0_STLB_rfo_hit 0
Core_0_STLB_rfo_miss 0
Core_0_STLB_rfo_MPKI 0
Core_0_STLB_rfo_miss_rate 0
Core_0_STLB_prefetch_access 0
Core_0_STLB_prefetch_hit 0
Core_0_STLB_prefetch_miss 0
Core_0_STLB_prefetch_MPKI 0
Core_0_STLB_prefetch_miss_rate 0
Core_0_STLB_writeback_access 0
Core_0_STLB_writeback_hit 0
Core_0_STLB_writeback_miss 0
Core_0_STLB_writeback_MPKI 0
Core_0_STLB_writeback_miss_rate 0
Core_0_STLB_prefetch_requested 0
Core_0_STLB_prefetch_issued 0
Core_0_STLB_prefetch_useful 0
Core_0_STLB_prefetch_useless 0
Core_0_STLB_prefetch_late 0
Core_0_STLB_prefetch_fill 0
Core_0_STLB_prefetch_too_early 0
Core_0_STLB_prefetch_too_early_among_fill 0
Core_0_STLB_prefetch_too_early_among_useless 0
Core_0_STLB_prefetch_pollution_evict 0
Core_0_STLB_prefetch_pollution_demand 0
Core_0_STLB_prefetch_pollution_among_prefetch_fill 0
Core_0_STLB_prefetch_accuracy 0
Core_0_STLB_prefetch_coverage 0

Core_0_L1I_total_access 15895374
Core_0_L1I_total_hit 11684859
Core_0_L1I_total_miss 4210515
Core_0_L1I_total_MPKI 42.1051
Core_0_L1I_total_miss_rate 0.264889
Core_0_L1I_demand_access 15895374
Core_0_L1I_demand_hit 11684859
Core_0_L1I_demand_miss 4210515
Core_0_L1I_demand_MPKI 42.1051
Core_0_L1I_demand_miss_rate 0.264889
Core_0_L1I_load_access 15895374
Core_0_L1I_load_hit 11684859
Core_0_L1I_load_miss 4210515
Core_0_L1I_load_MPKI 42.1051
Core_0_L1I_load_miss_rate 0.264889
Core_0_L1I_rfo_access 0
Core_0_L1I_rfo_hit 0
Core_0_L1I_rfo_miss 0
Core_0_L1I_rfo_MPKI 0
Core_0_L1I_rfo_miss_rate 0
Core_0_L1I_prefetch_access 0
Core_0_L1I_prefetch_hit 0
Core_0_L1I_prefetch_miss 0
Core_0_L1I_prefetch_MPKI 0
Core_0_L1I_prefetch_miss_rate 0
Core_0_L1I_writeback_access 0
Core_0_L1I_writeback_hit 0
Core_0_L1I_writeback_miss 0
Core_0_L1I_writeback_MPKI 0
Core_0_L1I_writeback_miss_rate 0
Core_0_L1I_prefetch_requested 0
Core_0_L1I_prefetch_issued 0
Core_0_L1I_prefetch_useful 0
Core_0_L1I_prefetch_useless 0
Core_0_L1I_prefetch_late 0
Core_0_L1I_prefetch_fill 0
Core_0_L1I_prefetch_too_early 0
Core_0_L1I_prefetch_too_early_among_fill 0
Core_0_L1I_prefetch_too_early_among_useless 0
Core_0_L1I_prefetch_pollution_evict 0
Core_0_L1I_prefetch_pollution_demand 0
Core_0_L1I_prefetch_pollution_among_prefetch_fill 0
Core_0_L1I_prefetch_accuracy 0
Core_0_L1I_prefetch_coverage 0

Core_0_L1D_total_access 22729359
Core_0_L1D_total_hit 20780801
Core_0_L1D_total_miss 1948558
Core_0_L1D_total_MPKI 19.4856
Core_0_L1D_total_miss_rate 0.0857287
Core_0_L1D_demand_access 12805585
Core_0_L1D_demand_hit 11313034
Core_0_L1D_demand_miss 1492551
Core_0_L1D_demand_MPKI 14.9255
Core_0_L1D_demand_miss_rate 0.116555
Core_0_L1D_load_access 12805585
Core_0_L1D_load_hit 11313034
Core_0_L1D_load_miss 1492551
Core_0_L1D_load_MPKI 14.9255
Core_0_L1D_load_miss_rate 0.116555
Core_0_L1D_rfo_access 0
Core_0_L1D_rfo_hit 0
Core_0_L1D_rfo_miss 0
Core_0_L1D_rfo_MPKI 0
Core_0_L1D_rfo_miss_rate 0
Core_0_L1D_prefetch_access 14024
Core_0_L1D_prefetch_hit 13520
Core_0_L1D_prefetch_miss 504
Core_0_L1D_prefetch_MPKI 0.00504
Core_0_L1D_prefetch_miss_rate 0.0359384
Core_0_L1D_writeback_access 9909750
Core_0_L1D_writeback_hit 9454247
Core_0_L1D_writeback_miss 455503
Core_0_L1D_writeback_MPKI 4.55503
Core_0_L1D_writeback_miss_rate 0.0459651
Core_0_L1D_prefetch_requested 17008
Core_0_L1D_prefetch_issued 14024
Core_0_L1D_prefetch_useful 31
Core_0_L1D_prefetch_useless 11
Core_0_L1D_prefetch_late 2
Core_0_L1D_prefetch_fill 40
Core_0_L1D_prefetch_too_early 0
Core_0_L1D_prefetch_too_early_among_fill 0
Core_0_L1D_prefetch_too_early_among_useless 0
Core_0_L1D_prefetch_pollution_evict 24
Core_0_L1D_prefetch_pollution_demand 24
Core_0_L1D_prefetch_pollution_among_prefetch_fill 0.6
Core_0_L1D_prefetch_accuracy 0.0022105
Core_0_L1D_prefetch_coverage 2.07694e-05

Core_0_L2C_total_access 4398557
Core_0_L2C_total_hit 2917077
Core_0_L2C_total_miss 1481480
Core_0_L2C_total_MPKI 14.8148
Core_0_L2C_total_miss_rate 0.33681
Core_0_L2C_demand_access 3838973
Core_0_L2C_demand_hit 2379131
Core_0_L2C_demand_miss 1459842
Core_0_L2C_demand_MPKI 14.5984
Core_0_L2C_demand_miss_rate 0.380269
Core_0_L2C_load_access 3673988
Core_0_L2C_load_hit 2295959
Core_0_L2C_load_miss 1378029
Core_0_L2C_load_MPKI 13.7803
Core_0_L2C_load_miss_rate 0.375077
Core_0_L2C_rfo_access 164985
Core_0_L2C_rfo_hit 83172
Core_0_L2C_rfo_miss 81813
Core_0_L2C_rfo_MPKI 0.81813
Core_0_L2C_rfo_miss_rate 0.495881
Core_0_L2C_prefetch_access 36325
Core_0_L2C_prefetch_hit 17282
Core_0_L2C_prefetch_miss 19043
Core_0_L2C_prefetch_MPKI 0.19043
Core_0_L2C_prefetch_miss_rate 0.52424
Core_0_L2C_writeback_access 523259
Core_0_L2C_writeback_hit 520664
Core_0_L2C_writeback_miss 2595
Core_0_L2C_writeback_MPKI 0.02595
Core_0_L2C_writeback_miss_rate 0.0049593
Core_0_L2C_prefetch_requested 36107
Core_0_L2C_prefetch_issued 35823
Core_0_L2C_prefetch_useful 10852
Core_0_L2C_prefetch_useless 7224
Core_0_L2C_prefetch_late 71
Core_0_L2C_prefetch_fill 18150
Core_0_L2C_prefetch_too_early 438
Core_0_L2C_prefetch_too_early_among_fill 0.0241322
Core_0_L2C_prefetch_too_early_among_useless 0.0606312
Core_0_L2C_prefetch_pollution_evict 15962
Core_0_L2C_prefetch_pollution_demand 15962
Core_0_L2C_prefetch_pollution_among_prefetch_fill 0.879449
Core_0_L2C_prefetch_accuracy 0.302934
Core_0_L2C_prefetch_coverage 0.00737883

Core_0_LLC_total_access 1744382
Core_0_LLC_total_hit 1596935
Core_0_LLC_total_miss 147447
Core_0_LLC_total_MPKI 1.47447
Core_0_LLC_total_miss_rate 0.0845268
Core_0_LLC_demand_access 1459768
Core_0_LLC_demand_hit 1327762
Core_0_LLC_demand_miss 132006
Core_0_LLC_demand_MPKI 1.32006
Core_0_LLC_demand_miss_rate 0.0904294
Core_0_LLC_load_access 1377956
Core_0_LLC_load_hit 1268366
Core_0_LLC_load_miss 109590
Core_0_LLC_load_MPKI 1.0959
Core_0_LLC_load_miss_rate 0.0795308
Core_0_LLC_rfo_access 81812
Core_0_LLC_rfo_hit 59396
Core_0_LLC_rfo_miss 22416
Core_0_LLC_rfo_MPKI 0.22416
Core_0_LLC_rfo_miss_rate 0.273994
Core_0_LLC_prefetch_access 18221
Core_0_LLC_prefetch_hit 8016
Core_0_LLC_prefetch_miss 10205
Core_0_LLC_prefetch_MPKI 0.10205
Core_0_LLC_prefetch_miss_rate 0.560068
Core_0_LLC_writeback_access 266393
Core_0_LLC_writeback_hit 261157
Core_0_LLC_writeback_miss 5236
Core_0_LLC_writeback_MPKI 0.05236
Core_0_LLC_writeback_miss_rate 0.0196552
Core_0_LLC_prefetch_requested 0
Core_0_LLC_prefetch_issued 0
Core_0_LLC_prefetch_useful 0
Core_0_LLC_prefetch_useless 0
Core_0_LLC_prefetch_late 0
Core_0_LLC_prefetch_fill 10205
Core_0_LLC_prefetch_too_early 0
Core_0_LLC_prefetch_too_early_among_fill 0
Core_0_LLC_prefetch_too_early_among_useless 0
Core_0_LLC_prefetch_pollution_evict 7328
Core_0_LLC_prefetch_pollution_demand 7328
Core_0_LLC_prefetch_pollution_among_prefetch_fill 0.718079
Core_0_LLC_prefetch_accuracy 0
Core_0_LLC_prefetch_coverage 0

[DRAM Statistics]
Channel_0_RQ_row_buffer_hit 6367
Channel_0_RQ_row_buffer_miss 141296
Channel_0_WQ_row_buffer_hit 22842
Channel_0_WQ_row_buffer_miss 82739
Channel_0_WQ_full 0
Channel_0_dbus_congested 785255
DRAM_total_RQ_row_buffer_hit 6367
DRAM_total_RQ_row_buffer_miss 141296
DRAM_total_WQ_row_buffer_hit 22842
DRAM_total_WQ_row_buffer_miss 82739
DRAM_total_WQ_full 0
DRAM_total_dbus_congested 785255
DRAM_avg_congested_cycle 15.6319

====== DRAM_RQ_TRAFFIC ========
DRAM_RQ_READ_TRAFFIC_BREAKDOWN:
data_demand_read.count = 128809
data_demand_read.share = 87.23%

inst_demand_read.count = 3197
inst_demand_read.share = 2.17%

cache_inst_prefetch.count = 0
cache_inst_prefetch.share = 0.00%

cache_data_prefetch.count = 10205
cache_data_prefetch.share = 6.91%

stlb_data_demand.count = 5400
stlb_data_demand.share = 3.66%

stlb_inst_demand.count = 56
stlb_inst_demand.share = 0.04%

stlb_l1i_pref.count = 0
stlb_l1i_pref.share = 0.00%

stlb_l1d_pref.count = 0
stlb_l1d_pref.share = 0.00%

DRAM_RQ_READ_TRAFFIC_SUMMARY:
cache_demand.count = 132006
cache_demand.share = 89.39%

cache_prefetch.count = 10205
cache_prefetch.share = 6.91%

stlb_demand.count = 5456
stlb_demand.share = 3.69%

stlb_prefetch.count = 0
stlb_prefetch.share = 0.00%

DRAM_RQ_READ_TRAFFIC_DEBUG:
total_classified_read.count = 147667
unclassified_read.count = 0
total_read_with_other.count = 147667

classified_plus_unclassified_check.count = 147667
dram_rq_read_total_observed.count = 147667
dram_rq_read_total_observed.per_1K_instructions = 1.47667

STLB_MISS_PTW_DRAM_TOUCH_BREAKDOWN:
stlb_miss_total.count = 159804

stlb_miss_touch_dram.count = 5443
stlb_miss_touch_dram.share = 3.41%

stlb_miss_no_dram_touch.count = 154361
stlb_miss_no_dram_touch.share = 96.59%

STLB_MISS_PTW_DRAM_TOUCH_DEBUG:
stlb_miss_touch_plus_no_touch.count = 159804
stlb_miss_total_check.count = 159804

======STLB miss causes ========
Core_0_STLB_miss_cause_breakdown
Core_0_STLB_cause_Demand_Data_miss 104097
Core_0_STLB_cause_Demand_Data_miss_rate 0.0625413
Core_0_STLB_cause_Demand_Instruction_miss 55704
Core_0_STLB_cause_Demand_Instruction_miss_rate 0.0334669
Core_0_STLB_cause_L1D_Prefetch_miss 5
Core_0_STLB_cause_L1D_Prefetch_miss_rate 3.00399e-06
Core_0_STLB_cause_L1D_Prefetch_Same_Page_miss 0
Core_0_STLB_cause_L1D_Prefetch_Same_Page_miss_rate 0
Core_0_STLB_cause_L1D_Prefetch_Cross_Page_miss 5
Core_0_STLB_cause_L1D_Prefetch_Cross_Page_miss_rate 3.00399e-06
Core_0_STLB_cause_L1I_Prefetch_miss 0
Core_0_STLB_cause_L1I_Prefetch_miss_rate 0
Core_0_STLB_cause_Other_miss 0
Core_0_STLB_cause_Other_miss_rate 0
Core_0_STLB_Demand_miss 159801
Core_0_STLB_Demand_miss_rate 0.0960082
Core_0_STLB_L1D_Prefetch_miss 5
Core_0_STLB_L1D_Prefetch_miss_rate 3.00399e-06
Core_0_STLB_Other_miss 0
Core_0_STLB_Other_miss_rate 0

========== vBerti-TLB Cross-page Flow Stats ==========

Core_0_vBerti_Requested 17008
Core_0_vBerti_Cross_page_prefetch_in_Requested 4130
Core_0_vBerti_Same_page_prefetch_in_Requested 12878
Core_0_vBerti_Cross_page_prefetch_of_Requested 0.242827
Core_0_vBerti_Issued 14024
Core_0_vBerti_InPQ_Same_page_prefetch 11067
Core_0_vBerti_InPQ_Cross_page_prefetch 2957
Core_0_vBerti_PQ_Drop_Rate 0.175447
Core_0_vBerti_InPQ_Cross_page_prefetch_of_Requested 0.173859
Core_0_vBerti_Cross_page_PQ_Drop_rate 0.284019
Core_0_vBerti_Cross_page_prefetch_of_Issued 0.210853
Core_0_CP_PF_PQFULL_drop 1173
Core_0_CP_PF_PQFULL_TLB_rescue_enqueued 1173
Core_0_CP_PF_PQFULL_TLB_rescue_issued 1173
Core_0_CP_PF_PQFULL_TLB_rescue_translated 1173

========= DTLB_vBerti Prefetch Stats =========
Core_0_DTLB_demand_access 21348672
Core_0_DTLB_demand_hit 19614929
Core_0_DTLB_demand_miss 1733743
Core_0_DTLB_demand_mshr_merge 452617
Core_0_DTLB_demand_fill 1281127
Core_0_DTLB_demand_miss_rate 0.0812108
Core_0_DTLB_demand_mpki 17.3374
Core_0_DTLB_vberti_prefetch_access 10685
Core_0_DTLB_vberti_prefetch_hit 10680
Core_0_DTLB_vberti_prefetch_miss 5
Core_0_DTLB_vberti_prefetch_mshr_merge 0
Core_0_DTLB_vberti_prefetch_fill 5
Core_0_DTLB_vberti_prefetch_miss_rate 0.000467946
Core_0_DTLB_vberti_prefetch_mpki 5e-05

=== DTLB_vBerti Same/Cross-page Prefetch Stats ===
Core_0_DTLB_vberti_same_page_prefetch 8120
Core_0_DTLB_vberti_same_page_prefetch_hit 8120
Core_0_DTLB_vberti_same_page_prefetch_miss 0
Core_0_DTLB_vberti_same_page_prefetch_mshr_merge 0
Core_0_DTLB_vberti_same_page_prefetch_fill 0
Core_0_DTLB_vberti_same_page_prefetch_miss_rate 0
Core_0_DTLB_vberti_same_page_prefetch_mpki 0
Core_0_DTLB_vberti_cross_page_prefetch 2565
Core_0_DTLB_vberti_cross_page_prefetch_hit 2560
Core_0_DTLB_vberti_cross_page_prefetch_miss 5
Core_0_DTLB_vberti_cross_page_prefetch_mshr_merge 0
Core_0_DTLB_vberti_cross_page_prefetch_fill 5
Core_0_DTLB_vberti_cross_page_prefetch_miss_rate 0.00194932
Core_0_DTLB_vberti_cross_page_prefetch_mpki 5e-05
Core_0_DTLB_same_page_prefetch_miss_rate 0
Core_0_DTLB_same_page_prefetch_mpki 0
Core_0_DTLB_cross_page_prefetch_miss_rate 0.00194932
Core_0_DTLB_cross_page_prefetch_mpki 5e-05
Core_0_DTLB_cross_page_prefetch_issued 2565
Core_0_DTLB_cross_page_prefetch_lookups 2565
Core_0_DTLB_cross_page_prefetch_useful 0
Core_0_DTLB_cross_page_prefetch_useless 5
Core_0_DTLB_cross_page_prefetch_late 0
Core_0_DTLB_cross_page_prefetch_too_early 2
Core_0_DTLB_cross_page_prefetch_too_early_among_fill 0.4
Core_0_DTLB_cross_page_prefetch_too_early_among_useless 0.4
Core_0_DTLB_cross_page_prefetch_pollution_evict 5
Core_0_DTLB_cross_page_prefetch_pollution_demand 5
Core_0_DTLB_cross_page_prefetch_pollution_among_prefetch_fill 1
Core_0_DTLB_cross_page_prefetch_accuracy 0
Core_0_DTLB_cross_page_prefetch_coverage 0

========= STLB_vBerti Prefetch Stats =========
Core_0_STLB_demand_access 1664447
Core_0_STLB_demand_hit 1504646
Core_0_STLB_demand_miss 159801
Core_0_STLB_demand_mshr_merge 0
Core_0_STLB_demand_fill 159801
Core_0_STLB_demand_miss_rate 0.0960085
Core_0_STLB_demand_mpki 1.59801
Core_0_STLB_vberti_prefetch_access 5
Core_0_STLB_vberti_prefetch_hit 0
Core_0_STLB_vberti_prefetch_miss 5
Core_0_STLB_vberti_prefetch_mshr_merge 0
Core_0_STLB_vberti_prefetch_fill 0
Core_0_STLB_vberti_prefetch_miss_rate 1
Core_0_STLB_vberti_prefetch_mpki 5e-05

=== STLB_vBerti Same/Cross-page Prefetch Stats ===
Core_0_STLB_vberti_same_page_prefetch 0
Core_0_STLB_vberti_same_page_prefetch_hit 0
Core_0_STLB_vberti_same_page_prefetch_miss 0
Core_0_STLB_vberti_same_page_prefetch_mshr_merge 0
Core_0_STLB_vberti_same_page_prefetch_fill 0
Core_0_STLB_vberti_same_page_prefetch_miss_rate 0
Core_0_STLB_vberti_same_page_prefetch_mpki 0
Core_0_STLB_vberti_cross_page_prefetch 5
Core_0_STLB_vberti_cross_page_prefetch_hit 0
Core_0_STLB_vberti_cross_page_prefetch_miss 5
Core_0_STLB_vberti_cross_page_prefetch_mshr_merge 0
Core_0_STLB_vberti_cross_page_prefetch_fill 0
Core_0_STLB_vberti_cross_page_prefetch_miss_rate 1
Core_0_STLB_vberti_cross_page_prefetch_mpki 5e-05
Core_0_STLB_same_page_prefetch_miss_rate 0
Core_0_STLB_same_page_prefetch_mpki 0
Core_0_STLB_cross_page_prefetch_miss_rate 1
Core_0_STLB_cross_page_prefetch_mpki 5e-05
Core_0_STLB_cross_page_prefetch_issued 5
Core_0_STLB_cross_page_prefetch_lookups 5
Core_0_STLB_cross_page_prefetch_useful 2
Core_0_STLB_cross_page_prefetch_useless 3
Core_0_STLB_cross_page_prefetch_late 2
Core_0_STLB_cross_page_prefetch_too_early 0
Core_0_STLB_cross_page_prefetch_too_early_among_fill 0
Core_0_STLB_cross_page_prefetch_too_early_among_useless 0
Core_0_STLB_cross_page_prefetch_pollution_evict 0
Core_0_STLB_cross_page_prefetch_pollution_demand 0
Core_0_STLB_cross_page_prefetch_pollution_among_prefetch_fill 0
Core_0_STLB_cross_page_prefetch_accuracy 0.4
Core_0_STLB_cross_page_prefetch_coverage 1.25154e-05

========= STLB Cross-page Prefetch Buffer Stats =========
Core_0_STLB_raw_demand_miss 104097
Core_0_CP_PB_insert 5
Core_0_CP_PB_demand_hit 2
Core_0_STLB_PB_demand_miss 104095
Core_0_CP_PB_coverage 1.92128e-05
Core_0_STLB_raw_demand_mpki 1.04097
Core_0_STLB_PB_demand_mpki 1.04095
Core_0_CP_PB_demand_hit_mpki 2e-05

Core_0_TLB_demand_miss_rate 0.00748529
Core_0_TLB_demand_mpki 1.59801
Core_0_TLB_same_page_prefetch_miss_rate 0
Core_0_TLB_same_page_prefetch_mpki 0
Core_0_TLB_cross_page_prefetch_miss_rate 0.00194932
Core_0_TLB_cross_page_prefetch_mpki 5e-05
Core_0_TLB_cross_page_prefetch_issued 2565
Core_0_TLB_cross_page_prefetch_lookups 2565
Core_0_TLB_cross_page_prefetch_useful 0
Core_0_TLB_cross_page_prefetch_useless 5
Core_0_TLB_cross_page_prefetch_late 0
Core_0_TLB_cross_page_prefetch_too_early 2
Core_0_TLB_cross_page_prefetch_too_early_among_fill 0.4
Core_0_TLB_cross_page_prefetch_too_early_among_useless 0.4
Core_0_TLB_cross_page_prefetch_accuracy 0
Core_0_TLB_cross_page_prefetch_coverage 0
BERTI TO_L1: 85551 TO_L2: 85635 TO_L2_BC_MSHR: 0
BERTI AVG_LAT: 24.9594 NUM_TRACK_LATENCY: 1896593 NUM_CANT_TRACK_LATENCY: 0
BERTI CROSS_PAGE 18608 NO_CROSS_PAGE: 152578
BERTI FOUND_BERTI: 977882 NO_FOUND_BERTI: 31438634
BERTI AVERAGE_ISSUED: 5.31298
