[VMEM] WARNING: physical memory size is smaller than virtual memory size.

*** ChampSim Multicore Out-of-Order Simulator ***
Warmup Instructions: 50000000
Simulation Instructions: 100000000
Number of CPUs: 1
Page size: 4096
Core 0: /data0/tzh/champsim_traces/QMM/srv_4_new.xz
VBerti Prefetcher
BERTI HASH ENTANGLING
BERTI IP MASK ffff
Off-chip DRAM Size: 16 GiB Channels: 1 Width: 64-bit Data Rate: 3205 MT/s
[BTB] WARNING: target of return is a lower address than the corresponding call. This is usually a problem with your trace.
[BTB] WARNING: target of return is a lower address than the corresponding call. This is usually a problem with your trace.
[BTB] WARNING: target of return is a lower address than the corresponding call. This is usually a problem with your trace.
[BTB] WARNING: target of return is a lower address than the corresponding call. This is usually a problem with your trace.
[BTB] WARNING: target of return is a lower address than the corresponding call. This is usually a problem with your trace.
[BTB] WARNING: target of return is a lower address than the corresponding call. This is usually a problem with your trace.
[BTB] WARNING: target of return is a lower address than the corresponding call. This is usually a problem with your trace.
[BTB] WARNING: target of return is a lower address than the corresponding call. This is usually a problem with your trace.
[BTB] WARNING: target of return is a lower address than the corresponding call. This is usually a problem with your trace.
[BTB] WARNING: target of return is a lower address than the corresponding call. This is usually a problem with your trace.
*** Reached end of trace: (0, "/data0/tzh/champsim_traces/QMM/srv_4_new.xz")
Warmup halting CPU 0 at instruction 50000000 cycle 10761985 for remainder of phase
Warmup finished CPU 0 instructions: 50000000 cycles: 10761985 cumulative IPC: 4.646 (Simulation time: 00 hr 03 min 11 sec)
Warmup complete CPU 0 instructions: 50000000 cycles: 10761985 cumulative IPC: 4.646 (Simulation time: 00 hr 03 min 11 sec)
*** Reached end of trace: (0, "/data0/tzh/champsim_traces/QMM/srv_4_new.xz")
*** Reached end of trace: (0, "/data0/tzh/champsim_traces/QMM/srv_4_new.xz")
*** Reached end of trace: (0, "/data0/tzh/champsim_traces/QMM/srv_4_new.xz")
Simulation finished CPU 0 instructions: 100000001 cycles: 52809649 cumulative IPC: 1.894 (Simulation time: 00 hr 13 min 14 sec)
Simulation complete CPU 0 instructions: 100000001 cycles: 52809649 cumulative IPC: 1.894 (Simulation time: 00 hr 13 min 14 sec)

ChampSim completed all CPUs

=== Simulation ===
CPU 0 runs /data0/tzh/champsim_traces/QMM/srv_4_new.xz

Region of Interest Statistics

CPU 0 cumulative IPC: 1.894 instructions: 100000001 cycles: 52809649
CPU 0 Branch Prediction Accuracy: 98.8% MPKI: 2.148 Average ROB Occupancy at Mispredict: 151.2
Branch type MPKI
BRANCH_DIRECT_JUMP: 0.1293
BRANCH_INDIRECT: 0.198
BRANCH_CONDITIONAL: 1.257
BRANCH_DIRECT_CALL: 0.2349
BRANCH_INDIRECT_CALL: 0.07542
BRANCH_RETURN: 0.2528

cpu0->cpu0_STLB TOTAL        ACCESS:    1650978 HIT:    1492704 MISS:     158274 MSHR_MERGE:          0
cpu0->cpu0_STLB LOAD         ACCESS:    1650978 HIT:    1492704 MISS:     158274 MSHR_MERGE:          0
cpu0->cpu0_STLB RFO          ACCESS:          0 HIT:          0 MISS:          0 MSHR_MERGE:          0
cpu0->cpu0_STLB PREFETCH     ACCESS:          0 HIT:          0 MISS:          0 MSHR_MERGE:          0
cpu0->cpu0_STLB WRITE        ACCESS:          0 HIT:          0 MISS:          0 MSHR_MERGE:          0
cpu0->cpu0_STLB TRANSLATION  ACCESS:          0 HIT:          0 MISS:          0 MSHR_MERGE:          0
cpu0->cpu0_STLB PREFETCH REQUESTED:          0 ISSUED:          0 USEFUL:          0 USELESS:          0 LATE:          0 TOO_EARLY:          0
cpu0->cpu0_STLB AVERAGE MISS LATENCY: 37.29 cycles
cpu0->cpu0_L2C TOTAL        ACCESS:    4520006 HIT:    2982462 MISS:    1537544 MSHR_MERGE:        710
cpu0->cpu0_L2C LOAD         ACCESS:    3648337 HIT:    2303143 MISS:    1345194 MSHR_MERGE:         95
cpu0->cpu0_L2C RFO          ACCESS:     164444 HIT:      82953 MISS:      81491 MSHR_MERGE:          0
cpu0->cpu0_L2C PREFETCH     ACCESS:      35639 HIT:      17771 MISS:      17868 MSHR_MERGE:        615
cpu0->cpu0_L2C WRITE        ACCESS:     523898 HIT:     521925 MISS:       1973 MSHR_MERGE:          0
cpu0->cpu0_L2C TRANSLATION  ACCESS:     147688 HIT:      56670 MISS:      91018 MSHR_MERGE:          0
cpu0->cpu0_L2C PREFETCH REQUESTED:      34721 ISSUED:      34708 USEFUL:      11170 USELESS:       5884 LATE:         95 TOO_EARLY:        388
cpu0->cpu0_L2C AVERAGE MISS LATENCY: 33.11 cycles
cpu0->cpu0_L1I TOTAL        ACCESS:   15859610 HIT:   11698415 MISS:    4161195 MSHR_MERGE:    1614870
cpu0->cpu0_L1I LOAD         ACCESS:   15859610 HIT:   11698415 MISS:    4161195 MSHR_MERGE:    1614870
cpu0->cpu0_L1I RFO          ACCESS:          0 HIT:          0 MISS:          0 MSHR_MERGE:          0
cpu0->cpu0_L1I PREFETCH     ACCESS:          0 HIT:          0 MISS:          0 MSHR_MERGE:          0
cpu0->cpu0_L1I WRITE        ACCESS:          0 HIT:          0 MISS:          0 MSHR_MERGE:          0
cpu0->cpu0_L1I TRANSLATION  ACCESS:          0 HIT:          0 MISS:          0 MSHR_MERGE:          0
cpu0->cpu0_L1I PREFETCH REQUESTED:          0 ISSUED:          0 USEFUL:          0 USELESS:          0 LATE:          0 TOO_EARLY:          0
cpu0->cpu0_L1I AVERAGE MISS LATENCY: 13.02 cycles
cpu0->cpu0_L1D TOTAL        ACCESS:   23063658 HIT:   20959164 MISS:    2104494 MSHR_MERGE:     689399
cpu0->cpu0_L1D LOAD         ACCESS:   12832877 HIT:   11335991 MISS:    1496886 MSHR_MERGE:     394862
cpu0->cpu0_L1D RFO          ACCESS:          0 HIT:          0 MISS:          0 MSHR_MERGE:          0
cpu0->cpu0_L1D PREFETCH     ACCESS:       5439 HIT:       4508 MISS:        931 MSHR_MERGE:          0
cpu0->cpu0_L1D WRITE        ACCESS:    9865209 HIT:    9409324 MISS:     455885 MSHR_MERGE:     291433
cpu0->cpu0_L1D TRANSLATION  ACCESS:     360133 HIT:     209341 MISS:     150792 MSHR_MERGE:       3104
cpu0->cpu0_L1D PREFETCH REQUESTED:       5737 ISSUED:       5439 USEFUL:         73 USELESS:          5 LATE:          0 TOO_EARLY:          0
cpu0->cpu0_L1D AVERAGE MISS LATENCY: 34.56 cycles
cpu0->cpu0_ITLB TOTAL        ACCESS:   13491199 HIT:   12495301 MISS:     995898 MSHR_MERGE:     617914
cpu0->cpu0_ITLB LOAD         ACCESS:   13491199 HIT:   12495301 MISS:     995898 MSHR_MERGE:     617914
cpu0->cpu0_ITLB RFO          ACCESS:          0 HIT:          0 MISS:          0 MSHR_MERGE:          0
cpu0->cpu0_ITLB PREFETCH     ACCESS:          0 HIT:          0 MISS:          0 MSHR_MERGE:          0
cpu0->cpu0_ITLB WRITE        ACCESS:          0 HIT:          0 MISS:          0 MSHR_MERGE:          0
cpu0->cpu0_ITLB TRANSLATION  ACCESS:          0 HIT:          0 MISS:          0 MSHR_MERGE:          0
cpu0->cpu0_ITLB PREFETCH REQUESTED:          0 ISSUED:          0 USEFUL:          0 USELESS:          0 LATE:          0 TOO_EARLY:          0
cpu0->cpu0_ITLB AVERAGE MISS LATENCY: 8.713 cycles
cpu0->cpu0_DTLB TOTAL        ACCESS:   21330423 HIT:   19611350 MISS:    1719073 MSHR_MERGE:     446080
cpu0->cpu0_DTLB LOAD         ACCESS:   21330423 HIT:   19611350 MISS:    1719073 MSHR_MERGE:     446080
cpu0->cpu0_DTLB RFO          ACCESS:          0 HIT:          0 MISS:          0 MSHR_MERGE:          0
cpu0->cpu0_DTLB PREFETCH     ACCESS:          0 HIT:          0 MISS:          0 MSHR_MERGE:          0
cpu0->cpu0_DTLB WRITE        ACCESS:          0 HIT:          0 MISS:          0 MSHR_MERGE:          0
cpu0->cpu0_DTLB TRANSLATION  ACCESS:          0 HIT:          0 MISS:          0 MSHR_MERGE:          0
cpu0->cpu0_DTLB PREFETCH REQUESTED:          0 ISSUED:          0 USEFUL:          0 USELESS:          0 LATE:          0 TOO_EARLY:          0
cpu0->cpu0_DTLB AVERAGE MISS LATENCY: 8.675 cycles
cpu0->LLC TOTAL        ACCESS:    1800795 HIT:    1642110 MISS:     158685 MSHR_MERGE:          0
cpu0->LLC LOAD         ACCESS:    1345099 HIT:    1230838 MISS:     114261 MSHR_MERGE:          0
cpu0->LLC RFO          ACCESS:      81491 HIT:      58249 MISS:      23242 MSHR_MERGE:          0
cpu0->LLC PREFETCH     ACCESS:      17253 HIT:       6887 MISS:      10366 MSHR_MERGE:          0
cpu0->LLC WRITE        ACCESS:     265934 HIT:     261310 MISS:       4624 MSHR_MERGE:          0
cpu0->LLC TRANSLATION  ACCESS:      91018 HIT:      84826 MISS:       6192 MSHR_MERGE:          0
cpu0->LLC PREFETCH REQUESTED:          0 ISSUED:          0 USEFUL:          0 USELESS:          0 LATE:          0 TOO_EARLY:          0
cpu0->LLC AVERAGE MISS LATENCY: 184.8 cycles

DRAM Statistics

Channel 0 RQ ROW_BUFFER_HIT:       6150
  ROW_BUFFER_MISS:     147909
  AVG DBUS CONGESTED CYCLE: 15.55
Channel 0 WQ ROW_BUFFER_HIT:      23330
  ROW_BUFFER_MISS:      83519
  FULL:          0
Channel 0 REFRESHES ISSUED:       4401

[ROI Statistics]
[System Configuration]
num_cpus 1
cpu_freq 4000
fetch_width 6
decode_width 6
dispatch_width 6
execute_width 6
lq_width 2
sq_width 2
retire_width 6
scheduler_size 128
branch_mispredict_penalty 15
rob_size 352
lq_size 128
sq_size 72
ifetch_buffer_size 64
decode_buffer_size 32
dispatch_buffer_size 32
register_file_size 288
decode_latency 1
dispatch_latency 1
schedule_latency 1
execute_latency 1
page_size 4096
block_size 64
core_0_itlb_set 16
core_0_itlb_way 4
core_0_itlb_rq_size 16
core_0_itlb_wq_size 16
core_0_itlb_pq_size 0
core_0_itlb_mshr_size 8
core_0_itlb_hit_latency 1
core_0_itlb_fill_latency 1
core_0_itlb_max_tag_check 2
core_0_itlb_max_fill 2
core_0_dtlb_set 16
core_0_dtlb_way 4
core_0_dtlb_rq_size 16
core_0_dtlb_wq_size 16
core_0_dtlb_pq_size 0
core_0_dtlb_mshr_size 8
core_0_dtlb_hit_latency 1
core_0_dtlb_fill_latency 1
core_0_dtlb_max_tag_check 2
core_0_dtlb_max_fill 2
core_0_stlb_set 128
core_0_stlb_way 12
core_0_stlb_rq_size 32
core_0_stlb_wq_size 32
core_0_stlb_pq_size 0
core_0_stlb_mshr_size 16
core_0_stlb_hit_latency 4
core_0_stlb_fill_latency 4
core_0_stlb_max_tag_check 1
core_0_stlb_max_fill 1
core_0_l1i_set 64
core_0_l1i_way 8
core_0_l1i_rq_size 64
core_0_l1i_wq_size 64
core_0_l1i_pq_size 32
core_0_l1i_mshr_size 8
core_0_l1i_hit_latency 2
core_0_l1i_fill_latency 2
core_0_l1i_max_tag_check 2
core_0_l1i_max_fill 2
core_0_l1d_set 64
core_0_l1d_way 12
core_0_l1d_rq_size 64
core_0_l1d_wq_size 64
core_0_l1d_pq_size 8
core_0_l1d_mshr_size 16
core_0_l1d_hit_latency 2
core_0_l1d_fill_latency 3
core_0_l1d_max_tag_check 2
core_0_l1d_max_fill 2
core_0_l2c_set 1024
core_0_l2c_way 8
core_0_l2c_rq_size 32
core_0_l2c_wq_size 32
core_0_l2c_pq_size 16
core_0_l2c_mshr_size 32
core_0_l2c_hit_latency 5
core_0_l2c_fill_latency 5
core_0_l2c_max_tag_check 1
core_0_l2c_max_fill 1
llc_set 2048
llc_way 16
llc_rq_size 32
llc_wq_size 32
llc_pq_size 32
llc_mshr_size 64
llc_hit_latency 10
llc_fill_latency 10
llc_max_tag_check 1
llc_max_fill 1
dram_channels 1
dram_ranks 1
dram_bankgroups 8
dram_banks 4
dram_rows 65536
dram_columns 1024
dram_channel_width 8
dram_rq_size 64
dram_wq_size 64
dram_size 17179869184
core_0_itlb_prefetcher no
core_0_dtlb_prefetcher no
core_0_stlb_prefetcher no
core_0_l1i_prefetcher next_line
core_0_l1d_prefetcher vberti
core_0_l2c_prefetcher ip_stride
llc_prefetcher no
llc_replacement drrip

Core_0_instructions 100000001
Core_0_cycles 52809649
Core_0_IPC 1.89359
Core_0_branch_prediction_accuracy 98.8007
Core_0_branch_MPKI 2.14795
Core_0_average_ROB_occupancy_at_mispredict 151.218

Core_0_ITLB_total_access 13491199
Core_0_ITLB_total_hit 12495301
Core_0_ITLB_total_miss 995898
Core_0_ITLB_total_MPKI 9.95898
Core_0_ITLB_total_miss_rate 0.0738183
Core_0_ITLB_demand_access 13491199
Core_0_ITLB_demand_hit 12495301
Core_0_ITLB_demand_miss 995898
Core_0_ITLB_demand_MPKI 9.95898
Core_0_ITLB_demand_miss_rate 0.0738183
Core_0_ITLB_load_access 13491199
Core_0_ITLB_load_hit 12495301
Core_0_ITLB_load_miss 995898
Core_0_ITLB_load_MPKI 9.95898
Core_0_ITLB_load_miss_rate 0.0738183
Core_0_ITLB_rfo_access 0
Core_0_ITLB_rfo_hit 0
Core_0_ITLB_rfo_miss 0
Core_0_ITLB_rfo_MPKI 0
Core_0_ITLB_rfo_miss_rate 0
Core_0_ITLB_prefetch_access 0
Core_0_ITLB_prefetch_hit 0
Core_0_ITLB_prefetch_miss 0
Core_0_ITLB_prefetch_MPKI 0
Core_0_ITLB_prefetch_miss_rate 0
Core_0_ITLB_writeback_access 0
Core_0_ITLB_writeback_hit 0
Core_0_ITLB_writeback_miss 0
Core_0_ITLB_writeback_MPKI 0
Core_0_ITLB_writeback_miss_rate 0
Core_0_ITLB_prefetch_requested 0
Core_0_ITLB_prefetch_issued 0
Core_0_ITLB_prefetch_useful 0
Core_0_ITLB_prefetch_useless 0
Core_0_ITLB_prefetch_late 0
Core_0_ITLB_prefetch_fill 0
Core_0_ITLB_prefetch_too_early 0
Core_0_ITLB_prefetch_too_early_among_fill 0
Core_0_ITLB_prefetch_too_early_among_useless 0
Core_0_ITLB_prefetch_pollution_evict 0
Core_0_ITLB_prefetch_pollution_demand 0
Core_0_ITLB_prefetch_pollution_among_prefetch_fill 0
Core_0_ITLB_prefetch_accuracy 0
Core_0_ITLB_prefetch_coverage 0

Core_0_DTLB_total_access 21330423
Core_0_DTLB_total_hit 19611350
Core_0_DTLB_total_miss 1719073
Core_0_DTLB_total_MPKI 17.1907
Core_0_DTLB_total_miss_rate 0.0805925
Core_0_DTLB_demand_access 21330423
Core_0_DTLB_demand_hit 19611350
Core_0_DTLB_demand_miss 1719073
Core_0_DTLB_demand_MPKI 17.1907
Core_0_DTLB_demand_miss_rate 0.0805925
Core_0_DTLB_load_access 21330423
Core_0_DTLB_load_hit 19611350
Core_0_DTLB_load_miss 1719073
Core_0_DTLB_load_MPKI 17.1907
Core_0_DTLB_load_miss_rate 0.0805925
Core_0_DTLB_rfo_access 0
Core_0_DTLB_rfo_hit 0
Core_0_DTLB_rfo_miss 0
Core_0_DTLB_rfo_MPKI 0
Core_0_DTLB_rfo_miss_rate 0
Core_0_DTLB_prefetch_access 0
Core_0_DTLB_prefetch_hit 0
Core_0_DTLB_prefetch_miss 0
Core_0_DTLB_prefetch_MPKI 0
Core_0_DTLB_prefetch_miss_rate 0
Core_0_DTLB_writeback_access 0
Core_0_DTLB_writeback_hit 0
Core_0_DTLB_writeback_miss 0
Core_0_DTLB_writeback_MPKI 0
Core_0_DTLB_writeback_miss_rate 0
Core_0_DTLB_prefetch_requested 0
Core_0_DTLB_prefetch_issued 0
Core_0_DTLB_prefetch_useful 0
Core_0_DTLB_prefetch_useless 0
Core_0_DTLB_prefetch_late 0
Core_0_DTLB_prefetch_fill 0
Core_0_DTLB_prefetch_too_early 0
Core_0_DTLB_prefetch_too_early_among_fill 0
Core_0_DTLB_prefetch_too_early_among_useless 0
Core_0_DTLB_prefetch_pollution_evict 0
Core_0_DTLB_prefetch_pollution_demand 0
Core_0_DTLB_prefetch_pollution_among_prefetch_fill 0
Core_0_DTLB_prefetch_accuracy 0
Core_0_DTLB_prefetch_coverage 0

Core_0_STLB_total_access 1650978
Core_0_STLB_total_hit 1492704
Core_0_STLB_total_miss 158274
Core_0_STLB_total_MPKI 1.58274
Core_0_STLB_total_miss_rate 0.0958668
Core_0_STLB_demand_access 1650978
Core_0_STLB_demand_hit 1492704
Core_0_STLB_demand_miss 158274
Core_0_STLB_demand_MPKI 1.58274
Core_0_STLB_demand_miss_rate 0.0958668
Core_0_STLB_load_access 1650978
Core_0_STLB_load_hit 1492704
Core_0_STLB_load_miss 158274
Core_0_STLB_load_MPKI 1.58274
Core_0_STLB_load_miss_rate 0.0958668
Core_0_STLB_rfo_access 0
Core_0_STLB_rfo_hit 0
Core_0_STLB_rfo_miss 0
Core_0_STLB_rfo_MPKI 0
Core_0_STLB_rfo_miss_rate 0
Core_0_STLB_prefetch_access 0
Core_0_STLB_prefetch_hit 0
Core_0_STLB_prefetch_miss 0
Core_0_STLB_prefetch_MPKI 0
Core_0_STLB_prefetch_miss_rate 0
Core_0_STLB_writeback_access 0
Core_0_STLB_writeback_hit 0
Core_0_STLB_writeback_miss 0
Core_0_STLB_writeback_MPKI 0
Core_0_STLB_writeback_miss_rate 0
Core_0_STLB_prefetch_requested 0
Core_0_STLB_prefetch_issued 0
Core_0_STLB_prefetch_useful 0
Core_0_STLB_prefetch_useless 0
Core_0_STLB_prefetch_late 0
Core_0_STLB_prefetch_fill 0
Core_0_STLB_prefetch_too_early 0
Core_0_STLB_prefetch_too_early_among_fill 0
Core_0_STLB_prefetch_too_early_among_useless 0
Core_0_STLB_prefetch_pollution_evict 0
Core_0_STLB_prefetch_pollution_demand 0
Core_0_STLB_prefetch_pollution_among_prefetch_fill 0
Core_0_STLB_prefetch_accuracy 0
Core_0_STLB_prefetch_coverage 0

Core_0_L1I_total_access 15859610
Core_0_L1I_total_hit 11698415
Core_0_L1I_total_miss 4161195
Core_0_L1I_total_MPKI 41.6119
Core_0_L1I_total_miss_rate 0.262377
Core_0_L1I_demand_access 15859610
Core_0_L1I_demand_hit 11698415
Core_0_L1I_demand_miss 4161195
Core_0_L1I_demand_MPKI 41.6119
Core_0_L1I_demand_miss_rate 0.262377
Core_0_L1I_load_access 15859610
Core_0_L1I_load_hit 11698415
Core_0_L1I_load_miss 4161195
Core_0_L1I_load_MPKI 41.6119
Core_0_L1I_load_miss_rate 0.262377
Core_0_L1I_rfo_access 0
Core_0_L1I_rfo_hit 0
Core_0_L1I_rfo_miss 0
Core_0_L1I_rfo_MPKI 0
Core_0_L1I_rfo_miss_rate 0
Core_0_L1I_prefetch_access 0
Core_0_L1I_prefetch_hit 0
Core_0_L1I_prefetch_miss 0
Core_0_L1I_prefetch_MPKI 0
Core_0_L1I_prefetch_miss_rate 0
Core_0_L1I_writeback_access 0
Core_0_L1I_writeback_hit 0
Core_0_L1I_writeback_miss 0
Core_0_L1I_writeback_MPKI 0
Core_0_L1I_writeback_miss_rate 0
Core_0_L1I_prefetch_requested 0
Core_0_L1I_prefetch_issued 0
Core_0_L1I_prefetch_useful 0
Core_0_L1I_prefetch_useless 0
Core_0_L1I_prefetch_late 0
Core_0_L1I_prefetch_fill 0
Core_0_L1I_prefetch_too_early 0
Core_0_L1I_prefetch_too_early_among_fill 0
Core_0_L1I_prefetch_too_early_among_useless 0
Core_0_L1I_prefetch_pollution_evict 0
Core_0_L1I_prefetch_pollution_demand 0
Core_0_L1I_prefetch_pollution_among_prefetch_fill 0
Core_0_L1I_prefetch_accuracy 0
Core_0_L1I_prefetch_coverage 0

Core_0_L1D_total_access 22703525
Core_0_L1D_total_hit 20749823
Core_0_L1D_total_miss 1953702
Core_0_L1D_total_MPKI 19.537
Core_0_L1D_total_miss_rate 0.0860528
Core_0_L1D_demand_access 12832877
Core_0_L1D_demand_hit 11335991
Core_0_L1D_demand_miss 1496886
Core_0_L1D_demand_MPKI 14.9689
Core_0_L1D_demand_miss_rate 0.116645
Core_0_L1D_load_access 12832877
Core_0_L1D_load_hit 11335991
Core_0_L1D_load_miss 1496886
Core_0_L1D_load_MPKI 14.9689
Core_0_L1D_load_miss_rate 0.116645
Core_0_L1D_rfo_access 0
Core_0_L1D_rfo_hit 0
Core_0_L1D_rfo_miss 0
Core_0_L1D_rfo_MPKI 0
Core_0_L1D_rfo_miss_rate 0
Core_0_L1D_prefetch_access 5439
Core_0_L1D_prefetch_hit 4508
Core_0_L1D_prefetch_miss 931
Core_0_L1D_prefetch_MPKI 0.00931
Core_0_L1D_prefetch_miss_rate 0.171171
Core_0_L1D_writeback_access 9865209
Core_0_L1D_writeback_hit 9409324
Core_0_L1D_writeback_miss 455885
Core_0_L1D_writeback_MPKI 4.55885
Core_0_L1D_writeback_miss_rate 0.0462114
Core_0_L1D_prefetch_requested 5737
Core_0_L1D_prefetch_issued 5439
Core_0_L1D_prefetch_useful 73
Core_0_L1D_prefetch_useless 5
Core_0_L1D_prefetch_late 0
Core_0_L1D_prefetch_fill 78
Core_0_L1D_prefetch_too_early 0
Core_0_L1D_prefetch_too_early_among_fill 0
Core_0_L1D_prefetch_too_early_among_useless 0
Core_0_L1D_prefetch_pollution_evict 53
Core_0_L1D_prefetch_pollution_demand 53
Core_0_L1D_prefetch_pollution_among_prefetch_fill 0.679487
Core_0_L1D_prefetch_accuracy 0.0134216
Core_0_L1D_prefetch_coverage 4.87655e-05

Core_0_L2C_total_access 4372318
Core_0_L2C_total_hit 2925792
Core_0_L2C_total_miss 1446526
Core_0_L2C_total_MPKI 14.4653
Core_0_L2C_total_miss_rate 0.330837
Core_0_L2C_demand_access 3812781
Core_0_L2C_demand_hit 2386096
Core_0_L2C_demand_miss 1426685
Core_0_L2C_demand_MPKI 14.2668
Core_0_L2C_demand_miss_rate 0.374185
Core_0_L2C_load_access 3648337
Core_0_L2C_load_hit 2303143
Core_0_L2C_load_miss 1345194
Core_0_L2C_load_MPKI 13.4519
Core_0_L2C_load_miss_rate 0.368714
Core_0_L2C_rfo_access 164444
Core_0_L2C_rfo_hit 82953
Core_0_L2C_rfo_miss 81491
Core_0_L2C_rfo_MPKI 0.81491
Core_0_L2C_rfo_miss_rate 0.495555
Core_0_L2C_prefetch_access 35639
Core_0_L2C_prefetch_hit 17771
Core_0_L2C_prefetch_miss 17868
Core_0_L2C_prefetch_MPKI 0.17868
Core_0_L2C_prefetch_miss_rate 0.501361
Core_0_L2C_writeback_access 523898
Core_0_L2C_writeback_hit 521925
Core_0_L2C_writeback_miss 1973
Core_0_L2C_writeback_MPKI 0.01973
Core_0_L2C_writeback_miss_rate 0.003766
Core_0_L2C_prefetch_requested 34721
Core_0_L2C_prefetch_issued 34708
Core_0_L2C_prefetch_useful 11170
Core_0_L2C_prefetch_useless 5884
Core_0_L2C_prefetch_late 95
Core_0_L2C_prefetch_fill 17158
Core_0_L2C_prefetch_too_early 388
Core_0_L2C_prefetch_too_early_among_fill 0.0226134
Core_0_L2C_prefetch_too_early_among_useless 0.0659415
Core_0_L2C_prefetch_pollution_evict 15157
Core_0_L2C_prefetch_pollution_demand 15153
Core_0_L2C_prefetch_pollution_among_prefetch_fill 0.883378
Core_0_L2C_prefetch_accuracy 0.321828
Core_0_L2C_prefetch_coverage 0.00776852

Core_0_LLC_total_access 1709777
Core_0_LLC_total_hit 1557284
Core_0_LLC_total_miss 152493
Core_0_LLC_total_MPKI 1.52493
Core_0_LLC_total_miss_rate 0.0891888
Core_0_LLC_demand_access 1426590
Core_0_LLC_demand_hit 1289087
Core_0_LLC_demand_miss 137503
Core_0_LLC_demand_MPKI 1.37503
Core_0_LLC_demand_miss_rate 0.0963858
Core_0_LLC_load_access 1345099
Core_0_LLC_load_hit 1230838
Core_0_LLC_load_miss 114261
Core_0_LLC_load_MPKI 1.14261
Core_0_LLC_load_miss_rate 0.0849462
Core_0_LLC_rfo_access 81491
Core_0_LLC_rfo_hit 58249
Core_0_LLC_rfo_miss 23242
Core_0_LLC_rfo_MPKI 0.23242
Core_0_LLC_rfo_miss_rate 0.285209
Core_0_LLC_prefetch_access 17253
Core_0_LLC_prefetch_hit 6887
Core_0_LLC_prefetch_miss 10366
Core_0_LLC_prefetch_MPKI 0.10366
Core_0_LLC_prefetch_miss_rate 0.600823
Core_0_LLC_writeback_access 265934
Core_0_LLC_writeback_hit 261310
Core_0_LLC_writeback_miss 4624
Core_0_LLC_writeback_MPKI 0.04624
Core_0_LLC_writeback_miss_rate 0.0173878
Core_0_LLC_prefetch_requested 0
Core_0_LLC_prefetch_issued 0
Core_0_LLC_prefetch_useful 0
Core_0_LLC_prefetch_useless 0
Core_0_LLC_prefetch_late 0
Core_0_LLC_prefetch_fill 10366
Core_0_LLC_prefetch_too_early 0
Core_0_LLC_prefetch_too_early_among_fill 0
Core_0_LLC_prefetch_too_early_among_useless 0
Core_0_LLC_prefetch_pollution_evict 7370
Core_0_LLC_prefetch_pollution_demand 7370
Core_0_LLC_prefetch_pollution_among_prefetch_fill 0.710978
Core_0_LLC_prefetch_accuracy 0
Core_0_LLC_prefetch_coverage 0

[DRAM Statistics]
Channel_0_RQ_row_buffer_hit 6150
Channel_0_RQ_row_buffer_miss 147909
Channel_0_WQ_row_buffer_hit 23330
Channel_0_WQ_row_buffer_miss 83519
Channel_0_WQ_full 0
Channel_0_dbus_congested 810537
DRAM_total_RQ_row_buffer_hit 6150
DRAM_total_RQ_row_buffer_miss 147909
DRAM_total_WQ_row_buffer_hit 23330
DRAM_total_WQ_row_buffer_miss 83519
DRAM_total_WQ_full 0
DRAM_total_dbus_congested 810537
DRAM_avg_congested_cycle 15.5519

====== DRAM_RQ_TRAFFIC ========
DRAM_RQ_READ_TRAFFIC_BREAKDOWN:
data_demand_read.count = 133068
data_demand_read.share = 86.37%

inst_demand_read.count = 4435
inst_demand_read.share = 2.88%

cache_inst_prefetch.count = 0
cache_inst_prefetch.share = 0.00%

cache_data_prefetch.count = 10366
cache_data_prefetch.share = 6.73%

stlb_data_demand.count = 6059
stlb_data_demand.share = 3.93%

stlb_inst_demand.count = 133
stlb_inst_demand.share = 0.09%

stlb_l1i_pref.count = 0
stlb_l1i_pref.share = 0.00%

stlb_l1d_pref.count = 0
stlb_l1d_pref.share = 0.00%

DRAM_RQ_READ_TRAFFIC_SUMMARY:
cache_demand.count = 137503
cache_demand.share = 89.25%

cache_prefetch.count = 10366
cache_prefetch.share = 6.73%

stlb_demand.count = 6192
stlb_demand.share = 4.02%

stlb_prefetch.count = 0
stlb_prefetch.share = 0.00%

DRAM_RQ_READ_TRAFFIC_DEBUG:
total_classified_read.count = 154061
unclassified_read.count = 0
total_read_with_other.count = 154061

classified_plus_unclassified_check.count = 154061
dram_rq_read_total_observed.count = 154061
dram_rq_read_total_observed.per_1K_instructions = 1.54061

STLB_MISS_PTW_DRAM_TOUCH_BREAKDOWN:
stlb_miss_total.count = 158273

stlb_miss_touch_dram.count = 6185
stlb_miss_touch_dram.share = 3.91%

stlb_miss_no_dram_touch.count = 152088
stlb_miss_no_dram_touch.share = 96.09%

STLB_MISS_PTW_DRAM_TOUCH_DEBUG:
stlb_miss_touch_plus_no_touch.count = 158273
stlb_miss_total_check.count = 158273

======STLB miss causes ========
Core_0_STLB_miss_cause_breakdown
Core_0_STLB_cause_Demand_Data_miss 104053
Core_0_STLB_cause_Demand_Data_miss_rate 0.0630251
Core_0_STLB_cause_Demand_Instruction_miss 54220
Core_0_STLB_cause_Demand_Instruction_miss_rate 0.0328411
Core_0_STLB_cause_L1D_Prefetch_miss 1
Core_0_STLB_cause_L1D_Prefetch_miss_rate 6.05702e-07
Core_0_STLB_cause_L1D_Prefetch_Same_Page_miss 0
Core_0_STLB_cause_L1D_Prefetch_Same_Page_miss_rate 0
Core_0_STLB_cause_L1D_Prefetch_Cross_Page_miss 1
Core_0_STLB_cause_L1D_Prefetch_Cross_Page_miss_rate 6.05702e-07
Core_0_STLB_cause_L1I_Prefetch_miss 0
Core_0_STLB_cause_L1I_Prefetch_miss_rate 0
Core_0_STLB_cause_Other_miss 0
Core_0_STLB_cause_Other_miss_rate 0
Core_0_STLB_Demand_miss 158273
Core_0_STLB_Demand_miss_rate 0.0958662
Core_0_STLB_L1D_Prefetch_miss 1
Core_0_STLB_L1D_Prefetch_miss_rate 6.05702e-07
Core_0_STLB_Other_miss 0
Core_0_STLB_Other_miss_rate 0

========== vBerti-TLB Cross-page Flow Stats ==========

Core_0_vBerti_Requested 5737
Core_0_vBerti_Cross_page_prefetch_in_Requested 1449
Core_0_vBerti_Same_page_prefetch_in_Requested 4288
Core_0_vBerti_Cross_page_prefetch_of_Requested 0.252571
Core_0_vBerti_Issued 5439
Core_0_vBerti_InPQ_Same_page_prefetch 4078
Core_0_vBerti_InPQ_Cross_page_prefetch 1361
Core_0_vBerti_PQ_Drop_Rate 0.0519435
Core_0_vBerti_InPQ_Cross_page_prefetch_of_Requested 0.237232
Core_0_vBerti_Cross_page_PQ_Drop_rate 0.0607315
Core_0_vBerti_Cross_page_prefetch_of_Issued 0.25023
Core_0_CP_PF_PQFULL_drop 88
Core_0_CP_PF_PQFULL_TLB_rescue_enqueued 88
Core_0_CP_PF_PQFULL_TLB_rescue_issued 88
Core_0_CP_PF_PQFULL_TLB_rescue_translated 88

========= DTLB_vBerti Prefetch Stats =========
Core_0_DTLB_demand_access 21326295
Core_0_DTLB_demand_hit 19607223
Core_0_DTLB_demand_miss 1719072
Core_0_DTLB_demand_mshr_merge 446080
Core_0_DTLB_demand_fill 1272993
Core_0_DTLB_demand_miss_rate 0.0806081
Core_0_DTLB_demand_mpki 17.1907
Core_0_DTLB_vberti_prefetch_access 4128
Core_0_DTLB_vberti_prefetch_hit 4127
Core_0_DTLB_vberti_prefetch_miss 1
Core_0_DTLB_vberti_prefetch_mshr_merge 0
Core_0_DTLB_vberti_prefetch_fill 1
Core_0_DTLB_vberti_prefetch_miss_rate 0.000242248
Core_0_DTLB_vberti_prefetch_mpki 1e-05

=== DTLB_vBerti Same/Cross-page Prefetch Stats ===
Core_0_DTLB_vberti_same_page_prefetch 3081
Core_0_DTLB_vberti_same_page_prefetch_hit 3081
Core_0_DTLB_vberti_same_page_prefetch_miss 0
Core_0_DTLB_vberti_same_page_prefetch_mshr_merge 0
Core_0_DTLB_vberti_same_page_prefetch_fill 0
Core_0_DTLB_vberti_same_page_prefetch_miss_rate 0
Core_0_DTLB_vberti_same_page_prefetch_mpki 0
Core_0_DTLB_vberti_cross_page_prefetch 1047
Core_0_DTLB_vberti_cross_page_prefetch_hit 1046
Core_0_DTLB_vberti_cross_page_prefetch_miss 1
Core_0_DTLB_vberti_cross_page_prefetch_mshr_merge 0
Core_0_DTLB_vberti_cross_page_prefetch_fill 1
Core_0_DTLB_vberti_cross_page_prefetch_miss_rate 0.00095511
Core_0_DTLB_vberti_cross_page_prefetch_mpki 1e-05
Core_0_DTLB_same_page_prefetch_miss_rate 0
Core_0_DTLB_same_page_prefetch_mpki 0
Core_0_DTLB_cross_page_prefetch_miss_rate 0.00095511
Core_0_DTLB_cross_page_prefetch_mpki 1e-05
Core_0_DTLB_cross_page_prefetch_issued 1047
Core_0_DTLB_cross_page_prefetch_lookups 1047
Core_0_DTLB_cross_page_prefetch_useful 1
Core_0_DTLB_cross_page_prefetch_useless 0
Core_0_DTLB_cross_page_prefetch_late 0
Core_0_DTLB_cross_page_prefetch_too_early 0
Core_0_DTLB_cross_page_prefetch_too_early_among_fill 0
Core_0_DTLB_cross_page_prefetch_too_early_among_useless 0
Core_0_DTLB_cross_page_prefetch_pollution_evict 1
Core_0_DTLB_cross_page_prefetch_pollution_demand 1
Core_0_DTLB_cross_page_prefetch_pollution_among_prefetch_fill 1
Core_0_DTLB_cross_page_prefetch_accuracy 0.00095511
Core_0_DTLB_cross_page_prefetch_coverage 5.81709e-07

========= STLB_vBerti Prefetch Stats =========
Core_0_STLB_demand_access 1650977
Core_0_STLB_demand_hit 1492704
Core_0_STLB_demand_miss 158273
Core_0_STLB_demand_mshr_merge 0
Core_0_STLB_demand_fill 158273
Core_0_STLB_demand_miss_rate 0.0958663
Core_0_STLB_demand_mpki 1.58273
Core_0_STLB_vberti_prefetch_access 1
Core_0_STLB_vberti_prefetch_hit 0
Core_0_STLB_vberti_prefetch_miss 1
Core_0_STLB_vberti_prefetch_mshr_merge 0
Core_0_STLB_vberti_prefetch_fill 0
Core_0_STLB_vberti_prefetch_miss_rate 1
Core_0_STLB_vberti_prefetch_mpki 1e-05

=== STLB_vBerti Same/Cross-page Prefetch Stats ===
Core_0_STLB_vberti_same_page_prefetch 0
Core_0_STLB_vberti_same_page_prefetch_hit 0
Core_0_STLB_vberti_same_page_prefetch_miss 0
Core_0_STLB_vberti_same_page_prefetch_mshr_merge 0
Core_0_STLB_vberti_same_page_prefetch_fill 0
Core_0_STLB_vberti_same_page_prefetch_miss_rate 0
Core_0_STLB_vberti_same_page_prefetch_mpki 0
Core_0_STLB_vberti_cross_page_prefetch 1
Core_0_STLB_vberti_cross_page_prefetch_hit 0
Core_0_STLB_vberti_cross_page_prefetch_miss 1
Core_0_STLB_vberti_cross_page_prefetch_mshr_merge 0
Core_0_STLB_vberti_cross_page_prefetch_fill 0
Core_0_STLB_vberti_cross_page_prefetch_miss_rate 1
Core_0_STLB_vberti_cross_page_prefetch_mpki 1e-05
Core_0_STLB_same_page_prefetch_miss_rate 0
Core_0_STLB_same_page_prefetch_mpki 0
Core_0_STLB_cross_page_prefetch_miss_rate 1
Core_0_STLB_cross_page_prefetch_mpki 1e-05
Core_0_STLB_cross_page_prefetch_issued 1
Core_0_STLB_cross_page_prefetch_lookups 1
Core_0_STLB_cross_page_prefetch_useful 1
Core_0_STLB_cross_page_prefetch_useless 0
Core_0_STLB_cross_page_prefetch_late 1
Core_0_STLB_cross_page_prefetch_too_early 0
Core_0_STLB_cross_page_prefetch_too_early_among_fill 0
Core_0_STLB_cross_page_prefetch_too_early_among_useless 0
Core_0_STLB_cross_page_prefetch_pollution_evict 0
Core_0_STLB_cross_page_prefetch_pollution_demand 0
Core_0_STLB_cross_page_prefetch_pollution_among_prefetch_fill 0
Core_0_STLB_cross_page_prefetch_accuracy 1
Core_0_STLB_cross_page_prefetch_coverage 6.31816e-06

========= STLB Cross-page Prefetch Buffer Stats =========
Core_0_STLB_raw_demand_miss 104053
Core_0_CP_PB_insert 1
Core_0_CP_PB_demand_hit 1
Core_0_STLB_PB_demand_miss 104052
Core_0_CP_PB_coverage 9.61049e-06
Core_0_STLB_raw_demand_mpki 1.04053
Core_0_STLB_PB_demand_mpki 1.04052
Core_0_CP_PB_demand_hit_mpki 1e-05

Core_0_TLB_demand_miss_rate 0.0074215
Core_0_TLB_demand_mpki 1.58273
Core_0_TLB_same_page_prefetch_miss_rate 0
Core_0_TLB_same_page_prefetch_mpki 0
Core_0_TLB_cross_page_prefetch_miss_rate 0.00095511
Core_0_TLB_cross_page_prefetch_mpki 1e-05
Core_0_TLB_cross_page_prefetch_issued 1047
Core_0_TLB_cross_page_prefetch_lookups 1047
Core_0_TLB_cross_page_prefetch_useful 1
Core_0_TLB_cross_page_prefetch_useless 0
Core_0_TLB_cross_page_prefetch_late 0
Core_0_TLB_cross_page_prefetch_too_early 0
Core_0_TLB_cross_page_prefetch_too_early_among_fill 0
Core_0_TLB_cross_page_prefetch_too_early_among_useless 0
Core_0_TLB_cross_page_prefetch_accuracy 0.00095511
Core_0_TLB_cross_page_prefetch_coverage 6.31816e-06
BERTI TO_L1: 80523 TO_L2: 76740 TO_L2_BC_MSHR: 0
BERTI AVG_LAT: 25.4935 NUM_TRACK_LATENCY: 1903758 NUM_CANT_TRACK_LATENCY: 0
BERTI CROSS_PAGE 17088 NO_CROSS_PAGE: 140175
BERTI FOUND_BERTI: 983703 NO_FOUND_BERTI: 31430922
BERTI AVERAGE_ISSUED: 3.75324
