[VMEM] WARNING: physical memory size is smaller than virtual memory size.

*** ChampSim Multicore Out-of-Order Simulator ***
Warmup Instructions: 50000000
Simulation Instructions: 100000000
Number of CPUs: 1
Page size: 4096
Core 0: /data2/zcq/champsim_traces_gap/tc.urand-1112B.champsimtrace.xz
VBerti Prefetcher
BERTI HASH ENTANGLING
BERTI IP MASK ffff
Off-chip DRAM Size: 16 GiB Channels: 1 Width: 64-bit Data Rate: 3205 MT/s
Warmup halting CPU 0 at instruction 50000003 cycle 30780363 for remainder of phase
Warmup finished CPU 0 instructions: 50000003 cycles: 30780363 cumulative IPC: 1.624 (Simulation time: 00 hr 04 min 54 sec)
Warmup complete CPU 0 instructions: 50000003 cycles: 30780363 cumulative IPC: 1.624 (Simulation time: 00 hr 04 min 54 sec)
Simulation finished CPU 0 instructions: 100000002 cycles: 645661363 cumulative IPC: 0.1549 (Simulation time: 00 hr 43 min 23 sec)
Simulation complete CPU 0 instructions: 100000002 cycles: 645661363 cumulative IPC: 0.1549 (Simulation time: 00 hr 43 min 23 sec)

ChampSim completed all CPUs

=== Simulation ===
CPU 0 runs /data2/zcq/champsim_traces_gap/tc.urand-1112B.champsimtrace.xz

Region of Interest Statistics

CPU 0 cumulative IPC: 0.1549 instructions: 100000002 cycles: 645661363
CPU 0 Branch Prediction Accuracy: 76.59% MPKI: 56.23 Average ROB Occupancy at Mispredict: 5.564
Branch type MPKI
BRANCH_DIRECT_JUMP: 0
BRANCH_INDIRECT: 0
BRANCH_CONDITIONAL: 56.23
BRANCH_DIRECT_CALL: 0
BRANCH_INDIRECT_CALL: 0
BRANCH_RETURN: 0

cpu0->cpu0_STLB TOTAL        ACCESS:     829543 HIT:      15539 MISS:     814004 MSHR_MERGE:          0
cpu0->cpu0_STLB LOAD         ACCESS:     829543 HIT:      15539 MISS:     814004 MSHR_MERGE:          0
cpu0->cpu0_STLB RFO          ACCESS:          0 HIT:          0 MISS:          0 MSHR_MERGE:          0
cpu0->cpu0_STLB PREFETCH     ACCESS:          0 HIT:          0 MISS:          0 MSHR_MERGE:          0
cpu0->cpu0_STLB WRITE        ACCESS:          0 HIT:          0 MISS:          0 MSHR_MERGE:          0
cpu0->cpu0_STLB TRANSLATION  ACCESS:          0 HIT:          0 MISS:          0 MSHR_MERGE:          0
cpu0->cpu0_STLB PREFETCH REQUESTED:          0 ISSUED:          0 USEFUL:          0 USELESS:          0 LATE:          0 TOO_EARLY:          0
cpu0->cpu0_STLB AVERAGE MISS LATENCY: 295.7 cycles
cpu0->cpu0_L2C TOTAL        ACCESS:    5118206 HIT:    2150330 MISS:    2967876 MSHR_MERGE:     695581
cpu0->cpu0_L2C LOAD         ACCESS:    1211924 HIT:      79171 MISS:    1132753 MSHR_MERGE:      24502
cpu0->cpu0_L2C RFO          ACCESS:        222 HIT:         50 MISS:        172 MSHR_MERGE:          0
cpu0->cpu0_L2C PREFETCH     ACCESS:    2690288 HIT:    1740933 MISS:     949355 MSHR_MERGE:     671079
cpu0->cpu0_L2C WRITE        ACCESS:        223 HIT:        222 MISS:          1 MSHR_MERGE:          0
cpu0->cpu0_L2C TRANSLATION  ACCESS:    1215549 HIT:     329954 MISS:     885595 MSHR_MERGE:          0
cpu0->cpu0_L2C PREFETCH REQUESTED:     174567 ISSUED:     174567 USEFUL:       6730 USELESS:       5257 LATE:          0 TOO_EARLY:          9
cpu0->cpu0_L2C AVERAGE MISS LATENCY: 169.3 cycles
cpu0->cpu0_L1I TOTAL        ACCESS:          4 HIT:          4 MISS:          0 MSHR_MERGE:          0
cpu0->cpu0_L1I LOAD         ACCESS:          4 HIT:          4 MISS:          0 MSHR_MERGE:          0
cpu0->cpu0_L1I RFO          ACCESS:          0 HIT:          0 MISS:          0 MSHR_MERGE:          0
cpu0->cpu0_L1I PREFETCH     ACCESS:          0 HIT:          0 MISS:          0 MSHR_MERGE:          0
cpu0->cpu0_L1I WRITE        ACCESS:          0 HIT:          0 MISS:          0 MSHR_MERGE:          0
cpu0->cpu0_L1I TRANSLATION  ACCESS:          0 HIT:          0 MISS:          0 MSHR_MERGE:          0
cpu0->cpu0_L1I PREFETCH REQUESTED:          0 ISSUED:          0 USEFUL:          0 USELESS:          0 LATE:          0 TOO_EARLY:          0
cpu0->cpu0_L1I AVERAGE MISS LATENCY: - cycles
cpu0->cpu0_L1D TOTAL        ACCESS:   19973741 HIT:   14487210 MISS:    5486531 MSHR_MERGE:     523723
cpu0->cpu0_L1D LOAD         ACCESS:   12281573 HIT:   10594018 MISS:    1687555 MSHR_MERGE:     475631
cpu0->cpu0_L1D RFO          ACCESS:          0 HIT:          0 MISS:          0 MSHR_MERGE:          0
cpu0->cpu0_L1D PREFETCH     ACCESS:    5090095 HIT:    2507263 MISS:    2582832 MSHR_MERGE:      47719
cpu0->cpu0_L1D WRITE        ACCESS:       1110 HIT:        888 MISS:        222 MSHR_MERGE:          0
cpu0->cpu0_L1D TRANSLATION  ACCESS:    2600963 HIT:    1385041 MISS:    1215922 MSHR_MERGE:        373
cpu0->cpu0_L1D PREFETCH REQUESTED:    5974346 ISSUED:    5090095 USEFUL:      29489 USELESS:       6718 LATE:        897 TOO_EARLY:        817
cpu0->cpu0_L1D AVERAGE MISS LATENCY: 149.6 cycles
cpu0->cpu0_ITLB TOTAL        ACCESS:          3 HIT:          3 MISS:          0 MSHR_MERGE:          0
cpu0->cpu0_ITLB LOAD         ACCESS:          3 HIT:          3 MISS:          0 MSHR_MERGE:          0
cpu0->cpu0_ITLB RFO          ACCESS:          0 HIT:          0 MISS:          0 MSHR_MERGE:          0
cpu0->cpu0_ITLB PREFETCH     ACCESS:          0 HIT:          0 MISS:          0 MSHR_MERGE:          0
cpu0->cpu0_ITLB WRITE        ACCESS:          0 HIT:          0 MISS:          0 MSHR_MERGE:          0
cpu0->cpu0_ITLB TRANSLATION  ACCESS:          0 HIT:          0 MISS:          0 MSHR_MERGE:          0
cpu0->cpu0_ITLB PREFETCH REQUESTED:          0 ISSUED:          0 USEFUL:          0 USELESS:          0 LATE:          0 TOO_EARLY:          0
cpu0->cpu0_ITLB AVERAGE MISS LATENCY: - cycles
cpu0->cpu0_DTLB TOTAL        ACCESS:   15229459 HIT:   14071108 MISS:    1158351 MSHR_MERGE:     328808
cpu0->cpu0_DTLB LOAD         ACCESS:   15229459 HIT:   14071108 MISS:    1158351 MSHR_MERGE:     328808
cpu0->cpu0_DTLB RFO          ACCESS:          0 HIT:          0 MISS:          0 MSHR_MERGE:          0
cpu0->cpu0_DTLB PREFETCH     ACCESS:          0 HIT:          0 MISS:          0 MSHR_MERGE:          0
cpu0->cpu0_DTLB WRITE        ACCESS:          0 HIT:          0 MISS:          0 MSHR_MERGE:          0
cpu0->cpu0_DTLB TRANSLATION  ACCESS:          0 HIT:          0 MISS:          0 MSHR_MERGE:          0
cpu0->cpu0_DTLB PREFETCH REQUESTED:          0 ISSUED:          0 USEFUL:          0 USELESS:          0 LATE:          0 TOO_EARLY:          0
cpu0->cpu0_DTLB AVERAGE MISS LATENCY: 296.1 cycles
cpu0->LLC TOTAL        ACCESS:    2272490 HIT:     236584 MISS:    2035906 MSHR_MERGE:          0
cpu0->LLC LOAD         ACCESS:    1108251 HIT:       1424 MISS:    1106827 MSHR_MERGE:          0
cpu0->LLC RFO          ACCESS:        172 HIT:        172 MISS:          0 MSHR_MERGE:          0
cpu0->LLC PREFETCH     ACCESS:     278276 HIT:         47 MISS:     278229 MSHR_MERGE:          0
cpu0->LLC WRITE        ACCESS:        196 HIT:        195 MISS:          1 MSHR_MERGE:          0
cpu0->LLC TRANSLATION  ACCESS:     885595 HIT:     234746 MISS:     650849 MSHR_MERGE:          0
cpu0->LLC PREFETCH REQUESTED:          0 ISSUED:          0 USEFUL:          0 USELESS:          0 LATE:          0 TOO_EARLY:          0
cpu0->LLC AVERAGE MISS LATENCY: 174.9 cycles

DRAM Statistics

Channel 0 RQ ROW_BUFFER_HIT:         67
  ROW_BUFFER_MISS:    2035838
  AVG DBUS CONGESTED CYCLE: 2.808
Channel 0 WQ ROW_BUFFER_HIT:          0
  ROW_BUFFER_MISS:          0
  FULL:          0
Channel 0 REFRESHES ISSUED:      53805

[ROI Statistics]
[System Configuration]
num_cpus 1
cpu_freq 4000
fetch_width 6
decode_width 6
dispatch_width 6
execute_width 6
lq_width 2
sq_width 2
retire_width 6
scheduler_size 128
branch_mispredict_penalty 15
rob_size 352
lq_size 128
sq_size 72
ifetch_buffer_size 64
decode_buffer_size 32
dispatch_buffer_size 32
register_file_size 288
decode_latency 1
dispatch_latency 1
schedule_latency 1
execute_latency 1
page_size 4096
block_size 64
core_0_itlb_set 16
core_0_itlb_way 4
core_0_itlb_rq_size 16
core_0_itlb_wq_size 16
core_0_itlb_pq_size 0
core_0_itlb_mshr_size 8
core_0_itlb_hit_latency 1
core_0_itlb_fill_latency 1
core_0_itlb_max_tag_check 2
core_0_itlb_max_fill 2
core_0_dtlb_set 16
core_0_dtlb_way 4
core_0_dtlb_rq_size 16
core_0_dtlb_wq_size 16
core_0_dtlb_pq_size 0
core_0_dtlb_mshr_size 8
core_0_dtlb_hit_latency 1
core_0_dtlb_fill_latency 1
core_0_dtlb_max_tag_check 2
core_0_dtlb_max_fill 2
core_0_stlb_set 128
core_0_stlb_way 12
core_0_stlb_rq_size 32
core_0_stlb_wq_size 32
core_0_stlb_pq_size 0
core_0_stlb_mshr_size 16
core_0_stlb_hit_latency 4
core_0_stlb_fill_latency 4
core_0_stlb_max_tag_check 1
core_0_stlb_max_fill 1
core_0_l1i_set 64
core_0_l1i_way 8
core_0_l1i_rq_size 64
core_0_l1i_wq_size 64
core_0_l1i_pq_size 32
core_0_l1i_mshr_size 8
core_0_l1i_hit_latency 2
core_0_l1i_fill_latency 2
core_0_l1i_max_tag_check 2
core_0_l1i_max_fill 2
core_0_l1d_set 64
core_0_l1d_way 12
core_0_l1d_rq_size 64
core_0_l1d_wq_size 64
core_0_l1d_pq_size 8
core_0_l1d_mshr_size 16
core_0_l1d_hit_latency 2
core_0_l1d_fill_latency 3
core_0_l1d_max_tag_check 2
core_0_l1d_max_fill 2
core_0_l2c_set 1024
core_0_l2c_way 8
core_0_l2c_rq_size 32
core_0_l2c_wq_size 32
core_0_l2c_pq_size 16
core_0_l2c_mshr_size 32
core_0_l2c_hit_latency 5
core_0_l2c_fill_latency 5
core_0_l2c_max_tag_check 1
core_0_l2c_max_fill 1
llc_set 2048
llc_way 16
llc_rq_size 32
llc_wq_size 32
llc_pq_size 32
llc_mshr_size 64
llc_hit_latency 10
llc_fill_latency 10
llc_max_tag_check 1
llc_max_fill 1
dram_channels 1
dram_ranks 1
dram_bankgroups 8
dram_banks 4
dram_rows 65536
dram_columns 1024
dram_channel_width 8
dram_rq_size 64
dram_wq_size 64
dram_size 17179869184
core_0_itlb_prefetcher no
core_0_dtlb_prefetcher no
core_0_stlb_prefetcher no
core_0_l1i_prefetcher next_line
core_0_l1d_prefetcher vberti
core_0_l2c_prefetcher ip_stride
llc_prefetcher no
llc_replacement drrip

Core_0_instructions 100000002
Core_0_cycles 645661363
Core_0_IPC 0.15488
Core_0_branch_prediction_accuracy 76.5886
Core_0_branch_MPKI 56.2315
Core_0_average_ROB_occupancy_at_mispredict 5.56383

Core_0_ITLB_total_access 3
Core_0_ITLB_total_hit 3
Core_0_ITLB_total_miss 0
Core_0_ITLB_total_MPKI 0
Core_0_ITLB_total_miss_rate 0
Core_0_ITLB_demand_access 3
Core_0_ITLB_demand_hit 3
Core_0_ITLB_demand_miss 0
Core_0_ITLB_demand_MPKI 0
Core_0_ITLB_demand_miss_rate 0
Core_0_ITLB_load_access 3
Core_0_ITLB_load_hit 3
Core_0_ITLB_load_miss 0
Core_0_ITLB_load_MPKI 0
Core_0_ITLB_load_miss_rate 0
Core_0_ITLB_rfo_access 0
Core_0_ITLB_rfo_hit 0
Core_0_ITLB_rfo_miss 0
Core_0_ITLB_rfo_MPKI 0
Core_0_ITLB_rfo_miss_rate 0
Core_0_ITLB_prefetch_access 0
Core_0_ITLB_prefetch_hit 0
Core_0_ITLB_prefetch_miss 0
Core_0_ITLB_prefetch_MPKI 0
Core_0_ITLB_prefetch_miss_rate 0
Core_0_ITLB_writeback_access 0
Core_0_ITLB_writeback_hit 0
Core_0_ITLB_writeback_miss 0
Core_0_ITLB_writeback_MPKI 0
Core_0_ITLB_writeback_miss_rate 0
Core_0_ITLB_prefetch_requested 0
Core_0_ITLB_prefetch_issued 0
Core_0_ITLB_prefetch_useful 0
Core_0_ITLB_prefetch_useless 0
Core_0_ITLB_prefetch_late 0
Core_0_ITLB_prefetch_fill 0
Core_0_ITLB_prefetch_too_early 0
Core_0_ITLB_prefetch_too_early_among_fill 0
Core_0_ITLB_prefetch_too_early_among_useless 0
Core_0_ITLB_prefetch_pollution_evict 0
Core_0_ITLB_prefetch_pollution_demand 0
Core_0_ITLB_prefetch_pollution_among_prefetch_fill 0
Core_0_ITLB_prefetch_accuracy 0
Core_0_ITLB_prefetch_coverage 0

Core_0_DTLB_total_access 15229459
Core_0_DTLB_total_hit 14071108
Core_0_DTLB_total_miss 1158351
Core_0_DTLB_total_MPKI 11.5835
Core_0_DTLB_total_miss_rate 0.0760599
Core_0_DTLB_demand_access 15229459
Core_0_DTLB_demand_hit 14071108
Core_0_DTLB_demand_miss 1158351
Core_0_DTLB_demand_MPKI 11.5835
Core_0_DTLB_demand_miss_rate 0.0760599
Core_0_DTLB_load_access 15229459
Core_0_DTLB_load_hit 14071108
Core_0_DTLB_load_miss 1158351
Core_0_DTLB_load_MPKI 11.5835
Core_0_DTLB_load_miss_rate 0.0760599
Core_0_DTLB_rfo_access 0
Core_0_DTLB_rfo_hit 0
Core_0_DTLB_rfo_miss 0
Core_0_DTLB_rfo_MPKI 0
Core_0_DTLB_rfo_miss_rate 0
Core_0_DTLB_prefetch_access 0
Core_0_DTLB_prefetch_hit 0
Core_0_DTLB_prefetch_miss 0
Core_0_DTLB_prefetch_MPKI 0
Core_0_DTLB_prefetch_miss_rate 0
Core_0_DTLB_writeback_access 0
Core_0_DTLB_writeback_hit 0
Core_0_DTLB_writeback_miss 0
Core_0_DTLB_writeback_MPKI 0
Core_0_DTLB_writeback_miss_rate 0
Core_0_DTLB_prefetch_requested 0
Core_0_DTLB_prefetch_issued 0
Core_0_DTLB_prefetch_useful 0
Core_0_DTLB_prefetch_useless 0
Core_0_DTLB_prefetch_late 0
Core_0_DTLB_prefetch_fill 0
Core_0_DTLB_prefetch_too_early 0
Core_0_DTLB_prefetch_too_early_among_fill 0
Core_0_DTLB_prefetch_too_early_among_useless 0
Core_0_DTLB_prefetch_pollution_evict 0
Core_0_DTLB_prefetch_pollution_demand 0
Core_0_DTLB_prefetch_pollution_among_prefetch_fill 0
Core_0_DTLB_prefetch_accuracy 0
Core_0_DTLB_prefetch_coverage 0

Core_0_STLB_total_access 829543
Core_0_STLB_total_hit 15539
Core_0_STLB_total_miss 814004
Core_0_STLB_total_MPKI 8.14004
Core_0_STLB_total_miss_rate 0.981268
Core_0_STLB_demand_access 829543
Core_0_STLB_demand_hit 15539
Core_0_STLB_demand_miss 814004
Core_0_STLB_demand_MPKI 8.14004
Core_0_STLB_demand_miss_rate 0.981268
Core_0_STLB_load_access 829543
Core_0_STLB_load_hit 15539
Core_0_STLB_load_miss 814004
Core_0_STLB_load_MPKI 8.14004
Core_0_STLB_load_miss_rate 0.981268
Core_0_STLB_rfo_access 0
Core_0_STLB_rfo_hit 0
Core_0_STLB_rfo_miss 0
Core_0_STLB_rfo_MPKI 0
Core_0_STLB_rfo_miss_rate 0
Core_0_STLB_prefetch_access 0
Core_0_STLB_prefetch_hit 0
Core_0_STLB_prefetch_miss 0
Core_0_STLB_prefetch_MPKI 0
Core_0_STLB_prefetch_miss_rate 0
Core_0_STLB_writeback_access 0
Core_0_STLB_writeback_hit 0
Core_0_STLB_writeback_miss 0
Core_0_STLB_writeback_MPKI 0
Core_0_STLB_writeback_miss_rate 0
Core_0_STLB_prefetch_requested 0
Core_0_STLB_prefetch_issued 0
Core_0_STLB_prefetch_useful 0
Core_0_STLB_prefetch_useless 0
Core_0_STLB_prefetch_late 0
Core_0_STLB_prefetch_fill 0
Core_0_STLB_prefetch_too_early 0
Core_0_STLB_prefetch_too_early_among_fill 0
Core_0_STLB_prefetch_too_early_among_useless 0
Core_0_STLB_prefetch_pollution_evict 0
Core_0_STLB_prefetch_pollution_demand 0
Core_0_STLB_prefetch_pollution_among_prefetch_fill 0
Core_0_STLB_prefetch_accuracy 0
Core_0_STLB_prefetch_coverage 0

Core_0_L1I_total_access 4
Core_0_L1I_total_hit 4
Core_0_L1I_total_miss 0
Core_0_L1I_total_MPKI 0
Core_0_L1I_total_miss_rate 0
Core_0_L1I_demand_access 4
Core_0_L1I_demand_hit 4
Core_0_L1I_demand_miss 0
Core_0_L1I_demand_MPKI 0
Core_0_L1I_demand_miss_rate 0
Core_0_L1I_load_access 4
Core_0_L1I_load_hit 4
Core_0_L1I_load_miss 0
Core_0_L1I_load_MPKI 0
Core_0_L1I_load_miss_rate 0
Core_0_L1I_rfo_access 0
Core_0_L1I_rfo_hit 0
Core_0_L1I_rfo_miss 0
Core_0_L1I_rfo_MPKI 0
Core_0_L1I_rfo_miss_rate 0
Core_0_L1I_prefetch_access 0
Core_0_L1I_prefetch_hit 0
Core_0_L1I_prefetch_miss 0
Core_0_L1I_prefetch_MPKI 0
Core_0_L1I_prefetch_miss_rate 0
Core_0_L1I_writeback_access 0
Core_0_L1I_writeback_hit 0
Core_0_L1I_writeback_miss 0
Core_0_L1I_writeback_MPKI 0
Core_0_L1I_writeback_miss_rate 0
Core_0_L1I_prefetch_requested 0
Core_0_L1I_prefetch_issued 0
Core_0_L1I_prefetch_useful 0
Core_0_L1I_prefetch_useless 0
Core_0_L1I_prefetch_late 0
Core_0_L1I_prefetch_fill 0
Core_0_L1I_prefetch_too_early 0
Core_0_L1I_prefetch_too_early_among_fill 0
Core_0_L1I_prefetch_too_early_among_useless 0
Core_0_L1I_prefetch_pollution_evict 0
Core_0_L1I_prefetch_pollution_demand 0
Core_0_L1I_prefetch_pollution_among_prefetch_fill 0
Core_0_L1I_prefetch_accuracy 0
Core_0_L1I_prefetch_coverage 0

Core_0_L1D_total_access 17372778
Core_0_L1D_total_hit 13102169
Core_0_L1D_total_miss 4270609
Core_0_L1D_total_MPKI 42.7061
Core_0_L1D_total_miss_rate 0.245822
Core_0_L1D_demand_access 12281573
Core_0_L1D_demand_hit 10594018
Core_0_L1D_demand_miss 1687555
Core_0_L1D_demand_MPKI 16.8755
Core_0_L1D_demand_miss_rate 0.137405
Core_0_L1D_load_access 12281573
Core_0_L1D_load_hit 10594018
Core_0_L1D_load_miss 1687555
Core_0_L1D_load_MPKI 16.8755
Core_0_L1D_load_miss_rate 0.137405
Core_0_L1D_rfo_access 0
Core_0_L1D_rfo_hit 0
Core_0_L1D_rfo_miss 0
Core_0_L1D_rfo_MPKI 0
Core_0_L1D_rfo_miss_rate 0
Core_0_L1D_prefetch_access 5090095
Core_0_L1D_prefetch_hit 2507263
Core_0_L1D_prefetch_miss 2582832
Core_0_L1D_prefetch_MPKI 25.8283
Core_0_L1D_prefetch_miss_rate 0.507423
Core_0_L1D_writeback_access 1110
Core_0_L1D_writeback_hit 888
Core_0_L1D_writeback_miss 222
Core_0_L1D_writeback_MPKI 0.00222
Core_0_L1D_writeback_miss_rate 0.2
Core_0_L1D_prefetch_requested 5974346
Core_0_L1D_prefetch_issued 5090095
Core_0_L1D_prefetch_useful 29489
Core_0_L1D_prefetch_useless 6718
Core_0_L1D_prefetch_late 897
Core_0_L1D_prefetch_fill 35319
Core_0_L1D_prefetch_too_early 817
Core_0_L1D_prefetch_too_early_among_fill 0.023132
Core_0_L1D_prefetch_too_early_among_useless 0.121614
Core_0_L1D_prefetch_pollution_evict 48
Core_0_L1D_prefetch_pollution_demand 35
Core_0_L1D_prefetch_pollution_among_prefetch_fill 0.00135904
Core_0_L1D_prefetch_accuracy 0.00579341
Core_0_L1D_prefetch_coverage 0.0171743

Core_0_L2C_total_access 3902657
Core_0_L2C_total_hit 1820376
Core_0_L2C_total_miss 2082281
Core_0_L2C_total_MPKI 20.8228
Core_0_L2C_total_miss_rate 0.533555
Core_0_L2C_demand_access 1212146
Core_0_L2C_demand_hit 79221
Core_0_L2C_demand_miss 1132925
Core_0_L2C_demand_MPKI 11.3292
Core_0_L2C_demand_miss_rate 0.934644
Core_0_L2C_load_access 1211924
Core_0_L2C_load_hit 79171
Core_0_L2C_load_miss 1132753
Core_0_L2C_load_MPKI 11.3275
Core_0_L2C_load_miss_rate 0.934673
Core_0_L2C_rfo_access 222
Core_0_L2C_rfo_hit 50
Core_0_L2C_rfo_miss 172
Core_0_L2C_rfo_MPKI 0.00172
Core_0_L2C_rfo_miss_rate 0.774775
Core_0_L2C_prefetch_access 2690288
Core_0_L2C_prefetch_hit 1740933
Core_0_L2C_prefetch_miss 949355
Core_0_L2C_prefetch_MPKI 9.49355
Core_0_L2C_prefetch_miss_rate 0.352882
Core_0_L2C_writeback_access 223
Core_0_L2C_writeback_hit 222
Core_0_L2C_writeback_miss 1
Core_0_L2C_writeback_MPKI 1e-05
Core_0_L2C_writeback_miss_rate 0.0044843
Core_0_L2C_prefetch_requested 174567
Core_0_L2C_prefetch_issued 174567
Core_0_L2C_prefetch_useful 6730
Core_0_L2C_prefetch_useless 5257
Core_0_L2C_prefetch_late 0
Core_0_L2C_prefetch_fill 253774
Core_0_L2C_prefetch_too_early 9
Core_0_L2C_prefetch_too_early_among_fill 3.54646e-05
Core_0_L2C_prefetch_too_early_among_useless 0.001712
Core_0_L2C_prefetch_pollution_evict 221
Core_0_L2C_prefetch_pollution_demand 221
Core_0_L2C_prefetch_pollution_among_prefetch_fill 0.000870854
Core_0_L2C_prefetch_accuracy 0.0385525
Core_0_L2C_prefetch_coverage 0.0059053

Core_0_LLC_total_access 1386895
Core_0_LLC_total_hit 1838
Core_0_LLC_total_miss 1385057
Core_0_LLC_total_MPKI 13.8506
Core_0_LLC_total_miss_rate 0.998675
Core_0_LLC_demand_access 1108423
Core_0_LLC_demand_hit 1596
Core_0_LLC_demand_miss 1106827
Core_0_LLC_demand_MPKI 11.0683
Core_0_LLC_demand_miss_rate 0.99856
Core_0_LLC_load_access 1108251
Core_0_LLC_load_hit 1424
Core_0_LLC_load_miss 1106827
Core_0_LLC_load_MPKI 11.0683
Core_0_LLC_load_miss_rate 0.998715
Core_0_LLC_rfo_access 172
Core_0_LLC_rfo_hit 172
Core_0_LLC_rfo_miss 0
Core_0_LLC_rfo_MPKI 0
Core_0_LLC_rfo_miss_rate 0
Core_0_LLC_prefetch_access 278276
Core_0_LLC_prefetch_hit 47
Core_0_LLC_prefetch_miss 278229
Core_0_LLC_prefetch_MPKI 2.78229
Core_0_LLC_prefetch_miss_rate 0.999831
Core_0_LLC_writeback_access 196
Core_0_LLC_writeback_hit 195
Core_0_LLC_writeback_miss 1
Core_0_LLC_writeback_MPKI 1e-05
Core_0_LLC_writeback_miss_rate 0.00510204
Core_0_LLC_prefetch_requested 0
Core_0_LLC_prefetch_issued 0
Core_0_LLC_prefetch_useful 0
Core_0_LLC_prefetch_useless 0
Core_0_LLC_prefetch_late 0
Core_0_LLC_prefetch_fill 278229
Core_0_LLC_prefetch_too_early 0
Core_0_LLC_prefetch_too_early_among_fill 0
Core_0_LLC_prefetch_too_early_among_useless 0
Core_0_LLC_prefetch_pollution_evict 240
Core_0_LLC_prefetch_pollution_demand 240
Core_0_LLC_prefetch_pollution_among_prefetch_fill 0.000862599
Core_0_LLC_prefetch_accuracy 0
Core_0_LLC_prefetch_coverage 0

[DRAM Statistics]
Channel_0_RQ_row_buffer_hit 67
Channel_0_RQ_row_buffer_miss 2035838
Channel_0_WQ_row_buffer_hit 0
Channel_0_WQ_row_buffer_miss 0
Channel_0_WQ_full 0
Channel_0_dbus_congested 286488
DRAM_total_RQ_row_buffer_hit 67
DRAM_total_RQ_row_buffer_miss 2035838
DRAM_total_WQ_row_buffer_hit 0
DRAM_total_WQ_row_buffer_miss 0
DRAM_total_WQ_full 0
DRAM_total_dbus_congested 286488
DRAM_avg_congested_cycle 2.80793

====== DRAM_RQ_TRAFFIC ========
DRAM_RQ_READ_TRAFFIC_BREAKDOWN:
data_demand_read.count = 1106827
data_demand_read.share = 54.37%

inst_demand_read.count = 0
inst_demand_read.share = 0.00%

cache_inst_prefetch.count = 0
cache_inst_prefetch.share = 0.00%

cache_data_prefetch.count = 278229
cache_data_prefetch.share = 13.67%

stlb_data_demand.count = 650200
stlb_data_demand.share = 31.94%

stlb_inst_demand.count = 0
stlb_inst_demand.share = 0.00%

stlb_l1i_pref.count = 0
stlb_l1i_pref.share = 0.00%

stlb_l1d_pref.count = 649
stlb_l1d_pref.share = 0.03%

DRAM_RQ_READ_TRAFFIC_SUMMARY:
cache_demand.count = 1106827
cache_demand.share = 54.37%

cache_prefetch.count = 278229
cache_prefetch.share = 13.67%

stlb_demand.count = 650200
stlb_demand.share = 31.94%

stlb_prefetch.count = 649
stlb_prefetch.share = 0.03%

DRAM_RQ_READ_TRAFFIC_DEBUG:
total_classified_read.count = 2035905
unclassified_read.count = 0
total_read_with_other.count = 2035905

classified_plus_unclassified_check.count = 2035905
dram_rq_read_total_observed.count = 2035905
dram_rq_read_total_observed.per_1K_instructions = 20.359

STLB_MISS_PTW_DRAM_TOUCH_BREAKDOWN:
stlb_miss_total.count = 813773

stlb_miss_touch_dram.count = 651002
stlb_miss_touch_dram.share = 80.00%

stlb_miss_no_dram_touch.count = 162771
stlb_miss_no_dram_touch.share = 20.00%

STLB_MISS_PTW_DRAM_TOUCH_DEBUG:
stlb_miss_touch_plus_no_touch.count = 813773
stlb_miss_total_check.count = 813773

======STLB miss causes ========
Core_0_STLB_miss_cause_breakdown
Core_0_STLB_cause_Demand_Data_miss 808289
Core_0_STLB_cause_Demand_Data_miss_rate 0.974379
Core_0_STLB_cause_Demand_Instruction_miss 0
Core_0_STLB_cause_Demand_Instruction_miss_rate 0
Core_0_STLB_cause_L1D_Prefetch_miss 5715
Core_0_STLB_cause_L1D_Prefetch_miss_rate 0.00688934
Core_0_STLB_cause_L1D_Prefetch_Same_Page_miss 0
Core_0_STLB_cause_L1D_Prefetch_Same_Page_miss_rate 0
Core_0_STLB_cause_L1D_Prefetch_Cross_Page_miss 5715
Core_0_STLB_cause_L1D_Prefetch_Cross_Page_miss_rate 0.00688934
Core_0_STLB_cause_L1I_Prefetch_miss 0
Core_0_STLB_cause_L1I_Prefetch_miss_rate 0
Core_0_STLB_cause_Other_miss 0
Core_0_STLB_cause_Other_miss_rate 0
Core_0_STLB_Demand_miss 808289
Core_0_STLB_Demand_miss_rate 0.974379
Core_0_STLB_L1D_Prefetch_miss 5715
Core_0_STLB_L1D_Prefetch_miss_rate 0.00688934
Core_0_STLB_Other_miss 0
Core_0_STLB_Other_miss_rate 0

========== vBerti-TLB Cross-page Flow Stats ==========

Core_0_vBerti_Requested 5974346
Core_0_vBerti_Cross_page_prefetch_in_Requested 575643
Core_0_vBerti_Same_page_prefetch_in_Requested 5398703
Core_0_vBerti_Cross_page_prefetch_of_Requested 0.0963525
Core_0_vBerti_Issued 5090095
Core_0_vBerti_InPQ_Same_page_prefetch 4664904
Core_0_vBerti_InPQ_Cross_page_prefetch 425191
Core_0_vBerti_PQ_Drop_Rate 0.148008
Core_0_vBerti_InPQ_Cross_page_prefetch_of_Requested 0.0711695
Core_0_vBerti_Cross_page_PQ_Drop_rate 0.261363
Core_0_vBerti_Cross_page_prefetch_of_Issued 0.083533
Core_0_CP_PF_PQFULL_drop 150452
Core_0_CP_PF_PQFULL_TLB_rescue_enqueued 150452
Core_0_CP_PF_PQFULL_TLB_rescue_issued 150452
Core_0_CP_PF_PQFULL_TLB_rescue_translated 150452

========= DTLB_vBerti Prefetch Stats =========
Core_0_DTLB_demand_access 12277268
Core_0_DTLB_demand_hit 11140973
Core_0_DTLB_demand_miss 1136295
Core_0_DTLB_demand_mshr_merge 312467
Core_0_DTLB_demand_fill 824317
Core_0_DTLB_demand_miss_rate 0.0925528
Core_0_DTLB_demand_mpki 11.3629
Core_0_DTLB_vberti_prefetch_access 2952191
Core_0_DTLB_vberti_prefetch_hit 2930135
Core_0_DTLB_vberti_prefetch_miss 22056
Core_0_DTLB_vberti_prefetch_mshr_merge 16341
Core_0_DTLB_vberti_prefetch_fill 5228
Core_0_DTLB_vberti_prefetch_miss_rate 0.00747106
Core_0_DTLB_vberti_prefetch_mpki 0.22056

=== DTLB_vBerti Same/Cross-page Prefetch Stats ===
Core_0_DTLB_vberti_same_page_prefetch 2592108
Core_0_DTLB_vberti_same_page_prefetch_hit 2592108
Core_0_DTLB_vberti_same_page_prefetch_miss 0
Core_0_DTLB_vberti_same_page_prefetch_mshr_merge 0
Core_0_DTLB_vberti_same_page_prefetch_fill 0
Core_0_DTLB_vberti_same_page_prefetch_miss_rate 0
Core_0_DTLB_vberti_same_page_prefetch_mpki 0
Core_0_DTLB_vberti_cross_page_prefetch 360083
Core_0_DTLB_vberti_cross_page_prefetch_hit 338027
Core_0_DTLB_vberti_cross_page_prefetch_miss 22056
Core_0_DTLB_vberti_cross_page_prefetch_mshr_merge 16341
Core_0_DTLB_vberti_cross_page_prefetch_fill 5228
Core_0_DTLB_vberti_cross_page_prefetch_miss_rate 0.0612525
Core_0_DTLB_vberti_cross_page_prefetch_mpki 0.22056
Core_0_DTLB_same_page_prefetch_miss_rate 0
Core_0_DTLB_same_page_prefetch_mpki 0
Core_0_DTLB_cross_page_prefetch_miss_rate 0.0612525
Core_0_DTLB_cross_page_prefetch_mpki 0.22056
Core_0_DTLB_cross_page_prefetch_issued 360083
Core_0_DTLB_cross_page_prefetch_lookups 360083
Core_0_DTLB_cross_page_prefetch_useful 2066
Core_0_DTLB_cross_page_prefetch_useless 3649
Core_0_DTLB_cross_page_prefetch_late 487
Core_0_DTLB_cross_page_prefetch_too_early 21
Core_0_DTLB_cross_page_prefetch_too_early_among_fill 0.00401683
Core_0_DTLB_cross_page_prefetch_too_early_among_useless 0.005755
Core_0_DTLB_cross_page_prefetch_pollution_evict 139
Core_0_DTLB_cross_page_prefetch_pollution_demand 136
Core_0_DTLB_cross_page_prefetch_pollution_among_prefetch_fill 0.0265876
Core_0_DTLB_cross_page_prefetch_accuracy 0.00573757
Core_0_DTLB_cross_page_prefetch_coverage 0.00181489

========= STLB_vBerti Prefetch Stats =========
Core_0_STLB_demand_access 823828
Core_0_STLB_demand_hit 15539
Core_0_STLB_demand_miss 808289
Core_0_STLB_demand_mshr_merge 0
Core_0_STLB_demand_fill 808291
Core_0_STLB_demand_miss_rate 0.981138
Core_0_STLB_demand_mpki 8.08289
Core_0_STLB_vberti_prefetch_access 5715
Core_0_STLB_vberti_prefetch_hit 0
Core_0_STLB_vberti_prefetch_miss 5715
Core_0_STLB_vberti_prefetch_mshr_merge 0
Core_0_STLB_vberti_prefetch_fill 0
Core_0_STLB_vberti_prefetch_miss_rate 1
Core_0_STLB_vberti_prefetch_mpki 0.05715

=== STLB_vBerti Same/Cross-page Prefetch Stats ===
Core_0_STLB_vberti_same_page_prefetch 0
Core_0_STLB_vberti_same_page_prefetch_hit 0
Core_0_STLB_vberti_same_page_prefetch_miss 0
Core_0_STLB_vberti_same_page_prefetch_mshr_merge 0
Core_0_STLB_vberti_same_page_prefetch_fill 0
Core_0_STLB_vberti_same_page_prefetch_miss_rate 0
Core_0_STLB_vberti_same_page_prefetch_mpki 0
Core_0_STLB_vberti_cross_page_prefetch 5715
Core_0_STLB_vberti_cross_page_prefetch_hit 0
Core_0_STLB_vberti_cross_page_prefetch_miss 5715
Core_0_STLB_vberti_cross_page_prefetch_mshr_merge 0
Core_0_STLB_vberti_cross_page_prefetch_fill 0
Core_0_STLB_vberti_cross_page_prefetch_miss_rate 1
Core_0_STLB_vberti_cross_page_prefetch_mpki 0.05715
Core_0_STLB_same_page_prefetch_miss_rate 0
Core_0_STLB_same_page_prefetch_mpki 0
Core_0_STLB_cross_page_prefetch_miss_rate 1
Core_0_STLB_cross_page_prefetch_mpki 0.05715
Core_0_STLB_cross_page_prefetch_issued 5715
Core_0_STLB_cross_page_prefetch_lookups 5715
Core_0_STLB_cross_page_prefetch_useful 231
Core_0_STLB_cross_page_prefetch_useless 4050
Core_0_STLB_cross_page_prefetch_late 231
Core_0_STLB_cross_page_prefetch_too_early 0
Core_0_STLB_cross_page_prefetch_too_early_among_fill 0
Core_0_STLB_cross_page_prefetch_too_early_among_useless 0
Core_0_STLB_cross_page_prefetch_pollution_evict 0
Core_0_STLB_cross_page_prefetch_pollution_demand 0
Core_0_STLB_cross_page_prefetch_pollution_among_prefetch_fill 0
Core_0_STLB_cross_page_prefetch_accuracy 0.0404199
Core_0_STLB_cross_page_prefetch_coverage 0.000285707

========= STLB Cross-page Prefetch Buffer Stats =========
Core_0_STLB_raw_demand_miss 808289
Core_0_CP_PB_insert 5715
Core_0_CP_PB_demand_hit 231
Core_0_STLB_PB_demand_miss 808058
Core_0_CP_PB_coverage 0.000285789
Core_0_STLB_raw_demand_mpki 8.08289
Core_0_STLB_PB_demand_mpki 8.08058
Core_0_CP_PB_demand_hit_mpki 0.00231

Core_0_TLB_demand_miss_rate 0.0658362
Core_0_TLB_demand_mpki 8.08289
Core_0_TLB_same_page_prefetch_miss_rate 0
Core_0_TLB_same_page_prefetch_mpki 0
Core_0_TLB_cross_page_prefetch_miss_rate 0.0158713
Core_0_TLB_cross_page_prefetch_mpki 0.05715
Core_0_TLB_cross_page_prefetch_issued 360083
Core_0_TLB_cross_page_prefetch_lookups 360083
Core_0_TLB_cross_page_prefetch_useful 2064
Core_0_TLB_cross_page_prefetch_useless 3649
Core_0_TLB_cross_page_prefetch_late 487
Core_0_TLB_cross_page_prefetch_too_early 21
Core_0_TLB_cross_page_prefetch_too_early_among_fill 0.00401683
Core_0_TLB_cross_page_prefetch_too_early_among_useless 0.005755
Core_0_TLB_cross_page_prefetch_accuracy 0.00573201
Core_0_TLB_cross_page_prefetch_coverage 0.00254704
BERTI TO_L1: 2657445 TO_L2: 6101851 TO_L2_BC_MSHR: 0
BERTI AVG_LAT: 124.634 NUM_TRACK_LATENCY: 1870608 NUM_CANT_TRACK_LATENCY: 0
BERTI CROSS_PAGE 837151 NO_CROSS_PAGE: 7922145
BERTI FOUND_BERTI: 16768956 NO_FOUND_BERTI: 40280
BERTI AVERAGE_ISSUED: 2.36062
