[VMEM] WARNING: physical memory size is smaller than virtual memory size.

*** ChampSim Multicore Out-of-Order Simulator ***
Warmup Instructions: 50000000
Simulation Instructions: 100000000
Number of CPUs: 1
Page size: 4096
Core 0: /data2/zcq/champsim_traces_gap/tc.urand-825B.champsimtrace.xz
VBerti Prefetcher
BERTI HASH ENTANGLING
BERTI IP MASK ffff
Off-chip DRAM Size: 16 GiB Channels: 1 Width: 64-bit Data Rate: 3205 MT/s
Warmup halting CPU 0 at instruction 50000000 cycle 38715532 for remainder of phase
Warmup finished CPU 0 instructions: 50000000 cycles: 38715532 cumulative IPC: 1.291 (Simulation time: 00 hr 07 min 07 sec)
Warmup complete CPU 0 instructions: 50000000 cycles: 38715532 cumulative IPC: 1.291 (Simulation time: 00 hr 07 min 07 sec)
Simulation finished CPU 0 instructions: 100000003 cycles: 1349117234 cumulative IPC: 0.07412 (Simulation time: 01 hr 29 min 28 sec)
Simulation complete CPU 0 instructions: 100000003 cycles: 1349117234 cumulative IPC: 0.07412 (Simulation time: 01 hr 29 min 28 sec)

ChampSim completed all CPUs

=== Simulation ===
CPU 0 runs /data2/zcq/champsim_traces_gap/tc.urand-825B.champsimtrace.xz

Region of Interest Statistics

CPU 0 cumulative IPC: 0.07412 instructions: 100000003 cycles: 1349117234
CPU 0 Branch Prediction Accuracy: 81.64% MPKI: 42.96 Average ROB Occupancy at Mispredict: 7.511
Branch type MPKI
BRANCH_DIRECT_JUMP: 0
BRANCH_INDIRECT: 0
BRANCH_CONDITIONAL: 42.96
BRANCH_DIRECT_CALL: 0
BRANCH_INDIRECT_CALL: 0
BRANCH_RETURN: 0

cpu0->cpu0_STLB TOTAL        ACCESS:    3971854 HIT:      80423 MISS:    3891431 MSHR_MERGE:          0
cpu0->cpu0_STLB LOAD         ACCESS:    3971854 HIT:      80423 MISS:    3891431 MSHR_MERGE:          0
cpu0->cpu0_STLB RFO          ACCESS:          0 HIT:          0 MISS:          0 MSHR_MERGE:          0
cpu0->cpu0_STLB PREFETCH     ACCESS:          0 HIT:          0 MISS:          0 MSHR_MERGE:          0
cpu0->cpu0_STLB WRITE        ACCESS:          0 HIT:          0 MISS:          0 MSHR_MERGE:          0
cpu0->cpu0_STLB TRANSLATION  ACCESS:          0 HIT:          0 MISS:          0 MSHR_MERGE:          0
cpu0->cpu0_STLB PREFETCH REQUESTED:          0 ISSUED:          0 USEFUL:          0 USELESS:          0 LATE:          0 TOO_EARLY:          0
cpu0->cpu0_STLB AVERAGE MISS LATENCY: 106 cycles
cpu0->cpu0_L2C TOTAL        ACCESS:   13647537 HIT:    4960552 MISS:    8686985 MSHR_MERGE:      89750
cpu0->cpu0_L2C LOAD         ACCESS:    4711530 HIT:     292996 MISS:    4418534 MSHR_MERGE:        225
cpu0->cpu0_L2C RFO          ACCESS:       7601 HIT:       7601 MISS:          0 MSHR_MERGE:          0
cpu0->cpu0_L2C PREFETCH     ACCESS:    4472978 HIT:    3381822 MISS:    1091156 MSHR_MERGE:      89525
cpu0->cpu0_L2C WRITE        ACCESS:       7796 HIT:       7796 MISS:          0 MSHR_MERGE:          0
cpu0->cpu0_L2C TRANSLATION  ACCESS:    4447632 HIT:    1270337 MISS:    3177295 MSHR_MERGE:          0
cpu0->cpu0_L2C PREFETCH REQUESTED:    1044445 ISSUED:    1044445 USEFUL:     345429 USELESS:      13581 LATE:         28 TOO_EARLY:          8
cpu0->cpu0_L2C AVERAGE MISS LATENCY: 156.2 cycles
cpu0->cpu0_L1I TOTAL        ACCESS:          7 HIT:          7 MISS:          0 MSHR_MERGE:          0
cpu0->cpu0_L1I LOAD         ACCESS:          7 HIT:          7 MISS:          0 MSHR_MERGE:          0
cpu0->cpu0_L1I RFO          ACCESS:          0 HIT:          0 MISS:          0 MSHR_MERGE:          0
cpu0->cpu0_L1I PREFETCH     ACCESS:          0 HIT:          0 MISS:          0 MSHR_MERGE:          0
cpu0->cpu0_L1I WRITE        ACCESS:          0 HIT:          0 MISS:          0 MSHR_MERGE:          0
cpu0->cpu0_L1I TRANSLATION  ACCESS:          0 HIT:          0 MISS:          0 MSHR_MERGE:          0
cpu0->cpu0_L1I PREFETCH REQUESTED:          0 ISSUED:          0 USEFUL:          0 USELESS:          0 LATE:          0 TOO_EARLY:          0
cpu0->cpu0_L1I AVERAGE MISS LATENCY: - cycles
cpu0->cpu0_L1D TOTAL        ACCESS:   32663089 HIT:   18894532 MISS:   13768557 MSHR_MERGE:    1167938
cpu0->cpu0_L1D LOAD         ACCESS:   13979516 HIT:    8101647 MISS:    5877869 MSHR_MERGE:    1166339
cpu0->cpu0_L1D RFO          ACCESS:          0 HIT:          0 MISS:          0 MSHR_MERGE:          0
cpu0->cpu0_L1D PREFETCH     ACCESS:    7513891 HIT:    4079789 MISS:    3434102 MSHR_MERGE:        246
cpu0->cpu0_L1D WRITE        ACCESS:      38575 HIT:      30974 MISS:       7601 MSHR_MERGE:          0
cpu0->cpu0_L1D TRANSLATION  ACCESS:   11131107 HIT:    6682122 MISS:    4448985 MSHR_MERGE:       1353
cpu0->cpu0_L1D PREFETCH REQUESTED:    8468979 ISSUED:    7513883 USEFUL:     419952 USELESS:     125267 LATE:        175 TOO_EARLY:         30
cpu0->cpu0_L1D AVERAGE MISS LATENCY: 138.3 cycles
cpu0->cpu0_ITLB TOTAL        ACCESS:          6 HIT:          6 MISS:          0 MSHR_MERGE:          0
cpu0->cpu0_ITLB LOAD         ACCESS:          6 HIT:          6 MISS:          0 MSHR_MERGE:          0
cpu0->cpu0_ITLB RFO          ACCESS:          0 HIT:          0 MISS:          0 MSHR_MERGE:          0
cpu0->cpu0_ITLB PREFETCH     ACCESS:          0 HIT:          0 MISS:          0 MSHR_MERGE:          0
cpu0->cpu0_ITLB WRITE        ACCESS:          0 HIT:          0 MISS:          0 MSHR_MERGE:          0
cpu0->cpu0_ITLB TRANSLATION  ACCESS:          0 HIT:          0 MISS:          0 MSHR_MERGE:          0
cpu0->cpu0_ITLB PREFETCH REQUESTED:          0 ISSUED:          0 USEFUL:          0 USELESS:          0 LATE:          0 TOO_EARLY:          0
cpu0->cpu0_ITLB AVERAGE MISS LATENCY: - cycles
cpu0->cpu0_DTLB TOTAL        ACCESS:   18852739 HIT:   13528682 MISS:    5324057 MSHR_MERGE:    1352203
cpu0->cpu0_DTLB LOAD         ACCESS:   18852739 HIT:   13528682 MISS:    5324057 MSHR_MERGE:    1352203
cpu0->cpu0_DTLB RFO          ACCESS:          0 HIT:          0 MISS:          0 MSHR_MERGE:          0
cpu0->cpu0_DTLB PREFETCH     ACCESS:          0 HIT:          0 MISS:          0 MSHR_MERGE:          0
cpu0->cpu0_DTLB WRITE        ACCESS:          0 HIT:          0 MISS:          0 MSHR_MERGE:          0
cpu0->cpu0_DTLB TRANSLATION  ACCESS:          0 HIT:          0 MISS:          0 MSHR_MERGE:          0
cpu0->cpu0_DTLB PREFETCH REQUESTED:          0 ISSUED:          0 USEFUL:          0 USELESS:          0 LATE:          0 TOO_EARLY:          0
cpu0->cpu0_DTLB AVERAGE MISS LATENCY: 109.5 cycles
cpu0->LLC TOTAL        ACCESS:    8597237 HIT:    1815755 MISS:    6781482 MSHR_MERGE:          0
cpu0->LLC LOAD         ACCESS:    4418309 HIT:       3979 MISS:    4414330 MSHR_MERGE:          0
cpu0->LLC RFO          ACCESS:          0 HIT:          0 MISS:          0 MSHR_MERGE:          0
cpu0->LLC PREFETCH     ACCESS:    1001631 HIT:          0 MISS:    1001631 MSHR_MERGE:          0
cpu0->LLC WRITE        ACCESS:          2 HIT:          0 MISS:          2 MSHR_MERGE:          0
cpu0->LLC TRANSLATION  ACCESS:    3177295 HIT:    1811776 MISS:    1365519 MSHR_MERGE:          0
cpu0->LLC PREFETCH REQUESTED:          0 ISSUED:          0 USEFUL:          0 USELESS:          0 LATE:          0 TOO_EARLY:          0
cpu0->LLC AVERAGE MISS LATENCY: 184.5 cycles

DRAM Statistics

Channel 0 RQ ROW_BUFFER_HIT:        311
  ROW_BUFFER_MISS:    6781170
  AVG DBUS CONGESTED CYCLE: 2.886
Channel 0 WQ ROW_BUFFER_HIT:          0
  ROW_BUFFER_MISS:          1
  FULL:          0
Channel 0 REFRESHES ISSUED:     112426

[ROI Statistics]
[System Configuration]
num_cpus 1
cpu_freq 4000
fetch_width 6
decode_width 6
dispatch_width 6
execute_width 6
lq_width 2
sq_width 2
retire_width 6
scheduler_size 128
branch_mispredict_penalty 15
rob_size 352
lq_size 128
sq_size 72
ifetch_buffer_size 64
decode_buffer_size 32
dispatch_buffer_size 32
register_file_size 288
decode_latency 1
dispatch_latency 1
schedule_latency 1
execute_latency 1
page_size 4096
block_size 64
core_0_itlb_set 16
core_0_itlb_way 4
core_0_itlb_rq_size 16
core_0_itlb_wq_size 16
core_0_itlb_pq_size 0
core_0_itlb_mshr_size 8
core_0_itlb_hit_latency 1
core_0_itlb_fill_latency 1
core_0_itlb_max_tag_check 2
core_0_itlb_max_fill 2
core_0_dtlb_set 16
core_0_dtlb_way 4
core_0_dtlb_rq_size 16
core_0_dtlb_wq_size 16
core_0_dtlb_pq_size 0
core_0_dtlb_mshr_size 8
core_0_dtlb_hit_latency 1
core_0_dtlb_fill_latency 1
core_0_dtlb_max_tag_check 2
core_0_dtlb_max_fill 2
core_0_stlb_set 128
core_0_stlb_way 12
core_0_stlb_rq_size 32
core_0_stlb_wq_size 32
core_0_stlb_pq_size 0
core_0_stlb_mshr_size 16
core_0_stlb_hit_latency 4
core_0_stlb_fill_latency 4
core_0_stlb_max_tag_check 1
core_0_stlb_max_fill 1
core_0_l1i_set 64
core_0_l1i_way 8
core_0_l1i_rq_size 64
core_0_l1i_wq_size 64
core_0_l1i_pq_size 32
core_0_l1i_mshr_size 8
core_0_l1i_hit_latency 2
core_0_l1i_fill_latency 2
core_0_l1i_max_tag_check 2
core_0_l1i_max_fill 2
core_0_l1d_set 64
core_0_l1d_way 12
core_0_l1d_rq_size 64
core_0_l1d_wq_size 64
core_0_l1d_pq_size 8
core_0_l1d_mshr_size 16
core_0_l1d_hit_latency 2
core_0_l1d_fill_latency 3
core_0_l1d_max_tag_check 2
core_0_l1d_max_fill 2
core_0_l2c_set 1024
core_0_l2c_way 8
core_0_l2c_rq_size 32
core_0_l2c_wq_size 32
core_0_l2c_pq_size 16
core_0_l2c_mshr_size 32
core_0_l2c_hit_latency 5
core_0_l2c_fill_latency 5
core_0_l2c_max_tag_check 1
core_0_l2c_max_fill 1
llc_set 2048
llc_way 16
llc_rq_size 32
llc_wq_size 32
llc_pq_size 32
llc_mshr_size 64
llc_hit_latency 10
llc_fill_latency 10
llc_max_tag_check 1
llc_max_fill 1
dram_channels 1
dram_ranks 1
dram_bankgroups 8
dram_banks 4
dram_rows 65536
dram_columns 1024
dram_channel_width 8
dram_rq_size 64
dram_wq_size 64
dram_size 17179869184
core_0_itlb_prefetcher no
core_0_dtlb_prefetcher no
core_0_stlb_prefetcher no
core_0_l1i_prefetcher next_line
core_0_l1d_prefetcher vberti
core_0_l2c_prefetcher ip_stride
llc_prefetcher no
llc_replacement drrip

Core_0_instructions 100000003
Core_0_cycles 1349117234
Core_0_IPC 0.0741225
Core_0_branch_prediction_accuracy 81.6392
Core_0_branch_MPKI 42.956
Core_0_average_ROB_occupancy_at_mispredict 7.51102

Core_0_ITLB_total_access 6
Core_0_ITLB_total_hit 6
Core_0_ITLB_total_miss 0
Core_0_ITLB_total_MPKI 0
Core_0_ITLB_total_miss_rate 0
Core_0_ITLB_demand_access 6
Core_0_ITLB_demand_hit 6
Core_0_ITLB_demand_miss 0
Core_0_ITLB_demand_MPKI 0
Core_0_ITLB_demand_miss_rate 0
Core_0_ITLB_load_access 6
Core_0_ITLB_load_hit 6
Core_0_ITLB_load_miss 0
Core_0_ITLB_load_MPKI 0
Core_0_ITLB_load_miss_rate 0
Core_0_ITLB_rfo_access 0
Core_0_ITLB_rfo_hit 0
Core_0_ITLB_rfo_miss 0
Core_0_ITLB_rfo_MPKI 0
Core_0_ITLB_rfo_miss_rate 0
Core_0_ITLB_prefetch_access 0
Core_0_ITLB_prefetch_hit 0
Core_0_ITLB_prefetch_miss 0
Core_0_ITLB_prefetch_MPKI 0
Core_0_ITLB_prefetch_miss_rate 0
Core_0_ITLB_writeback_access 0
Core_0_ITLB_writeback_hit 0
Core_0_ITLB_writeback_miss 0
Core_0_ITLB_writeback_MPKI 0
Core_0_ITLB_writeback_miss_rate 0
Core_0_ITLB_prefetch_requested 0
Core_0_ITLB_prefetch_issued 0
Core_0_ITLB_prefetch_useful 0
Core_0_ITLB_prefetch_useless 0
Core_0_ITLB_prefetch_late 0
Core_0_ITLB_prefetch_fill 0
Core_0_ITLB_prefetch_too_early 0
Core_0_ITLB_prefetch_too_early_among_fill 0
Core_0_ITLB_prefetch_too_early_among_useless 0
Core_0_ITLB_prefetch_pollution_evict 0
Core_0_ITLB_prefetch_pollution_demand 0
Core_0_ITLB_prefetch_pollution_among_prefetch_fill 0
Core_0_ITLB_prefetch_accuracy 0
Core_0_ITLB_prefetch_coverage 0

Core_0_DTLB_total_access 18852739
Core_0_DTLB_total_hit 13528682
Core_0_DTLB_total_miss 5324057
Core_0_DTLB_total_MPKI 53.2406
Core_0_DTLB_total_miss_rate 0.282402
Core_0_DTLB_demand_access 18852739
Core_0_DTLB_demand_hit 13528682
Core_0_DTLB_demand_miss 5324057
Core_0_DTLB_demand_MPKI 53.2406
Core_0_DTLB_demand_miss_rate 0.282402
Core_0_DTLB_load_access 18852739
Core_0_DTLB_load_hit 13528682
Core_0_DTLB_load_miss 5324057
Core_0_DTLB_load_MPKI 53.2406
Core_0_DTLB_load_miss_rate 0.282402
Core_0_DTLB_rfo_access 0
Core_0_DTLB_rfo_hit 0
Core_0_DTLB_rfo_miss 0
Core_0_DTLB_rfo_MPKI 0
Core_0_DTLB_rfo_miss_rate 0
Core_0_DTLB_prefetch_access 0
Core_0_DTLB_prefetch_hit 0
Core_0_DTLB_prefetch_miss 0
Core_0_DTLB_prefetch_MPKI 0
Core_0_DTLB_prefetch_miss_rate 0
Core_0_DTLB_writeback_access 0
Core_0_DTLB_writeback_hit 0
Core_0_DTLB_writeback_miss 0
Core_0_DTLB_writeback_MPKI 0
Core_0_DTLB_writeback_miss_rate 0
Core_0_DTLB_prefetch_requested 0
Core_0_DTLB_prefetch_issued 0
Core_0_DTLB_prefetch_useful 0
Core_0_DTLB_prefetch_useless 0
Core_0_DTLB_prefetch_late 0
Core_0_DTLB_prefetch_fill 0
Core_0_DTLB_prefetch_too_early 0
Core_0_DTLB_prefetch_too_early_among_fill 0
Core_0_DTLB_prefetch_too_early_among_useless 0
Core_0_DTLB_prefetch_pollution_evict 0
Core_0_DTLB_prefetch_pollution_demand 0
Core_0_DTLB_prefetch_pollution_among_prefetch_fill 0
Core_0_DTLB_prefetch_accuracy 0
Core_0_DTLB_prefetch_coverage 0

Core_0_STLB_total_access 3971854
Core_0_STLB_total_hit 80423
Core_0_STLB_total_miss 3891431
Core_0_STLB_total_MPKI 38.9143
Core_0_STLB_total_miss_rate 0.979752
Core_0_STLB_demand_access 3971854
Core_0_STLB_demand_hit 80423
Core_0_STLB_demand_miss 3891431
Core_0_STLB_demand_MPKI 38.9143
Core_0_STLB_demand_miss_rate 0.979752
Core_0_STLB_load_access 3971854
Core_0_STLB_load_hit 80423
Core_0_STLB_load_miss 3891431
Core_0_STLB_load_MPKI 38.9143
Core_0_STLB_load_miss_rate 0.979752
Core_0_STLB_rfo_access 0
Core_0_STLB_rfo_hit 0
Core_0_STLB_rfo_miss 0
Core_0_STLB_rfo_MPKI 0
Core_0_STLB_rfo_miss_rate 0
Core_0_STLB_prefetch_access 0
Core_0_STLB_prefetch_hit 0
Core_0_STLB_prefetch_miss 0
Core_0_STLB_prefetch_MPKI 0
Core_0_STLB_prefetch_miss_rate 0
Core_0_STLB_writeback_access 0
Core_0_STLB_writeback_hit 0
Core_0_STLB_writeback_miss 0
Core_0_STLB_writeback_MPKI 0
Core_0_STLB_writeback_miss_rate 0
Core_0_STLB_prefetch_requested 0
Core_0_STLB_prefetch_issued 0
Core_0_STLB_prefetch_useful 0
Core_0_STLB_prefetch_useless 0
Core_0_STLB_prefetch_late 0
Core_0_STLB_prefetch_fill 0
Core_0_STLB_prefetch_too_early 0
Core_0_STLB_prefetch_too_early_among_fill 0
Core_0_STLB_prefetch_too_early_among_useless 0
Core_0_STLB_prefetch_pollution_evict 0
Core_0_STLB_prefetch_pollution_demand 0
Core_0_STLB_prefetch_pollution_among_prefetch_fill 0
Core_0_STLB_prefetch_accuracy 0
Core_0_STLB_prefetch_coverage 0

Core_0_L1I_total_access 7
Core_0_L1I_total_hit 7
Core_0_L1I_total_miss 0
Core_0_L1I_total_MPKI 0
Core_0_L1I_total_miss_rate 0
Core_0_L1I_demand_access 7
Core_0_L1I_demand_hit 7
Core_0_L1I_demand_miss 0
Core_0_L1I_demand_MPKI 0
Core_0_L1I_demand_miss_rate 0
Core_0_L1I_load_access 7
Core_0_L1I_load_hit 7
Core_0_L1I_load_miss 0
Core_0_L1I_load_MPKI 0
Core_0_L1I_load_miss_rate 0
Core_0_L1I_rfo_access 0
Core_0_L1I_rfo_hit 0
Core_0_L1I_rfo_miss 0
Core_0_L1I_rfo_MPKI 0
Core_0_L1I_rfo_miss_rate 0
Core_0_L1I_prefetch_access 0
Core_0_L1I_prefetch_hit 0
Core_0_L1I_prefetch_miss 0
Core_0_L1I_prefetch_MPKI 0
Core_0_L1I_prefetch_miss_rate 0
Core_0_L1I_writeback_access 0
Core_0_L1I_writeback_hit 0
Core_0_L1I_writeback_miss 0
Core_0_L1I_writeback_MPKI 0
Core_0_L1I_writeback_miss_rate 0
Core_0_L1I_prefetch_requested 0
Core_0_L1I_prefetch_issued 0
Core_0_L1I_prefetch_useful 0
Core_0_L1I_prefetch_useless 0
Core_0_L1I_prefetch_late 0
Core_0_L1I_prefetch_fill 0
Core_0_L1I_prefetch_too_early 0
Core_0_L1I_prefetch_too_early_among_fill 0
Core_0_L1I_prefetch_too_early_among_useless 0
Core_0_L1I_prefetch_pollution_evict 0
Core_0_L1I_prefetch_pollution_demand 0
Core_0_L1I_prefetch_pollution_among_prefetch_fill 0
Core_0_L1I_prefetch_accuracy 0
Core_0_L1I_prefetch_coverage 0

Core_0_L1D_total_access 21531982
Core_0_L1D_total_hit 12212410
Core_0_L1D_total_miss 9319572
Core_0_L1D_total_MPKI 93.1957
Core_0_L1D_total_miss_rate 0.432825
Core_0_L1D_demand_access 13979516
Core_0_L1D_demand_hit 8101647
Core_0_L1D_demand_miss 5877869
Core_0_L1D_demand_MPKI 58.7787
Core_0_L1D_demand_miss_rate 0.420463
Core_0_L1D_load_access 13979516
Core_0_L1D_load_hit 8101647
Core_0_L1D_load_miss 5877869
Core_0_L1D_load_MPKI 58.7787
Core_0_L1D_load_miss_rate 0.420463
Core_0_L1D_rfo_access 0
Core_0_L1D_rfo_hit 0
Core_0_L1D_rfo_miss 0
Core_0_L1D_rfo_MPKI 0
Core_0_L1D_rfo_miss_rate 0
Core_0_L1D_prefetch_access 7513891
Core_0_L1D_prefetch_hit 4079789
Core_0_L1D_prefetch_miss 3434102
Core_0_L1D_prefetch_MPKI 34.341
Core_0_L1D_prefetch_miss_rate 0.457034
Core_0_L1D_writeback_access 38575
Core_0_L1D_writeback_hit 30974
Core_0_L1D_writeback_miss 7601
Core_0_L1D_writeback_MPKI 0.07601
Core_0_L1D_writeback_miss_rate 0.197045
Core_0_L1D_prefetch_requested 8468979
Core_0_L1D_prefetch_issued 7513883
Core_0_L1D_prefetch_useful 419952
Core_0_L1D_prefetch_useless 125267
Core_0_L1D_prefetch_late 175
Core_0_L1D_prefetch_fill 545061
Core_0_L1D_prefetch_too_early 30
Core_0_L1D_prefetch_too_early_among_fill 5.50397e-05
Core_0_L1D_prefetch_too_early_among_useless 0.000239488
Core_0_L1D_prefetch_pollution_evict 3533
Core_0_L1D_prefetch_pollution_demand 3533
Core_0_L1D_prefetch_pollution_among_prefetch_fill 0.00648184
Core_0_L1D_prefetch_accuracy 0.0558901
Core_0_L1D_prefetch_coverage 0.0666821

Core_0_L2C_total_access 9199905
Core_0_L2C_total_hit 3690215
Core_0_L2C_total_miss 5509690
Core_0_L2C_total_MPKI 55.0969
Core_0_L2C_total_miss_rate 0.598886
Core_0_L2C_demand_access 4719131
Core_0_L2C_demand_hit 300597
Core_0_L2C_demand_miss 4418534
Core_0_L2C_demand_MPKI 44.1853
Core_0_L2C_demand_miss_rate 0.936302
Core_0_L2C_load_access 4711530
Core_0_L2C_load_hit 292996
Core_0_L2C_load_miss 4418534
Core_0_L2C_load_MPKI 44.1853
Core_0_L2C_load_miss_rate 0.937813
Core_0_L2C_rfo_access 7601
Core_0_L2C_rfo_hit 7601
Core_0_L2C_rfo_miss 0
Core_0_L2C_rfo_MPKI 0
Core_0_L2C_rfo_miss_rate 0
Core_0_L2C_prefetch_access 4472978
Core_0_L2C_prefetch_hit 3381822
Core_0_L2C_prefetch_miss 1091156
Core_0_L2C_prefetch_MPKI 10.9116
Core_0_L2C_prefetch_miss_rate 0.243944
Core_0_L2C_writeback_access 7796
Core_0_L2C_writeback_hit 7796
Core_0_L2C_writeback_miss 0
Core_0_L2C_writeback_MPKI 0
Core_0_L2C_writeback_miss_rate 0
Core_0_L2C_prefetch_requested 1044445
Core_0_L2C_prefetch_issued 1044445
Core_0_L2C_prefetch_useful 345429
Core_0_L2C_prefetch_useless 13581
Core_0_L2C_prefetch_late 28
Core_0_L2C_prefetch_fill 1001407
Core_0_L2C_prefetch_too_early 8
Core_0_L2C_prefetch_too_early_among_fill 7.98876e-06
Core_0_L2C_prefetch_too_early_among_useless 0.000589058
Core_0_L2C_prefetch_pollution_evict 2510
Core_0_L2C_prefetch_pollution_demand 2510
Core_0_L2C_prefetch_pollution_among_prefetch_fill 0.00250647
Core_0_L2C_prefetch_accuracy 0.33073
Core_0_L2C_prefetch_coverage 0.0725087

Core_0_LLC_total_access 5419942
Core_0_LLC_total_hit 3979
Core_0_LLC_total_miss 5415963
Core_0_LLC_total_MPKI 54.1596
Core_0_LLC_total_miss_rate 0.999266
Core_0_LLC_demand_access 4418309
Core_0_LLC_demand_hit 3979
Core_0_LLC_demand_miss 4414330
Core_0_LLC_demand_MPKI 44.1433
Core_0_LLC_demand_miss_rate 0.999099
Core_0_LLC_load_access 4418309
Core_0_LLC_load_hit 3979
Core_0_LLC_load_miss 4414330
Core_0_LLC_load_MPKI 44.1433
Core_0_LLC_load_miss_rate 0.999099
Core_0_LLC_rfo_access 0
Core_0_LLC_rfo_hit 0
Core_0_LLC_rfo_miss 0
Core_0_LLC_rfo_MPKI 0
Core_0_LLC_rfo_miss_rate 0
Core_0_LLC_prefetch_access 1001631
Core_0_LLC_prefetch_hit 0
Core_0_LLC_prefetch_miss 1001631
Core_0_LLC_prefetch_MPKI 10.0163
Core_0_LLC_prefetch_miss_rate 1
Core_0_LLC_writeback_access 2
Core_0_LLC_writeback_hit 0
Core_0_LLC_writeback_miss 2
Core_0_LLC_writeback_MPKI 2e-05
Core_0_LLC_writeback_miss_rate 1
Core_0_LLC_prefetch_requested 0
Core_0_LLC_prefetch_issued 0
Core_0_LLC_prefetch_useful 0
Core_0_LLC_prefetch_useless 0
Core_0_LLC_prefetch_late 0
Core_0_LLC_prefetch_fill 1001632
Core_0_LLC_prefetch_too_early 0
Core_0_LLC_prefetch_too_early_among_fill 0
Core_0_LLC_prefetch_too_early_among_useless 0
Core_0_LLC_prefetch_pollution_evict 12506
Core_0_LLC_prefetch_pollution_demand 12506
Core_0_LLC_prefetch_pollution_among_prefetch_fill 0.0124856
Core_0_LLC_prefetch_accuracy 0
Core_0_LLC_prefetch_coverage 0

[DRAM Statistics]
Channel_0_RQ_row_buffer_hit 311
Channel_0_RQ_row_buffer_miss 6781170
Channel_0_WQ_row_buffer_hit 0
Channel_0_WQ_row_buffer_miss 1
Channel_0_WQ_full 0
Channel_0_dbus_congested 2062135
DRAM_total_RQ_row_buffer_hit 311
DRAM_total_RQ_row_buffer_miss 6781170
DRAM_total_WQ_row_buffer_hit 0
DRAM_total_WQ_row_buffer_miss 1
DRAM_total_WQ_full 0
DRAM_total_dbus_congested 2062135
DRAM_avg_congested_cycle 2.88578

====== DRAM_RQ_TRAFFIC ========
DRAM_RQ_READ_TRAFFIC_BREAKDOWN:
data_demand_read.count = 4414330
data_demand_read.share = 65.09%

inst_demand_read.count = 0
inst_demand_read.share = 0.00%

cache_inst_prefetch.count = 0
cache_inst_prefetch.share = 0.00%

cache_data_prefetch.count = 1001632
cache_data_prefetch.share = 14.77%

stlb_data_demand.count = 1363081
stlb_data_demand.share = 20.10%

stlb_inst_demand.count = 0
stlb_inst_demand.share = 0.00%

stlb_l1i_pref.count = 0
stlb_l1i_pref.share = 0.00%

stlb_l1d_pref.count = 2438
stlb_l1d_pref.share = 0.04%

DRAM_RQ_READ_TRAFFIC_SUMMARY:
cache_demand.count = 4414330
cache_demand.share = 65.09%

cache_prefetch.count = 1001632
cache_prefetch.share = 14.77%

stlb_demand.count = 1363081
stlb_demand.share = 20.10%

stlb_prefetch.count = 2438
stlb_prefetch.share = 0.04%

DRAM_RQ_READ_TRAFFIC_DEBUG:
total_classified_read.count = 6781481
unclassified_read.count = 0
total_read_with_other.count = 6781481

classified_plus_unclassified_check.count = 6781481
dram_rq_read_total_observed.count = 6781481
dram_rq_read_total_observed.per_1K_instructions = 67.8148

STLB_MISS_PTW_DRAM_TOUCH_BREAKDOWN:
stlb_miss_total.count = 3878947

stlb_miss_touch_dram.count = 1364555
stlb_miss_touch_dram.share = 35.18%

stlb_miss_no_dram_touch.count = 2514392
stlb_miss_no_dram_touch.share = 64.82%

STLB_MISS_PTW_DRAM_TOUCH_DEBUG:
stlb_miss_touch_plus_no_touch.count = 3878947
stlb_miss_total_check.count = 3878947

======STLB miss causes ========
Core_0_STLB_miss_cause_breakdown
Core_0_STLB_cause_Demand_Data_miss 3874316
Core_0_STLB_cause_Demand_Data_miss_rate 0.975443
Core_0_STLB_cause_Demand_Instruction_miss 0
Core_0_STLB_cause_Demand_Instruction_miss_rate 0
Core_0_STLB_cause_L1D_Prefetch_miss 17115
Core_0_STLB_cause_L1D_Prefetch_miss_rate 0.00430907
Core_0_STLB_cause_L1D_Prefetch_Same_Page_miss 0
Core_0_STLB_cause_L1D_Prefetch_Same_Page_miss_rate 0
Core_0_STLB_cause_L1D_Prefetch_Cross_Page_miss 17115
Core_0_STLB_cause_L1D_Prefetch_Cross_Page_miss_rate 0.00430907
Core_0_STLB_cause_L1I_Prefetch_miss 0
Core_0_STLB_cause_L1I_Prefetch_miss_rate 0
Core_0_STLB_cause_Other_miss 0
Core_0_STLB_cause_Other_miss_rate 0
Core_0_STLB_Demand_miss 3874316
Core_0_STLB_Demand_miss_rate 0.975443
Core_0_STLB_L1D_Prefetch_miss 17115
Core_0_STLB_L1D_Prefetch_miss_rate 0.00430907
Core_0_STLB_Other_miss 0
Core_0_STLB_Other_miss_rate 0

========== vBerti-TLB Cross-page Flow Stats ==========

Core_0_vBerti_Requested 8468979
Core_0_vBerti_Cross_page_prefetch_in_Requested 914873
Core_0_vBerti_Same_page_prefetch_in_Requested 7554106
Core_0_vBerti_Cross_page_prefetch_of_Requested 0.108026
Core_0_vBerti_Issued 7513883
Core_0_vBerti_InPQ_Same_page_prefetch 6748320
Core_0_vBerti_InPQ_Cross_page_prefetch 765563
Core_0_vBerti_PQ_Drop_Rate 0.112776
Core_0_vBerti_InPQ_Cross_page_prefetch_of_Requested 0.0903961
Core_0_vBerti_Cross_page_PQ_Drop_rate 0.163203
Core_0_vBerti_Cross_page_prefetch_of_Issued 0.101886
Core_0_CP_PF_PQFULL_drop 149310
Core_0_CP_PF_PQFULL_TLB_rescue_enqueued 149310
Core_0_CP_PF_PQFULL_TLB_rescue_issued 149310
Core_0_CP_PF_PQFULL_TLB_rescue_translated 149310

========= DTLB_vBerti Prefetch Stats =========
Core_0_DTLB_demand_access 14013874
Core_0_DTLB_demand_hit 8710351
Core_0_DTLB_demand_miss 5303523
Core_0_DTLB_demand_mshr_merge 1348784
Core_0_DTLB_demand_fill 3954747
Core_0_DTLB_demand_miss_rate 0.378448
Core_0_DTLB_demand_mpki 53.0352
Core_0_DTLB_vberti_prefetch_access 4838865
Core_0_DTLB_vberti_prefetch_hit 4818331
Core_0_DTLB_vberti_prefetch_miss 20534
Core_0_DTLB_vberti_prefetch_mshr_merge 3419
Core_0_DTLB_vberti_prefetch_fill 17115
Core_0_DTLB_vberti_prefetch_miss_rate 0.00424356
Core_0_DTLB_vberti_prefetch_mpki 0.20534

=== DTLB_vBerti Same/Cross-page Prefetch Stats ===
Core_0_DTLB_vberti_same_page_prefetch 4231403
Core_0_DTLB_vberti_same_page_prefetch_hit 4231403
Core_0_DTLB_vberti_same_page_prefetch_miss 0
Core_0_DTLB_vberti_same_page_prefetch_mshr_merge 0
Core_0_DTLB_vberti_same_page_prefetch_fill 0
Core_0_DTLB_vberti_same_page_prefetch_miss_rate 0
Core_0_DTLB_vberti_same_page_prefetch_mpki 0
Core_0_DTLB_vberti_cross_page_prefetch 607462
Core_0_DTLB_vberti_cross_page_prefetch_hit 586928
Core_0_DTLB_vberti_cross_page_prefetch_miss 20534
Core_0_DTLB_vberti_cross_page_prefetch_mshr_merge 3419
Core_0_DTLB_vberti_cross_page_prefetch_fill 17115
Core_0_DTLB_vberti_cross_page_prefetch_miss_rate 0.0338029
Core_0_DTLB_vberti_cross_page_prefetch_mpki 0.20534
Core_0_DTLB_same_page_prefetch_miss_rate 0
Core_0_DTLB_same_page_prefetch_mpki 0
Core_0_DTLB_cross_page_prefetch_miss_rate 0.0338029
Core_0_DTLB_cross_page_prefetch_mpki 0.20534
Core_0_DTLB_cross_page_prefetch_issued 607462
Core_0_DTLB_cross_page_prefetch_lookups 607462
Core_0_DTLB_cross_page_prefetch_useful 16350
Core_0_DTLB_cross_page_prefetch_useless 765
Core_0_DTLB_cross_page_prefetch_late 0
Core_0_DTLB_cross_page_prefetch_too_early 45
Core_0_DTLB_cross_page_prefetch_too_early_among_fill 0.00262927
Core_0_DTLB_cross_page_prefetch_too_early_among_useless 0.0588235
Core_0_DTLB_cross_page_prefetch_pollution_evict 1970
Core_0_DTLB_cross_page_prefetch_pollution_demand 1970
Core_0_DTLB_cross_page_prefetch_pollution_among_prefetch_fill 0.115104
Core_0_DTLB_cross_page_prefetch_accuracy 0.0269153
Core_0_DTLB_cross_page_prefetch_coverage 0.00307338

========= STLB_vBerti Prefetch Stats =========
Core_0_STLB_demand_access 3954739
Core_0_STLB_demand_hit 80423
Core_0_STLB_demand_miss 3874316
Core_0_STLB_demand_mshr_merge 0
Core_0_STLB_demand_fill 3874324
Core_0_STLB_demand_miss_rate 0.979664
Core_0_STLB_demand_mpki 38.7432
Core_0_STLB_vberti_prefetch_access 17115
Core_0_STLB_vberti_prefetch_hit 0
Core_0_STLB_vberti_prefetch_miss 17115
Core_0_STLB_vberti_prefetch_mshr_merge 0
Core_0_STLB_vberti_prefetch_fill 0
Core_0_STLB_vberti_prefetch_miss_rate 1
Core_0_STLB_vberti_prefetch_mpki 0.17115

=== STLB_vBerti Same/Cross-page Prefetch Stats ===
Core_0_STLB_vberti_same_page_prefetch 0
Core_0_STLB_vberti_same_page_prefetch_hit 0
Core_0_STLB_vberti_same_page_prefetch_miss 0
Core_0_STLB_vberti_same_page_prefetch_mshr_merge 0
Core_0_STLB_vberti_same_page_prefetch_fill 0
Core_0_STLB_vberti_same_page_prefetch_miss_rate 0
Core_0_STLB_vberti_same_page_prefetch_mpki 0
Core_0_STLB_vberti_cross_page_prefetch 17115
Core_0_STLB_vberti_cross_page_prefetch_hit 0
Core_0_STLB_vberti_cross_page_prefetch_miss 17115
Core_0_STLB_vberti_cross_page_prefetch_mshr_merge 0
Core_0_STLB_vberti_cross_page_prefetch_fill 0
Core_0_STLB_vberti_cross_page_prefetch_miss_rate 1
Core_0_STLB_vberti_cross_page_prefetch_mpki 0.17115
Core_0_STLB_same_page_prefetch_miss_rate 0
Core_0_STLB_same_page_prefetch_mpki 0
Core_0_STLB_cross_page_prefetch_miss_rate 1
Core_0_STLB_cross_page_prefetch_mpki 0.17115
Core_0_STLB_cross_page_prefetch_issued 17115
Core_0_STLB_cross_page_prefetch_lookups 17115
Core_0_STLB_cross_page_prefetch_useful 12484
Core_0_STLB_cross_page_prefetch_useless 3995
Core_0_STLB_cross_page_prefetch_late 12484
Core_0_STLB_cross_page_prefetch_too_early 0
Core_0_STLB_cross_page_prefetch_too_early_among_fill 0
Core_0_STLB_cross_page_prefetch_too_early_among_useless 0
Core_0_STLB_cross_page_prefetch_pollution_evict 0
Core_0_STLB_cross_page_prefetch_pollution_demand 0
Core_0_STLB_cross_page_prefetch_pollution_among_prefetch_fill 0
Core_0_STLB_cross_page_prefetch_accuracy 0.729419
Core_0_STLB_cross_page_prefetch_coverage 0.0032119

========= STLB Cross-page Prefetch Buffer Stats =========
Core_0_STLB_raw_demand_miss 3874316
Core_0_CP_PB_insert 17115
Core_0_CP_PB_demand_hit 12484
Core_0_STLB_PB_demand_miss 3861832
Core_0_CP_PB_coverage 0.00322225
Core_0_STLB_raw_demand_mpki 38.7432
Core_0_STLB_PB_demand_mpki 38.6183
Core_0_CP_PB_demand_hit_mpki 0.12484

Core_0_TLB_demand_miss_rate 0.276463
Core_0_TLB_demand_mpki 38.7432
Core_0_TLB_same_page_prefetch_miss_rate 0
Core_0_TLB_same_page_prefetch_mpki 0
Core_0_TLB_cross_page_prefetch_miss_rate 0.0281746
Core_0_TLB_cross_page_prefetch_mpki 0.17115
Core_0_TLB_cross_page_prefetch_issued 607462
Core_0_TLB_cross_page_prefetch_lookups 607462
Core_0_TLB_cross_page_prefetch_useful 16350
Core_0_TLB_cross_page_prefetch_useless 765
Core_0_TLB_cross_page_prefetch_late 0
Core_0_TLB_cross_page_prefetch_too_early 45
Core_0_TLB_cross_page_prefetch_too_early_among_fill 0.00262927
Core_0_TLB_cross_page_prefetch_too_early_among_useless 0.0588235
Core_0_TLB_cross_page_prefetch_accuracy 0.0269153
Core_0_TLB_cross_page_prefetch_coverage 0.00420237
BERTI TO_L1: 6297931 TO_L2: 7262742 TO_L2_BC_MSHR: 0
BERTI AVG_LAT: 126.807 NUM_TRACK_LATENCY: 7858495 NUM_CANT_TRACK_LATENCY: 0
BERTI CROSS_PAGE 1551793 NO_CROSS_PAGE: 12008880
BERTI FOUND_BERTI: 17816527 NO_FOUND_BERTI: 986040
BERTI AVERAGE_ISSUED: 4.10089
