[VMEM] WARNING: physical memory size is smaller than virtual memory size.

*** ChampSim Multicore Out-of-Order Simulator ***
Warmup Instructions: 50000000
Simulation Instructions: 100000000
Number of CPUs: 1
Page size: 4096
Core 0: /data2/zcq/champsim_traces_xsbench/xs.XXL100nuclide-487B.champsimtrace.xz
VBerti Prefetcher
BERTI HASH ENTANGLING
BERTI IP MASK ffff
Off-chip DRAM Size: 16 GiB Channels: 1 Width: 64-bit Data Rate: 3205 MT/s
Warmup halting CPU 0 at instruction 50000001 cycle 36934740 for remainder of phase
Warmup finished CPU 0 instructions: 50000001 cycles: 36934740 cumulative IPC: 1.354 (Simulation time: 00 hr 09 min 14 sec)
Warmup complete CPU 0 instructions: 50000001 cycles: 36934740 cumulative IPC: 1.354 (Simulation time: 00 hr 09 min 14 sec)
Simulation finished CPU 0 instructions: 100000000 cycles: 693107766 cumulative IPC: 0.1443 (Simulation time: 01 hr 11 min 50 sec)
Simulation complete CPU 0 instructions: 100000000 cycles: 693107766 cumulative IPC: 0.1443 (Simulation time: 01 hr 11 min 50 sec)

ChampSim completed all CPUs

=== Simulation ===
CPU 0 runs /data2/zcq/champsim_traces_xsbench/xs.XXL100nuclide-487B.champsimtrace.xz

Region of Interest Statistics

CPU 0 cumulative IPC: 0.1443 instructions: 100000000 cycles: 693107766
CPU 0 Branch Prediction Accuracy: 87.19% MPKI: 21.6 Average ROB Occupancy at Mispredict: 25.61
Branch type MPKI
BRANCH_DIRECT_JUMP: 0
BRANCH_INDIRECT: 0
BRANCH_CONDITIONAL: 21.6
BRANCH_DIRECT_CALL: 0
BRANCH_INDIRECT_CALL: 0
BRANCH_RETURN: 0

cpu0->cpu0_STLB TOTAL        ACCESS:    3987688 HIT:     131791 MISS:    3855897 MSHR_MERGE:          0
cpu0->cpu0_STLB LOAD         ACCESS:    3987688 HIT:     131791 MISS:    3855897 MSHR_MERGE:          0
cpu0->cpu0_STLB RFO          ACCESS:          0 HIT:          0 MISS:          0 MSHR_MERGE:          0
cpu0->cpu0_STLB PREFETCH     ACCESS:          0 HIT:          0 MISS:          0 MSHR_MERGE:          0
cpu0->cpu0_STLB WRITE        ACCESS:          0 HIT:          0 MISS:          0 MSHR_MERGE:          0
cpu0->cpu0_STLB TRANSLATION  ACCESS:          0 HIT:          0 MISS:          0 MSHR_MERGE:          0
cpu0->cpu0_STLB PREFETCH REQUESTED:          0 ISSUED:          0 USEFUL:          0 USELESS:          0 LATE:          0 TOO_EARLY:          0
cpu0->cpu0_STLB AVERAGE MISS LATENCY: 173.3 cycles
cpu0->cpu0_L2C TOTAL        ACCESS:   10578024 HIT:    1451467 MISS:    9126557 MSHR_MERGE:       8906
cpu0->cpu0_L2C LOAD         ACCESS:    5975809 HIT:     203038 MISS:    5772771 MSHR_MERGE:          0
cpu0->cpu0_L2C RFO          ACCESS:      10704 HIT:      10704 MISS:          0 MSHR_MERGE:          0
cpu0->cpu0_L2C PREFETCH     ACCESS:    1258212 HIT:    1028161 MISS:     230051 MSHR_MERGE:       8906
cpu0->cpu0_L2C WRITE        ACCESS:      19130 HIT:      19080 MISS:         50 MSHR_MERGE:          0
cpu0->cpu0_L2C TRANSLATION  ACCESS:    3314169 HIT:     190484 MISS:    3123685 MSHR_MERGE:          0
cpu0->cpu0_L2C PREFETCH REQUESTED:     333434 ISSUED:     333434 USEFUL:      13534 USELESS:     135971 LATE:          0 TOO_EARLY:        116
cpu0->cpu0_L2C AVERAGE MISS LATENCY: 149.5 cycles
cpu0->cpu0_L1I TOTAL        ACCESS:      21672 HIT:      21672 MISS:          0 MSHR_MERGE:          0
cpu0->cpu0_L1I LOAD         ACCESS:      21672 HIT:      21672 MISS:          0 MSHR_MERGE:          0
cpu0->cpu0_L1I RFO          ACCESS:          0 HIT:          0 MISS:          0 MSHR_MERGE:          0
cpu0->cpu0_L1I PREFETCH     ACCESS:          0 HIT:          0 MISS:          0 MSHR_MERGE:          0
cpu0->cpu0_L1I WRITE        ACCESS:          0 HIT:          0 MISS:          0 MSHR_MERGE:          0
cpu0->cpu0_L1I TRANSLATION  ACCESS:          0 HIT:          0 MISS:          0 MSHR_MERGE:          0
cpu0->cpu0_L1I PREFETCH REQUESTED:          0 ISSUED:          0 USEFUL:          0 USELESS:          0 LATE:          0 TOO_EARLY:          0
cpu0->cpu0_L1I AVERAGE MISS LATENCY: - cycles
cpu0->cpu0_L1D TOTAL        ACCESS:   21891975 HIT:    9743943 MISS:   12148032 MSHR_MERGE:    1922556
cpu0->cpu0_L1D LOAD         ACCESS:    9549930 HIT:    3471995 MISS:    6077935 MSHR_MERGE:     102124
cpu0->cpu0_L1D RFO          ACCESS:          0 HIT:          0 MISS:          0 MSHR_MERGE:          0
cpu0->cpu0_L1D PREFETCH     ACCESS:    2087402 HIT:    1162624 MISS:     924778 MSHR_MERGE:          1
cpu0->cpu0_L1D WRITE        ACCESS:    1810843 HIT:    1759209 MISS:      51634 MSHR_MERGE:      40915
cpu0->cpu0_L1D TRANSLATION  ACCESS:    8443800 HIT:    3350115 MISS:    5093685 MSHR_MERGE:    1779516
cpu0->cpu0_L1D PREFETCH REQUESTED:    2383501 ISSUED:    2087402 USEFUL:      36325 USELESS:      46309 LATE:        397 TOO_EARLY:       2517
cpu0->cpu0_L1D AVERAGE MISS LATENCY: 152.1 cycles
cpu0->cpu0_ITLB TOTAL        ACCESS:      17535 HIT:      17535 MISS:          0 MSHR_MERGE:          0
cpu0->cpu0_ITLB LOAD         ACCESS:      17535 HIT:      17535 MISS:          0 MSHR_MERGE:          0
cpu0->cpu0_ITLB RFO          ACCESS:          0 HIT:          0 MISS:          0 MSHR_MERGE:          0
cpu0->cpu0_ITLB PREFETCH     ACCESS:          0 HIT:          0 MISS:          0 MSHR_MERGE:          0
cpu0->cpu0_ITLB WRITE        ACCESS:          0 HIT:          0 MISS:          0 MSHR_MERGE:          0
cpu0->cpu0_ITLB TRANSLATION  ACCESS:          0 HIT:          0 MISS:          0 MSHR_MERGE:          0
cpu0->cpu0_ITLB PREFETCH REQUESTED:          0 ISSUED:          0 USEFUL:          0 USELESS:          0 LATE:          0 TOO_EARLY:          0
cpu0->cpu0_ITLB AVERAGE MISS LATENCY: - cycles
cpu0->cpu0_DTLB TOTAL        ACCESS:   12819342 HIT:    8629403 MISS:    4189939 MSHR_MERGE:     202251
cpu0->cpu0_DTLB LOAD         ACCESS:   12819342 HIT:    8629403 MISS:    4189939 MSHR_MERGE:     202251
cpu0->cpu0_DTLB RFO          ACCESS:          0 HIT:          0 MISS:          0 MSHR_MERGE:          0
cpu0->cpu0_DTLB PREFETCH     ACCESS:          0 HIT:          0 MISS:          0 MSHR_MERGE:          0
cpu0->cpu0_DTLB WRITE        ACCESS:          0 HIT:          0 MISS:          0 MSHR_MERGE:          0
cpu0->cpu0_DTLB TRANSLATION  ACCESS:          0 HIT:          0 MISS:          0 MSHR_MERGE:          0
cpu0->cpu0_DTLB PREFETCH REQUESTED:          0 ISSUED:          0 USEFUL:          0 USELESS:          0 LATE:          0 TOO_EARLY:          0
cpu0->cpu0_DTLB AVERAGE MISS LATENCY: 173.6 cycles
cpu0->LLC TOTAL        ACCESS:    9121418 HIT:    3077458 MISS:    6043960 MSHR_MERGE:          0
cpu0->LLC LOAD         ACCESS:    5772771 HIT:    1335692 MISS:    4437079 MSHR_MERGE:          0
cpu0->LLC RFO          ACCESS:          0 HIT:          0 MISS:          0 MSHR_MERGE:          0
cpu0->LLC PREFETCH     ACCESS:     221145 HIT:      86197 MISS:     134948 MSHR_MERGE:          0
cpu0->LLC WRITE        ACCESS:       3817 HIT:       3809 MISS:          8 MSHR_MERGE:          0
cpu0->LLC TRANSLATION  ACCESS:    3123685 HIT:    1651760 MISS:    1471925 MSHR_MERGE:          0
cpu0->LLC PREFETCH REQUESTED:          0 ISSUED:          0 USEFUL:          0 USELESS:          0 LATE:          0 TOO_EARLY:          0
cpu0->LLC AVERAGE MISS LATENCY: 201.5 cycles

DRAM Statistics

Channel 0 RQ ROW_BUFFER_HIT:      30672
  ROW_BUFFER_MISS:    6013279
  AVG DBUS CONGESTED CYCLE: 2.936
Channel 0 WQ ROW_BUFFER_HIT:         16
  ROW_BUFFER_MISS:         48
  FULL:          0
Channel 0 REFRESHES ISSUED:      57759

[ROI Statistics]
[System Configuration]
num_cpus 1
cpu_freq 4000
fetch_width 6
decode_width 6
dispatch_width 6
execute_width 6
lq_width 2
sq_width 2
retire_width 6
scheduler_size 128
branch_mispredict_penalty 15
rob_size 352
lq_size 128
sq_size 72
ifetch_buffer_size 64
decode_buffer_size 32
dispatch_buffer_size 32
register_file_size 288
decode_latency 1
dispatch_latency 1
schedule_latency 1
execute_latency 1
page_size 4096
block_size 64
core_0_itlb_set 16
core_0_itlb_way 4
core_0_itlb_rq_size 16
core_0_itlb_wq_size 16
core_0_itlb_pq_size 0
core_0_itlb_mshr_size 8
core_0_itlb_hit_latency 1
core_0_itlb_fill_latency 1
core_0_itlb_max_tag_check 2
core_0_itlb_max_fill 2
core_0_dtlb_set 16
core_0_dtlb_way 4
core_0_dtlb_rq_size 16
core_0_dtlb_wq_size 16
core_0_dtlb_pq_size 0
core_0_dtlb_mshr_size 8
core_0_dtlb_hit_latency 1
core_0_dtlb_fill_latency 1
core_0_dtlb_max_tag_check 2
core_0_dtlb_max_fill 2
core_0_stlb_set 128
core_0_stlb_way 12
core_0_stlb_rq_size 32
core_0_stlb_wq_size 32
core_0_stlb_pq_size 0
core_0_stlb_mshr_size 16
core_0_stlb_hit_latency 4
core_0_stlb_fill_latency 4
core_0_stlb_max_tag_check 1
core_0_stlb_max_fill 1
core_0_l1i_set 64
core_0_l1i_way 8
core_0_l1i_rq_size 64
core_0_l1i_wq_size 64
core_0_l1i_pq_size 32
core_0_l1i_mshr_size 8
core_0_l1i_hit_latency 2
core_0_l1i_fill_latency 2
core_0_l1i_max_tag_check 2
core_0_l1i_max_fill 2
core_0_l1d_set 64
core_0_l1d_way 12
core_0_l1d_rq_size 64
core_0_l1d_wq_size 64
core_0_l1d_pq_size 8
core_0_l1d_mshr_size 16
core_0_l1d_hit_latency 2
core_0_l1d_fill_latency 3
core_0_l1d_max_tag_check 2
core_0_l1d_max_fill 2
core_0_l2c_set 1024
core_0_l2c_way 8
core_0_l2c_rq_size 32
core_0_l2c_wq_size 32
core_0_l2c_pq_size 16
core_0_l2c_mshr_size 32
core_0_l2c_hit_latency 5
core_0_l2c_fill_latency 5
core_0_l2c_max_tag_check 1
core_0_l2c_max_fill 1
llc_set 2048
llc_way 16
llc_rq_size 32
llc_wq_size 32
llc_pq_size 32
llc_mshr_size 64
llc_hit_latency 10
llc_fill_latency 10
llc_max_tag_check 1
llc_max_fill 1
dram_channels 1
dram_ranks 1
dram_bankgroups 8
dram_banks 4
dram_rows 65536
dram_columns 1024
dram_channel_width 8
dram_rq_size 64
dram_wq_size 64
dram_size 17179869184
core_0_itlb_prefetcher no
core_0_dtlb_prefetcher no
core_0_stlb_prefetcher no
core_0_l1i_prefetcher next_line
core_0_l1d_prefetcher vberti
core_0_l2c_prefetcher ip_stride
llc_prefetcher no
llc_replacement drrip

Core_0_instructions 100000000
Core_0_cycles 693107766
Core_0_IPC 0.144278
Core_0_branch_prediction_accuracy 87.1865
Core_0_branch_MPKI 21.6043
Core_0_average_ROB_occupancy_at_mispredict 25.615

Core_0_ITLB_total_access 17535
Core_0_ITLB_total_hit 17535
Core_0_ITLB_total_miss 0
Core_0_ITLB_total_MPKI 0
Core_0_ITLB_total_miss_rate 0
Core_0_ITLB_demand_access 17535
Core_0_ITLB_demand_hit 17535
Core_0_ITLB_demand_miss 0
Core_0_ITLB_demand_MPKI 0
Core_0_ITLB_demand_miss_rate 0
Core_0_ITLB_load_access 17535
Core_0_ITLB_load_hit 17535
Core_0_ITLB_load_miss 0
Core_0_ITLB_load_MPKI 0
Core_0_ITLB_load_miss_rate 0
Core_0_ITLB_rfo_access 0
Core_0_ITLB_rfo_hit 0
Core_0_ITLB_rfo_miss 0
Core_0_ITLB_rfo_MPKI 0
Core_0_ITLB_rfo_miss_rate 0
Core_0_ITLB_prefetch_access 0
Core_0_ITLB_prefetch_hit 0
Core_0_ITLB_prefetch_miss 0
Core_0_ITLB_prefetch_MPKI 0
Core_0_ITLB_prefetch_miss_rate 0
Core_0_ITLB_writeback_access 0
Core_0_ITLB_writeback_hit 0
Core_0_ITLB_writeback_miss 0
Core_0_ITLB_writeback_MPKI 0
Core_0_ITLB_writeback_miss_rate 0
Core_0_ITLB_prefetch_requested 0
Core_0_ITLB_prefetch_issued 0
Core_0_ITLB_prefetch_useful 0
Core_0_ITLB_prefetch_useless 0
Core_0_ITLB_prefetch_late 0
Core_0_ITLB_prefetch_fill 0
Core_0_ITLB_prefetch_too_early 0
Core_0_ITLB_prefetch_too_early_among_fill 0
Core_0_ITLB_prefetch_too_early_among_useless 0
Core_0_ITLB_prefetch_pollution_evict 0
Core_0_ITLB_prefetch_pollution_demand 0
Core_0_ITLB_prefetch_pollution_among_prefetch_fill 0
Core_0_ITLB_prefetch_accuracy 0
Core_0_ITLB_prefetch_coverage 0

Core_0_DTLB_total_access 12819342
Core_0_DTLB_total_hit 8629403
Core_0_DTLB_total_miss 4189939
Core_0_DTLB_total_MPKI 41.8994
Core_0_DTLB_total_miss_rate 0.326845
Core_0_DTLB_demand_access 12819342
Core_0_DTLB_demand_hit 8629403
Core_0_DTLB_demand_miss 4189939
Core_0_DTLB_demand_MPKI 41.8994
Core_0_DTLB_demand_miss_rate 0.326845
Core_0_DTLB_load_access 12819342
Core_0_DTLB_load_hit 8629403
Core_0_DTLB_load_miss 4189939
Core_0_DTLB_load_MPKI 41.8994
Core_0_DTLB_load_miss_rate 0.326845
Core_0_DTLB_rfo_access 0
Core_0_DTLB_rfo_hit 0
Core_0_DTLB_rfo_miss 0
Core_0_DTLB_rfo_MPKI 0
Core_0_DTLB_rfo_miss_rate 0
Core_0_DTLB_prefetch_access 0
Core_0_DTLB_prefetch_hit 0
Core_0_DTLB_prefetch_miss 0
Core_0_DTLB_prefetch_MPKI 0
Core_0_DTLB_prefetch_miss_rate 0
Core_0_DTLB_writeback_access 0
Core_0_DTLB_writeback_hit 0
Core_0_DTLB_writeback_miss 0
Core_0_DTLB_writeback_MPKI 0
Core_0_DTLB_writeback_miss_rate 0
Core_0_DTLB_prefetch_requested 0
Core_0_DTLB_prefetch_issued 0
Core_0_DTLB_prefetch_useful 0
Core_0_DTLB_prefetch_useless 0
Core_0_DTLB_prefetch_late 0
Core_0_DTLB_prefetch_fill 0
Core_0_DTLB_prefetch_too_early 0
Core_0_DTLB_prefetch_too_early_among_fill 0
Core_0_DTLB_prefetch_too_early_among_useless 0
Core_0_DTLB_prefetch_pollution_evict 0
Core_0_DTLB_prefetch_pollution_demand 0
Core_0_DTLB_prefetch_pollution_among_prefetch_fill 0
Core_0_DTLB_prefetch_accuracy 0
Core_0_DTLB_prefetch_coverage 0

Core_0_STLB_total_access 3987688
Core_0_STLB_total_hit 131791
Core_0_STLB_total_miss 3855897
Core_0_STLB_total_MPKI 38.559
Core_0_STLB_total_miss_rate 0.966951
Core_0_STLB_demand_access 3987688
Core_0_STLB_demand_hit 131791
Core_0_STLB_demand_miss 3855897
Core_0_STLB_demand_MPKI 38.559
Core_0_STLB_demand_miss_rate 0.966951
Core_0_STLB_load_access 3987688
Core_0_STLB_load_hit 131791
Core_0_STLB_load_miss 3855897
Core_0_STLB_load_MPKI 38.559
Core_0_STLB_load_miss_rate 0.966951
Core_0_STLB_rfo_access 0
Core_0_STLB_rfo_hit 0
Core_0_STLB_rfo_miss 0
Core_0_STLB_rfo_MPKI 0
Core_0_STLB_rfo_miss_rate 0
Core_0_STLB_prefetch_access 0
Core_0_STLB_prefetch_hit 0
Core_0_STLB_prefetch_miss 0
Core_0_STLB_prefetch_MPKI 0
Core_0_STLB_prefetch_miss_rate 0
Core_0_STLB_writeback_access 0
Core_0_STLB_writeback_hit 0
Core_0_STLB_writeback_miss 0
Core_0_STLB_writeback_MPKI 0
Core_0_STLB_writeback_miss_rate 0
Core_0_STLB_prefetch_requested 0
Core_0_STLB_prefetch_issued 0
Core_0_STLB_prefetch_useful 0
Core_0_STLB_prefetch_useless 0
Core_0_STLB_prefetch_late 0
Core_0_STLB_prefetch_fill 0
Core_0_STLB_prefetch_too_early 0
Core_0_STLB_prefetch_too_early_among_fill 0
Core_0_STLB_prefetch_too_early_among_useless 0
Core_0_STLB_prefetch_pollution_evict 0
Core_0_STLB_prefetch_pollution_demand 0
Core_0_STLB_prefetch_pollution_among_prefetch_fill 0
Core_0_STLB_prefetch_accuracy 0
Core_0_STLB_prefetch_coverage 0

Core_0_L1I_total_access 21672
Core_0_L1I_total_hit 21672
Core_0_L1I_total_miss 0
Core_0_L1I_total_MPKI 0
Core_0_L1I_total_miss_rate 0
Core_0_L1I_demand_access 21672
Core_0_L1I_demand_hit 21672
Core_0_L1I_demand_miss 0
Core_0_L1I_demand_MPKI 0
Core_0_L1I_demand_miss_rate 0
Core_0_L1I_load_access 21672
Core_0_L1I_load_hit 21672
Core_0_L1I_load_miss 0
Core_0_L1I_load_MPKI 0
Core_0_L1I_load_miss_rate 0
Core_0_L1I_rfo_access 0
Core_0_L1I_rfo_hit 0
Core_0_L1I_rfo_miss 0
Core_0_L1I_rfo_MPKI 0
Core_0_L1I_rfo_miss_rate 0
Core_0_L1I_prefetch_access 0
Core_0_L1I_prefetch_hit 0
Core_0_L1I_prefetch_miss 0
Core_0_L1I_prefetch_MPKI 0
Core_0_L1I_prefetch_miss_rate 0
Core_0_L1I_writeback_access 0
Core_0_L1I_writeback_hit 0
Core_0_L1I_writeback_miss 0
Core_0_L1I_writeback_MPKI 0
Core_0_L1I_writeback_miss_rate 0
Core_0_L1I_prefetch_requested 0
Core_0_L1I_prefetch_issued 0
Core_0_L1I_prefetch_useful 0
Core_0_L1I_prefetch_useless 0
Core_0_L1I_prefetch_late 0
Core_0_L1I_prefetch_fill 0
Core_0_L1I_prefetch_too_early 0
Core_0_L1I_prefetch_too_early_among_fill 0
Core_0_L1I_prefetch_too_early_among_useless 0
Core_0_L1I_prefetch_pollution_evict 0
Core_0_L1I_prefetch_pollution_demand 0
Core_0_L1I_prefetch_pollution_among_prefetch_fill 0
Core_0_L1I_prefetch_accuracy 0
Core_0_L1I_prefetch_coverage 0

Core_0_L1D_total_access 13448175
Core_0_L1D_total_hit 6393828
Core_0_L1D_total_miss 7054347
Core_0_L1D_total_MPKI 70.5435
Core_0_L1D_total_miss_rate 0.524558
Core_0_L1D_demand_access 9549930
Core_0_L1D_demand_hit 3471995
Core_0_L1D_demand_miss 6077935
Core_0_L1D_demand_MPKI 60.7794
Core_0_L1D_demand_miss_rate 0.636438
Core_0_L1D_load_access 9549930
Core_0_L1D_load_hit 3471995
Core_0_L1D_load_miss 6077935
Core_0_L1D_load_MPKI 60.7794
Core_0_L1D_load_miss_rate 0.636438
Core_0_L1D_rfo_access 0
Core_0_L1D_rfo_hit 0
Core_0_L1D_rfo_miss 0
Core_0_L1D_rfo_MPKI 0
Core_0_L1D_rfo_miss_rate 0
Core_0_L1D_prefetch_access 2087402
Core_0_L1D_prefetch_hit 1162624
Core_0_L1D_prefetch_miss 924778
Core_0_L1D_prefetch_MPKI 9.24778
Core_0_L1D_prefetch_miss_rate 0.443028
Core_0_L1D_writeback_access 1810843
Core_0_L1D_writeback_hit 1759209
Core_0_L1D_writeback_miss 51634
Core_0_L1D_writeback_MPKI 0.51634
Core_0_L1D_writeback_miss_rate 0.0285138
Core_0_L1D_prefetch_requested 2383501
Core_0_L1D_prefetch_issued 2087402
Core_0_L1D_prefetch_useful 36325
Core_0_L1D_prefetch_useless 46309
Core_0_L1D_prefetch_late 397
Core_0_L1D_prefetch_fill 82243
Core_0_L1D_prefetch_too_early 2517
Core_0_L1D_prefetch_too_early_among_fill 0.0306044
Core_0_L1D_prefetch_too_early_among_useless 0.0543523
Core_0_L1D_prefetch_pollution_evict 13247
Core_0_L1D_prefetch_pollution_demand 13238
Core_0_L1D_prefetch_pollution_among_prefetch_fill 0.161071
Core_0_L1D_prefetch_accuracy 0.017402
Core_0_L1D_prefetch_coverage 0.00594103

Core_0_L2C_total_access 7263855
Core_0_L2C_total_hit 1260983
Core_0_L2C_total_miss 6002872
Core_0_L2C_total_MPKI 60.0287
Core_0_L2C_total_miss_rate 0.826403
Core_0_L2C_demand_access 5986513
Core_0_L2C_demand_hit 213742
Core_0_L2C_demand_miss 5772771
Core_0_L2C_demand_MPKI 57.7277
Core_0_L2C_demand_miss_rate 0.964296
Core_0_L2C_load_access 5975809
Core_0_L2C_load_hit 203038
Core_0_L2C_load_miss 5772771
Core_0_L2C_load_MPKI 57.7277
Core_0_L2C_load_miss_rate 0.966023
Core_0_L2C_rfo_access 10704
Core_0_L2C_rfo_hit 10704
Core_0_L2C_rfo_miss 0
Core_0_L2C_rfo_MPKI 0
Core_0_L2C_rfo_miss_rate 0
Core_0_L2C_prefetch_access 1258212
Core_0_L2C_prefetch_hit 1028161
Core_0_L2C_prefetch_miss 230051
Core_0_L2C_prefetch_MPKI 2.30051
Core_0_L2C_prefetch_miss_rate 0.18284
Core_0_L2C_writeback_access 19130
Core_0_L2C_writeback_hit 19080
Core_0_L2C_writeback_miss 50
Core_0_L2C_writeback_MPKI 0.0005
Core_0_L2C_writeback_miss_rate 0.0026137
Core_0_L2C_prefetch_requested 333434
Core_0_L2C_prefetch_issued 333434
Core_0_L2C_prefetch_useful 13534
Core_0_L2C_prefetch_useless 135971
Core_0_L2C_prefetch_late 0
Core_0_L2C_prefetch_fill 221145
Core_0_L2C_prefetch_too_early 116
Core_0_L2C_prefetch_too_early_among_fill 0.000524543
Core_0_L2C_prefetch_too_early_among_useless 0.000853123
Core_0_L2C_prefetch_pollution_evict 45739
Core_0_L2C_prefetch_pollution_demand 45736
Core_0_L2C_prefetch_pollution_among_prefetch_fill 0.206828
Core_0_L2C_prefetch_accuracy 0.0405897
Core_0_L2C_prefetch_coverage 0.00233897

Core_0_LLC_total_access 5997733
Core_0_LLC_total_hit 1425698
Core_0_LLC_total_miss 4572035
Core_0_LLC_total_MPKI 45.7204
Core_0_LLC_total_miss_rate 0.762294
Core_0_LLC_demand_access 5772771
Core_0_LLC_demand_hit 1335692
Core_0_LLC_demand_miss 4437079
Core_0_LLC_demand_MPKI 44.3708
Core_0_LLC_demand_miss_rate 0.768622
Core_0_LLC_load_access 5772771
Core_0_LLC_load_hit 1335692
Core_0_LLC_load_miss 4437079
Core_0_LLC_load_MPKI 44.3708
Core_0_LLC_load_miss_rate 0.768622
Core_0_LLC_rfo_access 0
Core_0_LLC_rfo_hit 0
Core_0_LLC_rfo_miss 0
Core_0_LLC_rfo_MPKI 0
Core_0_LLC_rfo_miss_rate 0
Core_0_LLC_prefetch_access 221145
Core_0_LLC_prefetch_hit 86197
Core_0_LLC_prefetch_miss 134948
Core_0_LLC_prefetch_MPKI 1.34948
Core_0_LLC_prefetch_miss_rate 0.610224
Core_0_LLC_writeback_access 3817
Core_0_LLC_writeback_hit 3809
Core_0_LLC_writeback_miss 8
Core_0_LLC_writeback_MPKI 8e-05
Core_0_LLC_writeback_miss_rate 0.00209589
Core_0_LLC_prefetch_requested 0
Core_0_LLC_prefetch_issued 0
Core_0_LLC_prefetch_useful 0
Core_0_LLC_prefetch_useless 0
Core_0_LLC_prefetch_late 0
Core_0_LLC_prefetch_fill 134948
Core_0_LLC_prefetch_too_early 0
Core_0_LLC_prefetch_too_early_among_fill 0
Core_0_LLC_prefetch_too_early_among_useless 0
Core_0_LLC_prefetch_pollution_evict 29345
Core_0_LLC_prefetch_pollution_demand 29345
Core_0_LLC_prefetch_pollution_among_prefetch_fill 0.217454
Core_0_LLC_prefetch_accuracy 0
Core_0_LLC_prefetch_coverage 0

[DRAM Statistics]
Channel_0_RQ_row_buffer_hit 30672
Channel_0_RQ_row_buffer_miss 6013279
Channel_0_WQ_row_buffer_hit 16
Channel_0_WQ_row_buffer_miss 48
Channel_0_WQ_full 0
Channel_0_dbus_congested 6282373
DRAM_total_RQ_row_buffer_hit 30672
DRAM_total_RQ_row_buffer_miss 6013279
DRAM_total_WQ_row_buffer_hit 16
DRAM_total_WQ_row_buffer_miss 48
DRAM_total_WQ_full 0
DRAM_total_dbus_congested 6282373
DRAM_avg_congested_cycle 2.93636

====== DRAM_RQ_TRAFFIC ========
DRAM_RQ_READ_TRAFFIC_BREAKDOWN:
data_demand_read.count = 4437079
data_demand_read.share = 73.41%

inst_demand_read.count = 0
inst_demand_read.share = 0.00%

cache_inst_prefetch.count = 0
cache_inst_prefetch.share = 0.00%

cache_data_prefetch.count = 134948
cache_data_prefetch.share = 2.23%

stlb_data_demand.count = 1471924
stlb_data_demand.share = 24.35%

stlb_inst_demand.count = 0
stlb_inst_demand.share = 0.00%

stlb_l1i_pref.count = 0
stlb_l1i_pref.share = 0.00%

stlb_l1d_pref.count = 3
stlb_l1d_pref.share = 0.00%

DRAM_RQ_READ_TRAFFIC_SUMMARY:
cache_demand.count = 4437079
cache_demand.share = 73.41%

cache_prefetch.count = 134948
cache_prefetch.share = 2.23%

stlb_demand.count = 1471924
stlb_demand.share = 24.35%

stlb_prefetch.count = 3
stlb_prefetch.share = 0.00%

DRAM_RQ_READ_TRAFFIC_DEBUG:
total_classified_read.count = 6043954
unclassified_read.count = 0
total_read_with_other.count = 6043954

classified_plus_unclassified_check.count = 6043954
dram_rq_read_total_observed.count = 6043954
dram_rq_read_total_observed.per_1K_instructions = 60.4395

STLB_MISS_PTW_DRAM_TOUCH_BREAKDOWN:
stlb_miss_total.count = 3855414

stlb_miss_touch_dram.count = 1473746
stlb_miss_touch_dram.share = 38.23%

stlb_miss_no_dram_touch.count = 2381668
stlb_miss_no_dram_touch.share = 61.77%

STLB_MISS_PTW_DRAM_TOUCH_DEBUG:
stlb_miss_touch_plus_no_touch.count = 3855414
stlb_miss_total_check.count = 3855414

======STLB miss causes ========
Core_0_STLB_miss_cause_breakdown
Core_0_STLB_cause_Demand_Data_miss 3851020
Core_0_STLB_cause_Demand_Data_miss_rate 0.965728
Core_0_STLB_cause_Demand_Instruction_miss 0
Core_0_STLB_cause_Demand_Instruction_miss_rate 0
Core_0_STLB_cause_L1D_Prefetch_miss 4877
Core_0_STLB_cause_L1D_Prefetch_miss_rate 0.00122301
Core_0_STLB_cause_L1D_Prefetch_Same_Page_miss 0
Core_0_STLB_cause_L1D_Prefetch_Same_Page_miss_rate 0
Core_0_STLB_cause_L1D_Prefetch_Cross_Page_miss 4877
Core_0_STLB_cause_L1D_Prefetch_Cross_Page_miss_rate 0.00122301
Core_0_STLB_cause_L1I_Prefetch_miss 0
Core_0_STLB_cause_L1I_Prefetch_miss_rate 0
Core_0_STLB_cause_Other_miss 0
Core_0_STLB_cause_Other_miss_rate 0
Core_0_STLB_Demand_miss 3851020
Core_0_STLB_Demand_miss_rate 0.965728
Core_0_STLB_L1D_Prefetch_miss 4877
Core_0_STLB_L1D_Prefetch_miss_rate 0.00122301
Core_0_STLB_Other_miss 0
Core_0_STLB_Other_miss_rate 0

========== vBerti-TLB Cross-page Flow Stats ==========

Core_0_vBerti_Requested 2383501
Core_0_vBerti_Cross_page_prefetch_in_Requested 283058
Core_0_vBerti_Same_page_prefetch_in_Requested 2100443
Core_0_vBerti_Cross_page_prefetch_of_Requested 0.118757
Core_0_vBerti_Issued 2087402
Core_0_vBerti_InPQ_Same_page_prefetch 1871587
Core_0_vBerti_InPQ_Cross_page_prefetch 215815
Core_0_vBerti_PQ_Drop_Rate 0.124229
Core_0_vBerti_InPQ_Cross_page_prefetch_of_Requested 0.0905454
Core_0_vBerti_Cross_page_PQ_Drop_rate 0.237559
Core_0_vBerti_Cross_page_prefetch_of_Issued 0.103389
Core_0_CP_PF_PQFULL_drop 67243
Core_0_CP_PF_PQFULL_TLB_rescue_enqueued 67243
Core_0_CP_PF_PQFULL_TLB_rescue_issued 67243
Core_0_CP_PF_PQFULL_TLB_rescue_translated 67243

========= DTLB_vBerti Prefetch Stats =========
Core_0_DTLB_demand_access 11196679
Core_0_DTLB_demand_hit 7014606
Core_0_DTLB_demand_miss 4182073
Core_0_DTLB_demand_mshr_merge 199744
Core_0_DTLB_demand_fill 3982335
Core_0_DTLB_demand_miss_rate 0.37351
Core_0_DTLB_demand_mpki 41.8207
Core_0_DTLB_vberti_prefetch_access 1622663
Core_0_DTLB_vberti_prefetch_hit 1614797
Core_0_DTLB_vberti_prefetch_miss 7866
Core_0_DTLB_vberti_prefetch_mshr_merge 2507
Core_0_DTLB_vberti_prefetch_fill 5359
Core_0_DTLB_vberti_prefetch_miss_rate 0.00484759
Core_0_DTLB_vberti_prefetch_mpki 0.07866

=== DTLB_vBerti Same/Cross-page Prefetch Stats ===
Core_0_DTLB_vberti_same_page_prefetch 1417204
Core_0_DTLB_vberti_same_page_prefetch_hit 1417204
Core_0_DTLB_vberti_same_page_prefetch_miss 0
Core_0_DTLB_vberti_same_page_prefetch_mshr_merge 0
Core_0_DTLB_vberti_same_page_prefetch_fill 0
Core_0_DTLB_vberti_same_page_prefetch_miss_rate 0
Core_0_DTLB_vberti_same_page_prefetch_mpki 0
Core_0_DTLB_vberti_cross_page_prefetch 205459
Core_0_DTLB_vberti_cross_page_prefetch_hit 197593
Core_0_DTLB_vberti_cross_page_prefetch_miss 7866
Core_0_DTLB_vberti_cross_page_prefetch_mshr_merge 2507
Core_0_DTLB_vberti_cross_page_prefetch_fill 5359
Core_0_DTLB_vberti_cross_page_prefetch_miss_rate 0.038285
Core_0_DTLB_vberti_cross_page_prefetch_mpki 0.07866
Core_0_DTLB_same_page_prefetch_miss_rate 0
Core_0_DTLB_same_page_prefetch_mpki 0
Core_0_DTLB_cross_page_prefetch_miss_rate 0.038285
Core_0_DTLB_cross_page_prefetch_mpki 0.07866
Core_0_DTLB_cross_page_prefetch_issued 205459
Core_0_DTLB_cross_page_prefetch_lookups 205459
Core_0_DTLB_cross_page_prefetch_useful 777
Core_0_DTLB_cross_page_prefetch_useless 4582
Core_0_DTLB_cross_page_prefetch_late 0
Core_0_DTLB_cross_page_prefetch_too_early 321
Core_0_DTLB_cross_page_prefetch_too_early_among_fill 0.0598992
Core_0_DTLB_cross_page_prefetch_too_early_among_useless 0.0700567
Core_0_DTLB_cross_page_prefetch_pollution_evict 2360
Core_0_DTLB_cross_page_prefetch_pollution_demand 2360
Core_0_DTLB_cross_page_prefetch_pollution_among_prefetch_fill 0.440381
Core_0_DTLB_cross_page_prefetch_accuracy 0.00378178
Core_0_DTLB_cross_page_prefetch_coverage 0.000185759

========= STLB_vBerti Prefetch Stats =========
Core_0_STLB_demand_access 3982329
Core_0_STLB_demand_hit 131309
Core_0_STLB_demand_miss 3851020
Core_0_STLB_demand_mshr_merge 0
Core_0_STLB_demand_fill 3851026
Core_0_STLB_demand_miss_rate 0.967027
Core_0_STLB_demand_mpki 38.5102
Core_0_STLB_vberti_prefetch_access 5359
Core_0_STLB_vberti_prefetch_hit 482
Core_0_STLB_vberti_prefetch_miss 4877
Core_0_STLB_vberti_prefetch_mshr_merge 0
Core_0_STLB_vberti_prefetch_fill 0
Core_0_STLB_vberti_prefetch_miss_rate 0.910058
Core_0_STLB_vberti_prefetch_mpki 0.04877

=== STLB_vBerti Same/Cross-page Prefetch Stats ===
Core_0_STLB_vberti_same_page_prefetch 0
Core_0_STLB_vberti_same_page_prefetch_hit 0
Core_0_STLB_vberti_same_page_prefetch_miss 0
Core_0_STLB_vberti_same_page_prefetch_mshr_merge 0
Core_0_STLB_vberti_same_page_prefetch_fill 0
Core_0_STLB_vberti_same_page_prefetch_miss_rate 0
Core_0_STLB_vberti_same_page_prefetch_mpki 0
Core_0_STLB_vberti_cross_page_prefetch 5359
Core_0_STLB_vberti_cross_page_prefetch_hit 482
Core_0_STLB_vberti_cross_page_prefetch_miss 4877
Core_0_STLB_vberti_cross_page_prefetch_mshr_merge 0
Core_0_STLB_vberti_cross_page_prefetch_fill 0
Core_0_STLB_vberti_cross_page_prefetch_miss_rate 0.910058
Core_0_STLB_vberti_cross_page_prefetch_mpki 0.04877
Core_0_STLB_same_page_prefetch_miss_rate 0
Core_0_STLB_same_page_prefetch_mpki 0
Core_0_STLB_cross_page_prefetch_miss_rate 0.910058
Core_0_STLB_cross_page_prefetch_mpki 0.04877
Core_0_STLB_cross_page_prefetch_issued 5359
Core_0_STLB_cross_page_prefetch_lookups 5359
Core_0_STLB_cross_page_prefetch_useful 483
Core_0_STLB_cross_page_prefetch_useless 3641
Core_0_STLB_cross_page_prefetch_late 483
Core_0_STLB_cross_page_prefetch_too_early 0
Core_0_STLB_cross_page_prefetch_too_early_among_fill 0
Core_0_STLB_cross_page_prefetch_too_early_among_useless 0
Core_0_STLB_cross_page_prefetch_pollution_evict 0
Core_0_STLB_cross_page_prefetch_pollution_demand 0
Core_0_STLB_cross_page_prefetch_pollution_among_prefetch_fill 0
Core_0_STLB_cross_page_prefetch_accuracy 0.0901288
Core_0_STLB_cross_page_prefetch_coverage 0.000125406

========= STLB Cross-page Prefetch Buffer Stats =========
Core_0_STLB_raw_demand_miss 3851020
Core_0_CP_PB_insert 4877
Core_0_CP_PB_demand_hit 483
Core_0_STLB_PB_demand_miss 3850537
Core_0_CP_PB_coverage 0.000125421
Core_0_STLB_raw_demand_mpki 38.5102
Core_0_STLB_PB_demand_mpki 38.5054
Core_0_CP_PB_demand_hit_mpki 0.00483

Core_0_TLB_demand_miss_rate 0.343943
Core_0_TLB_demand_mpki 38.5102
Core_0_TLB_same_page_prefetch_miss_rate 0
Core_0_TLB_same_page_prefetch_mpki 0
Core_0_TLB_cross_page_prefetch_miss_rate 0.0237371
Core_0_TLB_cross_page_prefetch_mpki 0.04877
Core_0_TLB_cross_page_prefetch_issued 205459
Core_0_TLB_cross_page_prefetch_lookups 205459
Core_0_TLB_cross_page_prefetch_useful 8
Core_0_TLB_cross_page_prefetch_useless 3866
Core_0_TLB_cross_page_prefetch_late 0
Core_0_TLB_cross_page_prefetch_too_early 86
Core_0_TLB_cross_page_prefetch_too_early_among_fill 0.0160478
Core_0_TLB_cross_page_prefetch_too_early_among_useless 0.0222452
Core_0_TLB_cross_page_prefetch_accuracy 3.89372e-05
Core_0_TLB_cross_page_prefetch_coverage 2.07737e-06
BERTI TO_L1: 1485855 TO_L2: 1606994 TO_L2_BC_MSHR: 0
BERTI AVG_LAT: 119.829 NUM_TRACK_LATENCY: 9070056 NUM_CANT_TRACK_LATENCY: 0
BERTI CROSS_PAGE 302737 NO_CROSS_PAGE: 2790112
BERTI FOUND_BERTI: 12853760 NO_FOUND_BERTI: 3614946
BERTI AVERAGE_ISSUED: 2.89068
