[VMEM] WARNING: physical memory size is smaller than virtual memory size.

*** ChampSim Multicore Out-of-Order Simulator ***
Warmup Instructions: 50000000
Simulation Instructions: 100000000
Number of CPUs: 1
Page size: 4096
Core 0: /data2/zcq/champsim_traces_xsbench/xs.XL100nuclide-185B.champsimtrace.xz
VBerti Prefetcher
BERTI HASH ENTANGLING
BERTI IP MASK ffff
Off-chip DRAM Size: 16 GiB Channels: 1 Width: 64-bit Data Rate: 3205 MT/s
Warmup halting CPU 0 at instruction 50000005 cycle 34190171 for remainder of phase
Warmup finished CPU 0 instructions: 50000005 cycles: 34190171 cumulative IPC: 1.462 (Simulation time: 00 hr 07 min 32 sec)
Warmup complete CPU 0 instructions: 50000005 cycles: 34190171 cumulative IPC: 1.462 (Simulation time: 00 hr 07 min 32 sec)
Simulation finished CPU 0 instructions: 100000001 cycles: 645834240 cumulative IPC: 0.1548 (Simulation time: 01 hr 12 min 59 sec)
Simulation complete CPU 0 instructions: 100000001 cycles: 645834240 cumulative IPC: 0.1548 (Simulation time: 01 hr 12 min 59 sec)

ChampSim completed all CPUs

=== Simulation ===
CPU 0 runs /data2/zcq/champsim_traces_xsbench/xs.XL100nuclide-185B.champsimtrace.xz

Region of Interest Statistics

CPU 0 cumulative IPC: 0.1548 instructions: 100000001 cycles: 645834240
CPU 0 Branch Prediction Accuracy: 87.1% MPKI: 21.56 Average ROB Occupancy at Mispredict: 25.77
Branch type MPKI
BRANCH_DIRECT_JUMP: 0
BRANCH_INDIRECT: 0
BRANCH_CONDITIONAL: 21.56
BRANCH_DIRECT_CALL: 0
BRANCH_INDIRECT_CALL: 0
BRANCH_RETURN: 0

cpu0->cpu0_STLB TOTAL        ACCESS:    3799534 HIT:     146485 MISS:    3653049 MSHR_MERGE:          0
cpu0->cpu0_STLB LOAD         ACCESS:    3799534 HIT:     146485 MISS:    3653049 MSHR_MERGE:          0
cpu0->cpu0_STLB RFO          ACCESS:          0 HIT:          0 MISS:          0 MSHR_MERGE:          0
cpu0->cpu0_STLB PREFETCH     ACCESS:          0 HIT:          0 MISS:          0 MSHR_MERGE:          0
cpu0->cpu0_STLB WRITE        ACCESS:          0 HIT:          0 MISS:          0 MSHR_MERGE:          0
cpu0->cpu0_STLB TRANSLATION  ACCESS:          0 HIT:          0 MISS:          0 MSHR_MERGE:          0
cpu0->cpu0_STLB PREFETCH REQUESTED:          0 ISSUED:          0 USEFUL:          0 USELESS:          0 LATE:          0 TOO_EARLY:          0
cpu0->cpu0_STLB AVERAGE MISS LATENCY: 146.5 cycles
cpu0->cpu0_L2C TOTAL        ACCESS:   10042299 HIT:    1517171 MISS:    8525128 MSHR_MERGE:       8374
cpu0->cpu0_L2C LOAD         ACCESS:    5865549 HIT:     261199 MISS:    5604350 MSHR_MERGE:        110
cpu0->cpu0_L2C RFO          ACCESS:      23713 HIT:      22913 MISS:        800 MSHR_MERGE:          0
cpu0->cpu0_L2C PREFETCH     ACCESS:    1255793 HIT:    1000363 MISS:     255430 MSHR_MERGE:       8264
cpu0->cpu0_L2C WRITE        ACCESS:      27161 HIT:      27147 MISS:         14 MSHR_MERGE:          0
cpu0->cpu0_L2C TRANSLATION  ACCESS:    2870083 HIT:     205549 MISS:    2664534 MSHR_MERGE:          0
cpu0->cpu0_L2C PREFETCH REQUESTED:     321825 ISSUED:     321825 USEFUL:      14882 USELESS:     160312 LATE:        110 TOO_EARLY:        164
cpu0->cpu0_L2C AVERAGE MISS LATENCY: 146.8 cycles
cpu0->cpu0_L1I TOTAL        ACCESS:      22121 HIT:      22121 MISS:          0 MSHR_MERGE:          0
cpu0->cpu0_L1I LOAD         ACCESS:      22121 HIT:      22121 MISS:          0 MSHR_MERGE:          0
cpu0->cpu0_L1I RFO          ACCESS:          0 HIT:          0 MISS:          0 MSHR_MERGE:          0
cpu0->cpu0_L1I PREFETCH     ACCESS:          0 HIT:          0 MISS:          0 MSHR_MERGE:          0
cpu0->cpu0_L1I WRITE        ACCESS:          0 HIT:          0 MISS:          0 MSHR_MERGE:          0
cpu0->cpu0_L1I TRANSLATION  ACCESS:          0 HIT:          0 MISS:          0 MSHR_MERGE:          0
cpu0->cpu0_L1I PREFETCH REQUESTED:          0 ISSUED:          0 USEFUL:          0 USELESS:          0 LATE:          0 TOO_EARLY:          0
cpu0->cpu0_L1I AVERAGE MISS LATENCY: - cycles
cpu0->cpu0_L1D TOTAL        ACCESS:   21469865 HIT:   10312126 MISS:   11157739 MSHR_MERGE:    1464345
cpu0->cpu0_L1D LOAD         ACCESS:    9633385 HIT:    3657395 MISS:    5975990 MSHR_MERGE:     110443
cpu0->cpu0_L1D RFO          ACCESS:          0 HIT:          0 MISS:          0 MSHR_MERGE:          0
cpu0->cpu0_L1D PREFETCH     ACCESS:    2151280 HIT:    1217310 MISS:     933970 MSHR_MERGE:          2
cpu0->cpu0_L1D WRITE        ACCESS:    1902409 HIT:    1830800 MISS:      71609 MSHR_MERGE:      47813
cpu0->cpu0_L1D TRANSLATION  ACCESS:    7782791 HIT:    3606621 MISS:    4176170 MSHR_MERGE:    1306087
cpu0->cpu0_L1D PREFETCH REQUESTED:    2435524 ISSUED:    2151278 USEFUL:      38923 USELESS:      47570 LATE:          0 TOO_EARLY:       2077
cpu0->cpu0_L1D AVERAGE MISS LATENCY: 147.7 cycles
cpu0->cpu0_ITLB TOTAL        ACCESS:      17992 HIT:      17992 MISS:          0 MSHR_MERGE:          0
cpu0->cpu0_ITLB LOAD         ACCESS:      17992 HIT:      17992 MISS:          0 MSHR_MERGE:          0
cpu0->cpu0_ITLB RFO          ACCESS:          0 HIT:          0 MISS:          0 MSHR_MERGE:          0
cpu0->cpu0_ITLB PREFETCH     ACCESS:          0 HIT:          0 MISS:          0 MSHR_MERGE:          0
cpu0->cpu0_ITLB WRITE        ACCESS:          0 HIT:          0 MISS:          0 MSHR_MERGE:          0
cpu0->cpu0_ITLB TRANSLATION  ACCESS:          0 HIT:          0 MISS:          0 MSHR_MERGE:          0
cpu0->cpu0_ITLB PREFETCH REQUESTED:          0 ISSUED:          0 USEFUL:          0 USELESS:          0 LATE:          0 TOO_EARLY:          0
cpu0->cpu0_ITLB AVERAGE MISS LATENCY: - cycles
cpu0->cpu0_DTLB TOTAL        ACCESS:   13017678 HIT:    9004349 MISS:    4013329 MSHR_MERGE:     213795
cpu0->cpu0_DTLB LOAD         ACCESS:   13017678 HIT:    9004349 MISS:    4013329 MSHR_MERGE:     213795
cpu0->cpu0_DTLB RFO          ACCESS:          0 HIT:          0 MISS:          0 MSHR_MERGE:          0
cpu0->cpu0_DTLB PREFETCH     ACCESS:          0 HIT:          0 MISS:          0 MSHR_MERGE:          0
cpu0->cpu0_DTLB WRITE        ACCESS:          0 HIT:          0 MISS:          0 MSHR_MERGE:          0
cpu0->cpu0_DTLB TRANSLATION  ACCESS:          0 HIT:          0 MISS:          0 MSHR_MERGE:          0
cpu0->cpu0_DTLB PREFETCH REQUESTED:          0 ISSUED:          0 USEFUL:          0 USELESS:          0 LATE:          0 TOO_EARLY:          0
cpu0->cpu0_DTLB AVERAGE MISS LATENCY: 146.8 cycles
cpu0->LLC TOTAL        ACCESS:    8518870 HIT:    2945657 MISS:    5573213 MSHR_MERGE:          0
cpu0->LLC LOAD         ACCESS:    5604240 HIT:    1353218 MISS:    4251022 MSHR_MERGE:          0
cpu0->LLC RFO          ACCESS:        800 HIT:        795 MISS:          5 MSHR_MERGE:          0
cpu0->LLC PREFETCH     ACCESS:     247166 HIT:      82769 MISS:     164397 MSHR_MERGE:          0
cpu0->LLC WRITE        ACCESS:       2130 HIT:       2118 MISS:         12 MSHR_MERGE:          0
cpu0->LLC TRANSLATION  ACCESS:    2664534 HIT:    1506757 MISS:    1157777 MSHR_MERGE:          0
cpu0->LLC PREFETCH REQUESTED:          0 ISSUED:          0 USEFUL:          0 USELESS:          0 LATE:          0 TOO_EARLY:          0
cpu0->LLC AVERAGE MISS LATENCY: 200.6 cycles

DRAM Statistics

Channel 0 RQ ROW_BUFFER_HIT:      57047
  ROW_BUFFER_MISS:    5516154
  AVG DBUS CONGESTED CYCLE: 2.938
Channel 0 WQ ROW_BUFFER_HIT:          2
  ROW_BUFFER_MISS:         12
  FULL:          0
Channel 0 REFRESHES ISSUED:      53819

[ROI Statistics]
[System Configuration]
num_cpus 1
cpu_freq 4000
fetch_width 6
decode_width 6
dispatch_width 6
execute_width 6
lq_width 2
sq_width 2
retire_width 6
scheduler_size 128
branch_mispredict_penalty 15
rob_size 352
lq_size 128
sq_size 72
ifetch_buffer_size 64
decode_buffer_size 32
dispatch_buffer_size 32
register_file_size 288
decode_latency 1
dispatch_latency 1
schedule_latency 1
execute_latency 1
page_size 4096
block_size 64
core_0_itlb_set 16
core_0_itlb_way 4
core_0_itlb_rq_size 16
core_0_itlb_wq_size 16
core_0_itlb_pq_size 0
core_0_itlb_mshr_size 8
core_0_itlb_hit_latency 1
core_0_itlb_fill_latency 1
core_0_itlb_max_tag_check 2
core_0_itlb_max_fill 2
core_0_dtlb_set 16
core_0_dtlb_way 4
core_0_dtlb_rq_size 16
core_0_dtlb_wq_size 16
core_0_dtlb_pq_size 0
core_0_dtlb_mshr_size 8
core_0_dtlb_hit_latency 1
core_0_dtlb_fill_latency 1
core_0_dtlb_max_tag_check 2
core_0_dtlb_max_fill 2
core_0_stlb_set 128
core_0_stlb_way 12
core_0_stlb_rq_size 32
core_0_stlb_wq_size 32
core_0_stlb_pq_size 0
core_0_stlb_mshr_size 16
core_0_stlb_hit_latency 4
core_0_stlb_fill_latency 4
core_0_stlb_max_tag_check 1
core_0_stlb_max_fill 1
core_0_l1i_set 64
core_0_l1i_way 8
core_0_l1i_rq_size 64
core_0_l1i_wq_size 64
core_0_l1i_pq_size 32
core_0_l1i_mshr_size 8
core_0_l1i_hit_latency 2
core_0_l1i_fill_latency 2
core_0_l1i_max_tag_check 2
core_0_l1i_max_fill 2
core_0_l1d_set 64
core_0_l1d_way 12
core_0_l1d_rq_size 64
core_0_l1d_wq_size 64
core_0_l1d_pq_size 8
core_0_l1d_mshr_size 16
core_0_l1d_hit_latency 2
core_0_l1d_fill_latency 3
core_0_l1d_max_tag_check 2
core_0_l1d_max_fill 2
core_0_l2c_set 1024
core_0_l2c_way 8
core_0_l2c_rq_size 32
core_0_l2c_wq_size 32
core_0_l2c_pq_size 16
core_0_l2c_mshr_size 32
core_0_l2c_hit_latency 5
core_0_l2c_fill_latency 5
core_0_l2c_max_tag_check 1
core_0_l2c_max_fill 1
llc_set 2048
llc_way 16
llc_rq_size 32
llc_wq_size 32
llc_pq_size 32
llc_mshr_size 64
llc_hit_latency 10
llc_fill_latency 10
llc_max_tag_check 1
llc_max_fill 1
dram_channels 1
dram_ranks 1
dram_bankgroups 8
dram_banks 4
dram_rows 65536
dram_columns 1024
dram_channel_width 8
dram_rq_size 64
dram_wq_size 64
dram_size 17179869184
core_0_itlb_prefetcher no
core_0_dtlb_prefetcher no
core_0_stlb_prefetcher no
core_0_l1i_prefetcher next_line
core_0_l1d_prefetcher vberti
core_0_l2c_prefetcher ip_stride
llc_prefetcher no
llc_replacement drrip

Core_0_instructions 100000001
Core_0_cycles 645834240
Core_0_IPC 0.154838
Core_0_branch_prediction_accuracy 87.1027
Core_0_branch_MPKI 21.5612
Core_0_average_ROB_occupancy_at_mispredict 25.7705

Core_0_ITLB_total_access 17992
Core_0_ITLB_total_hit 17992
Core_0_ITLB_total_miss 0
Core_0_ITLB_total_MPKI 0
Core_0_ITLB_total_miss_rate 0
Core_0_ITLB_demand_access 17992
Core_0_ITLB_demand_hit 17992
Core_0_ITLB_demand_miss 0
Core_0_ITLB_demand_MPKI 0
Core_0_ITLB_demand_miss_rate 0
Core_0_ITLB_load_access 17992
Core_0_ITLB_load_hit 17992
Core_0_ITLB_load_miss 0
Core_0_ITLB_load_MPKI 0
Core_0_ITLB_load_miss_rate 0
Core_0_ITLB_rfo_access 0
Core_0_ITLB_rfo_hit 0
Core_0_ITLB_rfo_miss 0
Core_0_ITLB_rfo_MPKI 0
Core_0_ITLB_rfo_miss_rate 0
Core_0_ITLB_prefetch_access 0
Core_0_ITLB_prefetch_hit 0
Core_0_ITLB_prefetch_miss 0
Core_0_ITLB_prefetch_MPKI 0
Core_0_ITLB_prefetch_miss_rate 0
Core_0_ITLB_writeback_access 0
Core_0_ITLB_writeback_hit 0
Core_0_ITLB_writeback_miss 0
Core_0_ITLB_writeback_MPKI 0
Core_0_ITLB_writeback_miss_rate 0
Core_0_ITLB_prefetch_requested 0
Core_0_ITLB_prefetch_issued 0
Core_0_ITLB_prefetch_useful 0
Core_0_ITLB_prefetch_useless 0
Core_0_ITLB_prefetch_late 0
Core_0_ITLB_prefetch_fill 0
Core_0_ITLB_prefetch_too_early 0
Core_0_ITLB_prefetch_too_early_among_fill 0
Core_0_ITLB_prefetch_too_early_among_useless 0
Core_0_ITLB_prefetch_pollution_evict 0
Core_0_ITLB_prefetch_pollution_demand 0
Core_0_ITLB_prefetch_pollution_among_prefetch_fill 0
Core_0_ITLB_prefetch_accuracy 0
Core_0_ITLB_prefetch_coverage 0

Core_0_DTLB_total_access 13017678
Core_0_DTLB_total_hit 9004349
Core_0_DTLB_total_miss 4013329
Core_0_DTLB_total_MPKI 40.1333
Core_0_DTLB_total_miss_rate 0.308298
Core_0_DTLB_demand_access 13017678
Core_0_DTLB_demand_hit 9004349
Core_0_DTLB_demand_miss 4013329
Core_0_DTLB_demand_MPKI 40.1333
Core_0_DTLB_demand_miss_rate 0.308298
Core_0_DTLB_load_access 13017678
Core_0_DTLB_load_hit 9004349
Core_0_DTLB_load_miss 4013329
Core_0_DTLB_load_MPKI 40.1333
Core_0_DTLB_load_miss_rate 0.308298
Core_0_DTLB_rfo_access 0
Core_0_DTLB_rfo_hit 0
Core_0_DTLB_rfo_miss 0
Core_0_DTLB_rfo_MPKI 0
Core_0_DTLB_rfo_miss_rate 0
Core_0_DTLB_prefetch_access 0
Core_0_DTLB_prefetch_hit 0
Core_0_DTLB_prefetch_miss 0
Core_0_DTLB_prefetch_MPKI 0
Core_0_DTLB_prefetch_miss_rate 0
Core_0_DTLB_writeback_access 0
Core_0_DTLB_writeback_hit 0
Core_0_DTLB_writeback_miss 0
Core_0_DTLB_writeback_MPKI 0
Core_0_DTLB_writeback_miss_rate 0
Core_0_DTLB_prefetch_requested 0
Core_0_DTLB_prefetch_issued 0
Core_0_DTLB_prefetch_useful 0
Core_0_DTLB_prefetch_useless 0
Core_0_DTLB_prefetch_late 0
Core_0_DTLB_prefetch_fill 0
Core_0_DTLB_prefetch_too_early 0
Core_0_DTLB_prefetch_too_early_among_fill 0
Core_0_DTLB_prefetch_too_early_among_useless 0
Core_0_DTLB_prefetch_pollution_evict 0
Core_0_DTLB_prefetch_pollution_demand 0
Core_0_DTLB_prefetch_pollution_among_prefetch_fill 0
Core_0_DTLB_prefetch_accuracy 0
Core_0_DTLB_prefetch_coverage 0

Core_0_STLB_total_access 3799534
Core_0_STLB_total_hit 146485
Core_0_STLB_total_miss 3653049
Core_0_STLB_total_MPKI 36.5305
Core_0_STLB_total_miss_rate 0.961447
Core_0_STLB_demand_access 3799534
Core_0_STLB_demand_hit 146485
Core_0_STLB_demand_miss 3653049
Core_0_STLB_demand_MPKI 36.5305
Core_0_STLB_demand_miss_rate 0.961447
Core_0_STLB_load_access 3799534
Core_0_STLB_load_hit 146485
Core_0_STLB_load_miss 3653049
Core_0_STLB_load_MPKI 36.5305
Core_0_STLB_load_miss_rate 0.961447
Core_0_STLB_rfo_access 0
Core_0_STLB_rfo_hit 0
Core_0_STLB_rfo_miss 0
Core_0_STLB_rfo_MPKI 0
Core_0_STLB_rfo_miss_rate 0
Core_0_STLB_prefetch_access 0
Core_0_STLB_prefetch_hit 0
Core_0_STLB_prefetch_miss 0
Core_0_STLB_prefetch_MPKI 0
Core_0_STLB_prefetch_miss_rate 0
Core_0_STLB_writeback_access 0
Core_0_STLB_writeback_hit 0
Core_0_STLB_writeback_miss 0
Core_0_STLB_writeback_MPKI 0
Core_0_STLB_writeback_miss_rate 0
Core_0_STLB_prefetch_requested 0
Core_0_STLB_prefetch_issued 0
Core_0_STLB_prefetch_useful 0
Core_0_STLB_prefetch_useless 0
Core_0_STLB_prefetch_late 0
Core_0_STLB_prefetch_fill 0
Core_0_STLB_prefetch_too_early 0
Core_0_STLB_prefetch_too_early_among_fill 0
Core_0_STLB_prefetch_too_early_among_useless 0
Core_0_STLB_prefetch_pollution_evict 0
Core_0_STLB_prefetch_pollution_demand 0
Core_0_STLB_prefetch_pollution_among_prefetch_fill 0
Core_0_STLB_prefetch_accuracy 0
Core_0_STLB_prefetch_coverage 0

Core_0_L1I_total_access 22121
Core_0_L1I_total_hit 22121
Core_0_L1I_total_miss 0
Core_0_L1I_total_MPKI 0
Core_0_L1I_total_miss_rate 0
Core_0_L1I_demand_access 22121
Core_0_L1I_demand_hit 22121
Core_0_L1I_demand_miss 0
Core_0_L1I_demand_MPKI 0
Core_0_L1I_demand_miss_rate 0
Core_0_L1I_load_access 22121
Core_0_L1I_load_hit 22121
Core_0_L1I_load_miss 0
Core_0_L1I_load_MPKI 0
Core_0_L1I_load_miss_rate 0
Core_0_L1I_rfo_access 0
Core_0_L1I_rfo_hit 0
Core_0_L1I_rfo_miss 0
Core_0_L1I_rfo_MPKI 0
Core_0_L1I_rfo_miss_rate 0
Core_0_L1I_prefetch_access 0
Core_0_L1I_prefetch_hit 0
Core_0_L1I_prefetch_miss 0
Core_0_L1I_prefetch_MPKI 0
Core_0_L1I_prefetch_miss_rate 0
Core_0_L1I_writeback_access 0
Core_0_L1I_writeback_hit 0
Core_0_L1I_writeback_miss 0
Core_0_L1I_writeback_MPKI 0
Core_0_L1I_writeback_miss_rate 0
Core_0_L1I_prefetch_requested 0
Core_0_L1I_prefetch_issued 0
Core_0_L1I_prefetch_useful 0
Core_0_L1I_prefetch_useless 0
Core_0_L1I_prefetch_late 0
Core_0_L1I_prefetch_fill 0
Core_0_L1I_prefetch_too_early 0
Core_0_L1I_prefetch_too_early_among_fill 0
Core_0_L1I_prefetch_too_early_among_useless 0
Core_0_L1I_prefetch_pollution_evict 0
Core_0_L1I_prefetch_pollution_demand 0
Core_0_L1I_prefetch_pollution_among_prefetch_fill 0
Core_0_L1I_prefetch_accuracy 0
Core_0_L1I_prefetch_coverage 0

Core_0_L1D_total_access 13687074
Core_0_L1D_total_hit 6705505
Core_0_L1D_total_miss 6981569
Core_0_L1D_total_MPKI 69.8157
Core_0_L1D_total_miss_rate 0.510085
Core_0_L1D_demand_access 9633385
Core_0_L1D_demand_hit 3657395
Core_0_L1D_demand_miss 5975990
Core_0_L1D_demand_MPKI 59.7599
Core_0_L1D_demand_miss_rate 0.620342
Core_0_L1D_load_access 9633385
Core_0_L1D_load_hit 3657395
Core_0_L1D_load_miss 5975990
Core_0_L1D_load_MPKI 59.7599
Core_0_L1D_load_miss_rate 0.620342
Core_0_L1D_rfo_access 0
Core_0_L1D_rfo_hit 0
Core_0_L1D_rfo_miss 0
Core_0_L1D_rfo_MPKI 0
Core_0_L1D_rfo_miss_rate 0
Core_0_L1D_prefetch_access 2151280
Core_0_L1D_prefetch_hit 1217310
Core_0_L1D_prefetch_miss 933970
Core_0_L1D_prefetch_MPKI 9.3397
Core_0_L1D_prefetch_miss_rate 0.434146
Core_0_L1D_writeback_access 1902409
Core_0_L1D_writeback_hit 1830800
Core_0_L1D_writeback_miss 71609
Core_0_L1D_writeback_MPKI 0.71609
Core_0_L1D_writeback_miss_rate 0.0376412
Core_0_L1D_prefetch_requested 2435524
Core_0_L1D_prefetch_issued 2151278
Core_0_L1D_prefetch_useful 38923
Core_0_L1D_prefetch_useless 47570
Core_0_L1D_prefetch_late 0
Core_0_L1D_prefetch_fill 86516
Core_0_L1D_prefetch_too_early 2077
Core_0_L1D_prefetch_too_early_among_fill 0.0240071
Core_0_L1D_prefetch_too_early_among_useless 0.043662
Core_0_L1D_prefetch_pollution_evict 15279
Core_0_L1D_prefetch_pollution_demand 15270
Core_0_L1D_prefetch_pollution_among_prefetch_fill 0.176603
Core_0_L1D_prefetch_accuracy 0.018093
Core_0_L1D_prefetch_coverage 0.00647108

Core_0_L2C_total_access 7172216
Core_0_L2C_total_hit 1311622
Core_0_L2C_total_miss 5860594
Core_0_L2C_total_MPKI 58.6059
Core_0_L2C_total_miss_rate 0.817125
Core_0_L2C_demand_access 5889262
Core_0_L2C_demand_hit 284112
Core_0_L2C_demand_miss 5605150
Core_0_L2C_demand_MPKI 56.0515
Core_0_L2C_demand_miss_rate 0.951758
Core_0_L2C_load_access 5865549
Core_0_L2C_load_hit 261199
Core_0_L2C_load_miss 5604350
Core_0_L2C_load_MPKI 56.0435
Core_0_L2C_load_miss_rate 0.955469
Core_0_L2C_rfo_access 23713
Core_0_L2C_rfo_hit 22913
Core_0_L2C_rfo_miss 800
Core_0_L2C_rfo_MPKI 0.008
Core_0_L2C_rfo_miss_rate 0.0337368
Core_0_L2C_prefetch_access 1255793
Core_0_L2C_prefetch_hit 1000363
Core_0_L2C_prefetch_miss 255430
Core_0_L2C_prefetch_MPKI 2.5543
Core_0_L2C_prefetch_miss_rate 0.203401
Core_0_L2C_writeback_access 27161
Core_0_L2C_writeback_hit 27147
Core_0_L2C_writeback_miss 14
Core_0_L2C_writeback_MPKI 0.00014
Core_0_L2C_writeback_miss_rate 0.000515445
Core_0_L2C_prefetch_requested 321825
Core_0_L2C_prefetch_issued 321825
Core_0_L2C_prefetch_useful 14882
Core_0_L2C_prefetch_useless 160312
Core_0_L2C_prefetch_late 110
Core_0_L2C_prefetch_fill 247054
Core_0_L2C_prefetch_too_early 164
Core_0_L2C_prefetch_too_early_among_fill 0.000663822
Core_0_L2C_prefetch_too_early_among_useless 0.00102301
Core_0_L2C_prefetch_pollution_evict 53878
Core_0_L2C_prefetch_pollution_demand 53874
Core_0_L2C_prefetch_pollution_among_prefetch_fill 0.218082
Core_0_L2C_prefetch_accuracy 0.0462425
Core_0_L2C_prefetch_coverage 0.00264803

Core_0_LLC_total_access 5854336
Core_0_LLC_total_hit 1438900
Core_0_LLC_total_miss 4415436
Core_0_LLC_total_MPKI 44.1544
Core_0_LLC_total_miss_rate 0.754216
Core_0_LLC_demand_access 5605040
Core_0_LLC_demand_hit 1354013
Core_0_LLC_demand_miss 4251027
Core_0_LLC_demand_MPKI 42.5103
Core_0_LLC_demand_miss_rate 0.758429
Core_0_LLC_load_access 5604240
Core_0_LLC_load_hit 1353218
Core_0_LLC_load_miss 4251022
Core_0_LLC_load_MPKI 42.5102
Core_0_LLC_load_miss_rate 0.758537
Core_0_LLC_rfo_access 800
Core_0_LLC_rfo_hit 795
Core_0_LLC_rfo_miss 5
Core_0_LLC_rfo_MPKI 5e-05
Core_0_LLC_rfo_miss_rate 0.00625
Core_0_LLC_prefetch_access 247166
Core_0_LLC_prefetch_hit 82769
Core_0_LLC_prefetch_miss 164397
Core_0_LLC_prefetch_MPKI 1.64397
Core_0_LLC_prefetch_miss_rate 0.665128
Core_0_LLC_writeback_access 2130
Core_0_LLC_writeback_hit 2118
Core_0_LLC_writeback_miss 12
Core_0_LLC_writeback_MPKI 0.00012
Core_0_LLC_writeback_miss_rate 0.0056338
Core_0_LLC_prefetch_requested 0
Core_0_LLC_prefetch_issued 0
Core_0_LLC_prefetch_useful 0
Core_0_LLC_prefetch_useless 0
Core_0_LLC_prefetch_late 0
Core_0_LLC_prefetch_fill 164397
Core_0_LLC_prefetch_too_early 0
Core_0_LLC_prefetch_too_early_among_fill 0
Core_0_LLC_prefetch_too_early_among_useless 0
Core_0_LLC_prefetch_pollution_evict 38626
Core_0_LLC_prefetch_pollution_demand 38626
Core_0_LLC_prefetch_pollution_among_prefetch_fill 0.234956
Core_0_LLC_prefetch_accuracy 0
Core_0_LLC_prefetch_coverage 0

[DRAM Statistics]
Channel_0_RQ_row_buffer_hit 57047
Channel_0_RQ_row_buffer_miss 5516154
Channel_0_WQ_row_buffer_hit 2
Channel_0_WQ_row_buffer_miss 12
Channel_0_WQ_full 0
Channel_0_dbus_congested 5907140
DRAM_total_RQ_row_buffer_hit 57047
DRAM_total_RQ_row_buffer_miss 5516154
DRAM_total_WQ_row_buffer_hit 2
DRAM_total_WQ_row_buffer_miss 12
DRAM_total_WQ_full 0
DRAM_total_dbus_congested 5907140
DRAM_avg_congested_cycle 2.93796

====== DRAM_RQ_TRAFFIC ========
DRAM_RQ_READ_TRAFFIC_BREAKDOWN:
data_demand_read.count = 4251027
data_demand_read.share = 76.28%

inst_demand_read.count = 0
inst_demand_read.share = 0.00%

cache_inst_prefetch.count = 0
cache_inst_prefetch.share = 0.00%

cache_data_prefetch.count = 164397
cache_data_prefetch.share = 2.95%

stlb_data_demand.count = 1157772
stlb_data_demand.share = 20.77%

stlb_inst_demand.count = 0
stlb_inst_demand.share = 0.00%

stlb_l1i_pref.count = 0
stlb_l1i_pref.share = 0.00%

stlb_l1d_pref.count = 5
stlb_l1d_pref.share = 0.00%

DRAM_RQ_READ_TRAFFIC_SUMMARY:
cache_demand.count = 4251027
cache_demand.share = 76.28%

cache_prefetch.count = 164397
cache_prefetch.share = 2.95%

stlb_demand.count = 1157772
stlb_demand.share = 20.77%

stlb_prefetch.count = 5
stlb_prefetch.share = 0.00%

DRAM_RQ_READ_TRAFFIC_DEBUG:
total_classified_read.count = 5573201
unclassified_read.count = 0
total_read_with_other.count = 5573201

classified_plus_unclassified_check.count = 5573201
dram_rq_read_total_observed.count = 5573201
dram_rq_read_total_observed.per_1K_instructions = 55.732

STLB_MISS_PTW_DRAM_TOUCH_BREAKDOWN:
stlb_miss_total.count = 3652524

stlb_miss_touch_dram.count = 1163585
stlb_miss_touch_dram.share = 31.86%

stlb_miss_no_dram_touch.count = 2488939
stlb_miss_no_dram_touch.share = 68.14%

STLB_MISS_PTW_DRAM_TOUCH_DEBUG:
stlb_miss_touch_plus_no_touch.count = 3652524
stlb_miss_total_check.count = 3652524

======STLB miss causes ========
Core_0_STLB_miss_cause_breakdown
Core_0_STLB_cause_Demand_Data_miss 3648444
Core_0_STLB_cause_Demand_Data_miss_rate 0.960235
Core_0_STLB_cause_Demand_Instruction_miss 0
Core_0_STLB_cause_Demand_Instruction_miss_rate 0
Core_0_STLB_cause_L1D_Prefetch_miss 4605
Core_0_STLB_cause_L1D_Prefetch_miss_rate 0.00121199
Core_0_STLB_cause_L1D_Prefetch_Same_Page_miss 0
Core_0_STLB_cause_L1D_Prefetch_Same_Page_miss_rate 0
Core_0_STLB_cause_L1D_Prefetch_Cross_Page_miss 4605
Core_0_STLB_cause_L1D_Prefetch_Cross_Page_miss_rate 0.00121199
Core_0_STLB_cause_L1I_Prefetch_miss 0
Core_0_STLB_cause_L1I_Prefetch_miss_rate 0
Core_0_STLB_cause_Other_miss 0
Core_0_STLB_cause_Other_miss_rate 0
Core_0_STLB_Demand_miss 3648444
Core_0_STLB_Demand_miss_rate 0.960235
Core_0_STLB_L1D_Prefetch_miss 4605
Core_0_STLB_L1D_Prefetch_miss_rate 0.00121199
Core_0_STLB_Other_miss 0
Core_0_STLB_Other_miss_rate 0

========== vBerti-TLB Cross-page Flow Stats ==========

Core_0_vBerti_Requested 2435524
Core_0_vBerti_Cross_page_prefetch_in_Requested 285701
Core_0_vBerti_Same_page_prefetch_in_Requested 2149823
Core_0_vBerti_Cross_page_prefetch_of_Requested 0.117306
Core_0_vBerti_Issued 2151278
Core_0_vBerti_InPQ_Same_page_prefetch 1926868
Core_0_vBerti_InPQ_Cross_page_prefetch 224410
Core_0_vBerti_PQ_Drop_Rate 0.116708
Core_0_vBerti_InPQ_Cross_page_prefetch_of_Requested 0.0921403
Core_0_vBerti_Cross_page_PQ_Drop_rate 0.214528
Core_0_vBerti_Cross_page_prefetch_of_Issued 0.104315
Core_0_CP_PF_PQFULL_drop 61291
Core_0_CP_PF_PQFULL_TLB_rescue_enqueued 61291
Core_0_CP_PF_PQFULL_TLB_rescue_issued 61291
Core_0_CP_PF_PQFULL_TLB_rescue_translated 61291

========= DTLB_vBerti Prefetch Stats =========
Core_0_DTLB_demand_access 11355777
Core_0_DTLB_demand_hit 7349765
Core_0_DTLB_demand_miss 4006012
Core_0_DTLB_demand_mshr_merge 211460
Core_0_DTLB_demand_fill 3794554
Core_0_DTLB_demand_miss_rate 0.352773
Core_0_DTLB_demand_mpki 40.0601
Core_0_DTLB_vberti_prefetch_access 1661901
Core_0_DTLB_vberti_prefetch_hit 1654584
Core_0_DTLB_vberti_prefetch_miss 7317
Core_0_DTLB_vberti_prefetch_mshr_merge 2335
Core_0_DTLB_vberti_prefetch_fill 4982
Core_0_DTLB_vberti_prefetch_miss_rate 0.00440279
Core_0_DTLB_vberti_prefetch_mpki 0.07317

=== DTLB_vBerti Same/Cross-page Prefetch Stats ===
Core_0_DTLB_vberti_same_page_prefetch 1449453
Core_0_DTLB_vberti_same_page_prefetch_hit 1449453
Core_0_DTLB_vberti_same_page_prefetch_miss 0
Core_0_DTLB_vberti_same_page_prefetch_mshr_merge 0
Core_0_DTLB_vberti_same_page_prefetch_fill 0
Core_0_DTLB_vberti_same_page_prefetch_miss_rate 0
Core_0_DTLB_vberti_same_page_prefetch_mpki 0
Core_0_DTLB_vberti_cross_page_prefetch 212448
Core_0_DTLB_vberti_cross_page_prefetch_hit 205131
Core_0_DTLB_vberti_cross_page_prefetch_miss 7317
Core_0_DTLB_vberti_cross_page_prefetch_mshr_merge 2335
Core_0_DTLB_vberti_cross_page_prefetch_fill 4982
Core_0_DTLB_vberti_cross_page_prefetch_miss_rate 0.0344414
Core_0_DTLB_vberti_cross_page_prefetch_mpki 0.07317
Core_0_DTLB_same_page_prefetch_miss_rate 0
Core_0_DTLB_same_page_prefetch_mpki 0
Core_0_DTLB_cross_page_prefetch_miss_rate 0.0344414
Core_0_DTLB_cross_page_prefetch_mpki 0.07317
Core_0_DTLB_cross_page_prefetch_issued 212448
Core_0_DTLB_cross_page_prefetch_lookups 212448
Core_0_DTLB_cross_page_prefetch_useful 817
Core_0_DTLB_cross_page_prefetch_useless 4165
Core_0_DTLB_cross_page_prefetch_late 0
Core_0_DTLB_cross_page_prefetch_too_early 336
Core_0_DTLB_cross_page_prefetch_too_early_among_fill 0.0674428
Core_0_DTLB_cross_page_prefetch_too_early_among_useless 0.0806723
Core_0_DTLB_cross_page_prefetch_pollution_evict 2614
Core_0_DTLB_cross_page_prefetch_pollution_demand 2614
Core_0_DTLB_cross_page_prefetch_pollution_among_prefetch_fill 0.524689
Core_0_DTLB_cross_page_prefetch_accuracy 0.00384565
Core_0_DTLB_cross_page_prefetch_coverage 0.000203902

========= STLB_vBerti Prefetch Stats =========
Core_0_STLB_demand_access 3794552
Core_0_STLB_demand_hit 146108
Core_0_STLB_demand_miss 3648444
Core_0_STLB_demand_mshr_merge 0
Core_0_STLB_demand_fill 3648446
Core_0_STLB_demand_miss_rate 0.961495
Core_0_STLB_demand_mpki 36.4844
Core_0_STLB_vberti_prefetch_access 4982
Core_0_STLB_vberti_prefetch_hit 377
Core_0_STLB_vberti_prefetch_miss 4605
Core_0_STLB_vberti_prefetch_mshr_merge 0
Core_0_STLB_vberti_prefetch_fill 0
Core_0_STLB_vberti_prefetch_miss_rate 0.924328
Core_0_STLB_vberti_prefetch_mpki 0.04605

=== STLB_vBerti Same/Cross-page Prefetch Stats ===
Core_0_STLB_vberti_same_page_prefetch 0
Core_0_STLB_vberti_same_page_prefetch_hit 0
Core_0_STLB_vberti_same_page_prefetch_miss 0
Core_0_STLB_vberti_same_page_prefetch_mshr_merge 0
Core_0_STLB_vberti_same_page_prefetch_fill 0
Core_0_STLB_vberti_same_page_prefetch_miss_rate 0
Core_0_STLB_vberti_same_page_prefetch_mpki 0
Core_0_STLB_vberti_cross_page_prefetch 4982
Core_0_STLB_vberti_cross_page_prefetch_hit 377
Core_0_STLB_vberti_cross_page_prefetch_miss 4605
Core_0_STLB_vberti_cross_page_prefetch_mshr_merge 0
Core_0_STLB_vberti_cross_page_prefetch_fill 0
Core_0_STLB_vberti_cross_page_prefetch_miss_rate 0.924328
Core_0_STLB_vberti_cross_page_prefetch_mpki 0.04605
Core_0_STLB_same_page_prefetch_miss_rate 0
Core_0_STLB_same_page_prefetch_mpki 0
Core_0_STLB_cross_page_prefetch_miss_rate 0.924328
Core_0_STLB_cross_page_prefetch_mpki 0.04605
Core_0_STLB_cross_page_prefetch_issued 4982
Core_0_STLB_cross_page_prefetch_lookups 4982
Core_0_STLB_cross_page_prefetch_useful 525
Core_0_STLB_cross_page_prefetch_useless 3333
Core_0_STLB_cross_page_prefetch_late 525
Core_0_STLB_cross_page_prefetch_too_early 0
Core_0_STLB_cross_page_prefetch_too_early_among_fill 0
Core_0_STLB_cross_page_prefetch_too_early_among_useless 0
Core_0_STLB_cross_page_prefetch_pollution_evict 0
Core_0_STLB_cross_page_prefetch_pollution_demand 0
Core_0_STLB_cross_page_prefetch_pollution_among_prefetch_fill 0
Core_0_STLB_cross_page_prefetch_accuracy 0.105379
Core_0_STLB_cross_page_prefetch_coverage 0.000143876

========= STLB Cross-page Prefetch Buffer Stats =========
Core_0_STLB_raw_demand_miss 3648444
Core_0_CP_PB_insert 4605
Core_0_CP_PB_demand_hit 525
Core_0_STLB_PB_demand_miss 3647919
Core_0_CP_PB_coverage 0.000143897
Core_0_STLB_raw_demand_mpki 36.4844
Core_0_STLB_PB_demand_mpki 36.4792
Core_0_CP_PB_demand_hit_mpki 0.00525

Core_0_TLB_demand_miss_rate 0.321285
Core_0_TLB_demand_mpki 36.4844
Core_0_TLB_same_page_prefetch_miss_rate 0
Core_0_TLB_same_page_prefetch_mpki 0
Core_0_TLB_cross_page_prefetch_miss_rate 0.0216759
Core_0_TLB_cross_page_prefetch_mpki 0.04605
Core_0_TLB_cross_page_prefetch_issued 212448
Core_0_TLB_cross_page_prefetch_lookups 212448
Core_0_TLB_cross_page_prefetch_useful 7
Core_0_TLB_cross_page_prefetch_useless 3417
Core_0_TLB_cross_page_prefetch_late 0
Core_0_TLB_cross_page_prefetch_too_early 69
Core_0_TLB_cross_page_prefetch_too_early_among_fill 0.0138499
Core_0_TLB_cross_page_prefetch_too_early_among_useless 0.0201932
Core_0_TLB_cross_page_prefetch_accuracy 3.29492e-05
Core_0_TLB_cross_page_prefetch_coverage 1.91862e-06
BERTI TO_L1: 1568758 TO_L2: 1569512 TO_L2_BC_MSHR: 0
BERTI AVG_LAT: 115.655 NUM_TRACK_LATENCY: 8935801 NUM_CANT_TRACK_LATENCY: 0
BERTI CROSS_PAGE 306989 NO_CROSS_PAGE: 2831281
BERTI FOUND_BERTI: 12688614 NO_FOUND_BERTI: 4049733
BERTI AVERAGE_ISSUED: 2.86996
