[VMEM] WARNING: physical memory size is smaller than virtual memory size.

*** ChampSim Multicore Out-of-Order Simulator ***
Warmup Instructions: 50000000
Simulation Instructions: 100000000
Number of CPUs: 1
Page size: 4096
Core 0: /data2/zcq/champsim_traces_xsbench/xs.XXL64hash-205B.champsimtrace.xz
VBerti Prefetcher
BERTI HASH ENTANGLING
BERTI IP MASK ffff
Off-chip DRAM Size: 16 GiB Channels: 1 Width: 64-bit Data Rate: 3205 MT/s
Warmup halting CPU 0 at instruction 50000004 cycle 32587869 for remainder of phase
Warmup finished CPU 0 instructions: 50000004 cycles: 32587869 cumulative IPC: 1.534 (Simulation time: 00 hr 08 min 14 sec)
Warmup complete CPU 0 instructions: 50000004 cycles: 32587869 cumulative IPC: 1.534 (Simulation time: 00 hr 08 min 14 sec)
Simulation finished CPU 0 instructions: 100000005 cycles: 506337986 cumulative IPC: 0.1975 (Simulation time: 00 hr 57 min 25 sec)
Simulation complete CPU 0 instructions: 100000005 cycles: 506337986 cumulative IPC: 0.1975 (Simulation time: 00 hr 57 min 25 sec)

ChampSim completed all CPUs

=== Simulation ===
CPU 0 runs /data2/zcq/champsim_traces_xsbench/xs.XXL64hash-205B.champsimtrace.xz

Region of Interest Statistics

CPU 0 cumulative IPC: 0.1975 instructions: 100000005 cycles: 506337986
CPU 0 Branch Prediction Accuracy: 92.97% MPKI: 10.17 Average ROB Occupancy at Mispredict: 65.93
Branch type MPKI
BRANCH_DIRECT_JUMP: 1e-05
BRANCH_INDIRECT: 0
BRANCH_CONDITIONAL: 10.17
BRANCH_DIRECT_CALL: 0
BRANCH_INDIRECT_CALL: 0
BRANCH_RETURN: 0

cpu0->cpu0_STLB TOTAL        ACCESS:     949771 HIT:      12713 MISS:     937058 MSHR_MERGE:          0
cpu0->cpu0_STLB LOAD         ACCESS:     949771 HIT:      12713 MISS:     937058 MSHR_MERGE:          0
cpu0->cpu0_STLB RFO          ACCESS:          0 HIT:          0 MISS:          0 MSHR_MERGE:          0
cpu0->cpu0_STLB PREFETCH     ACCESS:          0 HIT:          0 MISS:          0 MSHR_MERGE:          0
cpu0->cpu0_STLB WRITE        ACCESS:          0 HIT:          0 MISS:          0 MSHR_MERGE:          0
cpu0->cpu0_STLB TRANSLATION  ACCESS:          0 HIT:          0 MISS:          0 MSHR_MERGE:          0
cpu0->cpu0_STLB PREFETCH REQUESTED:          0 ISSUED:          0 USEFUL:          0 USELESS:          0 LATE:          0 TOO_EARLY:          0
cpu0->cpu0_STLB AVERAGE MISS LATENCY: 371.9 cycles
cpu0->cpu0_L2C TOTAL        ACCESS:    7728378 HIT:    2193176 MISS:    5535202 MSHR_MERGE:      38939
cpu0->cpu0_L2C LOAD         ACCESS:    4415208 HIT:      73282 MISS:    4341926 MSHR_MERGE:       2521
cpu0->cpu0_L2C RFO          ACCESS:       7518 HIT:       7342 MISS:        176 MSHR_MERGE:          0
cpu0->cpu0_L2C PREFETCH     ACCESS:    2143075 HIT:    1692150 MISS:     450925 MSHR_MERGE:      36418
cpu0->cpu0_L2C WRITE        ACCESS:      12351 HIT:      12251 MISS:        100 MSHR_MERGE:          0
cpu0->cpu0_L2C TRANSLATION  ACCESS:    1150226 HIT:     408151 MISS:     742075 MSHR_MERGE:          0
cpu0->cpu0_L2C PREFETCH REQUESTED:     556609 ISSUED:     556609 USEFUL:      40503 USELESS:     280637 LATE:       2498 TOO_EARLY:        196
cpu0->cpu0_L2C AVERAGE MISS LATENCY: 220.2 cycles
cpu0->cpu0_L1I TOTAL        ACCESS:     338587 HIT:     338587 MISS:          0 MSHR_MERGE:          0
cpu0->cpu0_L1I LOAD         ACCESS:     338587 HIT:     338587 MISS:          0 MSHR_MERGE:          0
cpu0->cpu0_L1I RFO          ACCESS:          0 HIT:          0 MISS:          0 MSHR_MERGE:          0
cpu0->cpu0_L1I PREFETCH     ACCESS:          0 HIT:          0 MISS:          0 MSHR_MERGE:          0
cpu0->cpu0_L1I WRITE        ACCESS:          0 HIT:          0 MISS:          0 MSHR_MERGE:          0
cpu0->cpu0_L1I TRANSLATION  ACCESS:          0 HIT:          0 MISS:          0 MSHR_MERGE:          0
cpu0->cpu0_L1I PREFETCH REQUESTED:          0 ISSUED:          0 USEFUL:          0 USELESS:          0 LATE:          0 TOO_EARLY:          0
cpu0->cpu0_L1I AVERAGE MISS LATENCY: - cycles
cpu0->cpu0_L1D TOTAL        ACCESS:   23346494 HIT:   14859200 MISS:    8487294 MSHR_MERGE:    1327850
cpu0->cpu0_L1D LOAD         ACCESS:   13920891 HIT:    8501616 MISS:    5419275 MSHR_MERGE:    1004067
cpu0->cpu0_L1D RFO          ACCESS:          0 HIT:          0 MISS:          0 MSHR_MERGE:          0
cpu0->cpu0_L1D PREFETCH     ACCESS:    3956567 HIT:    2367921 MISS:    1588646 MSHR_MERGE:       2163
cpu0->cpu0_L1D WRITE        ACCESS:    3261483 HIT:    3231365 MISS:      30118 MSHR_MERGE:      22591
cpu0->cpu0_L1D TRANSLATION  ACCESS:    2207553 HIT:     758298 MISS:    1449255 MSHR_MERGE:     299029
cpu0->cpu0_L1D PREFETCH REQUESTED:    3957242 ISSUED:    3956562 USEFUL:     128500 USELESS:      37320 LATE:        253 TOO_EARLY:        142
cpu0->cpu0_L1D AVERAGE MISS LATENCY: 210.4 cycles
cpu0->cpu0_ITLB TOTAL        ACCESS:     283270 HIT:     283270 MISS:          0 MSHR_MERGE:          0
cpu0->cpu0_ITLB LOAD         ACCESS:     283270 HIT:     283270 MISS:          0 MSHR_MERGE:          0
cpu0->cpu0_ITLB RFO          ACCESS:          0 HIT:          0 MISS:          0 MSHR_MERGE:          0
cpu0->cpu0_ITLB PREFETCH     ACCESS:          0 HIT:          0 MISS:          0 MSHR_MERGE:          0
cpu0->cpu0_ITLB WRITE        ACCESS:          0 HIT:          0 MISS:          0 MSHR_MERGE:          0
cpu0->cpu0_ITLB TRANSLATION  ACCESS:          0 HIT:          0 MISS:          0 MSHR_MERGE:          0
cpu0->cpu0_ITLB PREFETCH REQUESTED:          0 ISSUED:          0 USEFUL:          0 USELESS:          0 LATE:          0 TOO_EARLY:          0
cpu0->cpu0_ITLB AVERAGE MISS LATENCY: - cycles
cpu0->cpu0_DTLB TOTAL        ACCESS:   20026151 HIT:   16617933 MISS:    3408218 MSHR_MERGE:    2458447
cpu0->cpu0_DTLB LOAD         ACCESS:   20026151 HIT:   16617933 MISS:    3408218 MSHR_MERGE:    2458447
cpu0->cpu0_DTLB RFO          ACCESS:          0 HIT:          0 MISS:          0 MSHR_MERGE:          0
cpu0->cpu0_DTLB PREFETCH     ACCESS:          0 HIT:          0 MISS:          0 MSHR_MERGE:          0
cpu0->cpu0_DTLB WRITE        ACCESS:          0 HIT:          0 MISS:          0 MSHR_MERGE:          0
cpu0->cpu0_DTLB TRANSLATION  ACCESS:          0 HIT:          0 MISS:          0 MSHR_MERGE:          0
cpu0->cpu0_DTLB PREFETCH REQUESTED:          0 ISSUED:          0 USEFUL:          0 USELESS:          0 LATE:          0 TOO_EARLY:          0
cpu0->cpu0_DTLB AVERAGE MISS LATENCY: 372.7 cycles
cpu0->LLC TOTAL        ACCESS:    5496974 HIT:     176840 MISS:    5320134 MSHR_MERGE:          0
cpu0->LLC LOAD         ACCESS:    4339405 HIT:       8845 MISS:    4330560 MSHR_MERGE:          0
cpu0->LLC RFO          ACCESS:        176 HIT:        176 MISS:          0 MSHR_MERGE:          0
cpu0->LLC PREFETCH     ACCESS:     414507 HIT:      29845 MISS:     384662 MSHR_MERGE:          0
cpu0->LLC WRITE        ACCESS:        811 HIT:        793 MISS:         18 MSHR_MERGE:          0
cpu0->LLC TRANSLATION  ACCESS:     742075 HIT:     137181 MISS:     604894 MSHR_MERGE:          0
cpu0->LLC PREFETCH REQUESTED:          0 ISSUED:          0 USEFUL:          0 USELESS:          0 LATE:          0 TOO_EARLY:          0
cpu0->LLC AVERAGE MISS LATENCY: 210.2 cycles

DRAM Statistics

Channel 0 RQ ROW_BUFFER_HIT:      80932
  ROW_BUFFER_MISS:    5239184
  AVG DBUS CONGESTED CYCLE: 3.002
Channel 0 WQ ROW_BUFFER_HIT:          7
  ROW_BUFFER_MISS:          9
  FULL:          0
Channel 0 REFRESHES ISSUED:      42195

[ROI Statistics]
[System Configuration]
num_cpus 1
cpu_freq 4000
fetch_width 6
decode_width 6
dispatch_width 6
execute_width 6
lq_width 2
sq_width 2
retire_width 6
scheduler_size 128
branch_mispredict_penalty 15
rob_size 352
lq_size 128
sq_size 72
ifetch_buffer_size 64
decode_buffer_size 32
dispatch_buffer_size 32
register_file_size 288
decode_latency 1
dispatch_latency 1
schedule_latency 1
execute_latency 1
page_size 4096
block_size 64
core_0_itlb_set 16
core_0_itlb_way 4
core_0_itlb_rq_size 16
core_0_itlb_wq_size 16
core_0_itlb_pq_size 0
core_0_itlb_mshr_size 8
core_0_itlb_hit_latency 1
core_0_itlb_fill_latency 1
core_0_itlb_max_tag_check 2
core_0_itlb_max_fill 2
core_0_dtlb_set 16
core_0_dtlb_way 4
core_0_dtlb_rq_size 16
core_0_dtlb_wq_size 16
core_0_dtlb_pq_size 0
core_0_dtlb_mshr_size 8
core_0_dtlb_hit_latency 1
core_0_dtlb_fill_latency 1
core_0_dtlb_max_tag_check 2
core_0_dtlb_max_fill 2
core_0_stlb_set 128
core_0_stlb_way 12
core_0_stlb_rq_size 32
core_0_stlb_wq_size 32
core_0_stlb_pq_size 0
core_0_stlb_mshr_size 16
core_0_stlb_hit_latency 4
core_0_stlb_fill_latency 4
core_0_stlb_max_tag_check 1
core_0_stlb_max_fill 1
core_0_l1i_set 64
core_0_l1i_way 8
core_0_l1i_rq_size 64
core_0_l1i_wq_size 64
core_0_l1i_pq_size 32
core_0_l1i_mshr_size 8
core_0_l1i_hit_latency 2
core_0_l1i_fill_latency 2
core_0_l1i_max_tag_check 2
core_0_l1i_max_fill 2
core_0_l1d_set 64
core_0_l1d_way 12
core_0_l1d_rq_size 64
core_0_l1d_wq_size 64
core_0_l1d_pq_size 8
core_0_l1d_mshr_size 16
core_0_l1d_hit_latency 2
core_0_l1d_fill_latency 3
core_0_l1d_max_tag_check 2
core_0_l1d_max_fill 2
core_0_l2c_set 1024
core_0_l2c_way 8
core_0_l2c_rq_size 32
core_0_l2c_wq_size 32
core_0_l2c_pq_size 16
core_0_l2c_mshr_size 32
core_0_l2c_hit_latency 5
core_0_l2c_fill_latency 5
core_0_l2c_max_tag_check 1
core_0_l2c_max_fill 1
llc_set 2048
llc_way 16
llc_rq_size 32
llc_wq_size 32
llc_pq_size 32
llc_mshr_size 64
llc_hit_latency 10
llc_fill_latency 10
llc_max_tag_check 1
llc_max_fill 1
dram_channels 1
dram_ranks 1
dram_bankgroups 8
dram_banks 4
dram_rows 65536
dram_columns 1024
dram_channel_width 8
dram_rq_size 64
dram_wq_size 64
dram_size 17179869184
core_0_itlb_prefetcher no
core_0_dtlb_prefetcher no
core_0_stlb_prefetcher no
core_0_l1i_prefetcher next_line
core_0_l1d_prefetcher vberti
core_0_l2c_prefetcher ip_stride
llc_prefetcher no
llc_replacement drrip

Core_0_instructions 100000005
Core_0_cycles 506337986
Core_0_IPC 0.197497
Core_0_branch_prediction_accuracy 92.9661
Core_0_branch_MPKI 10.1659
Core_0_average_ROB_occupancy_at_mispredict 65.93

Core_0_ITLB_total_access 283270
Core_0_ITLB_total_hit 283270
Core_0_ITLB_total_miss 0
Core_0_ITLB_total_MPKI 0
Core_0_ITLB_total_miss_rate 0
Core_0_ITLB_demand_access 283270
Core_0_ITLB_demand_hit 283270
Core_0_ITLB_demand_miss 0
Core_0_ITLB_demand_MPKI 0
Core_0_ITLB_demand_miss_rate 0
Core_0_ITLB_load_access 283270
Core_0_ITLB_load_hit 283270
Core_0_ITLB_load_miss 0
Core_0_ITLB_load_MPKI 0
Core_0_ITLB_load_miss_rate 0
Core_0_ITLB_rfo_access 0
Core_0_ITLB_rfo_hit 0
Core_0_ITLB_rfo_miss 0
Core_0_ITLB_rfo_MPKI 0
Core_0_ITLB_rfo_miss_rate 0
Core_0_ITLB_prefetch_access 0
Core_0_ITLB_prefetch_hit 0
Core_0_ITLB_prefetch_miss 0
Core_0_ITLB_prefetch_MPKI 0
Core_0_ITLB_prefetch_miss_rate 0
Core_0_ITLB_writeback_access 0
Core_0_ITLB_writeback_hit 0
Core_0_ITLB_writeback_miss 0
Core_0_ITLB_writeback_MPKI 0
Core_0_ITLB_writeback_miss_rate 0
Core_0_ITLB_prefetch_requested 0
Core_0_ITLB_prefetch_issued 0
Core_0_ITLB_prefetch_useful 0
Core_0_ITLB_prefetch_useless 0
Core_0_ITLB_prefetch_late 0
Core_0_ITLB_prefetch_fill 0
Core_0_ITLB_prefetch_too_early 0
Core_0_ITLB_prefetch_too_early_among_fill 0
Core_0_ITLB_prefetch_too_early_among_useless 0
Core_0_ITLB_prefetch_pollution_evict 0
Core_0_ITLB_prefetch_pollution_demand 0
Core_0_ITLB_prefetch_pollution_among_prefetch_fill 0
Core_0_ITLB_prefetch_accuracy 0
Core_0_ITLB_prefetch_coverage 0

Core_0_DTLB_total_access 20026151
Core_0_DTLB_total_hit 16617933
Core_0_DTLB_total_miss 3408218
Core_0_DTLB_total_MPKI 34.0822
Core_0_DTLB_total_miss_rate 0.170188
Core_0_DTLB_demand_access 20026151
Core_0_DTLB_demand_hit 16617933
Core_0_DTLB_demand_miss 3408218
Core_0_DTLB_demand_MPKI 34.0822
Core_0_DTLB_demand_miss_rate 0.170188
Core_0_DTLB_load_access 20026151
Core_0_DTLB_load_hit 16617933
Core_0_DTLB_load_miss 3408218
Core_0_DTLB_load_MPKI 34.0822
Core_0_DTLB_load_miss_rate 0.170188
Core_0_DTLB_rfo_access 0
Core_0_DTLB_rfo_hit 0
Core_0_DTLB_rfo_miss 0
Core_0_DTLB_rfo_MPKI 0
Core_0_DTLB_rfo_miss_rate 0
Core_0_DTLB_prefetch_access 0
Core_0_DTLB_prefetch_hit 0
Core_0_DTLB_prefetch_miss 0
Core_0_DTLB_prefetch_MPKI 0
Core_0_DTLB_prefetch_miss_rate 0
Core_0_DTLB_writeback_access 0
Core_0_DTLB_writeback_hit 0
Core_0_DTLB_writeback_miss 0
Core_0_DTLB_writeback_MPKI 0
Core_0_DTLB_writeback_miss_rate 0
Core_0_DTLB_prefetch_requested 0
Core_0_DTLB_prefetch_issued 0
Core_0_DTLB_prefetch_useful 0
Core_0_DTLB_prefetch_useless 0
Core_0_DTLB_prefetch_late 0
Core_0_DTLB_prefetch_fill 0
Core_0_DTLB_prefetch_too_early 0
Core_0_DTLB_prefetch_too_early_among_fill 0
Core_0_DTLB_prefetch_too_early_among_useless 0
Core_0_DTLB_prefetch_pollution_evict 0
Core_0_DTLB_prefetch_pollution_demand 0
Core_0_DTLB_prefetch_pollution_among_prefetch_fill 0
Core_0_DTLB_prefetch_accuracy 0
Core_0_DTLB_prefetch_coverage 0

Core_0_STLB_total_access 949771
Core_0_STLB_total_hit 12713
Core_0_STLB_total_miss 937058
Core_0_STLB_total_MPKI 9.37058
Core_0_STLB_total_miss_rate 0.986615
Core_0_STLB_demand_access 949771
Core_0_STLB_demand_hit 12713
Core_0_STLB_demand_miss 937058
Core_0_STLB_demand_MPKI 9.37058
Core_0_STLB_demand_miss_rate 0.986615
Core_0_STLB_load_access 949771
Core_0_STLB_load_hit 12713
Core_0_STLB_load_miss 937058
Core_0_STLB_load_MPKI 9.37058
Core_0_STLB_load_miss_rate 0.986615
Core_0_STLB_rfo_access 0
Core_0_STLB_rfo_hit 0
Core_0_STLB_rfo_miss 0
Core_0_STLB_rfo_MPKI 0
Core_0_STLB_rfo_miss_rate 0
Core_0_STLB_prefetch_access 0
Core_0_STLB_prefetch_hit 0
Core_0_STLB_prefetch_miss 0
Core_0_STLB_prefetch_MPKI 0
Core_0_STLB_prefetch_miss_rate 0
Core_0_STLB_writeback_access 0
Core_0_STLB_writeback_hit 0
Core_0_STLB_writeback_miss 0
Core_0_STLB_writeback_MPKI 0
Core_0_STLB_writeback_miss_rate 0
Core_0_STLB_prefetch_requested 0
Core_0_STLB_prefetch_issued 0
Core_0_STLB_prefetch_useful 0
Core_0_STLB_prefetch_useless 0
Core_0_STLB_prefetch_late 0
Core_0_STLB_prefetch_fill 0
Core_0_STLB_prefetch_too_early 0
Core_0_STLB_prefetch_too_early_among_fill 0
Core_0_STLB_prefetch_too_early_among_useless 0
Core_0_STLB_prefetch_pollution_evict 0
Core_0_STLB_prefetch_pollution_demand 0
Core_0_STLB_prefetch_pollution_among_prefetch_fill 0
Core_0_STLB_prefetch_accuracy 0
Core_0_STLB_prefetch_coverage 0

Core_0_L1I_total_access 338587
Core_0_L1I_total_hit 338587
Core_0_L1I_total_miss 0
Core_0_L1I_total_MPKI 0
Core_0_L1I_total_miss_rate 0
Core_0_L1I_demand_access 338587
Core_0_L1I_demand_hit 338587
Core_0_L1I_demand_miss 0
Core_0_L1I_demand_MPKI 0
Core_0_L1I_demand_miss_rate 0
Core_0_L1I_load_access 338587
Core_0_L1I_load_hit 338587
Core_0_L1I_load_miss 0
Core_0_L1I_load_MPKI 0
Core_0_L1I_load_miss_rate 0
Core_0_L1I_rfo_access 0
Core_0_L1I_rfo_hit 0
Core_0_L1I_rfo_miss 0
Core_0_L1I_rfo_MPKI 0
Core_0_L1I_rfo_miss_rate 0
Core_0_L1I_prefetch_access 0
Core_0_L1I_prefetch_hit 0
Core_0_L1I_prefetch_miss 0
Core_0_L1I_prefetch_MPKI 0
Core_0_L1I_prefetch_miss_rate 0
Core_0_L1I_writeback_access 0
Core_0_L1I_writeback_hit 0
Core_0_L1I_writeback_miss 0
Core_0_L1I_writeback_MPKI 0
Core_0_L1I_writeback_miss_rate 0
Core_0_L1I_prefetch_requested 0
Core_0_L1I_prefetch_issued 0
Core_0_L1I_prefetch_useful 0
Core_0_L1I_prefetch_useless 0
Core_0_L1I_prefetch_late 0
Core_0_L1I_prefetch_fill 0
Core_0_L1I_prefetch_too_early 0
Core_0_L1I_prefetch_too_early_among_fill 0
Core_0_L1I_prefetch_too_early_among_useless 0
Core_0_L1I_prefetch_pollution_evict 0
Core_0_L1I_prefetch_pollution_demand 0
Core_0_L1I_prefetch_pollution_among_prefetch_fill 0
Core_0_L1I_prefetch_accuracy 0
Core_0_L1I_prefetch_coverage 0

Core_0_L1D_total_access 21138941
Core_0_L1D_total_hit 14100902
Core_0_L1D_total_miss 7038039
Core_0_L1D_total_MPKI 70.3804
Core_0_L1D_total_miss_rate 0.332942
Core_0_L1D_demand_access 13920891
Core_0_L1D_demand_hit 8501616
Core_0_L1D_demand_miss 5419275
Core_0_L1D_demand_MPKI 54.1927
Core_0_L1D_demand_miss_rate 0.389291
Core_0_L1D_load_access 13920891
Core_0_L1D_load_hit 8501616
Core_0_L1D_load_miss 5419275
Core_0_L1D_load_MPKI 54.1927
Core_0_L1D_load_miss_rate 0.389291
Core_0_L1D_rfo_access 0
Core_0_L1D_rfo_hit 0
Core_0_L1D_rfo_miss 0
Core_0_L1D_rfo_MPKI 0
Core_0_L1D_rfo_miss_rate 0
Core_0_L1D_prefetch_access 3956567
Core_0_L1D_prefetch_hit 2367921
Core_0_L1D_prefetch_miss 1588646
Core_0_L1D_prefetch_MPKI 15.8865
Core_0_L1D_prefetch_miss_rate 0.401521
Core_0_L1D_writeback_access 3261483
Core_0_L1D_writeback_hit 3231365
Core_0_L1D_writeback_miss 30118
Core_0_L1D_writeback_MPKI 0.30118
Core_0_L1D_writeback_miss_rate 0.00923445
Core_0_L1D_prefetch_requested 3957242
Core_0_L1D_prefetch_issued 3956562
Core_0_L1D_prefetch_useful 128500
Core_0_L1D_prefetch_useless 37320
Core_0_L1D_prefetch_late 253
Core_0_L1D_prefetch_fill 165566
Core_0_L1D_prefetch_too_early 142
Core_0_L1D_prefetch_too_early_among_fill 0.000857664
Core_0_L1D_prefetch_too_early_among_useless 0.00380493
Core_0_L1D_prefetch_pollution_evict 671
Core_0_L1D_prefetch_pollution_demand 668
Core_0_L1D_prefetch_pollution_among_prefetch_fill 0.00405276
Core_0_L1D_prefetch_accuracy 0.0324777
Core_0_L1D_prefetch_coverage 0.0231624

Core_0_L2C_total_access 6578152
Core_0_L2C_total_hit 1785025
Core_0_L2C_total_miss 4793127
Core_0_L2C_total_MPKI 47.9313
Core_0_L2C_total_miss_rate 0.728643
Core_0_L2C_demand_access 4422726
Core_0_L2C_demand_hit 80624
Core_0_L2C_demand_miss 4342102
Core_0_L2C_demand_MPKI 43.421
Core_0_L2C_demand_miss_rate 0.981771
Core_0_L2C_load_access 4415208
Core_0_L2C_load_hit 73282
Core_0_L2C_load_miss 4341926
Core_0_L2C_load_MPKI 43.4193
Core_0_L2C_load_miss_rate 0.983402
Core_0_L2C_rfo_access 7518
Core_0_L2C_rfo_hit 7342
Core_0_L2C_rfo_miss 176
Core_0_L2C_rfo_MPKI 0.00176
Core_0_L2C_rfo_miss_rate 0.0234105
Core_0_L2C_prefetch_access 2143075
Core_0_L2C_prefetch_hit 1692150
Core_0_L2C_prefetch_miss 450925
Core_0_L2C_prefetch_MPKI 4.50925
Core_0_L2C_prefetch_miss_rate 0.21041
Core_0_L2C_writeback_access 12351
Core_0_L2C_writeback_hit 12251
Core_0_L2C_writeback_miss 100
Core_0_L2C_writeback_MPKI 0.001
Core_0_L2C_writeback_miss_rate 0.00809651
Core_0_L2C_prefetch_requested 556609
Core_0_L2C_prefetch_issued 556609
Core_0_L2C_prefetch_useful 40503
Core_0_L2C_prefetch_useless 280637
Core_0_L2C_prefetch_late 2498
Core_0_L2C_prefetch_fill 411984
Core_0_L2C_prefetch_too_early 196
Core_0_L2C_prefetch_too_early_among_fill 0.000475747
Core_0_L2C_prefetch_too_early_among_useless 0.000698411
Core_0_L2C_prefetch_pollution_evict 1442
Core_0_L2C_prefetch_pollution_demand 1428
Core_0_L2C_prefetch_pollution_among_prefetch_fill 0.00350014
Core_0_L2C_prefetch_accuracy 0.0727674
Core_0_L2C_prefetch_coverage 0.00924176

Core_0_LLC_total_access 4754899
Core_0_LLC_total_hit 39659
Core_0_LLC_total_miss 4715240
Core_0_LLC_total_MPKI 47.1524
Core_0_LLC_total_miss_rate 0.991659
Core_0_LLC_demand_access 4339581
Core_0_LLC_demand_hit 9021
Core_0_LLC_demand_miss 4330560
Core_0_LLC_demand_MPKI 43.3056
Core_0_LLC_demand_miss_rate 0.997921
Core_0_LLC_load_access 4339405
Core_0_LLC_load_hit 8845
Core_0_LLC_load_miss 4330560
Core_0_LLC_load_MPKI 43.3056
Core_0_LLC_load_miss_rate 0.997962
Core_0_LLC_rfo_access 176
Core_0_LLC_rfo_hit 176
Core_0_LLC_rfo_miss 0
Core_0_LLC_rfo_MPKI 0
Core_0_LLC_rfo_miss_rate 0
Core_0_LLC_prefetch_access 414507
Core_0_LLC_prefetch_hit 29845
Core_0_LLC_prefetch_miss 384662
Core_0_LLC_prefetch_MPKI 3.84662
Core_0_LLC_prefetch_miss_rate 0.927999
Core_0_LLC_writeback_access 811
Core_0_LLC_writeback_hit 793
Core_0_LLC_writeback_miss 18
Core_0_LLC_writeback_MPKI 0.00018
Core_0_LLC_writeback_miss_rate 0.0221948
Core_0_LLC_prefetch_requested 0
Core_0_LLC_prefetch_issued 0
Core_0_LLC_prefetch_useful 0
Core_0_LLC_prefetch_useless 0
Core_0_LLC_prefetch_late 0
Core_0_LLC_prefetch_fill 384662
Core_0_LLC_prefetch_too_early 0
Core_0_LLC_prefetch_too_early_among_fill 0
Core_0_LLC_prefetch_too_early_among_useless 0
Core_0_LLC_prefetch_pollution_evict 3814
Core_0_LLC_prefetch_pollution_demand 3814
Core_0_LLC_prefetch_pollution_among_prefetch_fill 0.0099152
Core_0_LLC_prefetch_accuracy 0
Core_0_LLC_prefetch_coverage 0

[DRAM Statistics]
Channel_0_RQ_row_buffer_hit 80932
Channel_0_RQ_row_buffer_miss 5239184
Channel_0_WQ_row_buffer_hit 7
Channel_0_WQ_row_buffer_miss 9
Channel_0_WQ_full 0
Channel_0_dbus_congested 8380015
DRAM_total_RQ_row_buffer_hit 80932
DRAM_total_RQ_row_buffer_miss 5239184
DRAM_total_WQ_row_buffer_hit 7
DRAM_total_WQ_row_buffer_miss 9
DRAM_total_WQ_full 0
DRAM_total_dbus_congested 8380015
DRAM_avg_congested_cycle 3.00174

====== DRAM_RQ_TRAFFIC ========
DRAM_RQ_READ_TRAFFIC_BREAKDOWN:
data_demand_read.count = 4330560
data_demand_read.share = 81.40%

inst_demand_read.count = 0
inst_demand_read.share = 0.00%

cache_inst_prefetch.count = 0
cache_inst_prefetch.share = 0.00%

cache_data_prefetch.count = 384662
cache_data_prefetch.share = 7.23%

stlb_data_demand.count = 604792
stlb_data_demand.share = 11.37%

stlb_inst_demand.count = 0
stlb_inst_demand.share = 0.00%

stlb_l1i_pref.count = 0
stlb_l1i_pref.share = 0.00%

stlb_l1d_pref.count = 102
stlb_l1d_pref.share = 0.00%

DRAM_RQ_READ_TRAFFIC_SUMMARY:
cache_demand.count = 4330560
cache_demand.share = 81.40%

cache_prefetch.count = 384662
cache_prefetch.share = 7.23%

stlb_demand.count = 604792
stlb_demand.share = 11.37%

stlb_prefetch.count = 102
stlb_prefetch.share = 0.00%

DRAM_RQ_READ_TRAFFIC_DEBUG:
total_classified_read.count = 5320116
unclassified_read.count = 0
total_read_with_other.count = 5320116

classified_plus_unclassified_check.count = 5320116
dram_rq_read_total_observed.count = 5320116
dram_rq_read_total_observed.per_1K_instructions = 53.2012

STLB_MISS_PTW_DRAM_TOUCH_BREAKDOWN:
stlb_miss_total.count = 936488

stlb_miss_touch_dram.count = 855541
stlb_miss_touch_dram.share = 91.36%

stlb_miss_no_dram_touch.count = 80947
stlb_miss_no_dram_touch.share = 8.64%

STLB_MISS_PTW_DRAM_TOUCH_DEBUG:
stlb_miss_touch_plus_no_touch.count = 936488
stlb_miss_total_check.count = 936488

======STLB miss causes ========
Core_0_STLB_miss_cause_breakdown
Core_0_STLB_cause_Demand_Data_miss 934426
Core_0_STLB_cause_Demand_Data_miss_rate 0.983843
Core_0_STLB_cause_Demand_Instruction_miss 0
Core_0_STLB_cause_Demand_Instruction_miss_rate 0
Core_0_STLB_cause_L1D_Prefetch_miss 2632
Core_0_STLB_cause_L1D_Prefetch_miss_rate 0.00277119
Core_0_STLB_cause_L1D_Prefetch_Same_Page_miss 0
Core_0_STLB_cause_L1D_Prefetch_Same_Page_miss_rate 0
Core_0_STLB_cause_L1D_Prefetch_Cross_Page_miss 2632
Core_0_STLB_cause_L1D_Prefetch_Cross_Page_miss_rate 0.00277119
Core_0_STLB_cause_L1I_Prefetch_miss 0
Core_0_STLB_cause_L1I_Prefetch_miss_rate 0
Core_0_STLB_cause_Other_miss 0
Core_0_STLB_cause_Other_miss_rate 0
Core_0_STLB_Demand_miss 934426
Core_0_STLB_Demand_miss_rate 0.983843
Core_0_STLB_L1D_Prefetch_miss 2632
Core_0_STLB_L1D_Prefetch_miss_rate 0.00277119
Core_0_STLB_Other_miss 0
Core_0_STLB_Other_miss_rate 0

========== vBerti-TLB Cross-page Flow Stats ==========

Core_0_vBerti_Requested 3957242
Core_0_vBerti_Cross_page_prefetch_in_Requested 122570
Core_0_vBerti_Same_page_prefetch_in_Requested 3834672
Core_0_vBerti_Cross_page_prefetch_of_Requested 0.0309736
Core_0_vBerti_Issued 3956562
Core_0_vBerti_InPQ_Same_page_prefetch 3834053
Core_0_vBerti_InPQ_Cross_page_prefetch 122509
Core_0_vBerti_PQ_Drop_Rate 0.000171837
Core_0_vBerti_InPQ_Cross_page_prefetch_of_Requested 0.0309582
Core_0_vBerti_Cross_page_PQ_Drop_rate 0.000497675
Core_0_vBerti_Cross_page_prefetch_of_Issued 0.0309635
Core_0_CP_PF_PQFULL_drop 61
Core_0_CP_PF_PQFULL_TLB_rescue_enqueued 61
Core_0_CP_PF_PQFULL_TLB_rescue_issued 61
Core_0_CP_PF_PQFULL_TLB_rescue_translated 61

========= DTLB_vBerti Prefetch Stats =========
Core_0_DTLB_demand_access 16678743
Core_0_DTLB_demand_hit 13274852
Core_0_DTLB_demand_miss 3403891
Core_0_DTLB_demand_mshr_merge 2458368
Core_0_DTLB_demand_fill 945525
Core_0_DTLB_demand_miss_rate 0.204086
Core_0_DTLB_demand_mpki 34.0389
Core_0_DTLB_vberti_prefetch_access 3347408
Core_0_DTLB_vberti_prefetch_hit 3343081
Core_0_DTLB_vberti_prefetch_miss 4327
Core_0_DTLB_vberti_prefetch_mshr_merge 79
Core_0_DTLB_vberti_prefetch_fill 4248
Core_0_DTLB_vberti_prefetch_miss_rate 0.00129264
Core_0_DTLB_vberti_prefetch_mpki 0.04327

=== DTLB_vBerti Same/Cross-page Prefetch Stats ===
Core_0_DTLB_vberti_same_page_prefetch 3242262
Core_0_DTLB_vberti_same_page_prefetch_hit 3242262
Core_0_DTLB_vberti_same_page_prefetch_miss 0
Core_0_DTLB_vberti_same_page_prefetch_mshr_merge 0
Core_0_DTLB_vberti_same_page_prefetch_fill 0
Core_0_DTLB_vberti_same_page_prefetch_miss_rate 0
Core_0_DTLB_vberti_same_page_prefetch_mpki 0
Core_0_DTLB_vberti_cross_page_prefetch 105146
Core_0_DTLB_vberti_cross_page_prefetch_hit 100819
Core_0_DTLB_vberti_cross_page_prefetch_miss 4327
Core_0_DTLB_vberti_cross_page_prefetch_mshr_merge 79
Core_0_DTLB_vberti_cross_page_prefetch_fill 4248
Core_0_DTLB_vberti_cross_page_prefetch_miss_rate 0.0411523
Core_0_DTLB_vberti_cross_page_prefetch_mpki 0.04327
Core_0_DTLB_same_page_prefetch_miss_rate 0
Core_0_DTLB_same_page_prefetch_mpki 0
Core_0_DTLB_cross_page_prefetch_miss_rate 0.0411523
Core_0_DTLB_cross_page_prefetch_mpki 0.04327
Core_0_DTLB_cross_page_prefetch_issued 105146
Core_0_DTLB_cross_page_prefetch_lookups 105146
Core_0_DTLB_cross_page_prefetch_useful 2012
Core_0_DTLB_cross_page_prefetch_useless 2236
Core_0_DTLB_cross_page_prefetch_late 0
Core_0_DTLB_cross_page_prefetch_too_early 173
Core_0_DTLB_cross_page_prefetch_too_early_among_fill 0.040725
Core_0_DTLB_cross_page_prefetch_too_early_among_useless 0.0773703
Core_0_DTLB_cross_page_prefetch_pollution_evict 65
Core_0_DTLB_cross_page_prefetch_pollution_demand 63
Core_0_DTLB_cross_page_prefetch_pollution_among_prefetch_fill 0.0153013
Core_0_DTLB_cross_page_prefetch_accuracy 0.0191353
Core_0_DTLB_cross_page_prefetch_coverage 0.000590739

========= STLB_vBerti Prefetch Stats =========
Core_0_STLB_demand_access 945523
Core_0_STLB_demand_hit 11097
Core_0_STLB_demand_miss 934426
Core_0_STLB_demand_mshr_merge 0
Core_0_STLB_demand_fill 934428
Core_0_STLB_demand_miss_rate 0.988264
Core_0_STLB_demand_mpki 9.34426
Core_0_STLB_vberti_prefetch_access 4248
Core_0_STLB_vberti_prefetch_hit 1616
Core_0_STLB_vberti_prefetch_miss 2632
Core_0_STLB_vberti_prefetch_mshr_merge 0
Core_0_STLB_vberti_prefetch_fill 0
Core_0_STLB_vberti_prefetch_miss_rate 0.619586
Core_0_STLB_vberti_prefetch_mpki 0.02632

=== STLB_vBerti Same/Cross-page Prefetch Stats ===
Core_0_STLB_vberti_same_page_prefetch 0
Core_0_STLB_vberti_same_page_prefetch_hit 0
Core_0_STLB_vberti_same_page_prefetch_miss 0
Core_0_STLB_vberti_same_page_prefetch_mshr_merge 0
Core_0_STLB_vberti_same_page_prefetch_fill 0
Core_0_STLB_vberti_same_page_prefetch_miss_rate 0
Core_0_STLB_vberti_same_page_prefetch_mpki 0
Core_0_STLB_vberti_cross_page_prefetch 4248
Core_0_STLB_vberti_cross_page_prefetch_hit 1616
Core_0_STLB_vberti_cross_page_prefetch_miss 2632
Core_0_STLB_vberti_cross_page_prefetch_mshr_merge 0
Core_0_STLB_vberti_cross_page_prefetch_fill 0
Core_0_STLB_vberti_cross_page_prefetch_miss_rate 0.619586
Core_0_STLB_vberti_cross_page_prefetch_mpki 0.02632
Core_0_STLB_same_page_prefetch_miss_rate 0
Core_0_STLB_same_page_prefetch_mpki 0
Core_0_STLB_cross_page_prefetch_miss_rate 0.619586
Core_0_STLB_cross_page_prefetch_mpki 0.02632
Core_0_STLB_cross_page_prefetch_issued 4248
Core_0_STLB_cross_page_prefetch_lookups 4248
Core_0_STLB_cross_page_prefetch_useful 569
Core_0_STLB_cross_page_prefetch_useless 1905
Core_0_STLB_cross_page_prefetch_late 569
Core_0_STLB_cross_page_prefetch_too_early 0
Core_0_STLB_cross_page_prefetch_too_early_among_fill 0
Core_0_STLB_cross_page_prefetch_too_early_among_useless 0
Core_0_STLB_cross_page_prefetch_pollution_evict 0
Core_0_STLB_cross_page_prefetch_pollution_demand 0
Core_0_STLB_cross_page_prefetch_pollution_among_prefetch_fill 0
Core_0_STLB_cross_page_prefetch_accuracy 0.133945
Core_0_STLB_cross_page_prefetch_coverage 0.000608559

========= STLB Cross-page Prefetch Buffer Stats =========
Core_0_STLB_raw_demand_miss 934426
Core_0_CP_PB_insert 2632
Core_0_CP_PB_demand_hit 569
Core_0_STLB_PB_demand_miss 933857
Core_0_CP_PB_coverage 0.00060893
Core_0_STLB_raw_demand_mpki 9.34426
Core_0_STLB_PB_demand_mpki 9.33857
Core_0_CP_PB_demand_hit_mpki 0.00569

Core_0_TLB_demand_miss_rate 0.056025
Core_0_TLB_demand_mpki 9.34426
Core_0_TLB_same_page_prefetch_miss_rate 0
Core_0_TLB_same_page_prefetch_mpki 0
Core_0_TLB_cross_page_prefetch_miss_rate 0.0250319
Core_0_TLB_cross_page_prefetch_mpki 0.02632
Core_0_TLB_cross_page_prefetch_issued 105146
Core_0_TLB_cross_page_prefetch_lookups 105146
Core_0_TLB_cross_page_prefetch_useful 449
Core_0_TLB_cross_page_prefetch_useless 1872
Core_0_TLB_cross_page_prefetch_late 0
Core_0_TLB_cross_page_prefetch_too_early 18
Core_0_TLB_cross_page_prefetch_too_early_among_fill 0.00423729
Core_0_TLB_cross_page_prefetch_too_early_among_useless 0.00961538
Core_0_TLB_cross_page_prefetch_accuracy 0.00427025
Core_0_TLB_cross_page_prefetch_coverage 0.000480278
BERTI TO_L1: 4393970 TO_L2: 2712811 TO_L2_BC_MSHR: 0
BERTI AVG_LAT: 153.172 NUM_TRACK_LATENCY: 6872614 NUM_CANT_TRACK_LATENCY: 0
BERTI CROSS_PAGE 254185 NO_CROSS_PAGE: 6852596
BERTI FOUND_BERTI: 14704013 NO_FOUND_BERTI: 8686400
BERTI AVERAGE_ISSUED: 1.97315
