[VMEM] WARNING: physical memory size is smaller than virtual memory size.

*** ChampSim Multicore Out-of-Order Simulator ***
Warmup Instructions: 50000000
Simulation Instructions: 100000000
Number of CPUs: 1
Page size: 4096
Core 0: /data2/zcq/champsim_traces_xsbench/xs.XL100nuclide-577B.champsimtrace.xz
VBerti Prefetcher
BERTI HASH ENTANGLING
BERTI IP MASK ffff
Off-chip DRAM Size: 16 GiB Channels: 1 Width: 64-bit Data Rate: 3205 MT/s
Warmup halting CPU 0 at instruction 50000005 cycle 33975281 for remainder of phase
Warmup finished CPU 0 instructions: 50000005 cycles: 33975281 cumulative IPC: 1.472 (Simulation time: 00 hr 08 min 44 sec)
Warmup complete CPU 0 instructions: 50000005 cycles: 33975281 cumulative IPC: 1.472 (Simulation time: 00 hr 08 min 44 sec)
Simulation finished CPU 0 instructions: 100000000 cycles: 644662918 cumulative IPC: 0.1551 (Simulation time: 01 hr 14 min 15 sec)
Simulation complete CPU 0 instructions: 100000000 cycles: 644662918 cumulative IPC: 0.1551 (Simulation time: 01 hr 14 min 15 sec)

ChampSim completed all CPUs

=== Simulation ===
CPU 0 runs /data2/zcq/champsim_traces_xsbench/xs.XL100nuclide-577B.champsimtrace.xz

Region of Interest Statistics

CPU 0 cumulative IPC: 0.1551 instructions: 100000000 cycles: 644662918
CPU 0 Branch Prediction Accuracy: 87.2% MPKI: 21.41 Average ROB Occupancy at Mispredict: 25.93
Branch type MPKI
BRANCH_DIRECT_JUMP: 0
BRANCH_INDIRECT: 0
BRANCH_CONDITIONAL: 21.41
BRANCH_DIRECT_CALL: 0
BRANCH_INDIRECT_CALL: 0
BRANCH_RETURN: 0

cpu0->cpu0_STLB TOTAL        ACCESS:    3810551 HIT:     139038 MISS:    3671513 MSHR_MERGE:          0
cpu0->cpu0_STLB LOAD         ACCESS:    3810551 HIT:     139038 MISS:    3671513 MSHR_MERGE:          0
cpu0->cpu0_STLB RFO          ACCESS:          0 HIT:          0 MISS:          0 MSHR_MERGE:          0
cpu0->cpu0_STLB PREFETCH     ACCESS:          0 HIT:          0 MISS:          0 MSHR_MERGE:          0
cpu0->cpu0_STLB WRITE        ACCESS:          0 HIT:          0 MISS:          0 MSHR_MERGE:          0
cpu0->cpu0_STLB TRANSLATION  ACCESS:          0 HIT:          0 MISS:          0 MSHR_MERGE:          0
cpu0->cpu0_STLB PREFETCH REQUESTED:          0 ISSUED:          0 USEFUL:          0 USELESS:          0 LATE:          0 TOO_EARLY:          0
cpu0->cpu0_STLB AVERAGE MISS LATENCY: 147.1 cycles
cpu0->cpu0_L2C TOTAL        ACCESS:   10054018 HIT:    1510710 MISS:    8543308 MSHR_MERGE:       8369
cpu0->cpu0_L2C LOAD         ACCESS:    5872331 HIT:     255325 MISS:    5617006 MSHR_MERGE:        109
cpu0->cpu0_L2C RFO          ACCESS:      12741 HIT:      11691 MISS:       1050 MSHR_MERGE:          0
cpu0->cpu0_L2C PREFETCH     ACCESS:    1260065 HIT:    1005302 MISS:     254763 MSHR_MERGE:       8260
cpu0->cpu0_L2C WRITE        ACCESS:      17794 HIT:      17714 MISS:         80 MSHR_MERGE:          0
cpu0->cpu0_L2C TRANSLATION  ACCESS:    2891087 HIT:     220678 MISS:    2670409 MSHR_MERGE:          0
cpu0->cpu0_L2C PREFETCH REQUESTED:     327448 ISSUED:     327448 USEFUL:      14137 USELESS:     161162 LATE:        109 TOO_EARLY:        197
cpu0->cpu0_L2C AVERAGE MISS LATENCY: 146.7 cycles
cpu0->cpu0_L1I TOTAL        ACCESS:      22142 HIT:      22142 MISS:          0 MSHR_MERGE:          0
cpu0->cpu0_L1I LOAD         ACCESS:      22142 HIT:      22142 MISS:          0 MSHR_MERGE:          0
cpu0->cpu0_L1I RFO          ACCESS:          0 HIT:          0 MISS:          0 MSHR_MERGE:          0
cpu0->cpu0_L1I PREFETCH     ACCESS:          0 HIT:          0 MISS:          0 MSHR_MERGE:          0
cpu0->cpu0_L1I WRITE        ACCESS:          0 HIT:          0 MISS:          0 MSHR_MERGE:          0
cpu0->cpu0_L1I TRANSLATION  ACCESS:          0 HIT:          0 MISS:          0 MSHR_MERGE:          0
cpu0->cpu0_L1I PREFETCH REQUESTED:          0 ISSUED:          0 USEFUL:          0 USELESS:          0 LATE:          0 TOO_EARLY:          0
cpu0->cpu0_L1I AVERAGE MISS LATENCY: - cycles
cpu0->cpu0_L1D TOTAL        ACCESS:   21536971 HIT:   10388356 MISS:   11148615 MSHR_MERGE:    1439794
cpu0->cpu0_L1D LOAD         ACCESS:    9632718 HIT:    3652314 MISS:    5980404 MSHR_MERGE:     108073
cpu0->cpu0_L1D RFO          ACCESS:          0 HIT:          0 MISS:          0 MSHR_MERGE:          0
cpu0->cpu0_L1D PREFETCH     ACCESS:    2198466 HIT:    1264261 MISS:     934205 MSHR_MERGE:       1588
cpu0->cpu0_L1D WRITE        ACCESS:    1893204 HIT:    1841050 MISS:      52154 MSHR_MERGE:      39368
cpu0->cpu0_L1D TRANSLATION  ACCESS:    7812583 HIT:    3630731 MISS:    4181852 MSHR_MERGE:    1290765
cpu0->cpu0_L1D PREFETCH REQUESTED:    2471947 ISSUED:    2198466 USEFUL:      40737 USELESS:      48454 LATE:        190 TOO_EARLY:       2002
cpu0->cpu0_L1D AVERAGE MISS LATENCY: 147.6 cycles
cpu0->cpu0_ITLB TOTAL        ACCESS:      17988 HIT:      17988 MISS:          0 MSHR_MERGE:          0
cpu0->cpu0_ITLB LOAD         ACCESS:      17988 HIT:      17988 MISS:          0 MSHR_MERGE:          0
cpu0->cpu0_ITLB RFO          ACCESS:          0 HIT:          0 MISS:          0 MSHR_MERGE:          0
cpu0->cpu0_ITLB PREFETCH     ACCESS:          0 HIT:          0 MISS:          0 MSHR_MERGE:          0
cpu0->cpu0_ITLB WRITE        ACCESS:          0 HIT:          0 MISS:          0 MSHR_MERGE:          0
cpu0->cpu0_ITLB TRANSLATION  ACCESS:          0 HIT:          0 MISS:          0 MSHR_MERGE:          0
cpu0->cpu0_ITLB PREFETCH REQUESTED:          0 ISSUED:          0 USEFUL:          0 USELESS:          0 LATE:          0 TOO_EARLY:          0
cpu0->cpu0_ITLB AVERAGE MISS LATENCY: - cycles
cpu0->cpu0_DTLB TOTAL        ACCESS:   13043339 HIT:    9007282 MISS:    4036057 MSHR_MERGE:     225506
cpu0->cpu0_DTLB LOAD         ACCESS:   13043339 HIT:    9007282 MISS:    4036057 MSHR_MERGE:     225506
cpu0->cpu0_DTLB RFO          ACCESS:          0 HIT:          0 MISS:          0 MSHR_MERGE:          0
cpu0->cpu0_DTLB PREFETCH     ACCESS:          0 HIT:          0 MISS:          0 MSHR_MERGE:          0
cpu0->cpu0_DTLB WRITE        ACCESS:          0 HIT:          0 MISS:          0 MSHR_MERGE:          0
cpu0->cpu0_DTLB TRANSLATION  ACCESS:          0 HIT:          0 MISS:          0 MSHR_MERGE:          0
cpu0->cpu0_DTLB PREFETCH REQUESTED:          0 ISSUED:          0 USEFUL:          0 USELESS:          0 LATE:          0 TOO_EARLY:          0
cpu0->cpu0_DTLB AVERAGE MISS LATENCY: 147.7 cycles
cpu0->LLC TOTAL        ACCESS:    8538345 HIT:    2957387 MISS:    5580958 MSHR_MERGE:          0
cpu0->LLC LOAD         ACCESS:    5616897 HIT:    1363613 MISS:    4253284 MSHR_MERGE:          0
cpu0->LLC RFO          ACCESS:       1050 HIT:       1050 MISS:          0 MSHR_MERGE:          0
cpu0->LLC PREFETCH     ACCESS:     246503 HIT:      80658 MISS:     165845 MSHR_MERGE:          0
cpu0->LLC WRITE        ACCESS:       3486 HIT:       3471 MISS:         15 MSHR_MERGE:          0
cpu0->LLC TRANSLATION  ACCESS:    2670409 HIT:    1508595 MISS:    1161814 MSHR_MERGE:          0
cpu0->LLC PREFETCH REQUESTED:          0 ISSUED:          0 USEFUL:          0 USELESS:          0 LATE:          0 TOO_EARLY:          0
cpu0->LLC AVERAGE MISS LATENCY: 200.6 cycles

DRAM Statistics

Channel 0 RQ ROW_BUFFER_HIT:      57504
  ROW_BUFFER_MISS:    5523434
  AVG DBUS CONGESTED CYCLE: 2.937
Channel 0 WQ ROW_BUFFER_HIT:          2
  ROW_BUFFER_MISS:         12
  FULL:          0
Channel 0 REFRESHES ISSUED:      53722

[ROI Statistics]
[System Configuration]
num_cpus 1
cpu_freq 4000
fetch_width 6
decode_width 6
dispatch_width 6
execute_width 6
lq_width 2
sq_width 2
retire_width 6
scheduler_size 128
branch_mispredict_penalty 15
rob_size 352
lq_size 128
sq_size 72
ifetch_buffer_size 64
decode_buffer_size 32
dispatch_buffer_size 32
register_file_size 288
decode_latency 1
dispatch_latency 1
schedule_latency 1
execute_latency 1
page_size 4096
block_size 64
core_0_itlb_set 16
core_0_itlb_way 4
core_0_itlb_rq_size 16
core_0_itlb_wq_size 16
core_0_itlb_pq_size 0
core_0_itlb_mshr_size 8
core_0_itlb_hit_latency 1
core_0_itlb_fill_latency 1
core_0_itlb_max_tag_check 2
core_0_itlb_max_fill 2
core_0_dtlb_set 16
core_0_dtlb_way 4
core_0_dtlb_rq_size 16
core_0_dtlb_wq_size 16
core_0_dtlb_pq_size 0
core_0_dtlb_mshr_size 8
core_0_dtlb_hit_latency 1
core_0_dtlb_fill_latency 1
core_0_dtlb_max_tag_check 2
core_0_dtlb_max_fill 2
core_0_stlb_set 128
core_0_stlb_way 12
core_0_stlb_rq_size 32
core_0_stlb_wq_size 32
core_0_stlb_pq_size 0
core_0_stlb_mshr_size 16
core_0_stlb_hit_latency 4
core_0_stlb_fill_latency 4
core_0_stlb_max_tag_check 1
core_0_stlb_max_fill 1
core_0_l1i_set 64
core_0_l1i_way 8
core_0_l1i_rq_size 64
core_0_l1i_wq_size 64
core_0_l1i_pq_size 32
core_0_l1i_mshr_size 8
core_0_l1i_hit_latency 2
core_0_l1i_fill_latency 2
core_0_l1i_max_tag_check 2
core_0_l1i_max_fill 2
core_0_l1d_set 64
core_0_l1d_way 12
core_0_l1d_rq_size 64
core_0_l1d_wq_size 64
core_0_l1d_pq_size 8
core_0_l1d_mshr_size 16
core_0_l1d_hit_latency 2
core_0_l1d_fill_latency 3
core_0_l1d_max_tag_check 2
core_0_l1d_max_fill 2
core_0_l2c_set 1024
core_0_l2c_way 8
core_0_l2c_rq_size 32
core_0_l2c_wq_size 32
core_0_l2c_pq_size 16
core_0_l2c_mshr_size 32
core_0_l2c_hit_latency 5
core_0_l2c_fill_latency 5
core_0_l2c_max_tag_check 1
core_0_l2c_max_fill 1
llc_set 2048
llc_way 16
llc_rq_size 32
llc_wq_size 32
llc_pq_size 32
llc_mshr_size 64
llc_hit_latency 10
llc_fill_latency 10
llc_max_tag_check 1
llc_max_fill 1
dram_channels 1
dram_ranks 1
dram_bankgroups 8
dram_banks 4
dram_rows 65536
dram_columns 1024
dram_channel_width 8
dram_rq_size 64
dram_wq_size 64
dram_size 17179869184
core_0_itlb_prefetcher no
core_0_dtlb_prefetcher no
core_0_stlb_prefetcher no
core_0_l1i_prefetcher next_line
core_0_l1d_prefetcher vberti
core_0_l2c_prefetcher ip_stride
llc_prefetcher no
llc_replacement drrip

Core_0_instructions 100000000
Core_0_cycles 644662918
Core_0_IPC 0.15512
Core_0_branch_prediction_accuracy 87.198
Core_0_branch_MPKI 21.4067
Core_0_average_ROB_occupancy_at_mispredict 25.9343

Core_0_ITLB_total_access 17988
Core_0_ITLB_total_hit 17988
Core_0_ITLB_total_miss 0
Core_0_ITLB_total_MPKI 0
Core_0_ITLB_total_miss_rate 0
Core_0_ITLB_demand_access 17988
Core_0_ITLB_demand_hit 17988
Core_0_ITLB_demand_miss 0
Core_0_ITLB_demand_MPKI 0
Core_0_ITLB_demand_miss_rate 0
Core_0_ITLB_load_access 17988
Core_0_ITLB_load_hit 17988
Core_0_ITLB_load_miss 0
Core_0_ITLB_load_MPKI 0
Core_0_ITLB_load_miss_rate 0
Core_0_ITLB_rfo_access 0
Core_0_ITLB_rfo_hit 0
Core_0_ITLB_rfo_miss 0
Core_0_ITLB_rfo_MPKI 0
Core_0_ITLB_rfo_miss_rate 0
Core_0_ITLB_prefetch_access 0
Core_0_ITLB_prefetch_hit 0
Core_0_ITLB_prefetch_miss 0
Core_0_ITLB_prefetch_MPKI 0
Core_0_ITLB_prefetch_miss_rate 0
Core_0_ITLB_writeback_access 0
Core_0_ITLB_writeback_hit 0
Core_0_ITLB_writeback_miss 0
Core_0_ITLB_writeback_MPKI 0
Core_0_ITLB_writeback_miss_rate 0
Core_0_ITLB_prefetch_requested 0
Core_0_ITLB_prefetch_issued 0
Core_0_ITLB_prefetch_useful 0
Core_0_ITLB_prefetch_useless 0
Core_0_ITLB_prefetch_late 0
Core_0_ITLB_prefetch_fill 0
Core_0_ITLB_prefetch_too_early 0
Core_0_ITLB_prefetch_too_early_among_fill 0
Core_0_ITLB_prefetch_too_early_among_useless 0
Core_0_ITLB_prefetch_pollution_evict 0
Core_0_ITLB_prefetch_pollution_demand 0
Core_0_ITLB_prefetch_pollution_among_prefetch_fill 0
Core_0_ITLB_prefetch_accuracy 0
Core_0_ITLB_prefetch_coverage 0

Core_0_DTLB_total_access 13043339
Core_0_DTLB_total_hit 9007282
Core_0_DTLB_total_miss 4036057
Core_0_DTLB_total_MPKI 40.3606
Core_0_DTLB_total_miss_rate 0.309434
Core_0_DTLB_demand_access 13043339
Core_0_DTLB_demand_hit 9007282
Core_0_DTLB_demand_miss 4036057
Core_0_DTLB_demand_MPKI 40.3606
Core_0_DTLB_demand_miss_rate 0.309434
Core_0_DTLB_load_access 13043339
Core_0_DTLB_load_hit 9007282
Core_0_DTLB_load_miss 4036057
Core_0_DTLB_load_MPKI 40.3606
Core_0_DTLB_load_miss_rate 0.309434
Core_0_DTLB_rfo_access 0
Core_0_DTLB_rfo_hit 0
Core_0_DTLB_rfo_miss 0
Core_0_DTLB_rfo_MPKI 0
Core_0_DTLB_rfo_miss_rate 0
Core_0_DTLB_prefetch_access 0
Core_0_DTLB_prefetch_hit 0
Core_0_DTLB_prefetch_miss 0
Core_0_DTLB_prefetch_MPKI 0
Core_0_DTLB_prefetch_miss_rate 0
Core_0_DTLB_writeback_access 0
Core_0_DTLB_writeback_hit 0
Core_0_DTLB_writeback_miss 0
Core_0_DTLB_writeback_MPKI 0
Core_0_DTLB_writeback_miss_rate 0
Core_0_DTLB_prefetch_requested 0
Core_0_DTLB_prefetch_issued 0
Core_0_DTLB_prefetch_useful 0
Core_0_DTLB_prefetch_useless 0
Core_0_DTLB_prefetch_late 0
Core_0_DTLB_prefetch_fill 0
Core_0_DTLB_prefetch_too_early 0
Core_0_DTLB_prefetch_too_early_among_fill 0
Core_0_DTLB_prefetch_too_early_among_useless 0
Core_0_DTLB_prefetch_pollution_evict 0
Core_0_DTLB_prefetch_pollution_demand 0
Core_0_DTLB_prefetch_pollution_among_prefetch_fill 0
Core_0_DTLB_prefetch_accuracy 0
Core_0_DTLB_prefetch_coverage 0

Core_0_STLB_total_access 3810551
Core_0_STLB_total_hit 139038
Core_0_STLB_total_miss 3671513
Core_0_STLB_total_MPKI 36.7151
Core_0_STLB_total_miss_rate 0.963512
Core_0_STLB_demand_access 3810551
Core_0_STLB_demand_hit 139038
Core_0_STLB_demand_miss 3671513
Core_0_STLB_demand_MPKI 36.7151
Core_0_STLB_demand_miss_rate 0.963512
Core_0_STLB_load_access 3810551
Core_0_STLB_load_hit 139038
Core_0_STLB_load_miss 3671513
Core_0_STLB_load_MPKI 36.7151
Core_0_STLB_load_miss_rate 0.963512
Core_0_STLB_rfo_access 0
Core_0_STLB_rfo_hit 0
Core_0_STLB_rfo_miss 0
Core_0_STLB_rfo_MPKI 0
Core_0_STLB_rfo_miss_rate 0
Core_0_STLB_prefetch_access 0
Core_0_STLB_prefetch_hit 0
Core_0_STLB_prefetch_miss 0
Core_0_STLB_prefetch_MPKI 0
Core_0_STLB_prefetch_miss_rate 0
Core_0_STLB_writeback_access 0
Core_0_STLB_writeback_hit 0
Core_0_STLB_writeback_miss 0
Core_0_STLB_writeback_MPKI 0
Core_0_STLB_writeback_miss_rate 0
Core_0_STLB_prefetch_requested 0
Core_0_STLB_prefetch_issued 0
Core_0_STLB_prefetch_useful 0
Core_0_STLB_prefetch_useless 0
Core_0_STLB_prefetch_late 0
Core_0_STLB_prefetch_fill 0
Core_0_STLB_prefetch_too_early 0
Core_0_STLB_prefetch_too_early_among_fill 0
Core_0_STLB_prefetch_too_early_among_useless 0
Core_0_STLB_prefetch_pollution_evict 0
Core_0_STLB_prefetch_pollution_demand 0
Core_0_STLB_prefetch_pollution_among_prefetch_fill 0
Core_0_STLB_prefetch_accuracy 0
Core_0_STLB_prefetch_coverage 0

Core_0_L1I_total_access 22142
Core_0_L1I_total_hit 22142
Core_0_L1I_total_miss 0
Core_0_L1I_total_MPKI 0
Core_0_L1I_total_miss_rate 0
Core_0_L1I_demand_access 22142
Core_0_L1I_demand_hit 22142
Core_0_L1I_demand_miss 0
Core_0_L1I_demand_MPKI 0
Core_0_L1I_demand_miss_rate 0
Core_0_L1I_load_access 22142
Core_0_L1I_load_hit 22142
Core_0_L1I_load_miss 0
Core_0_L1I_load_MPKI 0
Core_0_L1I_load_miss_rate 0
Core_0_L1I_rfo_access 0
Core_0_L1I_rfo_hit 0
Core_0_L1I_rfo_miss 0
Core_0_L1I_rfo_MPKI 0
Core_0_L1I_rfo_miss_rate 0
Core_0_L1I_prefetch_access 0
Core_0_L1I_prefetch_hit 0
Core_0_L1I_prefetch_miss 0
Core_0_L1I_prefetch_MPKI 0
Core_0_L1I_prefetch_miss_rate 0
Core_0_L1I_writeback_access 0
Core_0_L1I_writeback_hit 0
Core_0_L1I_writeback_miss 0
Core_0_L1I_writeback_MPKI 0
Core_0_L1I_writeback_miss_rate 0
Core_0_L1I_prefetch_requested 0
Core_0_L1I_prefetch_issued 0
Core_0_L1I_prefetch_useful 0
Core_0_L1I_prefetch_useless 0
Core_0_L1I_prefetch_late 0
Core_0_L1I_prefetch_fill 0
Core_0_L1I_prefetch_too_early 0
Core_0_L1I_prefetch_too_early_among_fill 0
Core_0_L1I_prefetch_too_early_among_useless 0
Core_0_L1I_prefetch_pollution_evict 0
Core_0_L1I_prefetch_pollution_demand 0
Core_0_L1I_prefetch_pollution_among_prefetch_fill 0
Core_0_L1I_prefetch_accuracy 0
Core_0_L1I_prefetch_coverage 0

Core_0_L1D_total_access 13724388
Core_0_L1D_total_hit 6757625
Core_0_L1D_total_miss 6966763
Core_0_L1D_total_MPKI 69.6676
Core_0_L1D_total_miss_rate 0.507619
Core_0_L1D_demand_access 9632718
Core_0_L1D_demand_hit 3652314
Core_0_L1D_demand_miss 5980404
Core_0_L1D_demand_MPKI 59.804
Core_0_L1D_demand_miss_rate 0.620843
Core_0_L1D_load_access 9632718
Core_0_L1D_load_hit 3652314
Core_0_L1D_load_miss 5980404
Core_0_L1D_load_MPKI 59.804
Core_0_L1D_load_miss_rate 0.620843
Core_0_L1D_rfo_access 0
Core_0_L1D_rfo_hit 0
Core_0_L1D_rfo_miss 0
Core_0_L1D_rfo_MPKI 0
Core_0_L1D_rfo_miss_rate 0
Core_0_L1D_prefetch_access 2198466
Core_0_L1D_prefetch_hit 1264261
Core_0_L1D_prefetch_miss 934205
Core_0_L1D_prefetch_MPKI 9.34205
Core_0_L1D_prefetch_miss_rate 0.424935
Core_0_L1D_writeback_access 1893204
Core_0_L1D_writeback_hit 1841050
Core_0_L1D_writeback_miss 52154
Core_0_L1D_writeback_MPKI 0.52154
Core_0_L1D_writeback_miss_rate 0.027548
Core_0_L1D_prefetch_requested 2471947
Core_0_L1D_prefetch_issued 2198466
Core_0_L1D_prefetch_useful 40737
Core_0_L1D_prefetch_useless 48454
Core_0_L1D_prefetch_late 190
Core_0_L1D_prefetch_fill 89005
Core_0_L1D_prefetch_too_early 2002
Core_0_L1D_prefetch_too_early_among_fill 0.0224931
Core_0_L1D_prefetch_too_early_among_useless 0.0413175
Core_0_L1D_prefetch_pollution_evict 15403
Core_0_L1D_prefetch_pollution_demand 15397
Core_0_L1D_prefetch_pollution_among_prefetch_fill 0.173058
Core_0_L1D_prefetch_accuracy 0.0185297
Core_0_L1D_prefetch_coverage 0.00676566

Core_0_L2C_total_access 7162931
Core_0_L2C_total_hit 1290032
Core_0_L2C_total_miss 5872899
Core_0_L2C_total_MPKI 58.729
Core_0_L2C_total_miss_rate 0.819902
Core_0_L2C_demand_access 5885072
Core_0_L2C_demand_hit 267016
Core_0_L2C_demand_miss 5618056
Core_0_L2C_demand_MPKI 56.1806
Core_0_L2C_demand_miss_rate 0.954628
Core_0_L2C_load_access 5872331
Core_0_L2C_load_hit 255325
Core_0_L2C_load_miss 5617006
Core_0_L2C_load_MPKI 56.1701
Core_0_L2C_load_miss_rate 0.956521
Core_0_L2C_rfo_access 12741
Core_0_L2C_rfo_hit 11691
Core_0_L2C_rfo_miss 1050
Core_0_L2C_rfo_MPKI 0.0105
Core_0_L2C_rfo_miss_rate 0.0824111
Core_0_L2C_prefetch_access 1260065
Core_0_L2C_prefetch_hit 1005302
Core_0_L2C_prefetch_miss 254763
Core_0_L2C_prefetch_MPKI 2.54763
Core_0_L2C_prefetch_miss_rate 0.202182
Core_0_L2C_writeback_access 17794
Core_0_L2C_writeback_hit 17714
Core_0_L2C_writeback_miss 80
Core_0_L2C_writeback_MPKI 0.0008
Core_0_L2C_writeback_miss_rate 0.0044959
Core_0_L2C_prefetch_requested 327448
Core_0_L2C_prefetch_issued 327448
Core_0_L2C_prefetch_useful 14137
Core_0_L2C_prefetch_useless 161162
Core_0_L2C_prefetch_late 109
Core_0_L2C_prefetch_fill 246393
Core_0_L2C_prefetch_too_early 197
Core_0_L2C_prefetch_too_early_among_fill 0.000799536
Core_0_L2C_prefetch_too_early_among_useless 0.00122237
Core_0_L2C_prefetch_pollution_evict 54405
Core_0_L2C_prefetch_pollution_demand 54398
Core_0_L2C_prefetch_pollution_among_prefetch_fill 0.220806
Core_0_L2C_prefetch_accuracy 0.0431733
Core_0_L2C_prefetch_coverage 0.00251003

Core_0_LLC_total_access 5867936
Core_0_LLC_total_hit 1448792
Core_0_LLC_total_miss 4419144
Core_0_LLC_total_MPKI 44.1914
Core_0_LLC_total_miss_rate 0.7531
Core_0_LLC_demand_access 5617947
Core_0_LLC_demand_hit 1364663
Core_0_LLC_demand_miss 4253284
Core_0_LLC_demand_MPKI 42.5328
Core_0_LLC_demand_miss_rate 0.757089
Core_0_LLC_load_access 5616897
Core_0_LLC_load_hit 1363613
Core_0_LLC_load_miss 4253284
Core_0_LLC_load_MPKI 42.5328
Core_0_LLC_load_miss_rate 0.75723
Core_0_LLC_rfo_access 1050
Core_0_LLC_rfo_hit 1050
Core_0_LLC_rfo_miss 0
Core_0_LLC_rfo_MPKI 0
Core_0_LLC_rfo_miss_rate 0
Core_0_LLC_prefetch_access 246503
Core_0_LLC_prefetch_hit 80658
Core_0_LLC_prefetch_miss 165845
Core_0_LLC_prefetch_MPKI 1.65845
Core_0_LLC_prefetch_miss_rate 0.672791
Core_0_LLC_writeback_access 3486
Core_0_LLC_writeback_hit 3471
Core_0_LLC_writeback_miss 15
Core_0_LLC_writeback_MPKI 0.00015
Core_0_LLC_writeback_miss_rate 0.00430293
Core_0_LLC_prefetch_requested 0
Core_0_LLC_prefetch_issued 0
Core_0_LLC_prefetch_useful 0
Core_0_LLC_prefetch_useless 0
Core_0_LLC_prefetch_late 0
Core_0_LLC_prefetch_fill 165845
Core_0_LLC_prefetch_too_early 0
Core_0_LLC_prefetch_too_early_among_fill 0
Core_0_LLC_prefetch_too_early_among_useless 0
Core_0_LLC_prefetch_pollution_evict 38484
Core_0_LLC_prefetch_pollution_demand 38484
Core_0_LLC_prefetch_pollution_among_prefetch_fill 0.232048
Core_0_LLC_prefetch_accuracy 0
Core_0_LLC_prefetch_coverage 0

[DRAM Statistics]
Channel_0_RQ_row_buffer_hit 57504
Channel_0_RQ_row_buffer_miss 5523434
Channel_0_WQ_row_buffer_hit 2
Channel_0_WQ_row_buffer_miss 12
Channel_0_WQ_full 0
Channel_0_dbus_congested 5940237
DRAM_total_RQ_row_buffer_hit 57504
DRAM_total_RQ_row_buffer_miss 5523434
DRAM_total_WQ_row_buffer_hit 2
DRAM_total_WQ_row_buffer_miss 12
DRAM_total_WQ_full 0
DRAM_total_dbus_congested 5940237
DRAM_avg_congested_cycle 2.93745

====== DRAM_RQ_TRAFFIC ========
DRAM_RQ_READ_TRAFFIC_BREAKDOWN:
data_demand_read.count = 4253284
data_demand_read.share = 76.21%

inst_demand_read.count = 0
inst_demand_read.share = 0.00%

cache_inst_prefetch.count = 0
cache_inst_prefetch.share = 0.00%

cache_data_prefetch.count = 165845
cache_data_prefetch.share = 2.97%

stlb_data_demand.count = 1161809
stlb_data_demand.share = 20.82%

stlb_inst_demand.count = 0
stlb_inst_demand.share = 0.00%

stlb_l1i_pref.count = 0
stlb_l1i_pref.share = 0.00%

stlb_l1d_pref.count = 5
stlb_l1d_pref.share = 0.00%

DRAM_RQ_READ_TRAFFIC_SUMMARY:
cache_demand.count = 4253284
cache_demand.share = 76.21%

cache_prefetch.count = 165845
cache_prefetch.share = 2.97%

stlb_demand.count = 1161809
stlb_demand.share = 20.82%

stlb_prefetch.count = 5
stlb_prefetch.share = 0.00%

DRAM_RQ_READ_TRAFFIC_DEBUG:
total_classified_read.count = 5580943
unclassified_read.count = 0
total_read_with_other.count = 5580943

classified_plus_unclassified_check.count = 5580943
dram_rq_read_total_observed.count = 5580943
dram_rq_read_total_observed.per_1K_instructions = 55.8094

STLB_MISS_PTW_DRAM_TOUCH_BREAKDOWN:
stlb_miss_total.count = 3670963

stlb_miss_touch_dram.count = 1167321
stlb_miss_touch_dram.share = 31.80%

stlb_miss_no_dram_touch.count = 2503642
stlb_miss_no_dram_touch.share = 68.20%

STLB_MISS_PTW_DRAM_TOUCH_DEBUG:
stlb_miss_touch_plus_no_touch.count = 3670963
stlb_miss_total_check.count = 3670963

======STLB miss causes ========
Core_0_STLB_miss_cause_breakdown
Core_0_STLB_cause_Demand_Data_miss 3666283
Core_0_STLB_cause_Demand_Data_miss_rate 0.96214
Core_0_STLB_cause_Demand_Instruction_miss 0
Core_0_STLB_cause_Demand_Instruction_miss_rate 0
Core_0_STLB_cause_L1D_Prefetch_miss 5230
Core_0_STLB_cause_L1D_Prefetch_miss_rate 0.0013725
Core_0_STLB_cause_L1D_Prefetch_Same_Page_miss 0
Core_0_STLB_cause_L1D_Prefetch_Same_Page_miss_rate 0
Core_0_STLB_cause_L1D_Prefetch_Cross_Page_miss 5230
Core_0_STLB_cause_L1D_Prefetch_Cross_Page_miss_rate 0.0013725
Core_0_STLB_cause_L1I_Prefetch_miss 0
Core_0_STLB_cause_L1I_Prefetch_miss_rate 0
Core_0_STLB_cause_Other_miss 0
Core_0_STLB_cause_Other_miss_rate 0
Core_0_STLB_Demand_miss 3666283
Core_0_STLB_Demand_miss_rate 0.96214
Core_0_STLB_L1D_Prefetch_miss 5230
Core_0_STLB_L1D_Prefetch_miss_rate 0.0013725
Core_0_STLB_Other_miss 0
Core_0_STLB_Other_miss_rate 0

========== vBerti-TLB Cross-page Flow Stats ==========

Core_0_vBerti_Requested 2471947
Core_0_vBerti_Cross_page_prefetch_in_Requested 319774
Core_0_vBerti_Same_page_prefetch_in_Requested 2152173
Core_0_vBerti_Cross_page_prefetch_of_Requested 0.129361
Core_0_vBerti_Issued 2198466
Core_0_vBerti_InPQ_Same_page_prefetch 1946523
Core_0_vBerti_InPQ_Cross_page_prefetch 251943
Core_0_vBerti_PQ_Drop_Rate 0.110634
Core_0_vBerti_InPQ_Cross_page_prefetch_of_Requested 0.101921
Core_0_vBerti_Cross_page_PQ_Drop_rate 0.212122
Core_0_vBerti_Cross_page_prefetch_of_Issued 0.114599
Core_0_CP_PF_PQFULL_drop 67831
Core_0_CP_PF_PQFULL_TLB_rescue_enqueued 67831
Core_0_CP_PF_PQFULL_TLB_rescue_issued 67831
Core_0_CP_PF_PQFULL_TLB_rescue_translated 67831

========= DTLB_vBerti Prefetch Stats =========
Core_0_DTLB_demand_access 11342505
Core_0_DTLB_demand_hit 7315019
Core_0_DTLB_demand_miss 4027486
Core_0_DTLB_demand_mshr_merge 222585
Core_0_DTLB_demand_fill 3804896
Core_0_DTLB_demand_miss_rate 0.355079
Core_0_DTLB_demand_mpki 40.2749
Core_0_DTLB_vberti_prefetch_access 1700834
Core_0_DTLB_vberti_prefetch_hit 1692263
Core_0_DTLB_vberti_prefetch_miss 8571
Core_0_DTLB_vberti_prefetch_mshr_merge 2921
Core_0_DTLB_vberti_prefetch_fill 5650
Core_0_DTLB_vberti_prefetch_miss_rate 0.00503929
Core_0_DTLB_vberti_prefetch_mpki 0.08571

=== DTLB_vBerti Same/Cross-page Prefetch Stats ===
Core_0_DTLB_vberti_same_page_prefetch 1463085
Core_0_DTLB_vberti_same_page_prefetch_hit 1463085
Core_0_DTLB_vberti_same_page_prefetch_miss 0
Core_0_DTLB_vberti_same_page_prefetch_mshr_merge 0
Core_0_DTLB_vberti_same_page_prefetch_fill 0
Core_0_DTLB_vberti_same_page_prefetch_miss_rate 0
Core_0_DTLB_vberti_same_page_prefetch_mpki 0
Core_0_DTLB_vberti_cross_page_prefetch 237749
Core_0_DTLB_vberti_cross_page_prefetch_hit 229178
Core_0_DTLB_vberti_cross_page_prefetch_miss 8571
Core_0_DTLB_vberti_cross_page_prefetch_mshr_merge 2921
Core_0_DTLB_vberti_cross_page_prefetch_fill 5650
Core_0_DTLB_vberti_cross_page_prefetch_miss_rate 0.0360506
Core_0_DTLB_vberti_cross_page_prefetch_mpki 0.08571
Core_0_DTLB_same_page_prefetch_miss_rate 0
Core_0_DTLB_same_page_prefetch_mpki 0
Core_0_DTLB_cross_page_prefetch_miss_rate 0.0360506
Core_0_DTLB_cross_page_prefetch_mpki 0.08571
Core_0_DTLB_cross_page_prefetch_issued 237749
Core_0_DTLB_cross_page_prefetch_lookups 237749
Core_0_DTLB_cross_page_prefetch_useful 839
Core_0_DTLB_cross_page_prefetch_useless 4811
Core_0_DTLB_cross_page_prefetch_late 0
Core_0_DTLB_cross_page_prefetch_too_early 383
Core_0_DTLB_cross_page_prefetch_too_early_among_fill 0.0677876
Core_0_DTLB_cross_page_prefetch_too_early_among_useless 0.0796092
Core_0_DTLB_cross_page_prefetch_pollution_evict 2662
Core_0_DTLB_cross_page_prefetch_pollution_demand 2662
Core_0_DTLB_cross_page_prefetch_pollution_among_prefetch_fill 0.47115
Core_0_DTLB_cross_page_prefetch_accuracy 0.00352893
Core_0_DTLB_cross_page_prefetch_coverage 0.000208275

========= STLB_vBerti Prefetch Stats =========
Core_0_STLB_demand_access 3804901
Core_0_STLB_demand_hit 138618
Core_0_STLB_demand_miss 3666283
Core_0_STLB_demand_mshr_merge 0
Core_0_STLB_demand_fill 3666278
Core_0_STLB_demand_miss_rate 0.963569
Core_0_STLB_demand_mpki 36.6628
Core_0_STLB_vberti_prefetch_access 5650
Core_0_STLB_vberti_prefetch_hit 420
Core_0_STLB_vberti_prefetch_miss 5230
Core_0_STLB_vberti_prefetch_mshr_merge 0
Core_0_STLB_vberti_prefetch_fill 0
Core_0_STLB_vberti_prefetch_miss_rate 0.925664
Core_0_STLB_vberti_prefetch_mpki 0.0523

=== STLB_vBerti Same/Cross-page Prefetch Stats ===
Core_0_STLB_vberti_same_page_prefetch 0
Core_0_STLB_vberti_same_page_prefetch_hit 0
Core_0_STLB_vberti_same_page_prefetch_miss 0
Core_0_STLB_vberti_same_page_prefetch_mshr_merge 0
Core_0_STLB_vberti_same_page_prefetch_fill 0
Core_0_STLB_vberti_same_page_prefetch_miss_rate 0
Core_0_STLB_vberti_same_page_prefetch_mpki 0
Core_0_STLB_vberti_cross_page_prefetch 5650
Core_0_STLB_vberti_cross_page_prefetch_hit 420
Core_0_STLB_vberti_cross_page_prefetch_miss 5230
Core_0_STLB_vberti_cross_page_prefetch_mshr_merge 0
Core_0_STLB_vberti_cross_page_prefetch_fill 0
Core_0_STLB_vberti_cross_page_prefetch_miss_rate 0.925664
Core_0_STLB_vberti_cross_page_prefetch_mpki 0.0523
Core_0_STLB_same_page_prefetch_miss_rate 0
Core_0_STLB_same_page_prefetch_mpki 0
Core_0_STLB_cross_page_prefetch_miss_rate 0.925664
Core_0_STLB_cross_page_prefetch_mpki 0.0523
Core_0_STLB_cross_page_prefetch_issued 5650
Core_0_STLB_cross_page_prefetch_lookups 5650
Core_0_STLB_cross_page_prefetch_useful 545
Core_0_STLB_cross_page_prefetch_useless 3942
Core_0_STLB_cross_page_prefetch_late 545
Core_0_STLB_cross_page_prefetch_too_early 0
Core_0_STLB_cross_page_prefetch_too_early_among_fill 0
Core_0_STLB_cross_page_prefetch_too_early_among_useless 0
Core_0_STLB_cross_page_prefetch_pollution_evict 0
Core_0_STLB_cross_page_prefetch_pollution_demand 0
Core_0_STLB_cross_page_prefetch_pollution_among_prefetch_fill 0
Core_0_STLB_cross_page_prefetch_accuracy 0.0964602
Core_0_STLB_cross_page_prefetch_coverage 0.00014863

========= STLB Cross-page Prefetch Buffer Stats =========
Core_0_STLB_raw_demand_miss 3666283
Core_0_CP_PB_insert 5230
Core_0_CP_PB_demand_hit 545
Core_0_STLB_PB_demand_miss 3665738
Core_0_CP_PB_coverage 0.000148652
Core_0_STLB_raw_demand_mpki 36.6628
Core_0_STLB_PB_demand_mpki 36.6574
Core_0_CP_PB_demand_hit_mpki 0.00545

Core_0_TLB_demand_miss_rate 0.323234
Core_0_TLB_demand_mpki 36.6628
Core_0_TLB_same_page_prefetch_miss_rate 0
Core_0_TLB_same_page_prefetch_mpki 0
Core_0_TLB_cross_page_prefetch_miss_rate 0.021998
Core_0_TLB_cross_page_prefetch_mpki 0.0523
Core_0_TLB_cross_page_prefetch_issued 237749
Core_0_TLB_cross_page_prefetch_lookups 237749
Core_0_TLB_cross_page_prefetch_useful 6
Core_0_TLB_cross_page_prefetch_useless 4043
Core_0_TLB_cross_page_prefetch_late 0
Core_0_TLB_cross_page_prefetch_too_early 74
Core_0_TLB_cross_page_prefetch_too_early_among_fill 0.0130973
Core_0_TLB_cross_page_prefetch_too_early_among_useless 0.0183032
Core_0_TLB_cross_page_prefetch_accuracy 2.52367e-05
Core_0_TLB_cross_page_prefetch_coverage 1.63653e-06
BERTI TO_L1: 1640176 TO_L2: 1570901 TO_L2_BC_MSHR: 0
BERTI AVG_LAT: 115.925 NUM_TRACK_LATENCY: 8932296 NUM_CANT_TRACK_LATENCY: 0
BERTI CROSS_PAGE 342655 NO_CROSS_PAGE: 2868422
BERTI FOUND_BERTI: 12769732 NO_FOUND_BERTI: 3962378
BERTI AVERAGE_ISSUED: 2.85426
