[VMEM] WARNING: physical memory size is smaller than virtual memory size.

*** ChampSim Multicore Out-of-Order Simulator ***
Warmup Instructions: 50000000
Simulation Instructions: 100000000
Number of CPUs: 1
Page size: 4096
Core 0: /data2/zcq/champsim_traces_xsbench/xs.XL64nuclide-355B.champsimtrace.xz
VBerti Prefetcher
BERTI HASH ENTANGLING
BERTI IP MASK ffff
Off-chip DRAM Size: 16 GiB Channels: 1 Width: 64-bit Data Rate: 3205 MT/s
Warmup halting CPU 0 at instruction 50000000 cycle 34022802 for remainder of phase
Warmup finished CPU 0 instructions: 50000000 cycles: 34022802 cumulative IPC: 1.47 (Simulation time: 00 hr 08 min 38 sec)
Warmup complete CPU 0 instructions: 50000000 cycles: 34022802 cumulative IPC: 1.47 (Simulation time: 00 hr 08 min 38 sec)
Simulation finished CPU 0 instructions: 100000003 cycles: 644953621 cumulative IPC: 0.155 (Simulation time: 01 hr 08 min 17 sec)
Simulation complete CPU 0 instructions: 100000003 cycles: 644953621 cumulative IPC: 0.155 (Simulation time: 01 hr 08 min 17 sec)

ChampSim completed all CPUs

=== Simulation ===
CPU 0 runs /data2/zcq/champsim_traces_xsbench/xs.XL64nuclide-355B.champsimtrace.xz

Region of Interest Statistics

CPU 0 cumulative IPC: 0.155 instructions: 100000003 cycles: 644953621
CPU 0 Branch Prediction Accuracy: 87.18% MPKI: 21.44 Average ROB Occupancy at Mispredict: 25.88
Branch type MPKI
BRANCH_DIRECT_JUMP: 0
BRANCH_INDIRECT: 0
BRANCH_CONDITIONAL: 21.44
BRANCH_DIRECT_CALL: 0
BRANCH_INDIRECT_CALL: 0
BRANCH_RETURN: 0

cpu0->cpu0_STLB TOTAL        ACCESS:    3803825 HIT:     129676 MISS:    3674149 MSHR_MERGE:          0
cpu0->cpu0_STLB LOAD         ACCESS:    3803825 HIT:     129676 MISS:    3674149 MSHR_MERGE:          0
cpu0->cpu0_STLB RFO          ACCESS:          0 HIT:          0 MISS:          0 MSHR_MERGE:          0
cpu0->cpu0_STLB PREFETCH     ACCESS:          0 HIT:          0 MISS:          0 MSHR_MERGE:          0
cpu0->cpu0_STLB WRITE        ACCESS:          0 HIT:          0 MISS:          0 MSHR_MERGE:          0
cpu0->cpu0_STLB TRANSLATION  ACCESS:          0 HIT:          0 MISS:          0 MSHR_MERGE:          0
cpu0->cpu0_STLB PREFETCH REQUESTED:          0 ISSUED:          0 USEFUL:          0 USELESS:          0 LATE:          0 TOO_EARLY:          0
cpu0->cpu0_STLB AVERAGE MISS LATENCY: 146.7 cycles
cpu0->cpu0_L2C TOTAL        ACCESS:   10034988 HIT:    1474830 MISS:    8560158 MSHR_MERGE:       8363
cpu0->cpu0_L2C LOAD         ACCESS:    5877726 HIT:     253370 MISS:    5624356 MSHR_MERGE:        113
cpu0->cpu0_L2C RFO          ACCESS:       9945 HIT:       9945 MISS:          0 MSHR_MERGE:          0
cpu0->cpu0_L2C PREFETCH     ACCESS:    1235602 HIT:     979905 MISS:     255697 MSHR_MERGE:       8250
cpu0->cpu0_L2C WRITE        ACCESS:      19355 HIT:      19349 MISS:          6 MSHR_MERGE:          0
cpu0->cpu0_L2C TRANSLATION  ACCESS:    2892360 HIT:     212261 MISS:    2680099 MSHR_MERGE:          0
cpu0->cpu0_L2C PREFETCH REQUESTED:     320242 ISSUED:     320242 USEFUL:      13910 USELESS:     161131 LATE:        113 TOO_EARLY:        187
cpu0->cpu0_L2C AVERAGE MISS LATENCY: 146.7 cycles
cpu0->cpu0_L1I TOTAL        ACCESS:      21824 HIT:      21824 MISS:          0 MSHR_MERGE:          0
cpu0->cpu0_L1I LOAD         ACCESS:      21824 HIT:      21824 MISS:          0 MSHR_MERGE:          0
cpu0->cpu0_L1I RFO          ACCESS:          0 HIT:          0 MISS:          0 MSHR_MERGE:          0
cpu0->cpu0_L1I PREFETCH     ACCESS:          0 HIT:          0 MISS:          0 MSHR_MERGE:          0
cpu0->cpu0_L1I WRITE        ACCESS:          0 HIT:          0 MISS:          0 MSHR_MERGE:          0
cpu0->cpu0_L1I TRANSLATION  ACCESS:          0 HIT:          0 MISS:          0 MSHR_MERGE:          0
cpu0->cpu0_L1I PREFETCH REQUESTED:          0 ISSUED:          0 USEFUL:          0 USELESS:          0 LATE:          0 TOO_EARLY:          0
cpu0->cpu0_L1I AVERAGE MISS LATENCY: - cycles
cpu0->cpu0_L1D TOTAL        ACCESS:   21503695 HIT:   10354136 MISS:   11149559 MSHR_MERGE:    1454123
cpu0->cpu0_L1D LOAD         ACCESS:    9618958 HIT:    3631457 MISS:    5987501 MSHR_MERGE:     109775
cpu0->cpu0_L1D RFO          ACCESS:          0 HIT:          0 MISS:          0 MSHR_MERGE:          0
cpu0->cpu0_L1D PREFETCH     ACCESS:    2167944 HIT:    1252583 MISS:     915361 MSHR_MERGE:          1
cpu0->cpu0_L1D WRITE        ACCESS:    1890359 HIT:    1840370 MISS:      49989 MSHR_MERGE:      39999
cpu0->cpu0_L1D TRANSLATION  ACCESS:    7826434 HIT:    3629726 MISS:    4196708 MSHR_MERGE:    1304348
cpu0->cpu0_L1D PREFETCH REQUESTED:    2440124 ISSUED:    2167944 USEFUL:      42390 USELESS:      48205 LATE:        677 TOO_EARLY:       1945
cpu0->cpu0_L1D AVERAGE MISS LATENCY: 147.7 cycles
cpu0->cpu0_ITLB TOTAL        ACCESS:      17727 HIT:      17727 MISS:          0 MSHR_MERGE:          0
cpu0->cpu0_ITLB LOAD         ACCESS:      17727 HIT:      17727 MISS:          0 MSHR_MERGE:          0
cpu0->cpu0_ITLB RFO          ACCESS:          0 HIT:          0 MISS:          0 MSHR_MERGE:          0
cpu0->cpu0_ITLB PREFETCH     ACCESS:          0 HIT:          0 MISS:          0 MSHR_MERGE:          0
cpu0->cpu0_ITLB WRITE        ACCESS:          0 HIT:          0 MISS:          0 MSHR_MERGE:          0
cpu0->cpu0_ITLB TRANSLATION  ACCESS:          0 HIT:          0 MISS:          0 MSHR_MERGE:          0
cpu0->cpu0_ITLB PREFETCH REQUESTED:          0 ISSUED:          0 USEFUL:          0 USELESS:          0 LATE:          0 TOO_EARLY:          0
cpu0->cpu0_ITLB AVERAGE MISS LATENCY: - cycles
cpu0->cpu0_DTLB TOTAL        ACCESS:   13010909 HIT:    8990240 MISS:    4020669 MSHR_MERGE:     216844
cpu0->cpu0_DTLB LOAD         ACCESS:   13010909 HIT:    8990240 MISS:    4020669 MSHR_MERGE:     216844
cpu0->cpu0_DTLB RFO          ACCESS:          0 HIT:          0 MISS:          0 MSHR_MERGE:          0
cpu0->cpu0_DTLB PREFETCH     ACCESS:          0 HIT:          0 MISS:          0 MSHR_MERGE:          0
cpu0->cpu0_DTLB WRITE        ACCESS:          0 HIT:          0 MISS:          0 MSHR_MERGE:          0
cpu0->cpu0_DTLB TRANSLATION  ACCESS:          0 HIT:          0 MISS:          0 MSHR_MERGE:          0
cpu0->cpu0_DTLB PREFETCH REQUESTED:          0 ISSUED:          0 USEFUL:          0 USELESS:          0 LATE:          0 TOO_EARLY:          0
cpu0->cpu0_DTLB AVERAGE MISS LATENCY: 147.6 cycles
cpu0->LLC TOTAL        ACCESS:    8555363 HIT:    2966499 MISS:    5588864 MSHR_MERGE:          0
cpu0->LLC LOAD         ACCESS:    5624243 HIT:    1365940 MISS:    4258303 MSHR_MERGE:          0
cpu0->LLC RFO          ACCESS:          0 HIT:          0 MISS:          0 MSHR_MERGE:          0
cpu0->LLC PREFETCH     ACCESS:     247447 HIT:      82131 MISS:     165316 MSHR_MERGE:          0
cpu0->LLC WRITE        ACCESS:       3574 HIT:       3561 MISS:         13 MSHR_MERGE:          0
cpu0->LLC TRANSLATION  ACCESS:    2680099 HIT:    1514867 MISS:    1165232 MSHR_MERGE:          0
cpu0->LLC PREFETCH REQUESTED:          0 ISSUED:          0 USEFUL:          0 USELESS:          0 LATE:          0 TOO_EARLY:          0
cpu0->LLC AVERAGE MISS LATENCY: 200.6 cycles

DRAM Statistics

Channel 0 RQ ROW_BUFFER_HIT:      57417
  ROW_BUFFER_MISS:    5531433
  AVG DBUS CONGESTED CYCLE: 2.938
Channel 0 WQ ROW_BUFFER_HIT:          0
  ROW_BUFFER_MISS:         15
  FULL:          0
Channel 0 REFRESHES ISSUED:      53746

[ROI Statistics]
[System Configuration]
num_cpus 1
cpu_freq 4000
fetch_width 6
decode_width 6
dispatch_width 6
execute_width 6
lq_width 2
sq_width 2
retire_width 6
scheduler_size 128
branch_mispredict_penalty 15
rob_size 352
lq_size 128
sq_size 72
ifetch_buffer_size 64
decode_buffer_size 32
dispatch_buffer_size 32
register_file_size 288
decode_latency 1
dispatch_latency 1
schedule_latency 1
execute_latency 1
page_size 4096
block_size 64
core_0_itlb_set 16
core_0_itlb_way 4
core_0_itlb_rq_size 16
core_0_itlb_wq_size 16
core_0_itlb_pq_size 0
core_0_itlb_mshr_size 8
core_0_itlb_hit_latency 1
core_0_itlb_fill_latency 1
core_0_itlb_max_tag_check 2
core_0_itlb_max_fill 2
core_0_dtlb_set 16
core_0_dtlb_way 4
core_0_dtlb_rq_size 16
core_0_dtlb_wq_size 16
core_0_dtlb_pq_size 0
core_0_dtlb_mshr_size 8
core_0_dtlb_hit_latency 1
core_0_dtlb_fill_latency 1
core_0_dtlb_max_tag_check 2
core_0_dtlb_max_fill 2
core_0_stlb_set 128
core_0_stlb_way 12
core_0_stlb_rq_size 32
core_0_stlb_wq_size 32
core_0_stlb_pq_size 0
core_0_stlb_mshr_size 16
core_0_stlb_hit_latency 4
core_0_stlb_fill_latency 4
core_0_stlb_max_tag_check 1
core_0_stlb_max_fill 1
core_0_l1i_set 64
core_0_l1i_way 8
core_0_l1i_rq_size 64
core_0_l1i_wq_size 64
core_0_l1i_pq_size 32
core_0_l1i_mshr_size 8
core_0_l1i_hit_latency 2
core_0_l1i_fill_latency 2
core_0_l1i_max_tag_check 2
core_0_l1i_max_fill 2
core_0_l1d_set 64
core_0_l1d_way 12
core_0_l1d_rq_size 64
core_0_l1d_wq_size 64
core_0_l1d_pq_size 8
core_0_l1d_mshr_size 16
core_0_l1d_hit_latency 2
core_0_l1d_fill_latency 3
core_0_l1d_max_tag_check 2
core_0_l1d_max_fill 2
core_0_l2c_set 1024
core_0_l2c_way 8
core_0_l2c_rq_size 32
core_0_l2c_wq_size 32
core_0_l2c_pq_size 16
core_0_l2c_mshr_size 32
core_0_l2c_hit_latency 5
core_0_l2c_fill_latency 5
core_0_l2c_max_tag_check 1
core_0_l2c_max_fill 1
llc_set 2048
llc_way 16
llc_rq_size 32
llc_wq_size 32
llc_pq_size 32
llc_mshr_size 64
llc_hit_latency 10
llc_fill_latency 10
llc_max_tag_check 1
llc_max_fill 1
dram_channels 1
dram_ranks 1
dram_bankgroups 8
dram_banks 4
dram_rows 65536
dram_columns 1024
dram_channel_width 8
dram_rq_size 64
dram_wq_size 64
dram_size 17179869184
core_0_itlb_prefetcher no
core_0_dtlb_prefetcher no
core_0_stlb_prefetcher no
core_0_l1i_prefetcher next_line
core_0_l1d_prefetcher vberti
core_0_l2c_prefetcher ip_stride
llc_prefetcher no
llc_replacement drrip

Core_0_instructions 100000003
Core_0_cycles 644953621
Core_0_IPC 0.15505
Core_0_branch_prediction_accuracy 87.1805
Core_0_branch_MPKI 21.4373
Core_0_average_ROB_occupancy_at_mispredict 25.8827

Core_0_ITLB_total_access 17727
Core_0_ITLB_total_hit 17727
Core_0_ITLB_total_miss 0
Core_0_ITLB_total_MPKI 0
Core_0_ITLB_total_miss_rate 0
Core_0_ITLB_demand_access 17727
Core_0_ITLB_demand_hit 17727
Core_0_ITLB_demand_miss 0
Core_0_ITLB_demand_MPKI 0
Core_0_ITLB_demand_miss_rate 0
Core_0_ITLB_load_access 17727
Core_0_ITLB_load_hit 17727
Core_0_ITLB_load_miss 0
Core_0_ITLB_load_MPKI 0
Core_0_ITLB_load_miss_rate 0
Core_0_ITLB_rfo_access 0
Core_0_ITLB_rfo_hit 0
Core_0_ITLB_rfo_miss 0
Core_0_ITLB_rfo_MPKI 0
Core_0_ITLB_rfo_miss_rate 0
Core_0_ITLB_prefetch_access 0
Core_0_ITLB_prefetch_hit 0
Core_0_ITLB_prefetch_miss 0
Core_0_ITLB_prefetch_MPKI 0
Core_0_ITLB_prefetch_miss_rate 0
Core_0_ITLB_writeback_access 0
Core_0_ITLB_writeback_hit 0
Core_0_ITLB_writeback_miss 0
Core_0_ITLB_writeback_MPKI 0
Core_0_ITLB_writeback_miss_rate 0
Core_0_ITLB_prefetch_requested 0
Core_0_ITLB_prefetch_issued 0
Core_0_ITLB_prefetch_useful 0
Core_0_ITLB_prefetch_useless 0
Core_0_ITLB_prefetch_late 0
Core_0_ITLB_prefetch_fill 0
Core_0_ITLB_prefetch_too_early 0
Core_0_ITLB_prefetch_too_early_among_fill 0
Core_0_ITLB_prefetch_too_early_among_useless 0
Core_0_ITLB_prefetch_pollution_evict 0
Core_0_ITLB_prefetch_pollution_demand 0
Core_0_ITLB_prefetch_pollution_among_prefetch_fill 0
Core_0_ITLB_prefetch_accuracy 0
Core_0_ITLB_prefetch_coverage 0

Core_0_DTLB_total_access 13010909
Core_0_DTLB_total_hit 8990240
Core_0_DTLB_total_miss 4020669
Core_0_DTLB_total_MPKI 40.2067
Core_0_DTLB_total_miss_rate 0.309023
Core_0_DTLB_demand_access 13010909
Core_0_DTLB_demand_hit 8990240
Core_0_DTLB_demand_miss 4020669
Core_0_DTLB_demand_MPKI 40.2067
Core_0_DTLB_demand_miss_rate 0.309023
Core_0_DTLB_load_access 13010909
Core_0_DTLB_load_hit 8990240
Core_0_DTLB_load_miss 4020669
Core_0_DTLB_load_MPKI 40.2067
Core_0_DTLB_load_miss_rate 0.309023
Core_0_DTLB_rfo_access 0
Core_0_DTLB_rfo_hit 0
Core_0_DTLB_rfo_miss 0
Core_0_DTLB_rfo_MPKI 0
Core_0_DTLB_rfo_miss_rate 0
Core_0_DTLB_prefetch_access 0
Core_0_DTLB_prefetch_hit 0
Core_0_DTLB_prefetch_miss 0
Core_0_DTLB_prefetch_MPKI 0
Core_0_DTLB_prefetch_miss_rate 0
Core_0_DTLB_writeback_access 0
Core_0_DTLB_writeback_hit 0
Core_0_DTLB_writeback_miss 0
Core_0_DTLB_writeback_MPKI 0
Core_0_DTLB_writeback_miss_rate 0
Core_0_DTLB_prefetch_requested 0
Core_0_DTLB_prefetch_issued 0
Core_0_DTLB_prefetch_useful 0
Core_0_DTLB_prefetch_useless 0
Core_0_DTLB_prefetch_late 0
Core_0_DTLB_prefetch_fill 0
Core_0_DTLB_prefetch_too_early 0
Core_0_DTLB_prefetch_too_early_among_fill 0
Core_0_DTLB_prefetch_too_early_among_useless 0
Core_0_DTLB_prefetch_pollution_evict 0
Core_0_DTLB_prefetch_pollution_demand 0
Core_0_DTLB_prefetch_pollution_among_prefetch_fill 0
Core_0_DTLB_prefetch_accuracy 0
Core_0_DTLB_prefetch_coverage 0

Core_0_STLB_total_access 3803825
Core_0_STLB_total_hit 129676
Core_0_STLB_total_miss 3674149
Core_0_STLB_total_MPKI 36.7415
Core_0_STLB_total_miss_rate 0.965909
Core_0_STLB_demand_access 3803825
Core_0_STLB_demand_hit 129676
Core_0_STLB_demand_miss 3674149
Core_0_STLB_demand_MPKI 36.7415
Core_0_STLB_demand_miss_rate 0.965909
Core_0_STLB_load_access 3803825
Core_0_STLB_load_hit 129676
Core_0_STLB_load_miss 3674149
Core_0_STLB_load_MPKI 36.7415
Core_0_STLB_load_miss_rate 0.965909
Core_0_STLB_rfo_access 0
Core_0_STLB_rfo_hit 0
Core_0_STLB_rfo_miss 0
Core_0_STLB_rfo_MPKI 0
Core_0_STLB_rfo_miss_rate 0
Core_0_STLB_prefetch_access 0
Core_0_STLB_prefetch_hit 0
Core_0_STLB_prefetch_miss 0
Core_0_STLB_prefetch_MPKI 0
Core_0_STLB_prefetch_miss_rate 0
Core_0_STLB_writeback_access 0
Core_0_STLB_writeback_hit 0
Core_0_STLB_writeback_miss 0
Core_0_STLB_writeback_MPKI 0
Core_0_STLB_writeback_miss_rate 0
Core_0_STLB_prefetch_requested 0
Core_0_STLB_prefetch_issued 0
Core_0_STLB_prefetch_useful 0
Core_0_STLB_prefetch_useless 0
Core_0_STLB_prefetch_late 0
Core_0_STLB_prefetch_fill 0
Core_0_STLB_prefetch_too_early 0
Core_0_STLB_prefetch_too_early_among_fill 0
Core_0_STLB_prefetch_too_early_among_useless 0
Core_0_STLB_prefetch_pollution_evict 0
Core_0_STLB_prefetch_pollution_demand 0
Core_0_STLB_prefetch_pollution_among_prefetch_fill 0
Core_0_STLB_prefetch_accuracy 0
Core_0_STLB_prefetch_coverage 0

Core_0_L1I_total_access 21824
Core_0_L1I_total_hit 21824
Core_0_L1I_total_miss 0
Core_0_L1I_total_MPKI 0
Core_0_L1I_total_miss_rate 0
Core_0_L1I_demand_access 21824
Core_0_L1I_demand_hit 21824
Core_0_L1I_demand_miss 0
Core_0_L1I_demand_MPKI 0
Core_0_L1I_demand_miss_rate 0
Core_0_L1I_load_access 21824
Core_0_L1I_load_hit 21824
Core_0_L1I_load_miss 0
Core_0_L1I_load_MPKI 0
Core_0_L1I_load_miss_rate 0
Core_0_L1I_rfo_access 0
Core_0_L1I_rfo_hit 0
Core_0_L1I_rfo_miss 0
Core_0_L1I_rfo_MPKI 0
Core_0_L1I_rfo_miss_rate 0
Core_0_L1I_prefetch_access 0
Core_0_L1I_prefetch_hit 0
Core_0_L1I_prefetch_miss 0
Core_0_L1I_prefetch_MPKI 0
Core_0_L1I_prefetch_miss_rate 0
Core_0_L1I_writeback_access 0
Core_0_L1I_writeback_hit 0
Core_0_L1I_writeback_miss 0
Core_0_L1I_writeback_MPKI 0
Core_0_L1I_writeback_miss_rate 0
Core_0_L1I_prefetch_requested 0
Core_0_L1I_prefetch_issued 0
Core_0_L1I_prefetch_useful 0
Core_0_L1I_prefetch_useless 0
Core_0_L1I_prefetch_late 0
Core_0_L1I_prefetch_fill 0
Core_0_L1I_prefetch_too_early 0
Core_0_L1I_prefetch_too_early_among_fill 0
Core_0_L1I_prefetch_too_early_among_useless 0
Core_0_L1I_prefetch_pollution_evict 0
Core_0_L1I_prefetch_pollution_demand 0
Core_0_L1I_prefetch_pollution_among_prefetch_fill 0
Core_0_L1I_prefetch_accuracy 0
Core_0_L1I_prefetch_coverage 0

Core_0_L1D_total_access 13677261
Core_0_L1D_total_hit 6724410
Core_0_L1D_total_miss 6952851
Core_0_L1D_total_MPKI 69.5285
Core_0_L1D_total_miss_rate 0.508351
Core_0_L1D_demand_access 9618958
Core_0_L1D_demand_hit 3631457
Core_0_L1D_demand_miss 5987501
Core_0_L1D_demand_MPKI 59.875
Core_0_L1D_demand_miss_rate 0.622469
Core_0_L1D_load_access 9618958
Core_0_L1D_load_hit 3631457
Core_0_L1D_load_miss 5987501
Core_0_L1D_load_MPKI 59.875
Core_0_L1D_load_miss_rate 0.622469
Core_0_L1D_rfo_access 0
Core_0_L1D_rfo_hit 0
Core_0_L1D_rfo_miss 0
Core_0_L1D_rfo_MPKI 0
Core_0_L1D_rfo_miss_rate 0
Core_0_L1D_prefetch_access 2167944
Core_0_L1D_prefetch_hit 1252583
Core_0_L1D_prefetch_miss 915361
Core_0_L1D_prefetch_MPKI 9.15361
Core_0_L1D_prefetch_miss_rate 0.422225
Core_0_L1D_writeback_access 1890359
Core_0_L1D_writeback_hit 1840370
Core_0_L1D_writeback_miss 49989
Core_0_L1D_writeback_MPKI 0.49989
Core_0_L1D_writeback_miss_rate 0.0264442
Core_0_L1D_prefetch_requested 2440124
Core_0_L1D_prefetch_issued 2167944
Core_0_L1D_prefetch_useful 42390
Core_0_L1D_prefetch_useless 48205
Core_0_L1D_prefetch_late 677
Core_0_L1D_prefetch_fill 89920
Core_0_L1D_prefetch_too_early 1945
Core_0_L1D_prefetch_too_early_among_fill 0.0216303
Core_0_L1D_prefetch_too_early_among_useless 0.0403485
Core_0_L1D_prefetch_pollution_evict 15324
Core_0_L1D_prefetch_pollution_demand 15307
Core_0_L1D_prefetch_pollution_among_prefetch_fill 0.170418
Core_0_L1D_prefetch_accuracy 0.0195531
Core_0_L1D_prefetch_coverage 0.00702998

Core_0_L2C_total_access 7142628
Core_0_L2C_total_hit 1262569
Core_0_L2C_total_miss 5880059
Core_0_L2C_total_MPKI 58.8006
Core_0_L2C_total_miss_rate 0.823235
Core_0_L2C_demand_access 5887671
Core_0_L2C_demand_hit 263315
Core_0_L2C_demand_miss 5624356
Core_0_L2C_demand_MPKI 56.2436
Core_0_L2C_demand_miss_rate 0.955277
Core_0_L2C_load_access 5877726
Core_0_L2C_load_hit 253370
Core_0_L2C_load_miss 5624356
Core_0_L2C_load_MPKI 56.2436
Core_0_L2C_load_miss_rate 0.956893
Core_0_L2C_rfo_access 9945
Core_0_L2C_rfo_hit 9945
Core_0_L2C_rfo_miss 0
Core_0_L2C_rfo_MPKI 0
Core_0_L2C_rfo_miss_rate 0
Core_0_L2C_prefetch_access 1235602
Core_0_L2C_prefetch_hit 979905
Core_0_L2C_prefetch_miss 255697
Core_0_L2C_prefetch_MPKI 2.55697
Core_0_L2C_prefetch_miss_rate 0.206941
Core_0_L2C_writeback_access 19355
Core_0_L2C_writeback_hit 19349
Core_0_L2C_writeback_miss 6
Core_0_L2C_writeback_MPKI 6e-05
Core_0_L2C_writeback_miss_rate 0.000309997
Core_0_L2C_prefetch_requested 320242
Core_0_L2C_prefetch_issued 320242
Core_0_L2C_prefetch_useful 13910
Core_0_L2C_prefetch_useless 161131
Core_0_L2C_prefetch_late 113
Core_0_L2C_prefetch_fill 247334
Core_0_L2C_prefetch_too_early 187
Core_0_L2C_prefetch_too_early_among_fill 0.000756063
Core_0_L2C_prefetch_too_early_among_useless 0.00116055
Core_0_L2C_prefetch_pollution_evict 53454
Core_0_L2C_prefetch_pollution_demand 53451
Core_0_L2C_prefetch_pollution_among_prefetch_fill 0.216121
Core_0_L2C_prefetch_accuracy 0.0434359
Core_0_L2C_prefetch_coverage 0.00246707

Core_0_LLC_total_access 5875264
Core_0_LLC_total_hit 1451632
Core_0_LLC_total_miss 4423632
Core_0_LLC_total_MPKI 44.2363
Core_0_LLC_total_miss_rate 0.752925
Core_0_LLC_demand_access 5624243
Core_0_LLC_demand_hit 1365940
Core_0_LLC_demand_miss 4258303
Core_0_LLC_demand_MPKI 42.583
Core_0_LLC_demand_miss_rate 0.757134
Core_0_LLC_load_access 5624243
Core_0_LLC_load_hit 1365940
Core_0_LLC_load_miss 4258303
Core_0_LLC_load_MPKI 42.583
Core_0_LLC_load_miss_rate 0.757134
Core_0_LLC_rfo_access 0
Core_0_LLC_rfo_hit 0
Core_0_LLC_rfo_miss 0
Core_0_LLC_rfo_MPKI 0
Core_0_LLC_rfo_miss_rate 0
Core_0_LLC_prefetch_access 247447
Core_0_LLC_prefetch_hit 82131
Core_0_LLC_prefetch_miss 165316
Core_0_LLC_prefetch_MPKI 1.65316
Core_0_LLC_prefetch_miss_rate 0.668086
Core_0_LLC_writeback_access 3574
Core_0_LLC_writeback_hit 3561
Core_0_LLC_writeback_miss 13
Core_0_LLC_writeback_MPKI 0.00013
Core_0_LLC_writeback_miss_rate 0.00363738
Core_0_LLC_prefetch_requested 0
Core_0_LLC_prefetch_issued 0
Core_0_LLC_prefetch_useful 0
Core_0_LLC_prefetch_useless 0
Core_0_LLC_prefetch_late 0
Core_0_LLC_prefetch_fill 165316
Core_0_LLC_prefetch_too_early 0
Core_0_LLC_prefetch_too_early_among_fill 0
Core_0_LLC_prefetch_too_early_among_useless 0
Core_0_LLC_prefetch_pollution_evict 38140
Core_0_LLC_prefetch_pollution_demand 38140
Core_0_LLC_prefetch_pollution_among_prefetch_fill 0.23071
Core_0_LLC_prefetch_accuracy 0
Core_0_LLC_prefetch_coverage 0

[DRAM Statistics]
Channel_0_RQ_row_buffer_hit 57417
Channel_0_RQ_row_buffer_miss 5531433
Channel_0_WQ_row_buffer_hit 0
Channel_0_WQ_row_buffer_miss 15
Channel_0_WQ_full 0
Channel_0_dbus_congested 5950647
DRAM_total_RQ_row_buffer_hit 57417
DRAM_total_RQ_row_buffer_miss 5531433
DRAM_total_WQ_row_buffer_hit 0
DRAM_total_WQ_row_buffer_miss 15
DRAM_total_WQ_full 0
DRAM_total_dbus_congested 5950647
DRAM_avg_congested_cycle 2.93849

====== DRAM_RQ_TRAFFIC ========
DRAM_RQ_READ_TRAFFIC_BREAKDOWN:
data_demand_read.count = 4258303
data_demand_read.share = 76.19%

inst_demand_read.count = 0
inst_demand_read.share = 0.00%

cache_inst_prefetch.count = 0
cache_inst_prefetch.share = 0.00%

cache_data_prefetch.count = 165316
cache_data_prefetch.share = 2.96%

stlb_data_demand.count = 1165218
stlb_data_demand.share = 20.85%

stlb_inst_demand.count = 0
stlb_inst_demand.share = 0.00%

stlb_l1i_pref.count = 0
stlb_l1i_pref.share = 0.00%

stlb_l1d_pref.count = 14
stlb_l1d_pref.share = 0.00%

DRAM_RQ_READ_TRAFFIC_SUMMARY:
cache_demand.count = 4258303
cache_demand.share = 76.19%

cache_prefetch.count = 165316
cache_prefetch.share = 2.96%

stlb_demand.count = 1165218
stlb_demand.share = 20.85%

stlb_prefetch.count = 14
stlb_prefetch.share = 0.00%

DRAM_RQ_READ_TRAFFIC_DEBUG:
total_classified_read.count = 5588851
unclassified_read.count = 0
total_read_with_other.count = 5588851

classified_plus_unclassified_check.count = 5588851
dram_rq_read_total_observed.count = 5588851
dram_rq_read_total_observed.per_1K_instructions = 55.8885

STLB_MISS_PTW_DRAM_TOUCH_BREAKDOWN:
stlb_miss_total.count = 3673618

stlb_miss_touch_dram.count = 1170740
stlb_miss_touch_dram.share = 31.87%

stlb_miss_no_dram_touch.count = 2502878
stlb_miss_no_dram_touch.share = 68.13%

STLB_MISS_PTW_DRAM_TOUCH_DEBUG:
stlb_miss_touch_plus_no_touch.count = 3673618
stlb_miss_total_check.count = 3673618

======STLB miss causes ========
Core_0_STLB_miss_cause_breakdown
Core_0_STLB_cause_Demand_Data_miss 3669180
Core_0_STLB_cause_Demand_Data_miss_rate 0.964603
Core_0_STLB_cause_Demand_Instruction_miss 0
Core_0_STLB_cause_Demand_Instruction_miss_rate 0
Core_0_STLB_cause_L1D_Prefetch_miss 4969
Core_0_STLB_cause_L1D_Prefetch_miss_rate 0.00130632
Core_0_STLB_cause_L1D_Prefetch_Same_Page_miss 0
Core_0_STLB_cause_L1D_Prefetch_Same_Page_miss_rate 0
Core_0_STLB_cause_L1D_Prefetch_Cross_Page_miss 4969
Core_0_STLB_cause_L1D_Prefetch_Cross_Page_miss_rate 0.00130632
Core_0_STLB_cause_L1I_Prefetch_miss 0
Core_0_STLB_cause_L1I_Prefetch_miss_rate 0
Core_0_STLB_cause_Other_miss 0
Core_0_STLB_cause_Other_miss_rate 0
Core_0_STLB_Demand_miss 3669180
Core_0_STLB_Demand_miss_rate 0.964603
Core_0_STLB_L1D_Prefetch_miss 4969
Core_0_STLB_L1D_Prefetch_miss_rate 0.00130632
Core_0_STLB_Other_miss 0
Core_0_STLB_Other_miss_rate 0

========== vBerti-TLB Cross-page Flow Stats ==========

Core_0_vBerti_Requested 2440124
Core_0_vBerti_Cross_page_prefetch_in_Requested 306650
Core_0_vBerti_Same_page_prefetch_in_Requested 2133474
Core_0_vBerti_Cross_page_prefetch_of_Requested 0.12567
Core_0_vBerti_Issued 2167944
Core_0_vBerti_InPQ_Same_page_prefetch 1928005
Core_0_vBerti_InPQ_Cross_page_prefetch 239939
Core_0_vBerti_PQ_Drop_Rate 0.111544
Core_0_vBerti_InPQ_Cross_page_prefetch_of_Requested 0.0983307
Core_0_vBerti_Cross_page_PQ_Drop_rate 0.217548
Core_0_vBerti_Cross_page_prefetch_of_Issued 0.110676
Core_0_CP_PF_PQFULL_drop 66711
Core_0_CP_PF_PQFULL_TLB_rescue_enqueued 66711
Core_0_CP_PF_PQFULL_TLB_rescue_issued 66711
Core_0_CP_PF_PQFULL_TLB_rescue_translated 66711

========= DTLB_vBerti Prefetch Stats =========
Core_0_DTLB_demand_access 11334148
Core_0_DTLB_demand_hit 7321415
Core_0_DTLB_demand_miss 4012733
Core_0_DTLB_demand_mshr_merge 214223
Core_0_DTLB_demand_fill 3798512
Core_0_DTLB_demand_miss_rate 0.354039
Core_0_DTLB_demand_mpki 40.1273
Core_0_DTLB_vberti_prefetch_access 1676761
Core_0_DTLB_vberti_prefetch_hit 1668825
Core_0_DTLB_vberti_prefetch_miss 7936
Core_0_DTLB_vberti_prefetch_mshr_merge 2621
Core_0_DTLB_vberti_prefetch_fill 5315
Core_0_DTLB_vberti_prefetch_miss_rate 0.00473293
Core_0_DTLB_vberti_prefetch_mpki 0.07936

=== DTLB_vBerti Same/Cross-page Prefetch Stats ===
Core_0_DTLB_vberti_same_page_prefetch 1448956
Core_0_DTLB_vberti_same_page_prefetch_hit 1448956
Core_0_DTLB_vberti_same_page_prefetch_miss 0
Core_0_DTLB_vberti_same_page_prefetch_mshr_merge 0
Core_0_DTLB_vberti_same_page_prefetch_fill 0
Core_0_DTLB_vberti_same_page_prefetch_miss_rate 0
Core_0_DTLB_vberti_same_page_prefetch_mpki 0
Core_0_DTLB_vberti_cross_page_prefetch 227805
Core_0_DTLB_vberti_cross_page_prefetch_hit 219869
Core_0_DTLB_vberti_cross_page_prefetch_miss 7936
Core_0_DTLB_vberti_cross_page_prefetch_mshr_merge 2621
Core_0_DTLB_vberti_cross_page_prefetch_fill 5315
Core_0_DTLB_vberti_cross_page_prefetch_miss_rate 0.0348368
Core_0_DTLB_vberti_cross_page_prefetch_mpki 0.07936
Core_0_DTLB_same_page_prefetch_miss_rate 0
Core_0_DTLB_same_page_prefetch_mpki 0
Core_0_DTLB_cross_page_prefetch_miss_rate 0.0348368
Core_0_DTLB_cross_page_prefetch_mpki 0.07936
Core_0_DTLB_cross_page_prefetch_issued 227805
Core_0_DTLB_cross_page_prefetch_lookups 227805
Core_0_DTLB_cross_page_prefetch_useful 838
Core_0_DTLB_cross_page_prefetch_useless 4477
Core_0_DTLB_cross_page_prefetch_late 0
Core_0_DTLB_cross_page_prefetch_too_early 330
Core_0_DTLB_cross_page_prefetch_too_early_among_fill 0.0620884
Core_0_DTLB_cross_page_prefetch_too_early_among_useless 0.0737101
Core_0_DTLB_cross_page_prefetch_pollution_evict 2735
Core_0_DTLB_cross_page_prefetch_pollution_demand 2735
Core_0_DTLB_cross_page_prefetch_pollution_among_prefetch_fill 0.514581
Core_0_DTLB_cross_page_prefetch_accuracy 0.00367858
Core_0_DTLB_cross_page_prefetch_coverage 0.000208792

========= STLB_vBerti Prefetch Stats =========
Core_0_STLB_demand_access 3798510
Core_0_STLB_demand_hit 129330
Core_0_STLB_demand_miss 3669180
Core_0_STLB_demand_mshr_merge 0
Core_0_STLB_demand_fill 3669182
Core_0_STLB_demand_miss_rate 0.965952
Core_0_STLB_demand_mpki 36.6918
Core_0_STLB_vberti_prefetch_access 5315
Core_0_STLB_vberti_prefetch_hit 346
Core_0_STLB_vberti_prefetch_miss 4969
Core_0_STLB_vberti_prefetch_mshr_merge 0
Core_0_STLB_vberti_prefetch_fill 0
Core_0_STLB_vberti_prefetch_miss_rate 0.934901
Core_0_STLB_vberti_prefetch_mpki 0.04969

=== STLB_vBerti Same/Cross-page Prefetch Stats ===
Core_0_STLB_vberti_same_page_prefetch 0
Core_0_STLB_vberti_same_page_prefetch_hit 0
Core_0_STLB_vberti_same_page_prefetch_miss 0
Core_0_STLB_vberti_same_page_prefetch_mshr_merge 0
Core_0_STLB_vberti_same_page_prefetch_fill 0
Core_0_STLB_vberti_same_page_prefetch_miss_rate 0
Core_0_STLB_vberti_same_page_prefetch_mpki 0
Core_0_STLB_vberti_cross_page_prefetch 5315
Core_0_STLB_vberti_cross_page_prefetch_hit 346
Core_0_STLB_vberti_cross_page_prefetch_miss 4969
Core_0_STLB_vberti_cross_page_prefetch_mshr_merge 0
Core_0_STLB_vberti_cross_page_prefetch_fill 0
Core_0_STLB_vberti_cross_page_prefetch_miss_rate 0.934901
Core_0_STLB_vberti_cross_page_prefetch_mpki 0.04969
Core_0_STLB_same_page_prefetch_miss_rate 0
Core_0_STLB_same_page_prefetch_mpki 0
Core_0_STLB_cross_page_prefetch_miss_rate 0.934901
Core_0_STLB_cross_page_prefetch_mpki 0.04969
Core_0_STLB_cross_page_prefetch_issued 5315
Core_0_STLB_cross_page_prefetch_lookups 5315
Core_0_STLB_cross_page_prefetch_useful 531
Core_0_STLB_cross_page_prefetch_useless 3657
Core_0_STLB_cross_page_prefetch_late 531
Core_0_STLB_cross_page_prefetch_too_early 0
Core_0_STLB_cross_page_prefetch_too_early_among_fill 0
Core_0_STLB_cross_page_prefetch_too_early_among_useless 0
Core_0_STLB_cross_page_prefetch_pollution_evict 0
Core_0_STLB_cross_page_prefetch_pollution_demand 0
Core_0_STLB_cross_page_prefetch_pollution_among_prefetch_fill 0
Core_0_STLB_cross_page_prefetch_accuracy 0.0999059
Core_0_STLB_cross_page_prefetch_coverage 0.000144698

========= STLB Cross-page Prefetch Buffer Stats =========
Core_0_STLB_raw_demand_miss 3669180
Core_0_CP_PB_insert 4969
Core_0_CP_PB_demand_hit 531
Core_0_STLB_PB_demand_miss 3668649
Core_0_CP_PB_coverage 0.000144719
Core_0_STLB_raw_demand_mpki 36.6918
Core_0_STLB_PB_demand_mpki 36.6865
Core_0_CP_PB_demand_hit_mpki 0.00531

Core_0_TLB_demand_miss_rate 0.323728
Core_0_TLB_demand_mpki 36.6918
Core_0_TLB_same_page_prefetch_miss_rate 0
Core_0_TLB_same_page_prefetch_mpki 0
Core_0_TLB_cross_page_prefetch_miss_rate 0.0218125
Core_0_TLB_cross_page_prefetch_mpki 0.04969
Core_0_TLB_cross_page_prefetch_issued 227805
Core_0_TLB_cross_page_prefetch_lookups 227805
Core_0_TLB_cross_page_prefetch_useful 7
Core_0_TLB_cross_page_prefetch_useless 3718
Core_0_TLB_cross_page_prefetch_late 0
Core_0_TLB_cross_page_prefetch_too_early 43
Core_0_TLB_cross_page_prefetch_too_early_among_fill 0.00809031
Core_0_TLB_cross_page_prefetch_too_early_among_useless 0.0115654
Core_0_TLB_cross_page_prefetch_accuracy 3.0728e-05
Core_0_TLB_cross_page_prefetch_coverage 1.90778e-06
BERTI TO_L1: 1633674 TO_L2: 1543364 TO_L2_BC_MSHR: 0
BERTI AVG_LAT: 116.024 NUM_TRACK_LATENCY: 8933169 NUM_CANT_TRACK_LATENCY: 0
BERTI CROSS_PAGE 329207 NO_CROSS_PAGE: 2847831
BERTI FOUND_BERTI: 12742818 NO_FOUND_BERTI: 3972970
BERTI AVERAGE_ISSUED: 2.83725
