[VMEM] WARNING: physical memory size is smaller than virtual memory size.

*** ChampSim Multicore Out-of-Order Simulator ***
Warmup Instructions: 50000000
Simulation Instructions: 100000000
Number of CPUs: 1
Page size: 4096
Core 0: /data2/zcq/champsim_traces_xsbench/xs.XL100hash-28B.champsimtrace.xz
VBerti Prefetcher
BERTI HASH ENTANGLING
BERTI IP MASK ffff
Off-chip DRAM Size: 16 GiB Channels: 1 Width: 64-bit Data Rate: 3205 MT/s
Warmup halting CPU 0 at instruction 50000002 cycle 12395187 for remainder of phase
Warmup finished CPU 0 instructions: 50000002 cycles: 12395187 cumulative IPC: 4.034 (Simulation time: 00 hr 03 min 02 sec)
Warmup complete CPU 0 instructions: 50000002 cycles: 12395187 cumulative IPC: 4.034 (Simulation time: 00 hr 03 min 02 sec)
Simulation finished CPU 0 instructions: 100000004 cycles: 194564139 cumulative IPC: 0.514 (Simulation time: 00 hr 26 min 25 sec)
Simulation complete CPU 0 instructions: 100000004 cycles: 194564139 cumulative IPC: 0.514 (Simulation time: 00 hr 26 min 25 sec)

ChampSim completed all CPUs

=== Simulation ===
CPU 0 runs /data2/zcq/champsim_traces_xsbench/xs.XL100hash-28B.champsimtrace.xz

Region of Interest Statistics

CPU 0 cumulative IPC: 0.514 instructions: 100000004 cycles: 194564139
CPU 0 Branch Prediction Accuracy: 92.6% MPKI: 18.1 Average ROB Occupancy at Mispredict: 28.93
Branch type MPKI
BRANCH_DIRECT_JUMP: 0
BRANCH_INDIRECT: 0
BRANCH_CONDITIONAL: 18.1
BRANCH_DIRECT_CALL: 0
BRANCH_INDIRECT_CALL: 0
BRANCH_RETURN: 0.00051

cpu0->cpu0_STLB TOTAL        ACCESS:    1037287 HIT:     931405 MISS:     105882 MSHR_MERGE:          0
cpu0->cpu0_STLB LOAD         ACCESS:    1037287 HIT:     931405 MISS:     105882 MSHR_MERGE:          0
cpu0->cpu0_STLB RFO          ACCESS:          0 HIT:          0 MISS:          0 MSHR_MERGE:          0
cpu0->cpu0_STLB PREFETCH     ACCESS:          0 HIT:          0 MISS:          0 MSHR_MERGE:          0
cpu0->cpu0_STLB WRITE        ACCESS:          0 HIT:          0 MISS:          0 MSHR_MERGE:          0
cpu0->cpu0_STLB TRANSLATION  ACCESS:          0 HIT:          0 MISS:          0 MSHR_MERGE:          0
cpu0->cpu0_STLB PREFETCH REQUESTED:          0 ISSUED:          0 USEFUL:          0 USELESS:          0 LATE:          0 TOO_EARLY:          0
cpu0->cpu0_STLB AVERAGE MISS LATENCY: 23.77 cycles
cpu0->cpu0_L2C TOTAL        ACCESS:    8380650 HIT:    6507192 MISS:    1873458 MSHR_MERGE:     185280
cpu0->cpu0_L2C LOAD         ACCESS:    1909849 HIT:     793473 MISS:    1116376 MSHR_MERGE:      26518
cpu0->cpu0_L2C RFO          ACCESS:      72616 HIT:      60765 MISS:      11851 MSHR_MERGE:       1158
cpu0->cpu0_L2C PREFETCH     ACCESS:    5887486 HIT:    5144084 MISS:     743402 MSHR_MERGE:     157604
cpu0->cpu0_L2C WRITE        ACCESS:     452020 HIT:     451965 MISS:         55 MSHR_MERGE:          0
cpu0->cpu0_L2C TRANSLATION  ACCESS:      58679 HIT:      56905 MISS:       1774 MSHR_MERGE:          0
cpu0->cpu0_L2C PREFETCH REQUESTED:    1487155 ISSUED:    1442476 USEFUL:     182034 USELESS:       2469 LATE:      24269 TOO_EARLY:        640
cpu0->cpu0_L2C AVERAGE MISS LATENCY: 141.5 cycles
cpu0->cpu0_L1I TOTAL        ACCESS:    1367046 HIT:    1367046 MISS:          0 MSHR_MERGE:          0
cpu0->cpu0_L1I LOAD         ACCESS:    1367046 HIT:    1367046 MISS:          0 MSHR_MERGE:          0
cpu0->cpu0_L1I RFO          ACCESS:          0 HIT:          0 MISS:          0 MSHR_MERGE:          0
cpu0->cpu0_L1I PREFETCH     ACCESS:          0 HIT:          0 MISS:          0 MSHR_MERGE:          0
cpu0->cpu0_L1I WRITE        ACCESS:          0 HIT:          0 MISS:          0 MSHR_MERGE:          0
cpu0->cpu0_L1I TRANSLATION  ACCESS:          0 HIT:          0 MISS:          0 MSHR_MERGE:          0
cpu0->cpu0_L1I PREFETCH REQUESTED:          0 ISSUED:          0 USEFUL:          0 USELESS:          0 LATE:          0 TOO_EARLY:          0
cpu0->cpu0_L1I AVERAGE MISS LATENCY: - cycles
cpu0->cpu0_L1D TOTAL        ACCESS:   73789709 HIT:   66811287 MISS:    6978422 MSHR_MERGE:     476410
cpu0->cpu0_L1D LOAD         ACCESS:   23324291 HIT:   21096916 MISS:    2227375 MSHR_MERGE:     317526
cpu0->cpu0_L1D RFO          ACCESS:          0 HIT:          0 MISS:          0 MSHR_MERGE:          0
cpu0->cpu0_L1D PREFETCH     ACCESS:   37970572 HIT:   33492989 MISS:    4477583 MSHR_MERGE:      16715
cpu0->cpu0_L1D WRITE        ACCESS:   12287803 HIT:   12073047 MISS:     214756 MSHR_MERGE:     142140
cpu0->cpu0_L1D TRANSLATION  ACCESS:     207043 HIT:     148335 MISS:      58708 MSHR_MERGE:         29
cpu0->cpu0_L1D PREFETCH REQUESTED:  148091554 ISSUED:   37970572 USEFUL:     655686 USELESS:      12530 LATE:       9909 TOO_EARLY:       5101
cpu0->cpu0_L1D AVERAGE MISS LATENCY: 87.23 cycles
cpu0->cpu0_ITLB TOTAL        ACCESS:    1293848 HIT:    1293848 MISS:          0 MSHR_MERGE:          0
cpu0->cpu0_ITLB LOAD         ACCESS:    1293848 HIT:    1293848 MISS:          0 MSHR_MERGE:          0
cpu0->cpu0_ITLB RFO          ACCESS:          0 HIT:          0 MISS:          0 MSHR_MERGE:          0
cpu0->cpu0_ITLB PREFETCH     ACCESS:          0 HIT:          0 MISS:          0 MSHR_MERGE:          0
cpu0->cpu0_ITLB WRITE        ACCESS:          0 HIT:          0 MISS:          0 MSHR_MERGE:          0
cpu0->cpu0_ITLB TRANSLATION  ACCESS:          0 HIT:          0 MISS:          0 MSHR_MERGE:          0
cpu0->cpu0_ITLB PREFETCH REQUESTED:          0 ISSUED:          0 USEFUL:          0 USELESS:          0 LATE:          0 TOO_EARLY:          0
cpu0->cpu0_ITLB AVERAGE MISS LATENCY: - cycles
cpu0->cpu0_DTLB TOTAL        ACCESS:   64220676 HIT:   63122004 MISS:    1098672 MSHR_MERGE:      61385
cpu0->cpu0_DTLB LOAD         ACCESS:   64220676 HIT:   63122004 MISS:    1098672 MSHR_MERGE:      61385
cpu0->cpu0_DTLB RFO          ACCESS:          0 HIT:          0 MISS:          0 MSHR_MERGE:          0
cpu0->cpu0_DTLB PREFETCH     ACCESS:          0 HIT:          0 MISS:          0 MSHR_MERGE:          0
cpu0->cpu0_DTLB WRITE        ACCESS:          0 HIT:          0 MISS:          0 MSHR_MERGE:          0
cpu0->cpu0_DTLB TRANSLATION  ACCESS:          0 HIT:          0 MISS:          0 MSHR_MERGE:          0
cpu0->cpu0_DTLB PREFETCH REQUESTED:          0 ISSUED:          0 USEFUL:          0 USELESS:          0 LATE:          0 TOO_EARLY:          0
cpu0->cpu0_DTLB AVERAGE MISS LATENCY: 7.478 cycles
cpu0->LLC TOTAL        ACCESS:    1973631 HIT:     852643 MISS:    1120988 MSHR_MERGE:       6829
cpu0->LLC LOAD         ACCESS:    1089858 HIT:     416608 MISS:     673250 MSHR_MERGE:       1674
cpu0->LLC RFO          ACCESS:      10693 HIT:       6558 MISS:       4135 MSHR_MERGE:         29
cpu0->LLC PREFETCH     ACCESS:     585792 HIT:     212733 MISS:     373059 MSHR_MERGE:       5126
cpu0->LLC WRITE        ACCESS:     285514 HIT:     216473 MISS:      69041 MSHR_MERGE:          0
cpu0->LLC TRANSLATION  ACCESS:       1774 HIT:        271 MISS:       1503 MSHR_MERGE:          0
cpu0->LLC PREFETCH REQUESTED:          0 ISSUED:          0 USEFUL:          0 USELESS:          0 LATE:          0 TOO_EARLY:          0
cpu0->LLC AVERAGE MISS LATENCY: 185.2 cycles

DRAM Statistics

Channel 0 RQ ROW_BUFFER_HIT:      24349
  ROW_BUFFER_MISS:    1020041
  AVG DBUS CONGESTED CYCLE: 13.86
Channel 0 WQ ROW_BUFFER_HIT:      35855
  ROW_BUFFER_MISS:     111485
  FULL:        396
Channel 0 REFRESHES ISSUED:      16214

[ROI Statistics]
[System Configuration]
num_cpus 1
cpu_freq 4000
fetch_width 6
decode_width 6
dispatch_width 6
execute_width 6
lq_width 2
sq_width 2
retire_width 6
scheduler_size 128
branch_mispredict_penalty 15
rob_size 352
lq_size 128
sq_size 72
ifetch_buffer_size 64
decode_buffer_size 32
dispatch_buffer_size 32
register_file_size 288
decode_latency 1
dispatch_latency 1
schedule_latency 1
execute_latency 1
page_size 4096
block_size 64
core_0_itlb_set 16
core_0_itlb_way 4
core_0_itlb_rq_size 16
core_0_itlb_wq_size 16
core_0_itlb_pq_size 0
core_0_itlb_mshr_size 8
core_0_itlb_hit_latency 1
core_0_itlb_fill_latency 1
core_0_itlb_max_tag_check 2
core_0_itlb_max_fill 2
core_0_dtlb_set 16
core_0_dtlb_way 4
core_0_dtlb_rq_size 16
core_0_dtlb_wq_size 16
core_0_dtlb_pq_size 0
core_0_dtlb_mshr_size 8
core_0_dtlb_hit_latency 1
core_0_dtlb_fill_latency 1
core_0_dtlb_max_tag_check 2
core_0_dtlb_max_fill 2
core_0_stlb_set 128
core_0_stlb_way 12
core_0_stlb_rq_size 32
core_0_stlb_wq_size 32
core_0_stlb_pq_size 0
core_0_stlb_mshr_size 16
core_0_stlb_hit_latency 4
core_0_stlb_fill_latency 4
core_0_stlb_max_tag_check 1
core_0_stlb_max_fill 1
core_0_l1i_set 64
core_0_l1i_way 8
core_0_l1i_rq_size 64
core_0_l1i_wq_size 64
core_0_l1i_pq_size 32
core_0_l1i_mshr_size 8
core_0_l1i_hit_latency 2
core_0_l1i_fill_latency 2
core_0_l1i_max_tag_check 2
core_0_l1i_max_fill 2
core_0_l1d_set 64
core_0_l1d_way 12
core_0_l1d_rq_size 64
core_0_l1d_wq_size 64
core_0_l1d_pq_size 8
core_0_l1d_mshr_size 16
core_0_l1d_hit_latency 2
core_0_l1d_fill_latency 3
core_0_l1d_max_tag_check 2
core_0_l1d_max_fill 2
core_0_l2c_set 1024
core_0_l2c_way 8
core_0_l2c_rq_size 32
core_0_l2c_wq_size 32
core_0_l2c_pq_size 16
core_0_l2c_mshr_size 32
core_0_l2c_hit_latency 5
core_0_l2c_fill_latency 5
core_0_l2c_max_tag_check 1
core_0_l2c_max_fill 1
llc_set 2048
llc_way 16
llc_rq_size 32
llc_wq_size 32
llc_pq_size 32
llc_mshr_size 64
llc_hit_latency 10
llc_fill_latency 10
llc_max_tag_check 1
llc_max_fill 1
dram_channels 1
dram_ranks 1
dram_bankgroups 8
dram_banks 4
dram_rows 65536
dram_columns 1024
dram_channel_width 8
dram_rq_size 64
dram_wq_size 64
dram_size 17179869184
core_0_itlb_prefetcher no
core_0_dtlb_prefetcher no
core_0_stlb_prefetcher no
core_0_l1i_prefetcher next_line
core_0_l1d_prefetcher vberti
core_0_l2c_prefetcher ip_stride
llc_prefetcher no
llc_replacement drrip

Core_0_instructions 100000004
Core_0_cycles 194564139
Core_0_IPC 0.513969
Core_0_branch_prediction_accuracy 92.6022
Core_0_branch_MPKI 18.0956
Core_0_average_ROB_occupancy_at_mispredict 28.9311

Core_0_ITLB_total_access 1293848
Core_0_ITLB_total_hit 1293848
Core_0_ITLB_total_miss 0
Core_0_ITLB_total_MPKI 0
Core_0_ITLB_total_miss_rate 0
Core_0_ITLB_demand_access 1293848
Core_0_ITLB_demand_hit 1293848
Core_0_ITLB_demand_miss 0
Core_0_ITLB_demand_MPKI 0
Core_0_ITLB_demand_miss_rate 0
Core_0_ITLB_load_access 1293848
Core_0_ITLB_load_hit 1293848
Core_0_ITLB_load_miss 0
Core_0_ITLB_load_MPKI 0
Core_0_ITLB_load_miss_rate 0
Core_0_ITLB_rfo_access 0
Core_0_ITLB_rfo_hit 0
Core_0_ITLB_rfo_miss 0
Core_0_ITLB_rfo_MPKI 0
Core_0_ITLB_rfo_miss_rate 0
Core_0_ITLB_prefetch_access 0
Core_0_ITLB_prefetch_hit 0
Core_0_ITLB_prefetch_miss 0
Core_0_ITLB_prefetch_MPKI 0
Core_0_ITLB_prefetch_miss_rate 0
Core_0_ITLB_writeback_access 0
Core_0_ITLB_writeback_hit 0
Core_0_ITLB_writeback_miss 0
Core_0_ITLB_writeback_MPKI 0
Core_0_ITLB_writeback_miss_rate 0
Core_0_ITLB_prefetch_requested 0
Core_0_ITLB_prefetch_issued 0
Core_0_ITLB_prefetch_useful 0
Core_0_ITLB_prefetch_useless 0
Core_0_ITLB_prefetch_late 0
Core_0_ITLB_prefetch_fill 0
Core_0_ITLB_prefetch_too_early 0
Core_0_ITLB_prefetch_too_early_among_fill 0
Core_0_ITLB_prefetch_too_early_among_useless 0
Core_0_ITLB_prefetch_pollution_evict 0
Core_0_ITLB_prefetch_pollution_demand 0
Core_0_ITLB_prefetch_pollution_among_prefetch_fill 0
Core_0_ITLB_prefetch_accuracy 0
Core_0_ITLB_prefetch_coverage 0

Core_0_DTLB_total_access 64220676
Core_0_DTLB_total_hit 63122004
Core_0_DTLB_total_miss 1098672
Core_0_DTLB_total_MPKI 10.9867
Core_0_DTLB_total_miss_rate 0.0171078
Core_0_DTLB_demand_access 64220676
Core_0_DTLB_demand_hit 63122004
Core_0_DTLB_demand_miss 1098672
Core_0_DTLB_demand_MPKI 10.9867
Core_0_DTLB_demand_miss_rate 0.0171078
Core_0_DTLB_load_access 64220676
Core_0_DTLB_load_hit 63122004
Core_0_DTLB_load_miss 1098672
Core_0_DTLB_load_MPKI 10.9867
Core_0_DTLB_load_miss_rate 0.0171078
Core_0_DTLB_rfo_access 0
Core_0_DTLB_rfo_hit 0
Core_0_DTLB_rfo_miss 0
Core_0_DTLB_rfo_MPKI 0
Core_0_DTLB_rfo_miss_rate 0
Core_0_DTLB_prefetch_access 0
Core_0_DTLB_prefetch_hit 0
Core_0_DTLB_prefetch_miss 0
Core_0_DTLB_prefetch_MPKI 0
Core_0_DTLB_prefetch_miss_rate 0
Core_0_DTLB_writeback_access 0
Core_0_DTLB_writeback_hit 0
Core_0_DTLB_writeback_miss 0
Core_0_DTLB_writeback_MPKI 0
Core_0_DTLB_writeback_miss_rate 0
Core_0_DTLB_prefetch_requested 0
Core_0_DTLB_prefetch_issued 0
Core_0_DTLB_prefetch_useful 0
Core_0_DTLB_prefetch_useless 0
Core_0_DTLB_prefetch_late 0
Core_0_DTLB_prefetch_fill 0
Core_0_DTLB_prefetch_too_early 0
Core_0_DTLB_prefetch_too_early_among_fill 0
Core_0_DTLB_prefetch_too_early_among_useless 0
Core_0_DTLB_prefetch_pollution_evict 0
Core_0_DTLB_prefetch_pollution_demand 0
Core_0_DTLB_prefetch_pollution_among_prefetch_fill 0
Core_0_DTLB_prefetch_accuracy 0
Core_0_DTLB_prefetch_coverage 0

Core_0_STLB_total_access 1037287
Core_0_STLB_total_hit 931405
Core_0_STLB_total_miss 105882
Core_0_STLB_total_MPKI 1.05882
Core_0_STLB_total_miss_rate 0.102076
Core_0_STLB_demand_access 1037287
Core_0_STLB_demand_hit 931405
Core_0_STLB_demand_miss 105882
Core_0_STLB_demand_MPKI 1.05882
Core_0_STLB_demand_miss_rate 0.102076
Core_0_STLB_load_access 1037287
Core_0_STLB_load_hit 931405
Core_0_STLB_load_miss 105882
Core_0_STLB_load_MPKI 1.05882
Core_0_STLB_load_miss_rate 0.102076
Core_0_STLB_rfo_access 0
Core_0_STLB_rfo_hit 0
Core_0_STLB_rfo_miss 0
Core_0_STLB_rfo_MPKI 0
Core_0_STLB_rfo_miss_rate 0
Core_0_STLB_prefetch_access 0
Core_0_STLB_prefetch_hit 0
Core_0_STLB_prefetch_miss 0
Core_0_STLB_prefetch_MPKI 0
Core_0_STLB_prefetch_miss_rate 0
Core_0_STLB_writeback_access 0
Core_0_STLB_writeback_hit 0
Core_0_STLB_writeback_miss 0
Core_0_STLB_writeback_MPKI 0
Core_0_STLB_writeback_miss_rate 0
Core_0_STLB_prefetch_requested 0
Core_0_STLB_prefetch_issued 0
Core_0_STLB_prefetch_useful 0
Core_0_STLB_prefetch_useless 0
Core_0_STLB_prefetch_late 0
Core_0_STLB_prefetch_fill 0
Core_0_STLB_prefetch_too_early 0
Core_0_STLB_prefetch_too_early_among_fill 0
Core_0_STLB_prefetch_too_early_among_useless 0
Core_0_STLB_prefetch_pollution_evict 0
Core_0_STLB_prefetch_pollution_demand 0
Core_0_STLB_prefetch_pollution_among_prefetch_fill 0
Core_0_STLB_prefetch_accuracy 0
Core_0_STLB_prefetch_coverage 0

Core_0_L1I_total_access 1367046
Core_0_L1I_total_hit 1367046
Core_0_L1I_total_miss 0
Core_0_L1I_total_MPKI 0
Core_0_L1I_total_miss_rate 0
Core_0_L1I_demand_access 1367046
Core_0_L1I_demand_hit 1367046
Core_0_L1I_demand_miss 0
Core_0_L1I_demand_MPKI 0
Core_0_L1I_demand_miss_rate 0
Core_0_L1I_load_access 1367046
Core_0_L1I_load_hit 1367046
Core_0_L1I_load_miss 0
Core_0_L1I_load_MPKI 0
Core_0_L1I_load_miss_rate 0
Core_0_L1I_rfo_access 0
Core_0_L1I_rfo_hit 0
Core_0_L1I_rfo_miss 0
Core_0_L1I_rfo_MPKI 0
Core_0_L1I_rfo_miss_rate 0
Core_0_L1I_prefetch_access 0
Core_0_L1I_prefetch_hit 0
Core_0_L1I_prefetch_miss 0
Core_0_L1I_prefetch_MPKI 0
Core_0_L1I_prefetch_miss_rate 0
Core_0_L1I_writeback_access 0
Core_0_L1I_writeback_hit 0
Core_0_L1I_writeback_miss 0
Core_0_L1I_writeback_MPKI 0
Core_0_L1I_writeback_miss_rate 0
Core_0_L1I_prefetch_requested 0
Core_0_L1I_prefetch_issued 0
Core_0_L1I_prefetch_useful 0
Core_0_L1I_prefetch_useless 0
Core_0_L1I_prefetch_late 0
Core_0_L1I_prefetch_fill 0
Core_0_L1I_prefetch_too_early 0
Core_0_L1I_prefetch_too_early_among_fill 0
Core_0_L1I_prefetch_too_early_among_useless 0
Core_0_L1I_prefetch_pollution_evict 0
Core_0_L1I_prefetch_pollution_demand 0
Core_0_L1I_prefetch_pollution_among_prefetch_fill 0
Core_0_L1I_prefetch_accuracy 0
Core_0_L1I_prefetch_coverage 0

Core_0_L1D_total_access 73582666
Core_0_L1D_total_hit 66662952
Core_0_L1D_total_miss 6919714
Core_0_L1D_total_MPKI 69.1971
Core_0_L1D_total_miss_rate 0.09404
Core_0_L1D_demand_access 23324291
Core_0_L1D_demand_hit 21096916
Core_0_L1D_demand_miss 2227375
Core_0_L1D_demand_MPKI 22.2737
Core_0_L1D_demand_miss_rate 0.0954959
Core_0_L1D_load_access 23324291
Core_0_L1D_load_hit 21096916
Core_0_L1D_load_miss 2227375
Core_0_L1D_load_MPKI 22.2737
Core_0_L1D_load_miss_rate 0.0954959
Core_0_L1D_rfo_access 0
Core_0_L1D_rfo_hit 0
Core_0_L1D_rfo_miss 0
Core_0_L1D_rfo_MPKI 0
Core_0_L1D_rfo_miss_rate 0
Core_0_L1D_prefetch_access 37970572
Core_0_L1D_prefetch_hit 33492989
Core_0_L1D_prefetch_miss 4477583
Core_0_L1D_prefetch_MPKI 44.7758
Core_0_L1D_prefetch_miss_rate 0.117922
Core_0_L1D_writeback_access 12287803
Core_0_L1D_writeback_hit 12073047
Core_0_L1D_writeback_miss 214756
Core_0_L1D_writeback_MPKI 2.14756
Core_0_L1D_writeback_miss_rate 0.0174772
Core_0_L1D_prefetch_requested 148091554
Core_0_L1D_prefetch_issued 37970572
Core_0_L1D_prefetch_useful 655686
Core_0_L1D_prefetch_useless 12530
Core_0_L1D_prefetch_late 9909
Core_0_L1D_prefetch_fill 658310
Core_0_L1D_prefetch_too_early 5101
Core_0_L1D_prefetch_too_early_among_fill 0.00774863
Core_0_L1D_prefetch_too_early_among_useless 0.407103
Core_0_L1D_prefetch_pollution_evict 120849
Core_0_L1D_prefetch_pollution_demand 120250
Core_0_L1D_prefetch_pollution_among_prefetch_fill 0.183575
Core_0_L1D_prefetch_accuracy 0.0172683
Core_0_L1D_prefetch_coverage 0.227427

Core_0_L2C_total_access 8321971
Core_0_L2C_total_hit 6450287
Core_0_L2C_total_miss 1871684
Core_0_L2C_total_MPKI 18.7168
Core_0_L2C_total_miss_rate 0.224909
Core_0_L2C_demand_access 1982465
Core_0_L2C_demand_hit 854238
Core_0_L2C_demand_miss 1128227
Core_0_L2C_demand_MPKI 11.2823
Core_0_L2C_demand_miss_rate 0.569103
Core_0_L2C_load_access 1909849
Core_0_L2C_load_hit 793473
Core_0_L2C_load_miss 1116376
Core_0_L2C_load_MPKI 11.1638
Core_0_L2C_load_miss_rate 0.584536
Core_0_L2C_rfo_access 72616
Core_0_L2C_rfo_hit 60765
Core_0_L2C_rfo_miss 11851
Core_0_L2C_rfo_MPKI 0.11851
Core_0_L2C_rfo_miss_rate 0.163201
Core_0_L2C_prefetch_access 5887486
Core_0_L2C_prefetch_hit 5144084
Core_0_L2C_prefetch_miss 743402
Core_0_L2C_prefetch_MPKI 7.43402
Core_0_L2C_prefetch_miss_rate 0.126268
Core_0_L2C_writeback_access 452020
Core_0_L2C_writeback_hit 451965
Core_0_L2C_writeback_miss 55
Core_0_L2C_writeback_MPKI 0.00055
Core_0_L2C_writeback_miss_rate 0.000121676
Core_0_L2C_prefetch_requested 1487155
Core_0_L2C_prefetch_issued 1442476
Core_0_L2C_prefetch_useful 182034
Core_0_L2C_prefetch_useless 2469
Core_0_L2C_prefetch_late 24269
Core_0_L2C_prefetch_fill 544687
Core_0_L2C_prefetch_too_early 640
Core_0_L2C_prefetch_too_early_among_fill 0.00117499
Core_0_L2C_prefetch_too_early_among_useless 0.259214
Core_0_L2C_prefetch_pollution_evict 142744
Core_0_L2C_prefetch_pollution_demand 142718
Core_0_L2C_prefetch_pollution_among_prefetch_fill 0.262066
Core_0_L2C_prefetch_accuracy 0.126196
Core_0_L2C_prefetch_coverage 0.13893

Core_0_LLC_total_access 1971857
Core_0_LLC_total_hit 852372
Core_0_LLC_total_miss 1119485
Core_0_LLC_total_MPKI 11.1948
Core_0_LLC_total_miss_rate 0.567731
Core_0_LLC_demand_access 1100551
Core_0_LLC_demand_hit 423166
Core_0_LLC_demand_miss 677385
Core_0_LLC_demand_MPKI 6.77385
Core_0_LLC_demand_miss_rate 0.615496
Core_0_LLC_load_access 1089858
Core_0_LLC_load_hit 416608
Core_0_LLC_load_miss 673250
Core_0_LLC_load_MPKI 6.7325
Core_0_LLC_load_miss_rate 0.617741
Core_0_LLC_rfo_access 10693
Core_0_LLC_rfo_hit 6558
Core_0_LLC_rfo_miss 4135
Core_0_LLC_rfo_MPKI 0.04135
Core_0_LLC_rfo_miss_rate 0.386702
Core_0_LLC_prefetch_access 585792
Core_0_LLC_prefetch_hit 212733
Core_0_LLC_prefetch_miss 373059
Core_0_LLC_prefetch_MPKI 3.73059
Core_0_LLC_prefetch_miss_rate 0.636846
Core_0_LLC_writeback_access 285514
Core_0_LLC_writeback_hit 216473
Core_0_LLC_writeback_miss 69041
Core_0_LLC_writeback_MPKI 0.69041
Core_0_LLC_writeback_miss_rate 0.241813
Core_0_LLC_prefetch_requested 0
Core_0_LLC_prefetch_issued 0
Core_0_LLC_prefetch_useful 0
Core_0_LLC_prefetch_useless 0
Core_0_LLC_prefetch_late 0
Core_0_LLC_prefetch_fill 366230
Core_0_LLC_prefetch_too_early 0
Core_0_LLC_prefetch_too_early_among_fill 0
Core_0_LLC_prefetch_too_early_among_useless 0
Core_0_LLC_prefetch_pollution_evict 149493
Core_0_LLC_prefetch_pollution_demand 149493
Core_0_LLC_prefetch_pollution_among_prefetch_fill 0.408194
Core_0_LLC_prefetch_accuracy 0
Core_0_LLC_prefetch_coverage 0

[DRAM Statistics]
Channel_0_RQ_row_buffer_hit 24349
Channel_0_RQ_row_buffer_miss 1020041
Channel_0_WQ_row_buffer_hit 35855
Channel_0_WQ_row_buffer_miss 111485
Channel_0_WQ_full 396
Channel_0_dbus_congested 2510877
DRAM_total_RQ_row_buffer_hit 24349
DRAM_total_RQ_row_buffer_miss 1020041
DRAM_total_WQ_row_buffer_hit 35855
DRAM_total_WQ_row_buffer_miss 111485
DRAM_total_WQ_full 396
DRAM_total_dbus_congested 2510877
DRAM_avg_congested_cycle 13.858

====== DRAM_RQ_TRAFFIC ========
DRAM_RQ_READ_TRAFFIC_BREAKDOWN:
data_demand_read.count = 675682
data_demand_read.share = 64.65%

inst_demand_read.count = 0
inst_demand_read.share = 0.00%

cache_inst_prefetch.count = 0
cache_inst_prefetch.share = 0.00%

cache_data_prefetch.count = 367933
cache_data_prefetch.share = 35.20%

stlb_data_demand.count = 710
stlb_data_demand.share = 0.07%

stlb_inst_demand.count = 0
stlb_inst_demand.share = 0.00%

stlb_l1i_pref.count = 0
stlb_l1i_pref.share = 0.00%

stlb_l1d_pref.count = 793
stlb_l1d_pref.share = 0.08%

DRAM_RQ_READ_TRAFFIC_SUMMARY:
cache_demand.count = 675682
cache_demand.share = 64.65%

cache_prefetch.count = 367933
cache_prefetch.share = 35.20%

stlb_demand.count = 710
stlb_demand.share = 0.07%

stlb_prefetch.count = 793
stlb_prefetch.share = 0.08%

DRAM_RQ_READ_TRAFFIC_DEBUG:
total_classified_read.count = 1045118
unclassified_read.count = 0
total_read_with_other.count = 1045118

classified_plus_unclassified_check.count = 1045118
dram_rq_read_total_observed.count = 1045118
dram_rq_read_total_observed.per_1K_instructions = 10.4512

STLB_MISS_PTW_DRAM_TOUCH_BREAKDOWN:
stlb_miss_total.count = 103554

stlb_miss_touch_dram.count = 1499
stlb_miss_touch_dram.share = 1.45%

stlb_miss_no_dram_touch.count = 102055
stlb_miss_no_dram_touch.share = 98.55%

STLB_MISS_PTW_DRAM_TOUCH_DEBUG:
stlb_miss_touch_plus_no_touch.count = 103554
stlb_miss_total_check.count = 103554

======STLB miss causes ========
Core_0_STLB_miss_cause_breakdown
Core_0_STLB_cause_Demand_Data_miss 98617
Core_0_STLB_cause_Demand_Data_miss_rate 0.095072
Core_0_STLB_cause_Demand_Instruction_miss 0
Core_0_STLB_cause_Demand_Instruction_miss_rate 0
Core_0_STLB_cause_L1D_Prefetch_miss 7265
Core_0_STLB_cause_L1D_Prefetch_miss_rate 0.00700385
Core_0_STLB_cause_L1D_Prefetch_Same_Page_miss 10
Core_0_STLB_cause_L1D_Prefetch_Same_Page_miss_rate 9.64053e-06
Core_0_STLB_cause_L1D_Prefetch_Cross_Page_miss 7255
Core_0_STLB_cause_L1D_Prefetch_Cross_Page_miss_rate 0.00699421
Core_0_STLB_cause_L1I_Prefetch_miss 0
Core_0_STLB_cause_L1I_Prefetch_miss_rate 0
Core_0_STLB_cause_Other_miss 0
Core_0_STLB_cause_Other_miss_rate 0
Core_0_STLB_Demand_miss 98617
Core_0_STLB_Demand_miss_rate 0.095072
Core_0_STLB_L1D_Prefetch_miss 7265
Core_0_STLB_L1D_Prefetch_miss_rate 0.00700385
Core_0_STLB_Other_miss 0
Core_0_STLB_Other_miss_rate 0

========== vBerti-TLB Cross-page Flow Stats ==========

Core_0_vBerti_Requested 148091554
Core_0_vBerti_Cross_page_prefetch_in_Requested 16817125
Core_0_vBerti_Same_page_prefetch_in_Requested 131274429
Core_0_vBerti_Cross_page_prefetch_of_Requested 0.113559
Core_0_vBerti_Issued 37970572
Core_0_vBerti_InPQ_Same_page_prefetch 35376064
Core_0_vBerti_InPQ_Cross_page_prefetch 2594508
Core_0_vBerti_PQ_Drop_Rate 0.743601
Core_0_vBerti_InPQ_Cross_page_prefetch_of_Requested 0.0175196
Core_0_vBerti_Cross_page_PQ_Drop_rate 0.845722
Core_0_vBerti_Cross_page_prefetch_of_Issued 0.0683294
Core_0_CP_PF_PQFULL_drop 14222617
Core_0_CP_PF_PQFULL_TLB_rescue_enqueued 10456229
Core_0_CP_PF_PQFULL_TLB_rescue_issued 10456229
Core_0_CP_PF_PQFULL_TLB_rescue_translated 10456229

========= DTLB_vBerti Prefetch Stats =========
Core_0_DTLB_demand_access 33652498
Core_0_DTLB_demand_hit 32587319
Core_0_DTLB_demand_miss 1065179
Core_0_DTLB_demand_mshr_merge 40372
Core_0_DTLB_demand_fill 1024855
Core_0_DTLB_demand_miss_rate 0.0316523
Core_0_DTLB_demand_mpki 10.6518
Core_0_DTLB_vberti_prefetch_access 30568178
Core_0_DTLB_vberti_prefetch_hit 30534685
Core_0_DTLB_vberti_prefetch_miss 33493
Core_0_DTLB_vberti_prefetch_mshr_merge 21013
Core_0_DTLB_vberti_prefetch_fill 12432
Core_0_DTLB_vberti_prefetch_miss_rate 0.00109568
Core_0_DTLB_vberti_prefetch_mpki 0.33493

=== DTLB_vBerti Same/Cross-page Prefetch Stats ===
Core_0_DTLB_vberti_same_page_prefetch 22994746
Core_0_DTLB_vberti_same_page_prefetch_hit 22994682
Core_0_DTLB_vberti_same_page_prefetch_miss 64
Core_0_DTLB_vberti_same_page_prefetch_mshr_merge 16
Core_0_DTLB_vberti_same_page_prefetch_fill 40
Core_0_DTLB_vberti_same_page_prefetch_miss_rate 2.78324e-06
Core_0_DTLB_vberti_same_page_prefetch_mpki 0.00064
Core_0_DTLB_vberti_cross_page_prefetch 7573432
Core_0_DTLB_vberti_cross_page_prefetch_hit 7540003
Core_0_DTLB_vberti_cross_page_prefetch_miss 33429
Core_0_DTLB_vberti_cross_page_prefetch_mshr_merge 20997
Core_0_DTLB_vberti_cross_page_prefetch_fill 12392
Core_0_DTLB_vberti_cross_page_prefetch_miss_rate 0.00441398
Core_0_DTLB_vberti_cross_page_prefetch_mpki 0.33429
Core_0_DTLB_same_page_prefetch_miss_rate 2.78324e-06
Core_0_DTLB_same_page_prefetch_mpki 0.00064
Core_0_DTLB_cross_page_prefetch_miss_rate 0.00441398
Core_0_DTLB_cross_page_prefetch_mpki 0.33429
Core_0_DTLB_cross_page_prefetch_issued 7573432
Core_0_DTLB_cross_page_prefetch_lookups 7573432
Core_0_DTLB_cross_page_prefetch_useful 12101
Core_0_DTLB_cross_page_prefetch_useless 331
Core_0_DTLB_cross_page_prefetch_late 40
Core_0_DTLB_cross_page_prefetch_too_early 16
Core_0_DTLB_cross_page_prefetch_too_early_among_fill 0.00129116
Core_0_DTLB_cross_page_prefetch_too_early_among_useless 0.0483384
Core_0_DTLB_cross_page_prefetch_pollution_evict 7373
Core_0_DTLB_cross_page_prefetch_pollution_demand 6305
Core_0_DTLB_cross_page_prefetch_pollution_among_prefetch_fill 0.594981
Core_0_DTLB_cross_page_prefetch_accuracy 0.00159782
Core_0_DTLB_cross_page_prefetch_coverage 0.0112329

========= STLB_vBerti Prefetch Stats =========
Core_0_STLB_demand_access 1024807
Core_0_STLB_demand_hit 926190
Core_0_STLB_demand_miss 98617
Core_0_STLB_demand_mshr_merge 0
Core_0_STLB_demand_fill 98617
Core_0_STLB_demand_miss_rate 0.0962298
Core_0_STLB_demand_mpki 0.98617
Core_0_STLB_vberti_prefetch_access 12480
Core_0_STLB_vberti_prefetch_hit 5215
Core_0_STLB_vberti_prefetch_miss 7265
Core_0_STLB_vberti_prefetch_mshr_merge 0
Core_0_STLB_vberti_prefetch_fill 10
Core_0_STLB_vberti_prefetch_miss_rate 0.582131
Core_0_STLB_vberti_prefetch_mpki 0.07265

=== STLB_vBerti Same/Cross-page Prefetch Stats ===
Core_0_STLB_vberti_same_page_prefetch 48
Core_0_STLB_vberti_same_page_prefetch_hit 38
Core_0_STLB_vberti_same_page_prefetch_miss 10
Core_0_STLB_vberti_same_page_prefetch_mshr_merge 0
Core_0_STLB_vberti_same_page_prefetch_fill 10
Core_0_STLB_vberti_same_page_prefetch_miss_rate 0.208333
Core_0_STLB_vberti_same_page_prefetch_mpki 0.0001
Core_0_STLB_vberti_cross_page_prefetch 12432
Core_0_STLB_vberti_cross_page_prefetch_hit 5177
Core_0_STLB_vberti_cross_page_prefetch_miss 7255
Core_0_STLB_vberti_cross_page_prefetch_mshr_merge 0
Core_0_STLB_vberti_cross_page_prefetch_fill 0
Core_0_STLB_vberti_cross_page_prefetch_miss_rate 0.583575
Core_0_STLB_vberti_cross_page_prefetch_mpki 0.07255
Core_0_STLB_same_page_prefetch_miss_rate 0.208333
Core_0_STLB_same_page_prefetch_mpki 0.0001
Core_0_STLB_cross_page_prefetch_miss_rate 0.583575
Core_0_STLB_cross_page_prefetch_mpki 0.07255
Core_0_STLB_cross_page_prefetch_issued 12432
Core_0_STLB_cross_page_prefetch_lookups 12432
Core_0_STLB_cross_page_prefetch_useful 2328
Core_0_STLB_cross_page_prefetch_useless 4483
Core_0_STLB_cross_page_prefetch_late 2328
Core_0_STLB_cross_page_prefetch_too_early 0
Core_0_STLB_cross_page_prefetch_too_early_among_fill 0
Core_0_STLB_cross_page_prefetch_too_early_among_useless 0
Core_0_STLB_cross_page_prefetch_pollution_evict 0
Core_0_STLB_cross_page_prefetch_pollution_demand 0
Core_0_STLB_cross_page_prefetch_pollution_among_prefetch_fill 0
Core_0_STLB_cross_page_prefetch_accuracy 0.187259
Core_0_STLB_cross_page_prefetch_coverage 0.0230621

========= STLB Cross-page Prefetch Buffer Stats =========
Core_0_STLB_raw_demand_miss 98617
Core_0_CP_PB_insert 7255
Core_0_CP_PB_demand_hit 2328
Core_0_STLB_PB_demand_miss 96289
Core_0_CP_PB_coverage 0.0236065
Core_0_STLB_raw_demand_mpki 0.98617
Core_0_STLB_PB_demand_mpki 0.96289
Core_0_CP_PB_demand_hit_mpki 0.02328

Core_0_TLB_demand_miss_rate 0.00293045
Core_0_TLB_demand_mpki 0.98617
Core_0_TLB_same_page_prefetch_miss_rate 4.34882e-07
Core_0_TLB_same_page_prefetch_mpki 0.0001
Core_0_TLB_cross_page_prefetch_miss_rate 0.000957954
Core_0_TLB_cross_page_prefetch_mpki 0.07255
Core_0_TLB_cross_page_prefetch_issued 7573432
Core_0_TLB_cross_page_prefetch_lookups 7573432
Core_0_TLB_cross_page_prefetch_useful 3030
Core_0_TLB_cross_page_prefetch_useless 71
Core_0_TLB_cross_page_prefetch_late 2
Core_0_TLB_cross_page_prefetch_too_early 14
Core_0_TLB_cross_page_prefetch_too_early_among_fill 0.00112976
Core_0_TLB_cross_page_prefetch_too_early_among_useless 0.197183
Core_0_TLB_cross_page_prefetch_accuracy 0.000400083
Core_0_TLB_cross_page_prefetch_coverage 0.029809
BERTI TO_L1: 89209646 TO_L2: 92428829 TO_L2_BC_MSHR: 916596
BERTI AVG_LAT: 57.3736 NUM_TRACK_LATENCY: 4297605 NUM_CANT_TRACK_LATENCY: 25
BERTI CROSS_PAGE 21172434 NO_CROSS_PAGE: 160466041
BERTI FOUND_BERTI: 31652005 NO_FOUND_BERTI: 15245355
BERTI AVERAGE_ISSUED: 2.96249
