[VMEM] WARNING: physical memory size is smaller than virtual memory size.

*** ChampSim Multicore Out-of-Order Simulator ***
Warmup Instructions: 0
Simulation Instructions: 200000
Number of CPUs: 1
Page size: 4096
Core 0: /data0/tzh/champsim_traces/SPEC17/620.omnetpp_s-141B.champsimtrace.xz
 L1D Berti prefetcher
Off-chip DRAM Size: 16 GiB Channels: 1 Width: 64-bit Data Rate: 3205 MT/s
Warmup halting CPU 0 at instruction 0 cycle 1 for remainder of phase
Warmup finished CPU 0 instructions: 0 cycles: 1 cumulative IPC: 0 (Simulation time: 00 hr 00 min 00 sec)
Warmup complete CPU 0 instructions: 0 cycles: 1 cumulative IPC: 0 (Simulation time: 00 hr 00 min 00 sec)
Simulation finished CPU 0 instructions: 200003 cycles: 937199 cumulative IPC: 0.2134 (Simulation time: 00 hr 00 min 05 sec)
Simulation complete CPU 0 instructions: 200003 cycles: 937199 cumulative IPC: 0.2134 (Simulation time: 00 hr 00 min 05 sec)

ChampSim completed all CPUs

=== Simulation ===
CPU 0 runs /data0/tzh/champsim_traces/SPEC17/620.omnetpp_s-141B.champsimtrace.xz

Region of Interest Statistics

CPU 0 cumulative IPC: 0.2134 instructions: 200003 cycles: 937199
CPU 0 Branch Prediction Accuracy: 92.26% MPKI: 16.59 Average ROB Occupancy at Mispredict: 42.73
Branch type MPKI
BRANCH_DIRECT_JUMP: 0.995
BRANCH_INDIRECT: 0.68
BRANCH_CONDITIONAL: 10.91
BRANCH_DIRECT_CALL: 0.6
BRANCH_INDIRECT_CALL: 1.89
BRANCH_RETURN: 1.515

cpu0->cpu0_STLB TOTAL        ACCESS:       4342 HIT:       3181 MISS:       1161 MSHR_MERGE:          0
cpu0->cpu0_STLB LOAD         ACCESS:       4342 HIT:       3181 MISS:       1161 MSHR_MERGE:          0
cpu0->cpu0_STLB RFO          ACCESS:          0 HIT:          0 MISS:          0 MSHR_MERGE:          0
cpu0->cpu0_STLB PREFETCH     ACCESS:          0 HIT:          0 MISS:          0 MSHR_MERGE:          0
cpu0->cpu0_STLB WRITE        ACCESS:          0 HIT:          0 MISS:          0 MSHR_MERGE:          0
cpu0->cpu0_STLB TRANSLATION  ACCESS:          0 HIT:          0 MISS:          0 MSHR_MERGE:          0
cpu0->cpu0_STLB PREFETCH REQUESTED:          0 ISSUED:          0 USEFUL:          0 USELESS:          0 LATE:          0
cpu0->cpu0_STLB AVERAGE MISS LATENCY: 397.9 cycles
cpu0->cpu0_L2C TOTAL        ACCESS:      11960 HIT:       3769 MISS:       8191 MSHR_MERGE:        562
cpu0->cpu0_L2C LOAD         ACCESS:       3342 HIT:        944 MISS:       2398 MSHR_MERGE:         21
cpu0->cpu0_L2C RFO          ACCESS:        413 HIT:         96 MISS:        317 MSHR_MERGE:          1
cpu0->cpu0_L2C PREFETCH     ACCESS:       5921 HIT:       1322 MISS:       4599 MSHR_MERGE:        540
cpu0->cpu0_L2C WRITE        ACCESS:       1288 HIT:       1288 MISS:          0 MSHR_MERGE:          0
cpu0->cpu0_L2C TRANSLATION  ACCESS:        996 HIT:        119 MISS:        877 MSHR_MERGE:          0
cpu0->cpu0_L2C PREFETCH REQUESTED:       4415 ISSUED:       4409 USEFUL:        565 USELESS:        275 LATE:         22
cpu0->cpu0_L2C AVERAGE MISS LATENCY: 208.1 cycles
cpu0->cpu0_L1I TOTAL        ACCESS:      26846 HIT:      26174 MISS:        672 MSHR_MERGE:         83
cpu0->cpu0_L1I LOAD         ACCESS:      26846 HIT:      26174 MISS:        672 MSHR_MERGE:         83
cpu0->cpu0_L1I RFO          ACCESS:          0 HIT:          0 MISS:          0 MSHR_MERGE:          0
cpu0->cpu0_L1I PREFETCH     ACCESS:          0 HIT:          0 MISS:          0 MSHR_MERGE:          0
cpu0->cpu0_L1I WRITE        ACCESS:          0 HIT:          0 MISS:          0 MSHR_MERGE:          0
cpu0->cpu0_L1I TRANSLATION  ACCESS:          0 HIT:          0 MISS:          0 MSHR_MERGE:          0
cpu0->cpu0_L1I PREFETCH REQUESTED:          0 ISSUED:          0 USEFUL:          0 USELESS:          0 LATE:          0
cpu0->cpu0_L1I AVERAGE MISS LATENCY: 155.4 cycles
cpu0->cpu0_L1D TOTAL        ACCESS:      80771 HIT:      73476 MISS:       7295 MSHR_MERGE:       1621
cpu0->cpu0_L1D LOAD         ACCESS:      39726 HIT:      36159 MISS:       3567 MSHR_MERGE:        814
cpu0->cpu0_L1D RFO          ACCESS:          0 HIT:          0 MISS:          0 MSHR_MERGE:          0
cpu0->cpu0_L1D PREFETCH     ACCESS:       3754 HIT:       2180 MISS:       1574 MSHR_MERGE:         62
cpu0->cpu0_L1D WRITE        ACCESS:      34506 HIT:      33349 MISS:       1157 MSHR_MERGE:        744
cpu0->cpu0_L1D TRANSLATION  ACCESS:       2785 HIT:       1788 MISS:        997 MSHR_MERGE:          1
cpu0->cpu0_L1D PREFETCH REQUESTED:       3759 ISSUED:       3754 USEFUL:        403 USELESS:        957 LATE:         50
cpu0->cpu0_L1D AVERAGE MISS LATENCY: 166.8 cycles
cpu0->cpu0_ITLB TOTAL        ACCESS:      23895 HIT:      23354 MISS:        541 MSHR_MERGE:        232
cpu0->cpu0_ITLB LOAD         ACCESS:      23895 HIT:      23354 MISS:        541 MSHR_MERGE:        232
cpu0->cpu0_ITLB RFO          ACCESS:          0 HIT:          0 MISS:          0 MSHR_MERGE:          0
cpu0->cpu0_ITLB PREFETCH     ACCESS:          0 HIT:          0 MISS:          0 MSHR_MERGE:          0
cpu0->cpu0_ITLB WRITE        ACCESS:          0 HIT:          0 MISS:          0 MSHR_MERGE:          0
cpu0->cpu0_ITLB TRANSLATION  ACCESS:          0 HIT:          0 MISS:          0 MSHR_MERGE:          0
cpu0->cpu0_ITLB PREFETCH REQUESTED:          0 ISSUED:          0 USEFUL:          0 USELESS:          0 LATE:          0
cpu0->cpu0_ITLB AVERAGE MISS LATENCY: 68.72 cycles
cpu0->cpu0_DTLB TOTAL        ACCESS:      73519 HIT:      68546 MISS:       4973 MSHR_MERGE:        940
cpu0->cpu0_DTLB LOAD         ACCESS:      73519 HIT:      68546 MISS:       4973 MSHR_MERGE:        940
cpu0->cpu0_DTLB RFO          ACCESS:          0 HIT:          0 MISS:          0 MSHR_MERGE:          0
cpu0->cpu0_DTLB PREFETCH     ACCESS:          0 HIT:          0 MISS:          0 MSHR_MERGE:          0
cpu0->cpu0_DTLB WRITE        ACCESS:          0 HIT:          0 MISS:          0 MSHR_MERGE:          0
cpu0->cpu0_DTLB TRANSLATION  ACCESS:          0 HIT:          0 MISS:          0 MSHR_MERGE:          0
cpu0->cpu0_DTLB PREFETCH REQUESTED:          0 ISSUED:          0 USEFUL:          0 USELESS:          0 LATE:          0
cpu0->cpu0_DTLB AVERAGE MISS LATENCY: 115 cycles
cpu0->LLC TOTAL        ACCESS:       7748 HIT:        137 MISS:       7611 MSHR_MERGE:          0
cpu0->LLC LOAD         ACCESS:       2377 HIT:         10 MISS:       2367 MSHR_MERGE:          0
cpu0->LLC RFO          ACCESS:        316 HIT:          0 MISS:        316 MSHR_MERGE:          0
cpu0->LLC PREFETCH     ACCESS:       4059 HIT:          5 MISS:       4054 MSHR_MERGE:          0
cpu0->LLC WRITE        ACCESS:        119 HIT:        119 MISS:          0 MSHR_MERGE:          0
cpu0->LLC TRANSLATION  ACCESS:        877 HIT:          3 MISS:        874 MSHR_MERGE:          0
cpu0->LLC PREFETCH REQUESTED:          0 ISSUED:          0 USEFUL:          0 USELESS:          0 LATE:          0
cpu0->LLC AVERAGE MISS LATENCY: 193.5 cycles

DRAM Statistics

Channel 0 RQ ROW_BUFFER_HIT:        189
  ROW_BUFFER_MISS:       7422
  AVG DBUS CONGESTED CYCLE: 2.774
Channel 0 WQ ROW_BUFFER_HIT:          0
  ROW_BUFFER_MISS:          0
  FULL:          0
Channel 0 REFRESHES ISSUED:         78

[ROI Statistics]
[System Configuration]
num_cpus 1
cpu_freq 4000
fetch_width 6
decode_width 6
dispatch_width 6
execute_width 6
lq_width 2
sq_width 2
retire_width 6
scheduler_size 128
branch_mispredict_penalty 15
rob_size 352
lq_size 128
sq_size 72
ifetch_buffer_size 64
decode_buffer_size 32
dispatch_buffer_size 32
register_file_size 288
decode_latency 1
dispatch_latency 1
schedule_latency 1
execute_latency 1
page_size 4096
block_size 64
core_0_itlb_set 16
core_0_itlb_way 4
core_0_itlb_rq_size 16
core_0_itlb_wq_size 16
core_0_itlb_pq_size 0
core_0_itlb_mshr_size 8
core_0_itlb_hit_latency 1
core_0_itlb_fill_latency 1
core_0_itlb_max_tag_check 2
core_0_itlb_max_fill 2
core_0_dtlb_set 16
core_0_dtlb_way 4
core_0_dtlb_rq_size 16
core_0_dtlb_wq_size 16
core_0_dtlb_pq_size 0
core_0_dtlb_mshr_size 8
core_0_dtlb_hit_latency 1
core_0_dtlb_fill_latency 1
core_0_dtlb_max_tag_check 2
core_0_dtlb_max_fill 2
core_0_stlb_set 128
core_0_stlb_way 12
core_0_stlb_rq_size 32
core_0_stlb_wq_size 32
core_0_stlb_pq_size 0
core_0_stlb_mshr_size 16
core_0_stlb_hit_latency 4
core_0_stlb_fill_latency 4
core_0_stlb_max_tag_check 1
core_0_stlb_max_fill 1
core_0_l1i_set 64
core_0_l1i_way 8
core_0_l1i_rq_size 64
core_0_l1i_wq_size 64
core_0_l1i_pq_size 32
core_0_l1i_mshr_size 8
core_0_l1i_hit_latency 2
core_0_l1i_fill_latency 2
core_0_l1i_max_tag_check 2
core_0_l1i_max_fill 2
core_0_l1d_set 64
core_0_l1d_way 12
core_0_l1d_rq_size 64
core_0_l1d_wq_size 64
core_0_l1d_pq_size 8
core_0_l1d_mshr_size 16
core_0_l1d_hit_latency 2
core_0_l1d_fill_latency 3
core_0_l1d_max_tag_check 2
core_0_l1d_max_fill 2
core_0_l2c_set 1024
core_0_l2c_way 8
core_0_l2c_rq_size 32
core_0_l2c_wq_size 32
core_0_l2c_pq_size 16
core_0_l2c_mshr_size 32
core_0_l2c_hit_latency 5
core_0_l2c_fill_latency 5
core_0_l2c_max_tag_check 1
core_0_l2c_max_fill 1
llc_set 2048
llc_way 16
llc_rq_size 32
llc_wq_size 32
llc_pq_size 32
llc_mshr_size 64
llc_hit_latency 10
llc_fill_latency 10
llc_max_tag_check 1
llc_max_fill 1
dram_channels 1
dram_ranks 1
dram_bankgroups 8
dram_banks 4
dram_rows 65536
dram_columns 1024
dram_channel_width 8
dram_rq_size 64
dram_wq_size 64
dram_size 17179869184
core_0_itlb_prefetcher no
core_0_dtlb_prefetcher no
core_0_stlb_prefetcher no
core_0_l1i_prefetcher next_line
core_0_l1d_prefetcher berti
core_0_l2c_prefetcher pythia
llc_prefetcher no
llc_replacement drrip

Core_0_instructions 200003
Core_0_cycles 937199
Core_0_IPC 0.213405
Core_0_branch_prediction_accuracy 92.2562
Core_0_branch_MPKI 16.5948
Core_0_average_ROB_occupancy_at_mispredict 42.7279

Core_0_ITLB_total_access 23895
Core_0_ITLB_total_hit 23354
Core_0_ITLB_total_miss 541
Core_0_ITLB_total_MPKI 2.70496
Core_0_ITLB_total_miss_rate 0.0226407
Core_0_ITLB_demand_access 23895
Core_0_ITLB_demand_hit 23354
Core_0_ITLB_demand_miss 541
Core_0_ITLB_demand_MPKI 2.70496
Core_0_ITLB_demand_miss_rate 0.0226407
Core_0_ITLB_load_access 23895
Core_0_ITLB_load_hit 23354
Core_0_ITLB_load_miss 541
Core_0_ITLB_load_MPKI 2.70496
Core_0_ITLB_load_miss_rate 0.0226407
Core_0_ITLB_rfo_access 0
Core_0_ITLB_rfo_hit 0
Core_0_ITLB_rfo_miss 0
Core_0_ITLB_rfo_MPKI 0
Core_0_ITLB_rfo_miss_rate 0
Core_0_ITLB_prefetch_access 0
Core_0_ITLB_prefetch_hit 0
Core_0_ITLB_prefetch_miss 0
Core_0_ITLB_prefetch_MPKI 0
Core_0_ITLB_prefetch_miss_rate 0
Core_0_ITLB_writeback_access 0
Core_0_ITLB_writeback_hit 0
Core_0_ITLB_writeback_miss 0
Core_0_ITLB_writeback_MPKI 0
Core_0_ITLB_writeback_miss_rate 0
Core_0_ITLB_prefetch_requested 0
Core_0_ITLB_prefetch_issued 0
Core_0_ITLB_prefetch_useful 0
Core_0_ITLB_prefetch_useless 0
Core_0_ITLB_prefetch_late 0
Core_0_ITLB_prefetch_accuracy 0
Core_0_ITLB_prefetch_coverage 0

Core_0_DTLB_total_access 73519
Core_0_DTLB_total_hit 68546
Core_0_DTLB_total_miss 4973
Core_0_DTLB_total_MPKI 24.8646
Core_0_DTLB_total_miss_rate 0.0676424
Core_0_DTLB_demand_access 73519
Core_0_DTLB_demand_hit 68546
Core_0_DTLB_demand_miss 4973
Core_0_DTLB_demand_MPKI 24.8646
Core_0_DTLB_demand_miss_rate 0.0676424
Core_0_DTLB_load_access 73519
Core_0_DTLB_load_hit 68546
Core_0_DTLB_load_miss 4973
Core_0_DTLB_load_MPKI 24.8646
Core_0_DTLB_load_miss_rate 0.0676424
Core_0_DTLB_rfo_access 0
Core_0_DTLB_rfo_hit 0
Core_0_DTLB_rfo_miss 0
Core_0_DTLB_rfo_MPKI 0
Core_0_DTLB_rfo_miss_rate 0
Core_0_DTLB_prefetch_access 0
Core_0_DTLB_prefetch_hit 0
Core_0_DTLB_prefetch_miss 0
Core_0_DTLB_prefetch_MPKI 0
Core_0_DTLB_prefetch_miss_rate 0
Core_0_DTLB_writeback_access 0
Core_0_DTLB_writeback_hit 0
Core_0_DTLB_writeback_miss 0
Core_0_DTLB_writeback_MPKI 0
Core_0_DTLB_writeback_miss_rate 0
Core_0_DTLB_prefetch_requested 0
Core_0_DTLB_prefetch_issued 0
Core_0_DTLB_prefetch_useful 0
Core_0_DTLB_prefetch_useless 0
Core_0_DTLB_prefetch_late 0
Core_0_DTLB_prefetch_accuracy 0
Core_0_DTLB_prefetch_coverage 0

Core_0_STLB_total_access 4342
Core_0_STLB_total_hit 3181
Core_0_STLB_total_miss 1161
Core_0_STLB_total_MPKI 5.80491
Core_0_STLB_total_miss_rate 0.267388
Core_0_STLB_demand_access 4342
Core_0_STLB_demand_hit 3181
Core_0_STLB_demand_miss 1161
Core_0_STLB_demand_MPKI 5.80491
Core_0_STLB_demand_miss_rate 0.267388
Core_0_STLB_load_access 4342
Core_0_STLB_load_hit 3181
Core_0_STLB_load_miss 1161
Core_0_STLB_load_MPKI 5.80491
Core_0_STLB_load_miss_rate 0.267388
Core_0_STLB_rfo_access 0
Core_0_STLB_rfo_hit 0
Core_0_STLB_rfo_miss 0
Core_0_STLB_rfo_MPKI 0
Core_0_STLB_rfo_miss_rate 0
Core_0_STLB_prefetch_access 0
Core_0_STLB_prefetch_hit 0
Core_0_STLB_prefetch_miss 0
Core_0_STLB_prefetch_MPKI 0
Core_0_STLB_prefetch_miss_rate 0
Core_0_STLB_writeback_access 0
Core_0_STLB_writeback_hit 0
Core_0_STLB_writeback_miss 0
Core_0_STLB_writeback_MPKI 0
Core_0_STLB_writeback_miss_rate 0
Core_0_STLB_prefetch_requested 0
Core_0_STLB_prefetch_issued 0
Core_0_STLB_prefetch_useful 0
Core_0_STLB_prefetch_useless 0
Core_0_STLB_prefetch_late 0
Core_0_STLB_prefetch_accuracy 0
Core_0_STLB_prefetch_coverage 0

Core_0_L1I_total_access 26846
Core_0_L1I_total_hit 26174
Core_0_L1I_total_miss 672
Core_0_L1I_total_MPKI 3.35995
Core_0_L1I_total_miss_rate 0.0250317
Core_0_L1I_demand_access 26846
Core_0_L1I_demand_hit 26174
Core_0_L1I_demand_miss 672
Core_0_L1I_demand_MPKI 3.35995
Core_0_L1I_demand_miss_rate 0.0250317
Core_0_L1I_load_access 26846
Core_0_L1I_load_hit 26174
Core_0_L1I_load_miss 672
Core_0_L1I_load_MPKI 3.35995
Core_0_L1I_load_miss_rate 0.0250317
Core_0_L1I_rfo_access 0
Core_0_L1I_rfo_hit 0
Core_0_L1I_rfo_miss 0
Core_0_L1I_rfo_MPKI 0
Core_0_L1I_rfo_miss_rate 0
Core_0_L1I_prefetch_access 0
Core_0_L1I_prefetch_hit 0
Core_0_L1I_prefetch_miss 0
Core_0_L1I_prefetch_MPKI 0
Core_0_L1I_prefetch_miss_rate 0
Core_0_L1I_writeback_access 0
Core_0_L1I_writeback_hit 0
Core_0_L1I_writeback_miss 0
Core_0_L1I_writeback_MPKI 0
Core_0_L1I_writeback_miss_rate 0
Core_0_L1I_prefetch_requested 0
Core_0_L1I_prefetch_issued 0
Core_0_L1I_prefetch_useful 0
Core_0_L1I_prefetch_useless 0
Core_0_L1I_prefetch_late 0
Core_0_L1I_prefetch_accuracy 0
Core_0_L1I_prefetch_coverage 0

Core_0_L1D_total_access 77986
Core_0_L1D_total_hit 71688
Core_0_L1D_total_miss 6298
Core_0_L1D_total_MPKI 31.4895
Core_0_L1D_total_miss_rate 0.0807581
Core_0_L1D_demand_access 39726
Core_0_L1D_demand_hit 36159
Core_0_L1D_demand_miss 3567
Core_0_L1D_demand_MPKI 17.8347
Core_0_L1D_demand_miss_rate 0.0897901
Core_0_L1D_load_access 39726
Core_0_L1D_load_hit 36159
Core_0_L1D_load_miss 3567
Core_0_L1D_load_MPKI 17.8347
Core_0_L1D_load_miss_rate 0.0897901
Core_0_L1D_rfo_access 0
Core_0_L1D_rfo_hit 0
Core_0_L1D_rfo_miss 0
Core_0_L1D_rfo_MPKI 0
Core_0_L1D_rfo_miss_rate 0
Core_0_L1D_prefetch_access 3754
Core_0_L1D_prefetch_hit 2180
Core_0_L1D_prefetch_miss 1574
Core_0_L1D_prefetch_MPKI 7.86988
Core_0_L1D_prefetch_miss_rate 0.419286
Core_0_L1D_writeback_access 34506
Core_0_L1D_writeback_hit 33349
Core_0_L1D_writeback_miss 1157
Core_0_L1D_writeback_MPKI 5.78491
Core_0_L1D_writeback_miss_rate 0.0335304
Core_0_L1D_prefetch_requested 3759
Core_0_L1D_prefetch_issued 3754
Core_0_L1D_prefetch_useful 403
Core_0_L1D_prefetch_useless 957
Core_0_L1D_prefetch_late 50
Core_0_L1D_prefetch_accuracy 0.107352
Core_0_L1D_prefetch_coverage 0.101511

Core_0_L2C_total_access 10964
Core_0_L2C_total_hit 3650
Core_0_L2C_total_miss 7314
Core_0_L2C_total_MPKI 36.5695
Core_0_L2C_total_miss_rate 0.667092
Core_0_L2C_demand_access 3755
Core_0_L2C_demand_hit 1040
Core_0_L2C_demand_miss 2715
Core_0_L2C_demand_MPKI 13.5748
Core_0_L2C_demand_miss_rate 0.723036
Core_0_L2C_load_access 3342
Core_0_L2C_load_hit 944
Core_0_L2C_load_miss 2398
Core_0_L2C_load_MPKI 11.9898
Core_0_L2C_load_miss_rate 0.717534
Core_0_L2C_rfo_access 413
Core_0_L2C_rfo_hit 96
Core_0_L2C_rfo_miss 317
Core_0_L2C_rfo_MPKI 1.58498
Core_0_L2C_rfo_miss_rate 0.767554
Core_0_L2C_prefetch_access 5921
Core_0_L2C_prefetch_hit 1322
Core_0_L2C_prefetch_miss 4599
Core_0_L2C_prefetch_MPKI 22.9947
Core_0_L2C_prefetch_miss_rate 0.776727
Core_0_L2C_writeback_access 1288
Core_0_L2C_writeback_hit 1288
Core_0_L2C_writeback_miss 0
Core_0_L2C_writeback_MPKI 0
Core_0_L2C_writeback_miss_rate 0
Core_0_L2C_prefetch_requested 4415
Core_0_L2C_prefetch_issued 4409
Core_0_L2C_prefetch_useful 565
Core_0_L2C_prefetch_useless 275
Core_0_L2C_prefetch_late 22
Core_0_L2C_prefetch_accuracy 0.128147
Core_0_L2C_prefetch_coverage 0.172256

Core_0_LLC_total_access 6871
Core_0_LLC_total_hit 134
Core_0_LLC_total_miss 6737
Core_0_LLC_total_MPKI 33.6845
Core_0_LLC_total_miss_rate 0.980498
Core_0_LLC_demand_access 2693
Core_0_LLC_demand_hit 10
Core_0_LLC_demand_miss 2683
Core_0_LLC_demand_MPKI 13.4148
Core_0_LLC_demand_miss_rate 0.996287
Core_0_LLC_load_access 2377
Core_0_LLC_load_hit 10
Core_0_LLC_load_miss 2367
Core_0_LLC_load_MPKI 11.8348
Core_0_LLC_load_miss_rate 0.995793
Core_0_LLC_rfo_access 316
Core_0_LLC_rfo_hit 0
Core_0_LLC_rfo_miss 316
Core_0_LLC_rfo_MPKI 1.57998
Core_0_LLC_rfo_miss_rate 1
Core_0_LLC_prefetch_access 4059
Core_0_LLC_prefetch_hit 5
Core_0_LLC_prefetch_miss 4054
Core_0_LLC_prefetch_MPKI 20.2697
Core_0_LLC_prefetch_miss_rate 0.998768
Core_0_LLC_writeback_access 119
Core_0_LLC_writeback_hit 119
Core_0_LLC_writeback_miss 0
Core_0_LLC_writeback_MPKI 0
Core_0_LLC_writeback_miss_rate 0
Core_0_LLC_prefetch_requested 0
Core_0_LLC_prefetch_issued 0
Core_0_LLC_prefetch_useful 0
Core_0_LLC_prefetch_useless 0
Core_0_LLC_prefetch_late 0
Core_0_LLC_prefetch_accuracy 0
Core_0_LLC_prefetch_coverage 0

[DRAM Statistics]
Channel_0_RQ_row_buffer_hit 189
Channel_0_RQ_row_buffer_miss 7422
Channel_0_WQ_row_buffer_hit 0
Channel_0_WQ_row_buffer_miss 0
Channel_0_WQ_full 0
Channel_0_dbus_congested 7958
DRAM_total_RQ_row_buffer_hit 189
DRAM_total_RQ_row_buffer_miss 7422
DRAM_total_WQ_row_buffer_hit 0
DRAM_total_WQ_row_buffer_miss 0
DRAM_total_WQ_full 0
DRAM_total_dbus_congested 7958
DRAM_avg_congested_cycle 2.77381

====== DRAM_RQ_TRAFFIC ========
DRAM_RQ_READ_TRAFFIC_BREAKDOWN:
data_demand_read.count = 2263
data_demand_read.share = 29.73%

inst_demand_read.count = 420
inst_demand_read.share = 5.52%

cache_inst_prefetch.count = 0
cache_inst_prefetch.share = 0.00%

cache_data_prefetch.count = 4054
cache_data_prefetch.share = 53.27%

stlb_data_demand.count = 839
stlb_data_demand.share = 11.02%

stlb_inst_demand.count = 28
stlb_inst_demand.share = 0.37%

stlb_l1i_pref.count = 0
stlb_l1i_pref.share = 0.00%

stlb_l1d_pref.count = 7
stlb_l1d_pref.share = 0.09%

DRAM_RQ_READ_TRAFFIC_SUMMARY:
cache_demand.count = 2683
cache_demand.share = 35.25%

cache_prefetch.count = 4054
cache_prefetch.share = 53.27%

stlb_demand.count = 867
stlb_demand.share = 11.39%

stlb_prefetch.count = 7
stlb_prefetch.share = 0.09%

DRAM_RQ_READ_TRAFFIC_DEBUG:
total_classified_read.count = 7611
unclassified_read.count = 0
total_read_with_other.count = 7611

classified_plus_unclassified_check.count = 7611
dram_rq_read_total_observed.count = 7611
dram_rq_read_total_observed.per_1K_instructions = 38.0544

STLB_MISS_PTW_DRAM_TOUCH_BREAKDOWN:
stlb_miss_total.count = 1161

stlb_miss_touch_dram.count = 848
stlb_miss_touch_dram.share = 73.04%

stlb_miss_no_dram_touch.count = 313
stlb_miss_no_dram_touch.share = 26.96%

STLB_MISS_PTW_DRAM_TOUCH_DEBUG:
stlb_miss_touch_plus_no_touch.count = 1161
stlb_miss_total_check.count = 1161

======STLB miss causes ========
Core_0_STLB_miss_cause_breakdown
Core_0_STLB_cause_Demand_Data_miss 1065
Core_0_STLB_cause_Demand_Data_miss_rate 0.245279
Core_0_STLB_cause_Demand_Instruction_miss 63
Core_0_STLB_cause_Demand_Instruction_miss_rate 0.0145094
Core_0_STLB_cause_L1D_Prefetch_miss 33
Core_0_STLB_cause_L1D_Prefetch_miss_rate 0.00760018
Core_0_STLB_cause_L1I_Prefetch_miss 0
Core_0_STLB_cause_L1I_Prefetch_miss_rate 0
Core_0_STLB_cause_Other_miss 0
Core_0_STLB_cause_Other_miss_rate 0
Core_0_STLB_Demand_miss 1128
Core_0_STLB_Demand_miss_rate 0.259788
Core_0_STLB_L1D_Prefetch_miss 33
Core_0_STLB_L1D_Prefetch_miss_rate 0.00760018
Core_0_STLB_Other_miss 0
Core_0_STLB_Other_miss_rate 0
