[VMEM] WARNING: physical memory size is smaller than virtual memory size.

*** ChampSim Multicore Out-of-Order Simulator ***
Warmup Instructions: 20000000
Simulation Instructions: 50000000
Number of CPUs: 1
Page size: 4096
STLB ideal mode: off
Core 0: /data0/tzh/champsim_traces/SPEC06/410.bwaves-1963B.champsimtrace.xz
Off-chip DRAM Size: 16 GiB Channels: 1 Width: 64-bit Data Rate: 3205 MT/s
Warmup halting CPU 0 at instruction 20000001 cycle 5145836 for remainder of phase
Warmup finished CPU 0 instructions: 20000001 cycles: 5145836 cumulative IPC: 3.887 (Simulation time: 00 hr 01 min 12 sec)
Warmup complete CPU 0 instructions: 20000001 cycles: 5145836 cumulative IPC: 3.887 (Simulation time: 00 hr 01 min 12 sec)
Simulation finished CPU 0 instructions: 50000002 cycles: 45810618 cumulative IPC: 1.091 (Simulation time: 00 hr 08 min 08 sec)
Simulation complete CPU 0 instructions: 50000002 cycles: 45810618 cumulative IPC: 1.091 (Simulation time: 00 hr 08 min 08 sec)

ChampSim completed all CPUs

=== Simulation ===
CPU 0 runs /data0/tzh/champsim_traces/SPEC06/410.bwaves-1963B.champsimtrace.xz

Region of Interest Statistics

CPU 0 cumulative IPC: 1.091 instructions: 50000002 cycles: 45810618
CPU 0 Branch Prediction Accuracy: 99.96% MPKI: 0.0119 Average ROB Occupancy at Mispredict: 324.8
Branch type MPKI
BRANCH_DIRECT_JUMP: 0
BRANCH_INDIRECT: 0
BRANCH_CONDITIONAL: 0.0119
BRANCH_DIRECT_CALL: 0
BRANCH_INDIRECT_CALL: 0
BRANCH_RETURN: 0

cpu0->cpu0_STLB TOTAL        ACCESS:      38306 HIT:      24339 MISS:      13967 MSHR_MERGE:          0
cpu0->cpu0_STLB LOAD         ACCESS:      38306 HIT:      24339 MISS:      13967 MSHR_MERGE:          0
cpu0->cpu0_STLB RFO          ACCESS:          0 HIT:          0 MISS:          0 MSHR_MERGE:          0
cpu0->cpu0_STLB PREFETCH     ACCESS:          0 HIT:          0 MISS:          0 MSHR_MERGE:          0
cpu0->cpu0_STLB WRITE        ACCESS:          0 HIT:          0 MISS:          0 MSHR_MERGE:          0
cpu0->cpu0_STLB TRANSLATION  ACCESS:          0 HIT:          0 MISS:          0 MSHR_MERGE:          0
cpu0->cpu0_STLB PREFETCH REQUESTED:          0 ISSUED:          0 USEFUL:          0 USELESS:          0 LATE:          0
cpu0->cpu0_STLB AVERAGE MISS LATENCY: 247 cycles
cpu0->cpu0_L2C TOTAL        ACCESS:     991141 HIT:      71764 MISS:     919377 MSHR_MERGE:          0
cpu0->cpu0_L2C LOAD         ACCESS:     941119 HIT:      47085 MISS:     894034 MSHR_MERGE:          0
cpu0->cpu0_L2C RFO          ACCESS:      23527 HIT:          0 MISS:      23527 MSHR_MERGE:          0
cpu0->cpu0_L2C PREFETCH     ACCESS:          0 HIT:          0 MISS:          0 MSHR_MERGE:          0
cpu0->cpu0_L2C WRITE        ACCESS:      23520 HIT:      23520 MISS:          0 MSHR_MERGE:          0
cpu0->cpu0_L2C TRANSLATION  ACCESS:       2975 HIT:       1159 MISS:       1816 MSHR_MERGE:          0
cpu0->cpu0_L2C PREFETCH REQUESTED:          0 ISSUED:          0 USEFUL:          0 USELESS:          0 LATE:          0
cpu0->cpu0_L2C AVERAGE MISS LATENCY: 273 cycles
cpu0->cpu0_L1I TOTAL        ACCESS:   10131349 HIT:   10131349 MISS:          0 MSHR_MERGE:          0
cpu0->cpu0_L1I LOAD         ACCESS:   10131349 HIT:   10131349 MISS:          0 MSHR_MERGE:          0
cpu0->cpu0_L1I RFO          ACCESS:          0 HIT:          0 MISS:          0 MSHR_MERGE:          0
cpu0->cpu0_L1I PREFETCH     ACCESS:          0 HIT:          0 MISS:          0 MSHR_MERGE:          0
cpu0->cpu0_L1I WRITE        ACCESS:          0 HIT:          0 MISS:          0 MSHR_MERGE:          0
cpu0->cpu0_L1I TRANSLATION  ACCESS:          0 HIT:          0 MISS:          0 MSHR_MERGE:          0
cpu0->cpu0_L1I PREFETCH REQUESTED:          0 ISSUED:          0 USEFUL:          0 USELESS:          0 LATE:          0
cpu0->cpu0_L1I AVERAGE MISS LATENCY: - cycles
cpu0->cpu0_L1D TOTAL        ACCESS:   18341983 HIT:   17086457 MISS:    1255526 MSHR_MERGE:     287903
cpu0->cpu0_L1D LOAD         ACCESS:   14570887 HIT:   13384806 MISS:    1186081 MSHR_MERGE:     244960
cpu0->cpu0_L1D RFO          ACCESS:          0 HIT:          0 MISS:          0 MSHR_MERGE:          0
cpu0->cpu0_L1D PREFETCH     ACCESS:          0 HIT:          0 MISS:          0 MSHR_MERGE:          0
cpu0->cpu0_L1D WRITE        ACCESS:    3743135 HIT:    3676665 MISS:      66470 MSHR_MERGE:      42943
cpu0->cpu0_L1D TRANSLATION  ACCESS:      27961 HIT:      24986 MISS:       2975 MSHR_MERGE:          0
cpu0->cpu0_L1D PREFETCH REQUESTED:          0 ISSUED:          0 USEFUL:          0 USELESS:          0 LATE:          0
cpu0->cpu0_L1D AVERAGE MISS LATENCY: 268.4 cycles
cpu0->cpu0_ITLB TOTAL        ACCESS:    8537806 HIT:    8537806 MISS:          0 MSHR_MERGE:          0
cpu0->cpu0_ITLB LOAD         ACCESS:    8537806 HIT:    8537806 MISS:          0 MSHR_MERGE:          0
cpu0->cpu0_ITLB RFO          ACCESS:          0 HIT:          0 MISS:          0 MSHR_MERGE:          0
cpu0->cpu0_ITLB PREFETCH     ACCESS:          0 HIT:          0 MISS:          0 MSHR_MERGE:          0
cpu0->cpu0_ITLB WRITE        ACCESS:          0 HIT:          0 MISS:          0 MSHR_MERGE:          0
cpu0->cpu0_ITLB TRANSLATION  ACCESS:          0 HIT:          0 MISS:          0 MSHR_MERGE:          0
cpu0->cpu0_ITLB PREFETCH REQUESTED:          0 ISSUED:          0 USEFUL:          0 USELESS:          0 LATE:          0
cpu0->cpu0_ITLB AVERAGE MISS LATENCY: - cycles
cpu0->cpu0_DTLB TOTAL        ACCESS:   17457228 HIT:   17404274 MISS:      52954 MSHR_MERGE:      14648
cpu0->cpu0_DTLB LOAD         ACCESS:   17457228 HIT:   17404274 MISS:      52954 MSHR_MERGE:      14648
cpu0->cpu0_DTLB RFO          ACCESS:          0 HIT:          0 MISS:          0 MSHR_MERGE:          0
cpu0->cpu0_DTLB PREFETCH     ACCESS:          0 HIT:          0 MISS:          0 MSHR_MERGE:          0
cpu0->cpu0_DTLB WRITE        ACCESS:          0 HIT:          0 MISS:          0 MSHR_MERGE:          0
cpu0->cpu0_DTLB TRANSLATION  ACCESS:          0 HIT:          0 MISS:          0 MSHR_MERGE:          0
cpu0->cpu0_DTLB PREFETCH REQUESTED:          0 ISSUED:          0 USEFUL:          0 USELESS:          0 LATE:          0
cpu0->cpu0_DTLB AVERAGE MISS LATENCY: 95.43 cycles
cpu0->LLC TOTAL        ACCESS:     942810 HIT:       5567 MISS:     937243 MSHR_MERGE:          0
cpu0->LLC LOAD         ACCESS:     894033 HIT:       1860 MISS:     892173 MSHR_MERGE:          0
cpu0->LLC RFO          ACCESS:      23527 HIT:          0 MISS:      23527 MSHR_MERGE:          0
cpu0->LLC PREFETCH     ACCESS:          0 HIT:          0 MISS:          0 MSHR_MERGE:          0
cpu0->LLC WRITE        ACCESS:      23434 HIT:       3693 MISS:      19741 MSHR_MERGE:          0
cpu0->LLC TRANSLATION  ACCESS:       1816 HIT:         14 MISS:       1802 MSHR_MERGE:          0
cpu0->LLC PREFETCH REQUESTED:          0 ISSUED:          0 USEFUL:          0 USELESS:          0 LATE:          0
cpu0->LLC AVERAGE MISS LATENCY: 252.3 cycles

DRAM Statistics

Channel 0 RQ ROW_BUFFER_HIT:          9
  ROW_BUFFER_MISS:     917488
  AVG DBUS CONGESTED CYCLE: 4.088
Channel 0 WQ ROW_BUFFER_HIT:       2178
  ROW_BUFFER_MISS:      16293
  FULL:          0
Channel 0 REFRESHES ISSUED:       3818

[ROI Statistics]
[System Configuration]
num_cpus 1
cpu_freq 4000
fetch_width 6
decode_width 6
dispatch_width 6
execute_width 6
lq_width 2
sq_width 2
retire_width 6
scheduler_size 128
branch_mispredict_penalty 15
rob_size 352
lq_size 128
sq_size 72
ifetch_buffer_size 64
decode_buffer_size 32
dispatch_buffer_size 32
register_file_size 288
decode_latency 1
dispatch_latency 1
schedule_latency 1
execute_latency 1
page_size 4096
block_size 64
core_0_itlb_set 16
core_0_itlb_way 4
core_0_itlb_rq_size 16
core_0_itlb_wq_size 16
core_0_itlb_pq_size 0
core_0_itlb_mshr_size 8
core_0_itlb_hit_latency 1
core_0_itlb_fill_latency 1
core_0_itlb_max_tag_check 2
core_0_itlb_max_fill 2
core_0_dtlb_set 16
core_0_dtlb_way 4
core_0_dtlb_rq_size 16
core_0_dtlb_wq_size 16
core_0_dtlb_pq_size 0
core_0_dtlb_mshr_size 8
core_0_dtlb_hit_latency 1
core_0_dtlb_fill_latency 1
core_0_dtlb_max_tag_check 2
core_0_dtlb_max_fill 2
core_0_stlb_set 128
core_0_stlb_way 12
core_0_stlb_rq_size 32
core_0_stlb_wq_size 32
core_0_stlb_pq_size 0
core_0_stlb_mshr_size 16
core_0_stlb_hit_latency 4
core_0_stlb_fill_latency 4
core_0_stlb_max_tag_check 1
core_0_stlb_max_fill 1
core_0_l1i_set 64
core_0_l1i_way 8
core_0_l1i_rq_size 64
core_0_l1i_wq_size 64
core_0_l1i_pq_size 32
core_0_l1i_mshr_size 8
core_0_l1i_hit_latency 2
core_0_l1i_fill_latency 2
core_0_l1i_max_tag_check 2
core_0_l1i_max_fill 2
core_0_l1d_set 64
core_0_l1d_way 12
core_0_l1d_rq_size 64
core_0_l1d_wq_size 64
core_0_l1d_pq_size 8
core_0_l1d_mshr_size 16
core_0_l1d_hit_latency 2
core_0_l1d_fill_latency 3
core_0_l1d_max_tag_check 2
core_0_l1d_max_fill 2
core_0_l2c_set 1024
core_0_l2c_way 8
core_0_l2c_rq_size 32
core_0_l2c_wq_size 32
core_0_l2c_pq_size 16
core_0_l2c_mshr_size 32
core_0_l2c_hit_latency 5
core_0_l2c_fill_latency 5
core_0_l2c_max_tag_check 1
core_0_l2c_max_fill 1
llc_set 2048
llc_way 16
llc_rq_size 32
llc_wq_size 32
llc_pq_size 32
llc_mshr_size 64
llc_hit_latency 10
llc_fill_latency 10
llc_max_tag_check 1
llc_max_fill 1
dram_channels 1
dram_ranks 1
dram_bankgroups 8
dram_banks 4
dram_rows 65536
dram_columns 1024
dram_channel_width 8
dram_rq_size 64
dram_wq_size 64
dram_size 17179869184
core_0_itlb_prefetcher no
core_0_dtlb_prefetcher no
core_0_stlb_prefetcher no
core_0_l1i_prefetcher no
core_0_l1d_prefetcher no
core_0_l2c_prefetcher no
llc_prefetcher no
llc_replacement drrip

Core_0_instructions 50000002
Core_0_cycles 45810618
Core_0_IPC 1.09145
Core_0_branch_prediction_accuracy 99.9573
Core_0_branch_MPKI 0.0119
Core_0_average_ROB_occupancy_at_mispredict 324.77

Core_0_ITLB_total_access 8537806
Core_0_ITLB_total_hit 8537806
Core_0_ITLB_total_miss 0
Core_0_ITLB_total_MPKI 0
Core_0_ITLB_total_miss_rate 0
Core_0_ITLB_demand_access 8537806
Core_0_ITLB_demand_hit 8537806
Core_0_ITLB_demand_miss 0
Core_0_ITLB_demand_MPKI 0
Core_0_ITLB_demand_miss_rate 0
Core_0_ITLB_load_access 8537806
Core_0_ITLB_load_hit 8537806
Core_0_ITLB_load_miss 0
Core_0_ITLB_load_MPKI 0
Core_0_ITLB_load_miss_rate 0
Core_0_ITLB_rfo_access 0
Core_0_ITLB_rfo_hit 0
Core_0_ITLB_rfo_miss 0
Core_0_ITLB_rfo_MPKI 0
Core_0_ITLB_rfo_miss_rate 0
Core_0_ITLB_prefetch_access 0
Core_0_ITLB_prefetch_hit 0
Core_0_ITLB_prefetch_miss 0
Core_0_ITLB_prefetch_MPKI 0
Core_0_ITLB_prefetch_miss_rate 0
Core_0_ITLB_writeback_access 0
Core_0_ITLB_writeback_hit 0
Core_0_ITLB_writeback_miss 0
Core_0_ITLB_writeback_MPKI 0
Core_0_ITLB_writeback_miss_rate 0
Core_0_ITLB_prefetch_requested 0
Core_0_ITLB_prefetch_issued 0
Core_0_ITLB_prefetch_useful 0
Core_0_ITLB_prefetch_useless 0
Core_0_ITLB_prefetch_late 0
Core_0_ITLB_prefetch_accuracy 0
Core_0_ITLB_prefetch_coverage 0

Core_0_DTLB_total_access 17457228
Core_0_DTLB_total_hit 17404274
Core_0_DTLB_total_miss 52954
Core_0_DTLB_total_MPKI 1.05908
Core_0_DTLB_total_miss_rate 0.00303336
Core_0_DTLB_demand_access 17457228
Core_0_DTLB_demand_hit 17404274
Core_0_DTLB_demand_miss 52954
Core_0_DTLB_demand_MPKI 1.05908
Core_0_DTLB_demand_miss_rate 0.00303336
Core_0_DTLB_load_access 17457228
Core_0_DTLB_load_hit 17404274
Core_0_DTLB_load_miss 52954
Core_0_DTLB_load_MPKI 1.05908
Core_0_DTLB_load_miss_rate 0.00303336
Core_0_DTLB_rfo_access 0
Core_0_DTLB_rfo_hit 0
Core_0_DTLB_rfo_miss 0
Core_0_DTLB_rfo_MPKI 0
Core_0_DTLB_rfo_miss_rate 0
Core_0_DTLB_prefetch_access 0
Core_0_DTLB_prefetch_hit 0
Core_0_DTLB_prefetch_miss 0
Core_0_DTLB_prefetch_MPKI 0
Core_0_DTLB_prefetch_miss_rate 0
Core_0_DTLB_writeback_access 0
Core_0_DTLB_writeback_hit 0
Core_0_DTLB_writeback_miss 0
Core_0_DTLB_writeback_MPKI 0
Core_0_DTLB_writeback_miss_rate 0
Core_0_DTLB_prefetch_requested 0
Core_0_DTLB_prefetch_issued 0
Core_0_DTLB_prefetch_useful 0
Core_0_DTLB_prefetch_useless 0
Core_0_DTLB_prefetch_late 0
Core_0_DTLB_prefetch_accuracy 0
Core_0_DTLB_prefetch_coverage 0

Core_0_STLB_total_access 38306
Core_0_STLB_total_hit 24339
Core_0_STLB_total_miss 13967
Core_0_STLB_total_MPKI 0.27934
Core_0_STLB_total_miss_rate 0.364617
Core_0_STLB_demand_access 38306
Core_0_STLB_demand_hit 24339
Core_0_STLB_demand_miss 13967
Core_0_STLB_demand_MPKI 0.27934
Core_0_STLB_demand_miss_rate 0.364617
Core_0_STLB_load_access 38306
Core_0_STLB_load_hit 24339
Core_0_STLB_load_miss 13967
Core_0_STLB_load_MPKI 0.27934
Core_0_STLB_load_miss_rate 0.364617
Core_0_STLB_rfo_access 0
Core_0_STLB_rfo_hit 0
Core_0_STLB_rfo_miss 0
Core_0_STLB_rfo_MPKI 0
Core_0_STLB_rfo_miss_rate 0
Core_0_STLB_prefetch_access 0
Core_0_STLB_prefetch_hit 0
Core_0_STLB_prefetch_miss 0
Core_0_STLB_prefetch_MPKI 0
Core_0_STLB_prefetch_miss_rate 0
Core_0_STLB_writeback_access 0
Core_0_STLB_writeback_hit 0
Core_0_STLB_writeback_miss 0
Core_0_STLB_writeback_MPKI 0
Core_0_STLB_writeback_miss_rate 0
Core_0_STLB_prefetch_requested 0
Core_0_STLB_prefetch_issued 0
Core_0_STLB_prefetch_useful 0
Core_0_STLB_prefetch_useless 0
Core_0_STLB_prefetch_late 0
Core_0_STLB_prefetch_accuracy 0
Core_0_STLB_prefetch_coverage 0

Core_0_L1I_total_access 10131349
Core_0_L1I_total_hit 10131349
Core_0_L1I_total_miss 0
Core_0_L1I_total_MPKI 0
Core_0_L1I_total_miss_rate 0
Core_0_L1I_demand_access 10131349
Core_0_L1I_demand_hit 10131349
Core_0_L1I_demand_miss 0
Core_0_L1I_demand_MPKI 0
Core_0_L1I_demand_miss_rate 0
Core_0_L1I_load_access 10131349
Core_0_L1I_load_hit 10131349
Core_0_L1I_load_miss 0
Core_0_L1I_load_MPKI 0
Core_0_L1I_load_miss_rate 0
Core_0_L1I_rfo_access 0
Core_0_L1I_rfo_hit 0
Core_0_L1I_rfo_miss 0
Core_0_L1I_rfo_MPKI 0
Core_0_L1I_rfo_miss_rate 0
Core_0_L1I_prefetch_access 0
Core_0_L1I_prefetch_hit 0
Core_0_L1I_prefetch_miss 0
Core_0_L1I_prefetch_MPKI 0
Core_0_L1I_prefetch_miss_rate 0
Core_0_L1I_writeback_access 0
Core_0_L1I_writeback_hit 0
Core_0_L1I_writeback_miss 0
Core_0_L1I_writeback_MPKI 0
Core_0_L1I_writeback_miss_rate 0
Core_0_L1I_prefetch_requested 0
Core_0_L1I_prefetch_issued 0
Core_0_L1I_prefetch_useful 0
Core_0_L1I_prefetch_useless 0
Core_0_L1I_prefetch_late 0
Core_0_L1I_prefetch_accuracy 0
Core_0_L1I_prefetch_coverage 0

Core_0_L1D_total_access 18314022
Core_0_L1D_total_hit 17061471
Core_0_L1D_total_miss 1252551
Core_0_L1D_total_MPKI 25.051
Core_0_L1D_total_miss_rate 0.068393
Core_0_L1D_demand_access 14570887
Core_0_L1D_demand_hit 13384806
Core_0_L1D_demand_miss 1186081
Core_0_L1D_demand_MPKI 23.7216
Core_0_L1D_demand_miss_rate 0.0814007
Core_0_L1D_load_access 14570887
Core_0_L1D_load_hit 13384806
Core_0_L1D_load_miss 1186081
Core_0_L1D_load_MPKI 23.7216
Core_0_L1D_load_miss_rate 0.0814007
Core_0_L1D_rfo_access 0
Core_0_L1D_rfo_hit 0
Core_0_L1D_rfo_miss 0
Core_0_L1D_rfo_MPKI 0
Core_0_L1D_rfo_miss_rate 0
Core_0_L1D_prefetch_access 0
Core_0_L1D_prefetch_hit 0
Core_0_L1D_prefetch_miss 0
Core_0_L1D_prefetch_MPKI 0
Core_0_L1D_prefetch_miss_rate 0
Core_0_L1D_writeback_access 3743135
Core_0_L1D_writeback_hit 3676665
Core_0_L1D_writeback_miss 66470
Core_0_L1D_writeback_MPKI 1.3294
Core_0_L1D_writeback_miss_rate 0.0177578
Core_0_L1D_prefetch_requested 0
Core_0_L1D_prefetch_issued 0
Core_0_L1D_prefetch_useful 0
Core_0_L1D_prefetch_useless 0
Core_0_L1D_prefetch_late 0
Core_0_L1D_prefetch_accuracy 0
Core_0_L1D_prefetch_coverage 0

Core_0_L2C_total_access 988166
Core_0_L2C_total_hit 70605
Core_0_L2C_total_miss 917561
Core_0_L2C_total_MPKI 18.3512
Core_0_L2C_total_miss_rate 0.928549
Core_0_L2C_demand_access 964646
Core_0_L2C_demand_hit 47085
Core_0_L2C_demand_miss 917561
Core_0_L2C_demand_MPKI 18.3512
Core_0_L2C_demand_miss_rate 0.951189
Core_0_L2C_load_access 941119
Core_0_L2C_load_hit 47085
Core_0_L2C_load_miss 894034
Core_0_L2C_load_MPKI 17.8807
Core_0_L2C_load_miss_rate 0.949969
Core_0_L2C_rfo_access 23527
Core_0_L2C_rfo_hit 0
Core_0_L2C_rfo_miss 23527
Core_0_L2C_rfo_MPKI 0.47054
Core_0_L2C_rfo_miss_rate 1
Core_0_L2C_prefetch_access 0
Core_0_L2C_prefetch_hit 0
Core_0_L2C_prefetch_miss 0
Core_0_L2C_prefetch_MPKI 0
Core_0_L2C_prefetch_miss_rate 0
Core_0_L2C_writeback_access 23520
Core_0_L2C_writeback_hit 23520
Core_0_L2C_writeback_miss 0
Core_0_L2C_writeback_MPKI 0
Core_0_L2C_writeback_miss_rate 0
Core_0_L2C_prefetch_requested 0
Core_0_L2C_prefetch_issued 0
Core_0_L2C_prefetch_useful 0
Core_0_L2C_prefetch_useless 0
Core_0_L2C_prefetch_late 0
Core_0_L2C_prefetch_accuracy 0
Core_0_L2C_prefetch_coverage 0

Core_0_LLC_total_access 940994
Core_0_LLC_total_hit 5553
Core_0_LLC_total_miss 935441
Core_0_LLC_total_MPKI 18.7088
Core_0_LLC_total_miss_rate 0.994099
Core_0_LLC_demand_access 917560
Core_0_LLC_demand_hit 1860
Core_0_LLC_demand_miss 915700
Core_0_LLC_demand_MPKI 18.314
Core_0_LLC_demand_miss_rate 0.997973
Core_0_LLC_load_access 894033
Core_0_LLC_load_hit 1860
Core_0_LLC_load_miss 892173
Core_0_LLC_load_MPKI 17.8435
Core_0_LLC_load_miss_rate 0.99792
Core_0_LLC_rfo_access 23527
Core_0_LLC_rfo_hit 0
Core_0_LLC_rfo_miss 23527
Core_0_LLC_rfo_MPKI 0.47054
Core_0_LLC_rfo_miss_rate 1
Core_0_LLC_prefetch_access 0
Core_0_LLC_prefetch_hit 0
Core_0_LLC_prefetch_miss 0
Core_0_LLC_prefetch_MPKI 0
Core_0_LLC_prefetch_miss_rate 0
Core_0_LLC_writeback_access 23434
Core_0_LLC_writeback_hit 3693
Core_0_LLC_writeback_miss 19741
Core_0_LLC_writeback_MPKI 0.39482
Core_0_LLC_writeback_miss_rate 0.842408
Core_0_LLC_prefetch_requested 0
Core_0_LLC_prefetch_issued 0
Core_0_LLC_prefetch_useful 0
Core_0_LLC_prefetch_useless 0
Core_0_LLC_prefetch_late 0
Core_0_LLC_prefetch_accuracy 0
Core_0_LLC_prefetch_coverage 0

[DRAM Statistics]
Channel_0_RQ_row_buffer_hit 9
Channel_0_RQ_row_buffer_miss 917488
Channel_0_WQ_row_buffer_hit 2178
Channel_0_WQ_row_buffer_miss 16293
Channel_0_WQ_full 0
Channel_0_dbus_congested 1842971
DRAM_total_RQ_row_buffer_hit 9
DRAM_total_RQ_row_buffer_miss 917488
DRAM_total_WQ_row_buffer_hit 2178
DRAM_total_WQ_row_buffer_miss 16293
DRAM_total_WQ_full 0
DRAM_total_dbus_congested 1842971
DRAM_avg_congested_cycle 4.08769

======STLB miss causes ========
Core_0_STLB_miss_cause_breakdown
Core_0_STLB_cause_Demand_Data_miss 13967
Core_0_STLB_cause_Demand_Data_miss_rate 0.364617
Core_0_STLB_cause_Demand_Instruction_miss 0
Core_0_STLB_cause_Demand_Instruction_miss_rate 0
Core_0_STLB_cause_L1D_Prefetch_miss 0
Core_0_STLB_cause_L1D_Prefetch_miss_rate 0
Core_0_STLB_cause_L1I_Prefetch_miss 0
Core_0_STLB_cause_L1I_Prefetch_miss_rate 0
Core_0_STLB_cause_Other_miss 0
Core_0_STLB_cause_Other_miss_rate 0
Core_0_STLB_Demand_miss 13967
Core_0_STLB_Demand_miss_rate 0.364617
Core_0_STLB_L1D_Prefetch_miss 0
Core_0_STLB_L1D_Prefetch_miss_rate 0
Core_0_STLB_Other_miss 0
Core_0_STLB_Other_miss_rate 0
