[VMEM] WARNING: physical memory size is smaller than virtual memory size.

*** ChampSim Multicore Out-of-Order Simulator ***
Warmup Instructions: 20000000
Simulation Instructions: 50000000
Number of CPUs: 1
Page size: 4096
STLB ideal mode: off
Core 0: /data0/tzh/champsim_traces/SPEC06/456.hmmer-191B.champsimtrace.xz
Off-chip DRAM Size: 16 GiB Channels: 1 Width: 64-bit Data Rate: 3205 MT/s
Warmup halting CPU 0 at instruction 20000004 cycle 4569218 for remainder of phase
Warmup finished CPU 0 instructions: 20000004 cycles: 4569218 cumulative IPC: 4.377 (Simulation time: 00 hr 01 min 05 sec)
Warmup complete CPU 0 instructions: 20000004 cycles: 4569218 cumulative IPC: 4.377 (Simulation time: 00 hr 01 min 05 sec)
Simulation finished CPU 0 instructions: 50000005 cycles: 16574379 cumulative IPC: 3.017 (Simulation time: 00 hr 04 min 29 sec)
Simulation complete CPU 0 instructions: 50000005 cycles: 16574379 cumulative IPC: 3.017 (Simulation time: 00 hr 04 min 29 sec)

ChampSim completed all CPUs

=== Simulation ===
CPU 0 runs /data0/tzh/champsim_traces/SPEC06/456.hmmer-191B.champsimtrace.xz

Region of Interest Statistics

CPU 0 cumulative IPC: 3.017 instructions: 50000005 cycles: 16574379
CPU 0 Branch Prediction Accuracy: 99.54% MPKI: 0.2056 Average ROB Occupancy at Mispredict: 134.7
Branch type MPKI
BRANCH_DIRECT_JUMP: 0.00128
BRANCH_INDIRECT: 0.00088
BRANCH_CONDITIONAL: 0.1998
BRANCH_DIRECT_CALL: 0.00166
BRANCH_INDIRECT_CALL: 0.00018
BRANCH_RETURN: 0.00174

cpu0->cpu0_STLB TOTAL        ACCESS:       3763 HIT:       3363 MISS:        400 MSHR_MERGE:          0
cpu0->cpu0_STLB LOAD         ACCESS:       3763 HIT:       3363 MISS:        400 MSHR_MERGE:          0
cpu0->cpu0_STLB RFO          ACCESS:          0 HIT:          0 MISS:          0 MSHR_MERGE:          0
cpu0->cpu0_STLB PREFETCH     ACCESS:          0 HIT:          0 MISS:          0 MSHR_MERGE:          0
cpu0->cpu0_STLB WRITE        ACCESS:          0 HIT:          0 MISS:          0 MSHR_MERGE:          0
cpu0->cpu0_STLB TRANSLATION  ACCESS:          0 HIT:          0 MISS:          0 MSHR_MERGE:          0
cpu0->cpu0_STLB PREFETCH REQUESTED:          0 ISSUED:          0 USEFUL:          0 USELESS:          0 LATE:          0
cpu0->cpu0_STLB AVERAGE MISS LATENCY: 260.9 cycles
cpu0->cpu0_L2C TOTAL        ACCESS:     339208 HIT:     202550 MISS:     136658 MSHR_MERGE:          0
cpu0->cpu0_L2C LOAD         ACCESS:      71750 HIT:      64540 MISS:       7210 MSHR_MERGE:          0
cpu0->cpu0_L2C RFO          ACCESS:     133460 HIT:       4120 MISS:     129340 MSHR_MERGE:          0
cpu0->cpu0_L2C PREFETCH     ACCESS:          0 HIT:          0 MISS:          0 MSHR_MERGE:          0
cpu0->cpu0_L2C WRITE        ACCESS:     133871 HIT:     133854 MISS:         17 MSHR_MERGE:          0
cpu0->cpu0_L2C TRANSLATION  ACCESS:        127 HIT:         36 MISS:         91 MSHR_MERGE:          0
cpu0->cpu0_L2C PREFETCH REQUESTED:          0 ISSUED:          0 USEFUL:          0 USELESS:          0 LATE:          0
cpu0->cpu0_L2C AVERAGE MISS LATENCY: 116.4 cycles
cpu0->cpu0_L1I TOTAL        ACCESS:    7349986 HIT:    7349609 MISS:        377 MSHR_MERGE:         58
cpu0->cpu0_L1I LOAD         ACCESS:    7349986 HIT:    7349609 MISS:        377 MSHR_MERGE:         58
cpu0->cpu0_L1I RFO          ACCESS:          0 HIT:          0 MISS:          0 MSHR_MERGE:          0
cpu0->cpu0_L1I PREFETCH     ACCESS:          0 HIT:          0 MISS:          0 MSHR_MERGE:          0
cpu0->cpu0_L1I WRITE        ACCESS:          0 HIT:          0 MISS:          0 MSHR_MERGE:          0
cpu0->cpu0_L1I TRANSLATION  ACCESS:          0 HIT:          0 MISS:          0 MSHR_MERGE:          0
cpu0->cpu0_L1I PREFETCH REQUESTED:          0 ISSUED:          0 USEFUL:          0 USELESS:          0 LATE:          0
cpu0->cpu0_L1I AVERAGE MISS LATENCY: 217.4 cycles
cpu0->cpu0_L1D TOTAL        ACCESS:   15344159 HIT:   13485238 MISS:    1858921 MSHR_MERGE:    1653903
cpu0->cpu0_L1D LOAD         ACCESS:   10680589 HIT:   10589422 MISS:      91167 MSHR_MERGE:      19736
cpu0->cpu0_L1D RFO          ACCESS:          0 HIT:          0 MISS:          0 MSHR_MERGE:          0
cpu0->cpu0_L1D PREFETCH     ACCESS:          0 HIT:          0 MISS:          0 MSHR_MERGE:          0
cpu0->cpu0_L1D WRITE        ACCESS:    4662770 HIT:    2895145 MISS:    1767625 MSHR_MERGE:    1634165
cpu0->cpu0_L1D TRANSLATION  ACCESS:        800 HIT:        671 MISS:        129 MSHR_MERGE:          2
cpu0->cpu0_L1D PREFETCH REQUESTED:          0 ISSUED:          0 USEFUL:          0 USELESS:          0 LATE:          0
cpu0->cpu0_L1D AVERAGE MISS LATENCY: 85.95 cycles
cpu0->cpu0_ITLB TOTAL        ACCESS:    6567623 HIT:    6567568 MISS:         55 MSHR_MERGE:         22
cpu0->cpu0_ITLB LOAD         ACCESS:    6567623 HIT:    6567568 MISS:         55 MSHR_MERGE:         22
cpu0->cpu0_ITLB RFO          ACCESS:          0 HIT:          0 MISS:          0 MSHR_MERGE:          0
cpu0->cpu0_ITLB PREFETCH     ACCESS:          0 HIT:          0 MISS:          0 MSHR_MERGE:          0
cpu0->cpu0_ITLB WRITE        ACCESS:          0 HIT:          0 MISS:          0 MSHR_MERGE:          0
cpu0->cpu0_ITLB TRANSLATION  ACCESS:          0 HIT:          0 MISS:          0 MSHR_MERGE:          0
cpu0->cpu0_ITLB PREFETCH REQUESTED:          0 ISSUED:          0 USEFUL:          0 USELESS:          0 LATE:          0
cpu0->cpu0_ITLB AVERAGE MISS LATENCY: 302.1 cycles
cpu0->cpu0_DTLB TOTAL        ACCESS:   14604106 HIT:   14596706 MISS:       7400 MSHR_MERGE:       3670
cpu0->cpu0_DTLB LOAD         ACCESS:   14604106 HIT:   14596706 MISS:       7400 MSHR_MERGE:       3670
cpu0->cpu0_DTLB RFO          ACCESS:          0 HIT:          0 MISS:          0 MSHR_MERGE:          0
cpu0->cpu0_DTLB PREFETCH     ACCESS:          0 HIT:          0 MISS:          0 MSHR_MERGE:          0
cpu0->cpu0_DTLB WRITE        ACCESS:          0 HIT:          0 MISS:          0 MSHR_MERGE:          0
cpu0->cpu0_DTLB TRANSLATION  ACCESS:          0 HIT:          0 MISS:          0 MSHR_MERGE:          0
cpu0->cpu0_DTLB PREFETCH REQUESTED:          0 ISSUED:          0 USEFUL:          0 USELESS:          0 LATE:          0
cpu0->cpu0_DTLB AVERAGE MISS LATENCY: 30.47 cycles
cpu0->LLC TOTAL        ACCESS:     267321 HIT:     186697 MISS:      80624 MSHR_MERGE:          0
cpu0->LLC LOAD         ACCESS:       7210 HIT:       4422 MISS:       2788 MSHR_MERGE:          0
cpu0->LLC RFO          ACCESS:     129337 HIT:      65527 MISS:      63810 MSHR_MERGE:          0
cpu0->LLC PREFETCH     ACCESS:          0 HIT:          0 MISS:          0 MSHR_MERGE:          0
cpu0->LLC WRITE        ACCESS:     130683 HIT:     116740 MISS:      13943 MSHR_MERGE:          0
cpu0->LLC TRANSLATION  ACCESS:         91 HIT:          8 MISS:         83 MSHR_MERGE:          0
cpu0->LLC PREFETCH REQUESTED:          0 ISSUED:          0 USEFUL:          0 USELESS:          0 LATE:          0
cpu0->LLC AVERAGE MISS LATENCY: 172.6 cycles

DRAM Statistics

Channel 0 RQ ROW_BUFFER_HIT:         50
  ROW_BUFFER_MISS:      66629
  AVG DBUS CONGESTED CYCLE: 13.72
Channel 0 WQ ROW_BUFFER_HIT:      13166
  ROW_BUFFER_MISS:      52262
  FULL:          0
Channel 0 REFRESHES ISSUED:       1381

[ROI Statistics]
[System Configuration]
num_cpus 1
cpu_freq 4000
fetch_width 6
decode_width 6
dispatch_width 6
execute_width 6
lq_width 2
sq_width 2
retire_width 6
scheduler_size 128
branch_mispredict_penalty 15
rob_size 352
lq_size 128
sq_size 72
ifetch_buffer_size 64
decode_buffer_size 32
dispatch_buffer_size 32
register_file_size 288
decode_latency 1
dispatch_latency 1
schedule_latency 1
execute_latency 1
page_size 4096
block_size 64
core_0_itlb_set 16
core_0_itlb_way 4
core_0_itlb_rq_size 16
core_0_itlb_wq_size 16
core_0_itlb_pq_size 0
core_0_itlb_mshr_size 8
core_0_itlb_hit_latency 1
core_0_itlb_fill_latency 1
core_0_itlb_max_tag_check 2
core_0_itlb_max_fill 2
core_0_dtlb_set 16
core_0_dtlb_way 4
core_0_dtlb_rq_size 16
core_0_dtlb_wq_size 16
core_0_dtlb_pq_size 0
core_0_dtlb_mshr_size 8
core_0_dtlb_hit_latency 1
core_0_dtlb_fill_latency 1
core_0_dtlb_max_tag_check 2
core_0_dtlb_max_fill 2
core_0_stlb_set 128
core_0_stlb_way 12
core_0_stlb_rq_size 32
core_0_stlb_wq_size 32
core_0_stlb_pq_size 0
core_0_stlb_mshr_size 16
core_0_stlb_hit_latency 4
core_0_stlb_fill_latency 4
core_0_stlb_max_tag_check 1
core_0_stlb_max_fill 1
core_0_l1i_set 64
core_0_l1i_way 8
core_0_l1i_rq_size 64
core_0_l1i_wq_size 64
core_0_l1i_pq_size 32
core_0_l1i_mshr_size 8
core_0_l1i_hit_latency 2
core_0_l1i_fill_latency 2
core_0_l1i_max_tag_check 2
core_0_l1i_max_fill 2
core_0_l1d_set 64
core_0_l1d_way 12
core_0_l1d_rq_size 64
core_0_l1d_wq_size 64
core_0_l1d_pq_size 8
core_0_l1d_mshr_size 16
core_0_l1d_hit_latency 2
core_0_l1d_fill_latency 3
core_0_l1d_max_tag_check 2
core_0_l1d_max_fill 2
core_0_l2c_set 1024
core_0_l2c_way 8
core_0_l2c_rq_size 32
core_0_l2c_wq_size 32
core_0_l2c_pq_size 16
core_0_l2c_mshr_size 32
core_0_l2c_hit_latency 5
core_0_l2c_fill_latency 5
core_0_l2c_max_tag_check 1
core_0_l2c_max_fill 1
llc_set 2048
llc_way 16
llc_rq_size 32
llc_wq_size 32
llc_pq_size 32
llc_mshr_size 64
llc_hit_latency 10
llc_fill_latency 10
llc_max_tag_check 1
llc_max_fill 1
dram_channels 1
dram_ranks 1
dram_bankgroups 8
dram_banks 4
dram_rows 65536
dram_columns 1024
dram_channel_width 8
dram_rq_size 64
dram_wq_size 64
dram_size 17179869184
core_0_itlb_prefetcher no
core_0_dtlb_prefetcher no
core_0_stlb_prefetcher no
core_0_l1i_prefetcher no
core_0_l1d_prefetcher no
core_0_l2c_prefetcher no
llc_prefetcher no
llc_replacement drrip

Core_0_instructions 50000005
Core_0_cycles 16574379
Core_0_IPC 3.0167
Core_0_branch_prediction_accuracy 99.5373
Core_0_branch_MPKI 0.20556
Core_0_average_ROB_occupancy_at_mispredict 134.684

Core_0_ITLB_total_access 6567623
Core_0_ITLB_total_hit 6567568
Core_0_ITLB_total_miss 55
Core_0_ITLB_total_MPKI 0.0011
Core_0_ITLB_total_miss_rate 8.37441e-06
Core_0_ITLB_demand_access 6567623
Core_0_ITLB_demand_hit 6567568
Core_0_ITLB_demand_miss 55
Core_0_ITLB_demand_MPKI 0.0011
Core_0_ITLB_demand_miss_rate 8.37441e-06
Core_0_ITLB_load_access 6567623
Core_0_ITLB_load_hit 6567568
Core_0_ITLB_load_miss 55
Core_0_ITLB_load_MPKI 0.0011
Core_0_ITLB_load_miss_rate 8.37441e-06
Core_0_ITLB_rfo_access 0
Core_0_ITLB_rfo_hit 0
Core_0_ITLB_rfo_miss 0
Core_0_ITLB_rfo_MPKI 0
Core_0_ITLB_rfo_miss_rate 0
Core_0_ITLB_prefetch_access 0
Core_0_ITLB_prefetch_hit 0
Core_0_ITLB_prefetch_miss 0
Core_0_ITLB_prefetch_MPKI 0
Core_0_ITLB_prefetch_miss_rate 0
Core_0_ITLB_writeback_access 0
Core_0_ITLB_writeback_hit 0
Core_0_ITLB_writeback_miss 0
Core_0_ITLB_writeback_MPKI 0
Core_0_ITLB_writeback_miss_rate 0
Core_0_ITLB_prefetch_requested 0
Core_0_ITLB_prefetch_issued 0
Core_0_ITLB_prefetch_useful 0
Core_0_ITLB_prefetch_useless 0
Core_0_ITLB_prefetch_late 0
Core_0_ITLB_prefetch_accuracy 0
Core_0_ITLB_prefetch_coverage 0

Core_0_DTLB_total_access 14604106
Core_0_DTLB_total_hit 14596706
Core_0_DTLB_total_miss 7400
Core_0_DTLB_total_MPKI 0.148
Core_0_DTLB_total_miss_rate 0.000506707
Core_0_DTLB_demand_access 14604106
Core_0_DTLB_demand_hit 14596706
Core_0_DTLB_demand_miss 7400
Core_0_DTLB_demand_MPKI 0.148
Core_0_DTLB_demand_miss_rate 0.000506707
Core_0_DTLB_load_access 14604106
Core_0_DTLB_load_hit 14596706
Core_0_DTLB_load_miss 7400
Core_0_DTLB_load_MPKI 0.148
Core_0_DTLB_load_miss_rate 0.000506707
Core_0_DTLB_rfo_access 0
Core_0_DTLB_rfo_hit 0
Core_0_DTLB_rfo_miss 0
Core_0_DTLB_rfo_MPKI 0
Core_0_DTLB_rfo_miss_rate 0
Core_0_DTLB_prefetch_access 0
Core_0_DTLB_prefetch_hit 0
Core_0_DTLB_prefetch_miss 0
Core_0_DTLB_prefetch_MPKI 0
Core_0_DTLB_prefetch_miss_rate 0
Core_0_DTLB_writeback_access 0
Core_0_DTLB_writeback_hit 0
Core_0_DTLB_writeback_miss 0
Core_0_DTLB_writeback_MPKI 0
Core_0_DTLB_writeback_miss_rate 0
Core_0_DTLB_prefetch_requested 0
Core_0_DTLB_prefetch_issued 0
Core_0_DTLB_prefetch_useful 0
Core_0_DTLB_prefetch_useless 0
Core_0_DTLB_prefetch_late 0
Core_0_DTLB_prefetch_accuracy 0
Core_0_DTLB_prefetch_coverage 0

Core_0_STLB_total_access 3763
Core_0_STLB_total_hit 3363
Core_0_STLB_total_miss 400
Core_0_STLB_total_MPKI 0.008
Core_0_STLB_total_miss_rate 0.106298
Core_0_STLB_demand_access 3763
Core_0_STLB_demand_hit 3363
Core_0_STLB_demand_miss 400
Core_0_STLB_demand_MPKI 0.008
Core_0_STLB_demand_miss_rate 0.106298
Core_0_STLB_load_access 3763
Core_0_STLB_load_hit 3363
Core_0_STLB_load_miss 400
Core_0_STLB_load_MPKI 0.008
Core_0_STLB_load_miss_rate 0.106298
Core_0_STLB_rfo_access 0
Core_0_STLB_rfo_hit 0
Core_0_STLB_rfo_miss 0
Core_0_STLB_rfo_MPKI 0
Core_0_STLB_rfo_miss_rate 0
Core_0_STLB_prefetch_access 0
Core_0_STLB_prefetch_hit 0
Core_0_STLB_prefetch_miss 0
Core_0_STLB_prefetch_MPKI 0
Core_0_STLB_prefetch_miss_rate 0
Core_0_STLB_writeback_access 0
Core_0_STLB_writeback_hit 0
Core_0_STLB_writeback_miss 0
Core_0_STLB_writeback_MPKI 0
Core_0_STLB_writeback_miss_rate 0
Core_0_STLB_prefetch_requested 0
Core_0_STLB_prefetch_issued 0
Core_0_STLB_prefetch_useful 0
Core_0_STLB_prefetch_useless 0
Core_0_STLB_prefetch_late 0
Core_0_STLB_prefetch_accuracy 0
Core_0_STLB_prefetch_coverage 0

Core_0_L1I_total_access 7349986
Core_0_L1I_total_hit 7349609
Core_0_L1I_total_miss 377
Core_0_L1I_total_MPKI 0.00754
Core_0_L1I_total_miss_rate 5.12926e-05
Core_0_L1I_demand_access 7349986
Core_0_L1I_demand_hit 7349609
Core_0_L1I_demand_miss 377
Core_0_L1I_demand_MPKI 0.00754
Core_0_L1I_demand_miss_rate 5.12926e-05
Core_0_L1I_load_access 7349986
Core_0_L1I_load_hit 7349609
Core_0_L1I_load_miss 377
Core_0_L1I_load_MPKI 0.00754
Core_0_L1I_load_miss_rate 5.12926e-05
Core_0_L1I_rfo_access 0
Core_0_L1I_rfo_hit 0
Core_0_L1I_rfo_miss 0
Core_0_L1I_rfo_MPKI 0
Core_0_L1I_rfo_miss_rate 0
Core_0_L1I_prefetch_access 0
Core_0_L1I_prefetch_hit 0
Core_0_L1I_prefetch_miss 0
Core_0_L1I_prefetch_MPKI 0
Core_0_L1I_prefetch_miss_rate 0
Core_0_L1I_writeback_access 0
Core_0_L1I_writeback_hit 0
Core_0_L1I_writeback_miss 0
Core_0_L1I_writeback_MPKI 0
Core_0_L1I_writeback_miss_rate 0
Core_0_L1I_prefetch_requested 0
Core_0_L1I_prefetch_issued 0
Core_0_L1I_prefetch_useful 0
Core_0_L1I_prefetch_useless 0
Core_0_L1I_prefetch_late 0
Core_0_L1I_prefetch_accuracy 0
Core_0_L1I_prefetch_coverage 0

Core_0_L1D_total_access 15343359
Core_0_L1D_total_hit 13484567
Core_0_L1D_total_miss 1858792
Core_0_L1D_total_MPKI 37.1758
Core_0_L1D_total_miss_rate 0.121146
Core_0_L1D_demand_access 10680589
Core_0_L1D_demand_hit 10589422
Core_0_L1D_demand_miss 91167
Core_0_L1D_demand_MPKI 1.82334
Core_0_L1D_demand_miss_rate 0.00853577
Core_0_L1D_load_access 10680589
Core_0_L1D_load_hit 10589422
Core_0_L1D_load_miss 91167
Core_0_L1D_load_MPKI 1.82334
Core_0_L1D_load_miss_rate 0.00853577
Core_0_L1D_rfo_access 0
Core_0_L1D_rfo_hit 0
Core_0_L1D_rfo_miss 0
Core_0_L1D_rfo_MPKI 0
Core_0_L1D_rfo_miss_rate 0
Core_0_L1D_prefetch_access 0
Core_0_L1D_prefetch_hit 0
Core_0_L1D_prefetch_miss 0
Core_0_L1D_prefetch_MPKI 0
Core_0_L1D_prefetch_miss_rate 0
Core_0_L1D_writeback_access 4662770
Core_0_L1D_writeback_hit 2895145
Core_0_L1D_writeback_miss 1767625
Core_0_L1D_writeback_MPKI 35.3525
Core_0_L1D_writeback_miss_rate 0.379093
Core_0_L1D_prefetch_requested 0
Core_0_L1D_prefetch_issued 0
Core_0_L1D_prefetch_useful 0
Core_0_L1D_prefetch_useless 0
Core_0_L1D_prefetch_late 0
Core_0_L1D_prefetch_accuracy 0
Core_0_L1D_prefetch_coverage 0

Core_0_L2C_total_access 339081
Core_0_L2C_total_hit 202514
Core_0_L2C_total_miss 136567
Core_0_L2C_total_MPKI 2.73134
Core_0_L2C_total_miss_rate 0.402756
Core_0_L2C_demand_access 205210
Core_0_L2C_demand_hit 68660
Core_0_L2C_demand_miss 136550
Core_0_L2C_demand_MPKI 2.731
Core_0_L2C_demand_miss_rate 0.665416
Core_0_L2C_load_access 71750
Core_0_L2C_load_hit 64540
Core_0_L2C_load_miss 7210
Core_0_L2C_load_MPKI 0.1442
Core_0_L2C_load_miss_rate 0.100488
Core_0_L2C_rfo_access 133460
Core_0_L2C_rfo_hit 4120
Core_0_L2C_rfo_miss 129340
Core_0_L2C_rfo_MPKI 2.5868
Core_0_L2C_rfo_miss_rate 0.969129
Core_0_L2C_prefetch_access 0
Core_0_L2C_prefetch_hit 0
Core_0_L2C_prefetch_miss 0
Core_0_L2C_prefetch_MPKI 0
Core_0_L2C_prefetch_miss_rate 0
Core_0_L2C_writeback_access 133871
Core_0_L2C_writeback_hit 133854
Core_0_L2C_writeback_miss 17
Core_0_L2C_writeback_MPKI 0.00034
Core_0_L2C_writeback_miss_rate 0.000126988
Core_0_L2C_prefetch_requested 0
Core_0_L2C_prefetch_issued 0
Core_0_L2C_prefetch_useful 0
Core_0_L2C_prefetch_useless 0
Core_0_L2C_prefetch_late 0
Core_0_L2C_prefetch_accuracy 0
Core_0_L2C_prefetch_coverage 0

Core_0_LLC_total_access 267230
Core_0_LLC_total_hit 186689
Core_0_LLC_total_miss 80541
Core_0_LLC_total_MPKI 1.61082
Core_0_LLC_total_miss_rate 0.301392
Core_0_LLC_demand_access 136547
Core_0_LLC_demand_hit 69949
Core_0_LLC_demand_miss 66598
Core_0_LLC_demand_MPKI 1.33196
Core_0_LLC_demand_miss_rate 0.487729
Core_0_LLC_load_access 7210
Core_0_LLC_load_hit 4422
Core_0_LLC_load_miss 2788
Core_0_LLC_load_MPKI 0.05576
Core_0_LLC_load_miss_rate 0.386685
Core_0_LLC_rfo_access 129337
Core_0_LLC_rfo_hit 65527
Core_0_LLC_rfo_miss 63810
Core_0_LLC_rfo_MPKI 1.2762
Core_0_LLC_rfo_miss_rate 0.493362
Core_0_LLC_prefetch_access 0
Core_0_LLC_prefetch_hit 0
Core_0_LLC_prefetch_miss 0
Core_0_LLC_prefetch_MPKI 0
Core_0_LLC_prefetch_miss_rate 0
Core_0_LLC_writeback_access 130683
Core_0_LLC_writeback_hit 116740
Core_0_LLC_writeback_miss 13943
Core_0_LLC_writeback_MPKI 0.27886
Core_0_LLC_writeback_miss_rate 0.106693
Core_0_LLC_prefetch_requested 0
Core_0_LLC_prefetch_issued 0
Core_0_LLC_prefetch_useful 0
Core_0_LLC_prefetch_useless 0
Core_0_LLC_prefetch_late 0
Core_0_LLC_prefetch_accuracy 0
Core_0_LLC_prefetch_coverage 0

[DRAM Statistics]
Channel_0_RQ_row_buffer_hit 50
Channel_0_RQ_row_buffer_miss 66629
Channel_0_WQ_row_buffer_hit 13166
Channel_0_WQ_row_buffer_miss 52262
Channel_0_WQ_full 0
Channel_0_dbus_congested 529249
DRAM_total_RQ_row_buffer_hit 50
DRAM_total_RQ_row_buffer_miss 66629
DRAM_total_WQ_row_buffer_hit 13166
DRAM_total_WQ_row_buffer_miss 52262
DRAM_total_WQ_full 0
DRAM_total_dbus_congested 529249
DRAM_avg_congested_cycle 13.7185

======STLB miss causes ========
Core_0_STLB_miss_cause_breakdown
Core_0_STLB_cause_Demand_Data_miss 367
Core_0_STLB_cause_Demand_Data_miss_rate 0.0975286
Core_0_STLB_cause_Demand_Instruction_miss 33
Core_0_STLB_cause_Demand_Instruction_miss_rate 0.0087696
Core_0_STLB_cause_L1D_Prefetch_miss 0
Core_0_STLB_cause_L1D_Prefetch_miss_rate 0
Core_0_STLB_cause_L1I_Prefetch_miss 0
Core_0_STLB_cause_L1I_Prefetch_miss_rate 0
Core_0_STLB_cause_Other_miss 0
Core_0_STLB_cause_Other_miss_rate 0
Core_0_STLB_Demand_miss 400
Core_0_STLB_Demand_miss_rate 0.106298
Core_0_STLB_L1D_Prefetch_miss 0
Core_0_STLB_L1D_Prefetch_miss_rate 0
Core_0_STLB_Other_miss 0
Core_0_STLB_Other_miss_rate 0
