[VMEM] WARNING: physical memory size is smaller than virtual memory size.

*** ChampSim Multicore Out-of-Order Simulator ***
Warmup Instructions: 20000000
Simulation Instructions: 50000000
Number of CPUs: 1
Page size: 4096
STLB ideal mode: off
Core 0: /data0/tzh/champsim_traces/SPEC17/603.bwaves_s-1080B.champsimtrace.xz
Off-chip DRAM Size: 16 GiB Channels: 1 Width: 64-bit Data Rate: 3205 MT/s
Warmup halting CPU 0 at instruction 20000004 cycle 4461429 for remainder of phase
Warmup finished CPU 0 instructions: 20000004 cycles: 4461429 cumulative IPC: 4.483 (Simulation time: 00 hr 00 min 51 sec)
Warmup complete CPU 0 instructions: 20000004 cycles: 4461429 cumulative IPC: 4.483 (Simulation time: 00 hr 00 min 51 sec)
Simulation finished CPU 0 instructions: 50000001 cycles: 14825267 cumulative IPC: 3.373 (Simulation time: 00 hr 03 min 15 sec)
Simulation complete CPU 0 instructions: 50000001 cycles: 14825267 cumulative IPC: 3.373 (Simulation time: 00 hr 03 min 15 sec)

ChampSim completed all CPUs

=== Simulation ===
CPU 0 runs /data0/tzh/champsim_traces/SPEC17/603.bwaves_s-1080B.champsimtrace.xz

Region of Interest Statistics

CPU 0 cumulative IPC: 3.373 instructions: 50000001 cycles: 14825267
CPU 0 Branch Prediction Accuracy: 99.45% MPKI: 0.7984 Average ROB Occupancy at Mispredict: 141.8
Branch type MPKI
BRANCH_DIRECT_JUMP: 0.1244
BRANCH_INDIRECT: 0
BRANCH_CONDITIONAL: 0.583
BRANCH_DIRECT_CALL: 0
BRANCH_INDIRECT_CALL: 0
BRANCH_RETURN: 0.091

cpu0->cpu0_STLB TOTAL        ACCESS:         26 HIT:          2 MISS:         24 MSHR_MERGE:          0
cpu0->cpu0_STLB LOAD         ACCESS:         26 HIT:          2 MISS:         24 MSHR_MERGE:          0
cpu0->cpu0_STLB RFO          ACCESS:          0 HIT:          0 MISS:          0 MSHR_MERGE:          0
cpu0->cpu0_STLB PREFETCH     ACCESS:          0 HIT:          0 MISS:          0 MSHR_MERGE:          0
cpu0->cpu0_STLB WRITE        ACCESS:          0 HIT:          0 MISS:          0 MSHR_MERGE:          0
cpu0->cpu0_STLB TRANSLATION  ACCESS:          0 HIT:          0 MISS:          0 MSHR_MERGE:          0
cpu0->cpu0_STLB PREFETCH REQUESTED:          0 ISSUED:          0 USEFUL:          0 USELESS:          0 LATE:          0
cpu0->cpu0_STLB AVERAGE MISS LATENCY: 255 cycles
cpu0->cpu0_L2C TOTAL        ACCESS:       3183 HIT:       1636 MISS:       1547 MSHR_MERGE:          0
cpu0->cpu0_L2C LOAD         ACCESS:        184 HIT:         44 MISS:        140 MSHR_MERGE:          0
cpu0->cpu0_L2C RFO          ACCESS:       1495 HIT:         92 MISS:       1403 MSHR_MERGE:          0
cpu0->cpu0_L2C PREFETCH     ACCESS:          0 HIT:          0 MISS:          0 MSHR_MERGE:          0
cpu0->cpu0_L2C WRITE        ACCESS:       1499 HIT:       1499 MISS:          0 MSHR_MERGE:          0
cpu0->cpu0_L2C TRANSLATION  ACCESS:          5 HIT:          1 MISS:          4 MSHR_MERGE:          0
cpu0->cpu0_L2C PREFETCH REQUESTED:          0 ISSUED:          0 USEFUL:          0 USELESS:          0 LATE:          0
cpu0->cpu0_L2C AVERAGE MISS LATENCY: 244.7 cycles
cpu0->cpu0_L1I TOTAL        ACCESS:    1750354 HIT:    1750354 MISS:          0 MSHR_MERGE:          0
cpu0->cpu0_L1I LOAD         ACCESS:    1750354 HIT:    1750354 MISS:          0 MSHR_MERGE:          0
cpu0->cpu0_L1I RFO          ACCESS:          0 HIT:          0 MISS:          0 MSHR_MERGE:          0
cpu0->cpu0_L1I PREFETCH     ACCESS:          0 HIT:          0 MISS:          0 MSHR_MERGE:          0
cpu0->cpu0_L1I WRITE        ACCESS:          0 HIT:          0 MISS:          0 MSHR_MERGE:          0
cpu0->cpu0_L1I TRANSLATION  ACCESS:          0 HIT:          0 MISS:          0 MSHR_MERGE:          0
cpu0->cpu0_L1I PREFETCH REQUESTED:          0 ISSUED:          0 USEFUL:          0 USELESS:          0 LATE:          0
cpu0->cpu0_L1I AVERAGE MISS LATENCY: - cycles
cpu0->cpu0_L1D TOTAL        ACCESS:   10299923 HIT:   10289490 MISS:      10433 MSHR_MERGE:       8748
cpu0->cpu0_L1D LOAD         ACCESS:    8546946 HIT:    8546662 MISS:        284 MSHR_MERGE:        100
cpu0->cpu0_L1D RFO          ACCESS:          0 HIT:          0 MISS:          0 MSHR_MERGE:          0
cpu0->cpu0_L1D PREFETCH     ACCESS:          0 HIT:          0 MISS:          0 MSHR_MERGE:          0
cpu0->cpu0_L1D WRITE        ACCESS:    1752928 HIT:    1742784 MISS:      10144 MSHR_MERGE:       8648
cpu0->cpu0_L1D TRANSLATION  ACCESS:         49 HIT:         44 MISS:          5 MSHR_MERGE:          0
cpu0->cpu0_L1D PREFETCH REQUESTED:          0 ISSUED:          0 USEFUL:          0 USELESS:          0 LATE:          0
cpu0->cpu0_L1D AVERAGE MISS LATENCY: 233.6 cycles
cpu0->cpu0_ITLB TOTAL        ACCESS:    1226845 HIT:    1226845 MISS:          0 MSHR_MERGE:          0
cpu0->cpu0_ITLB LOAD         ACCESS:    1226845 HIT:    1226845 MISS:          0 MSHR_MERGE:          0
cpu0->cpu0_ITLB RFO          ACCESS:          0 HIT:          0 MISS:          0 MSHR_MERGE:          0
cpu0->cpu0_ITLB PREFETCH     ACCESS:          0 HIT:          0 MISS:          0 MSHR_MERGE:          0
cpu0->cpu0_ITLB WRITE        ACCESS:          0 HIT:          0 MISS:          0 MSHR_MERGE:          0
cpu0->cpu0_ITLB TRANSLATION  ACCESS:          0 HIT:          0 MISS:          0 MSHR_MERGE:          0
cpu0->cpu0_ITLB PREFETCH REQUESTED:          0 ISSUED:          0 USEFUL:          0 USELESS:          0 LATE:          0
cpu0->cpu0_ITLB AVERAGE MISS LATENCY: - cycles
cpu0->cpu0_DTLB TOTAL        ACCESS:    9667428 HIT:    9667210 MISS:        218 MSHR_MERGE:        192
cpu0->cpu0_DTLB LOAD         ACCESS:    9667428 HIT:    9667210 MISS:        218 MSHR_MERGE:        192
cpu0->cpu0_DTLB RFO          ACCESS:          0 HIT:          0 MISS:          0 MSHR_MERGE:          0
cpu0->cpu0_DTLB PREFETCH     ACCESS:          0 HIT:          0 MISS:          0 MSHR_MERGE:          0
cpu0->cpu0_DTLB WRITE        ACCESS:          0 HIT:          0 MISS:          0 MSHR_MERGE:          0
cpu0->cpu0_DTLB TRANSLATION  ACCESS:          0 HIT:          0 MISS:          0 MSHR_MERGE:          0
cpu0->cpu0_DTLB PREFETCH REQUESTED:          0 ISSUED:          0 USEFUL:          0 USELESS:          0 LATE:          0
cpu0->cpu0_DTLB AVERAGE MISS LATENCY: 241.3 cycles
cpu0->LLC TOTAL        ACCESS:       3082 HIT:       1120 MISS:       1962 MSHR_MERGE:          0
cpu0->LLC LOAD         ACCESS:        140 HIT:          0 MISS:        140 MSHR_MERGE:          0
cpu0->LLC RFO          ACCESS:       1403 HIT:          0 MISS:       1403 MSHR_MERGE:          0
cpu0->LLC PREFETCH     ACCESS:          0 HIT:          0 MISS:          0 MSHR_MERGE:          0
cpu0->LLC WRITE        ACCESS:       1535 HIT:       1120 MISS:        415 MSHR_MERGE:          0
cpu0->LLC TRANSLATION  ACCESS:          4 HIT:          0 MISS:          4 MSHR_MERGE:          0
cpu0->LLC PREFETCH REQUESTED:          0 ISSUED:          0 USEFUL:          0 USELESS:          0 LATE:          0
cpu0->LLC AVERAGE MISS LATENCY: 182.2 cycles

DRAM Statistics

Channel 0 RQ ROW_BUFFER_HIT:         12
  ROW_BUFFER_MISS:       1535
  AVG DBUS CONGESTED CYCLE: 5.845
Channel 0 WQ ROW_BUFFER_HIT:        272
  ROW_BUFFER_MISS:       1024
  FULL:          0
Channel 0 REFRESHES ISSUED:       1236

[ROI Statistics]
[System Configuration]
num_cpus 1
cpu_freq 4000
fetch_width 6
decode_width 6
dispatch_width 6
execute_width 6
lq_width 2
sq_width 2
retire_width 6
scheduler_size 128
branch_mispredict_penalty 15
rob_size 352
lq_size 128
sq_size 72
ifetch_buffer_size 64
decode_buffer_size 32
dispatch_buffer_size 32
register_file_size 288
decode_latency 1
dispatch_latency 1
schedule_latency 1
execute_latency 1
page_size 4096
block_size 64
core_0_itlb_set 16
core_0_itlb_way 4
core_0_itlb_rq_size 16
core_0_itlb_wq_size 16
core_0_itlb_pq_size 0
core_0_itlb_mshr_size 8
core_0_itlb_hit_latency 1
core_0_itlb_fill_latency 1
core_0_itlb_max_tag_check 2
core_0_itlb_max_fill 2
core_0_dtlb_set 16
core_0_dtlb_way 4
core_0_dtlb_rq_size 16
core_0_dtlb_wq_size 16
core_0_dtlb_pq_size 0
core_0_dtlb_mshr_size 8
core_0_dtlb_hit_latency 1
core_0_dtlb_fill_latency 1
core_0_dtlb_max_tag_check 2
core_0_dtlb_max_fill 2
core_0_stlb_set 128
core_0_stlb_way 12
core_0_stlb_rq_size 32
core_0_stlb_wq_size 32
core_0_stlb_pq_size 0
core_0_stlb_mshr_size 16
core_0_stlb_hit_latency 4
core_0_stlb_fill_latency 4
core_0_stlb_max_tag_check 1
core_0_stlb_max_fill 1
core_0_l1i_set 64
core_0_l1i_way 8
core_0_l1i_rq_size 64
core_0_l1i_wq_size 64
core_0_l1i_pq_size 32
core_0_l1i_mshr_size 8
core_0_l1i_hit_latency 2
core_0_l1i_fill_latency 2
core_0_l1i_max_tag_check 2
core_0_l1i_max_fill 2
core_0_l1d_set 64
core_0_l1d_way 12
core_0_l1d_rq_size 64
core_0_l1d_wq_size 64
core_0_l1d_pq_size 8
core_0_l1d_mshr_size 16
core_0_l1d_hit_latency 2
core_0_l1d_fill_latency 3
core_0_l1d_max_tag_check 2
core_0_l1d_max_fill 2
core_0_l2c_set 1024
core_0_l2c_way 8
core_0_l2c_rq_size 32
core_0_l2c_wq_size 32
core_0_l2c_pq_size 16
core_0_l2c_mshr_size 32
core_0_l2c_hit_latency 5
core_0_l2c_fill_latency 5
core_0_l2c_max_tag_check 1
core_0_l2c_max_fill 1
llc_set 2048
llc_way 16
llc_rq_size 32
llc_wq_size 32
llc_pq_size 32
llc_mshr_size 64
llc_hit_latency 10
llc_fill_latency 10
llc_max_tag_check 1
llc_max_fill 1
dram_channels 1
dram_ranks 1
dram_bankgroups 8
dram_banks 4
dram_rows 65536
dram_columns 1024
dram_channel_width 8
dram_rq_size 64
dram_wq_size 64
dram_size 17179869184
core_0_itlb_prefetcher no
core_0_dtlb_prefetcher no
core_0_stlb_prefetcher no
core_0_l1i_prefetcher no
core_0_l1d_prefetcher no
core_0_l2c_prefetcher no
llc_prefetcher no
llc_replacement drrip

Core_0_instructions 50000001
Core_0_cycles 14825267
Core_0_IPC 3.37262
Core_0_branch_prediction_accuracy 99.4499
Core_0_branch_MPKI 0.79836
Core_0_average_ROB_occupancy_at_mispredict 141.824

Core_0_ITLB_total_access 1226845
Core_0_ITLB_total_hit 1226845
Core_0_ITLB_total_miss 0
Core_0_ITLB_total_MPKI 0
Core_0_ITLB_total_miss_rate 0
Core_0_ITLB_demand_access 1226845
Core_0_ITLB_demand_hit 1226845
Core_0_ITLB_demand_miss 0
Core_0_ITLB_demand_MPKI 0
Core_0_ITLB_demand_miss_rate 0
Core_0_ITLB_load_access 1226845
Core_0_ITLB_load_hit 1226845
Core_0_ITLB_load_miss 0
Core_0_ITLB_load_MPKI 0
Core_0_ITLB_load_miss_rate 0
Core_0_ITLB_rfo_access 0
Core_0_ITLB_rfo_hit 0
Core_0_ITLB_rfo_miss 0
Core_0_ITLB_rfo_MPKI 0
Core_0_ITLB_rfo_miss_rate 0
Core_0_ITLB_prefetch_access 0
Core_0_ITLB_prefetch_hit 0
Core_0_ITLB_prefetch_miss 0
Core_0_ITLB_prefetch_MPKI 0
Core_0_ITLB_prefetch_miss_rate 0
Core_0_ITLB_writeback_access 0
Core_0_ITLB_writeback_hit 0
Core_0_ITLB_writeback_miss 0
Core_0_ITLB_writeback_MPKI 0
Core_0_ITLB_writeback_miss_rate 0
Core_0_ITLB_prefetch_requested 0
Core_0_ITLB_prefetch_issued 0
Core_0_ITLB_prefetch_useful 0
Core_0_ITLB_prefetch_useless 0
Core_0_ITLB_prefetch_late 0
Core_0_ITLB_prefetch_accuracy 0
Core_0_ITLB_prefetch_coverage 0

Core_0_DTLB_total_access 9667428
Core_0_DTLB_total_hit 9667210
Core_0_DTLB_total_miss 218
Core_0_DTLB_total_MPKI 0.00436
Core_0_DTLB_total_miss_rate 2.25499e-05
Core_0_DTLB_demand_access 9667428
Core_0_DTLB_demand_hit 9667210
Core_0_DTLB_demand_miss 218
Core_0_DTLB_demand_MPKI 0.00436
Core_0_DTLB_demand_miss_rate 2.25499e-05
Core_0_DTLB_load_access 9667428
Core_0_DTLB_load_hit 9667210
Core_0_DTLB_load_miss 218
Core_0_DTLB_load_MPKI 0.00436
Core_0_DTLB_load_miss_rate 2.25499e-05
Core_0_DTLB_rfo_access 0
Core_0_DTLB_rfo_hit 0
Core_0_DTLB_rfo_miss 0
Core_0_DTLB_rfo_MPKI 0
Core_0_DTLB_rfo_miss_rate 0
Core_0_DTLB_prefetch_access 0
Core_0_DTLB_prefetch_hit 0
Core_0_DTLB_prefetch_miss 0
Core_0_DTLB_prefetch_MPKI 0
Core_0_DTLB_prefetch_miss_rate 0
Core_0_DTLB_writeback_access 0
Core_0_DTLB_writeback_hit 0
Core_0_DTLB_writeback_miss 0
Core_0_DTLB_writeback_MPKI 0
Core_0_DTLB_writeback_miss_rate 0
Core_0_DTLB_prefetch_requested 0
Core_0_DTLB_prefetch_issued 0
Core_0_DTLB_prefetch_useful 0
Core_0_DTLB_prefetch_useless 0
Core_0_DTLB_prefetch_late 0
Core_0_DTLB_prefetch_accuracy 0
Core_0_DTLB_prefetch_coverage 0

Core_0_STLB_total_access 26
Core_0_STLB_total_hit 2
Core_0_STLB_total_miss 24
Core_0_STLB_total_MPKI 0.00048
Core_0_STLB_total_miss_rate 0.923077
Core_0_STLB_demand_access 26
Core_0_STLB_demand_hit 2
Core_0_STLB_demand_miss 24
Core_0_STLB_demand_MPKI 0.00048
Core_0_STLB_demand_miss_rate 0.923077
Core_0_STLB_load_access 26
Core_0_STLB_load_hit 2
Core_0_STLB_load_miss 24
Core_0_STLB_load_MPKI 0.00048
Core_0_STLB_load_miss_rate 0.923077
Core_0_STLB_rfo_access 0
Core_0_STLB_rfo_hit 0
Core_0_STLB_rfo_miss 0
Core_0_STLB_rfo_MPKI 0
Core_0_STLB_rfo_miss_rate 0
Core_0_STLB_prefetch_access 0
Core_0_STLB_prefetch_hit 0
Core_0_STLB_prefetch_miss 0
Core_0_STLB_prefetch_MPKI 0
Core_0_STLB_prefetch_miss_rate 0
Core_0_STLB_writeback_access 0
Core_0_STLB_writeback_hit 0
Core_0_STLB_writeback_miss 0
Core_0_STLB_writeback_MPKI 0
Core_0_STLB_writeback_miss_rate 0
Core_0_STLB_prefetch_requested 0
Core_0_STLB_prefetch_issued 0
Core_0_STLB_prefetch_useful 0
Core_0_STLB_prefetch_useless 0
Core_0_STLB_prefetch_late 0
Core_0_STLB_prefetch_accuracy 0
Core_0_STLB_prefetch_coverage 0

Core_0_L1I_total_access 1750354
Core_0_L1I_total_hit 1750354
Core_0_L1I_total_miss 0
Core_0_L1I_total_MPKI 0
Core_0_L1I_total_miss_rate 0
Core_0_L1I_demand_access 1750354
Core_0_L1I_demand_hit 1750354
Core_0_L1I_demand_miss 0
Core_0_L1I_demand_MPKI 0
Core_0_L1I_demand_miss_rate 0
Core_0_L1I_load_access 1750354
Core_0_L1I_load_hit 1750354
Core_0_L1I_load_miss 0
Core_0_L1I_load_MPKI 0
Core_0_L1I_load_miss_rate 0
Core_0_L1I_rfo_access 0
Core_0_L1I_rfo_hit 0
Core_0_L1I_rfo_miss 0
Core_0_L1I_rfo_MPKI 0
Core_0_L1I_rfo_miss_rate 0
Core_0_L1I_prefetch_access 0
Core_0_L1I_prefetch_hit 0
Core_0_L1I_prefetch_miss 0
Core_0_L1I_prefetch_MPKI 0
Core_0_L1I_prefetch_miss_rate 0
Core_0_L1I_writeback_access 0
Core_0_L1I_writeback_hit 0
Core_0_L1I_writeback_miss 0
Core_0_L1I_writeback_MPKI 0
Core_0_L1I_writeback_miss_rate 0
Core_0_L1I_prefetch_requested 0
Core_0_L1I_prefetch_issued 0
Core_0_L1I_prefetch_useful 0
Core_0_L1I_prefetch_useless 0
Core_0_L1I_prefetch_late 0
Core_0_L1I_prefetch_accuracy 0
Core_0_L1I_prefetch_coverage 0

Core_0_L1D_total_access 10299874
Core_0_L1D_total_hit 10289446
Core_0_L1D_total_miss 10428
Core_0_L1D_total_MPKI 0.20856
Core_0_L1D_total_miss_rate 0.00101244
Core_0_L1D_demand_access 8546946
Core_0_L1D_demand_hit 8546662
Core_0_L1D_demand_miss 284
Core_0_L1D_demand_MPKI 0.00568
Core_0_L1D_demand_miss_rate 3.32282e-05
Core_0_L1D_load_access 8546946
Core_0_L1D_load_hit 8546662
Core_0_L1D_load_miss 284
Core_0_L1D_load_MPKI 0.00568
Core_0_L1D_load_miss_rate 3.32282e-05
Core_0_L1D_rfo_access 0
Core_0_L1D_rfo_hit 0
Core_0_L1D_rfo_miss 0
Core_0_L1D_rfo_MPKI 0
Core_0_L1D_rfo_miss_rate 0
Core_0_L1D_prefetch_access 0
Core_0_L1D_prefetch_hit 0
Core_0_L1D_prefetch_miss 0
Core_0_L1D_prefetch_MPKI 0
Core_0_L1D_prefetch_miss_rate 0
Core_0_L1D_writeback_access 1752928
Core_0_L1D_writeback_hit 1742784
Core_0_L1D_writeback_miss 10144
Core_0_L1D_writeback_MPKI 0.20288
Core_0_L1D_writeback_miss_rate 0.00578689
Core_0_L1D_prefetch_requested 0
Core_0_L1D_prefetch_issued 0
Core_0_L1D_prefetch_useful 0
Core_0_L1D_prefetch_useless 0
Core_0_L1D_prefetch_late 0
Core_0_L1D_prefetch_accuracy 0
Core_0_L1D_prefetch_coverage 0

Core_0_L2C_total_access 3178
Core_0_L2C_total_hit 1635
Core_0_L2C_total_miss 1543
Core_0_L2C_total_MPKI 0.03086
Core_0_L2C_total_miss_rate 0.485525
Core_0_L2C_demand_access 1679
Core_0_L2C_demand_hit 136
Core_0_L2C_demand_miss 1543
Core_0_L2C_demand_MPKI 0.03086
Core_0_L2C_demand_miss_rate 0.918999
Core_0_L2C_load_access 184
Core_0_L2C_load_hit 44
Core_0_L2C_load_miss 140
Core_0_L2C_load_MPKI 0.0028
Core_0_L2C_load_miss_rate 0.76087
Core_0_L2C_rfo_access 1495
Core_0_L2C_rfo_hit 92
Core_0_L2C_rfo_miss 1403
Core_0_L2C_rfo_MPKI 0.02806
Core_0_L2C_rfo_miss_rate 0.938462
Core_0_L2C_prefetch_access 0
Core_0_L2C_prefetch_hit 0
Core_0_L2C_prefetch_miss 0
Core_0_L2C_prefetch_MPKI 0
Core_0_L2C_prefetch_miss_rate 0
Core_0_L2C_writeback_access 1499
Core_0_L2C_writeback_hit 1499
Core_0_L2C_writeback_miss 0
Core_0_L2C_writeback_MPKI 0
Core_0_L2C_writeback_miss_rate 0
Core_0_L2C_prefetch_requested 0
Core_0_L2C_prefetch_issued 0
Core_0_L2C_prefetch_useful 0
Core_0_L2C_prefetch_useless 0
Core_0_L2C_prefetch_late 0
Core_0_L2C_prefetch_accuracy 0
Core_0_L2C_prefetch_coverage 0

Core_0_LLC_total_access 3078
Core_0_LLC_total_hit 1120
Core_0_LLC_total_miss 1958
Core_0_LLC_total_MPKI 0.03916
Core_0_LLC_total_miss_rate 0.636127
Core_0_LLC_demand_access 1543
Core_0_LLC_demand_hit 0
Core_0_LLC_demand_miss 1543
Core_0_LLC_demand_MPKI 0.03086
Core_0_LLC_demand_miss_rate 1
Core_0_LLC_load_access 140
Core_0_LLC_load_hit 0
Core_0_LLC_load_miss 140
Core_0_LLC_load_MPKI 0.0028
Core_0_LLC_load_miss_rate 1
Core_0_LLC_rfo_access 1403
Core_0_LLC_rfo_hit 0
Core_0_LLC_rfo_miss 1403
Core_0_LLC_rfo_MPKI 0.02806
Core_0_LLC_rfo_miss_rate 1
Core_0_LLC_prefetch_access 0
Core_0_LLC_prefetch_hit 0
Core_0_LLC_prefetch_miss 0
Core_0_LLC_prefetch_MPKI 0
Core_0_LLC_prefetch_miss_rate 0
Core_0_LLC_writeback_access 1535
Core_0_LLC_writeback_hit 1120
Core_0_LLC_writeback_miss 415
Core_0_LLC_writeback_MPKI 0.0083
Core_0_LLC_writeback_miss_rate 0.270358
Core_0_LLC_prefetch_requested 0
Core_0_LLC_prefetch_issued 0
Core_0_LLC_prefetch_useful 0
Core_0_LLC_prefetch_useless 0
Core_0_LLC_prefetch_late 0
Core_0_LLC_prefetch_accuracy 0
Core_0_LLC_prefetch_coverage 0

[DRAM Statistics]
Channel_0_RQ_row_buffer_hit 12
Channel_0_RQ_row_buffer_miss 1535
Channel_0_WQ_row_buffer_hit 272
Channel_0_WQ_row_buffer_miss 1024
Channel_0_WQ_full 0
Channel_0_dbus_congested 7394
DRAM_total_RQ_row_buffer_hit 12
DRAM_total_RQ_row_buffer_miss 1535
DRAM_total_WQ_row_buffer_hit 272
DRAM_total_WQ_row_buffer_miss 1024
DRAM_total_WQ_full 0
DRAM_total_dbus_congested 7394
DRAM_avg_congested_cycle 5.84514

======STLB miss causes ========
Core_0_STLB_miss_cause_breakdown
Core_0_STLB_cause_Demand_Data_miss 24
Core_0_STLB_cause_Demand_Data_miss_rate 0.923077
Core_0_STLB_cause_Demand_Instruction_miss 0
Core_0_STLB_cause_Demand_Instruction_miss_rate 0
Core_0_STLB_cause_L1D_Prefetch_miss 0
Core_0_STLB_cause_L1D_Prefetch_miss_rate 0
Core_0_STLB_cause_L1I_Prefetch_miss 0
Core_0_STLB_cause_L1I_Prefetch_miss_rate 0
Core_0_STLB_cause_Other_miss 0
Core_0_STLB_cause_Other_miss_rate 0
Core_0_STLB_Demand_miss 24
Core_0_STLB_Demand_miss_rate 0.923077
Core_0_STLB_L1D_Prefetch_miss 0
Core_0_STLB_L1D_Prefetch_miss_rate 0
Core_0_STLB_Other_miss 0
Core_0_STLB_Other_miss_rate 0
