[VMEM] WARNING: physical memory size is smaller than virtual memory size.

*** ChampSim Multicore Out-of-Order Simulator ***
Warmup Instructions: 20000000
Simulation Instructions: 50000000
Number of CPUs: 1
Page size: 4096
STLB ideal mode: off
Core 0: /data0/tzh/champsim_traces/SPEC17/649.fotonik3d_s-1176B.champsimtrace.xz
Off-chip DRAM Size: 16 GiB Channels: 1 Width: 64-bit Data Rate: 3205 MT/s
Warmup halting CPU 0 at instruction 20000003 cycle 4414293 for remainder of phase
Warmup finished CPU 0 instructions: 20000003 cycles: 4414293 cumulative IPC: 4.531 (Simulation time: 00 hr 00 min 49 sec)
Warmup complete CPU 0 instructions: 20000003 cycles: 4414293 cumulative IPC: 4.531 (Simulation time: 00 hr 00 min 49 sec)
Simulation finished CPU 0 instructions: 50000000 cycles: 71038436 cumulative IPC: 0.7038 (Simulation time: 00 hr 10 min 12 sec)
Simulation complete CPU 0 instructions: 50000000 cycles: 71038436 cumulative IPC: 0.7038 (Simulation time: 00 hr 10 min 12 sec)

ChampSim completed all CPUs

=== Simulation ===
CPU 0 runs /data0/tzh/champsim_traces/SPEC17/649.fotonik3d_s-1176B.champsimtrace.xz

Region of Interest Statistics

CPU 0 cumulative IPC: 0.7038 instructions: 50000000 cycles: 71038436
CPU 0 Branch Prediction Accuracy: 99.98% MPKI: 0.00438 Average ROB Occupancy at Mispredict: 351.2
Branch type MPKI
BRANCH_DIRECT_JUMP: 0
BRANCH_INDIRECT: 0
BRANCH_CONDITIONAL: 0.00438
BRANCH_DIRECT_CALL: 0
BRANCH_INDIRECT_CALL: 0
BRANCH_RETURN: 0

cpu0->cpu0_STLB TOTAL        ACCESS:      11753 HIT:       4891 MISS:       6862 MSHR_MERGE:          0
cpu0->cpu0_STLB LOAD         ACCESS:      11753 HIT:       4891 MISS:       6862 MSHR_MERGE:          0
cpu0->cpu0_STLB RFO          ACCESS:          0 HIT:          0 MISS:          0 MSHR_MERGE:          0
cpu0->cpu0_STLB PREFETCH     ACCESS:          0 HIT:          0 MISS:          0 MSHR_MERGE:          0
cpu0->cpu0_STLB WRITE        ACCESS:          0 HIT:          0 MISS:          0 MSHR_MERGE:          0
cpu0->cpu0_STLB TRANSLATION  ACCESS:          0 HIT:          0 MISS:          0 MSHR_MERGE:          0
cpu0->cpu0_STLB PREFETCH REQUESTED:          0 ISSUED:          0 USEFUL:          0 USELESS:          0 LATE:          0
cpu0->cpu0_STLB AVERAGE MISS LATENCY: 248.5 cycles
cpu0->cpu0_L2C TOTAL        ACCESS:    1102002 HIT:     583052 MISS:     518950 MSHR_MERGE:          0
cpu0->cpu0_L2C LOAD         ACCESS:     660914 HIT:     143038 MISS:     517876 MSHR_MERGE:          0
cpu0->cpu0_L2C RFO          ACCESS:        763 HIT:        577 MISS:        186 MSHR_MERGE:          0
cpu0->cpu0_L2C PREFETCH     ACCESS:          0 HIT:          0 MISS:          0 MSHR_MERGE:          0
cpu0->cpu0_L2C WRITE        ACCESS:     439247 HIT:     439247 MISS:          0 MSHR_MERGE:          0
cpu0->cpu0_L2C TRANSLATION  ACCESS:       1078 HIT:        190 MISS:        888 MSHR_MERGE:          0
cpu0->cpu0_L2C PREFETCH REQUESTED:          0 ISSUED:          0 USEFUL:          0 USELESS:          0 LATE:          0
cpu0->cpu0_L2C AVERAGE MISS LATENCY: 227.6 cycles
cpu0->cpu0_L1I TOTAL        ACCESS:    7734300 HIT:    7734300 MISS:          0 MSHR_MERGE:          0
cpu0->cpu0_L1I LOAD         ACCESS:    7734300 HIT:    7734300 MISS:          0 MSHR_MERGE:          0
cpu0->cpu0_L1I RFO          ACCESS:          0 HIT:          0 MISS:          0 MSHR_MERGE:          0
cpu0->cpu0_L1I PREFETCH     ACCESS:          0 HIT:          0 MISS:          0 MSHR_MERGE:          0
cpu0->cpu0_L1I WRITE        ACCESS:          0 HIT:          0 MISS:          0 MSHR_MERGE:          0
cpu0->cpu0_L1I TRANSLATION  ACCESS:          0 HIT:          0 MISS:          0 MSHR_MERGE:          0
cpu0->cpu0_L1I PREFETCH REQUESTED:          0 ISSUED:          0 USEFUL:          0 USELESS:          0 LATE:          0
cpu0->cpu0_L1I AVERAGE MISS LATENCY: - cycles
cpu0->cpu0_L1D TOTAL        ACCESS:   13373993 HIT:   10582095 MISS:    2791898 MSHR_MERGE:    2129143
cpu0->cpu0_L1D LOAD         ACCESS:    9849982 HIT:    7061603 MISS:    2788379 MSHR_MERGE:    2127465
cpu0->cpu0_L1D RFO          ACCESS:          0 HIT:          0 MISS:          0 MSHR_MERGE:          0
cpu0->cpu0_L1D PREFETCH     ACCESS:          0 HIT:          0 MISS:          0 MSHR_MERGE:          0
cpu0->cpu0_L1D WRITE        ACCESS:    3510266 HIT:    3507825 MISS:       2441 MSHR_MERGE:       1678
cpu0->cpu0_L1D TRANSLATION  ACCESS:      13745 HIT:      12667 MISS:       1078 MSHR_MERGE:          0
cpu0->cpu0_L1D PREFETCH REQUESTED:          0 ISSUED:          0 USEFUL:          0 USELESS:          0 LATE:          0
cpu0->cpu0_L1D AVERAGE MISS LATENCY: 187 cycles
cpu0->cpu0_ITLB TOTAL        ACCESS:    6543232 HIT:    6543232 MISS:          0 MSHR_MERGE:          0
cpu0->cpu0_ITLB LOAD         ACCESS:    6543232 HIT:    6543232 MISS:          0 MSHR_MERGE:          0
cpu0->cpu0_ITLB RFO          ACCESS:          0 HIT:          0 MISS:          0 MSHR_MERGE:          0
cpu0->cpu0_ITLB PREFETCH     ACCESS:          0 HIT:          0 MISS:          0 MSHR_MERGE:          0
cpu0->cpu0_ITLB WRITE        ACCESS:          0 HIT:          0 MISS:          0 MSHR_MERGE:          0
cpu0->cpu0_ITLB TRANSLATION  ACCESS:          0 HIT:          0 MISS:          0 MSHR_MERGE:          0
cpu0->cpu0_ITLB PREFETCH REQUESTED:          0 ISSUED:          0 USEFUL:          0 USELESS:          0 LATE:          0
cpu0->cpu0_ITLB AVERAGE MISS LATENCY: - cycles
cpu0->cpu0_DTLB TOTAL        ACCESS:   12312031 HIT:   12241431 MISS:      70600 MSHR_MERGE:      58847
cpu0->cpu0_DTLB LOAD         ACCESS:   12312031 HIT:   12241431 MISS:      70600 MSHR_MERGE:      58847
cpu0->cpu0_DTLB RFO          ACCESS:          0 HIT:          0 MISS:          0 MSHR_MERGE:          0
cpu0->cpu0_DTLB PREFETCH     ACCESS:          0 HIT:          0 MISS:          0 MSHR_MERGE:          0
cpu0->cpu0_DTLB WRITE        ACCESS:          0 HIT:          0 MISS:          0 MSHR_MERGE:          0
cpu0->cpu0_DTLB TRANSLATION  ACCESS:          0 HIT:          0 MISS:          0 MSHR_MERGE:          0
cpu0->cpu0_DTLB PREFETCH REQUESTED:          0 ISSUED:          0 USEFUL:          0 USELESS:          0 LATE:          0
cpu0->cpu0_DTLB AVERAGE MISS LATENCY: 150.7 cycles
cpu0->LLC TOTAL        ACCESS:     957537 HIT:     461593 MISS:     495944 MSHR_MERGE:          0
cpu0->LLC LOAD         ACCESS:     517876 HIT:      75843 MISS:     442033 MSHR_MERGE:          0
cpu0->LLC RFO          ACCESS:        186 HIT:        186 MISS:          0 MSHR_MERGE:          0
cpu0->LLC PREFETCH     ACCESS:          0 HIT:          0 MISS:          0 MSHR_MERGE:          0
cpu0->LLC WRITE        ACCESS:     438587 HIT:     385563 MISS:      53024 MSHR_MERGE:          0
cpu0->LLC TRANSLATION  ACCESS:        888 HIT:          1 MISS:        887 MSHR_MERGE:          0
cpu0->LLC PREFETCH REQUESTED:          0 ISSUED:          0 USEFUL:          0 USELESS:          0 LATE:          0
cpu0->LLC AVERAGE MISS LATENCY: 222.5 cycles

DRAM Statistics

Channel 0 RQ ROW_BUFFER_HIT:       5701
  ROW_BUFFER_MISS:     437218
  AVG DBUS CONGESTED CYCLE: 8.283
Channel 0 WQ ROW_BUFFER_HIT:     181303
  ROW_BUFFER_MISS:     256909
  FULL:          0
Channel 0 REFRESHES ISSUED:       5920

[ROI Statistics]
[System Configuration]
num_cpus 1
cpu_freq 4000
fetch_width 6
decode_width 6
dispatch_width 6
execute_width 6
lq_width 2
sq_width 2
retire_width 6
scheduler_size 128
branch_mispredict_penalty 15
rob_size 352
lq_size 128
sq_size 72
ifetch_buffer_size 64
decode_buffer_size 32
dispatch_buffer_size 32
register_file_size 288
decode_latency 1
dispatch_latency 1
schedule_latency 1
execute_latency 1
page_size 4096
block_size 64
core_0_itlb_set 16
core_0_itlb_way 4
core_0_itlb_rq_size 16
core_0_itlb_wq_size 16
core_0_itlb_pq_size 0
core_0_itlb_mshr_size 8
core_0_itlb_hit_latency 1
core_0_itlb_fill_latency 1
core_0_itlb_max_tag_check 2
core_0_itlb_max_fill 2
core_0_dtlb_set 16
core_0_dtlb_way 4
core_0_dtlb_rq_size 16
core_0_dtlb_wq_size 16
core_0_dtlb_pq_size 0
core_0_dtlb_mshr_size 8
core_0_dtlb_hit_latency 1
core_0_dtlb_fill_latency 1
core_0_dtlb_max_tag_check 2
core_0_dtlb_max_fill 2
core_0_stlb_set 128
core_0_stlb_way 12
core_0_stlb_rq_size 32
core_0_stlb_wq_size 32
core_0_stlb_pq_size 0
core_0_stlb_mshr_size 16
core_0_stlb_hit_latency 4
core_0_stlb_fill_latency 4
core_0_stlb_max_tag_check 1
core_0_stlb_max_fill 1
core_0_l1i_set 64
core_0_l1i_way 8
core_0_l1i_rq_size 64
core_0_l1i_wq_size 64
core_0_l1i_pq_size 32
core_0_l1i_mshr_size 8
core_0_l1i_hit_latency 2
core_0_l1i_fill_latency 2
core_0_l1i_max_tag_check 2
core_0_l1i_max_fill 2
core_0_l1d_set 64
core_0_l1d_way 12
core_0_l1d_rq_size 64
core_0_l1d_wq_size 64
core_0_l1d_pq_size 8
core_0_l1d_mshr_size 16
core_0_l1d_hit_latency 2
core_0_l1d_fill_latency 3
core_0_l1d_max_tag_check 2
core_0_l1d_max_fill 2
core_0_l2c_set 1024
core_0_l2c_way 8
core_0_l2c_rq_size 32
core_0_l2c_wq_size 32
core_0_l2c_pq_size 16
core_0_l2c_mshr_size 32
core_0_l2c_hit_latency 5
core_0_l2c_fill_latency 5
core_0_l2c_max_tag_check 1
core_0_l2c_max_fill 1
llc_set 2048
llc_way 16
llc_rq_size 32
llc_wq_size 32
llc_pq_size 32
llc_mshr_size 64
llc_hit_latency 10
llc_fill_latency 10
llc_max_tag_check 1
llc_max_fill 1
dram_channels 1
dram_ranks 1
dram_bankgroups 8
dram_banks 4
dram_rows 65536
dram_columns 1024
dram_channel_width 8
dram_rq_size 64
dram_wq_size 64
dram_size 17179869184
core_0_itlb_prefetcher no
core_0_dtlb_prefetcher no
core_0_stlb_prefetcher no
core_0_l1i_prefetcher no
core_0_l1d_prefetcher no
core_0_l2c_prefetcher no
llc_prefetcher no
llc_replacement drrip

Core_0_instructions 50000000
Core_0_cycles 71038436
Core_0_IPC 0.703844
Core_0_branch_prediction_accuracy 99.9751
Core_0_branch_MPKI 0.00438
Core_0_average_ROB_occupancy_at_mispredict 351.16

Core_0_ITLB_total_access 6543232
Core_0_ITLB_total_hit 6543232
Core_0_ITLB_total_miss 0
Core_0_ITLB_total_MPKI 0
Core_0_ITLB_total_miss_rate 0
Core_0_ITLB_demand_access 6543232
Core_0_ITLB_demand_hit 6543232
Core_0_ITLB_demand_miss 0
Core_0_ITLB_demand_MPKI 0
Core_0_ITLB_demand_miss_rate 0
Core_0_ITLB_load_access 6543232
Core_0_ITLB_load_hit 6543232
Core_0_ITLB_load_miss 0
Core_0_ITLB_load_MPKI 0
Core_0_ITLB_load_miss_rate 0
Core_0_ITLB_rfo_access 0
Core_0_ITLB_rfo_hit 0
Core_0_ITLB_rfo_miss 0
Core_0_ITLB_rfo_MPKI 0
Core_0_ITLB_rfo_miss_rate 0
Core_0_ITLB_prefetch_access 0
Core_0_ITLB_prefetch_hit 0
Core_0_ITLB_prefetch_miss 0
Core_0_ITLB_prefetch_MPKI 0
Core_0_ITLB_prefetch_miss_rate 0
Core_0_ITLB_writeback_access 0
Core_0_ITLB_writeback_hit 0
Core_0_ITLB_writeback_miss 0
Core_0_ITLB_writeback_MPKI 0
Core_0_ITLB_writeback_miss_rate 0
Core_0_ITLB_prefetch_requested 0
Core_0_ITLB_prefetch_issued 0
Core_0_ITLB_prefetch_useful 0
Core_0_ITLB_prefetch_useless 0
Core_0_ITLB_prefetch_late 0
Core_0_ITLB_prefetch_accuracy 0
Core_0_ITLB_prefetch_coverage 0

Core_0_DTLB_total_access 12312031
Core_0_DTLB_total_hit 12241431
Core_0_DTLB_total_miss 70600
Core_0_DTLB_total_MPKI 1.412
Core_0_DTLB_total_miss_rate 0.00573423
Core_0_DTLB_demand_access 12312031
Core_0_DTLB_demand_hit 12241431
Core_0_DTLB_demand_miss 70600
Core_0_DTLB_demand_MPKI 1.412
Core_0_DTLB_demand_miss_rate 0.00573423
Core_0_DTLB_load_access 12312031
Core_0_DTLB_load_hit 12241431
Core_0_DTLB_load_miss 70600
Core_0_DTLB_load_MPKI 1.412
Core_0_DTLB_load_miss_rate 0.00573423
Core_0_DTLB_rfo_access 0
Core_0_DTLB_rfo_hit 0
Core_0_DTLB_rfo_miss 0
Core_0_DTLB_rfo_MPKI 0
Core_0_DTLB_rfo_miss_rate 0
Core_0_DTLB_prefetch_access 0
Core_0_DTLB_prefetch_hit 0
Core_0_DTLB_prefetch_miss 0
Core_0_DTLB_prefetch_MPKI 0
Core_0_DTLB_prefetch_miss_rate 0
Core_0_DTLB_writeback_access 0
Core_0_DTLB_writeback_hit 0
Core_0_DTLB_writeback_miss 0
Core_0_DTLB_writeback_MPKI 0
Core_0_DTLB_writeback_miss_rate 0
Core_0_DTLB_prefetch_requested 0
Core_0_DTLB_prefetch_issued 0
Core_0_DTLB_prefetch_useful 0
Core_0_DTLB_prefetch_useless 0
Core_0_DTLB_prefetch_late 0
Core_0_DTLB_prefetch_accuracy 0
Core_0_DTLB_prefetch_coverage 0

Core_0_STLB_total_access 11753
Core_0_STLB_total_hit 4891
Core_0_STLB_total_miss 6862
Core_0_STLB_total_MPKI 0.13724
Core_0_STLB_total_miss_rate 0.583851
Core_0_STLB_demand_access 11753
Core_0_STLB_demand_hit 4891
Core_0_STLB_demand_miss 6862
Core_0_STLB_demand_MPKI 0.13724
Core_0_STLB_demand_miss_rate 0.583851
Core_0_STLB_load_access 11753
Core_0_STLB_load_hit 4891
Core_0_STLB_load_miss 6862
Core_0_STLB_load_MPKI 0.13724
Core_0_STLB_load_miss_rate 0.583851
Core_0_STLB_rfo_access 0
Core_0_STLB_rfo_hit 0
Core_0_STLB_rfo_miss 0
Core_0_STLB_rfo_MPKI 0
Core_0_STLB_rfo_miss_rate 0
Core_0_STLB_prefetch_access 0
Core_0_STLB_prefetch_hit 0
Core_0_STLB_prefetch_miss 0
Core_0_STLB_prefetch_MPKI 0
Core_0_STLB_prefetch_miss_rate 0
Core_0_STLB_writeback_access 0
Core_0_STLB_writeback_hit 0
Core_0_STLB_writeback_miss 0
Core_0_STLB_writeback_MPKI 0
Core_0_STLB_writeback_miss_rate 0
Core_0_STLB_prefetch_requested 0
Core_0_STLB_prefetch_issued 0
Core_0_STLB_prefetch_useful 0
Core_0_STLB_prefetch_useless 0
Core_0_STLB_prefetch_late 0
Core_0_STLB_prefetch_accuracy 0
Core_0_STLB_prefetch_coverage 0

Core_0_L1I_total_access 7734300
Core_0_L1I_total_hit 7734300
Core_0_L1I_total_miss 0
Core_0_L1I_total_MPKI 0
Core_0_L1I_total_miss_rate 0
Core_0_L1I_demand_access 7734300
Core_0_L1I_demand_hit 7734300
Core_0_L1I_demand_miss 0
Core_0_L1I_demand_MPKI 0
Core_0_L1I_demand_miss_rate 0
Core_0_L1I_load_access 7734300
Core_0_L1I_load_hit 7734300
Core_0_L1I_load_miss 0
Core_0_L1I_load_MPKI 0
Core_0_L1I_load_miss_rate 0
Core_0_L1I_rfo_access 0
Core_0_L1I_rfo_hit 0
Core_0_L1I_rfo_miss 0
Core_0_L1I_rfo_MPKI 0
Core_0_L1I_rfo_miss_rate 0
Core_0_L1I_prefetch_access 0
Core_0_L1I_prefetch_hit 0
Core_0_L1I_prefetch_miss 0
Core_0_L1I_prefetch_MPKI 0
Core_0_L1I_prefetch_miss_rate 0
Core_0_L1I_writeback_access 0
Core_0_L1I_writeback_hit 0
Core_0_L1I_writeback_miss 0
Core_0_L1I_writeback_MPKI 0
Core_0_L1I_writeback_miss_rate 0
Core_0_L1I_prefetch_requested 0
Core_0_L1I_prefetch_issued 0
Core_0_L1I_prefetch_useful 0
Core_0_L1I_prefetch_useless 0
Core_0_L1I_prefetch_late 0
Core_0_L1I_prefetch_accuracy 0
Core_0_L1I_prefetch_coverage 0

Core_0_L1D_total_access 13360248
Core_0_L1D_total_hit 10569428
Core_0_L1D_total_miss 2790820
Core_0_L1D_total_MPKI 55.8164
Core_0_L1D_total_miss_rate 0.20889
Core_0_L1D_demand_access 9849982
Core_0_L1D_demand_hit 7061603
Core_0_L1D_demand_miss 2788379
Core_0_L1D_demand_MPKI 55.7676
Core_0_L1D_demand_miss_rate 0.283085
Core_0_L1D_load_access 9849982
Core_0_L1D_load_hit 7061603
Core_0_L1D_load_miss 2788379
Core_0_L1D_load_MPKI 55.7676
Core_0_L1D_load_miss_rate 0.283085
Core_0_L1D_rfo_access 0
Core_0_L1D_rfo_hit 0
Core_0_L1D_rfo_miss 0
Core_0_L1D_rfo_MPKI 0
Core_0_L1D_rfo_miss_rate 0
Core_0_L1D_prefetch_access 0
Core_0_L1D_prefetch_hit 0
Core_0_L1D_prefetch_miss 0
Core_0_L1D_prefetch_MPKI 0
Core_0_L1D_prefetch_miss_rate 0
Core_0_L1D_writeback_access 3510266
Core_0_L1D_writeback_hit 3507825
Core_0_L1D_writeback_miss 2441
Core_0_L1D_writeback_MPKI 0.04882
Core_0_L1D_writeback_miss_rate 0.000695389
Core_0_L1D_prefetch_requested 0
Core_0_L1D_prefetch_issued 0
Core_0_L1D_prefetch_useful 0
Core_0_L1D_prefetch_useless 0
Core_0_L1D_prefetch_late 0
Core_0_L1D_prefetch_accuracy 0
Core_0_L1D_prefetch_coverage 0

Core_0_L2C_total_access 1100924
Core_0_L2C_total_hit 582862
Core_0_L2C_total_miss 518062
Core_0_L2C_total_MPKI 10.3612
Core_0_L2C_total_miss_rate 0.47057
Core_0_L2C_demand_access 661677
Core_0_L2C_demand_hit 143615
Core_0_L2C_demand_miss 518062
Core_0_L2C_demand_MPKI 10.3612
Core_0_L2C_demand_miss_rate 0.782953
Core_0_L2C_load_access 660914
Core_0_L2C_load_hit 143038
Core_0_L2C_load_miss 517876
Core_0_L2C_load_MPKI 10.3575
Core_0_L2C_load_miss_rate 0.783575
Core_0_L2C_rfo_access 763
Core_0_L2C_rfo_hit 577
Core_0_L2C_rfo_miss 186
Core_0_L2C_rfo_MPKI 0.00372
Core_0_L2C_rfo_miss_rate 0.243775
Core_0_L2C_prefetch_access 0
Core_0_L2C_prefetch_hit 0
Core_0_L2C_prefetch_miss 0
Core_0_L2C_prefetch_MPKI 0
Core_0_L2C_prefetch_miss_rate 0
Core_0_L2C_writeback_access 439247
Core_0_L2C_writeback_hit 439247
Core_0_L2C_writeback_miss 0
Core_0_L2C_writeback_MPKI 0
Core_0_L2C_writeback_miss_rate 0
Core_0_L2C_prefetch_requested 0
Core_0_L2C_prefetch_issued 0
Core_0_L2C_prefetch_useful 0
Core_0_L2C_prefetch_useless 0
Core_0_L2C_prefetch_late 0
Core_0_L2C_prefetch_accuracy 0
Core_0_L2C_prefetch_coverage 0

Core_0_LLC_total_access 956649
Core_0_LLC_total_hit 461592
Core_0_LLC_total_miss 495057
Core_0_LLC_total_MPKI 9.90114
Core_0_LLC_total_miss_rate 0.517491
Core_0_LLC_demand_access 518062
Core_0_LLC_demand_hit 76029
Core_0_LLC_demand_miss 442033
Core_0_LLC_demand_MPKI 8.84066
Core_0_LLC_demand_miss_rate 0.853243
Core_0_LLC_load_access 517876
Core_0_LLC_load_hit 75843
Core_0_LLC_load_miss 442033
Core_0_LLC_load_MPKI 8.84066
Core_0_LLC_load_miss_rate 0.85355
Core_0_LLC_rfo_access 186
Core_0_LLC_rfo_hit 186
Core_0_LLC_rfo_miss 0
Core_0_LLC_rfo_MPKI 0
Core_0_LLC_rfo_miss_rate 0
Core_0_LLC_prefetch_access 0
Core_0_LLC_prefetch_hit 0
Core_0_LLC_prefetch_miss 0
Core_0_LLC_prefetch_MPKI 0
Core_0_LLC_prefetch_miss_rate 0
Core_0_LLC_writeback_access 438587
Core_0_LLC_writeback_hit 385563
Core_0_LLC_writeback_miss 53024
Core_0_LLC_writeback_MPKI 1.06048
Core_0_LLC_writeback_miss_rate 0.120897
Core_0_LLC_prefetch_requested 0
Core_0_LLC_prefetch_issued 0
Core_0_LLC_prefetch_useful 0
Core_0_LLC_prefetch_useless 0
Core_0_LLC_prefetch_late 0
Core_0_LLC_prefetch_accuracy 0
Core_0_LLC_prefetch_coverage 0

[DRAM Statistics]
Channel_0_RQ_row_buffer_hit 5701
Channel_0_RQ_row_buffer_miss 437218
Channel_0_WQ_row_buffer_hit 181303
Channel_0_WQ_row_buffer_miss 256909
Channel_0_WQ_full 0
Channel_0_dbus_congested 4036612
DRAM_total_RQ_row_buffer_hit 5701
DRAM_total_RQ_row_buffer_miss 437218
DRAM_total_WQ_row_buffer_hit 181303
DRAM_total_WQ_row_buffer_miss 256909
DRAM_total_WQ_full 0
DRAM_total_dbus_congested 4036612
DRAM_avg_congested_cycle 8.28335

======STLB miss causes ========
Core_0_STLB_miss_cause_breakdown
Core_0_STLB_cause_Demand_Data_miss 6862
Core_0_STLB_cause_Demand_Data_miss_rate 0.583851
Core_0_STLB_cause_Demand_Instruction_miss 0
Core_0_STLB_cause_Demand_Instruction_miss_rate 0
Core_0_STLB_cause_L1D_Prefetch_miss 0
Core_0_STLB_cause_L1D_Prefetch_miss_rate 0
Core_0_STLB_cause_L1I_Prefetch_miss 0
Core_0_STLB_cause_L1I_Prefetch_miss_rate 0
Core_0_STLB_cause_Other_miss 0
Core_0_STLB_cause_Other_miss_rate 0
Core_0_STLB_Demand_miss 6862
Core_0_STLB_Demand_miss_rate 0.583851
Core_0_STLB_L1D_Prefetch_miss 0
Core_0_STLB_L1D_Prefetch_miss_rate 0
Core_0_STLB_Other_miss 0
Core_0_STLB_Other_miss_rate 0
