[VMEM] WARNING: physical memory size is smaller than virtual memory size.

*** ChampSim Multicore Out-of-Order Simulator ***
Warmup Instructions: 20000000
Simulation Instructions: 50000000
Number of CPUs: 1
Page size: 4096
STLB ideal mode: off
Core 0: /data0/tzh/champsim_traces/SPEC17/657.xz_s-3167B.champsimtrace.xz
Off-chip DRAM Size: 16 GiB Channels: 1 Width: 64-bit Data Rate: 3205 MT/s
Warmup halting CPU 0 at instruction 20000001 cycle 4515477 for remainder of phase
Warmup finished CPU 0 instructions: 20000001 cycles: 4515477 cumulative IPC: 4.429 (Simulation time: 00 hr 00 min 47 sec)
Warmup complete CPU 0 instructions: 20000001 cycles: 4515477 cumulative IPC: 4.429 (Simulation time: 00 hr 00 min 47 sec)
Simulation finished CPU 0 instructions: 50000000 cycles: 31242610 cumulative IPC: 1.6 (Simulation time: 00 hr 04 min 28 sec)
Simulation complete CPU 0 instructions: 50000000 cycles: 31242610 cumulative IPC: 1.6 (Simulation time: 00 hr 04 min 28 sec)

ChampSim completed all CPUs

=== Simulation ===
CPU 0 runs /data0/tzh/champsim_traces/SPEC17/657.xz_s-3167B.champsimtrace.xz

Region of Interest Statistics

CPU 0 cumulative IPC: 1.6 instructions: 50000000 cycles: 31242610
CPU 0 Branch Prediction Accuracy: 95.16% MPKI: 7.145 Average ROB Occupancy at Mispredict: 42.17
Branch type MPKI
BRANCH_DIRECT_JUMP: 0.07938
BRANCH_INDIRECT: 0.8868
BRANCH_CONDITIONAL: 6.176
BRANCH_DIRECT_CALL: 0
BRANCH_INDIRECT_CALL: 0.00296
BRANCH_RETURN: 0

cpu0->cpu0_STLB TOTAL        ACCESS:     269943 HIT:     239465 MISS:      30478 MSHR_MERGE:          0
cpu0->cpu0_STLB LOAD         ACCESS:     269943 HIT:     239465 MISS:      30478 MSHR_MERGE:          0
cpu0->cpu0_STLB RFO          ACCESS:          0 HIT:          0 MISS:          0 MSHR_MERGE:          0
cpu0->cpu0_STLB PREFETCH     ACCESS:          0 HIT:          0 MISS:          0 MSHR_MERGE:          0
cpu0->cpu0_STLB WRITE        ACCESS:          0 HIT:          0 MISS:          0 MSHR_MERGE:          0
cpu0->cpu0_STLB TRANSLATION  ACCESS:          0 HIT:          0 MISS:          0 MSHR_MERGE:          0
cpu0->cpu0_STLB PREFETCH REQUESTED:          0 ISSUED:          0 USEFUL:          0 USELESS:          0 LATE:          0
cpu0->cpu0_STLB AVERAGE MISS LATENCY: 41.77 cycles
cpu0->cpu0_L2C TOTAL        ACCESS:     542181 HIT:     434841 MISS:     107340 MSHR_MERGE:          0
cpu0->cpu0_L2C LOAD         ACCESS:     227612 HIT:     142294 MISS:      85318 MSHR_MERGE:          0
cpu0->cpu0_L2C RFO          ACCESS:      71567 HIT:      55317 MISS:      16250 MSHR_MERGE:          0
cpu0->cpu0_L2C PREFETCH     ACCESS:          0 HIT:          0 MISS:          0 MSHR_MERGE:          0
cpu0->cpu0_L2C WRITE        ACCESS:     216296 HIT:     216104 MISS:        192 MSHR_MERGE:          0
cpu0->cpu0_L2C TRANSLATION  ACCESS:      26706 HIT:      21126 MISS:       5580 MSHR_MERGE:          0
cpu0->cpu0_L2C PREFETCH REQUESTED:          0 ISSUED:          0 USEFUL:          0 USELESS:          0 LATE:          0
cpu0->cpu0_L2C AVERAGE MISS LATENCY: 111.7 cycles
cpu0->cpu0_L1I TOTAL        ACCESS:    1519720 HIT:    1519341 MISS:        379 MSHR_MERGE:        234
cpu0->cpu0_L1I LOAD         ACCESS:    1519720 HIT:    1519341 MISS:        379 MSHR_MERGE:        234
cpu0->cpu0_L1I RFO          ACCESS:          0 HIT:          0 MISS:          0 MSHR_MERGE:          0
cpu0->cpu0_L1I PREFETCH     ACCESS:          0 HIT:          0 MISS:          0 MSHR_MERGE:          0
cpu0->cpu0_L1I WRITE        ACCESS:          0 HIT:          0 MISS:          0 MSHR_MERGE:          0
cpu0->cpu0_L1I TRANSLATION  ACCESS:          0 HIT:          0 MISS:          0 MSHR_MERGE:          0
cpu0->cpu0_L1I PREFETCH REQUESTED:          0 ISSUED:          0 USEFUL:          0 USELESS:          0 LATE:          0
cpu0->cpu0_L1I AVERAGE MISS LATENCY: 26.68 cycles
cpu0->cpu0_L1D TOTAL        ACCESS:   11612610 HIT:   11150723 MISS:     461887 MSHR_MERGE:     136125
cpu0->cpu0_L1D LOAD         ACCESS:    8175731 HIT:    7874323 MISS:     301408 MSHR_MERGE:      73935
cpu0->cpu0_L1D RFO          ACCESS:          0 HIT:          0 MISS:          0 MSHR_MERGE:          0
cpu0->cpu0_L1D PREFETCH     ACCESS:          0 HIT:          0 MISS:          0 MSHR_MERGE:          0
cpu0->cpu0_L1D WRITE        ACCESS:    3376065 HIT:    3242389 MISS:     133676 MSHR_MERGE:      62093
cpu0->cpu0_L1D TRANSLATION  ACCESS:      60814 HIT:      34011 MISS:      26803 MSHR_MERGE:         97
cpu0->cpu0_L1D PREFETCH REQUESTED:          0 ISSUED:          0 USEFUL:          0 USELESS:          0 LATE:          0
cpu0->cpu0_L1D AVERAGE MISS LATENCY: 45.14 cycles
cpu0->cpu0_ITLB TOTAL        ACCESS:    1304879 HIT:    1304879 MISS:          0 MSHR_MERGE:          0
cpu0->cpu0_ITLB LOAD         ACCESS:    1304879 HIT:    1304879 MISS:          0 MSHR_MERGE:          0
cpu0->cpu0_ITLB RFO          ACCESS:          0 HIT:          0 MISS:          0 MSHR_MERGE:          0
cpu0->cpu0_ITLB PREFETCH     ACCESS:          0 HIT:          0 MISS:          0 MSHR_MERGE:          0
cpu0->cpu0_ITLB WRITE        ACCESS:          0 HIT:          0 MISS:          0 MSHR_MERGE:          0
cpu0->cpu0_ITLB TRANSLATION  ACCESS:          0 HIT:          0 MISS:          0 MSHR_MERGE:          0
cpu0->cpu0_ITLB PREFETCH REQUESTED:          0 ISSUED:          0 USEFUL:          0 USELESS:          0 LATE:          0
cpu0->cpu0_ITLB AVERAGE MISS LATENCY: - cycles
cpu0->cpu0_DTLB TOTAL        ACCESS:   11100454 HIT:   10787624 MISS:     312830 MSHR_MERGE:      42887
cpu0->cpu0_DTLB LOAD         ACCESS:   11100454 HIT:   10787624 MISS:     312830 MSHR_MERGE:      42887
cpu0->cpu0_DTLB RFO          ACCESS:          0 HIT:          0 MISS:          0 MSHR_MERGE:          0
cpu0->cpu0_DTLB PREFETCH     ACCESS:          0 HIT:          0 MISS:          0 MSHR_MERGE:          0
cpu0->cpu0_DTLB WRITE        ACCESS:          0 HIT:          0 MISS:          0 MSHR_MERGE:          0
cpu0->cpu0_DTLB TRANSLATION  ACCESS:          0 HIT:          0 MISS:          0 MSHR_MERGE:          0
cpu0->cpu0_DTLB PREFETCH REQUESTED:          0 ISSUED:          0 USEFUL:          0 USELESS:          0 LATE:          0
cpu0->cpu0_DTLB AVERAGE MISS LATENCY: 9.829 cycles
cpu0->LLC TOTAL        ACCESS:     176748 HIT:     115046 MISS:      61702 MSHR_MERGE:          0
cpu0->LLC LOAD         ACCESS:      85318 HIT:      42359 MISS:      42959 MSHR_MERGE:          0
cpu0->LLC RFO          ACCESS:      16250 HIT:       2472 MISS:      13778 MSHR_MERGE:          0
cpu0->LLC PREFETCH     ACCESS:          0 HIT:          0 MISS:          0 MSHR_MERGE:          0
cpu0->LLC WRITE        ACCESS:      69600 HIT:      65087 MISS:       4513 MSHR_MERGE:          0
cpu0->LLC TRANSLATION  ACCESS:       5580 HIT:       5128 MISS:        452 MSHR_MERGE:          0
cpu0->LLC PREFETCH REQUESTED:          0 ISSUED:          0 USEFUL:          0 USELESS:          0 LATE:          0
cpu0->LLC AVERAGE MISS LATENCY: 167.9 cycles

DRAM Statistics

Channel 0 RQ ROW_BUFFER_HIT:        298
  ROW_BUFFER_MISS:      56891
  AVG DBUS CONGESTED CYCLE: 16.85
Channel 0 WQ ROW_BUFFER_HIT:       4373
  ROW_BUFFER_MISS:      32595
  FULL:          0
Channel 0 REFRESHES ISSUED:       2603

[ROI Statistics]
[System Configuration]
num_cpus 1
cpu_freq 4000
fetch_width 6
decode_width 6
dispatch_width 6
execute_width 6
lq_width 2
sq_width 2
retire_width 6
scheduler_size 128
branch_mispredict_penalty 15
rob_size 352
lq_size 128
sq_size 72
ifetch_buffer_size 64
decode_buffer_size 32
dispatch_buffer_size 32
register_file_size 288
decode_latency 1
dispatch_latency 1
schedule_latency 1
execute_latency 1
page_size 4096
block_size 64
core_0_itlb_set 16
core_0_itlb_way 4
core_0_itlb_rq_size 16
core_0_itlb_wq_size 16
core_0_itlb_pq_size 0
core_0_itlb_mshr_size 8
core_0_itlb_hit_latency 1
core_0_itlb_fill_latency 1
core_0_itlb_max_tag_check 2
core_0_itlb_max_fill 2
core_0_dtlb_set 16
core_0_dtlb_way 4
core_0_dtlb_rq_size 16
core_0_dtlb_wq_size 16
core_0_dtlb_pq_size 0
core_0_dtlb_mshr_size 8
core_0_dtlb_hit_latency 1
core_0_dtlb_fill_latency 1
core_0_dtlb_max_tag_check 2
core_0_dtlb_max_fill 2
core_0_stlb_set 128
core_0_stlb_way 12
core_0_stlb_rq_size 32
core_0_stlb_wq_size 32
core_0_stlb_pq_size 0
core_0_stlb_mshr_size 16
core_0_stlb_hit_latency 4
core_0_stlb_fill_latency 4
core_0_stlb_max_tag_check 1
core_0_stlb_max_fill 1
core_0_l1i_set 64
core_0_l1i_way 8
core_0_l1i_rq_size 64
core_0_l1i_wq_size 64
core_0_l1i_pq_size 32
core_0_l1i_mshr_size 8
core_0_l1i_hit_latency 2
core_0_l1i_fill_latency 2
core_0_l1i_max_tag_check 2
core_0_l1i_max_fill 2
core_0_l1d_set 64
core_0_l1d_way 12
core_0_l1d_rq_size 64
core_0_l1d_wq_size 64
core_0_l1d_pq_size 8
core_0_l1d_mshr_size 16
core_0_l1d_hit_latency 2
core_0_l1d_fill_latency 3
core_0_l1d_max_tag_check 2
core_0_l1d_max_fill 2
core_0_l2c_set 1024
core_0_l2c_way 8
core_0_l2c_rq_size 32
core_0_l2c_wq_size 32
core_0_l2c_pq_size 16
core_0_l2c_mshr_size 32
core_0_l2c_hit_latency 5
core_0_l2c_fill_latency 5
core_0_l2c_max_tag_check 1
core_0_l2c_max_fill 1
llc_set 2048
llc_way 16
llc_rq_size 32
llc_wq_size 32
llc_pq_size 32
llc_mshr_size 64
llc_hit_latency 10
llc_fill_latency 10
llc_max_tag_check 1
llc_max_fill 1
dram_channels 1
dram_ranks 1
dram_bankgroups 8
dram_banks 4
dram_rows 65536
dram_columns 1024
dram_channel_width 8
dram_rq_size 64
dram_wq_size 64
dram_size 17179869184
core_0_itlb_prefetcher no
core_0_dtlb_prefetcher no
core_0_stlb_prefetcher no
core_0_l1i_prefetcher no
core_0_l1d_prefetcher no
core_0_l2c_prefetcher no
llc_prefetcher no
llc_replacement drrip

Core_0_instructions 50000000
Core_0_cycles 31242610
Core_0_IPC 1.60038
Core_0_branch_prediction_accuracy 95.1566
Core_0_branch_MPKI 7.14502
Core_0_average_ROB_occupancy_at_mispredict 42.17

Core_0_ITLB_total_access 1304879
Core_0_ITLB_total_hit 1304879
Core_0_ITLB_total_miss 0
Core_0_ITLB_total_MPKI 0
Core_0_ITLB_total_miss_rate 0
Core_0_ITLB_demand_access 1304879
Core_0_ITLB_demand_hit 1304879
Core_0_ITLB_demand_miss 0
Core_0_ITLB_demand_MPKI 0
Core_0_ITLB_demand_miss_rate 0
Core_0_ITLB_load_access 1304879
Core_0_ITLB_load_hit 1304879
Core_0_ITLB_load_miss 0
Core_0_ITLB_load_MPKI 0
Core_0_ITLB_load_miss_rate 0
Core_0_ITLB_rfo_access 0
Core_0_ITLB_rfo_hit 0
Core_0_ITLB_rfo_miss 0
Core_0_ITLB_rfo_MPKI 0
Core_0_ITLB_rfo_miss_rate 0
Core_0_ITLB_prefetch_access 0
Core_0_ITLB_prefetch_hit 0
Core_0_ITLB_prefetch_miss 0
Core_0_ITLB_prefetch_MPKI 0
Core_0_ITLB_prefetch_miss_rate 0
Core_0_ITLB_writeback_access 0
Core_0_ITLB_writeback_hit 0
Core_0_ITLB_writeback_miss 0
Core_0_ITLB_writeback_MPKI 0
Core_0_ITLB_writeback_miss_rate 0
Core_0_ITLB_prefetch_requested 0
Core_0_ITLB_prefetch_issued 0
Core_0_ITLB_prefetch_useful 0
Core_0_ITLB_prefetch_useless 0
Core_0_ITLB_prefetch_late 0
Core_0_ITLB_prefetch_accuracy 0
Core_0_ITLB_prefetch_coverage 0

Core_0_DTLB_total_access 11100454
Core_0_DTLB_total_hit 10787624
Core_0_DTLB_total_miss 312830
Core_0_DTLB_total_MPKI 6.2566
Core_0_DTLB_total_miss_rate 0.0281817
Core_0_DTLB_demand_access 11100454
Core_0_DTLB_demand_hit 10787624
Core_0_DTLB_demand_miss 312830
Core_0_DTLB_demand_MPKI 6.2566
Core_0_DTLB_demand_miss_rate 0.0281817
Core_0_DTLB_load_access 11100454
Core_0_DTLB_load_hit 10787624
Core_0_DTLB_load_miss 312830
Core_0_DTLB_load_MPKI 6.2566
Core_0_DTLB_load_miss_rate 0.0281817
Core_0_DTLB_rfo_access 0
Core_0_DTLB_rfo_hit 0
Core_0_DTLB_rfo_miss 0
Core_0_DTLB_rfo_MPKI 0
Core_0_DTLB_rfo_miss_rate 0
Core_0_DTLB_prefetch_access 0
Core_0_DTLB_prefetch_hit 0
Core_0_DTLB_prefetch_miss 0
Core_0_DTLB_prefetch_MPKI 0
Core_0_DTLB_prefetch_miss_rate 0
Core_0_DTLB_writeback_access 0
Core_0_DTLB_writeback_hit 0
Core_0_DTLB_writeback_miss 0
Core_0_DTLB_writeback_MPKI 0
Core_0_DTLB_writeback_miss_rate 0
Core_0_DTLB_prefetch_requested 0
Core_0_DTLB_prefetch_issued 0
Core_0_DTLB_prefetch_useful 0
Core_0_DTLB_prefetch_useless 0
Core_0_DTLB_prefetch_late 0
Core_0_DTLB_prefetch_accuracy 0
Core_0_DTLB_prefetch_coverage 0

Core_0_STLB_total_access 269943
Core_0_STLB_total_hit 239465
Core_0_STLB_total_miss 30478
Core_0_STLB_total_MPKI 0.60956
Core_0_STLB_total_miss_rate 0.112905
Core_0_STLB_demand_access 269943
Core_0_STLB_demand_hit 239465
Core_0_STLB_demand_miss 30478
Core_0_STLB_demand_MPKI 0.60956
Core_0_STLB_demand_miss_rate 0.112905
Core_0_STLB_load_access 269943
Core_0_STLB_load_hit 239465
Core_0_STLB_load_miss 30478
Core_0_STLB_load_MPKI 0.60956
Core_0_STLB_load_miss_rate 0.112905
Core_0_STLB_rfo_access 0
Core_0_STLB_rfo_hit 0
Core_0_STLB_rfo_miss 0
Core_0_STLB_rfo_MPKI 0
Core_0_STLB_rfo_miss_rate 0
Core_0_STLB_prefetch_access 0
Core_0_STLB_prefetch_hit 0
Core_0_STLB_prefetch_miss 0
Core_0_STLB_prefetch_MPKI 0
Core_0_STLB_prefetch_miss_rate 0
Core_0_STLB_writeback_access 0
Core_0_STLB_writeback_hit 0
Core_0_STLB_writeback_miss 0
Core_0_STLB_writeback_MPKI 0
Core_0_STLB_writeback_miss_rate 0
Core_0_STLB_prefetch_requested 0
Core_0_STLB_prefetch_issued 0
Core_0_STLB_prefetch_useful 0
Core_0_STLB_prefetch_useless 0
Core_0_STLB_prefetch_late 0
Core_0_STLB_prefetch_accuracy 0
Core_0_STLB_prefetch_coverage 0

Core_0_L1I_total_access 1519720
Core_0_L1I_total_hit 1519341
Core_0_L1I_total_miss 379
Core_0_L1I_total_MPKI 0.00758
Core_0_L1I_total_miss_rate 0.000249388
Core_0_L1I_demand_access 1519720
Core_0_L1I_demand_hit 1519341
Core_0_L1I_demand_miss 379
Core_0_L1I_demand_MPKI 0.00758
Core_0_L1I_demand_miss_rate 0.000249388
Core_0_L1I_load_access 1519720
Core_0_L1I_load_hit 1519341
Core_0_L1I_load_miss 379
Core_0_L1I_load_MPKI 0.00758
Core_0_L1I_load_miss_rate 0.000249388
Core_0_L1I_rfo_access 0
Core_0_L1I_rfo_hit 0
Core_0_L1I_rfo_miss 0
Core_0_L1I_rfo_MPKI 0
Core_0_L1I_rfo_miss_rate 0
Core_0_L1I_prefetch_access 0
Core_0_L1I_prefetch_hit 0
Core_0_L1I_prefetch_miss 0
Core_0_L1I_prefetch_MPKI 0
Core_0_L1I_prefetch_miss_rate 0
Core_0_L1I_writeback_access 0
Core_0_L1I_writeback_hit 0
Core_0_L1I_writeback_miss 0
Core_0_L1I_writeback_MPKI 0
Core_0_L1I_writeback_miss_rate 0
Core_0_L1I_prefetch_requested 0
Core_0_L1I_prefetch_issued 0
Core_0_L1I_prefetch_useful 0
Core_0_L1I_prefetch_useless 0
Core_0_L1I_prefetch_late 0
Core_0_L1I_prefetch_accuracy 0
Core_0_L1I_prefetch_coverage 0

Core_0_L1D_total_access 11551796
Core_0_L1D_total_hit 11116712
Core_0_L1D_total_miss 435084
Core_0_L1D_total_MPKI 8.70168
Core_0_L1D_total_miss_rate 0.0376638
Core_0_L1D_demand_access 8175731
Core_0_L1D_demand_hit 7874323
Core_0_L1D_demand_miss 301408
Core_0_L1D_demand_MPKI 6.02816
Core_0_L1D_demand_miss_rate 0.0368662
Core_0_L1D_load_access 8175731
Core_0_L1D_load_hit 7874323
Core_0_L1D_load_miss 301408
Core_0_L1D_load_MPKI 6.02816
Core_0_L1D_load_miss_rate 0.0368662
Core_0_L1D_rfo_access 0
Core_0_L1D_rfo_hit 0
Core_0_L1D_rfo_miss 0
Core_0_L1D_rfo_MPKI 0
Core_0_L1D_rfo_miss_rate 0
Core_0_L1D_prefetch_access 0
Core_0_L1D_prefetch_hit 0
Core_0_L1D_prefetch_miss 0
Core_0_L1D_prefetch_MPKI 0
Core_0_L1D_prefetch_miss_rate 0
Core_0_L1D_writeback_access 3376065
Core_0_L1D_writeback_hit 3242389
Core_0_L1D_writeback_miss 133676
Core_0_L1D_writeback_MPKI 2.67352
Core_0_L1D_writeback_miss_rate 0.0395952
Core_0_L1D_prefetch_requested 0
Core_0_L1D_prefetch_issued 0
Core_0_L1D_prefetch_useful 0
Core_0_L1D_prefetch_useless 0
Core_0_L1D_prefetch_late 0
Core_0_L1D_prefetch_accuracy 0
Core_0_L1D_prefetch_coverage 0

Core_0_L2C_total_access 515475
Core_0_L2C_total_hit 413715
Core_0_L2C_total_miss 101760
Core_0_L2C_total_MPKI 2.0352
Core_0_L2C_total_miss_rate 0.19741
Core_0_L2C_demand_access 299179
Core_0_L2C_demand_hit 197611
Core_0_L2C_demand_miss 101568
Core_0_L2C_demand_MPKI 2.03136
Core_0_L2C_demand_miss_rate 0.339489
Core_0_L2C_load_access 227612
Core_0_L2C_load_hit 142294
Core_0_L2C_load_miss 85318
Core_0_L2C_load_MPKI 1.70636
Core_0_L2C_load_miss_rate 0.37484
Core_0_L2C_rfo_access 71567
Core_0_L2C_rfo_hit 55317
Core_0_L2C_rfo_miss 16250
Core_0_L2C_rfo_MPKI 0.325
Core_0_L2C_rfo_miss_rate 0.22706
Core_0_L2C_prefetch_access 0
Core_0_L2C_prefetch_hit 0
Core_0_L2C_prefetch_miss 0
Core_0_L2C_prefetch_MPKI 0
Core_0_L2C_prefetch_miss_rate 0
Core_0_L2C_writeback_access 216296
Core_0_L2C_writeback_hit 216104
Core_0_L2C_writeback_miss 192
Core_0_L2C_writeback_MPKI 0.00384
Core_0_L2C_writeback_miss_rate 0.000887672
Core_0_L2C_prefetch_requested 0
Core_0_L2C_prefetch_issued 0
Core_0_L2C_prefetch_useful 0
Core_0_L2C_prefetch_useless 0
Core_0_L2C_prefetch_late 0
Core_0_L2C_prefetch_accuracy 0
Core_0_L2C_prefetch_coverage 0

Core_0_LLC_total_access 171168
Core_0_LLC_total_hit 109918
Core_0_LLC_total_miss 61250
Core_0_LLC_total_MPKI 1.225
Core_0_LLC_total_miss_rate 0.357836
Core_0_LLC_demand_access 101568
Core_0_LLC_demand_hit 44831
Core_0_LLC_demand_miss 56737
Core_0_LLC_demand_MPKI 1.13474
Core_0_LLC_demand_miss_rate 0.558611
Core_0_LLC_load_access 85318
Core_0_LLC_load_hit 42359
Core_0_LLC_load_miss 42959
Core_0_LLC_load_MPKI 0.85918
Core_0_LLC_load_miss_rate 0.503516
Core_0_LLC_rfo_access 16250
Core_0_LLC_rfo_hit 2472
Core_0_LLC_rfo_miss 13778
Core_0_LLC_rfo_MPKI 0.27556
Core_0_LLC_rfo_miss_rate 0.847877
Core_0_LLC_prefetch_access 0
Core_0_LLC_prefetch_hit 0
Core_0_LLC_prefetch_miss 0
Core_0_LLC_prefetch_MPKI 0
Core_0_LLC_prefetch_miss_rate 0
Core_0_LLC_writeback_access 69600
Core_0_LLC_writeback_hit 65087
Core_0_LLC_writeback_miss 4513
Core_0_LLC_writeback_MPKI 0.09026
Core_0_LLC_writeback_miss_rate 0.064842
Core_0_LLC_prefetch_requested 0
Core_0_LLC_prefetch_issued 0
Core_0_LLC_prefetch_useful 0
Core_0_LLC_prefetch_useless 0
Core_0_LLC_prefetch_late 0
Core_0_LLC_prefetch_accuracy 0
Core_0_LLC_prefetch_coverage 0

[DRAM Statistics]
Channel_0_RQ_row_buffer_hit 298
Channel_0_RQ_row_buffer_miss 56891
Channel_0_WQ_row_buffer_hit 4373
Channel_0_WQ_row_buffer_miss 32595
Channel_0_WQ_full 0
Channel_0_dbus_congested 258531
DRAM_total_RQ_row_buffer_hit 298
DRAM_total_RQ_row_buffer_miss 56891
DRAM_total_WQ_row_buffer_hit 4373
DRAM_total_WQ_row_buffer_miss 32595
DRAM_total_WQ_full 0
DRAM_total_dbus_congested 258531
DRAM_avg_congested_cycle 16.8469

======STLB miss causes ========
Core_0_STLB_miss_cause_breakdown
Core_0_STLB_cause_Demand_Data_miss 30478
Core_0_STLB_cause_Demand_Data_miss_rate 0.112905
Core_0_STLB_cause_Demand_Instruction_miss 0
Core_0_STLB_cause_Demand_Instruction_miss_rate 0
Core_0_STLB_cause_L1D_Prefetch_miss 0
Core_0_STLB_cause_L1D_Prefetch_miss_rate 0
Core_0_STLB_cause_L1I_Prefetch_miss 0
Core_0_STLB_cause_L1I_Prefetch_miss_rate 0
Core_0_STLB_cause_Other_miss 0
Core_0_STLB_cause_Other_miss_rate 0
Core_0_STLB_Demand_miss 30478
Core_0_STLB_Demand_miss_rate 0.112905
Core_0_STLB_L1D_Prefetch_miss 0
Core_0_STLB_L1D_Prefetch_miss_rate 0
Core_0_STLB_Other_miss 0
Core_0_STLB_Other_miss_rate 0
