[VMEM] WARNING: physical memory size is smaller than virtual memory size.

*** ChampSim Multicore Out-of-Order Simulator ***
Warmup Instructions: 20000000
Simulation Instructions: 50000000
Number of CPUs: 1
Page size: 4096
STLB ideal mode: off
Core 0: /data0/tzh/champsim_traces/Ligra/ligra_BC.com-lj.ungraph.gcc_6.3.0_O3.drop_17000M.length_250M.champsimtrace.xz
Off-chip DRAM Size: 16 GiB Channels: 1 Width: 64-bit Data Rate: 3205 MT/s
Warmup halting CPU 0 at instruction 20000002 cycle 6189351 for remainder of phase
Warmup finished CPU 0 instructions: 20000002 cycles: 6189351 cumulative IPC: 3.231 (Simulation time: 00 hr 01 min 00 sec)
Warmup complete CPU 0 instructions: 20000002 cycles: 6189351 cumulative IPC: 3.231 (Simulation time: 00 hr 01 min 00 sec)
Simulation finished CPU 0 instructions: 50000001 cycles: 47560748 cumulative IPC: 1.051 (Simulation time: 00 hr 07 min 15 sec)
Simulation complete CPU 0 instructions: 50000001 cycles: 47560748 cumulative IPC: 1.051 (Simulation time: 00 hr 07 min 15 sec)

ChampSim completed all CPUs

=== Simulation ===
CPU 0 runs /data0/tzh/champsim_traces/Ligra/ligra_BC.com-lj.ungraph.gcc_6.3.0_O3.drop_17000M.length_250M.champsimtrace.xz

Region of Interest Statistics

CPU 0 cumulative IPC: 1.051 instructions: 50000001 cycles: 47560748
CPU 0 Branch Prediction Accuracy: 99.32% MPKI: 0.681 Average ROB Occupancy at Mispredict: 229.8
Branch type MPKI
BRANCH_DIRECT_JUMP: 2e-05
BRANCH_INDIRECT: 0
BRANCH_CONDITIONAL: 0.6808
BRANCH_DIRECT_CALL: 4e-05
BRANCH_INDIRECT_CALL: 0
BRANCH_RETURN: 0.00012

cpu0->cpu0_STLB TOTAL        ACCESS:      21703 HIT:      11149 MISS:      10554 MSHR_MERGE:          0
cpu0->cpu0_STLB LOAD         ACCESS:      21703 HIT:      11149 MISS:      10554 MSHR_MERGE:          0
cpu0->cpu0_STLB RFO          ACCESS:          0 HIT:          0 MISS:          0 MSHR_MERGE:          0
cpu0->cpu0_STLB PREFETCH     ACCESS:          0 HIT:          0 MISS:          0 MSHR_MERGE:          0
cpu0->cpu0_STLB WRITE        ACCESS:          0 HIT:          0 MISS:          0 MSHR_MERGE:          0
cpu0->cpu0_STLB TRANSLATION  ACCESS:          0 HIT:          0 MISS:          0 MSHR_MERGE:          0
cpu0->cpu0_STLB PREFETCH REQUESTED:          0 ISSUED:          0 USEFUL:          0 USELESS:          0 LATE:          0
cpu0->cpu0_STLB AVERAGE MISS LATENCY: 174.8 cycles
cpu0->cpu0_L2C TOTAL        ACCESS:    1615107 HIT:     733513 MISS:     881594 MSHR_MERGE:          0
cpu0->cpu0_L2C LOAD         ACCESS:     601112 HIT:     173468 MISS:     427644 MSHR_MERGE:          0
cpu0->cpu0_L2C RFO          ACCESS:     485413 HIT:      33628 MISS:     451785 MSHR_MERGE:          0
cpu0->cpu0_L2C PREFETCH     ACCESS:          0 HIT:          0 MISS:          0 MSHR_MERGE:          0
cpu0->cpu0_L2C WRITE        ACCESS:     524556 HIT:     524497 MISS:         59 MSHR_MERGE:          0
cpu0->cpu0_L2C TRANSLATION  ACCESS:       4026 HIT:       1920 MISS:       2106 MSHR_MERGE:          0
cpu0->cpu0_L2C PREFETCH REQUESTED:          0 ISSUED:          0 USEFUL:          0 USELESS:          0 LATE:          0
cpu0->cpu0_L2C AVERAGE MISS LATENCY: 384.3 cycles
cpu0->cpu0_L1I TOTAL        ACCESS:    7820569 HIT:    7820564 MISS:          5 MSHR_MERGE:          2
cpu0->cpu0_L1I LOAD         ACCESS:    7820569 HIT:    7820564 MISS:          5 MSHR_MERGE:          2
cpu0->cpu0_L1I RFO          ACCESS:          0 HIT:          0 MISS:          0 MSHR_MERGE:          0
cpu0->cpu0_L1I PREFETCH     ACCESS:          0 HIT:          0 MISS:          0 MSHR_MERGE:          0
cpu0->cpu0_L1I WRITE        ACCESS:          0 HIT:          0 MISS:          0 MSHR_MERGE:          0
cpu0->cpu0_L1I TRANSLATION  ACCESS:          0 HIT:          0 MISS:          0 MSHR_MERGE:          0
cpu0->cpu0_L1I PREFETCH REQUESTED:          0 ISSUED:          0 USEFUL:          0 USELESS:          0 LATE:          0
cpu0->cpu0_L1I AVERAGE MISS LATENCY: 230.3 cycles
cpu0->cpu0_L1D TOTAL        ACCESS:   13971818 HIT:    9943167 MISS:    4028651 MSHR_MERGE:    2938090
cpu0->cpu0_L1D LOAD         ACCESS:    3676445 HIT:    2329695 MISS:    1346750 MSHR_MERGE:     745639
cpu0->cpu0_L1D RFO          ACCESS:          0 HIT:          0 MISS:          0 MSHR_MERGE:          0
cpu0->cpu0_L1D PREFETCH     ACCESS:          0 HIT:          0 MISS:          0 MSHR_MERGE:          0
cpu0->cpu0_L1D WRITE        ACCESS:   10274961 HIT:    7597842 MISS:    2677119 MSHR_MERGE:    2191695
cpu0->cpu0_L1D TRANSLATION  ACCESS:      20412 HIT:      15630 MISS:       4782 MSHR_MERGE:        756
cpu0->cpu0_L1D PREFETCH REQUESTED:          0 ISSUED:          0 USEFUL:          0 USELESS:          0 LATE:          0
cpu0->cpu0_L1D AVERAGE MISS LATENCY: 319.6 cycles
cpu0->cpu0_ITLB TOTAL        ACCESS:    6411345 HIT:    6411345 MISS:          0 MSHR_MERGE:          0
cpu0->cpu0_ITLB LOAD         ACCESS:    6411345 HIT:    6411345 MISS:          0 MSHR_MERGE:          0
cpu0->cpu0_ITLB RFO          ACCESS:          0 HIT:          0 MISS:          0 MSHR_MERGE:          0
cpu0->cpu0_ITLB PREFETCH     ACCESS:          0 HIT:          0 MISS:          0 MSHR_MERGE:          0
cpu0->cpu0_ITLB WRITE        ACCESS:          0 HIT:          0 MISS:          0 MSHR_MERGE:          0
cpu0->cpu0_ITLB TRANSLATION  ACCESS:          0 HIT:          0 MISS:          0 MSHR_MERGE:          0
cpu0->cpu0_ITLB PREFETCH REQUESTED:          0 ISSUED:          0 USEFUL:          0 USELESS:          0 LATE:          0
cpu0->cpu0_ITLB AVERAGE MISS LATENCY: - cycles
cpu0->cpu0_DTLB TOTAL        ACCESS:   12202437 HIT:   12105356 MISS:      97081 MSHR_MERGE:      75378
cpu0->cpu0_DTLB LOAD         ACCESS:   12202437 HIT:   12105356 MISS:      97081 MSHR_MERGE:      75378
cpu0->cpu0_DTLB RFO          ACCESS:          0 HIT:          0 MISS:          0 MSHR_MERGE:          0
cpu0->cpu0_DTLB PREFETCH     ACCESS:          0 HIT:          0 MISS:          0 MSHR_MERGE:          0
cpu0->cpu0_DTLB WRITE        ACCESS:          0 HIT:          0 MISS:          0 MSHR_MERGE:          0
cpu0->cpu0_DTLB TRANSLATION  ACCESS:          0 HIT:          0 MISS:          0 MSHR_MERGE:          0
cpu0->cpu0_DTLB PREFETCH REQUESTED:          0 ISSUED:          0 USEFUL:          0 USELESS:          0 LATE:          0
cpu0->cpu0_DTLB AVERAGE MISS LATENCY: 90.49 cycles
cpu0->LLC TOTAL        ACCESS:    1377614 HIT:     103070 MISS:    1274544 MSHR_MERGE:          0
cpu0->LLC LOAD         ACCESS:     427644 HIT:      21396 MISS:     406248 MSHR_MERGE:          0
cpu0->LLC RFO          ACCESS:     451785 HIT:       2869 MISS:     448916 MSHR_MERGE:          0
cpu0->LLC PREFETCH     ACCESS:          0 HIT:          0 MISS:          0 MSHR_MERGE:          0
cpu0->LLC WRITE        ACCESS:     496079 HIT:      78741 MISS:     417338 MSHR_MERGE:          0
cpu0->LLC TRANSLATION  ACCESS:       2106 HIT:         64 MISS:       2042 MSHR_MERGE:          0
cpu0->LLC PREFETCH REQUESTED:          0 ISSUED:          0 USEFUL:          0 USELESS:          0 LATE:          0
cpu0->LLC AVERAGE MISS LATENCY: 257.7 cycles

DRAM Statistics

Channel 0 RQ ROW_BUFFER_HIT:      44167
  ROW_BUFFER_MISS:     812983
  AVG DBUS CONGESTED CYCLE: 7.581
Channel 0 WQ ROW_BUFFER_HIT:      85595
  ROW_BUFFER_MISS:     409855
  FULL:       1527
Channel 0 REFRESHES ISSUED:       3964

[ROI Statistics]
[System Configuration]
num_cpus 1
cpu_freq 4000
fetch_width 6
decode_width 6
dispatch_width 6
execute_width 6
lq_width 2
sq_width 2
retire_width 6
scheduler_size 128
branch_mispredict_penalty 15
rob_size 352
lq_size 128
sq_size 72
ifetch_buffer_size 64
decode_buffer_size 32
dispatch_buffer_size 32
register_file_size 288
decode_latency 1
dispatch_latency 1
schedule_latency 1
execute_latency 1
page_size 4096
block_size 64
core_0_itlb_set 16
core_0_itlb_way 4
core_0_itlb_rq_size 16
core_0_itlb_wq_size 16
core_0_itlb_pq_size 0
core_0_itlb_mshr_size 8
core_0_itlb_hit_latency 1
core_0_itlb_fill_latency 1
core_0_itlb_max_tag_check 2
core_0_itlb_max_fill 2
core_0_dtlb_set 16
core_0_dtlb_way 4
core_0_dtlb_rq_size 16
core_0_dtlb_wq_size 16
core_0_dtlb_pq_size 0
core_0_dtlb_mshr_size 8
core_0_dtlb_hit_latency 1
core_0_dtlb_fill_latency 1
core_0_dtlb_max_tag_check 2
core_0_dtlb_max_fill 2
core_0_stlb_set 128
core_0_stlb_way 12
core_0_stlb_rq_size 32
core_0_stlb_wq_size 32
core_0_stlb_pq_size 0
core_0_stlb_mshr_size 16
core_0_stlb_hit_latency 4
core_0_stlb_fill_latency 4
core_0_stlb_max_tag_check 1
core_0_stlb_max_fill 1
core_0_l1i_set 64
core_0_l1i_way 8
core_0_l1i_rq_size 64
core_0_l1i_wq_size 64
core_0_l1i_pq_size 32
core_0_l1i_mshr_size 8
core_0_l1i_hit_latency 2
core_0_l1i_fill_latency 2
core_0_l1i_max_tag_check 2
core_0_l1i_max_fill 2
core_0_l1d_set 64
core_0_l1d_way 12
core_0_l1d_rq_size 64
core_0_l1d_wq_size 64
core_0_l1d_pq_size 8
core_0_l1d_mshr_size 16
core_0_l1d_hit_latency 2
core_0_l1d_fill_latency 3
core_0_l1d_max_tag_check 2
core_0_l1d_max_fill 2
core_0_l2c_set 1024
core_0_l2c_way 8
core_0_l2c_rq_size 32
core_0_l2c_wq_size 32
core_0_l2c_pq_size 16
core_0_l2c_mshr_size 32
core_0_l2c_hit_latency 5
core_0_l2c_fill_latency 5
core_0_l2c_max_tag_check 1
core_0_l2c_max_fill 1
llc_set 2048
llc_way 16
llc_rq_size 32
llc_wq_size 32
llc_pq_size 32
llc_mshr_size 64
llc_hit_latency 10
llc_fill_latency 10
llc_max_tag_check 1
llc_max_fill 1
dram_channels 1
dram_ranks 1
dram_bankgroups 8
dram_banks 4
dram_rows 65536
dram_columns 1024
dram_channel_width 8
dram_rq_size 64
dram_wq_size 64
dram_size 17179869184
core_0_itlb_prefetcher no
core_0_dtlb_prefetcher no
core_0_stlb_prefetcher no
core_0_l1i_prefetcher no
core_0_l1d_prefetcher no
core_0_l2c_prefetcher no
llc_prefetcher no
llc_replacement drrip

Core_0_instructions 50000001
Core_0_cycles 47560748
Core_0_IPC 1.05129
Core_0_branch_prediction_accuracy 99.3178
Core_0_branch_MPKI 0.681
Core_0_average_ROB_occupancy_at_mispredict 229.775

Core_0_ITLB_total_access 6411345
Core_0_ITLB_total_hit 6411345
Core_0_ITLB_total_miss 0
Core_0_ITLB_total_MPKI 0
Core_0_ITLB_total_miss_rate 0
Core_0_ITLB_demand_access 6411345
Core_0_ITLB_demand_hit 6411345
Core_0_ITLB_demand_miss 0
Core_0_ITLB_demand_MPKI 0
Core_0_ITLB_demand_miss_rate 0
Core_0_ITLB_load_access 6411345
Core_0_ITLB_load_hit 6411345
Core_0_ITLB_load_miss 0
Core_0_ITLB_load_MPKI 0
Core_0_ITLB_load_miss_rate 0
Core_0_ITLB_rfo_access 0
Core_0_ITLB_rfo_hit 0
Core_0_ITLB_rfo_miss 0
Core_0_ITLB_rfo_MPKI 0
Core_0_ITLB_rfo_miss_rate 0
Core_0_ITLB_prefetch_access 0
Core_0_ITLB_prefetch_hit 0
Core_0_ITLB_prefetch_miss 0
Core_0_ITLB_prefetch_MPKI 0
Core_0_ITLB_prefetch_miss_rate 0
Core_0_ITLB_writeback_access 0
Core_0_ITLB_writeback_hit 0
Core_0_ITLB_writeback_miss 0
Core_0_ITLB_writeback_MPKI 0
Core_0_ITLB_writeback_miss_rate 0
Core_0_ITLB_prefetch_requested 0
Core_0_ITLB_prefetch_issued 0
Core_0_ITLB_prefetch_useful 0
Core_0_ITLB_prefetch_useless 0
Core_0_ITLB_prefetch_late 0
Core_0_ITLB_prefetch_accuracy 0
Core_0_ITLB_prefetch_coverage 0

Core_0_DTLB_total_access 12202437
Core_0_DTLB_total_hit 12105356
Core_0_DTLB_total_miss 97081
Core_0_DTLB_total_MPKI 1.94162
Core_0_DTLB_total_miss_rate 0.00795587
Core_0_DTLB_demand_access 12202437
Core_0_DTLB_demand_hit 12105356
Core_0_DTLB_demand_miss 97081
Core_0_DTLB_demand_MPKI 1.94162
Core_0_DTLB_demand_miss_rate 0.00795587
Core_0_DTLB_load_access 12202437
Core_0_DTLB_load_hit 12105356
Core_0_DTLB_load_miss 97081
Core_0_DTLB_load_MPKI 1.94162
Core_0_DTLB_load_miss_rate 0.00795587
Core_0_DTLB_rfo_access 0
Core_0_DTLB_rfo_hit 0
Core_0_DTLB_rfo_miss 0
Core_0_DTLB_rfo_MPKI 0
Core_0_DTLB_rfo_miss_rate 0
Core_0_DTLB_prefetch_access 0
Core_0_DTLB_prefetch_hit 0
Core_0_DTLB_prefetch_miss 0
Core_0_DTLB_prefetch_MPKI 0
Core_0_DTLB_prefetch_miss_rate 0
Core_0_DTLB_writeback_access 0
Core_0_DTLB_writeback_hit 0
Core_0_DTLB_writeback_miss 0
Core_0_DTLB_writeback_MPKI 0
Core_0_DTLB_writeback_miss_rate 0
Core_0_DTLB_prefetch_requested 0
Core_0_DTLB_prefetch_issued 0
Core_0_DTLB_prefetch_useful 0
Core_0_DTLB_prefetch_useless 0
Core_0_DTLB_prefetch_late 0
Core_0_DTLB_prefetch_accuracy 0
Core_0_DTLB_prefetch_coverage 0

Core_0_STLB_total_access 21703
Core_0_STLB_total_hit 11149
Core_0_STLB_total_miss 10554
Core_0_STLB_total_MPKI 0.21108
Core_0_STLB_total_miss_rate 0.486292
Core_0_STLB_demand_access 21703
Core_0_STLB_demand_hit 11149
Core_0_STLB_demand_miss 10554
Core_0_STLB_demand_MPKI 0.21108
Core_0_STLB_demand_miss_rate 0.486292
Core_0_STLB_load_access 21703
Core_0_STLB_load_hit 11149
Core_0_STLB_load_miss 10554
Core_0_STLB_load_MPKI 0.21108
Core_0_STLB_load_miss_rate 0.486292
Core_0_STLB_rfo_access 0
Core_0_STLB_rfo_hit 0
Core_0_STLB_rfo_miss 0
Core_0_STLB_rfo_MPKI 0
Core_0_STLB_rfo_miss_rate 0
Core_0_STLB_prefetch_access 0
Core_0_STLB_prefetch_hit 0
Core_0_STLB_prefetch_miss 0
Core_0_STLB_prefetch_MPKI 0
Core_0_STLB_prefetch_miss_rate 0
Core_0_STLB_writeback_access 0
Core_0_STLB_writeback_hit 0
Core_0_STLB_writeback_miss 0
Core_0_STLB_writeback_MPKI 0
Core_0_STLB_writeback_miss_rate 0
Core_0_STLB_prefetch_requested 0
Core_0_STLB_prefetch_issued 0
Core_0_STLB_prefetch_useful 0
Core_0_STLB_prefetch_useless 0
Core_0_STLB_prefetch_late 0
Core_0_STLB_prefetch_accuracy 0
Core_0_STLB_prefetch_coverage 0

Core_0_L1I_total_access 7820569
Core_0_L1I_total_hit 7820564
Core_0_L1I_total_miss 5
Core_0_L1I_total_MPKI 0.0001
Core_0_L1I_total_miss_rate 6.3934e-07
Core_0_L1I_demand_access 7820569
Core_0_L1I_demand_hit 7820564
Core_0_L1I_demand_miss 5
Core_0_L1I_demand_MPKI 0.0001
Core_0_L1I_demand_miss_rate 6.3934e-07
Core_0_L1I_load_access 7820569
Core_0_L1I_load_hit 7820564
Core_0_L1I_load_miss 5
Core_0_L1I_load_MPKI 0.0001
Core_0_L1I_load_miss_rate 6.3934e-07
Core_0_L1I_rfo_access 0
Core_0_L1I_rfo_hit 0
Core_0_L1I_rfo_miss 0
Core_0_L1I_rfo_MPKI 0
Core_0_L1I_rfo_miss_rate 0
Core_0_L1I_prefetch_access 0
Core_0_L1I_prefetch_hit 0
Core_0_L1I_prefetch_miss 0
Core_0_L1I_prefetch_MPKI 0
Core_0_L1I_prefetch_miss_rate 0
Core_0_L1I_writeback_access 0
Core_0_L1I_writeback_hit 0
Core_0_L1I_writeback_miss 0
Core_0_L1I_writeback_MPKI 0
Core_0_L1I_writeback_miss_rate 0
Core_0_L1I_prefetch_requested 0
Core_0_L1I_prefetch_issued 0
Core_0_L1I_prefetch_useful 0
Core_0_L1I_prefetch_useless 0
Core_0_L1I_prefetch_late 0
Core_0_L1I_prefetch_accuracy 0
Core_0_L1I_prefetch_coverage 0

Core_0_L1D_total_access 13951406
Core_0_L1D_total_hit 9927537
Core_0_L1D_total_miss 4023869
Core_0_L1D_total_MPKI 80.4774
Core_0_L1D_total_miss_rate 0.28842
Core_0_L1D_demand_access 3676445
Core_0_L1D_demand_hit 2329695
Core_0_L1D_demand_miss 1346750
Core_0_L1D_demand_MPKI 26.935
Core_0_L1D_demand_miss_rate 0.366319
Core_0_L1D_load_access 3676445
Core_0_L1D_load_hit 2329695
Core_0_L1D_load_miss 1346750
Core_0_L1D_load_MPKI 26.935
Core_0_L1D_load_miss_rate 0.366319
Core_0_L1D_rfo_access 0
Core_0_L1D_rfo_hit 0
Core_0_L1D_rfo_miss 0
Core_0_L1D_rfo_MPKI 0
Core_0_L1D_rfo_miss_rate 0
Core_0_L1D_prefetch_access 0
Core_0_L1D_prefetch_hit 0
Core_0_L1D_prefetch_miss 0
Core_0_L1D_prefetch_MPKI 0
Core_0_L1D_prefetch_miss_rate 0
Core_0_L1D_writeback_access 10274961
Core_0_L1D_writeback_hit 7597842
Core_0_L1D_writeback_miss 2677119
Core_0_L1D_writeback_MPKI 53.5424
Core_0_L1D_writeback_miss_rate 0.260548
Core_0_L1D_prefetch_requested 0
Core_0_L1D_prefetch_issued 0
Core_0_L1D_prefetch_useful 0
Core_0_L1D_prefetch_useless 0
Core_0_L1D_prefetch_late 0
Core_0_L1D_prefetch_accuracy 0
Core_0_L1D_prefetch_coverage 0

Core_0_L2C_total_access 1611081
Core_0_L2C_total_hit 731593
Core_0_L2C_total_miss 879488
Core_0_L2C_total_MPKI 17.5898
Core_0_L2C_total_miss_rate 0.545899
Core_0_L2C_demand_access 1086525
Core_0_L2C_demand_hit 207096
Core_0_L2C_demand_miss 879429
Core_0_L2C_demand_MPKI 17.5886
Core_0_L2C_demand_miss_rate 0.809396
Core_0_L2C_load_access 601112
Core_0_L2C_load_hit 173468
Core_0_L2C_load_miss 427644
Core_0_L2C_load_MPKI 8.55288
Core_0_L2C_load_miss_rate 0.711421
Core_0_L2C_rfo_access 485413
Core_0_L2C_rfo_hit 33628
Core_0_L2C_rfo_miss 451785
Core_0_L2C_rfo_MPKI 9.0357
Core_0_L2C_rfo_miss_rate 0.930723
Core_0_L2C_prefetch_access 0
Core_0_L2C_prefetch_hit 0
Core_0_L2C_prefetch_miss 0
Core_0_L2C_prefetch_MPKI 0
Core_0_L2C_prefetch_miss_rate 0
Core_0_L2C_writeback_access 524556
Core_0_L2C_writeback_hit 524497
Core_0_L2C_writeback_miss 59
Core_0_L2C_writeback_MPKI 0.00118
Core_0_L2C_writeback_miss_rate 0.000112476
Core_0_L2C_prefetch_requested 0
Core_0_L2C_prefetch_issued 0
Core_0_L2C_prefetch_useful 0
Core_0_L2C_prefetch_useless 0
Core_0_L2C_prefetch_late 0
Core_0_L2C_prefetch_accuracy 0
Core_0_L2C_prefetch_coverage 0

Core_0_LLC_total_access 1375508
Core_0_LLC_total_hit 103006
Core_0_LLC_total_miss 1272502
Core_0_LLC_total_MPKI 25.45
Core_0_LLC_total_miss_rate 0.925114
Core_0_LLC_demand_access 879429
Core_0_LLC_demand_hit 24265
Core_0_LLC_demand_miss 855164
Core_0_LLC_demand_MPKI 17.1033
Core_0_LLC_demand_miss_rate 0.972408
Core_0_LLC_load_access 427644
Core_0_LLC_load_hit 21396
Core_0_LLC_load_miss 406248
Core_0_LLC_load_MPKI 8.12496
Core_0_LLC_load_miss_rate 0.949968
Core_0_LLC_rfo_access 451785
Core_0_LLC_rfo_hit 2869
Core_0_LLC_rfo_miss 448916
Core_0_LLC_rfo_MPKI 8.97832
Core_0_LLC_rfo_miss_rate 0.99365
Core_0_LLC_prefetch_access 0
Core_0_LLC_prefetch_hit 0
Core_0_LLC_prefetch_miss 0
Core_0_LLC_prefetch_MPKI 0
Core_0_LLC_prefetch_miss_rate 0
Core_0_LLC_writeback_access 496079
Core_0_LLC_writeback_hit 78741
Core_0_LLC_writeback_miss 417338
Core_0_LLC_writeback_MPKI 8.34676
Core_0_LLC_writeback_miss_rate 0.841273
Core_0_LLC_prefetch_requested 0
Core_0_LLC_prefetch_issued 0
Core_0_LLC_prefetch_useful 0
Core_0_LLC_prefetch_useless 0
Core_0_LLC_prefetch_late 0
Core_0_LLC_prefetch_accuracy 0
Core_0_LLC_prefetch_coverage 0

[DRAM Statistics]
Channel_0_RQ_row_buffer_hit 44167
Channel_0_RQ_row_buffer_miss 812983
Channel_0_WQ_row_buffer_hit 85595
Channel_0_WQ_row_buffer_miss 409855
Channel_0_WQ_full 1527
Channel_0_dbus_congested 4382336
DRAM_total_RQ_row_buffer_hit 44167
DRAM_total_RQ_row_buffer_miss 812983
DRAM_total_WQ_row_buffer_hit 85595
DRAM_total_WQ_row_buffer_miss 409855
DRAM_total_WQ_full 1527
DRAM_total_dbus_congested 4382336
DRAM_avg_congested_cycle 7.58092

======STLB miss causes ========
Core_0_STLB_miss_cause_breakdown
Core_0_STLB_cause_Demand_Data_miss 10554
Core_0_STLB_cause_Demand_Data_miss_rate 0.486292
Core_0_STLB_cause_Demand_Instruction_miss 0
Core_0_STLB_cause_Demand_Instruction_miss_rate 0
Core_0_STLB_cause_L1D_Prefetch_miss 0
Core_0_STLB_cause_L1D_Prefetch_miss_rate 0
Core_0_STLB_cause_L1I_Prefetch_miss 0
Core_0_STLB_cause_L1I_Prefetch_miss_rate 0
Core_0_STLB_cause_Other_miss 0
Core_0_STLB_cause_Other_miss_rate 0
Core_0_STLB_Demand_miss 10554
Core_0_STLB_Demand_miss_rate 0.486292
Core_0_STLB_L1D_Prefetch_miss 0
Core_0_STLB_L1D_Prefetch_miss_rate 0
Core_0_STLB_Other_miss 0
Core_0_STLB_Other_miss_rate 0
