[VMEM] WARNING: physical memory size is smaller than virtual memory size.

*** ChampSim Multicore Out-of-Order Simulator ***
Warmup Instructions: 20000000
Simulation Instructions: 50000000
Number of CPUs: 1
Page size: 4096
STLB ideal mode: off
Core 0: /data0/tzh/champsim_traces/Ligra/ligra_Triangle.com-lj.ungraph.gcc_6.3.0_O3.drop_25000M.length_250M.champsimtrace.xz
Off-chip DRAM Size: 16 GiB Channels: 1 Width: 64-bit Data Rate: 3205 MT/s
Warmup halting CPU 0 at instruction 20000004 cycle 4376780 for remainder of phase
Warmup finished CPU 0 instructions: 20000004 cycles: 4376780 cumulative IPC: 4.57 (Simulation time: 00 hr 01 min 02 sec)
Warmup complete CPU 0 instructions: 20000004 cycles: 4376780 cumulative IPC: 4.57 (Simulation time: 00 hr 01 min 02 sec)
Simulation finished CPU 0 instructions: 50000000 cycles: 96755230 cumulative IPC: 0.5168 (Simulation time: 00 hr 11 min 22 sec)
Simulation complete CPU 0 instructions: 50000000 cycles: 96755230 cumulative IPC: 0.5168 (Simulation time: 00 hr 11 min 22 sec)

ChampSim completed all CPUs

=== Simulation ===
CPU 0 runs /data0/tzh/champsim_traces/Ligra/ligra_Triangle.com-lj.ungraph.gcc_6.3.0_O3.drop_25000M.length_250M.champsimtrace.xz

Region of Interest Statistics

CPU 0 cumulative IPC: 0.5168 instructions: 50000000 cycles: 96755230
CPU 0 Branch Prediction Accuracy: 96.95% MPKI: 8.161 Average ROB Occupancy at Mispredict: 82.38
Branch type MPKI
BRANCH_DIRECT_JUMP: 0
BRANCH_INDIRECT: 0
BRANCH_CONDITIONAL: 8.161
BRANCH_DIRECT_CALL: 0
BRANCH_INDIRECT_CALL: 0
BRANCH_RETURN: 0

cpu0->cpu0_STLB TOTAL        ACCESS:    1307418 HIT:    1301100 MISS:       6318 MSHR_MERGE:          0
cpu0->cpu0_STLB LOAD         ACCESS:    1307418 HIT:    1301100 MISS:       6318 MSHR_MERGE:          0
cpu0->cpu0_STLB RFO          ACCESS:          0 HIT:          0 MISS:          0 MSHR_MERGE:          0
cpu0->cpu0_STLB PREFETCH     ACCESS:          0 HIT:          0 MISS:          0 MSHR_MERGE:          0
cpu0->cpu0_STLB WRITE        ACCESS:          0 HIT:          0 MISS:          0 MSHR_MERGE:          0
cpu0->cpu0_STLB TRANSLATION  ACCESS:          0 HIT:          0 MISS:          0 MSHR_MERGE:          0
cpu0->cpu0_STLB PREFETCH REQUESTED:          0 ISSUED:          0 USEFUL:          0 USELESS:          0 LATE:          0
cpu0->cpu0_STLB AVERAGE MISS LATENCY: 241.5 cycles
cpu0->cpu0_L2C TOTAL        ACCESS:    2032757 HIT:     721747 MISS:    1311010 MSHR_MERGE:          0
cpu0->cpu0_L2C LOAD         ACCESS:    2023724 HIT:     713602 MISS:    1310122 MSHR_MERGE:          0
cpu0->cpu0_L2C RFO          ACCESS:       2947 HIT:       2947 MISS:          0 MSHR_MERGE:          0
cpu0->cpu0_L2C PREFETCH     ACCESS:          0 HIT:          0 MISS:          0 MSHR_MERGE:          0
cpu0->cpu0_L2C WRITE        ACCESS:       2950 HIT:       2947 MISS:          3 MSHR_MERGE:          0
cpu0->cpu0_L2C TRANSLATION  ACCESS:       3136 HIT:       2251 MISS:        885 MSHR_MERGE:          0
cpu0->cpu0_L2C PREFETCH REQUESTED:          0 ISSUED:          0 USEFUL:          0 USELESS:          0 LATE:          0
cpu0->cpu0_L2C AVERAGE MISS LATENCY: 78.72 cycles
cpu0->cpu0_L1I TOTAL        ACCESS:     328008 HIT:     328008 MISS:          0 MSHR_MERGE:          0
cpu0->cpu0_L1I LOAD         ACCESS:     328008 HIT:     328008 MISS:          0 MSHR_MERGE:          0
cpu0->cpu0_L1I RFO          ACCESS:          0 HIT:          0 MISS:          0 MSHR_MERGE:          0
cpu0->cpu0_L1I PREFETCH     ACCESS:          0 HIT:          0 MISS:          0 MSHR_MERGE:          0
cpu0->cpu0_L1I WRITE        ACCESS:          0 HIT:          0 MISS:          0 MSHR_MERGE:          0
cpu0->cpu0_L1I TRANSLATION  ACCESS:          0 HIT:          0 MISS:          0 MSHR_MERGE:          0
cpu0->cpu0_L1I PREFETCH REQUESTED:          0 ISSUED:          0 USEFUL:          0 USELESS:          0 LATE:          0
cpu0->cpu0_L1I AVERAGE MISS LATENCY: - cycles
cpu0->cpu0_L1D TOTAL        ACCESS:   12486467 HIT:    9338861 MISS:    3147606 MSHR_MERGE:    1117799
cpu0->cpu0_L1D LOAD         ACCESS:   11656234 HIT:    8514711 MISS:    3141523 MSHR_MERGE:    1117799
cpu0->cpu0_L1D RFO          ACCESS:          0 HIT:          0 MISS:          0 MSHR_MERGE:          0
cpu0->cpu0_L1D PREFETCH     ACCESS:          0 HIT:          0 MISS:          0 MSHR_MERGE:          0
cpu0->cpu0_L1D WRITE        ACCESS:     817586 HIT:     814639 MISS:       2947 MSHR_MERGE:          0
cpu0->cpu0_L1D TRANSLATION  ACCESS:      12647 HIT:       9511 MISS:       3136 MSHR_MERGE:          0
cpu0->cpu0_L1D PREFETCH REQUESTED:          0 ISSUED:          0 USEFUL:          0 USELESS:          0 LATE:          0
cpu0->cpu0_L1D AVERAGE MISS LATENCY: 59.55 cycles
cpu0->cpu0_ITLB TOTAL        ACCESS:     327553 HIT:     327553 MISS:          0 MSHR_MERGE:          0
cpu0->cpu0_ITLB LOAD         ACCESS:     327553 HIT:     327553 MISS:          0 MSHR_MERGE:          0
cpu0->cpu0_ITLB RFO          ACCESS:          0 HIT:          0 MISS:          0 MSHR_MERGE:          0
cpu0->cpu0_ITLB PREFETCH     ACCESS:          0 HIT:          0 MISS:          0 MSHR_MERGE:          0
cpu0->cpu0_ITLB WRITE        ACCESS:          0 HIT:          0 MISS:          0 MSHR_MERGE:          0
cpu0->cpu0_ITLB TRANSLATION  ACCESS:          0 HIT:          0 MISS:          0 MSHR_MERGE:          0
cpu0->cpu0_ITLB PREFETCH REQUESTED:          0 ISSUED:          0 USEFUL:          0 USELESS:          0 LATE:          0
cpu0->cpu0_ITLB AVERAGE MISS LATENCY: - cycles
cpu0->cpu0_DTLB TOTAL        ACCESS:   12454321 HIT:   11027945 MISS:    1426376 MSHR_MERGE:     118958
cpu0->cpu0_DTLB LOAD         ACCESS:   12454321 HIT:   11027945 MISS:    1426376 MSHR_MERGE:     118958
cpu0->cpu0_DTLB RFO          ACCESS:          0 HIT:          0 MISS:          0 MSHR_MERGE:          0
cpu0->cpu0_DTLB PREFETCH     ACCESS:          0 HIT:          0 MISS:          0 MSHR_MERGE:          0
cpu0->cpu0_DTLB WRITE        ACCESS:          0 HIT:          0 MISS:          0 MSHR_MERGE:          0
cpu0->cpu0_DTLB TRANSLATION  ACCESS:          0 HIT:          0 MISS:          0 MSHR_MERGE:          0
cpu0->cpu0_DTLB PREFETCH REQUESTED:          0 ISSUED:          0 USEFUL:          0 USELESS:          0 LATE:          0
cpu0->cpu0_DTLB AVERAGE MISS LATENCY: 6.172 cycles
cpu0->LLC TOTAL        ACCESS:    1311010 HIT:     845336 MISS:     465674 MSHR_MERGE:          0
cpu0->LLC LOAD         ACCESS:    1310122 HIT:     845259 MISS:     464863 MSHR_MERGE:          0
cpu0->LLC RFO          ACCESS:          0 HIT:          0 MISS:          0 MSHR_MERGE:          0
cpu0->LLC PREFETCH     ACCESS:          0 HIT:          0 MISS:          0 MSHR_MERGE:          0
cpu0->LLC WRITE        ACCESS:          3 HIT:          0 MISS:          3 MSHR_MERGE:          0
cpu0->LLC TRANSLATION  ACCESS:        885 HIT:         77 MISS:        808 MSHR_MERGE:          0
cpu0->LLC PREFETCH REQUESTED:          0 ISSUED:          0 USEFUL:          0 USELESS:          0 LATE:          0
cpu0->LLC AVERAGE MISS LATENCY: 178.4 cycles

DRAM Statistics

Channel 0 RQ ROW_BUFFER_HIT:       6179
  ROW_BUFFER_MISS:     459491
  AVG DBUS CONGESTED CYCLE: 2.545
Channel 0 WQ ROW_BUFFER_HIT:          0
  ROW_BUFFER_MISS:          3
  FULL:          0
Channel 0 REFRESHES ISSUED:       8063

[ROI Statistics]
[System Configuration]
num_cpus 1
cpu_freq 4000
fetch_width 6
decode_width 6
dispatch_width 6
execute_width 6
lq_width 2
sq_width 2
retire_width 6
scheduler_size 128
branch_mispredict_penalty 15
rob_size 352
lq_size 128
sq_size 72
ifetch_buffer_size 64
decode_buffer_size 32
dispatch_buffer_size 32
register_file_size 288
decode_latency 1
dispatch_latency 1
schedule_latency 1
execute_latency 1
page_size 4096
block_size 64
core_0_itlb_set 16
core_0_itlb_way 4
core_0_itlb_rq_size 16
core_0_itlb_wq_size 16
core_0_itlb_pq_size 0
core_0_itlb_mshr_size 8
core_0_itlb_hit_latency 1
core_0_itlb_fill_latency 1
core_0_itlb_max_tag_check 2
core_0_itlb_max_fill 2
core_0_dtlb_set 16
core_0_dtlb_way 4
core_0_dtlb_rq_size 16
core_0_dtlb_wq_size 16
core_0_dtlb_pq_size 0
core_0_dtlb_mshr_size 8
core_0_dtlb_hit_latency 1
core_0_dtlb_fill_latency 1
core_0_dtlb_max_tag_check 2
core_0_dtlb_max_fill 2
core_0_stlb_set 128
core_0_stlb_way 12
core_0_stlb_rq_size 32
core_0_stlb_wq_size 32
core_0_stlb_pq_size 0
core_0_stlb_mshr_size 16
core_0_stlb_hit_latency 4
core_0_stlb_fill_latency 4
core_0_stlb_max_tag_check 1
core_0_stlb_max_fill 1
core_0_l1i_set 64
core_0_l1i_way 8
core_0_l1i_rq_size 64
core_0_l1i_wq_size 64
core_0_l1i_pq_size 32
core_0_l1i_mshr_size 8
core_0_l1i_hit_latency 2
core_0_l1i_fill_latency 2
core_0_l1i_max_tag_check 2
core_0_l1i_max_fill 2
core_0_l1d_set 64
core_0_l1d_way 12
core_0_l1d_rq_size 64
core_0_l1d_wq_size 64
core_0_l1d_pq_size 8
core_0_l1d_mshr_size 16
core_0_l1d_hit_latency 2
core_0_l1d_fill_latency 3
core_0_l1d_max_tag_check 2
core_0_l1d_max_fill 2
core_0_l2c_set 1024
core_0_l2c_way 8
core_0_l2c_rq_size 32
core_0_l2c_wq_size 32
core_0_l2c_pq_size 16
core_0_l2c_mshr_size 32
core_0_l2c_hit_latency 5
core_0_l2c_fill_latency 5
core_0_l2c_max_tag_check 1
core_0_l2c_max_fill 1
llc_set 2048
llc_way 16
llc_rq_size 32
llc_wq_size 32
llc_pq_size 32
llc_mshr_size 64
llc_hit_latency 10
llc_fill_latency 10
llc_max_tag_check 1
llc_max_fill 1
dram_channels 1
dram_ranks 1
dram_bankgroups 8
dram_banks 4
dram_rows 65536
dram_columns 1024
dram_channel_width 8
dram_rq_size 64
dram_wq_size 64
dram_size 17179869184
core_0_itlb_prefetcher no
core_0_dtlb_prefetcher no
core_0_stlb_prefetcher no
core_0_l1i_prefetcher no
core_0_l1d_prefetcher no
core_0_l2c_prefetcher no
llc_prefetcher no
llc_replacement drrip

Core_0_instructions 50000000
Core_0_cycles 96755230
Core_0_IPC 0.516768
Core_0_branch_prediction_accuracy 96.9493
Core_0_branch_MPKI 8.16146
Core_0_average_ROB_occupancy_at_mispredict 82.3786

Core_0_ITLB_total_access 327553
Core_0_ITLB_total_hit 327553
Core_0_ITLB_total_miss 0
Core_0_ITLB_total_MPKI 0
Core_0_ITLB_total_miss_rate 0
Core_0_ITLB_demand_access 327553
Core_0_ITLB_demand_hit 327553
Core_0_ITLB_demand_miss 0
Core_0_ITLB_demand_MPKI 0
Core_0_ITLB_demand_miss_rate 0
Core_0_ITLB_load_access 327553
Core_0_ITLB_load_hit 327553
Core_0_ITLB_load_miss 0
Core_0_ITLB_load_MPKI 0
Core_0_ITLB_load_miss_rate 0
Core_0_ITLB_rfo_access 0
Core_0_ITLB_rfo_hit 0
Core_0_ITLB_rfo_miss 0
Core_0_ITLB_rfo_MPKI 0
Core_0_ITLB_rfo_miss_rate 0
Core_0_ITLB_prefetch_access 0
Core_0_ITLB_prefetch_hit 0
Core_0_ITLB_prefetch_miss 0
Core_0_ITLB_prefetch_MPKI 0
Core_0_ITLB_prefetch_miss_rate 0
Core_0_ITLB_writeback_access 0
Core_0_ITLB_writeback_hit 0
Core_0_ITLB_writeback_miss 0
Core_0_ITLB_writeback_MPKI 0
Core_0_ITLB_writeback_miss_rate 0
Core_0_ITLB_prefetch_requested 0
Core_0_ITLB_prefetch_issued 0
Core_0_ITLB_prefetch_useful 0
Core_0_ITLB_prefetch_useless 0
Core_0_ITLB_prefetch_late 0
Core_0_ITLB_prefetch_accuracy 0
Core_0_ITLB_prefetch_coverage 0

Core_0_DTLB_total_access 12454321
Core_0_DTLB_total_hit 11027945
Core_0_DTLB_total_miss 1426376
Core_0_DTLB_total_MPKI 28.5275
Core_0_DTLB_total_miss_rate 0.114529
Core_0_DTLB_demand_access 12454321
Core_0_DTLB_demand_hit 11027945
Core_0_DTLB_demand_miss 1426376
Core_0_DTLB_demand_MPKI 28.5275
Core_0_DTLB_demand_miss_rate 0.114529
Core_0_DTLB_load_access 12454321
Core_0_DTLB_load_hit 11027945
Core_0_DTLB_load_miss 1426376
Core_0_DTLB_load_MPKI 28.5275
Core_0_DTLB_load_miss_rate 0.114529
Core_0_DTLB_rfo_access 0
Core_0_DTLB_rfo_hit 0
Core_0_DTLB_rfo_miss 0
Core_0_DTLB_rfo_MPKI 0
Core_0_DTLB_rfo_miss_rate 0
Core_0_DTLB_prefetch_access 0
Core_0_DTLB_prefetch_hit 0
Core_0_DTLB_prefetch_miss 0
Core_0_DTLB_prefetch_MPKI 0
Core_0_DTLB_prefetch_miss_rate 0
Core_0_DTLB_writeback_access 0
Core_0_DTLB_writeback_hit 0
Core_0_DTLB_writeback_miss 0
Core_0_DTLB_writeback_MPKI 0
Core_0_DTLB_writeback_miss_rate 0
Core_0_DTLB_prefetch_requested 0
Core_0_DTLB_prefetch_issued 0
Core_0_DTLB_prefetch_useful 0
Core_0_DTLB_prefetch_useless 0
Core_0_DTLB_prefetch_late 0
Core_0_DTLB_prefetch_accuracy 0
Core_0_DTLB_prefetch_coverage 0

Core_0_STLB_total_access 1307418
Core_0_STLB_total_hit 1301100
Core_0_STLB_total_miss 6318
Core_0_STLB_total_MPKI 0.12636
Core_0_STLB_total_miss_rate 0.00483243
Core_0_STLB_demand_access 1307418
Core_0_STLB_demand_hit 1301100
Core_0_STLB_demand_miss 6318
Core_0_STLB_demand_MPKI 0.12636
Core_0_STLB_demand_miss_rate 0.00483243
Core_0_STLB_load_access 1307418
Core_0_STLB_load_hit 1301100
Core_0_STLB_load_miss 6318
Core_0_STLB_load_MPKI 0.12636
Core_0_STLB_load_miss_rate 0.00483243
Core_0_STLB_rfo_access 0
Core_0_STLB_rfo_hit 0
Core_0_STLB_rfo_miss 0
Core_0_STLB_rfo_MPKI 0
Core_0_STLB_rfo_miss_rate 0
Core_0_STLB_prefetch_access 0
Core_0_STLB_prefetch_hit 0
Core_0_STLB_prefetch_miss 0
Core_0_STLB_prefetch_MPKI 0
Core_0_STLB_prefetch_miss_rate 0
Core_0_STLB_writeback_access 0
Core_0_STLB_writeback_hit 0
Core_0_STLB_writeback_miss 0
Core_0_STLB_writeback_MPKI 0
Core_0_STLB_writeback_miss_rate 0
Core_0_STLB_prefetch_requested 0
Core_0_STLB_prefetch_issued 0
Core_0_STLB_prefetch_useful 0
Core_0_STLB_prefetch_useless 0
Core_0_STLB_prefetch_late 0
Core_0_STLB_prefetch_accuracy 0
Core_0_STLB_prefetch_coverage 0

Core_0_L1I_total_access 328008
Core_0_L1I_total_hit 328008
Core_0_L1I_total_miss 0
Core_0_L1I_total_MPKI 0
Core_0_L1I_total_miss_rate 0
Core_0_L1I_demand_access 328008
Core_0_L1I_demand_hit 328008
Core_0_L1I_demand_miss 0
Core_0_L1I_demand_MPKI 0
Core_0_L1I_demand_miss_rate 0
Core_0_L1I_load_access 328008
Core_0_L1I_load_hit 328008
Core_0_L1I_load_miss 0
Core_0_L1I_load_MPKI 0
Core_0_L1I_load_miss_rate 0
Core_0_L1I_rfo_access 0
Core_0_L1I_rfo_hit 0
Core_0_L1I_rfo_miss 0
Core_0_L1I_rfo_MPKI 0
Core_0_L1I_rfo_miss_rate 0
Core_0_L1I_prefetch_access 0
Core_0_L1I_prefetch_hit 0
Core_0_L1I_prefetch_miss 0
Core_0_L1I_prefetch_MPKI 0
Core_0_L1I_prefetch_miss_rate 0
Core_0_L1I_writeback_access 0
Core_0_L1I_writeback_hit 0
Core_0_L1I_writeback_miss 0
Core_0_L1I_writeback_MPKI 0
Core_0_L1I_writeback_miss_rate 0
Core_0_L1I_prefetch_requested 0
Core_0_L1I_prefetch_issued 0
Core_0_L1I_prefetch_useful 0
Core_0_L1I_prefetch_useless 0
Core_0_L1I_prefetch_late 0
Core_0_L1I_prefetch_accuracy 0
Core_0_L1I_prefetch_coverage 0

Core_0_L1D_total_access 12473820
Core_0_L1D_total_hit 9329350
Core_0_L1D_total_miss 3144470
Core_0_L1D_total_MPKI 62.8894
Core_0_L1D_total_miss_rate 0.252086
Core_0_L1D_demand_access 11656234
Core_0_L1D_demand_hit 8514711
Core_0_L1D_demand_miss 3141523
Core_0_L1D_demand_MPKI 62.8305
Core_0_L1D_demand_miss_rate 0.269514
Core_0_L1D_load_access 11656234
Core_0_L1D_load_hit 8514711
Core_0_L1D_load_miss 3141523
Core_0_L1D_load_MPKI 62.8305
Core_0_L1D_load_miss_rate 0.269514
Core_0_L1D_rfo_access 0
Core_0_L1D_rfo_hit 0
Core_0_L1D_rfo_miss 0
Core_0_L1D_rfo_MPKI 0
Core_0_L1D_rfo_miss_rate 0
Core_0_L1D_prefetch_access 0
Core_0_L1D_prefetch_hit 0
Core_0_L1D_prefetch_miss 0
Core_0_L1D_prefetch_MPKI 0
Core_0_L1D_prefetch_miss_rate 0
Core_0_L1D_writeback_access 817586
Core_0_L1D_writeback_hit 814639
Core_0_L1D_writeback_miss 2947
Core_0_L1D_writeback_MPKI 0.05894
Core_0_L1D_writeback_miss_rate 0.00360451
Core_0_L1D_prefetch_requested 0
Core_0_L1D_prefetch_issued 0
Core_0_L1D_prefetch_useful 0
Core_0_L1D_prefetch_useless 0
Core_0_L1D_prefetch_late 0
Core_0_L1D_prefetch_accuracy 0
Core_0_L1D_prefetch_coverage 0

Core_0_L2C_total_access 2029621
Core_0_L2C_total_hit 719496
Core_0_L2C_total_miss 1310125
Core_0_L2C_total_MPKI 26.2025
Core_0_L2C_total_miss_rate 0.645502
Core_0_L2C_demand_access 2026671
Core_0_L2C_demand_hit 716549
Core_0_L2C_demand_miss 1310122
Core_0_L2C_demand_MPKI 26.2024
Core_0_L2C_demand_miss_rate 0.64644
Core_0_L2C_load_access 2023724
Core_0_L2C_load_hit 713602
Core_0_L2C_load_miss 1310122
Core_0_L2C_load_MPKI 26.2024
Core_0_L2C_load_miss_rate 0.647382
Core_0_L2C_rfo_access 2947
Core_0_L2C_rfo_hit 2947
Core_0_L2C_rfo_miss 0
Core_0_L2C_rfo_MPKI 0
Core_0_L2C_rfo_miss_rate 0
Core_0_L2C_prefetch_access 0
Core_0_L2C_prefetch_hit 0
Core_0_L2C_prefetch_miss 0
Core_0_L2C_prefetch_MPKI 0
Core_0_L2C_prefetch_miss_rate 0
Core_0_L2C_writeback_access 2950
Core_0_L2C_writeback_hit 2947
Core_0_L2C_writeback_miss 3
Core_0_L2C_writeback_MPKI 6e-05
Core_0_L2C_writeback_miss_rate 0.00101695
Core_0_L2C_prefetch_requested 0
Core_0_L2C_prefetch_issued 0
Core_0_L2C_prefetch_useful 0
Core_0_L2C_prefetch_useless 0
Core_0_L2C_prefetch_late 0
Core_0_L2C_prefetch_accuracy 0
Core_0_L2C_prefetch_coverage 0

Core_0_LLC_total_access 1310125
Core_0_LLC_total_hit 845259
Core_0_LLC_total_miss 464866
Core_0_LLC_total_MPKI 9.29732
Core_0_LLC_total_miss_rate 0.354826
Core_0_LLC_demand_access 1310122
Core_0_LLC_demand_hit 845259
Core_0_LLC_demand_miss 464863
Core_0_LLC_demand_MPKI 9.29726
Core_0_LLC_demand_miss_rate 0.354824
Core_0_LLC_load_access 1310122
Core_0_LLC_load_hit 845259
Core_0_LLC_load_miss 464863
Core_0_LLC_load_MPKI 9.29726
Core_0_LLC_load_miss_rate 0.354824
Core_0_LLC_rfo_access 0
Core_0_LLC_rfo_hit 0
Core_0_LLC_rfo_miss 0
Core_0_LLC_rfo_MPKI 0
Core_0_LLC_rfo_miss_rate 0
Core_0_LLC_prefetch_access 0
Core_0_LLC_prefetch_hit 0
Core_0_LLC_prefetch_miss 0
Core_0_LLC_prefetch_MPKI 0
Core_0_LLC_prefetch_miss_rate 0
Core_0_LLC_writeback_access 3
Core_0_LLC_writeback_hit 0
Core_0_LLC_writeback_miss 3
Core_0_LLC_writeback_MPKI 6e-05
Core_0_LLC_writeback_miss_rate 1
Core_0_LLC_prefetch_requested 0
Core_0_LLC_prefetch_issued 0
Core_0_LLC_prefetch_useful 0
Core_0_LLC_prefetch_useless 0
Core_0_LLC_prefetch_late 0
Core_0_LLC_prefetch_accuracy 0
Core_0_LLC_prefetch_coverage 0

[DRAM Statistics]
Channel_0_RQ_row_buffer_hit 6179
Channel_0_RQ_row_buffer_miss 459491
Channel_0_WQ_row_buffer_hit 0
Channel_0_WQ_row_buffer_miss 3
Channel_0_WQ_full 0
Channel_0_dbus_congested 52133
DRAM_total_RQ_row_buffer_hit 6179
DRAM_total_RQ_row_buffer_miss 459491
DRAM_total_WQ_row_buffer_hit 0
DRAM_total_WQ_row_buffer_miss 3
DRAM_total_WQ_full 0
DRAM_total_dbus_congested 52133
DRAM_avg_congested_cycle 2.54453

======STLB miss causes ========
Core_0_STLB_miss_cause_breakdown
Core_0_STLB_cause_Demand_Data_miss 6318
Core_0_STLB_cause_Demand_Data_miss_rate 0.00483243
Core_0_STLB_cause_Demand_Instruction_miss 0
Core_0_STLB_cause_Demand_Instruction_miss_rate 0
Core_0_STLB_cause_L1D_Prefetch_miss 0
Core_0_STLB_cause_L1D_Prefetch_miss_rate 0
Core_0_STLB_cause_L1I_Prefetch_miss 0
Core_0_STLB_cause_L1I_Prefetch_miss_rate 0
Core_0_STLB_cause_Other_miss 0
Core_0_STLB_cause_Other_miss_rate 0
Core_0_STLB_Demand_miss 6318
Core_0_STLB_Demand_miss_rate 0.00483243
Core_0_STLB_L1D_Prefetch_miss 0
Core_0_STLB_L1D_Prefetch_miss_rate 0
Core_0_STLB_Other_miss 0
Core_0_STLB_Other_miss_rate 0
