[VMEM] WARNING: physical memory size is smaller than virtual memory size.

*** ChampSim Multicore Out-of-Order Simulator ***
Warmup Instructions: 20000000
Simulation Instructions: 50000000
Number of CPUs: 1
Page size: 4096
STLB ideal mode: off
Core 0: /data0/tzh/champsim_traces/Ligra/ligra_Radii.com-lj.ungraph.gcc_6.3.0_O3.drop_18000M.length_250M.champsimtrace.xz
Off-chip DRAM Size: 16 GiB Channels: 1 Width: 64-bit Data Rate: 3205 MT/s
Warmup halting CPU 0 at instruction 20000001 cycle 6286553 for remainder of phase
Warmup finished CPU 0 instructions: 20000001 cycles: 6286553 cumulative IPC: 3.181 (Simulation time: 00 hr 01 min 31 sec)
Warmup complete CPU 0 instructions: 20000001 cycles: 6286553 cumulative IPC: 3.181 (Simulation time: 00 hr 01 min 31 sec)
Simulation finished CPU 0 instructions: 50000002 cycles: 38290434 cumulative IPC: 1.306 (Simulation time: 00 hr 09 min 21 sec)
Simulation complete CPU 0 instructions: 50000002 cycles: 38290434 cumulative IPC: 1.306 (Simulation time: 00 hr 09 min 21 sec)

ChampSim completed all CPUs

=== Simulation ===
CPU 0 runs /data0/tzh/champsim_traces/Ligra/ligra_Radii.com-lj.ungraph.gcc_6.3.0_O3.drop_18000M.length_250M.champsimtrace.xz

Region of Interest Statistics

CPU 0 cumulative IPC: 1.306 instructions: 50000002 cycles: 38290434
CPU 0 Branch Prediction Accuracy: 99.03% MPKI: 0.9868 Average ROB Occupancy at Mispredict: 188.8
Branch type MPKI
BRANCH_DIRECT_JUMP: 0
BRANCH_INDIRECT: 0
BRANCH_CONDITIONAL: 0.9865
BRANCH_DIRECT_CALL: 0
BRANCH_INDIRECT_CALL: 0
BRANCH_RETURN: 0.00028

cpu0->cpu0_STLB TOTAL        ACCESS:      23442 HIT:      19468 MISS:       3974 MSHR_MERGE:          0
cpu0->cpu0_STLB LOAD         ACCESS:      23442 HIT:      19468 MISS:       3974 MSHR_MERGE:          0
cpu0->cpu0_STLB RFO          ACCESS:          0 HIT:          0 MISS:          0 MSHR_MERGE:          0
cpu0->cpu0_STLB PREFETCH     ACCESS:          0 HIT:          0 MISS:          0 MSHR_MERGE:          0
cpu0->cpu0_STLB WRITE        ACCESS:          0 HIT:          0 MISS:          0 MSHR_MERGE:          0
cpu0->cpu0_STLB TRANSLATION  ACCESS:          0 HIT:          0 MISS:          0 MSHR_MERGE:          0
cpu0->cpu0_STLB PREFETCH REQUESTED:          0 ISSUED:          0 USEFUL:          0 USELESS:          0 LATE:          0
cpu0->cpu0_STLB AVERAGE MISS LATENCY: 276.8 cycles
cpu0->cpu0_L2C TOTAL        ACCESS:    1801836 HIT:     788033 MISS:    1013803 MSHR_MERGE:          0
cpu0->cpu0_L2C LOAD         ACCESS:     689038 HIT:     195339 MISS:     493699 MSHR_MERGE:          0
cpu0->cpu0_L2C RFO          ACCESS:     554801 HIT:      35343 MISS:     519458 MSHR_MERGE:          0
cpu0->cpu0_L2C PREFETCH     ACCESS:          0 HIT:          0 MISS:          0 MSHR_MERGE:          0
cpu0->cpu0_L2C WRITE        ACCESS:     557135 HIT:     557050 MISS:         85 MSHR_MERGE:          0
cpu0->cpu0_L2C TRANSLATION  ACCESS:        862 HIT:        301 MISS:        561 MSHR_MERGE:          0
cpu0->cpu0_L2C PREFETCH REQUESTED:          0 ISSUED:          0 USEFUL:          0 USELESS:          0 LATE:          0
cpu0->cpu0_L2C AVERAGE MISS LATENCY: 236.9 cycles
cpu0->cpu0_L1I TOTAL        ACCESS:    5250326 HIT:    5250326 MISS:          0 MSHR_MERGE:          0
cpu0->cpu0_L1I LOAD         ACCESS:    5250326 HIT:    5250326 MISS:          0 MSHR_MERGE:          0
cpu0->cpu0_L1I RFO          ACCESS:          0 HIT:          0 MISS:          0 MSHR_MERGE:          0
cpu0->cpu0_L1I PREFETCH     ACCESS:          0 HIT:          0 MISS:          0 MSHR_MERGE:          0
cpu0->cpu0_L1I WRITE        ACCESS:          0 HIT:          0 MISS:          0 MSHR_MERGE:          0
cpu0->cpu0_L1I TRANSLATION  ACCESS:          0 HIT:          0 MISS:          0 MSHR_MERGE:          0
cpu0->cpu0_L1I PREFETCH REQUESTED:          0 ISSUED:          0 USEFUL:          0 USELESS:          0 LATE:          0
cpu0->cpu0_L1I AVERAGE MISS LATENCY: - cycles
cpu0->cpu0_L1D TOTAL        ACCESS:   13651170 HIT:    9359076 MISS:    4292094 MSHR_MERGE:    3047374
cpu0->cpu0_L1D LOAD         ACCESS:    3607650 HIT:    2173713 MISS:    1433937 MSHR_MERGE:     744897
cpu0->cpu0_L1D RFO          ACCESS:          0 HIT:          0 MISS:          0 MSHR_MERGE:          0
cpu0->cpu0_L1D PREFETCH     ACCESS:          0 HIT:          0 MISS:          0 MSHR_MERGE:          0
cpu0->cpu0_L1D WRITE        ACCESS:   10035960 HIT:    7179062 MISS:    2856898 MSHR_MERGE:    2302080
cpu0->cpu0_L1D TRANSLATION  ACCESS:       7560 HIT:       6301 MISS:       1259 MSHR_MERGE:        397
cpu0->cpu0_L1D PREFETCH REQUESTED:          0 ISSUED:          0 USEFUL:          0 USELESS:          0 LATE:          0
cpu0->cpu0_L1D AVERAGE MISS LATENCY: 201.9 cycles
cpu0->cpu0_ITLB TOTAL        ACCESS:    5169105 HIT:    5169105 MISS:          0 MSHR_MERGE:          0
cpu0->cpu0_ITLB LOAD         ACCESS:    5169105 HIT:    5169105 MISS:          0 MSHR_MERGE:          0
cpu0->cpu0_ITLB RFO          ACCESS:          0 HIT:          0 MISS:          0 MSHR_MERGE:          0
cpu0->cpu0_ITLB PREFETCH     ACCESS:          0 HIT:          0 MISS:          0 MSHR_MERGE:          0
cpu0->cpu0_ITLB WRITE        ACCESS:          0 HIT:          0 MISS:          0 MSHR_MERGE:          0
cpu0->cpu0_ITLB TRANSLATION  ACCESS:          0 HIT:          0 MISS:          0 MSHR_MERGE:          0
cpu0->cpu0_ITLB PREFETCH REQUESTED:          0 ISSUED:          0 USEFUL:          0 USELESS:          0 LATE:          0
cpu0->cpu0_ITLB AVERAGE MISS LATENCY: - cycles
cpu0->cpu0_DTLB TOTAL        ACCESS:   11914909 HIT:   11829296 MISS:      85613 MSHR_MERGE:      62171
cpu0->cpu0_DTLB LOAD         ACCESS:   11914909 HIT:   11829296 MISS:      85613 MSHR_MERGE:      62171
cpu0->cpu0_DTLB RFO          ACCESS:          0 HIT:          0 MISS:          0 MSHR_MERGE:          0
cpu0->cpu0_DTLB PREFETCH     ACCESS:          0 HIT:          0 MISS:          0 MSHR_MERGE:          0
cpu0->cpu0_DTLB WRITE        ACCESS:          0 HIT:          0 MISS:          0 MSHR_MERGE:          0
cpu0->cpu0_DTLB TRANSLATION  ACCESS:          0 HIT:          0 MISS:          0 MSHR_MERGE:          0
cpu0->cpu0_DTLB PREFETCH REQUESTED:          0 ISSUED:          0 USEFUL:          0 USELESS:          0 LATE:          0
cpu0->cpu0_DTLB AVERAGE MISS LATENCY: 52.09 cycles
cpu0->LLC TOTAL        ACCESS:    1535266 HIT:     643936 MISS:     891330 MSHR_MERGE:          0
cpu0->LLC LOAD         ACCESS:     493699 HIT:     234712 MISS:     258987 MSHR_MERGE:          0
cpu0->LLC RFO          ACCESS:     519458 HIT:     157033 MISS:     362425 MSHR_MERGE:          0
cpu0->LLC PREFETCH     ACCESS:          0 HIT:          0 MISS:          0 MSHR_MERGE:          0
cpu0->LLC WRITE        ACCESS:     521548 HIT:     252190 MISS:     269358 MSHR_MERGE:          0
cpu0->LLC TRANSLATION  ACCESS:        561 HIT:          1 MISS:        560 MSHR_MERGE:          0
cpu0->LLC PREFETCH REQUESTED:          0 ISSUED:          0 USEFUL:          0 USELESS:          0 LATE:          0
cpu0->LLC AVERAGE MISS LATENCY: 254.3 cycles

DRAM Statistics

Channel 0 RQ ROW_BUFFER_HIT:      32168
  ROW_BUFFER_MISS:     588771
  AVG DBUS CONGESTED CYCLE: 7.698
Channel 0 WQ ROW_BUFFER_HIT:      69638
  ROW_BUFFER_MISS:     310554
  FULL:       6873
Channel 0 REFRESHES ISSUED:       3191

[ROI Statistics]
[System Configuration]
num_cpus 1
cpu_freq 4000
fetch_width 6
decode_width 6
dispatch_width 6
execute_width 6
lq_width 2
sq_width 2
retire_width 6
scheduler_size 128
branch_mispredict_penalty 15
rob_size 352
lq_size 128
sq_size 72
ifetch_buffer_size 64
decode_buffer_size 32
dispatch_buffer_size 32
register_file_size 288
decode_latency 1
dispatch_latency 1
schedule_latency 1
execute_latency 1
page_size 4096
block_size 64
core_0_itlb_set 16
core_0_itlb_way 4
core_0_itlb_rq_size 16
core_0_itlb_wq_size 16
core_0_itlb_pq_size 0
core_0_itlb_mshr_size 8
core_0_itlb_hit_latency 1
core_0_itlb_fill_latency 1
core_0_itlb_max_tag_check 2
core_0_itlb_max_fill 2
core_0_dtlb_set 16
core_0_dtlb_way 4
core_0_dtlb_rq_size 16
core_0_dtlb_wq_size 16
core_0_dtlb_pq_size 0
core_0_dtlb_mshr_size 8
core_0_dtlb_hit_latency 1
core_0_dtlb_fill_latency 1
core_0_dtlb_max_tag_check 2
core_0_dtlb_max_fill 2
core_0_stlb_set 128
core_0_stlb_way 12
core_0_stlb_rq_size 32
core_0_stlb_wq_size 32
core_0_stlb_pq_size 0
core_0_stlb_mshr_size 16
core_0_stlb_hit_latency 4
core_0_stlb_fill_latency 4
core_0_stlb_max_tag_check 1
core_0_stlb_max_fill 1
core_0_l1i_set 64
core_0_l1i_way 8
core_0_l1i_rq_size 64
core_0_l1i_wq_size 64
core_0_l1i_pq_size 32
core_0_l1i_mshr_size 8
core_0_l1i_hit_latency 2
core_0_l1i_fill_latency 2
core_0_l1i_max_tag_check 2
core_0_l1i_max_fill 2
core_0_l1d_set 64
core_0_l1d_way 12
core_0_l1d_rq_size 64
core_0_l1d_wq_size 64
core_0_l1d_pq_size 8
core_0_l1d_mshr_size 16
core_0_l1d_hit_latency 2
core_0_l1d_fill_latency 3
core_0_l1d_max_tag_check 2
core_0_l1d_max_fill 2
core_0_l2c_set 1024
core_0_l2c_way 8
core_0_l2c_rq_size 32
core_0_l2c_wq_size 32
core_0_l2c_pq_size 16
core_0_l2c_mshr_size 32
core_0_l2c_hit_latency 5
core_0_l2c_fill_latency 5
core_0_l2c_max_tag_check 1
core_0_l2c_max_fill 1
llc_set 2048
llc_way 16
llc_rq_size 32
llc_wq_size 32
llc_pq_size 32
llc_mshr_size 64
llc_hit_latency 10
llc_fill_latency 10
llc_max_tag_check 1
llc_max_fill 1
dram_channels 1
dram_ranks 1
dram_bankgroups 8
dram_banks 4
dram_rows 65536
dram_columns 1024
dram_channel_width 8
dram_rq_size 64
dram_wq_size 64
dram_size 17179869184
core_0_itlb_prefetcher no
core_0_dtlb_prefetcher no
core_0_stlb_prefetcher no
core_0_l1i_prefetcher no
core_0_l1d_prefetcher no
core_0_l2c_prefetcher no
llc_prefetcher no
llc_replacement drrip

Core_0_instructions 50000002
Core_0_cycles 38290434
Core_0_IPC 1.30581
Core_0_branch_prediction_accuracy 99.0279
Core_0_branch_MPKI 0.9868
Core_0_average_ROB_occupancy_at_mispredict 188.821

Core_0_ITLB_total_access 5169105
Core_0_ITLB_total_hit 5169105
Core_0_ITLB_total_miss 0
Core_0_ITLB_total_MPKI 0
Core_0_ITLB_total_miss_rate 0
Core_0_ITLB_demand_access 5169105
Core_0_ITLB_demand_hit 5169105
Core_0_ITLB_demand_miss 0
Core_0_ITLB_demand_MPKI 0
Core_0_ITLB_demand_miss_rate 0
Core_0_ITLB_load_access 5169105
Core_0_ITLB_load_hit 5169105
Core_0_ITLB_load_miss 0
Core_0_ITLB_load_MPKI 0
Core_0_ITLB_load_miss_rate 0
Core_0_ITLB_rfo_access 0
Core_0_ITLB_rfo_hit 0
Core_0_ITLB_rfo_miss 0
Core_0_ITLB_rfo_MPKI 0
Core_0_ITLB_rfo_miss_rate 0
Core_0_ITLB_prefetch_access 0
Core_0_ITLB_prefetch_hit 0
Core_0_ITLB_prefetch_miss 0
Core_0_ITLB_prefetch_MPKI 0
Core_0_ITLB_prefetch_miss_rate 0
Core_0_ITLB_writeback_access 0
Core_0_ITLB_writeback_hit 0
Core_0_ITLB_writeback_miss 0
Core_0_ITLB_writeback_MPKI 0
Core_0_ITLB_writeback_miss_rate 0
Core_0_ITLB_prefetch_requested 0
Core_0_ITLB_prefetch_issued 0
Core_0_ITLB_prefetch_useful 0
Core_0_ITLB_prefetch_useless 0
Core_0_ITLB_prefetch_late 0
Core_0_ITLB_prefetch_accuracy 0
Core_0_ITLB_prefetch_coverage 0

Core_0_DTLB_total_access 11914909
Core_0_DTLB_total_hit 11829296
Core_0_DTLB_total_miss 85613
Core_0_DTLB_total_MPKI 1.71226
Core_0_DTLB_total_miss_rate 0.00718537
Core_0_DTLB_demand_access 11914909
Core_0_DTLB_demand_hit 11829296
Core_0_DTLB_demand_miss 85613
Core_0_DTLB_demand_MPKI 1.71226
Core_0_DTLB_demand_miss_rate 0.00718537
Core_0_DTLB_load_access 11914909
Core_0_DTLB_load_hit 11829296
Core_0_DTLB_load_miss 85613
Core_0_DTLB_load_MPKI 1.71226
Core_0_DTLB_load_miss_rate 0.00718537
Core_0_DTLB_rfo_access 0
Core_0_DTLB_rfo_hit 0
Core_0_DTLB_rfo_miss 0
Core_0_DTLB_rfo_MPKI 0
Core_0_DTLB_rfo_miss_rate 0
Core_0_DTLB_prefetch_access 0
Core_0_DTLB_prefetch_hit 0
Core_0_DTLB_prefetch_miss 0
Core_0_DTLB_prefetch_MPKI 0
Core_0_DTLB_prefetch_miss_rate 0
Core_0_DTLB_writeback_access 0
Core_0_DTLB_writeback_hit 0
Core_0_DTLB_writeback_miss 0
Core_0_DTLB_writeback_MPKI 0
Core_0_DTLB_writeback_miss_rate 0
Core_0_DTLB_prefetch_requested 0
Core_0_DTLB_prefetch_issued 0
Core_0_DTLB_prefetch_useful 0
Core_0_DTLB_prefetch_useless 0
Core_0_DTLB_prefetch_late 0
Core_0_DTLB_prefetch_accuracy 0
Core_0_DTLB_prefetch_coverage 0

Core_0_STLB_total_access 23442
Core_0_STLB_total_hit 19468
Core_0_STLB_total_miss 3974
Core_0_STLB_total_MPKI 0.07948
Core_0_STLB_total_miss_rate 0.169525
Core_0_STLB_demand_access 23442
Core_0_STLB_demand_hit 19468
Core_0_STLB_demand_miss 3974
Core_0_STLB_demand_MPKI 0.07948
Core_0_STLB_demand_miss_rate 0.169525
Core_0_STLB_load_access 23442
Core_0_STLB_load_hit 19468
Core_0_STLB_load_miss 3974
Core_0_STLB_load_MPKI 0.07948
Core_0_STLB_load_miss_rate 0.169525
Core_0_STLB_rfo_access 0
Core_0_STLB_rfo_hit 0
Core_0_STLB_rfo_miss 0
Core_0_STLB_rfo_MPKI 0
Core_0_STLB_rfo_miss_rate 0
Core_0_STLB_prefetch_access 0
Core_0_STLB_prefetch_hit 0
Core_0_STLB_prefetch_miss 0
Core_0_STLB_prefetch_MPKI 0
Core_0_STLB_prefetch_miss_rate 0
Core_0_STLB_writeback_access 0
Core_0_STLB_writeback_hit 0
Core_0_STLB_writeback_miss 0
Core_0_STLB_writeback_MPKI 0
Core_0_STLB_writeback_miss_rate 0
Core_0_STLB_prefetch_requested 0
Core_0_STLB_prefetch_issued 0
Core_0_STLB_prefetch_useful 0
Core_0_STLB_prefetch_useless 0
Core_0_STLB_prefetch_late 0
Core_0_STLB_prefetch_accuracy 0
Core_0_STLB_prefetch_coverage 0

Core_0_L1I_total_access 5250326
Core_0_L1I_total_hit 5250326
Core_0_L1I_total_miss 0
Core_0_L1I_total_MPKI 0
Core_0_L1I_total_miss_rate 0
Core_0_L1I_demand_access 5250326
Core_0_L1I_demand_hit 5250326
Core_0_L1I_demand_miss 0
Core_0_L1I_demand_MPKI 0
Core_0_L1I_demand_miss_rate 0
Core_0_L1I_load_access 5250326
Core_0_L1I_load_hit 5250326
Core_0_L1I_load_miss 0
Core_0_L1I_load_MPKI 0
Core_0_L1I_load_miss_rate 0
Core_0_L1I_rfo_access 0
Core_0_L1I_rfo_hit 0
Core_0_L1I_rfo_miss 0
Core_0_L1I_rfo_MPKI 0
Core_0_L1I_rfo_miss_rate 0
Core_0_L1I_prefetch_access 0
Core_0_L1I_prefetch_hit 0
Core_0_L1I_prefetch_miss 0
Core_0_L1I_prefetch_MPKI 0
Core_0_L1I_prefetch_miss_rate 0
Core_0_L1I_writeback_access 0
Core_0_L1I_writeback_hit 0
Core_0_L1I_writeback_miss 0
Core_0_L1I_writeback_MPKI 0
Core_0_L1I_writeback_miss_rate 0
Core_0_L1I_prefetch_requested 0
Core_0_L1I_prefetch_issued 0
Core_0_L1I_prefetch_useful 0
Core_0_L1I_prefetch_useless 0
Core_0_L1I_prefetch_late 0
Core_0_L1I_prefetch_accuracy 0
Core_0_L1I_prefetch_coverage 0

Core_0_L1D_total_access 13643610
Core_0_L1D_total_hit 9352775
Core_0_L1D_total_miss 4290835
Core_0_L1D_total_MPKI 85.8167
Core_0_L1D_total_miss_rate 0.314494
Core_0_L1D_demand_access 3607650
Core_0_L1D_demand_hit 2173713
Core_0_L1D_demand_miss 1433937
Core_0_L1D_demand_MPKI 28.6787
Core_0_L1D_demand_miss_rate 0.397471
Core_0_L1D_load_access 3607650
Core_0_L1D_load_hit 2173713
Core_0_L1D_load_miss 1433937
Core_0_L1D_load_MPKI 28.6787
Core_0_L1D_load_miss_rate 0.397471
Core_0_L1D_rfo_access 0
Core_0_L1D_rfo_hit 0
Core_0_L1D_rfo_miss 0
Core_0_L1D_rfo_MPKI 0
Core_0_L1D_rfo_miss_rate 0
Core_0_L1D_prefetch_access 0
Core_0_L1D_prefetch_hit 0
Core_0_L1D_prefetch_miss 0
Core_0_L1D_prefetch_MPKI 0
Core_0_L1D_prefetch_miss_rate 0
Core_0_L1D_writeback_access 10035960
Core_0_L1D_writeback_hit 7179062
Core_0_L1D_writeback_miss 2856898
Core_0_L1D_writeback_MPKI 57.138
Core_0_L1D_writeback_miss_rate 0.284666
Core_0_L1D_prefetch_requested 0
Core_0_L1D_prefetch_issued 0
Core_0_L1D_prefetch_useful 0
Core_0_L1D_prefetch_useless 0
Core_0_L1D_prefetch_late 0
Core_0_L1D_prefetch_accuracy 0
Core_0_L1D_prefetch_coverage 0

Core_0_L2C_total_access 1800974
Core_0_L2C_total_hit 787732
Core_0_L2C_total_miss 1013242
Core_0_L2C_total_MPKI 20.2648
Core_0_L2C_total_miss_rate 0.562608
Core_0_L2C_demand_access 1243839
Core_0_L2C_demand_hit 230682
Core_0_L2C_demand_miss 1013157
Core_0_L2C_demand_MPKI 20.2631
Core_0_L2C_demand_miss_rate 0.81454
Core_0_L2C_load_access 689038
Core_0_L2C_load_hit 195339
Core_0_L2C_load_miss 493699
Core_0_L2C_load_MPKI 9.87398
Core_0_L2C_load_miss_rate 0.716505
Core_0_L2C_rfo_access 554801
Core_0_L2C_rfo_hit 35343
Core_0_L2C_rfo_miss 519458
Core_0_L2C_rfo_MPKI 10.3892
Core_0_L2C_rfo_miss_rate 0.936296
Core_0_L2C_prefetch_access 0
Core_0_L2C_prefetch_hit 0
Core_0_L2C_prefetch_miss 0
Core_0_L2C_prefetch_MPKI 0
Core_0_L2C_prefetch_miss_rate 0
Core_0_L2C_writeback_access 557135
Core_0_L2C_writeback_hit 557050
Core_0_L2C_writeback_miss 85
Core_0_L2C_writeback_MPKI 0.0017
Core_0_L2C_writeback_miss_rate 0.000152566
Core_0_L2C_prefetch_requested 0
Core_0_L2C_prefetch_issued 0
Core_0_L2C_prefetch_useful 0
Core_0_L2C_prefetch_useless 0
Core_0_L2C_prefetch_late 0
Core_0_L2C_prefetch_accuracy 0
Core_0_L2C_prefetch_coverage 0

Core_0_LLC_total_access 1534705
Core_0_LLC_total_hit 643935
Core_0_LLC_total_miss 890770
Core_0_LLC_total_MPKI 17.8154
Core_0_LLC_total_miss_rate 0.580418
Core_0_LLC_demand_access 1013157
Core_0_LLC_demand_hit 391745
Core_0_LLC_demand_miss 621412
Core_0_LLC_demand_MPKI 12.4282
Core_0_LLC_demand_miss_rate 0.613342
Core_0_LLC_load_access 493699
Core_0_LLC_load_hit 234712
Core_0_LLC_load_miss 258987
Core_0_LLC_load_MPKI 5.17974
Core_0_LLC_load_miss_rate 0.524585
Core_0_LLC_rfo_access 519458
Core_0_LLC_rfo_hit 157033
Core_0_LLC_rfo_miss 362425
Core_0_LLC_rfo_MPKI 7.2485
Core_0_LLC_rfo_miss_rate 0.697698
Core_0_LLC_prefetch_access 0
Core_0_LLC_prefetch_hit 0
Core_0_LLC_prefetch_miss 0
Core_0_LLC_prefetch_MPKI 0
Core_0_LLC_prefetch_miss_rate 0
Core_0_LLC_writeback_access 521548
Core_0_LLC_writeback_hit 252190
Core_0_LLC_writeback_miss 269358
Core_0_LLC_writeback_MPKI 5.38716
Core_0_LLC_writeback_miss_rate 0.516459
Core_0_LLC_prefetch_requested 0
Core_0_LLC_prefetch_issued 0
Core_0_LLC_prefetch_useful 0
Core_0_LLC_prefetch_useless 0
Core_0_LLC_prefetch_late 0
Core_0_LLC_prefetch_accuracy 0
Core_0_LLC_prefetch_coverage 0

[DRAM Statistics]
Channel_0_RQ_row_buffer_hit 32168
Channel_0_RQ_row_buffer_miss 588771
Channel_0_WQ_row_buffer_hit 69638
Channel_0_WQ_row_buffer_miss 310554
Channel_0_WQ_full 6873
Channel_0_dbus_congested 3231703
DRAM_total_RQ_row_buffer_hit 32168
DRAM_total_RQ_row_buffer_miss 588771
DRAM_total_WQ_row_buffer_hit 69638
DRAM_total_WQ_row_buffer_miss 310554
DRAM_total_WQ_full 6873
DRAM_total_dbus_congested 3231703
DRAM_avg_congested_cycle 7.69779

======STLB miss causes ========
Core_0_STLB_miss_cause_breakdown
Core_0_STLB_cause_Demand_Data_miss 3974
Core_0_STLB_cause_Demand_Data_miss_rate 0.169525
Core_0_STLB_cause_Demand_Instruction_miss 0
Core_0_STLB_cause_Demand_Instruction_miss_rate 0
Core_0_STLB_cause_L1D_Prefetch_miss 0
Core_0_STLB_cause_L1D_Prefetch_miss_rate 0
Core_0_STLB_cause_L1I_Prefetch_miss 0
Core_0_STLB_cause_L1I_Prefetch_miss_rate 0
Core_0_STLB_cause_Other_miss 0
Core_0_STLB_cause_Other_miss_rate 0
Core_0_STLB_Demand_miss 3974
Core_0_STLB_Demand_miss_rate 0.169525
Core_0_STLB_L1D_Prefetch_miss 0
Core_0_STLB_L1D_Prefetch_miss_rate 0
Core_0_STLB_Other_miss 0
Core_0_STLB_Other_miss_rate 0
