[VMEM] WARNING: physical memory size is smaller than virtual memory size.

*** ChampSim Multicore Out-of-Order Simulator ***
Warmup Instructions: 20000000
Simulation Instructions: 50000000
Number of CPUs: 1
Page size: 4096
STLB ideal mode: off
Core 0: /data0/tzh/champsim_traces/Ligra/ligra_Radii.com-lj.ungraph.gcc_6.3.0_O3.drop_24500M.length_250M.champsimtrace.xz
Off-chip DRAM Size: 16 GiB Channels: 1 Width: 64-bit Data Rate: 3205 MT/s
Warmup halting CPU 0 at instruction 20000002 cycle 5081254 for remainder of phase
Warmup finished CPU 0 instructions: 20000002 cycles: 5081254 cumulative IPC: 3.936 (Simulation time: 00 hr 00 min 59 sec)
Warmup complete CPU 0 instructions: 20000002 cycles: 5081254 cumulative IPC: 3.936 (Simulation time: 00 hr 00 min 59 sec)
Simulation finished CPU 0 instructions: 50000002 cycles: 79441061 cumulative IPC: 0.6294 (Simulation time: 00 hr 12 min 12 sec)
Simulation complete CPU 0 instructions: 50000002 cycles: 79441061 cumulative IPC: 0.6294 (Simulation time: 00 hr 12 min 12 sec)

ChampSim completed all CPUs

=== Simulation ===
CPU 0 runs /data0/tzh/champsim_traces/Ligra/ligra_Radii.com-lj.ungraph.gcc_6.3.0_O3.drop_24500M.length_250M.champsimtrace.xz

Region of Interest Statistics

CPU 0 cumulative IPC: 0.6294 instructions: 50000002 cycles: 79441061
CPU 0 Branch Prediction Accuracy: 96.27% MPKI: 10.3 Average ROB Occupancy at Mispredict: 52.06
Branch type MPKI
BRANCH_DIRECT_JUMP: 0.00032
BRANCH_INDIRECT: 0
BRANCH_CONDITIONAL: 10.3
BRANCH_DIRECT_CALL: 0.00024
BRANCH_INDIRECT_CALL: 0
BRANCH_RETURN: 0.00026

cpu0->cpu0_STLB TOTAL        ACCESS:      28531 HIT:       1023 MISS:      27508 MSHR_MERGE:          0
cpu0->cpu0_STLB LOAD         ACCESS:      28531 HIT:       1023 MISS:      27508 MSHR_MERGE:          0
cpu0->cpu0_STLB RFO          ACCESS:          0 HIT:          0 MISS:          0 MSHR_MERGE:          0
cpu0->cpu0_STLB PREFETCH     ACCESS:          0 HIT:          0 MISS:          0 MSHR_MERGE:          0
cpu0->cpu0_STLB WRITE        ACCESS:          0 HIT:          0 MISS:          0 MSHR_MERGE:          0
cpu0->cpu0_STLB TRANSLATION  ACCESS:          0 HIT:          0 MISS:          0 MSHR_MERGE:          0
cpu0->cpu0_STLB PREFETCH REQUESTED:          0 ISSUED:          0 USEFUL:          0 USELESS:          0 LATE:          0
cpu0->cpu0_STLB AVERAGE MISS LATENCY: 269.4 cycles
cpu0->cpu0_L2C TOTAL        ACCESS:    1408126 HIT:     449262 MISS:     958864 MSHR_MERGE:          0
cpu0->cpu0_L2C LOAD         ACCESS:     972992 HIT:     232347 MISS:     740645 MSHR_MERGE:          0
cpu0->cpu0_L2C RFO          ACCESS:     215005 HIT:        550 MISS:     214455 MSHR_MERGE:          0
cpu0->cpu0_L2C PREFETCH     ACCESS:          0 HIT:          0 MISS:          0 MSHR_MERGE:          0
cpu0->cpu0_L2C WRITE        ACCESS:     215203 HIT:     215201 MISS:          2 MSHR_MERGE:          0
cpu0->cpu0_L2C TRANSLATION  ACCESS:       4926 HIT:       1164 MISS:       3762 MSHR_MERGE:          0
cpu0->cpu0_L2C PREFETCH REQUESTED:          0 ISSUED:          0 USEFUL:          0 USELESS:          0 LATE:          0
cpu0->cpu0_L2C AVERAGE MISS LATENCY: 295.3 cycles
cpu0->cpu0_L1I TOTAL        ACCESS:    3945021 HIT:    3944946 MISS:         75 MSHR_MERGE:          9
cpu0->cpu0_L1I LOAD         ACCESS:    3945021 HIT:    3944946 MISS:         75 MSHR_MERGE:          9
cpu0->cpu0_L1I RFO          ACCESS:          0 HIT:          0 MISS:          0 MSHR_MERGE:          0
cpu0->cpu0_L1I PREFETCH     ACCESS:          0 HIT:          0 MISS:          0 MSHR_MERGE:          0
cpu0->cpu0_L1I WRITE        ACCESS:          0 HIT:          0 MISS:          0 MSHR_MERGE:          0
cpu0->cpu0_L1I TRANSLATION  ACCESS:          0 HIT:          0 MISS:          0 MSHR_MERGE:          0
cpu0->cpu0_L1I PREFETCH REQUESTED:          0 ISSUED:          0 USEFUL:          0 USELESS:          0 LATE:          0
cpu0->cpu0_L1I AVERAGE MISS LATENCY: 233.3 cycles
cpu0->cpu0_L1D TOTAL        ACCESS:   11678511 HIT:    6923647 MISS:    4754864 MSHR_MERGE:    3562005
cpu0->cpu0_L1D LOAD         ACCESS:    8817770 HIT:    6105937 MISS:    2711833 MSHR_MERGE:    1738907
cpu0->cpu0_L1D RFO          ACCESS:          0 HIT:          0 MISS:          0 MSHR_MERGE:          0
cpu0->cpu0_L1D PREFETCH     ACCESS:          0 HIT:          0 MISS:          0 MSHR_MERGE:          0
cpu0->cpu0_L1D WRITE        ACCESS:    2806257 HIT:     768832 MISS:    2037425 MSHR_MERGE:    1822418
cpu0->cpu0_L1D TRANSLATION  ACCESS:      54484 HIT:      48878 MISS:       5606 MSHR_MERGE:        680
cpu0->cpu0_L1D PREFETCH REQUESTED:          0 ISSUED:          0 USEFUL:          0 USELESS:          0 LATE:          0
cpu0->cpu0_L1D AVERAGE MISS LATENCY: 246.3 cycles
cpu0->cpu0_ITLB TOTAL        ACCESS:    3177391 HIT:    3177386 MISS:          5 MSHR_MERGE:          2
cpu0->cpu0_ITLB LOAD         ACCESS:    3177391 HIT:    3177386 MISS:          5 MSHR_MERGE:          2
cpu0->cpu0_ITLB RFO          ACCESS:          0 HIT:          0 MISS:          0 MSHR_MERGE:          0
cpu0->cpu0_ITLB PREFETCH     ACCESS:          0 HIT:          0 MISS:          0 MSHR_MERGE:          0
cpu0->cpu0_ITLB WRITE        ACCESS:          0 HIT:          0 MISS:          0 MSHR_MERGE:          0
cpu0->cpu0_ITLB TRANSLATION  ACCESS:          0 HIT:          0 MISS:          0 MSHR_MERGE:          0
cpu0->cpu0_ITLB PREFETCH REQUESTED:          0 ISSUED:          0 USEFUL:          0 USELESS:          0 LATE:          0
cpu0->cpu0_ITLB AVERAGE MISS LATENCY: 557.3 cycles
cpu0->cpu0_DTLB TOTAL        ACCESS:   11280567 HIT:   11036259 MISS:     244308 MSHR_MERGE:     215780
cpu0->cpu0_DTLB LOAD         ACCESS:   11280567 HIT:   11036259 MISS:     244308 MSHR_MERGE:     215780
cpu0->cpu0_DTLB RFO          ACCESS:          0 HIT:          0 MISS:          0 MSHR_MERGE:          0
cpu0->cpu0_DTLB PREFETCH     ACCESS:          0 HIT:          0 MISS:          0 MSHR_MERGE:          0
cpu0->cpu0_DTLB WRITE        ACCESS:          0 HIT:          0 MISS:          0 MSHR_MERGE:          0
cpu0->cpu0_DTLB TRANSLATION  ACCESS:          0 HIT:          0 MISS:          0 MSHR_MERGE:          0
cpu0->cpu0_DTLB PREFETCH REQUESTED:          0 ISSUED:          0 USEFUL:          0 USELESS:          0 LATE:          0
cpu0->cpu0_DTLB AVERAGE MISS LATENCY: 265.7 cycles
cpu0->LLC TOTAL        ACCESS:    1174521 HIT:      44748 MISS:    1129773 MSHR_MERGE:          0
cpu0->LLC LOAD         ACCESS:     740645 HIT:       8908 MISS:     731737 MSHR_MERGE:          0
cpu0->LLC RFO          ACCESS:     214455 HIT:         61 MISS:     214394 MSHR_MERGE:          0
cpu0->LLC PREFETCH     ACCESS:          0 HIT:          0 MISS:          0 MSHR_MERGE:          0
cpu0->LLC WRITE        ACCESS:     215659 HIT:      35767 MISS:     179892 MSHR_MERGE:          0
cpu0->LLC TRANSLATION  ACCESS:       3762 HIT:         12 MISS:       3750 MSHR_MERGE:          0
cpu0->LLC PREFETCH REQUESTED:          0 ISSUED:          0 USEFUL:          0 USELESS:          0 LATE:          0
cpu0->LLC AVERAGE MISS LATENCY: 238.4 cycles

DRAM Statistics

Channel 0 RQ ROW_BUFFER_HIT:      87391
  ROW_BUFFER_MISS:     862481
  AVG DBUS CONGESTED CYCLE: 10.39
Channel 0 WQ ROW_BUFFER_HIT:      26316
  ROW_BUFFER_MISS:     186068
  FULL:          0
Channel 0 REFRESHES ISSUED:       6620

[ROI Statistics]
[System Configuration]
num_cpus 1
cpu_freq 4000
fetch_width 6
decode_width 6
dispatch_width 6
execute_width 6
lq_width 2
sq_width 2
retire_width 6
scheduler_size 128
branch_mispredict_penalty 15
rob_size 352
lq_size 128
sq_size 72
ifetch_buffer_size 64
decode_buffer_size 32
dispatch_buffer_size 32
register_file_size 288
decode_latency 1
dispatch_latency 1
schedule_latency 1
execute_latency 1
page_size 4096
block_size 64
core_0_itlb_set 16
core_0_itlb_way 4
core_0_itlb_rq_size 16
core_0_itlb_wq_size 16
core_0_itlb_pq_size 0
core_0_itlb_mshr_size 8
core_0_itlb_hit_latency 1
core_0_itlb_fill_latency 1
core_0_itlb_max_tag_check 2
core_0_itlb_max_fill 2
core_0_dtlb_set 16
core_0_dtlb_way 4
core_0_dtlb_rq_size 16
core_0_dtlb_wq_size 16
core_0_dtlb_pq_size 0
core_0_dtlb_mshr_size 8
core_0_dtlb_hit_latency 1
core_0_dtlb_fill_latency 1
core_0_dtlb_max_tag_check 2
core_0_dtlb_max_fill 2
core_0_stlb_set 128
core_0_stlb_way 12
core_0_stlb_rq_size 32
core_0_stlb_wq_size 32
core_0_stlb_pq_size 0
core_0_stlb_mshr_size 16
core_0_stlb_hit_latency 4
core_0_stlb_fill_latency 4
core_0_stlb_max_tag_check 1
core_0_stlb_max_fill 1
core_0_l1i_set 64
core_0_l1i_way 8
core_0_l1i_rq_size 64
core_0_l1i_wq_size 64
core_0_l1i_pq_size 32
core_0_l1i_mshr_size 8
core_0_l1i_hit_latency 2
core_0_l1i_fill_latency 2
core_0_l1i_max_tag_check 2
core_0_l1i_max_fill 2
core_0_l1d_set 64
core_0_l1d_way 12
core_0_l1d_rq_size 64
core_0_l1d_wq_size 64
core_0_l1d_pq_size 8
core_0_l1d_mshr_size 16
core_0_l1d_hit_latency 2
core_0_l1d_fill_latency 3
core_0_l1d_max_tag_check 2
core_0_l1d_max_fill 2
core_0_l2c_set 1024
core_0_l2c_way 8
core_0_l2c_rq_size 32
core_0_l2c_wq_size 32
core_0_l2c_pq_size 16
core_0_l2c_mshr_size 32
core_0_l2c_hit_latency 5
core_0_l2c_fill_latency 5
core_0_l2c_max_tag_check 1
core_0_l2c_max_fill 1
llc_set 2048
llc_way 16
llc_rq_size 32
llc_wq_size 32
llc_pq_size 32
llc_mshr_size 64
llc_hit_latency 10
llc_fill_latency 10
llc_max_tag_check 1
llc_max_fill 1
dram_channels 1
dram_ranks 1
dram_bankgroups 8
dram_banks 4
dram_rows 65536
dram_columns 1024
dram_channel_width 8
dram_rq_size 64
dram_wq_size 64
dram_size 17179869184
core_0_itlb_prefetcher no
core_0_dtlb_prefetcher no
core_0_stlb_prefetcher no
core_0_l1i_prefetcher no
core_0_l1d_prefetcher no
core_0_l2c_prefetcher no
llc_prefetcher no
llc_replacement drrip

Core_0_instructions 50000002
Core_0_cycles 79441061
Core_0_IPC 0.629397
Core_0_branch_prediction_accuracy 96.2658
Core_0_branch_MPKI 10.3003
Core_0_average_ROB_occupancy_at_mispredict 52.058

Core_0_ITLB_total_access 3177391
Core_0_ITLB_total_hit 3177386
Core_0_ITLB_total_miss 5
Core_0_ITLB_total_MPKI 0.0001
Core_0_ITLB_total_miss_rate 1.57362e-06
Core_0_ITLB_demand_access 3177391
Core_0_ITLB_demand_hit 3177386
Core_0_ITLB_demand_miss 5
Core_0_ITLB_demand_MPKI 0.0001
Core_0_ITLB_demand_miss_rate 1.57362e-06
Core_0_ITLB_load_access 3177391
Core_0_ITLB_load_hit 3177386
Core_0_ITLB_load_miss 5
Core_0_ITLB_load_MPKI 0.0001
Core_0_ITLB_load_miss_rate 1.57362e-06
Core_0_ITLB_rfo_access 0
Core_0_ITLB_rfo_hit 0
Core_0_ITLB_rfo_miss 0
Core_0_ITLB_rfo_MPKI 0
Core_0_ITLB_rfo_miss_rate 0
Core_0_ITLB_prefetch_access 0
Core_0_ITLB_prefetch_hit 0
Core_0_ITLB_prefetch_miss 0
Core_0_ITLB_prefetch_MPKI 0
Core_0_ITLB_prefetch_miss_rate 0
Core_0_ITLB_writeback_access 0
Core_0_ITLB_writeback_hit 0
Core_0_ITLB_writeback_miss 0
Core_0_ITLB_writeback_MPKI 0
Core_0_ITLB_writeback_miss_rate 0
Core_0_ITLB_prefetch_requested 0
Core_0_ITLB_prefetch_issued 0
Core_0_ITLB_prefetch_useful 0
Core_0_ITLB_prefetch_useless 0
Core_0_ITLB_prefetch_late 0
Core_0_ITLB_prefetch_accuracy 0
Core_0_ITLB_prefetch_coverage 0

Core_0_DTLB_total_access 11280567
Core_0_DTLB_total_hit 11036259
Core_0_DTLB_total_miss 244308
Core_0_DTLB_total_MPKI 4.88616
Core_0_DTLB_total_miss_rate 0.0216574
Core_0_DTLB_demand_access 11280567
Core_0_DTLB_demand_hit 11036259
Core_0_DTLB_demand_miss 244308
Core_0_DTLB_demand_MPKI 4.88616
Core_0_DTLB_demand_miss_rate 0.0216574
Core_0_DTLB_load_access 11280567
Core_0_DTLB_load_hit 11036259
Core_0_DTLB_load_miss 244308
Core_0_DTLB_load_MPKI 4.88616
Core_0_DTLB_load_miss_rate 0.0216574
Core_0_DTLB_rfo_access 0
Core_0_DTLB_rfo_hit 0
Core_0_DTLB_rfo_miss 0
Core_0_DTLB_rfo_MPKI 0
Core_0_DTLB_rfo_miss_rate 0
Core_0_DTLB_prefetch_access 0
Core_0_DTLB_prefetch_hit 0
Core_0_DTLB_prefetch_miss 0
Core_0_DTLB_prefetch_MPKI 0
Core_0_DTLB_prefetch_miss_rate 0
Core_0_DTLB_writeback_access 0
Core_0_DTLB_writeback_hit 0
Core_0_DTLB_writeback_miss 0
Core_0_DTLB_writeback_MPKI 0
Core_0_DTLB_writeback_miss_rate 0
Core_0_DTLB_prefetch_requested 0
Core_0_DTLB_prefetch_issued 0
Core_0_DTLB_prefetch_useful 0
Core_0_DTLB_prefetch_useless 0
Core_0_DTLB_prefetch_late 0
Core_0_DTLB_prefetch_accuracy 0
Core_0_DTLB_prefetch_coverage 0

Core_0_STLB_total_access 28531
Core_0_STLB_total_hit 1023
Core_0_STLB_total_miss 27508
Core_0_STLB_total_MPKI 0.55016
Core_0_STLB_total_miss_rate 0.964144
Core_0_STLB_demand_access 28531
Core_0_STLB_demand_hit 1023
Core_0_STLB_demand_miss 27508
Core_0_STLB_demand_MPKI 0.55016
Core_0_STLB_demand_miss_rate 0.964144
Core_0_STLB_load_access 28531
Core_0_STLB_load_hit 1023
Core_0_STLB_load_miss 27508
Core_0_STLB_load_MPKI 0.55016
Core_0_STLB_load_miss_rate 0.964144
Core_0_STLB_rfo_access 0
Core_0_STLB_rfo_hit 0
Core_0_STLB_rfo_miss 0
Core_0_STLB_rfo_MPKI 0
Core_0_STLB_rfo_miss_rate 0
Core_0_STLB_prefetch_access 0
Core_0_STLB_prefetch_hit 0
Core_0_STLB_prefetch_miss 0
Core_0_STLB_prefetch_MPKI 0
Core_0_STLB_prefetch_miss_rate 0
Core_0_STLB_writeback_access 0
Core_0_STLB_writeback_hit 0
Core_0_STLB_writeback_miss 0
Core_0_STLB_writeback_MPKI 0
Core_0_STLB_writeback_miss_rate 0
Core_0_STLB_prefetch_requested 0
Core_0_STLB_prefetch_issued 0
Core_0_STLB_prefetch_useful 0
Core_0_STLB_prefetch_useless 0
Core_0_STLB_prefetch_late 0
Core_0_STLB_prefetch_accuracy 0
Core_0_STLB_prefetch_coverage 0

Core_0_L1I_total_access 3945021
Core_0_L1I_total_hit 3944946
Core_0_L1I_total_miss 75
Core_0_L1I_total_MPKI 0.0015
Core_0_L1I_total_miss_rate 1.90113e-05
Core_0_L1I_demand_access 3945021
Core_0_L1I_demand_hit 3944946
Core_0_L1I_demand_miss 75
Core_0_L1I_demand_MPKI 0.0015
Core_0_L1I_demand_miss_rate 1.90113e-05
Core_0_L1I_load_access 3945021
Core_0_L1I_load_hit 3944946
Core_0_L1I_load_miss 75
Core_0_L1I_load_MPKI 0.0015
Core_0_L1I_load_miss_rate 1.90113e-05
Core_0_L1I_rfo_access 0
Core_0_L1I_rfo_hit 0
Core_0_L1I_rfo_miss 0
Core_0_L1I_rfo_MPKI 0
Core_0_L1I_rfo_miss_rate 0
Core_0_L1I_prefetch_access 0
Core_0_L1I_prefetch_hit 0
Core_0_L1I_prefetch_miss 0
Core_0_L1I_prefetch_MPKI 0
Core_0_L1I_prefetch_miss_rate 0
Core_0_L1I_writeback_access 0
Core_0_L1I_writeback_hit 0
Core_0_L1I_writeback_miss 0
Core_0_L1I_writeback_MPKI 0
Core_0_L1I_writeback_miss_rate 0
Core_0_L1I_prefetch_requested 0
Core_0_L1I_prefetch_issued 0
Core_0_L1I_prefetch_useful 0
Core_0_L1I_prefetch_useless 0
Core_0_L1I_prefetch_late 0
Core_0_L1I_prefetch_accuracy 0
Core_0_L1I_prefetch_coverage 0

Core_0_L1D_total_access 11624027
Core_0_L1D_total_hit 6874769
Core_0_L1D_total_miss 4749258
Core_0_L1D_total_MPKI 94.9852
Core_0_L1D_total_miss_rate 0.408573
Core_0_L1D_demand_access 8817770
Core_0_L1D_demand_hit 6105937
Core_0_L1D_demand_miss 2711833
Core_0_L1D_demand_MPKI 54.2367
Core_0_L1D_demand_miss_rate 0.307542
Core_0_L1D_load_access 8817770
Core_0_L1D_load_hit 6105937
Core_0_L1D_load_miss 2711833
Core_0_L1D_load_MPKI 54.2367
Core_0_L1D_load_miss_rate 0.307542
Core_0_L1D_rfo_access 0
Core_0_L1D_rfo_hit 0
Core_0_L1D_rfo_miss 0
Core_0_L1D_rfo_MPKI 0
Core_0_L1D_rfo_miss_rate 0
Core_0_L1D_prefetch_access 0
Core_0_L1D_prefetch_hit 0
Core_0_L1D_prefetch_miss 0
Core_0_L1D_prefetch_MPKI 0
Core_0_L1D_prefetch_miss_rate 0
Core_0_L1D_writeback_access 2806257
Core_0_L1D_writeback_hit 768832
Core_0_L1D_writeback_miss 2037425
Core_0_L1D_writeback_MPKI 40.7485
Core_0_L1D_writeback_miss_rate 0.726029
Core_0_L1D_prefetch_requested 0
Core_0_L1D_prefetch_issued 0
Core_0_L1D_prefetch_useful 0
Core_0_L1D_prefetch_useless 0
Core_0_L1D_prefetch_late 0
Core_0_L1D_prefetch_accuracy 0
Core_0_L1D_prefetch_coverage 0

Core_0_L2C_total_access 1403200
Core_0_L2C_total_hit 448098
Core_0_L2C_total_miss 955102
Core_0_L2C_total_MPKI 19.102
Core_0_L2C_total_miss_rate 0.68066
Core_0_L2C_demand_access 1187997
Core_0_L2C_demand_hit 232897
Core_0_L2C_demand_miss 955100
Core_0_L2C_demand_MPKI 19.102
Core_0_L2C_demand_miss_rate 0.803958
Core_0_L2C_load_access 972992
Core_0_L2C_load_hit 232347
Core_0_L2C_load_miss 740645
Core_0_L2C_load_MPKI 14.8129
Core_0_L2C_load_miss_rate 0.761204
Core_0_L2C_rfo_access 215005
Core_0_L2C_rfo_hit 550
Core_0_L2C_rfo_miss 214455
Core_0_L2C_rfo_MPKI 4.2891
Core_0_L2C_rfo_miss_rate 0.997442
Core_0_L2C_prefetch_access 0
Core_0_L2C_prefetch_hit 0
Core_0_L2C_prefetch_miss 0
Core_0_L2C_prefetch_MPKI 0
Core_0_L2C_prefetch_miss_rate 0
Core_0_L2C_writeback_access 215203
Core_0_L2C_writeback_hit 215201
Core_0_L2C_writeback_miss 2
Core_0_L2C_writeback_MPKI 4e-05
Core_0_L2C_writeback_miss_rate 9.29355e-06
Core_0_L2C_prefetch_requested 0
Core_0_L2C_prefetch_issued 0
Core_0_L2C_prefetch_useful 0
Core_0_L2C_prefetch_useless 0
Core_0_L2C_prefetch_late 0
Core_0_L2C_prefetch_accuracy 0
Core_0_L2C_prefetch_coverage 0

Core_0_LLC_total_access 1170759
Core_0_LLC_total_hit 44736
Core_0_LLC_total_miss 1126023
Core_0_LLC_total_MPKI 22.5205
Core_0_LLC_total_miss_rate 0.961789
Core_0_LLC_demand_access 955100
Core_0_LLC_demand_hit 8969
Core_0_LLC_demand_miss 946131
Core_0_LLC_demand_MPKI 18.9226
Core_0_LLC_demand_miss_rate 0.990609
Core_0_LLC_load_access 740645
Core_0_LLC_load_hit 8908
Core_0_LLC_load_miss 731737
Core_0_LLC_load_MPKI 14.6347
Core_0_LLC_load_miss_rate 0.987973
Core_0_LLC_rfo_access 214455
Core_0_LLC_rfo_hit 61
Core_0_LLC_rfo_miss 214394
Core_0_LLC_rfo_MPKI 4.28788
Core_0_LLC_rfo_miss_rate 0.999716
Core_0_LLC_prefetch_access 0
Core_0_LLC_prefetch_hit 0
Core_0_LLC_prefetch_miss 0
Core_0_LLC_prefetch_MPKI 0
Core_0_LLC_prefetch_miss_rate 0
Core_0_LLC_writeback_access 215659
Core_0_LLC_writeback_hit 35767
Core_0_LLC_writeback_miss 179892
Core_0_LLC_writeback_MPKI 3.59784
Core_0_LLC_writeback_miss_rate 0.83415
Core_0_LLC_prefetch_requested 0
Core_0_LLC_prefetch_issued 0
Core_0_LLC_prefetch_useful 0
Core_0_LLC_prefetch_useless 0
Core_0_LLC_prefetch_late 0
Core_0_LLC_prefetch_accuracy 0
Core_0_LLC_prefetch_coverage 0

[DRAM Statistics]
Channel_0_RQ_row_buffer_hit 87391
Channel_0_RQ_row_buffer_miss 862481
Channel_0_WQ_row_buffer_hit 26316
Channel_0_WQ_row_buffer_miss 186068
Channel_0_WQ_full 0
Channel_0_dbus_congested 3043745
DRAM_total_RQ_row_buffer_hit 87391
DRAM_total_RQ_row_buffer_miss 862481
DRAM_total_WQ_row_buffer_hit 26316
DRAM_total_WQ_row_buffer_miss 186068
DRAM_total_WQ_full 0
DRAM_total_dbus_congested 3043745
DRAM_avg_congested_cycle 10.39

======STLB miss causes ========
Core_0_STLB_miss_cause_breakdown
Core_0_STLB_cause_Demand_Data_miss 27505
Core_0_STLB_cause_Demand_Data_miss_rate 0.964039
Core_0_STLB_cause_Demand_Instruction_miss 3
Core_0_STLB_cause_Demand_Instruction_miss_rate 0.000105149
Core_0_STLB_cause_L1D_Prefetch_miss 0
Core_0_STLB_cause_L1D_Prefetch_miss_rate 0
Core_0_STLB_cause_L1I_Prefetch_miss 0
Core_0_STLB_cause_L1I_Prefetch_miss_rate 0
Core_0_STLB_cause_Other_miss 0
Core_0_STLB_cause_Other_miss_rate 0
Core_0_STLB_Demand_miss 27508
Core_0_STLB_Demand_miss_rate 0.964144
Core_0_STLB_L1D_Prefetch_miss 0
Core_0_STLB_L1D_Prefetch_miss_rate 0
Core_0_STLB_Other_miss 0
Core_0_STLB_Other_miss_rate 0
