[VMEM] WARNING: physical memory size is smaller than virtual memory size.

*** ChampSim Multicore Out-of-Order Simulator ***
Warmup Instructions: 20000000
Simulation Instructions: 50000000
Number of CPUs: 1
Page size: 4096
STLB ideal mode: all
Core 0: /data0/tzh/champsim_traces/SPEC06/429.mcf-192B.champsimtrace.xz
 L1D Berti prefetcher
Off-chip DRAM Size: 16 GiB Channels: 1 Width: 64-bit Data Rate: 3205 MT/s
Warmup halting CPU 0 at instruction 20000005 cycle 4009489 for remainder of phase
Warmup finished CPU 0 instructions: 20000005 cycles: 4009489 cumulative IPC: 4.988 (Simulation time: 00 hr 01 min 37 sec)
Warmup complete CPU 0 instructions: 20000005 cycles: 4009489 cumulative IPC: 4.988 (Simulation time: 00 hr 01 min 37 sec)
Simulation finished CPU 0 instructions: 50000000 cycles: 241027005 cumulative IPC: 0.2074 (Simulation time: 00 hr 18 min 35 sec)
Simulation complete CPU 0 instructions: 50000000 cycles: 241027005 cumulative IPC: 0.2074 (Simulation time: 00 hr 18 min 35 sec)

ChampSim completed all CPUs

=== Simulation ===
CPU 0 runs /data0/tzh/champsim_traces/SPEC06/429.mcf-192B.champsimtrace.xz

Region of Interest Statistics

CPU 0 cumulative IPC: 0.2074 instructions: 50000000 cycles: 241027005
CPU 0 Branch Prediction Accuracy: 91.85% MPKI: 19.58 Average ROB Occupancy at Mispredict: 30.51
Branch type MPKI
BRANCH_DIRECT_JUMP: 0.02388
BRANCH_INDIRECT: 0
BRANCH_CONDITIONAL: 19.56
BRANCH_DIRECT_CALL: 0
BRANCH_INDIRECT_CALL: 0
BRANCH_RETURN: 0

cpu0->cpu0_STLB TOTAL        ACCESS:    7433911 HIT:    7433911 MISS:          0 MSHR_MERGE:          0
cpu0->cpu0_STLB LOAD         ACCESS:    7433911 HIT:    7433911 MISS:          0 MSHR_MERGE:          0
cpu0->cpu0_STLB RFO          ACCESS:          0 HIT:          0 MISS:          0 MSHR_MERGE:          0
cpu0->cpu0_STLB PREFETCH     ACCESS:          0 HIT:          0 MISS:          0 MSHR_MERGE:          0
cpu0->cpu0_STLB WRITE        ACCESS:          0 HIT:          0 MISS:          0 MSHR_MERGE:          0
cpu0->cpu0_STLB TRANSLATION  ACCESS:          0 HIT:          0 MISS:          0 MSHR_MERGE:          0
cpu0->cpu0_STLB PREFETCH REQUESTED:          0 ISSUED:          0 USEFUL:          0 USELESS:          0 LATE:          0
cpu0->cpu0_STLB AVERAGE MISS LATENCY: - cycles
cpu0->cpu0_L2C TOTAL        ACCESS:   14772361 HIT:    5777369 MISS:    8994992 MSHR_MERGE:      10902
cpu0->cpu0_L2C LOAD         ACCESS:    7078528 HIT:    4060937 MISS:    3017591 MSHR_MERGE:        185
cpu0->cpu0_L2C RFO          ACCESS:       1035 HIT:        249 MISS:        786 MSHR_MERGE:          1
cpu0->cpu0_L2C PREFETCH     ACCESS:    7680140 HIT:    1703559 MISS:    5976581 MSHR_MERGE:      10716
cpu0->cpu0_L2C WRITE        ACCESS:      12658 HIT:      12624 MISS:         34 MSHR_MERGE:          0
cpu0->cpu0_L2C TRANSLATION  ACCESS:          0 HIT:          0 MISS:          0 MSHR_MERGE:          0
cpu0->cpu0_L2C PREFETCH REQUESTED:    7333297 ISSUED:    7331085 USEFUL:    2600722 USELESS:    3070127 LATE:        186
cpu0->cpu0_L2C AVERAGE MISS LATENCY: 65.67 cycles
cpu0->cpu0_L1I TOTAL        ACCESS:      25252 HIT:      25252 MISS:          0 MSHR_MERGE:          0
cpu0->cpu0_L1I LOAD         ACCESS:      25252 HIT:      25252 MISS:          0 MSHR_MERGE:          0
cpu0->cpu0_L1I RFO          ACCESS:          0 HIT:          0 MISS:          0 MSHR_MERGE:          0
cpu0->cpu0_L1I PREFETCH     ACCESS:          0 HIT:          0 MISS:          0 MSHR_MERGE:          0
cpu0->cpu0_L1I WRITE        ACCESS:          0 HIT:          0 MISS:          0 MSHR_MERGE:          0
cpu0->cpu0_L1I TRANSLATION  ACCESS:          0 HIT:          0 MISS:          0 MSHR_MERGE:          0
cpu0->cpu0_L1I PREFETCH REQUESTED:          0 ISSUED:          0 USEFUL:          0 USELESS:          0 LATE:          0
cpu0->cpu0_L1I AVERAGE MISS LATENCY: - cycles
cpu0->cpu0_L1D TOTAL        ACCESS:   12644195 HIT:    3357872 MISS:    9286323 MSHR_MERGE:    1857718
cpu0->cpu0_L1D LOAD         ACCESS:   12215464 HIT:    3280994 MISS:    8934470 MSHR_MERGE:    1855943
cpu0->cpu0_L1D RFO          ACCESS:          0 HIT:          0 MISS:          0 MSHR_MERGE:          0
cpu0->cpu0_L1D PREFETCH     ACCESS:     385937 HIT:      35724 MISS:     350213 MSHR_MERGE:       1170
cpu0->cpu0_L1D WRITE        ACCESS:      42794 HIT:      41154 MISS:       1640 MSHR_MERGE:        605
cpu0->cpu0_L1D TRANSLATION  ACCESS:          0 HIT:          0 MISS:          0 MSHR_MERGE:          0
cpu0->cpu0_L1D PREFETCH REQUESTED:     385983 ISSUED:     385937 USEFUL:       8513 USELESS:     340512 LATE:        228
cpu0->cpu0_L1D AVERAGE MISS LATENCY: 36.46 cycles
cpu0->cpu0_ITLB TOTAL        ACCESS:      22630 HIT:      22630 MISS:          0 MSHR_MERGE:          0
cpu0->cpu0_ITLB LOAD         ACCESS:      22630 HIT:      22630 MISS:          0 MSHR_MERGE:          0
cpu0->cpu0_ITLB RFO          ACCESS:          0 HIT:          0 MISS:          0 MSHR_MERGE:          0
cpu0->cpu0_ITLB PREFETCH     ACCESS:          0 HIT:          0 MISS:          0 MSHR_MERGE:          0
cpu0->cpu0_ITLB WRITE        ACCESS:          0 HIT:          0 MISS:          0 MSHR_MERGE:          0
cpu0->cpu0_ITLB TRANSLATION  ACCESS:          0 HIT:          0 MISS:          0 MSHR_MERGE:          0
cpu0->cpu0_ITLB PREFETCH REQUESTED:          0 ISSUED:          0 USEFUL:          0 USELESS:          0 LATE:          0
cpu0->cpu0_ITLB AVERAGE MISS LATENCY: - cycles
cpu0->cpu0_DTLB TOTAL        ACCESS:   12634074 HIT:    3293002 MISS:    9341072 MSHR_MERGE:    1907162
cpu0->cpu0_DTLB LOAD         ACCESS:   12634074 HIT:    3293002 MISS:    9341072 MSHR_MERGE:    1907162
cpu0->cpu0_DTLB RFO          ACCESS:          0 HIT:          0 MISS:          0 MSHR_MERGE:          0
cpu0->cpu0_DTLB PREFETCH     ACCESS:          0 HIT:          0 MISS:          0 MSHR_MERGE:          0
cpu0->cpu0_DTLB WRITE        ACCESS:          0 HIT:          0 MISS:          0 MSHR_MERGE:          0
cpu0->cpu0_DTLB TRANSLATION  ACCESS:          0 HIT:          0 MISS:          0 MSHR_MERGE:          0
cpu0->cpu0_DTLB PREFETCH REQUESTED:          0 ISSUED:          0 USEFUL:          0 USELESS:          0 LATE:          0
cpu0->cpu0_DTLB AVERAGE MISS LATENCY: 5.001 cycles
cpu0->LLC TOTAL        ACCESS:    8995006 HIT:    4806458 MISS:    4188548 MSHR_MERGE:          0
cpu0->LLC LOAD         ACCESS:    3017406 HIT:    2367402 MISS:     650004 MSHR_MERGE:          0
cpu0->LLC RFO          ACCESS:        785 HIT:        470 MISS:        315 MSHR_MERGE:          0
cpu0->LLC PREFETCH     ACCESS:    5965865 HIT:    2430299 MISS:    3535566 MSHR_MERGE:          0
cpu0->LLC WRITE        ACCESS:      10950 HIT:       8287 MISS:       2663 MSHR_MERGE:          0
cpu0->LLC TRANSLATION  ACCESS:          0 HIT:          0 MISS:          0 MSHR_MERGE:          0
cpu0->LLC PREFETCH REQUESTED:          0 ISSUED:          0 USEFUL:          0 USELESS:          0 LATE:          0
cpu0->LLC AVERAGE MISS LATENCY: 233.2 cycles

DRAM Statistics

Channel 0 RQ ROW_BUFFER_HIT:       2307
  ROW_BUFFER_MISS:    4183498
  AVG DBUS CONGESTED CYCLE: 4.369
Channel 0 WQ ROW_BUFFER_HIT:       1478
  ROW_BUFFER_MISS:       2744
  FULL:          0
Channel 0 REFRESHES ISSUED:      20085

[ROI Statistics]
[System Configuration]
num_cpus 1
cpu_freq 4000
fetch_width 6
decode_width 6
dispatch_width 6
execute_width 6
lq_width 2
sq_width 2
retire_width 6
scheduler_size 128
branch_mispredict_penalty 15
rob_size 352
lq_size 128
sq_size 72
ifetch_buffer_size 64
decode_buffer_size 32
dispatch_buffer_size 32
register_file_size 288
decode_latency 1
dispatch_latency 1
schedule_latency 1
execute_latency 1
page_size 4096
block_size 64
core_0_itlb_set 16
core_0_itlb_way 4
core_0_itlb_rq_size 16
core_0_itlb_wq_size 16
core_0_itlb_pq_size 0
core_0_itlb_mshr_size 4
core_0_itlb_hit_latency 1
core_0_itlb_fill_latency 1
core_0_itlb_max_tag_check 2
core_0_itlb_max_fill 2
core_0_dtlb_set 16
core_0_dtlb_way 4
core_0_dtlb_rq_size 16
core_0_dtlb_wq_size 16
core_0_dtlb_pq_size 0
core_0_dtlb_mshr_size 4
core_0_dtlb_hit_latency 1
core_0_dtlb_fill_latency 1
core_0_dtlb_max_tag_check 2
core_0_dtlb_max_fill 2
core_0_stlb_set 128
core_0_stlb_way 12
core_0_stlb_rq_size 32
core_0_stlb_wq_size 32
core_0_stlb_pq_size 0
core_0_stlb_mshr_size 4
core_0_stlb_hit_latency 4
core_0_stlb_fill_latency 4
core_0_stlb_max_tag_check 1
core_0_stlb_max_fill 1
core_0_l1i_set 64
core_0_l1i_way 8
core_0_l1i_rq_size 64
core_0_l1i_wq_size 64
core_0_l1i_pq_size 32
core_0_l1i_mshr_size 8
core_0_l1i_hit_latency 2
core_0_l1i_fill_latency 2
core_0_l1i_max_tag_check 2
core_0_l1i_max_fill 2
core_0_l1d_set 64
core_0_l1d_way 12
core_0_l1d_rq_size 64
core_0_l1d_wq_size 64
core_0_l1d_pq_size 8
core_0_l1d_mshr_size 16
core_0_l1d_hit_latency 2
core_0_l1d_fill_latency 3
core_0_l1d_max_tag_check 2
core_0_l1d_max_fill 2
core_0_l2c_set 1024
core_0_l2c_way 8
core_0_l2c_rq_size 32
core_0_l2c_wq_size 32
core_0_l2c_pq_size 16
core_0_l2c_mshr_size 32
core_0_l2c_hit_latency 5
core_0_l2c_fill_latency 5
core_0_l2c_max_tag_check 1
core_0_l2c_max_fill 1
llc_set 2048
llc_way 16
llc_rq_size 32
llc_wq_size 32
llc_pq_size 32
llc_mshr_size 64
llc_hit_latency 10
llc_fill_latency 10
llc_max_tag_check 1
llc_max_fill 1
dram_channels 1
dram_ranks 1
dram_bankgroups 8
dram_banks 4
dram_rows 65536
dram_columns 1024
dram_channel_width 8
dram_rq_size 64
dram_wq_size 64
dram_size 17179869184
core_0_itlb_prefetcher no
core_0_dtlb_prefetcher no
core_0_stlb_prefetcher no
core_0_l1i_prefetcher next_line
core_0_l1d_prefetcher berti
core_0_l2c_prefetcher pythia
llc_prefetcher no
llc_replacement drrip

Core_0_instructions 50000000
Core_0_cycles 241027005
Core_0_IPC 0.207446
Core_0_branch_prediction_accuracy 91.8483
Core_0_branch_MPKI 19.5804
Core_0_average_ROB_occupancy_at_mispredict 30.5101

Core_0_ITLB_total_access 22630
Core_0_ITLB_total_hit 22630
Core_0_ITLB_total_miss 0
Core_0_ITLB_total_MPKI 0
Core_0_ITLB_total_miss_rate 0
Core_0_ITLB_demand_access 22630
Core_0_ITLB_demand_hit 22630
Core_0_ITLB_demand_miss 0
Core_0_ITLB_demand_MPKI 0
Core_0_ITLB_demand_miss_rate 0
Core_0_ITLB_load_access 22630
Core_0_ITLB_load_hit 22630
Core_0_ITLB_load_miss 0
Core_0_ITLB_load_MPKI 0
Core_0_ITLB_load_miss_rate 0
Core_0_ITLB_rfo_access 0
Core_0_ITLB_rfo_hit 0
Core_0_ITLB_rfo_miss 0
Core_0_ITLB_rfo_MPKI 0
Core_0_ITLB_rfo_miss_rate 0
Core_0_ITLB_prefetch_access 0
Core_0_ITLB_prefetch_hit 0
Core_0_ITLB_prefetch_miss 0
Core_0_ITLB_prefetch_MPKI 0
Core_0_ITLB_prefetch_miss_rate 0
Core_0_ITLB_writeback_access 0
Core_0_ITLB_writeback_hit 0
Core_0_ITLB_writeback_miss 0
Core_0_ITLB_writeback_MPKI 0
Core_0_ITLB_writeback_miss_rate 0
Core_0_ITLB_prefetch_requested 0
Core_0_ITLB_prefetch_issued 0
Core_0_ITLB_prefetch_useful 0
Core_0_ITLB_prefetch_useless 0
Core_0_ITLB_prefetch_late 0
Core_0_ITLB_prefetch_accuracy 0
Core_0_ITLB_prefetch_coverage 0

Core_0_DTLB_total_access 12634074
Core_0_DTLB_total_hit 3293002
Core_0_DTLB_total_miss 9341072
Core_0_DTLB_total_MPKI 186.821
Core_0_DTLB_total_miss_rate 0.739355
Core_0_DTLB_demand_access 12634074
Core_0_DTLB_demand_hit 3293002
Core_0_DTLB_demand_miss 9341072
Core_0_DTLB_demand_MPKI 186.821
Core_0_DTLB_demand_miss_rate 0.739355
Core_0_DTLB_load_access 12634074
Core_0_DTLB_load_hit 3293002
Core_0_DTLB_load_miss 9341072
Core_0_DTLB_load_MPKI 186.821
Core_0_DTLB_load_miss_rate 0.739355
Core_0_DTLB_rfo_access 0
Core_0_DTLB_rfo_hit 0
Core_0_DTLB_rfo_miss 0
Core_0_DTLB_rfo_MPKI 0
Core_0_DTLB_rfo_miss_rate 0
Core_0_DTLB_prefetch_access 0
Core_0_DTLB_prefetch_hit 0
Core_0_DTLB_prefetch_miss 0
Core_0_DTLB_prefetch_MPKI 0
Core_0_DTLB_prefetch_miss_rate 0
Core_0_DTLB_writeback_access 0
Core_0_DTLB_writeback_hit 0
Core_0_DTLB_writeback_miss 0
Core_0_DTLB_writeback_MPKI 0
Core_0_DTLB_writeback_miss_rate 0
Core_0_DTLB_prefetch_requested 0
Core_0_DTLB_prefetch_issued 0
Core_0_DTLB_prefetch_useful 0
Core_0_DTLB_prefetch_useless 0
Core_0_DTLB_prefetch_late 0
Core_0_DTLB_prefetch_accuracy 0
Core_0_DTLB_prefetch_coverage 0

Core_0_STLB_total_access 7433911
Core_0_STLB_total_hit 7433911
Core_0_STLB_total_miss 0
Core_0_STLB_total_MPKI 0
Core_0_STLB_total_miss_rate 0
Core_0_STLB_demand_access 7433911
Core_0_STLB_demand_hit 7433911
Core_0_STLB_demand_miss 0
Core_0_STLB_demand_MPKI 0
Core_0_STLB_demand_miss_rate 0
Core_0_STLB_load_access 7433911
Core_0_STLB_load_hit 7433911
Core_0_STLB_load_miss 0
Core_0_STLB_load_MPKI 0
Core_0_STLB_load_miss_rate 0
Core_0_STLB_rfo_access 0
Core_0_STLB_rfo_hit 0
Core_0_STLB_rfo_miss 0
Core_0_STLB_rfo_MPKI 0
Core_0_STLB_rfo_miss_rate 0
Core_0_STLB_prefetch_access 0
Core_0_STLB_prefetch_hit 0
Core_0_STLB_prefetch_miss 0
Core_0_STLB_prefetch_MPKI 0
Core_0_STLB_prefetch_miss_rate 0
Core_0_STLB_writeback_access 0
Core_0_STLB_writeback_hit 0
Core_0_STLB_writeback_miss 0
Core_0_STLB_writeback_MPKI 0
Core_0_STLB_writeback_miss_rate 0
Core_0_STLB_prefetch_requested 0
Core_0_STLB_prefetch_issued 0
Core_0_STLB_prefetch_useful 0
Core_0_STLB_prefetch_useless 0
Core_0_STLB_prefetch_late 0
Core_0_STLB_prefetch_accuracy 0
Core_0_STLB_prefetch_coverage 0

Core_0_L1I_total_access 25252
Core_0_L1I_total_hit 25252
Core_0_L1I_total_miss 0
Core_0_L1I_total_MPKI 0
Core_0_L1I_total_miss_rate 0
Core_0_L1I_demand_access 25252
Core_0_L1I_demand_hit 25252
Core_0_L1I_demand_miss 0
Core_0_L1I_demand_MPKI 0
Core_0_L1I_demand_miss_rate 0
Core_0_L1I_load_access 25252
Core_0_L1I_load_hit 25252
Core_0_L1I_load_miss 0
Core_0_L1I_load_MPKI 0
Core_0_L1I_load_miss_rate 0
Core_0_L1I_rfo_access 0
Core_0_L1I_rfo_hit 0
Core_0_L1I_rfo_miss 0
Core_0_L1I_rfo_MPKI 0
Core_0_L1I_rfo_miss_rate 0
Core_0_L1I_prefetch_access 0
Core_0_L1I_prefetch_hit 0
Core_0_L1I_prefetch_miss 0
Core_0_L1I_prefetch_MPKI 0
Core_0_L1I_prefetch_miss_rate 0
Core_0_L1I_writeback_access 0
Core_0_L1I_writeback_hit 0
Core_0_L1I_writeback_miss 0
Core_0_L1I_writeback_MPKI 0
Core_0_L1I_writeback_miss_rate 0
Core_0_L1I_prefetch_requested 0
Core_0_L1I_prefetch_issued 0
Core_0_L1I_prefetch_useful 0
Core_0_L1I_prefetch_useless 0
Core_0_L1I_prefetch_late 0
Core_0_L1I_prefetch_accuracy 0
Core_0_L1I_prefetch_coverage 0

Core_0_L1D_total_access 12644195
Core_0_L1D_total_hit 3357872
Core_0_L1D_total_miss 9286323
Core_0_L1D_total_MPKI 185.726
Core_0_L1D_total_miss_rate 0.734434
Core_0_L1D_demand_access 12215464
Core_0_L1D_demand_hit 3280994
Core_0_L1D_demand_miss 8934470
Core_0_L1D_demand_MPKI 178.689
Core_0_L1D_demand_miss_rate 0.731407
Core_0_L1D_load_access 12215464
Core_0_L1D_load_hit 3280994
Core_0_L1D_load_miss 8934470
Core_0_L1D_load_MPKI 178.689
Core_0_L1D_load_miss_rate 0.731407
Core_0_L1D_rfo_access 0
Core_0_L1D_rfo_hit 0
Core_0_L1D_rfo_miss 0
Core_0_L1D_rfo_MPKI 0
Core_0_L1D_rfo_miss_rate 0
Core_0_L1D_prefetch_access 385937
Core_0_L1D_prefetch_hit 35724
Core_0_L1D_prefetch_miss 350213
Core_0_L1D_prefetch_MPKI 7.00426
Core_0_L1D_prefetch_miss_rate 0.907436
Core_0_L1D_writeback_access 42794
Core_0_L1D_writeback_hit 41154
Core_0_L1D_writeback_miss 1640
Core_0_L1D_writeback_MPKI 0.0328
Core_0_L1D_writeback_miss_rate 0.0383231
Core_0_L1D_prefetch_requested 385983
Core_0_L1D_prefetch_issued 385937
Core_0_L1D_prefetch_useful 8513
Core_0_L1D_prefetch_useless 340512
Core_0_L1D_prefetch_late 228
Core_0_L1D_prefetch_accuracy 0.022058
Core_0_L1D_prefetch_coverage 0.00095192

Core_0_L2C_total_access 14772361
Core_0_L2C_total_hit 5777369
Core_0_L2C_total_miss 8994992
Core_0_L2C_total_MPKI 179.9
Core_0_L2C_total_miss_rate 0.608907
Core_0_L2C_demand_access 7079563
Core_0_L2C_demand_hit 4061186
Core_0_L2C_demand_miss 3018377
Core_0_L2C_demand_MPKI 60.3675
Core_0_L2C_demand_miss_rate 0.426351
Core_0_L2C_load_access 7078528
Core_0_L2C_load_hit 4060937
Core_0_L2C_load_miss 3017591
Core_0_L2C_load_MPKI 60.3518
Core_0_L2C_load_miss_rate 0.426302
Core_0_L2C_rfo_access 1035
Core_0_L2C_rfo_hit 249
Core_0_L2C_rfo_miss 786
Core_0_L2C_rfo_MPKI 0.01572
Core_0_L2C_rfo_miss_rate 0.75942
Core_0_L2C_prefetch_access 7680140
Core_0_L2C_prefetch_hit 1703559
Core_0_L2C_prefetch_miss 5976581
Core_0_L2C_prefetch_MPKI 119.532
Core_0_L2C_prefetch_miss_rate 0.778186
Core_0_L2C_writeback_access 12658
Core_0_L2C_writeback_hit 12624
Core_0_L2C_writeback_miss 34
Core_0_L2C_writeback_MPKI 0.00068
Core_0_L2C_writeback_miss_rate 0.00268605
Core_0_L2C_prefetch_requested 7333297
Core_0_L2C_prefetch_issued 7331085
Core_0_L2C_prefetch_useful 2600722
Core_0_L2C_prefetch_useless 3070127
Core_0_L2C_prefetch_late 186
Core_0_L2C_prefetch_accuracy 0.354753
Core_0_L2C_prefetch_coverage 0.462836

Core_0_LLC_total_access 8995006
Core_0_LLC_total_hit 4806458
Core_0_LLC_total_miss 4188548
Core_0_LLC_total_MPKI 83.771
Core_0_LLC_total_miss_rate 0.465653
Core_0_LLC_demand_access 3018191
Core_0_LLC_demand_hit 2367872
Core_0_LLC_demand_miss 650319
Core_0_LLC_demand_MPKI 13.0064
Core_0_LLC_demand_miss_rate 0.215466
Core_0_LLC_load_access 3017406
Core_0_LLC_load_hit 2367402
Core_0_LLC_load_miss 650004
Core_0_LLC_load_MPKI 13.0001
Core_0_LLC_load_miss_rate 0.215418
Core_0_LLC_rfo_access 785
Core_0_LLC_rfo_hit 470
Core_0_LLC_rfo_miss 315
Core_0_LLC_rfo_MPKI 0.0063
Core_0_LLC_rfo_miss_rate 0.401274
Core_0_LLC_prefetch_access 5965865
Core_0_LLC_prefetch_hit 2430299
Core_0_LLC_prefetch_miss 3535566
Core_0_LLC_prefetch_MPKI 70.7113
Core_0_LLC_prefetch_miss_rate 0.592633
Core_0_LLC_writeback_access 10950
Core_0_LLC_writeback_hit 8287
Core_0_LLC_writeback_miss 2663
Core_0_LLC_writeback_MPKI 0.05326
Core_0_LLC_writeback_miss_rate 0.243196
Core_0_LLC_prefetch_requested 0
Core_0_LLC_prefetch_issued 0
Core_0_LLC_prefetch_useful 0
Core_0_LLC_prefetch_useless 0
Core_0_LLC_prefetch_late 0
Core_0_LLC_prefetch_accuracy 0
Core_0_LLC_prefetch_coverage 0

[DRAM Statistics]
Channel_0_RQ_row_buffer_hit 2307
Channel_0_RQ_row_buffer_miss 4183498
Channel_0_WQ_row_buffer_hit 1478
Channel_0_WQ_row_buffer_miss 2744
Channel_0_WQ_full 0
Channel_0_dbus_congested 5800245
DRAM_total_RQ_row_buffer_hit 2307
DRAM_total_RQ_row_buffer_miss 4183498
DRAM_total_WQ_row_buffer_hit 1478
DRAM_total_WQ_row_buffer_miss 2744
DRAM_total_WQ_full 0
DRAM_total_dbus_congested 5800245
DRAM_avg_congested_cycle 4.36878

======STLB miss causes ========
Core_0_STLB_miss_cause_breakdown
Core_0_STLB_cause_Demand_Data_miss 0
Core_0_STLB_cause_Demand_Data_miss_rate 0
Core_0_STLB_cause_Demand_Instruction_miss 0
Core_0_STLB_cause_Demand_Instruction_miss_rate 0
Core_0_STLB_cause_L1D_Prefetch_miss 0
Core_0_STLB_cause_L1D_Prefetch_miss_rate 0
Core_0_STLB_cause_L1I_Prefetch_miss 0
Core_0_STLB_cause_L1I_Prefetch_miss_rate 0
Core_0_STLB_cause_Other_miss 0
Core_0_STLB_cause_Other_miss_rate 0
Core_0_STLB_Demand_miss 0
Core_0_STLB_Demand_miss_rate 0
Core_0_STLB_L1D_Prefetch_miss 0
Core_0_STLB_L1D_Prefetch_miss_rate 0
Core_0_STLB_Other_miss 0
Core_0_STLB_Other_miss_rate 0
