[VMEM] WARNING: physical memory size is smaller than virtual memory size.

*** ChampSim Multicore Out-of-Order Simulator ***
Warmup Instructions: 20000000
Simulation Instructions: 50000000
Number of CPUs: 1
Page size: 4096
STLB ideal mode: all
Core 0: /data0/tzh/champsim_traces/SPEC06/416.gamess-875B.champsimtrace.xz
 L1D Berti prefetcher
Off-chip DRAM Size: 4 GiB Channels: 1 Width: 64-bit Data Rate: 3205 MT/s
Warmup halting CPU 0 at instruction 20000005 cycle 4193574 for remainder of phase
Warmup finished CPU 0 instructions: 20000005 cycles: 4193574 cumulative IPC: 4.769 (Simulation time: 00 hr 01 min 06 sec)
Warmup complete CPU 0 instructions: 20000005 cycles: 4193574 cumulative IPC: 4.769 (Simulation time: 00 hr 01 min 06 sec)
Simulation finished CPU 0 instructions: 50000004 cycles: 22218497 cumulative IPC: 2.25 (Simulation time: 00 hr 04 min 39 sec)
Simulation complete CPU 0 instructions: 50000004 cycles: 22218497 cumulative IPC: 2.25 (Simulation time: 00 hr 04 min 39 sec)

ChampSim completed all CPUs

=== Simulation ===
CPU 0 runs /data0/tzh/champsim_traces/SPEC06/416.gamess-875B.champsimtrace.xz

Region of Interest Statistics

CPU 0 cumulative IPC: 2.25 instructions: 50000004 cycles: 22218497
CPU 0 Branch Prediction Accuracy: 93.93% MPKI: 5.709 Average ROB Occupancy at Mispredict: 117.6
Branch type MPKI
BRANCH_DIRECT_JUMP: 0.00536
BRANCH_INDIRECT: 0.2442
BRANCH_CONDITIONAL: 5.458
BRANCH_DIRECT_CALL: 0.0006
BRANCH_INDIRECT_CALL: 0
BRANCH_RETURN: 0.00068

cpu0->cpu0_STLB TOTAL        ACCESS:     396180 HIT:     396180 MISS:          0 MSHR_MERGE:          0
cpu0->cpu0_STLB LOAD         ACCESS:     396180 HIT:     396180 MISS:          0 MSHR_MERGE:          0
cpu0->cpu0_STLB RFO          ACCESS:          0 HIT:          0 MISS:          0 MSHR_MERGE:          0
cpu0->cpu0_STLB PREFETCH     ACCESS:          0 HIT:          0 MISS:          0 MSHR_MERGE:          0
cpu0->cpu0_STLB WRITE        ACCESS:          0 HIT:          0 MISS:          0 MSHR_MERGE:          0
cpu0->cpu0_STLB TRANSLATION  ACCESS:          0 HIT:          0 MISS:          0 MSHR_MERGE:          0
cpu0->cpu0_STLB PREFETCH REQUESTED:          0 ISSUED:          0 USEFUL:          0 USELESS:          0 LATE:          0
cpu0->cpu0_STLB AVERAGE MISS LATENCY: - cycles
cpu0->cpu0_L2C TOTAL        ACCESS:     127861 HIT:     125888 MISS:       1973 MSHR_MERGE:        114
cpu0->cpu0_L2C LOAD         ACCESS:      30155 HIT:      29814 MISS:        341 MSHR_MERGE:          3
cpu0->cpu0_L2C RFO          ACCESS:       9469 HIT:       9391 MISS:         78 MSHR_MERGE:          0
cpu0->cpu0_L2C PREFETCH     ACCESS:      74952 HIT:      73401 MISS:       1551 MSHR_MERGE:        111
cpu0->cpu0_L2C WRITE        ACCESS:      13285 HIT:      13282 MISS:          3 MSHR_MERGE:          0
cpu0->cpu0_L2C TRANSLATION  ACCESS:          0 HIT:          0 MISS:          0 MSHR_MERGE:          0
cpu0->cpu0_L2C PREFETCH REQUESTED:      53878 ISSUED:      53643 USEFUL:        525 USELESS:        123 LATE:          3
cpu0->cpu0_L2C AVERAGE MISS LATENCY: 145.8 cycles
cpu0->cpu0_L1I TOTAL        ACCESS:    1995593 HIT:    1994466 MISS:       1127 MSHR_MERGE:        344
cpu0->cpu0_L1I LOAD         ACCESS:    1995593 HIT:    1994466 MISS:       1127 MSHR_MERGE:        344
cpu0->cpu0_L1I RFO          ACCESS:          0 HIT:          0 MISS:          0 MSHR_MERGE:          0
cpu0->cpu0_L1I PREFETCH     ACCESS:          0 HIT:          0 MISS:          0 MSHR_MERGE:          0
cpu0->cpu0_L1I WRITE        ACCESS:          0 HIT:          0 MISS:          0 MSHR_MERGE:          0
cpu0->cpu0_L1I TRANSLATION  ACCESS:          0 HIT:          0 MISS:          0 MSHR_MERGE:          0
cpu0->cpu0_L1I PREFETCH REQUESTED:          0 ISSUED:          0 USEFUL:          0 USELESS:          0 LATE:          0
cpu0->cpu0_L1I AVERAGE MISS LATENCY: 60.23 cycles
cpu0->cpu0_L1D TOTAL        ACCESS:   15737925 HIT:   15660483 MISS:      77442 MSHR_MERGE:      17263
cpu0->cpu0_L1D LOAD         ACCESS:    9507270 HIT:    9468163 MISS:      39107 MSHR_MERGE:       9731
cpu0->cpu0_L1D RFO          ACCESS:          0 HIT:          0 MISS:          0 MSHR_MERGE:          0
cpu0->cpu0_L1D PREFETCH     ACCESS:     330161 HIT:     308103 MISS:      22058 MSHR_MERGE:        747
cpu0->cpu0_L1D WRITE        ACCESS:    5900494 HIT:    5884217 MISS:      16277 MSHR_MERGE:       6785
cpu0->cpu0_L1D TRANSLATION  ACCESS:          0 HIT:          0 MISS:          0 MSHR_MERGE:          0
cpu0->cpu0_L1D PREFETCH REQUESTED:     434186 ISSUED:     330161 USEFUL:       7607 USELESS:      13627 LATE:        246
cpu0->cpu0_L1D AVERAGE MISS LATENCY: 8.54 cycles
cpu0->cpu0_ITLB TOTAL        ACCESS:    1498269 HIT:    1498260 MISS:          9 MSHR_MERGE:          1
cpu0->cpu0_ITLB LOAD         ACCESS:    1498269 HIT:    1498260 MISS:          9 MSHR_MERGE:          1
cpu0->cpu0_ITLB RFO          ACCESS:          0 HIT:          0 MISS:          0 MSHR_MERGE:          0
cpu0->cpu0_ITLB PREFETCH     ACCESS:          0 HIT:          0 MISS:          0 MSHR_MERGE:          0
cpu0->cpu0_ITLB WRITE        ACCESS:          0 HIT:          0 MISS:          0 MSHR_MERGE:          0
cpu0->cpu0_ITLB TRANSLATION  ACCESS:          0 HIT:          0 MISS:          0 MSHR_MERGE:          0
cpu0->cpu0_ITLB PREFETCH REQUESTED:          0 ISSUED:          0 USEFUL:          0 USELESS:          0 LATE:          0
cpu0->cpu0_ITLB AVERAGE MISS LATENCY: 5 cycles
cpu0->cpu0_DTLB TOTAL        ACCESS:   14838466 HIT:   14324133 MISS:     514333 MSHR_MERGE:     118161
cpu0->cpu0_DTLB LOAD         ACCESS:   14838466 HIT:   14324133 MISS:     514333 MSHR_MERGE:     118161
cpu0->cpu0_DTLB RFO          ACCESS:          0 HIT:          0 MISS:          0 MSHR_MERGE:          0
cpu0->cpu0_DTLB PREFETCH     ACCESS:          0 HIT:          0 MISS:          0 MSHR_MERGE:          0
cpu0->cpu0_DTLB WRITE        ACCESS:          0 HIT:          0 MISS:          0 MSHR_MERGE:          0
cpu0->cpu0_DTLB TRANSLATION  ACCESS:          0 HIT:          0 MISS:          0 MSHR_MERGE:          0
cpu0->cpu0_DTLB PREFETCH REQUESTED:          0 ISSUED:          0 USEFUL:          0 USELESS:          0 LATE:          0
cpu0->cpu0_DTLB AVERAGE MISS LATENCY: 5.003 cycles
cpu0->LLC TOTAL        ACCESS:       1917 HIT:        337 MISS:       1580 MSHR_MERGE:          0
cpu0->LLC LOAD         ACCESS:        338 HIT:         86 MISS:        252 MSHR_MERGE:          0
cpu0->LLC RFO          ACCESS:         78 HIT:          4 MISS:         74 MSHR_MERGE:          0
cpu0->LLC PREFETCH     ACCESS:       1440 HIT:        186 MISS:       1254 MSHR_MERGE:          0
cpu0->LLC WRITE        ACCESS:         61 HIT:         61 MISS:          0 MSHR_MERGE:          0
cpu0->LLC TRANSLATION  ACCESS:          0 HIT:          0 MISS:          0 MSHR_MERGE:          0
cpu0->LLC PREFETCH REQUESTED:          0 ISSUED:          0 USEFUL:          0 USELESS:          0 LATE:          0
cpu0->LLC AVERAGE MISS LATENCY: 167.7 cycles

DRAM Statistics

Channel 0 RQ ROW_BUFFER_HIT:         14
  ROW_BUFFER_MISS:       1566
  AVG DBUS CONGESTED CYCLE: 2.776
Channel 0 WQ ROW_BUFFER_HIT:          0
  ROW_BUFFER_MISS:          0
  FULL:          0
Channel 0 REFRESHES ISSUED:       1852

[ROI Statistics]
[System Configuration]
num_cpus 1
cpu_freq 4000
fetch_width 6
decode_width 6
dispatch_width 6
execute_width 6
lq_width 2
sq_width 2
retire_width 6
scheduler_size 160
branch_mispredict_penalty 1
rob_size 352
lq_size 240
sq_size 112
ifetch_buffer_size 64
decode_buffer_size 32
dispatch_buffer_size 32
register_file_size 288
decode_latency 1
dispatch_latency 1
schedule_latency 0
execute_latency 0
page_size 4096
block_size 64
core_0_itlb_set 16
core_0_itlb_way 4
core_0_itlb_rq_size 16
core_0_itlb_wq_size 16
core_0_itlb_pq_size 0
core_0_itlb_mshr_size 8
core_0_itlb_hit_latency 1
core_0_itlb_fill_latency 1
core_0_itlb_max_tag_check 2
core_0_itlb_max_fill 2
core_0_dtlb_set 16
core_0_dtlb_way 4
core_0_dtlb_rq_size 16
core_0_dtlb_wq_size 16
core_0_dtlb_pq_size 0
core_0_dtlb_mshr_size 8
core_0_dtlb_hit_latency 1
core_0_dtlb_fill_latency 1
core_0_dtlb_max_tag_check 2
core_0_dtlb_max_fill 2
core_0_stlb_set 128
core_0_stlb_way 12
core_0_stlb_rq_size 32
core_0_stlb_wq_size 32
core_0_stlb_pq_size 0
core_0_stlb_mshr_size 16
core_0_stlb_hit_latency 4
core_0_stlb_fill_latency 4
core_0_stlb_max_tag_check 1
core_0_stlb_max_fill 1
core_0_l1i_set 64
core_0_l1i_way 8
core_0_l1i_rq_size 64
core_0_l1i_wq_size 64
core_0_l1i_pq_size 32
core_0_l1i_mshr_size 8
core_0_l1i_hit_latency 2
core_0_l1i_fill_latency 2
core_0_l1i_max_tag_check 2
core_0_l1i_max_fill 2
core_0_l1d_set 64
core_0_l1d_way 12
core_0_l1d_rq_size 64
core_0_l1d_wq_size 64
core_0_l1d_pq_size 8
core_0_l1d_mshr_size 16
core_0_l1d_hit_latency 2
core_0_l1d_fill_latency 3
core_0_l1d_max_tag_check 2
core_0_l1d_max_fill 2
core_0_l2c_set 1024
core_0_l2c_way 8
core_0_l2c_rq_size 32
core_0_l2c_wq_size 32
core_0_l2c_pq_size 16
core_0_l2c_mshr_size 32
core_0_l2c_hit_latency 5
core_0_l2c_fill_latency 5
core_0_l2c_max_tag_check 1
core_0_l2c_max_fill 1
llc_set 2048
llc_way 16
llc_rq_size 32
llc_wq_size 32
llc_pq_size 32
llc_mshr_size 64
llc_hit_latency 10
llc_fill_latency 10
llc_max_tag_check 1
llc_max_fill 1
dram_channels 1
dram_ranks 1
dram_bankgroups 8
dram_banks 4
dram_rows 16384
dram_columns 1024
dram_channel_width 8
dram_rq_size 64
dram_wq_size 64
dram_size 4294967296
core_0_itlb_prefetcher no
core_0_dtlb_prefetcher no
core_0_stlb_prefetcher no
core_0_l1i_prefetcher next_line
core_0_l1d_prefetcher berti
core_0_l2c_prefetcher pythia
llc_prefetcher no
llc_replacement drrip

Core_0_instructions 50000004
Core_0_cycles 22218497
Core_0_IPC 2.25038
Core_0_branch_prediction_accuracy 93.9287
Core_0_branch_MPKI 5.70924
Core_0_average_ROB_occupancy_at_mispredict 117.585

Core_0_ITLB_total_access 1498269
Core_0_ITLB_total_hit 1498260
Core_0_ITLB_total_miss 9
Core_0_ITLB_total_MPKI 0.00018
Core_0_ITLB_total_miss_rate 6.00693e-06
Core_0_ITLB_demand_access 1498269
Core_0_ITLB_demand_hit 1498260
Core_0_ITLB_demand_miss 9
Core_0_ITLB_demand_MPKI 0.00018
Core_0_ITLB_demand_miss_rate 6.00693e-06
Core_0_ITLB_load_access 1498269
Core_0_ITLB_load_hit 1498260
Core_0_ITLB_load_miss 9
Core_0_ITLB_load_MPKI 0.00018
Core_0_ITLB_load_miss_rate 6.00693e-06
Core_0_ITLB_rfo_access 0
Core_0_ITLB_rfo_hit 0
Core_0_ITLB_rfo_miss 0
Core_0_ITLB_rfo_MPKI 0
Core_0_ITLB_rfo_miss_rate 0
Core_0_ITLB_prefetch_access 0
Core_0_ITLB_prefetch_hit 0
Core_0_ITLB_prefetch_miss 0
Core_0_ITLB_prefetch_MPKI 0
Core_0_ITLB_prefetch_miss_rate 0
Core_0_ITLB_writeback_access 0
Core_0_ITLB_writeback_hit 0
Core_0_ITLB_writeback_miss 0
Core_0_ITLB_writeback_MPKI 0
Core_0_ITLB_writeback_miss_rate 0
Core_0_ITLB_prefetch_requested 0
Core_0_ITLB_prefetch_issued 0
Core_0_ITLB_prefetch_useful 0
Core_0_ITLB_prefetch_useless 0
Core_0_ITLB_prefetch_late 0
Core_0_ITLB_prefetch_accuracy 0
Core_0_ITLB_prefetch_coverage 0

Core_0_DTLB_total_access 14838466
Core_0_DTLB_total_hit 14324133
Core_0_DTLB_total_miss 514333
Core_0_DTLB_total_MPKI 10.2867
Core_0_DTLB_total_miss_rate 0.0346621
Core_0_DTLB_demand_access 14838466
Core_0_DTLB_demand_hit 14324133
Core_0_DTLB_demand_miss 514333
Core_0_DTLB_demand_MPKI 10.2867
Core_0_DTLB_demand_miss_rate 0.0346621
Core_0_DTLB_load_access 14838466
Core_0_DTLB_load_hit 14324133
Core_0_DTLB_load_miss 514333
Core_0_DTLB_load_MPKI 10.2867
Core_0_DTLB_load_miss_rate 0.0346621
Core_0_DTLB_rfo_access 0
Core_0_DTLB_rfo_hit 0
Core_0_DTLB_rfo_miss 0
Core_0_DTLB_rfo_MPKI 0
Core_0_DTLB_rfo_miss_rate 0
Core_0_DTLB_prefetch_access 0
Core_0_DTLB_prefetch_hit 0
Core_0_DTLB_prefetch_miss 0
Core_0_DTLB_prefetch_MPKI 0
Core_0_DTLB_prefetch_miss_rate 0
Core_0_DTLB_writeback_access 0
Core_0_DTLB_writeback_hit 0
Core_0_DTLB_writeback_miss 0
Core_0_DTLB_writeback_MPKI 0
Core_0_DTLB_writeback_miss_rate 0
Core_0_DTLB_prefetch_requested 0
Core_0_DTLB_prefetch_issued 0
Core_0_DTLB_prefetch_useful 0
Core_0_DTLB_prefetch_useless 0
Core_0_DTLB_prefetch_late 0
Core_0_DTLB_prefetch_accuracy 0
Core_0_DTLB_prefetch_coverage 0

Core_0_STLB_total_access 396180
Core_0_STLB_total_hit 396180
Core_0_STLB_total_miss 0
Core_0_STLB_total_MPKI 0
Core_0_STLB_total_miss_rate 0
Core_0_STLB_demand_access 396180
Core_0_STLB_demand_hit 396180
Core_0_STLB_demand_miss 0
Core_0_STLB_demand_MPKI 0
Core_0_STLB_demand_miss_rate 0
Core_0_STLB_load_access 396180
Core_0_STLB_load_hit 396180
Core_0_STLB_load_miss 0
Core_0_STLB_load_MPKI 0
Core_0_STLB_load_miss_rate 0
Core_0_STLB_rfo_access 0
Core_0_STLB_rfo_hit 0
Core_0_STLB_rfo_miss 0
Core_0_STLB_rfo_MPKI 0
Core_0_STLB_rfo_miss_rate 0
Core_0_STLB_prefetch_access 0
Core_0_STLB_prefetch_hit 0
Core_0_STLB_prefetch_miss 0
Core_0_STLB_prefetch_MPKI 0
Core_0_STLB_prefetch_miss_rate 0
Core_0_STLB_writeback_access 0
Core_0_STLB_writeback_hit 0
Core_0_STLB_writeback_miss 0
Core_0_STLB_writeback_MPKI 0
Core_0_STLB_writeback_miss_rate 0
Core_0_STLB_prefetch_requested 0
Core_0_STLB_prefetch_issued 0
Core_0_STLB_prefetch_useful 0
Core_0_STLB_prefetch_useless 0
Core_0_STLB_prefetch_late 0
Core_0_STLB_prefetch_accuracy 0
Core_0_STLB_prefetch_coverage 0

Core_0_L1I_total_access 1995593
Core_0_L1I_total_hit 1994466
Core_0_L1I_total_miss 1127
Core_0_L1I_total_MPKI 0.02254
Core_0_L1I_total_miss_rate 0.000564744
Core_0_L1I_demand_access 1995593
Core_0_L1I_demand_hit 1994466
Core_0_L1I_demand_miss 1127
Core_0_L1I_demand_MPKI 0.02254
Core_0_L1I_demand_miss_rate 0.000564744
Core_0_L1I_load_access 1995593
Core_0_L1I_load_hit 1994466
Core_0_L1I_load_miss 1127
Core_0_L1I_load_MPKI 0.02254
Core_0_L1I_load_miss_rate 0.000564744
Core_0_L1I_rfo_access 0
Core_0_L1I_rfo_hit 0
Core_0_L1I_rfo_miss 0
Core_0_L1I_rfo_MPKI 0
Core_0_L1I_rfo_miss_rate 0
Core_0_L1I_prefetch_access 0
Core_0_L1I_prefetch_hit 0
Core_0_L1I_prefetch_miss 0
Core_0_L1I_prefetch_MPKI 0
Core_0_L1I_prefetch_miss_rate 0
Core_0_L1I_writeback_access 0
Core_0_L1I_writeback_hit 0
Core_0_L1I_writeback_miss 0
Core_0_L1I_writeback_MPKI 0
Core_0_L1I_writeback_miss_rate 0
Core_0_L1I_prefetch_requested 0
Core_0_L1I_prefetch_issued 0
Core_0_L1I_prefetch_useful 0
Core_0_L1I_prefetch_useless 0
Core_0_L1I_prefetch_late 0
Core_0_L1I_prefetch_accuracy 0
Core_0_L1I_prefetch_coverage 0

Core_0_L1D_total_access 15737925
Core_0_L1D_total_hit 15660483
Core_0_L1D_total_miss 77442
Core_0_L1D_total_MPKI 1.54884
Core_0_L1D_total_miss_rate 0.00492072
Core_0_L1D_demand_access 9507270
Core_0_L1D_demand_hit 9468163
Core_0_L1D_demand_miss 39107
Core_0_L1D_demand_MPKI 0.78214
Core_0_L1D_demand_miss_rate 0.00411338
Core_0_L1D_load_access 9507270
Core_0_L1D_load_hit 9468163
Core_0_L1D_load_miss 39107
Core_0_L1D_load_MPKI 0.78214
Core_0_L1D_load_miss_rate 0.00411338
Core_0_L1D_rfo_access 0
Core_0_L1D_rfo_hit 0
Core_0_L1D_rfo_miss 0
Core_0_L1D_rfo_MPKI 0
Core_0_L1D_rfo_miss_rate 0
Core_0_L1D_prefetch_access 330161
Core_0_L1D_prefetch_hit 308103
Core_0_L1D_prefetch_miss 22058
Core_0_L1D_prefetch_MPKI 0.44116
Core_0_L1D_prefetch_miss_rate 0.0668098
Core_0_L1D_writeback_access 5900494
Core_0_L1D_writeback_hit 5884217
Core_0_L1D_writeback_miss 16277
Core_0_L1D_writeback_MPKI 0.32554
Core_0_L1D_writeback_miss_rate 0.00275858
Core_0_L1D_prefetch_requested 434186
Core_0_L1D_prefetch_issued 330161
Core_0_L1D_prefetch_useful 7607
Core_0_L1D_prefetch_useless 13627
Core_0_L1D_prefetch_late 246
Core_0_L1D_prefetch_accuracy 0.0230403
Core_0_L1D_prefetch_coverage 0.162842

Core_0_L2C_total_access 127861
Core_0_L2C_total_hit 125888
Core_0_L2C_total_miss 1973
Core_0_L2C_total_MPKI 0.03946
Core_0_L2C_total_miss_rate 0.0154308
Core_0_L2C_demand_access 39624
Core_0_L2C_demand_hit 39205
Core_0_L2C_demand_miss 419
Core_0_L2C_demand_MPKI 0.00838
Core_0_L2C_demand_miss_rate 0.0105744
Core_0_L2C_load_access 30155
Core_0_L2C_load_hit 29814
Core_0_L2C_load_miss 341
Core_0_L2C_load_MPKI 0.00682
Core_0_L2C_load_miss_rate 0.0113082
Core_0_L2C_rfo_access 9469
Core_0_L2C_rfo_hit 9391
Core_0_L2C_rfo_miss 78
Core_0_L2C_rfo_MPKI 0.00156
Core_0_L2C_rfo_miss_rate 0.00823741
Core_0_L2C_prefetch_access 74952
Core_0_L2C_prefetch_hit 73401
Core_0_L2C_prefetch_miss 1551
Core_0_L2C_prefetch_MPKI 0.03102
Core_0_L2C_prefetch_miss_rate 0.0206932
Core_0_L2C_writeback_access 13285
Core_0_L2C_writeback_hit 13282
Core_0_L2C_writeback_miss 3
Core_0_L2C_writeback_MPKI 6e-05
Core_0_L2C_writeback_miss_rate 0.000225819
Core_0_L2C_prefetch_requested 53878
Core_0_L2C_prefetch_issued 53643
Core_0_L2C_prefetch_useful 525
Core_0_L2C_prefetch_useless 123
Core_0_L2C_prefetch_late 3
Core_0_L2C_prefetch_accuracy 0.00978692
Core_0_L2C_prefetch_coverage 0.556144

Core_0_LLC_total_access 1917
Core_0_LLC_total_hit 337
Core_0_LLC_total_miss 1580
Core_0_LLC_total_MPKI 0.0316
Core_0_LLC_total_miss_rate 0.824204
Core_0_LLC_demand_access 416
Core_0_LLC_demand_hit 90
Core_0_LLC_demand_miss 326
Core_0_LLC_demand_MPKI 0.00652
Core_0_LLC_demand_miss_rate 0.783654
Core_0_LLC_load_access 338
Core_0_LLC_load_hit 86
Core_0_LLC_load_miss 252
Core_0_LLC_load_MPKI 0.00504
Core_0_LLC_load_miss_rate 0.745562
Core_0_LLC_rfo_access 78
Core_0_LLC_rfo_hit 4
Core_0_LLC_rfo_miss 74
Core_0_LLC_rfo_MPKI 0.00148
Core_0_LLC_rfo_miss_rate 0.948718
Core_0_LLC_prefetch_access 1440
Core_0_LLC_prefetch_hit 186
Core_0_LLC_prefetch_miss 1254
Core_0_LLC_prefetch_MPKI 0.02508
Core_0_LLC_prefetch_miss_rate 0.870833
Core_0_LLC_writeback_access 61
Core_0_LLC_writeback_hit 61
Core_0_LLC_writeback_miss 0
Core_0_LLC_writeback_MPKI 0
Core_0_LLC_writeback_miss_rate 0
Core_0_LLC_prefetch_requested 0
Core_0_LLC_prefetch_issued 0
Core_0_LLC_prefetch_useful 0
Core_0_LLC_prefetch_useless 0
Core_0_LLC_prefetch_late 0
Core_0_LLC_prefetch_accuracy 0
Core_0_LLC_prefetch_coverage 0

[DRAM Statistics]
Channel_0_RQ_row_buffer_hit 14
Channel_0_RQ_row_buffer_miss 1566
Channel_0_WQ_row_buffer_hit 0
Channel_0_WQ_row_buffer_miss 0
Channel_0_WQ_full 0
Channel_0_dbus_congested 1125
DRAM_total_RQ_row_buffer_hit 14
DRAM_total_RQ_row_buffer_miss 1566
DRAM_total_WQ_row_buffer_hit 0
DRAM_total_WQ_row_buffer_miss 0
DRAM_total_WQ_full 0
DRAM_total_dbus_congested 1125
DRAM_avg_congested_cycle 2.776

======STLB miss causes ========
Core_0_STLB_miss_cause_breakdown
Core_0_STLB_cause_Demand_Data_miss 0
Core_0_STLB_cause_Demand_Data_miss_rate 0
Core_0_STLB_cause_Demand_Instruction_miss 0
Core_0_STLB_cause_Demand_Instruction_miss_rate 0
Core_0_STLB_cause_L1D_Prefetch_miss 0
Core_0_STLB_cause_L1D_Prefetch_miss_rate 0
Core_0_STLB_cause_L1I_Prefetch_miss 0
Core_0_STLB_cause_L1I_Prefetch_miss_rate 0
Core_0_STLB_cause_Other_miss 0
Core_0_STLB_cause_Other_miss_rate 0
Core_0_STLB_Demand_miss 0
Core_0_STLB_Demand_miss_rate 0
Core_0_STLB_L1D_Prefetch_miss 0
Core_0_STLB_L1D_Prefetch_miss_rate 0
Core_0_STLB_Other_miss 0
Core_0_STLB_Other_miss_rate 0
