[VMEM] WARNING: physical memory size is smaller than virtual memory size.

*** ChampSim Multicore Out-of-Order Simulator ***
Warmup Instructions: 20000000
Simulation Instructions: 50000000
Number of CPUs: 1
Page size: 4096
STLB ideal mode: all
Core 0: /data0/tzh/champsim_traces/SPEC06/429.mcf-192B.champsimtrace.xz
 L1D Berti prefetcher
Off-chip DRAM Size: 4 GiB Channels: 1 Width: 64-bit Data Rate: 3205 MT/s
Warmup halting CPU 0 at instruction 20000005 cycle 4009276 for remainder of phase
Warmup finished CPU 0 instructions: 20000005 cycles: 4009276 cumulative IPC: 4.988 (Simulation time: 00 hr 01 min 45 sec)
Warmup complete CPU 0 instructions: 20000005 cycles: 4009276 cumulative IPC: 4.988 (Simulation time: 00 hr 01 min 45 sec)
Simulation finished CPU 0 instructions: 50000000 cycles: 222876801 cumulative IPC: 0.2243 (Simulation time: 00 hr 19 min 36 sec)
Simulation complete CPU 0 instructions: 50000000 cycles: 222876801 cumulative IPC: 0.2243 (Simulation time: 00 hr 19 min 36 sec)

ChampSim completed all CPUs

=== Simulation ===
CPU 0 runs /data0/tzh/champsim_traces/SPEC06/429.mcf-192B.champsimtrace.xz

Region of Interest Statistics

CPU 0 cumulative IPC: 0.2243 instructions: 50000000 cycles: 222876801
CPU 0 Branch Prediction Accuracy: 91.35% MPKI: 20.77 Average ROB Occupancy at Mispredict: 28.06
Branch type MPKI
BRANCH_DIRECT_JUMP: 0.02388
BRANCH_INDIRECT: 0
BRANCH_CONDITIONAL: 20.74
BRANCH_DIRECT_CALL: 0
BRANCH_INDIRECT_CALL: 0
BRANCH_RETURN: 0

cpu0->cpu0_STLB TOTAL        ACCESS:    7431272 HIT:    7431272 MISS:          0 MSHR_MERGE:          0
cpu0->cpu0_STLB LOAD         ACCESS:    7431272 HIT:    7431272 MISS:          0 MSHR_MERGE:          0
cpu0->cpu0_STLB RFO          ACCESS:          0 HIT:          0 MISS:          0 MSHR_MERGE:          0
cpu0->cpu0_STLB PREFETCH     ACCESS:          0 HIT:          0 MISS:          0 MSHR_MERGE:          0
cpu0->cpu0_STLB WRITE        ACCESS:          0 HIT:          0 MISS:          0 MSHR_MERGE:          0
cpu0->cpu0_STLB TRANSLATION  ACCESS:          0 HIT:          0 MISS:          0 MSHR_MERGE:          0
cpu0->cpu0_STLB PREFETCH REQUESTED:          0 ISSUED:          0 USEFUL:          0 USELESS:          0 LATE:          0
cpu0->cpu0_STLB AVERAGE MISS LATENCY: - cycles
cpu0->cpu0_L2C TOTAL        ACCESS:   14756449 HIT:    5768675 MISS:    8987774 MSHR_MERGE:      10556
cpu0->cpu0_L2C LOAD         ACCESS:    7078208 HIT:    4059365 MISS:    3018843 MSHR_MERGE:        208
cpu0->cpu0_L2C RFO          ACCESS:       1048 HIT:        263 MISS:        785 MSHR_MERGE:          3
cpu0->cpu0_L2C PREFETCH     ACCESS:    7664547 HIT:    1696443 MISS:    5968104 MSHR_MERGE:      10345
cpu0->cpu0_L2C WRITE        ACCESS:      12646 HIT:      12604 MISS:         42 MSHR_MERGE:          0
cpu0->cpu0_L2C TRANSLATION  ACCESS:          0 HIT:          0 MISS:          0 MSHR_MERGE:          0
cpu0->cpu0_L2C PREFETCH REQUESTED:    7323672 ISSUED:    7322045 USEFUL:    2603178 USELESS:    3065701 LATE:        211
cpu0->cpu0_L2C AVERAGE MISS LATENCY: 62.71 cycles
cpu0->cpu0_L1I TOTAL        ACCESS:      24489 HIT:      24489 MISS:          0 MSHR_MERGE:          0
cpu0->cpu0_L1I LOAD         ACCESS:      24489 HIT:      24489 MISS:          0 MSHR_MERGE:          0
cpu0->cpu0_L1I RFO          ACCESS:          0 HIT:          0 MISS:          0 MSHR_MERGE:          0
cpu0->cpu0_L1I PREFETCH     ACCESS:          0 HIT:          0 MISS:          0 MSHR_MERGE:          0
cpu0->cpu0_L1I WRITE        ACCESS:          0 HIT:          0 MISS:          0 MSHR_MERGE:          0
cpu0->cpu0_L1I TRANSLATION  ACCESS:          0 HIT:          0 MISS:          0 MSHR_MERGE:          0
cpu0->cpu0_L1I PREFETCH REQUESTED:          0 ISSUED:          0 USEFUL:          0 USELESS:          0 LATE:          0
cpu0->cpu0_L1I AVERAGE MISS LATENCY: - cycles
cpu0->cpu0_L1D TOTAL        ACCESS:   12755740 HIT:    3358167 MISS:    9397573 MSHR_MERGE:    1975830
cpu0->cpu0_L1D LOAD         ACCESS:   12333591 HIT:    3281423 MISS:    9052168 MSHR_MERGE:    1973961
cpu0->cpu0_L1D RFO          ACCESS:          0 HIT:          0 MISS:          0 MSHR_MERGE:          0
cpu0->cpu0_L1D PREFETCH     ACCESS:     379342 HIT:      35616 MISS:     343726 MSHR_MERGE:       1238
cpu0->cpu0_L1D WRITE        ACCESS:      42807 HIT:      41128 MISS:       1679 MSHR_MERGE:        631
cpu0->cpu0_L1D TRANSLATION  ACCESS:          0 HIT:          0 MISS:          0 MSHR_MERGE:          0
cpu0->cpu0_L1D PREFETCH REQUESTED:     379416 ISSUED:     379342 USEFUL:       8158 USELESS:     334318 LATE:        236
cpu0->cpu0_L1D AVERAGE MISS LATENCY: 35.19 cycles
cpu0->cpu0_ITLB TOTAL        ACCESS:      21737 HIT:      21737 MISS:          0 MSHR_MERGE:          0
cpu0->cpu0_ITLB LOAD         ACCESS:      21737 HIT:      21737 MISS:          0 MSHR_MERGE:          0
cpu0->cpu0_ITLB RFO          ACCESS:          0 HIT:          0 MISS:          0 MSHR_MERGE:          0
cpu0->cpu0_ITLB PREFETCH     ACCESS:          0 HIT:          0 MISS:          0 MSHR_MERGE:          0
cpu0->cpu0_ITLB WRITE        ACCESS:          0 HIT:          0 MISS:          0 MSHR_MERGE:          0
cpu0->cpu0_ITLB TRANSLATION  ACCESS:          0 HIT:          0 MISS:          0 MSHR_MERGE:          0
cpu0->cpu0_ITLB PREFETCH REQUESTED:          0 ISSUED:          0 USEFUL:          0 USELESS:          0 LATE:          0
cpu0->cpu0_ITLB AVERAGE MISS LATENCY: - cycles
cpu0->cpu0_DTLB TOTAL        ACCESS:   12745061 HIT:    3288558 MISS:    9456503 MSHR_MERGE:    2025232
cpu0->cpu0_DTLB LOAD         ACCESS:   12745061 HIT:    3288558 MISS:    9456503 MSHR_MERGE:    2025232
cpu0->cpu0_DTLB RFO          ACCESS:          0 HIT:          0 MISS:          0 MSHR_MERGE:          0
cpu0->cpu0_DTLB PREFETCH     ACCESS:          0 HIT:          0 MISS:          0 MSHR_MERGE:          0
cpu0->cpu0_DTLB WRITE        ACCESS:          0 HIT:          0 MISS:          0 MSHR_MERGE:          0
cpu0->cpu0_DTLB TRANSLATION  ACCESS:          0 HIT:          0 MISS:          0 MSHR_MERGE:          0
cpu0->cpu0_DTLB PREFETCH REQUESTED:          0 ISSUED:          0 USEFUL:          0 USELESS:          0 LATE:          0
cpu0->cpu0_DTLB AVERAGE MISS LATENCY: 5.001 cycles
cpu0->LLC TOTAL        ACCESS:    8988131 HIT:    4810941 MISS:    4177190 MSHR_MERGE:          0
cpu0->LLC LOAD         ACCESS:    3018635 HIT:    2367512 MISS:     651123 MSHR_MERGE:          0
cpu0->LLC RFO          ACCESS:        782 HIT:        487 MISS:        295 MSHR_MERGE:          0
cpu0->LLC PREFETCH     ACCESS:    5957759 HIT:    2434904 MISS:    3522855 MSHR_MERGE:          0
cpu0->LLC WRITE        ACCESS:      10955 HIT:       8038 MISS:       2917 MSHR_MERGE:          0
cpu0->LLC TRANSLATION  ACCESS:          0 HIT:          0 MISS:          0 MSHR_MERGE:          0
cpu0->LLC PREFETCH REQUESTED:          0 ISSUED:          0 USEFUL:          0 USELESS:          0 LATE:          0
cpu0->LLC AVERAGE MISS LATENCY: 219.1 cycles

DRAM Statistics

Channel 0 RQ ROW_BUFFER_HIT:       2657
  ROW_BUFFER_MISS:    4171259
  AVG DBUS CONGESTED CYCLE: 4.891
Channel 0 WQ ROW_BUFFER_HIT:       1824
  ROW_BUFFER_MISS:       2531
  FULL:          0
Channel 0 REFRESHES ISSUED:      18573

[ROI Statistics]
[System Configuration]
num_cpus 1
cpu_freq 4000
fetch_width 6
decode_width 6
dispatch_width 6
execute_width 6
lq_width 2
sq_width 2
retire_width 6
scheduler_size 160
branch_mispredict_penalty 1
rob_size 352
lq_size 240
sq_size 112
ifetch_buffer_size 64
decode_buffer_size 32
dispatch_buffer_size 32
register_file_size 288
decode_latency 1
dispatch_latency 1
schedule_latency 0
execute_latency 0
page_size 4096
block_size 64
core_0_itlb_set 16
core_0_itlb_way 4
core_0_itlb_rq_size 16
core_0_itlb_wq_size 16
core_0_itlb_pq_size 0
core_0_itlb_mshr_size 8
core_0_itlb_hit_latency 1
core_0_itlb_fill_latency 1
core_0_itlb_max_tag_check 2
core_0_itlb_max_fill 2
core_0_dtlb_set 16
core_0_dtlb_way 4
core_0_dtlb_rq_size 16
core_0_dtlb_wq_size 16
core_0_dtlb_pq_size 0
core_0_dtlb_mshr_size 8
core_0_dtlb_hit_latency 1
core_0_dtlb_fill_latency 1
core_0_dtlb_max_tag_check 2
core_0_dtlb_max_fill 2
core_0_stlb_set 128
core_0_stlb_way 12
core_0_stlb_rq_size 32
core_0_stlb_wq_size 32
core_0_stlb_pq_size 0
core_0_stlb_mshr_size 16
core_0_stlb_hit_latency 4
core_0_stlb_fill_latency 4
core_0_stlb_max_tag_check 1
core_0_stlb_max_fill 1
core_0_l1i_set 64
core_0_l1i_way 8
core_0_l1i_rq_size 64
core_0_l1i_wq_size 64
core_0_l1i_pq_size 32
core_0_l1i_mshr_size 8
core_0_l1i_hit_latency 2
core_0_l1i_fill_latency 2
core_0_l1i_max_tag_check 2
core_0_l1i_max_fill 2
core_0_l1d_set 64
core_0_l1d_way 12
core_0_l1d_rq_size 64
core_0_l1d_wq_size 64
core_0_l1d_pq_size 8
core_0_l1d_mshr_size 16
core_0_l1d_hit_latency 2
core_0_l1d_fill_latency 3
core_0_l1d_max_tag_check 2
core_0_l1d_max_fill 2
core_0_l2c_set 1024
core_0_l2c_way 8
core_0_l2c_rq_size 32
core_0_l2c_wq_size 32
core_0_l2c_pq_size 16
core_0_l2c_mshr_size 32
core_0_l2c_hit_latency 5
core_0_l2c_fill_latency 5
core_0_l2c_max_tag_check 1
core_0_l2c_max_fill 1
llc_set 2048
llc_way 16
llc_rq_size 32
llc_wq_size 32
llc_pq_size 32
llc_mshr_size 64
llc_hit_latency 10
llc_fill_latency 10
llc_max_tag_check 1
llc_max_fill 1
dram_channels 1
dram_ranks 1
dram_bankgroups 8
dram_banks 4
dram_rows 16384
dram_columns 1024
dram_channel_width 8
dram_rq_size 64
dram_wq_size 64
dram_size 4294967296
core_0_itlb_prefetcher no
core_0_dtlb_prefetcher no
core_0_stlb_prefetcher no
core_0_l1i_prefetcher next_line
core_0_l1d_prefetcher berti
core_0_l2c_prefetcher pythia
llc_prefetcher no
llc_replacement drrip

Core_0_instructions 50000000
Core_0_cycles 222876801
Core_0_IPC 0.224339
Core_0_branch_prediction_accuracy 91.3539
Core_0_branch_MPKI 20.7679
Core_0_average_ROB_occupancy_at_mispredict 28.0569

Core_0_ITLB_total_access 21737
Core_0_ITLB_total_hit 21737
Core_0_ITLB_total_miss 0
Core_0_ITLB_total_MPKI 0
Core_0_ITLB_total_miss_rate 0
Core_0_ITLB_demand_access 21737
Core_0_ITLB_demand_hit 21737
Core_0_ITLB_demand_miss 0
Core_0_ITLB_demand_MPKI 0
Core_0_ITLB_demand_miss_rate 0
Core_0_ITLB_load_access 21737
Core_0_ITLB_load_hit 21737
Core_0_ITLB_load_miss 0
Core_0_ITLB_load_MPKI 0
Core_0_ITLB_load_miss_rate 0
Core_0_ITLB_rfo_access 0
Core_0_ITLB_rfo_hit 0
Core_0_ITLB_rfo_miss 0
Core_0_ITLB_rfo_MPKI 0
Core_0_ITLB_rfo_miss_rate 0
Core_0_ITLB_prefetch_access 0
Core_0_ITLB_prefetch_hit 0
Core_0_ITLB_prefetch_miss 0
Core_0_ITLB_prefetch_MPKI 0
Core_0_ITLB_prefetch_miss_rate 0
Core_0_ITLB_writeback_access 0
Core_0_ITLB_writeback_hit 0
Core_0_ITLB_writeback_miss 0
Core_0_ITLB_writeback_MPKI 0
Core_0_ITLB_writeback_miss_rate 0
Core_0_ITLB_prefetch_requested 0
Core_0_ITLB_prefetch_issued 0
Core_0_ITLB_prefetch_useful 0
Core_0_ITLB_prefetch_useless 0
Core_0_ITLB_prefetch_late 0
Core_0_ITLB_prefetch_accuracy 0
Core_0_ITLB_prefetch_coverage 0

Core_0_DTLB_total_access 12745061
Core_0_DTLB_total_hit 3288558
Core_0_DTLB_total_miss 9456503
Core_0_DTLB_total_MPKI 189.13
Core_0_DTLB_total_miss_rate 0.741974
Core_0_DTLB_demand_access 12745061
Core_0_DTLB_demand_hit 3288558
Core_0_DTLB_demand_miss 9456503
Core_0_DTLB_demand_MPKI 189.13
Core_0_DTLB_demand_miss_rate 0.741974
Core_0_DTLB_load_access 12745061
Core_0_DTLB_load_hit 3288558
Core_0_DTLB_load_miss 9456503
Core_0_DTLB_load_MPKI 189.13
Core_0_DTLB_load_miss_rate 0.741974
Core_0_DTLB_rfo_access 0
Core_0_DTLB_rfo_hit 0
Core_0_DTLB_rfo_miss 0
Core_0_DTLB_rfo_MPKI 0
Core_0_DTLB_rfo_miss_rate 0
Core_0_DTLB_prefetch_access 0
Core_0_DTLB_prefetch_hit 0
Core_0_DTLB_prefetch_miss 0
Core_0_DTLB_prefetch_MPKI 0
Core_0_DTLB_prefetch_miss_rate 0
Core_0_DTLB_writeback_access 0
Core_0_DTLB_writeback_hit 0
Core_0_DTLB_writeback_miss 0
Core_0_DTLB_writeback_MPKI 0
Core_0_DTLB_writeback_miss_rate 0
Core_0_DTLB_prefetch_requested 0
Core_0_DTLB_prefetch_issued 0
Core_0_DTLB_prefetch_useful 0
Core_0_DTLB_prefetch_useless 0
Core_0_DTLB_prefetch_late 0
Core_0_DTLB_prefetch_accuracy 0
Core_0_DTLB_prefetch_coverage 0

Core_0_STLB_total_access 7431272
Core_0_STLB_total_hit 7431272
Core_0_STLB_total_miss 0
Core_0_STLB_total_MPKI 0
Core_0_STLB_total_miss_rate 0
Core_0_STLB_demand_access 7431272
Core_0_STLB_demand_hit 7431272
Core_0_STLB_demand_miss 0
Core_0_STLB_demand_MPKI 0
Core_0_STLB_demand_miss_rate 0
Core_0_STLB_load_access 7431272
Core_0_STLB_load_hit 7431272
Core_0_STLB_load_miss 0
Core_0_STLB_load_MPKI 0
Core_0_STLB_load_miss_rate 0
Core_0_STLB_rfo_access 0
Core_0_STLB_rfo_hit 0
Core_0_STLB_rfo_miss 0
Core_0_STLB_rfo_MPKI 0
Core_0_STLB_rfo_miss_rate 0
Core_0_STLB_prefetch_access 0
Core_0_STLB_prefetch_hit 0
Core_0_STLB_prefetch_miss 0
Core_0_STLB_prefetch_MPKI 0
Core_0_STLB_prefetch_miss_rate 0
Core_0_STLB_writeback_access 0
Core_0_STLB_writeback_hit 0
Core_0_STLB_writeback_miss 0
Core_0_STLB_writeback_MPKI 0
Core_0_STLB_writeback_miss_rate 0
Core_0_STLB_prefetch_requested 0
Core_0_STLB_prefetch_issued 0
Core_0_STLB_prefetch_useful 0
Core_0_STLB_prefetch_useless 0
Core_0_STLB_prefetch_late 0
Core_0_STLB_prefetch_accuracy 0
Core_0_STLB_prefetch_coverage 0

Core_0_L1I_total_access 24489
Core_0_L1I_total_hit 24489
Core_0_L1I_total_miss 0
Core_0_L1I_total_MPKI 0
Core_0_L1I_total_miss_rate 0
Core_0_L1I_demand_access 24489
Core_0_L1I_demand_hit 24489
Core_0_L1I_demand_miss 0
Core_0_L1I_demand_MPKI 0
Core_0_L1I_demand_miss_rate 0
Core_0_L1I_load_access 24489
Core_0_L1I_load_hit 24489
Core_0_L1I_load_miss 0
Core_0_L1I_load_MPKI 0
Core_0_L1I_load_miss_rate 0
Core_0_L1I_rfo_access 0
Core_0_L1I_rfo_hit 0
Core_0_L1I_rfo_miss 0
Core_0_L1I_rfo_MPKI 0
Core_0_L1I_rfo_miss_rate 0
Core_0_L1I_prefetch_access 0
Core_0_L1I_prefetch_hit 0
Core_0_L1I_prefetch_miss 0
Core_0_L1I_prefetch_MPKI 0
Core_0_L1I_prefetch_miss_rate 0
Core_0_L1I_writeback_access 0
Core_0_L1I_writeback_hit 0
Core_0_L1I_writeback_miss 0
Core_0_L1I_writeback_MPKI 0
Core_0_L1I_writeback_miss_rate 0
Core_0_L1I_prefetch_requested 0
Core_0_L1I_prefetch_issued 0
Core_0_L1I_prefetch_useful 0
Core_0_L1I_prefetch_useless 0
Core_0_L1I_prefetch_late 0
Core_0_L1I_prefetch_accuracy 0
Core_0_L1I_prefetch_coverage 0

Core_0_L1D_total_access 12755740
Core_0_L1D_total_hit 3358167
Core_0_L1D_total_miss 9397573
Core_0_L1D_total_MPKI 187.951
Core_0_L1D_total_miss_rate 0.736733
Core_0_L1D_demand_access 12333591
Core_0_L1D_demand_hit 3281423
Core_0_L1D_demand_miss 9052168
Core_0_L1D_demand_MPKI 181.043
Core_0_L1D_demand_miss_rate 0.733944
Core_0_L1D_load_access 12333591
Core_0_L1D_load_hit 3281423
Core_0_L1D_load_miss 9052168
Core_0_L1D_load_MPKI 181.043
Core_0_L1D_load_miss_rate 0.733944
Core_0_L1D_rfo_access 0
Core_0_L1D_rfo_hit 0
Core_0_L1D_rfo_miss 0
Core_0_L1D_rfo_MPKI 0
Core_0_L1D_rfo_miss_rate 0
Core_0_L1D_prefetch_access 379342
Core_0_L1D_prefetch_hit 35616
Core_0_L1D_prefetch_miss 343726
Core_0_L1D_prefetch_MPKI 6.87452
Core_0_L1D_prefetch_miss_rate 0.906111
Core_0_L1D_writeback_access 42807
Core_0_L1D_writeback_hit 41128
Core_0_L1D_writeback_miss 1679
Core_0_L1D_writeback_MPKI 0.03358
Core_0_L1D_writeback_miss_rate 0.0392226
Core_0_L1D_prefetch_requested 379416
Core_0_L1D_prefetch_issued 379342
Core_0_L1D_prefetch_useful 8158
Core_0_L1D_prefetch_useless 334318
Core_0_L1D_prefetch_late 236
Core_0_L1D_prefetch_accuracy 0.0215057
Core_0_L1D_prefetch_coverage 0.000900409

Core_0_L2C_total_access 14756449
Core_0_L2C_total_hit 5768675
Core_0_L2C_total_miss 8987774
Core_0_L2C_total_MPKI 179.755
Core_0_L2C_total_miss_rate 0.609074
Core_0_L2C_demand_access 7079256
Core_0_L2C_demand_hit 4059628
Core_0_L2C_demand_miss 3019628
Core_0_L2C_demand_MPKI 60.3926
Core_0_L2C_demand_miss_rate 0.426546
Core_0_L2C_load_access 7078208
Core_0_L2C_load_hit 4059365
Core_0_L2C_load_miss 3018843
Core_0_L2C_load_MPKI 60.3769
Core_0_L2C_load_miss_rate 0.426498
Core_0_L2C_rfo_access 1048
Core_0_L2C_rfo_hit 263
Core_0_L2C_rfo_miss 785
Core_0_L2C_rfo_MPKI 0.0157
Core_0_L2C_rfo_miss_rate 0.749046
Core_0_L2C_prefetch_access 7664547
Core_0_L2C_prefetch_hit 1696443
Core_0_L2C_prefetch_miss 5968104
Core_0_L2C_prefetch_MPKI 119.362
Core_0_L2C_prefetch_miss_rate 0.778664
Core_0_L2C_writeback_access 12646
Core_0_L2C_writeback_hit 12604
Core_0_L2C_writeback_miss 42
Core_0_L2C_writeback_MPKI 0.00084
Core_0_L2C_writeback_miss_rate 0.00332121
Core_0_L2C_prefetch_requested 7323672
Core_0_L2C_prefetch_issued 7322045
Core_0_L2C_prefetch_useful 2603178
Core_0_L2C_prefetch_useless 3065701
Core_0_L2C_prefetch_late 211
Core_0_L2C_prefetch_accuracy 0.355526
Core_0_L2C_prefetch_coverage 0.462968

Core_0_LLC_total_access 8988131
Core_0_LLC_total_hit 4810941
Core_0_LLC_total_miss 4177190
Core_0_LLC_total_MPKI 83.5438
Core_0_LLC_total_miss_rate 0.464745
Core_0_LLC_demand_access 3019417
Core_0_LLC_demand_hit 2367999
Core_0_LLC_demand_miss 651418
Core_0_LLC_demand_MPKI 13.0284
Core_0_LLC_demand_miss_rate 0.215743
Core_0_LLC_load_access 3018635
Core_0_LLC_load_hit 2367512
Core_0_LLC_load_miss 651123
Core_0_LLC_load_MPKI 13.0225
Core_0_LLC_load_miss_rate 0.215701
Core_0_LLC_rfo_access 782
Core_0_LLC_rfo_hit 487
Core_0_LLC_rfo_miss 295
Core_0_LLC_rfo_MPKI 0.0059
Core_0_LLC_rfo_miss_rate 0.377238
Core_0_LLC_prefetch_access 5957759
Core_0_LLC_prefetch_hit 2434904
Core_0_LLC_prefetch_miss 3522855
Core_0_LLC_prefetch_MPKI 70.4571
Core_0_LLC_prefetch_miss_rate 0.591305
Core_0_LLC_writeback_access 10955
Core_0_LLC_writeback_hit 8038
Core_0_LLC_writeback_miss 2917
Core_0_LLC_writeback_MPKI 0.05834
Core_0_LLC_writeback_miss_rate 0.266271
Core_0_LLC_prefetch_requested 0
Core_0_LLC_prefetch_issued 0
Core_0_LLC_prefetch_useful 0
Core_0_LLC_prefetch_useless 0
Core_0_LLC_prefetch_late 0
Core_0_LLC_prefetch_accuracy 0
Core_0_LLC_prefetch_coverage 0

[DRAM Statistics]
Channel_0_RQ_row_buffer_hit 2657
Channel_0_RQ_row_buffer_miss 4171259
Channel_0_WQ_row_buffer_hit 1824
Channel_0_WQ_row_buffer_miss 2531
Channel_0_WQ_full 0
Channel_0_dbus_congested 5617518
DRAM_total_RQ_row_buffer_hit 2657
DRAM_total_RQ_row_buffer_miss 4171259
DRAM_total_WQ_row_buffer_hit 1824
DRAM_total_WQ_row_buffer_miss 2531
DRAM_total_WQ_full 0
DRAM_total_dbus_congested 5617518
DRAM_avg_congested_cycle 4.89127

======STLB miss causes ========
Core_0_STLB_miss_cause_breakdown
Core_0_STLB_cause_Demand_Data_miss 0
Core_0_STLB_cause_Demand_Data_miss_rate 0
Core_0_STLB_cause_Demand_Instruction_miss 0
Core_0_STLB_cause_Demand_Instruction_miss_rate 0
Core_0_STLB_cause_L1D_Prefetch_miss 0
Core_0_STLB_cause_L1D_Prefetch_miss_rate 0
Core_0_STLB_cause_L1I_Prefetch_miss 0
Core_0_STLB_cause_L1I_Prefetch_miss_rate 0
Core_0_STLB_cause_Other_miss 0
Core_0_STLB_cause_Other_miss_rate 0
Core_0_STLB_Demand_miss 0
Core_0_STLB_Demand_miss_rate 0
Core_0_STLB_L1D_Prefetch_miss 0
Core_0_STLB_L1D_Prefetch_miss_rate 0
Core_0_STLB_Other_miss 0
Core_0_STLB_Other_miss_rate 0
