[VMEM] WARNING: physical memory size is smaller than virtual memory size.

*** ChampSim Multicore Out-of-Order Simulator ***
Warmup Instructions: 20000000
Simulation Instructions: 50000000
Number of CPUs: 1
Page size: 4096
STLB ideal mode: all
Core 0: /data0/tzh/champsim_traces/SPEC06/437.leslie3d-134B.champsimtrace.xz
 L1D Berti prefetcher
Off-chip DRAM Size: 4 GiB Channels: 1 Width: 64-bit Data Rate: 3205 MT/s
Warmup halting CPU 0 at instruction 20000004 cycle 4237653 for remainder of phase
Warmup finished CPU 0 instructions: 20000004 cycles: 4237653 cumulative IPC: 4.72 (Simulation time: 00 hr 01 min 02 sec)
Warmup complete CPU 0 instructions: 20000004 cycles: 4237653 cumulative IPC: 4.72 (Simulation time: 00 hr 01 min 02 sec)
Simulation finished CPU 0 instructions: 50000002 cycles: 16448579 cumulative IPC: 3.04 (Simulation time: 00 hr 04 min 25 sec)
Simulation complete CPU 0 instructions: 50000002 cycles: 16448579 cumulative IPC: 3.04 (Simulation time: 00 hr 04 min 25 sec)

ChampSim completed all CPUs

=== Simulation ===
CPU 0 runs /data0/tzh/champsim_traces/SPEC06/437.leslie3d-134B.champsimtrace.xz

Region of Interest Statistics

CPU 0 cumulative IPC: 3.04 instructions: 50000002 cycles: 16448579
CPU 0 Branch Prediction Accuracy: 99.11% MPKI: 0.2357 Average ROB Occupancy at Mispredict: 325.6
Branch type MPKI
BRANCH_DIRECT_JUMP: 0
BRANCH_INDIRECT: 0
BRANCH_CONDITIONAL: 0.2357
BRANCH_DIRECT_CALL: 0
BRANCH_INDIRECT_CALL: 0
BRANCH_RETURN: 0

cpu0->cpu0_STLB TOTAL        ACCESS:      38253 HIT:      38253 MISS:          0 MSHR_MERGE:          0
cpu0->cpu0_STLB LOAD         ACCESS:      38253 HIT:      38253 MISS:          0 MSHR_MERGE:          0
cpu0->cpu0_STLB RFO          ACCESS:          0 HIT:          0 MISS:          0 MSHR_MERGE:          0
cpu0->cpu0_STLB PREFETCH     ACCESS:          0 HIT:          0 MISS:          0 MSHR_MERGE:          0
cpu0->cpu0_STLB WRITE        ACCESS:          0 HIT:          0 MISS:          0 MSHR_MERGE:          0
cpu0->cpu0_STLB TRANSLATION  ACCESS:          0 HIT:          0 MISS:          0 MSHR_MERGE:          0
cpu0->cpu0_STLB PREFETCH REQUESTED:          0 ISSUED:          0 USEFUL:          0 USELESS:          0 LATE:          0
cpu0->cpu0_STLB AVERAGE MISS LATENCY: - cycles
cpu0->cpu0_L2C TOTAL        ACCESS:    2924799 HIT:    2236783 MISS:     688016 MSHR_MERGE:     319617
cpu0->cpu0_L2C LOAD         ACCESS:      80847 HIT:      54943 MISS:      25904 MSHR_MERGE:       4196
cpu0->cpu0_L2C RFO          ACCESS:      92730 HIT:      83082 MISS:       9648 MSHR_MERGE:          0
cpu0->cpu0_L2C PREFETCH     ACCESS:    2582923 HIT:    1930789 MISS:     652134 MSHR_MERGE:     315421
cpu0->cpu0_L2C WRITE        ACCESS:     168299 HIT:     167969 MISS:        330 MSHR_MERGE:          0
cpu0->cpu0_L2C TRANSLATION  ACCESS:          0 HIT:          0 MISS:          0 MSHR_MERGE:          0
cpu0->cpu0_L2C PREFETCH REQUESTED:    2246044 ISSUED:    2153919 USEFUL:     228773 USELESS:      84568 LATE:       4196
cpu0->cpu0_L2C AVERAGE MISS LATENCY: 46.82 cycles
cpu0->cpu0_L1I TOTAL        ACCESS:    7743126 HIT:    7743126 MISS:          0 MSHR_MERGE:          0
cpu0->cpu0_L1I LOAD         ACCESS:    7743126 HIT:    7743126 MISS:          0 MSHR_MERGE:          0
cpu0->cpu0_L1I RFO          ACCESS:          0 HIT:          0 MISS:          0 MSHR_MERGE:          0
cpu0->cpu0_L1I PREFETCH     ACCESS:          0 HIT:          0 MISS:          0 MSHR_MERGE:          0
cpu0->cpu0_L1I WRITE        ACCESS:          0 HIT:          0 MISS:          0 MSHR_MERGE:          0
cpu0->cpu0_L1I TRANSLATION  ACCESS:          0 HIT:          0 MISS:          0 MSHR_MERGE:          0
cpu0->cpu0_L1I PREFETCH REQUESTED:          0 ISSUED:          0 USEFUL:          0 USELESS:          0 LATE:          0
cpu0->cpu0_L1I AVERAGE MISS LATENCY: - cycles
cpu0->cpu0_L1D TOTAL        ACCESS:   14512823 HIT:   13657237 MISS:     855586 MSHR_MERGE:     252992
cpu0->cpu0_L1D LOAD         ACCESS:   11886594 HIT:   11685445 MISS:     201149 MSHR_MERGE:     120300
cpu0->cpu0_L1D RFO          ACCESS:          0 HIT:          0 MISS:          0 MSHR_MERGE:          0
cpu0->cpu0_L1D PREFETCH     ACCESS:     607708 HIT:     174564 MISS:     433144 MSHR_MERGE:       4140
cpu0->cpu0_L1D WRITE        ACCESS:    2018521 HIT:    1797228 MISS:     221293 MSHR_MERGE:     128552
cpu0->cpu0_L1D TRANSLATION  ACCESS:          0 HIT:          0 MISS:          0 MSHR_MERGE:          0
cpu0->cpu0_L1D PREFETCH REQUESTED:     622823 ISSUED:     607700 USEFUL:     392647 USELESS:      36340 LATE:      21158
cpu0->cpu0_L1D AVERAGE MISS LATENCY: 22.92 cycles
cpu0->cpu0_ITLB TOTAL        ACCESS:    6412827 HIT:    6412827 MISS:          0 MSHR_MERGE:          0
cpu0->cpu0_ITLB LOAD         ACCESS:    6412827 HIT:    6412827 MISS:          0 MSHR_MERGE:          0
cpu0->cpu0_ITLB RFO          ACCESS:          0 HIT:          0 MISS:          0 MSHR_MERGE:          0
cpu0->cpu0_ITLB PREFETCH     ACCESS:          0 HIT:          0 MISS:          0 MSHR_MERGE:          0
cpu0->cpu0_ITLB WRITE        ACCESS:          0 HIT:          0 MISS:          0 MSHR_MERGE:          0
cpu0->cpu0_ITLB TRANSLATION  ACCESS:          0 HIT:          0 MISS:          0 MSHR_MERGE:          0
cpu0->cpu0_ITLB PREFETCH REQUESTED:          0 ISSUED:          0 USEFUL:          0 USELESS:          0 LATE:          0
cpu0->cpu0_ITLB AVERAGE MISS LATENCY: - cycles
cpu0->cpu0_DTLB TOTAL        ACCESS:   13735124 HIT:   13683178 MISS:      51946 MSHR_MERGE:      13693
cpu0->cpu0_DTLB LOAD         ACCESS:   13735124 HIT:   13683178 MISS:      51946 MSHR_MERGE:      13693
cpu0->cpu0_DTLB RFO          ACCESS:          0 HIT:          0 MISS:          0 MSHR_MERGE:          0
cpu0->cpu0_DTLB PREFETCH     ACCESS:          0 HIT:          0 MISS:          0 MSHR_MERGE:          0
cpu0->cpu0_DTLB WRITE        ACCESS:          0 HIT:          0 MISS:          0 MSHR_MERGE:          0
cpu0->cpu0_DTLB TRANSLATION  ACCESS:          0 HIT:          0 MISS:          0 MSHR_MERGE:          0
cpu0->cpu0_DTLB PREFETCH REQUESTED:          0 ISSUED:          0 USEFUL:          0 USELESS:          0 LATE:          0
cpu0->cpu0_DTLB AVERAGE MISS LATENCY: 5.001 cycles
cpu0->LLC TOTAL        ACCESS:     434850 HIT:     224426 MISS:     210424 MSHR_MERGE:          0
cpu0->LLC LOAD         ACCESS:      21708 HIT:      17356 MISS:       4352 MSHR_MERGE:          0
cpu0->LLC RFO          ACCESS:       9647 HIT:       9398 MISS:        249 MSHR_MERGE:          0
cpu0->LLC PREFETCH     ACCESS:     336713 HIT:     136583 MISS:     200130 MSHR_MERGE:          0
cpu0->LLC WRITE        ACCESS:      66782 HIT:      61089 MISS:       5693 MSHR_MERGE:          0
cpu0->LLC TRANSLATION  ACCESS:          0 HIT:          0 MISS:          0 MSHR_MERGE:          0
cpu0->LLC PREFETCH REQUESTED:          0 ISSUED:          0 USEFUL:          0 USELESS:          0 LATE:          0
cpu0->LLC AVERAGE MISS LATENCY: 94.33 cycles

DRAM Statistics

Channel 0 RQ ROW_BUFFER_HIT:        517
  ROW_BUFFER_MISS:     204162
  AVG DBUS CONGESTED CYCLE: 7.966
Channel 0 WQ ROW_BUFFER_HIT:       9206
  ROW_BUFFER_MISS:      34849
  FULL:          0
Channel 0 REFRESHES ISSUED:       1370

[ROI Statistics]
[System Configuration]
num_cpus 1
cpu_freq 4000
fetch_width 6
decode_width 6
dispatch_width 6
execute_width 6
lq_width 2
sq_width 2
retire_width 6
scheduler_size 160
branch_mispredict_penalty 1
rob_size 352
lq_size 240
sq_size 112
ifetch_buffer_size 64
decode_buffer_size 32
dispatch_buffer_size 32
register_file_size 288
decode_latency 1
dispatch_latency 1
schedule_latency 0
execute_latency 0
page_size 4096
block_size 64
core_0_itlb_set 16
core_0_itlb_way 4
core_0_itlb_rq_size 16
core_0_itlb_wq_size 16
core_0_itlb_pq_size 0
core_0_itlb_mshr_size 8
core_0_itlb_hit_latency 1
core_0_itlb_fill_latency 1
core_0_itlb_max_tag_check 2
core_0_itlb_max_fill 2
core_0_dtlb_set 16
core_0_dtlb_way 4
core_0_dtlb_rq_size 16
core_0_dtlb_wq_size 16
core_0_dtlb_pq_size 0
core_0_dtlb_mshr_size 8
core_0_dtlb_hit_latency 1
core_0_dtlb_fill_latency 1
core_0_dtlb_max_tag_check 2
core_0_dtlb_max_fill 2
core_0_stlb_set 128
core_0_stlb_way 12
core_0_stlb_rq_size 32
core_0_stlb_wq_size 32
core_0_stlb_pq_size 0
core_0_stlb_mshr_size 16
core_0_stlb_hit_latency 4
core_0_stlb_fill_latency 4
core_0_stlb_max_tag_check 1
core_0_stlb_max_fill 1
core_0_l1i_set 64
core_0_l1i_way 8
core_0_l1i_rq_size 64
core_0_l1i_wq_size 64
core_0_l1i_pq_size 32
core_0_l1i_mshr_size 8
core_0_l1i_hit_latency 2
core_0_l1i_fill_latency 2
core_0_l1i_max_tag_check 2
core_0_l1i_max_fill 2
core_0_l1d_set 64
core_0_l1d_way 12
core_0_l1d_rq_size 64
core_0_l1d_wq_size 64
core_0_l1d_pq_size 8
core_0_l1d_mshr_size 16
core_0_l1d_hit_latency 2
core_0_l1d_fill_latency 3
core_0_l1d_max_tag_check 2
core_0_l1d_max_fill 2
core_0_l2c_set 1024
core_0_l2c_way 8
core_0_l2c_rq_size 32
core_0_l2c_wq_size 32
core_0_l2c_pq_size 16
core_0_l2c_mshr_size 32
core_0_l2c_hit_latency 5
core_0_l2c_fill_latency 5
core_0_l2c_max_tag_check 1
core_0_l2c_max_fill 1
llc_set 2048
llc_way 16
llc_rq_size 32
llc_wq_size 32
llc_pq_size 32
llc_mshr_size 64
llc_hit_latency 10
llc_fill_latency 10
llc_max_tag_check 1
llc_max_fill 1
dram_channels 1
dram_ranks 1
dram_bankgroups 8
dram_banks 4
dram_rows 16384
dram_columns 1024
dram_channel_width 8
dram_rq_size 64
dram_wq_size 64
dram_size 4294967296
core_0_itlb_prefetcher no
core_0_dtlb_prefetcher no
core_0_stlb_prefetcher no
core_0_l1i_prefetcher next_line
core_0_l1d_prefetcher berti
core_0_l2c_prefetcher pythia
llc_prefetcher no
llc_replacement drrip

Core_0_instructions 50000002
Core_0_cycles 16448579
Core_0_IPC 3.03978
Core_0_branch_prediction_accuracy 99.112
Core_0_branch_MPKI 0.23574
Core_0_average_ROB_occupancy_at_mispredict 325.647

Core_0_ITLB_total_access 6412827
Core_0_ITLB_total_hit 6412827
Core_0_ITLB_total_miss 0
Core_0_ITLB_total_MPKI 0
Core_0_ITLB_total_miss_rate 0
Core_0_ITLB_demand_access 6412827
Core_0_ITLB_demand_hit 6412827
Core_0_ITLB_demand_miss 0
Core_0_ITLB_demand_MPKI 0
Core_0_ITLB_demand_miss_rate 0
Core_0_ITLB_load_access 6412827
Core_0_ITLB_load_hit 6412827
Core_0_ITLB_load_miss 0
Core_0_ITLB_load_MPKI 0
Core_0_ITLB_load_miss_rate 0
Core_0_ITLB_rfo_access 0
Core_0_ITLB_rfo_hit 0
Core_0_ITLB_rfo_miss 0
Core_0_ITLB_rfo_MPKI 0
Core_0_ITLB_rfo_miss_rate 0
Core_0_ITLB_prefetch_access 0
Core_0_ITLB_prefetch_hit 0
Core_0_ITLB_prefetch_miss 0
Core_0_ITLB_prefetch_MPKI 0
Core_0_ITLB_prefetch_miss_rate 0
Core_0_ITLB_writeback_access 0
Core_0_ITLB_writeback_hit 0
Core_0_ITLB_writeback_miss 0
Core_0_ITLB_writeback_MPKI 0
Core_0_ITLB_writeback_miss_rate 0
Core_0_ITLB_prefetch_requested 0
Core_0_ITLB_prefetch_issued 0
Core_0_ITLB_prefetch_useful 0
Core_0_ITLB_prefetch_useless 0
Core_0_ITLB_prefetch_late 0
Core_0_ITLB_prefetch_accuracy 0
Core_0_ITLB_prefetch_coverage 0

Core_0_DTLB_total_access 13735124
Core_0_DTLB_total_hit 13683178
Core_0_DTLB_total_miss 51946
Core_0_DTLB_total_MPKI 1.03892
Core_0_DTLB_total_miss_rate 0.00378198
Core_0_DTLB_demand_access 13735124
Core_0_DTLB_demand_hit 13683178
Core_0_DTLB_demand_miss 51946
Core_0_DTLB_demand_MPKI 1.03892
Core_0_DTLB_demand_miss_rate 0.00378198
Core_0_DTLB_load_access 13735124
Core_0_DTLB_load_hit 13683178
Core_0_DTLB_load_miss 51946
Core_0_DTLB_load_MPKI 1.03892
Core_0_DTLB_load_miss_rate 0.00378198
Core_0_DTLB_rfo_access 0
Core_0_DTLB_rfo_hit 0
Core_0_DTLB_rfo_miss 0
Core_0_DTLB_rfo_MPKI 0
Core_0_DTLB_rfo_miss_rate 0
Core_0_DTLB_prefetch_access 0
Core_0_DTLB_prefetch_hit 0
Core_0_DTLB_prefetch_miss 0
Core_0_DTLB_prefetch_MPKI 0
Core_0_DTLB_prefetch_miss_rate 0
Core_0_DTLB_writeback_access 0
Core_0_DTLB_writeback_hit 0
Core_0_DTLB_writeback_miss 0
Core_0_DTLB_writeback_MPKI 0
Core_0_DTLB_writeback_miss_rate 0
Core_0_DTLB_prefetch_requested 0
Core_0_DTLB_prefetch_issued 0
Core_0_DTLB_prefetch_useful 0
Core_0_DTLB_prefetch_useless 0
Core_0_DTLB_prefetch_late 0
Core_0_DTLB_prefetch_accuracy 0
Core_0_DTLB_prefetch_coverage 0

Core_0_STLB_total_access 38253
Core_0_STLB_total_hit 38253
Core_0_STLB_total_miss 0
Core_0_STLB_total_MPKI 0
Core_0_STLB_total_miss_rate 0
Core_0_STLB_demand_access 38253
Core_0_STLB_demand_hit 38253
Core_0_STLB_demand_miss 0
Core_0_STLB_demand_MPKI 0
Core_0_STLB_demand_miss_rate 0
Core_0_STLB_load_access 38253
Core_0_STLB_load_hit 38253
Core_0_STLB_load_miss 0
Core_0_STLB_load_MPKI 0
Core_0_STLB_load_miss_rate 0
Core_0_STLB_rfo_access 0
Core_0_STLB_rfo_hit 0
Core_0_STLB_rfo_miss 0
Core_0_STLB_rfo_MPKI 0
Core_0_STLB_rfo_miss_rate 0
Core_0_STLB_prefetch_access 0
Core_0_STLB_prefetch_hit 0
Core_0_STLB_prefetch_miss 0
Core_0_STLB_prefetch_MPKI 0
Core_0_STLB_prefetch_miss_rate 0
Core_0_STLB_writeback_access 0
Core_0_STLB_writeback_hit 0
Core_0_STLB_writeback_miss 0
Core_0_STLB_writeback_MPKI 0
Core_0_STLB_writeback_miss_rate 0
Core_0_STLB_prefetch_requested 0
Core_0_STLB_prefetch_issued 0
Core_0_STLB_prefetch_useful 0
Core_0_STLB_prefetch_useless 0
Core_0_STLB_prefetch_late 0
Core_0_STLB_prefetch_accuracy 0
Core_0_STLB_prefetch_coverage 0

Core_0_L1I_total_access 7743126
Core_0_L1I_total_hit 7743126
Core_0_L1I_total_miss 0
Core_0_L1I_total_MPKI 0
Core_0_L1I_total_miss_rate 0
Core_0_L1I_demand_access 7743126
Core_0_L1I_demand_hit 7743126
Core_0_L1I_demand_miss 0
Core_0_L1I_demand_MPKI 0
Core_0_L1I_demand_miss_rate 0
Core_0_L1I_load_access 7743126
Core_0_L1I_load_hit 7743126
Core_0_L1I_load_miss 0
Core_0_L1I_load_MPKI 0
Core_0_L1I_load_miss_rate 0
Core_0_L1I_rfo_access 0
Core_0_L1I_rfo_hit 0
Core_0_L1I_rfo_miss 0
Core_0_L1I_rfo_MPKI 0
Core_0_L1I_rfo_miss_rate 0
Core_0_L1I_prefetch_access 0
Core_0_L1I_prefetch_hit 0
Core_0_L1I_prefetch_miss 0
Core_0_L1I_prefetch_MPKI 0
Core_0_L1I_prefetch_miss_rate 0
Core_0_L1I_writeback_access 0
Core_0_L1I_writeback_hit 0
Core_0_L1I_writeback_miss 0
Core_0_L1I_writeback_MPKI 0
Core_0_L1I_writeback_miss_rate 0
Core_0_L1I_prefetch_requested 0
Core_0_L1I_prefetch_issued 0
Core_0_L1I_prefetch_useful 0
Core_0_L1I_prefetch_useless 0
Core_0_L1I_prefetch_late 0
Core_0_L1I_prefetch_accuracy 0
Core_0_L1I_prefetch_coverage 0

Core_0_L1D_total_access 14512823
Core_0_L1D_total_hit 13657237
Core_0_L1D_total_miss 855586
Core_0_L1D_total_MPKI 17.1117
Core_0_L1D_total_miss_rate 0.0589538
Core_0_L1D_demand_access 11886594
Core_0_L1D_demand_hit 11685445
Core_0_L1D_demand_miss 201149
Core_0_L1D_demand_MPKI 4.02298
Core_0_L1D_demand_miss_rate 0.0169223
Core_0_L1D_load_access 11886594
Core_0_L1D_load_hit 11685445
Core_0_L1D_load_miss 201149
Core_0_L1D_load_MPKI 4.02298
Core_0_L1D_load_miss_rate 0.0169223
Core_0_L1D_rfo_access 0
Core_0_L1D_rfo_hit 0
Core_0_L1D_rfo_miss 0
Core_0_L1D_rfo_MPKI 0
Core_0_L1D_rfo_miss_rate 0
Core_0_L1D_prefetch_access 607708
Core_0_L1D_prefetch_hit 174564
Core_0_L1D_prefetch_miss 433144
Core_0_L1D_prefetch_MPKI 8.66288
Core_0_L1D_prefetch_miss_rate 0.71275
Core_0_L1D_writeback_access 2018521
Core_0_L1D_writeback_hit 1797228
Core_0_L1D_writeback_miss 221293
Core_0_L1D_writeback_MPKI 4.42586
Core_0_L1D_writeback_miss_rate 0.109631
Core_0_L1D_prefetch_requested 622823
Core_0_L1D_prefetch_issued 607700
Core_0_L1D_prefetch_useful 392647
Core_0_L1D_prefetch_useless 36340
Core_0_L1D_prefetch_late 21158
Core_0_L1D_prefetch_accuracy 0.64612
Core_0_L1D_prefetch_coverage 0.661249

Core_0_L2C_total_access 2924799
Core_0_L2C_total_hit 2236783
Core_0_L2C_total_miss 688016
Core_0_L2C_total_MPKI 13.7603
Core_0_L2C_total_miss_rate 0.235235
Core_0_L2C_demand_access 173577
Core_0_L2C_demand_hit 138025
Core_0_L2C_demand_miss 35552
Core_0_L2C_demand_MPKI 0.71104
Core_0_L2C_demand_miss_rate 0.20482
Core_0_L2C_load_access 80847
Core_0_L2C_load_hit 54943
Core_0_L2C_load_miss 25904
Core_0_L2C_load_MPKI 0.51808
Core_0_L2C_load_miss_rate 0.320408
Core_0_L2C_rfo_access 92730
Core_0_L2C_rfo_hit 83082
Core_0_L2C_rfo_miss 9648
Core_0_L2C_rfo_MPKI 0.19296
Core_0_L2C_rfo_miss_rate 0.104044
Core_0_L2C_prefetch_access 2582923
Core_0_L2C_prefetch_hit 1930789
Core_0_L2C_prefetch_miss 652134
Core_0_L2C_prefetch_MPKI 13.0427
Core_0_L2C_prefetch_miss_rate 0.252479
Core_0_L2C_writeback_access 168299
Core_0_L2C_writeback_hit 167969
Core_0_L2C_writeback_miss 330
Core_0_L2C_writeback_MPKI 0.0066
Core_0_L2C_writeback_miss_rate 0.0019608
Core_0_L2C_prefetch_requested 2246044
Core_0_L2C_prefetch_issued 2153919
Core_0_L2C_prefetch_useful 228773
Core_0_L2C_prefetch_useless 84568
Core_0_L2C_prefetch_late 4196
Core_0_L2C_prefetch_accuracy 0.106212
Core_0_L2C_prefetch_coverage 0.865499

Core_0_LLC_total_access 434850
Core_0_LLC_total_hit 224426
Core_0_LLC_total_miss 210424
Core_0_LLC_total_MPKI 4.20848
Core_0_LLC_total_miss_rate 0.4839
Core_0_LLC_demand_access 31355
Core_0_LLC_demand_hit 26754
Core_0_LLC_demand_miss 4601
Core_0_LLC_demand_MPKI 0.09202
Core_0_LLC_demand_miss_rate 0.146739
Core_0_LLC_load_access 21708
Core_0_LLC_load_hit 17356
Core_0_LLC_load_miss 4352
Core_0_LLC_load_MPKI 0.08704
Core_0_LLC_load_miss_rate 0.200479
Core_0_LLC_rfo_access 9647
Core_0_LLC_rfo_hit 9398
Core_0_LLC_rfo_miss 249
Core_0_LLC_rfo_MPKI 0.00498
Core_0_LLC_rfo_miss_rate 0.0258111
Core_0_LLC_prefetch_access 336713
Core_0_LLC_prefetch_hit 136583
Core_0_LLC_prefetch_miss 200130
Core_0_LLC_prefetch_MPKI 4.0026
Core_0_LLC_prefetch_miss_rate 0.594364
Core_0_LLC_writeback_access 66782
Core_0_LLC_writeback_hit 61089
Core_0_LLC_writeback_miss 5693
Core_0_LLC_writeback_MPKI 0.11386
Core_0_LLC_writeback_miss_rate 0.0852475
Core_0_LLC_prefetch_requested 0
Core_0_LLC_prefetch_issued 0
Core_0_LLC_prefetch_useful 0
Core_0_LLC_prefetch_useless 0
Core_0_LLC_prefetch_late 0
Core_0_LLC_prefetch_accuracy 0
Core_0_LLC_prefetch_coverage 0

[DRAM Statistics]
Channel_0_RQ_row_buffer_hit 517
Channel_0_RQ_row_buffer_miss 204162
Channel_0_WQ_row_buffer_hit 9206
Channel_0_WQ_row_buffer_miss 34849
Channel_0_WQ_full 0
Channel_0_dbus_congested 410979
DRAM_total_RQ_row_buffer_hit 517
DRAM_total_RQ_row_buffer_miss 204162
DRAM_total_WQ_row_buffer_hit 9206
DRAM_total_WQ_row_buffer_miss 34849
DRAM_total_WQ_full 0
DRAM_total_dbus_congested 410979
DRAM_avg_congested_cycle 7.96576

======STLB miss causes ========
Core_0_STLB_miss_cause_breakdown
Core_0_STLB_cause_Demand_Data_miss 0
Core_0_STLB_cause_Demand_Data_miss_rate 0
Core_0_STLB_cause_Demand_Instruction_miss 0
Core_0_STLB_cause_Demand_Instruction_miss_rate 0
Core_0_STLB_cause_L1D_Prefetch_miss 0
Core_0_STLB_cause_L1D_Prefetch_miss_rate 0
Core_0_STLB_cause_L1I_Prefetch_miss 0
Core_0_STLB_cause_L1I_Prefetch_miss_rate 0
Core_0_STLB_cause_Other_miss 0
Core_0_STLB_cause_Other_miss_rate 0
Core_0_STLB_Demand_miss 0
Core_0_STLB_Demand_miss_rate 0
Core_0_STLB_L1D_Prefetch_miss 0
Core_0_STLB_L1D_Prefetch_miss_rate 0
Core_0_STLB_Other_miss 0
Core_0_STLB_Other_miss_rate 0
