[VMEM] WARNING: physical memory size is smaller than virtual memory size.

*** ChampSim Multicore Out-of-Order Simulator ***
Warmup Instructions: 20000000
Simulation Instructions: 50000000
Number of CPUs: 1
Page size: 4096
STLB ideal mode: all
Core 0: /data0/tzh/champsim_traces/SPEC06/437.leslie3d-232B.champsimtrace.xz
 L1D Berti prefetcher
Off-chip DRAM Size: 4 GiB Channels: 1 Width: 64-bit Data Rate: 3205 MT/s
Warmup halting CPU 0 at instruction 20000001 cycle 4237136 for remainder of phase
Warmup finished CPU 0 instructions: 20000001 cycles: 4237136 cumulative IPC: 4.72 (Simulation time: 00 hr 01 min 02 sec)
Warmup complete CPU 0 instructions: 20000001 cycles: 4237136 cumulative IPC: 4.72 (Simulation time: 00 hr 01 min 02 sec)
Simulation finished CPU 0 instructions: 50000004 cycles: 15417946 cumulative IPC: 3.243 (Simulation time: 00 hr 04 min 36 sec)
Simulation complete CPU 0 instructions: 50000004 cycles: 15417946 cumulative IPC: 3.243 (Simulation time: 00 hr 04 min 36 sec)

ChampSim completed all CPUs

=== Simulation ===
CPU 0 runs /data0/tzh/champsim_traces/SPEC06/437.leslie3d-232B.champsimtrace.xz

Region of Interest Statistics

CPU 0 cumulative IPC: 3.243 instructions: 50000004 cycles: 15417946
CPU 0 Branch Prediction Accuracy: 99.13% MPKI: 0.2331 Average ROB Occupancy at Mispredict: 330.2
Branch type MPKI
BRANCH_DIRECT_JUMP: 0
BRANCH_INDIRECT: 0
BRANCH_CONDITIONAL: 0.2331
BRANCH_DIRECT_CALL: 0
BRANCH_INDIRECT_CALL: 0
BRANCH_RETURN: 0

cpu0->cpu0_STLB TOTAL        ACCESS:      13337 HIT:      13337 MISS:          0 MSHR_MERGE:          0
cpu0->cpu0_STLB LOAD         ACCESS:      13337 HIT:      13337 MISS:          0 MSHR_MERGE:          0
cpu0->cpu0_STLB RFO          ACCESS:          0 HIT:          0 MISS:          0 MSHR_MERGE:          0
cpu0->cpu0_STLB PREFETCH     ACCESS:          0 HIT:          0 MISS:          0 MSHR_MERGE:          0
cpu0->cpu0_STLB WRITE        ACCESS:          0 HIT:          0 MISS:          0 MSHR_MERGE:          0
cpu0->cpu0_STLB TRANSLATION  ACCESS:          0 HIT:          0 MISS:          0 MSHR_MERGE:          0
cpu0->cpu0_STLB PREFETCH REQUESTED:          0 ISSUED:          0 USEFUL:          0 USELESS:          0 LATE:          0
cpu0->cpu0_STLB AVERAGE MISS LATENCY: - cycles
cpu0->cpu0_L2C TOTAL        ACCESS:    3162872 HIT:    2354969 MISS:     807903 MSHR_MERGE:     433255
cpu0->cpu0_L2C LOAD         ACCESS:      73691 HIT:      70257 MISS:       3434 MSHR_MERGE:       1315
cpu0->cpu0_L2C RFO          ACCESS:      81357 HIT:      44369 MISS:      36988 MSHR_MERGE:          1
cpu0->cpu0_L2C PREFETCH     ACCESS:    2845200 HIT:    2077721 MISS:     767479 MSHR_MERGE:     431939
cpu0->cpu0_L2C WRITE        ACCESS:     162624 HIT:     162622 MISS:          2 MSHR_MERGE:          0
cpu0->cpu0_L2C TRANSLATION  ACCESS:          0 HIT:          0 MISS:          0 MSHR_MERGE:          0
cpu0->cpu0_L2C PREFETCH REQUESTED:    2541939 ISSUED:    2426183 USEFUL:     305554 USELESS:      19080 LATE:       1316
cpu0->cpu0_L2C AVERAGE MISS LATENCY: 35.09 cycles
cpu0->cpu0_L1I TOTAL        ACCESS:    7815260 HIT:    7815260 MISS:          0 MSHR_MERGE:          0
cpu0->cpu0_L1I LOAD         ACCESS:    7815260 HIT:    7815260 MISS:          0 MSHR_MERGE:          0
cpu0->cpu0_L1I RFO          ACCESS:          0 HIT:          0 MISS:          0 MSHR_MERGE:          0
cpu0->cpu0_L1I PREFETCH     ACCESS:          0 HIT:          0 MISS:          0 MSHR_MERGE:          0
cpu0->cpu0_L1I WRITE        ACCESS:          0 HIT:          0 MISS:          0 MSHR_MERGE:          0
cpu0->cpu0_L1I TRANSLATION  ACCESS:          0 HIT:          0 MISS:          0 MSHR_MERGE:          0
cpu0->cpu0_L1I PREFETCH REQUESTED:          0 ISSUED:          0 USEFUL:          0 USELESS:          0 LATE:          0
cpu0->cpu0_L1I AVERAGE MISS LATENCY: - cycles
cpu0->cpu0_L1D TOTAL        ACCESS:   14365354 HIT:   13533980 MISS:     831374 MSHR_MERGE:     257274
cpu0->cpu0_L1D LOAD         ACCESS:   11708939 HIT:   11579129 MISS:     129810 MSHR_MERGE:      56117
cpu0->cpu0_L1D RFO          ACCESS:          0 HIT:          0 MISS:          0 MSHR_MERGE:          0
cpu0->cpu0_L1D PREFETCH     ACCESS:     638755 HIT:     216930 MISS:     421825 MSHR_MERGE:       2804
cpu0->cpu0_L1D WRITE        ACCESS:    2017660 HIT:    1737921 MISS:     279739 MSHR_MERGE:     198353
cpu0->cpu0_L1D TRANSLATION  ACCESS:          0 HIT:          0 MISS:          0 MSHR_MERGE:          0
cpu0->cpu0_L1D PREFETCH REQUESTED:     660727 ISSUED:     638748 USEFUL:     382378 USELESS:      36552 LATE:      11418
cpu0->cpu0_L1D AVERAGE MISS LATENCY: 22.65 cycles
cpu0->cpu0_ITLB TOTAL        ACCESS:    6019808 HIT:    6019808 MISS:          0 MSHR_MERGE:          0
cpu0->cpu0_ITLB LOAD         ACCESS:    6019808 HIT:    6019808 MISS:          0 MSHR_MERGE:          0
cpu0->cpu0_ITLB RFO          ACCESS:          0 HIT:          0 MISS:          0 MSHR_MERGE:          0
cpu0->cpu0_ITLB PREFETCH     ACCESS:          0 HIT:          0 MISS:          0 MSHR_MERGE:          0
cpu0->cpu0_ITLB WRITE        ACCESS:          0 HIT:          0 MISS:          0 MSHR_MERGE:          0
cpu0->cpu0_ITLB TRANSLATION  ACCESS:          0 HIT:          0 MISS:          0 MSHR_MERGE:          0
cpu0->cpu0_ITLB PREFETCH REQUESTED:          0 ISSUED:          0 USEFUL:          0 USELESS:          0 LATE:          0
cpu0->cpu0_ITLB AVERAGE MISS LATENCY: - cycles
cpu0->cpu0_DTLB TOTAL        ACCESS:   13523896 HIT:   13507460 MISS:      16436 MSHR_MERGE:       3099
cpu0->cpu0_DTLB LOAD         ACCESS:   13523896 HIT:   13507460 MISS:      16436 MSHR_MERGE:       3099
cpu0->cpu0_DTLB RFO          ACCESS:          0 HIT:          0 MISS:          0 MSHR_MERGE:          0
cpu0->cpu0_DTLB PREFETCH     ACCESS:          0 HIT:          0 MISS:          0 MSHR_MERGE:          0
cpu0->cpu0_DTLB WRITE        ACCESS:          0 HIT:          0 MISS:          0 MSHR_MERGE:          0
cpu0->cpu0_DTLB TRANSLATION  ACCESS:          0 HIT:          0 MISS:          0 MSHR_MERGE:          0
cpu0->cpu0_DTLB PREFETCH REQUESTED:          0 ISSUED:          0 USEFUL:          0 USELESS:          0 LATE:          0
cpu0->cpu0_DTLB AVERAGE MISS LATENCY: 5.001 cycles
cpu0->LLC TOTAL        ACCESS:     466037 HIT:     144500 MISS:     321537 MSHR_MERGE:          0
cpu0->LLC LOAD         ACCESS:       2119 HIT:        827 MISS:       1292 MSHR_MERGE:          0
cpu0->LLC RFO          ACCESS:      36987 HIT:      35277 MISS:       1710 MSHR_MERGE:          0
cpu0->LLC PREFETCH     ACCESS:     335540 HIT:      57240 MISS:     278300 MSHR_MERGE:          0
cpu0->LLC WRITE        ACCESS:      91391 HIT:      51156 MISS:      40235 MSHR_MERGE:          0
cpu0->LLC TRANSLATION  ACCESS:          0 HIT:          0 MISS:          0 MSHR_MERGE:          0
cpu0->LLC PREFETCH REQUESTED:          0 ISSUED:          0 USEFUL:          0 USELESS:          0 LATE:          0
cpu0->LLC AVERAGE MISS LATENCY: 24.19 cycles

DRAM Statistics

Channel 0 RQ ROW_BUFFER_HIT:      13780
  ROW_BUFFER_MISS:     267482
  AVG DBUS CONGESTED CYCLE: 6.297
Channel 0 WQ ROW_BUFFER_HIT:       6298
  ROW_BUFFER_MISS:      44306
  FULL:        111
Channel 0 REFRESHES ISSUED:       1284

[ROI Statistics]
[System Configuration]
num_cpus 1
cpu_freq 4000
fetch_width 6
decode_width 6
dispatch_width 6
execute_width 6
lq_width 2
sq_width 2
retire_width 6
scheduler_size 160
branch_mispredict_penalty 1
rob_size 352
lq_size 240
sq_size 112
ifetch_buffer_size 64
decode_buffer_size 32
dispatch_buffer_size 32
register_file_size 288
decode_latency 1
dispatch_latency 1
schedule_latency 0
execute_latency 0
page_size 4096
block_size 64
core_0_itlb_set 16
core_0_itlb_way 4
core_0_itlb_rq_size 16
core_0_itlb_wq_size 16
core_0_itlb_pq_size 0
core_0_itlb_mshr_size 8
core_0_itlb_hit_latency 1
core_0_itlb_fill_latency 1
core_0_itlb_max_tag_check 2
core_0_itlb_max_fill 2
core_0_dtlb_set 16
core_0_dtlb_way 4
core_0_dtlb_rq_size 16
core_0_dtlb_wq_size 16
core_0_dtlb_pq_size 0
core_0_dtlb_mshr_size 8
core_0_dtlb_hit_latency 1
core_0_dtlb_fill_latency 1
core_0_dtlb_max_tag_check 2
core_0_dtlb_max_fill 2
core_0_stlb_set 128
core_0_stlb_way 12
core_0_stlb_rq_size 32
core_0_stlb_wq_size 32
core_0_stlb_pq_size 0
core_0_stlb_mshr_size 16
core_0_stlb_hit_latency 4
core_0_stlb_fill_latency 4
core_0_stlb_max_tag_check 1
core_0_stlb_max_fill 1
core_0_l1i_set 64
core_0_l1i_way 8
core_0_l1i_rq_size 64
core_0_l1i_wq_size 64
core_0_l1i_pq_size 32
core_0_l1i_mshr_size 8
core_0_l1i_hit_latency 2
core_0_l1i_fill_latency 2
core_0_l1i_max_tag_check 2
core_0_l1i_max_fill 2
core_0_l1d_set 64
core_0_l1d_way 12
core_0_l1d_rq_size 64
core_0_l1d_wq_size 64
core_0_l1d_pq_size 8
core_0_l1d_mshr_size 16
core_0_l1d_hit_latency 2
core_0_l1d_fill_latency 3
core_0_l1d_max_tag_check 2
core_0_l1d_max_fill 2
core_0_l2c_set 1024
core_0_l2c_way 8
core_0_l2c_rq_size 32
core_0_l2c_wq_size 32
core_0_l2c_pq_size 16
core_0_l2c_mshr_size 32
core_0_l2c_hit_latency 5
core_0_l2c_fill_latency 5
core_0_l2c_max_tag_check 1
core_0_l2c_max_fill 1
llc_set 2048
llc_way 16
llc_rq_size 32
llc_wq_size 32
llc_pq_size 32
llc_mshr_size 64
llc_hit_latency 10
llc_fill_latency 10
llc_max_tag_check 1
llc_max_fill 1
dram_channels 1
dram_ranks 1
dram_bankgroups 8
dram_banks 4
dram_rows 16384
dram_columns 1024
dram_channel_width 8
dram_rq_size 64
dram_wq_size 64
dram_size 4294967296
core_0_itlb_prefetcher no
core_0_dtlb_prefetcher no
core_0_stlb_prefetcher no
core_0_l1i_prefetcher next_line
core_0_l1d_prefetcher berti
core_0_l2c_prefetcher pythia
llc_prefetcher no
llc_replacement drrip

Core_0_instructions 50000004
Core_0_cycles 15417946
Core_0_IPC 3.24297
Core_0_branch_prediction_accuracy 99.1303
Core_0_branch_MPKI 0.23312
Core_0_average_ROB_occupancy_at_mispredict 330.243

Core_0_ITLB_total_access 6019808
Core_0_ITLB_total_hit 6019808
Core_0_ITLB_total_miss 0
Core_0_ITLB_total_MPKI 0
Core_0_ITLB_total_miss_rate 0
Core_0_ITLB_demand_access 6019808
Core_0_ITLB_demand_hit 6019808
Core_0_ITLB_demand_miss 0
Core_0_ITLB_demand_MPKI 0
Core_0_ITLB_demand_miss_rate 0
Core_0_ITLB_load_access 6019808
Core_0_ITLB_load_hit 6019808
Core_0_ITLB_load_miss 0
Core_0_ITLB_load_MPKI 0
Core_0_ITLB_load_miss_rate 0
Core_0_ITLB_rfo_access 0
Core_0_ITLB_rfo_hit 0
Core_0_ITLB_rfo_miss 0
Core_0_ITLB_rfo_MPKI 0
Core_0_ITLB_rfo_miss_rate 0
Core_0_ITLB_prefetch_access 0
Core_0_ITLB_prefetch_hit 0
Core_0_ITLB_prefetch_miss 0
Core_0_ITLB_prefetch_MPKI 0
Core_0_ITLB_prefetch_miss_rate 0
Core_0_ITLB_writeback_access 0
Core_0_ITLB_writeback_hit 0
Core_0_ITLB_writeback_miss 0
Core_0_ITLB_writeback_MPKI 0
Core_0_ITLB_writeback_miss_rate 0
Core_0_ITLB_prefetch_requested 0
Core_0_ITLB_prefetch_issued 0
Core_0_ITLB_prefetch_useful 0
Core_0_ITLB_prefetch_useless 0
Core_0_ITLB_prefetch_late 0
Core_0_ITLB_prefetch_accuracy 0
Core_0_ITLB_prefetch_coverage 0

Core_0_DTLB_total_access 13523896
Core_0_DTLB_total_hit 13507460
Core_0_DTLB_total_miss 16436
Core_0_DTLB_total_MPKI 0.32872
Core_0_DTLB_total_miss_rate 0.00121533
Core_0_DTLB_demand_access 13523896
Core_0_DTLB_demand_hit 13507460
Core_0_DTLB_demand_miss 16436
Core_0_DTLB_demand_MPKI 0.32872
Core_0_DTLB_demand_miss_rate 0.00121533
Core_0_DTLB_load_access 13523896
Core_0_DTLB_load_hit 13507460
Core_0_DTLB_load_miss 16436
Core_0_DTLB_load_MPKI 0.32872
Core_0_DTLB_load_miss_rate 0.00121533
Core_0_DTLB_rfo_access 0
Core_0_DTLB_rfo_hit 0
Core_0_DTLB_rfo_miss 0
Core_0_DTLB_rfo_MPKI 0
Core_0_DTLB_rfo_miss_rate 0
Core_0_DTLB_prefetch_access 0
Core_0_DTLB_prefetch_hit 0
Core_0_DTLB_prefetch_miss 0
Core_0_DTLB_prefetch_MPKI 0
Core_0_DTLB_prefetch_miss_rate 0
Core_0_DTLB_writeback_access 0
Core_0_DTLB_writeback_hit 0
Core_0_DTLB_writeback_miss 0
Core_0_DTLB_writeback_MPKI 0
Core_0_DTLB_writeback_miss_rate 0
Core_0_DTLB_prefetch_requested 0
Core_0_DTLB_prefetch_issued 0
Core_0_DTLB_prefetch_useful 0
Core_0_DTLB_prefetch_useless 0
Core_0_DTLB_prefetch_late 0
Core_0_DTLB_prefetch_accuracy 0
Core_0_DTLB_prefetch_coverage 0

Core_0_STLB_total_access 13337
Core_0_STLB_total_hit 13337
Core_0_STLB_total_miss 0
Core_0_STLB_total_MPKI 0
Core_0_STLB_total_miss_rate 0
Core_0_STLB_demand_access 13337
Core_0_STLB_demand_hit 13337
Core_0_STLB_demand_miss 0
Core_0_STLB_demand_MPKI 0
Core_0_STLB_demand_miss_rate 0
Core_0_STLB_load_access 13337
Core_0_STLB_load_hit 13337
Core_0_STLB_load_miss 0
Core_0_STLB_load_MPKI 0
Core_0_STLB_load_miss_rate 0
Core_0_STLB_rfo_access 0
Core_0_STLB_rfo_hit 0
Core_0_STLB_rfo_miss 0
Core_0_STLB_rfo_MPKI 0
Core_0_STLB_rfo_miss_rate 0
Core_0_STLB_prefetch_access 0
Core_0_STLB_prefetch_hit 0
Core_0_STLB_prefetch_miss 0
Core_0_STLB_prefetch_MPKI 0
Core_0_STLB_prefetch_miss_rate 0
Core_0_STLB_writeback_access 0
Core_0_STLB_writeback_hit 0
Core_0_STLB_writeback_miss 0
Core_0_STLB_writeback_MPKI 0
Core_0_STLB_writeback_miss_rate 0
Core_0_STLB_prefetch_requested 0
Core_0_STLB_prefetch_issued 0
Core_0_STLB_prefetch_useful 0
Core_0_STLB_prefetch_useless 0
Core_0_STLB_prefetch_late 0
Core_0_STLB_prefetch_accuracy 0
Core_0_STLB_prefetch_coverage 0

Core_0_L1I_total_access 7815260
Core_0_L1I_total_hit 7815260
Core_0_L1I_total_miss 0
Core_0_L1I_total_MPKI 0
Core_0_L1I_total_miss_rate 0
Core_0_L1I_demand_access 7815260
Core_0_L1I_demand_hit 7815260
Core_0_L1I_demand_miss 0
Core_0_L1I_demand_MPKI 0
Core_0_L1I_demand_miss_rate 0
Core_0_L1I_load_access 7815260
Core_0_L1I_load_hit 7815260
Core_0_L1I_load_miss 0
Core_0_L1I_load_MPKI 0
Core_0_L1I_load_miss_rate 0
Core_0_L1I_rfo_access 0
Core_0_L1I_rfo_hit 0
Core_0_L1I_rfo_miss 0
Core_0_L1I_rfo_MPKI 0
Core_0_L1I_rfo_miss_rate 0
Core_0_L1I_prefetch_access 0
Core_0_L1I_prefetch_hit 0
Core_0_L1I_prefetch_miss 0
Core_0_L1I_prefetch_MPKI 0
Core_0_L1I_prefetch_miss_rate 0
Core_0_L1I_writeback_access 0
Core_0_L1I_writeback_hit 0
Core_0_L1I_writeback_miss 0
Core_0_L1I_writeback_MPKI 0
Core_0_L1I_writeback_miss_rate 0
Core_0_L1I_prefetch_requested 0
Core_0_L1I_prefetch_issued 0
Core_0_L1I_prefetch_useful 0
Core_0_L1I_prefetch_useless 0
Core_0_L1I_prefetch_late 0
Core_0_L1I_prefetch_accuracy 0
Core_0_L1I_prefetch_coverage 0

Core_0_L1D_total_access 14365354
Core_0_L1D_total_hit 13533980
Core_0_L1D_total_miss 831374
Core_0_L1D_total_MPKI 16.6275
Core_0_L1D_total_miss_rate 0.0578735
Core_0_L1D_demand_access 11708939
Core_0_L1D_demand_hit 11579129
Core_0_L1D_demand_miss 129810
Core_0_L1D_demand_MPKI 2.5962
Core_0_L1D_demand_miss_rate 0.0110864
Core_0_L1D_load_access 11708939
Core_0_L1D_load_hit 11579129
Core_0_L1D_load_miss 129810
Core_0_L1D_load_MPKI 2.5962
Core_0_L1D_load_miss_rate 0.0110864
Core_0_L1D_rfo_access 0
Core_0_L1D_rfo_hit 0
Core_0_L1D_rfo_miss 0
Core_0_L1D_rfo_MPKI 0
Core_0_L1D_rfo_miss_rate 0
Core_0_L1D_prefetch_access 638755
Core_0_L1D_prefetch_hit 216930
Core_0_L1D_prefetch_miss 421825
Core_0_L1D_prefetch_MPKI 8.4365
Core_0_L1D_prefetch_miss_rate 0.660386
Core_0_L1D_writeback_access 2017660
Core_0_L1D_writeback_hit 1737921
Core_0_L1D_writeback_miss 279739
Core_0_L1D_writeback_MPKI 5.59478
Core_0_L1D_writeback_miss_rate 0.138645
Core_0_L1D_prefetch_requested 660727
Core_0_L1D_prefetch_issued 638748
Core_0_L1D_prefetch_useful 382378
Core_0_L1D_prefetch_useless 36552
Core_0_L1D_prefetch_late 11418
Core_0_L1D_prefetch_accuracy 0.598637
Core_0_L1D_prefetch_coverage 0.746558

Core_0_L2C_total_access 3162872
Core_0_L2C_total_hit 2354969
Core_0_L2C_total_miss 807903
Core_0_L2C_total_MPKI 16.1581
Core_0_L2C_total_miss_rate 0.255433
Core_0_L2C_demand_access 155048
Core_0_L2C_demand_hit 114626
Core_0_L2C_demand_miss 40422
Core_0_L2C_demand_MPKI 0.80844
Core_0_L2C_demand_miss_rate 0.260706
Core_0_L2C_load_access 73691
Core_0_L2C_load_hit 70257
Core_0_L2C_load_miss 3434
Core_0_L2C_load_MPKI 0.06868
Core_0_L2C_load_miss_rate 0.0466
Core_0_L2C_rfo_access 81357
Core_0_L2C_rfo_hit 44369
Core_0_L2C_rfo_miss 36988
Core_0_L2C_rfo_MPKI 0.73976
Core_0_L2C_rfo_miss_rate 0.454638
Core_0_L2C_prefetch_access 2845200
Core_0_L2C_prefetch_hit 2077721
Core_0_L2C_prefetch_miss 767479
Core_0_L2C_prefetch_MPKI 15.3496
Core_0_L2C_prefetch_miss_rate 0.269745
Core_0_L2C_writeback_access 162624
Core_0_L2C_writeback_hit 162622
Core_0_L2C_writeback_miss 2
Core_0_L2C_writeback_MPKI 4e-05
Core_0_L2C_writeback_miss_rate 1.22983e-05
Core_0_L2C_prefetch_requested 2541939
Core_0_L2C_prefetch_issued 2426183
Core_0_L2C_prefetch_useful 305554
Core_0_L2C_prefetch_useless 19080
Core_0_L2C_prefetch_late 1316
Core_0_L2C_prefetch_accuracy 0.12594
Core_0_L2C_prefetch_coverage 0.883165

Core_0_LLC_total_access 466037
Core_0_LLC_total_hit 144500
Core_0_LLC_total_miss 321537
Core_0_LLC_total_MPKI 6.43074
Core_0_LLC_total_miss_rate 0.689939
Core_0_LLC_demand_access 39106
Core_0_LLC_demand_hit 36104
Core_0_LLC_demand_miss 3002
Core_0_LLC_demand_MPKI 0.06004
Core_0_LLC_demand_miss_rate 0.0767657
Core_0_LLC_load_access 2119
Core_0_LLC_load_hit 827
Core_0_LLC_load_miss 1292
Core_0_LLC_load_MPKI 0.02584
Core_0_LLC_load_miss_rate 0.609722
Core_0_LLC_rfo_access 36987
Core_0_LLC_rfo_hit 35277
Core_0_LLC_rfo_miss 1710
Core_0_LLC_rfo_MPKI 0.0342
Core_0_LLC_rfo_miss_rate 0.0462325
Core_0_LLC_prefetch_access 335540
Core_0_LLC_prefetch_hit 57240
Core_0_LLC_prefetch_miss 278300
Core_0_LLC_prefetch_MPKI 5.566
Core_0_LLC_prefetch_miss_rate 0.829409
Core_0_LLC_writeback_access 91391
Core_0_LLC_writeback_hit 51156
Core_0_LLC_writeback_miss 40235
Core_0_LLC_writeback_MPKI 0.8047
Core_0_LLC_writeback_miss_rate 0.440251
Core_0_LLC_prefetch_requested 0
Core_0_LLC_prefetch_issued 0
Core_0_LLC_prefetch_useful 0
Core_0_LLC_prefetch_useless 0
Core_0_LLC_prefetch_late 0
Core_0_LLC_prefetch_accuracy 0
Core_0_LLC_prefetch_coverage 0

[DRAM Statistics]
Channel_0_RQ_row_buffer_hit 13780
Channel_0_RQ_row_buffer_miss 267482
Channel_0_WQ_row_buffer_hit 6298
Channel_0_WQ_row_buffer_miss 44306
Channel_0_WQ_full 111
Channel_0_dbus_congested 524282
DRAM_total_RQ_row_buffer_hit 13780
DRAM_total_RQ_row_buffer_miss 267482
DRAM_total_WQ_row_buffer_hit 6298
DRAM_total_WQ_row_buffer_miss 44306
DRAM_total_WQ_full 111
DRAM_total_dbus_congested 524282
DRAM_avg_congested_cycle 6.29739

======STLB miss causes ========
Core_0_STLB_miss_cause_breakdown
Core_0_STLB_cause_Demand_Data_miss 0
Core_0_STLB_cause_Demand_Data_miss_rate 0
Core_0_STLB_cause_Demand_Instruction_miss 0
Core_0_STLB_cause_Demand_Instruction_miss_rate 0
Core_0_STLB_cause_L1D_Prefetch_miss 0
Core_0_STLB_cause_L1D_Prefetch_miss_rate 0
Core_0_STLB_cause_L1I_Prefetch_miss 0
Core_0_STLB_cause_L1I_Prefetch_miss_rate 0
Core_0_STLB_cause_Other_miss 0
Core_0_STLB_cause_Other_miss_rate 0
Core_0_STLB_Demand_miss 0
Core_0_STLB_Demand_miss_rate 0
Core_0_STLB_L1D_Prefetch_miss 0
Core_0_STLB_L1D_Prefetch_miss_rate 0
Core_0_STLB_Other_miss 0
Core_0_STLB_Other_miss_rate 0
