[VMEM] WARNING: physical memory size is smaller than virtual memory size.

*** ChampSim Multicore Out-of-Order Simulator ***
Warmup Instructions: 20000000
Simulation Instructions: 50000000
Number of CPUs: 1
Page size: 4096
STLB ideal mode: all
Core 0: /data0/tzh/champsim_traces/SPEC06/445.gobmk-30B.champsimtrace.xz
 L1D Berti prefetcher
Off-chip DRAM Size: 4 GiB Channels: 1 Width: 64-bit Data Rate: 3205 MT/s
Warmup halting CPU 0 at instruction 20000002 cycle 4320399 for remainder of phase
Warmup finished CPU 0 instructions: 20000002 cycles: 4320399 cumulative IPC: 4.629 (Simulation time: 00 hr 00 min 57 sec)
Warmup complete CPU 0 instructions: 20000002 cycles: 4320399 cumulative IPC: 4.629 (Simulation time: 00 hr 00 min 57 sec)
Simulation finished CPU 0 instructions: 50000001 cycles: 39638285 cumulative IPC: 1.261 (Simulation time: 00 hr 04 min 41 sec)
Simulation complete CPU 0 instructions: 50000001 cycles: 39638285 cumulative IPC: 1.261 (Simulation time: 00 hr 04 min 41 sec)

ChampSim completed all CPUs

=== Simulation ===
CPU 0 runs /data0/tzh/champsim_traces/SPEC06/445.gobmk-30B.champsimtrace.xz

Region of Interest Statistics

CPU 0 cumulative IPC: 1.261 instructions: 50000001 cycles: 39638285
CPU 0 Branch Prediction Accuracy: 84.15% MPKI: 28.96 Average ROB Occupancy at Mispredict: 17.06
Branch type MPKI
BRANCH_DIRECT_JUMP: 0.06938
BRANCH_INDIRECT: 0.00024
BRANCH_CONDITIONAL: 28.87
BRANCH_DIRECT_CALL: 0.00388
BRANCH_INDIRECT_CALL: 0.00522
BRANCH_RETURN: 0.00332

cpu0->cpu0_STLB TOTAL        ACCESS:      22821 HIT:      22821 MISS:          0 MSHR_MERGE:          0
cpu0->cpu0_STLB LOAD         ACCESS:      22821 HIT:      22821 MISS:          0 MSHR_MERGE:          0
cpu0->cpu0_STLB RFO          ACCESS:          0 HIT:          0 MISS:          0 MSHR_MERGE:          0
cpu0->cpu0_STLB PREFETCH     ACCESS:          0 HIT:          0 MISS:          0 MSHR_MERGE:          0
cpu0->cpu0_STLB WRITE        ACCESS:          0 HIT:          0 MISS:          0 MSHR_MERGE:          0
cpu0->cpu0_STLB TRANSLATION  ACCESS:          0 HIT:          0 MISS:          0 MSHR_MERGE:          0
cpu0->cpu0_STLB PREFETCH REQUESTED:          0 ISSUED:          0 USEFUL:          0 USELESS:          0 LATE:          0
cpu0->cpu0_STLB AVERAGE MISS LATENCY: - cycles
cpu0->cpu0_L2C TOTAL        ACCESS:     336737 HIT:     283559 MISS:      53178 MSHR_MERGE:       2780
cpu0->cpu0_L2C LOAD         ACCESS:      46415 HIT:      28542 MISS:      17873 MSHR_MERGE:        138
cpu0->cpu0_L2C RFO          ACCESS:      31792 HIT:      28462 MISS:       3330 MSHR_MERGE:          3
cpu0->cpu0_L2C PREFETCH     ACCESS:     203970 HIT:     172058 MISS:      31912 MSHR_MERGE:       2639
cpu0->cpu0_L2C WRITE        ACCESS:      54560 HIT:      54497 MISS:         63 MSHR_MERGE:          0
cpu0->cpu0_L2C TRANSLATION  ACCESS:          0 HIT:          0 MISS:          0 MSHR_MERGE:          0
cpu0->cpu0_L2C PREFETCH REQUESTED:     172602 ISSUED:     159236 USEFUL:       9961 USELESS:      15186 LATE:        141
cpu0->cpu0_L2C AVERAGE MISS LATENCY: 92.69 cycles
cpu0->cpu0_L1I TOTAL        ACCESS:     105252 HIT:      97702 MISS:       7550 MSHR_MERGE:       1596
cpu0->cpu0_L1I LOAD         ACCESS:     105252 HIT:      97702 MISS:       7550 MSHR_MERGE:       1596
cpu0->cpu0_L1I RFO          ACCESS:          0 HIT:          0 MISS:          0 MSHR_MERGE:          0
cpu0->cpu0_L1I PREFETCH     ACCESS:          0 HIT:          0 MISS:          0 MSHR_MERGE:          0
cpu0->cpu0_L1I WRITE        ACCESS:          0 HIT:          0 MISS:          0 MSHR_MERGE:          0
cpu0->cpu0_L1I TRANSLATION  ACCESS:          0 HIT:          0 MISS:          0 MSHR_MERGE:          0
cpu0->cpu0_L1I PREFETCH REQUESTED:          0 ISSUED:          0 USEFUL:          0 USELESS:          0 LATE:          0
cpu0->cpu0_L1I AVERAGE MISS LATENCY: 27.27 cycles
cpu0->cpu0_L1D TOTAL        ACCESS:   16081107 HIT:   15857812 MISS:     223295 MSHR_MERGE:     106305
cpu0->cpu0_L1D LOAD         ACCESS:    9298464 HIT:    9243166 MISS:      55298 MSHR_MERGE:      14836
cpu0->cpu0_L1D RFO          ACCESS:          0 HIT:          0 MISS:          0 MSHR_MERGE:          0
cpu0->cpu0_L1D PREFETCH     ACCESS:     143067 HIT:      95916 MISS:      47151 MSHR_MERGE:       2416
cpu0->cpu0_L1D WRITE        ACCESS:    6639576 HIT:    6518730 MISS:     120846 MSHR_MERGE:      89053
cpu0->cpu0_L1D TRANSLATION  ACCESS:          0 HIT:          0 MISS:          0 MSHR_MERGE:          0
cpu0->cpu0_L1D PREFETCH REQUESTED:     148608 ISSUED:     143067 USEFUL:      25402 USELESS:      19352 LATE:        753
cpu0->cpu0_L1D AVERAGE MISS LATENCY: 33.97 cycles
cpu0->cpu0_ITLB TOTAL        ACCESS:      88905 HIT:      88655 MISS:        250 MSHR_MERGE:        130
cpu0->cpu0_ITLB LOAD         ACCESS:      88905 HIT:      88655 MISS:        250 MSHR_MERGE:        130
cpu0->cpu0_ITLB RFO          ACCESS:          0 HIT:          0 MISS:          0 MSHR_MERGE:          0
cpu0->cpu0_ITLB PREFETCH     ACCESS:          0 HIT:          0 MISS:          0 MSHR_MERGE:          0
cpu0->cpu0_ITLB WRITE        ACCESS:          0 HIT:          0 MISS:          0 MSHR_MERGE:          0
cpu0->cpu0_ITLB TRANSLATION  ACCESS:          0 HIT:          0 MISS:          0 MSHR_MERGE:          0
cpu0->cpu0_ITLB PREFETCH REQUESTED:          0 ISSUED:          0 USEFUL:          0 USELESS:          0 LATE:          0
cpu0->cpu0_ITLB AVERAGE MISS LATENCY: 5 cycles
cpu0->cpu0_DTLB TOTAL        ACCESS:   15340230 HIT:   15305093 MISS:      35137 MSHR_MERGE:      12436
cpu0->cpu0_DTLB LOAD         ACCESS:   15340230 HIT:   15305093 MISS:      35137 MSHR_MERGE:      12436
cpu0->cpu0_DTLB RFO          ACCESS:          0 HIT:          0 MISS:          0 MSHR_MERGE:          0
cpu0->cpu0_DTLB PREFETCH     ACCESS:          0 HIT:          0 MISS:          0 MSHR_MERGE:          0
cpu0->cpu0_DTLB WRITE        ACCESS:          0 HIT:          0 MISS:          0 MSHR_MERGE:          0
cpu0->cpu0_DTLB TRANSLATION  ACCESS:          0 HIT:          0 MISS:          0 MSHR_MERGE:          0
cpu0->cpu0_DTLB PREFETCH REQUESTED:          0 ISSUED:          0 USEFUL:          0 USELESS:          0 LATE:          0
cpu0->cpu0_DTLB AVERAGE MISS LATENCY: 5 cycles
cpu0->LLC TOTAL        ACCESS:      67323 HIT:      37276 MISS:      30047 MSHR_MERGE:          0
cpu0->LLC LOAD         ACCESS:      17735 HIT:       7489 MISS:      10246 MSHR_MERGE:          0
cpu0->LLC RFO          ACCESS:       3327 HIT:       2945 MISS:        382 MSHR_MERGE:          0
cpu0->LLC PREFETCH     ACCESS:      29273 HIT:      12791 MISS:      16482 MSHR_MERGE:          0
cpu0->LLC WRITE        ACCESS:      16988 HIT:      14051 MISS:       2937 MSHR_MERGE:          0
cpu0->LLC TRANSLATION  ACCESS:          0 HIT:          0 MISS:          0 MSHR_MERGE:          0
cpu0->LLC PREFETCH REQUESTED:          0 ISSUED:          0 USEFUL:          0 USELESS:          0 LATE:          0
cpu0->LLC AVERAGE MISS LATENCY: 122.7 cycles

DRAM Statistics

Channel 0 RQ ROW_BUFFER_HIT:        122
  ROW_BUFFER_MISS:      26988
  AVG DBUS CONGESTED CYCLE: 7.598
Channel 0 WQ ROW_BUFFER_HIT:        194
  ROW_BUFFER_MISS:        880
  FULL:          0
Channel 0 REFRESHES ISSUED:       3303

[ROI Statistics]
[System Configuration]
num_cpus 1
cpu_freq 4000
fetch_width 6
decode_width 6
dispatch_width 6
execute_width 6
lq_width 2
sq_width 2
retire_width 6
scheduler_size 160
branch_mispredict_penalty 1
rob_size 352
lq_size 240
sq_size 112
ifetch_buffer_size 64
decode_buffer_size 32
dispatch_buffer_size 32
register_file_size 288
decode_latency 1
dispatch_latency 1
schedule_latency 0
execute_latency 0
page_size 4096
block_size 64
core_0_itlb_set 16
core_0_itlb_way 4
core_0_itlb_rq_size 16
core_0_itlb_wq_size 16
core_0_itlb_pq_size 0
core_0_itlb_mshr_size 8
core_0_itlb_hit_latency 1
core_0_itlb_fill_latency 1
core_0_itlb_max_tag_check 2
core_0_itlb_max_fill 2
core_0_dtlb_set 16
core_0_dtlb_way 4
core_0_dtlb_rq_size 16
core_0_dtlb_wq_size 16
core_0_dtlb_pq_size 0
core_0_dtlb_mshr_size 8
core_0_dtlb_hit_latency 1
core_0_dtlb_fill_latency 1
core_0_dtlb_max_tag_check 2
core_0_dtlb_max_fill 2
core_0_stlb_set 128
core_0_stlb_way 12
core_0_stlb_rq_size 32
core_0_stlb_wq_size 32
core_0_stlb_pq_size 0
core_0_stlb_mshr_size 16
core_0_stlb_hit_latency 4
core_0_stlb_fill_latency 4
core_0_stlb_max_tag_check 1
core_0_stlb_max_fill 1
core_0_l1i_set 64
core_0_l1i_way 8
core_0_l1i_rq_size 64
core_0_l1i_wq_size 64
core_0_l1i_pq_size 32
core_0_l1i_mshr_size 8
core_0_l1i_hit_latency 2
core_0_l1i_fill_latency 2
core_0_l1i_max_tag_check 2
core_0_l1i_max_fill 2
core_0_l1d_set 64
core_0_l1d_way 12
core_0_l1d_rq_size 64
core_0_l1d_wq_size 64
core_0_l1d_pq_size 8
core_0_l1d_mshr_size 16
core_0_l1d_hit_latency 2
core_0_l1d_fill_latency 3
core_0_l1d_max_tag_check 2
core_0_l1d_max_fill 2
core_0_l2c_set 1024
core_0_l2c_way 8
core_0_l2c_rq_size 32
core_0_l2c_wq_size 32
core_0_l2c_pq_size 16
core_0_l2c_mshr_size 32
core_0_l2c_hit_latency 5
core_0_l2c_fill_latency 5
core_0_l2c_max_tag_check 1
core_0_l2c_max_fill 1
llc_set 2048
llc_way 16
llc_rq_size 32
llc_wq_size 32
llc_pq_size 32
llc_mshr_size 64
llc_hit_latency 10
llc_fill_latency 10
llc_max_tag_check 1
llc_max_fill 1
dram_channels 1
dram_ranks 1
dram_bankgroups 8
dram_banks 4
dram_rows 16384
dram_columns 1024
dram_channel_width 8
dram_rq_size 64
dram_wq_size 64
dram_size 4294967296
core_0_itlb_prefetcher no
core_0_dtlb_prefetcher no
core_0_stlb_prefetcher no
core_0_l1i_prefetcher next_line
core_0_l1d_prefetcher berti
core_0_l2c_prefetcher pythia
llc_prefetcher no
llc_replacement drrip

Core_0_instructions 50000001
Core_0_cycles 39638285
Core_0_IPC 1.26141
Core_0_branch_prediction_accuracy 84.1487
Core_0_branch_MPKI 28.9551
Core_0_average_ROB_occupancy_at_mispredict 17.0584

Core_0_ITLB_total_access 88905
Core_0_ITLB_total_hit 88655
Core_0_ITLB_total_miss 250
Core_0_ITLB_total_MPKI 0.005
Core_0_ITLB_total_miss_rate 0.00281199
Core_0_ITLB_demand_access 88905
Core_0_ITLB_demand_hit 88655
Core_0_ITLB_demand_miss 250
Core_0_ITLB_demand_MPKI 0.005
Core_0_ITLB_demand_miss_rate 0.00281199
Core_0_ITLB_load_access 88905
Core_0_ITLB_load_hit 88655
Core_0_ITLB_load_miss 250
Core_0_ITLB_load_MPKI 0.005
Core_0_ITLB_load_miss_rate 0.00281199
Core_0_ITLB_rfo_access 0
Core_0_ITLB_rfo_hit 0
Core_0_ITLB_rfo_miss 0
Core_0_ITLB_rfo_MPKI 0
Core_0_ITLB_rfo_miss_rate 0
Core_0_ITLB_prefetch_access 0
Core_0_ITLB_prefetch_hit 0
Core_0_ITLB_prefetch_miss 0
Core_0_ITLB_prefetch_MPKI 0
Core_0_ITLB_prefetch_miss_rate 0
Core_0_ITLB_writeback_access 0
Core_0_ITLB_writeback_hit 0
Core_0_ITLB_writeback_miss 0
Core_0_ITLB_writeback_MPKI 0
Core_0_ITLB_writeback_miss_rate 0
Core_0_ITLB_prefetch_requested 0
Core_0_ITLB_prefetch_issued 0
Core_0_ITLB_prefetch_useful 0
Core_0_ITLB_prefetch_useless 0
Core_0_ITLB_prefetch_late 0
Core_0_ITLB_prefetch_accuracy 0
Core_0_ITLB_prefetch_coverage 0

Core_0_DTLB_total_access 15340230
Core_0_DTLB_total_hit 15305093
Core_0_DTLB_total_miss 35137
Core_0_DTLB_total_MPKI 0.70274
Core_0_DTLB_total_miss_rate 0.00229051
Core_0_DTLB_demand_access 15340230
Core_0_DTLB_demand_hit 15305093
Core_0_DTLB_demand_miss 35137
Core_0_DTLB_demand_MPKI 0.70274
Core_0_DTLB_demand_miss_rate 0.00229051
Core_0_DTLB_load_access 15340230
Core_0_DTLB_load_hit 15305093
Core_0_DTLB_load_miss 35137
Core_0_DTLB_load_MPKI 0.70274
Core_0_DTLB_load_miss_rate 0.00229051
Core_0_DTLB_rfo_access 0
Core_0_DTLB_rfo_hit 0
Core_0_DTLB_rfo_miss 0
Core_0_DTLB_rfo_MPKI 0
Core_0_DTLB_rfo_miss_rate 0
Core_0_DTLB_prefetch_access 0
Core_0_DTLB_prefetch_hit 0
Core_0_DTLB_prefetch_miss 0
Core_0_DTLB_prefetch_MPKI 0
Core_0_DTLB_prefetch_miss_rate 0
Core_0_DTLB_writeback_access 0
Core_0_DTLB_writeback_hit 0
Core_0_DTLB_writeback_miss 0
Core_0_DTLB_writeback_MPKI 0
Core_0_DTLB_writeback_miss_rate 0
Core_0_DTLB_prefetch_requested 0
Core_0_DTLB_prefetch_issued 0
Core_0_DTLB_prefetch_useful 0
Core_0_DTLB_prefetch_useless 0
Core_0_DTLB_prefetch_late 0
Core_0_DTLB_prefetch_accuracy 0
Core_0_DTLB_prefetch_coverage 0

Core_0_STLB_total_access 22821
Core_0_STLB_total_hit 22821
Core_0_STLB_total_miss 0
Core_0_STLB_total_MPKI 0
Core_0_STLB_total_miss_rate 0
Core_0_STLB_demand_access 22821
Core_0_STLB_demand_hit 22821
Core_0_STLB_demand_miss 0
Core_0_STLB_demand_MPKI 0
Core_0_STLB_demand_miss_rate 0
Core_0_STLB_load_access 22821
Core_0_STLB_load_hit 22821
Core_0_STLB_load_miss 0
Core_0_STLB_load_MPKI 0
Core_0_STLB_load_miss_rate 0
Core_0_STLB_rfo_access 0
Core_0_STLB_rfo_hit 0
Core_0_STLB_rfo_miss 0
Core_0_STLB_rfo_MPKI 0
Core_0_STLB_rfo_miss_rate 0
Core_0_STLB_prefetch_access 0
Core_0_STLB_prefetch_hit 0
Core_0_STLB_prefetch_miss 0
Core_0_STLB_prefetch_MPKI 0
Core_0_STLB_prefetch_miss_rate 0
Core_0_STLB_writeback_access 0
Core_0_STLB_writeback_hit 0
Core_0_STLB_writeback_miss 0
Core_0_STLB_writeback_MPKI 0
Core_0_STLB_writeback_miss_rate 0
Core_0_STLB_prefetch_requested 0
Core_0_STLB_prefetch_issued 0
Core_0_STLB_prefetch_useful 0
Core_0_STLB_prefetch_useless 0
Core_0_STLB_prefetch_late 0
Core_0_STLB_prefetch_accuracy 0
Core_0_STLB_prefetch_coverage 0

Core_0_L1I_total_access 105252
Core_0_L1I_total_hit 97702
Core_0_L1I_total_miss 7550
Core_0_L1I_total_MPKI 0.151
Core_0_L1I_total_miss_rate 0.0717326
Core_0_L1I_demand_access 105252
Core_0_L1I_demand_hit 97702
Core_0_L1I_demand_miss 7550
Core_0_L1I_demand_MPKI 0.151
Core_0_L1I_demand_miss_rate 0.0717326
Core_0_L1I_load_access 105252
Core_0_L1I_load_hit 97702
Core_0_L1I_load_miss 7550
Core_0_L1I_load_MPKI 0.151
Core_0_L1I_load_miss_rate 0.0717326
Core_0_L1I_rfo_access 0
Core_0_L1I_rfo_hit 0
Core_0_L1I_rfo_miss 0
Core_0_L1I_rfo_MPKI 0
Core_0_L1I_rfo_miss_rate 0
Core_0_L1I_prefetch_access 0
Core_0_L1I_prefetch_hit 0
Core_0_L1I_prefetch_miss 0
Core_0_L1I_prefetch_MPKI 0
Core_0_L1I_prefetch_miss_rate 0
Core_0_L1I_writeback_access 0
Core_0_L1I_writeback_hit 0
Core_0_L1I_writeback_miss 0
Core_0_L1I_writeback_MPKI 0
Core_0_L1I_writeback_miss_rate 0
Core_0_L1I_prefetch_requested 0
Core_0_L1I_prefetch_issued 0
Core_0_L1I_prefetch_useful 0
Core_0_L1I_prefetch_useless 0
Core_0_L1I_prefetch_late 0
Core_0_L1I_prefetch_accuracy 0
Core_0_L1I_prefetch_coverage 0

Core_0_L1D_total_access 16081107
Core_0_L1D_total_hit 15857812
Core_0_L1D_total_miss 223295
Core_0_L1D_total_MPKI 4.4659
Core_0_L1D_total_miss_rate 0.0138855
Core_0_L1D_demand_access 9298464
Core_0_L1D_demand_hit 9243166
Core_0_L1D_demand_miss 55298
Core_0_L1D_demand_MPKI 1.10596
Core_0_L1D_demand_miss_rate 0.005947
Core_0_L1D_load_access 9298464
Core_0_L1D_load_hit 9243166
Core_0_L1D_load_miss 55298
Core_0_L1D_load_MPKI 1.10596
Core_0_L1D_load_miss_rate 0.005947
Core_0_L1D_rfo_access 0
Core_0_L1D_rfo_hit 0
Core_0_L1D_rfo_miss 0
Core_0_L1D_rfo_MPKI 0
Core_0_L1D_rfo_miss_rate 0
Core_0_L1D_prefetch_access 143067
Core_0_L1D_prefetch_hit 95916
Core_0_L1D_prefetch_miss 47151
Core_0_L1D_prefetch_MPKI 0.94302
Core_0_L1D_prefetch_miss_rate 0.329573
Core_0_L1D_writeback_access 6639576
Core_0_L1D_writeback_hit 6518730
Core_0_L1D_writeback_miss 120846
Core_0_L1D_writeback_MPKI 2.41692
Core_0_L1D_writeback_miss_rate 0.0182009
Core_0_L1D_prefetch_requested 148608
Core_0_L1D_prefetch_issued 143067
Core_0_L1D_prefetch_useful 25402
Core_0_L1D_prefetch_useless 19352
Core_0_L1D_prefetch_late 753
Core_0_L1D_prefetch_accuracy 0.177553
Core_0_L1D_prefetch_coverage 0.314771

Core_0_L2C_total_access 336737
Core_0_L2C_total_hit 283559
Core_0_L2C_total_miss 53178
Core_0_L2C_total_MPKI 1.06356
Core_0_L2C_total_miss_rate 0.157921
Core_0_L2C_demand_access 78207
Core_0_L2C_demand_hit 57004
Core_0_L2C_demand_miss 21203
Core_0_L2C_demand_MPKI 0.42406
Core_0_L2C_demand_miss_rate 0.271114
Core_0_L2C_load_access 46415
Core_0_L2C_load_hit 28542
Core_0_L2C_load_miss 17873
Core_0_L2C_load_MPKI 0.35746
Core_0_L2C_load_miss_rate 0.385069
Core_0_L2C_rfo_access 31792
Core_0_L2C_rfo_hit 28462
Core_0_L2C_rfo_miss 3330
Core_0_L2C_rfo_MPKI 0.0666
Core_0_L2C_rfo_miss_rate 0.104743
Core_0_L2C_prefetch_access 203970
Core_0_L2C_prefetch_hit 172058
Core_0_L2C_prefetch_miss 31912
Core_0_L2C_prefetch_MPKI 0.63824
Core_0_L2C_prefetch_miss_rate 0.156454
Core_0_L2C_writeback_access 54560
Core_0_L2C_writeback_hit 54497
Core_0_L2C_writeback_miss 63
Core_0_L2C_writeback_MPKI 0.00126
Core_0_L2C_writeback_miss_rate 0.00115469
Core_0_L2C_prefetch_requested 172602
Core_0_L2C_prefetch_issued 159236
Core_0_L2C_prefetch_useful 9961
Core_0_L2C_prefetch_useless 15186
Core_0_L2C_prefetch_late 141
Core_0_L2C_prefetch_accuracy 0.0625549
Core_0_L2C_prefetch_coverage 0.319632

Core_0_LLC_total_access 67323
Core_0_LLC_total_hit 37276
Core_0_LLC_total_miss 30047
Core_0_LLC_total_MPKI 0.60094
Core_0_LLC_total_miss_rate 0.446311
Core_0_LLC_demand_access 21062
Core_0_LLC_demand_hit 10434
Core_0_LLC_demand_miss 10628
Core_0_LLC_demand_MPKI 0.21256
Core_0_LLC_demand_miss_rate 0.504605
Core_0_LLC_load_access 17735
Core_0_LLC_load_hit 7489
Core_0_LLC_load_miss 10246
Core_0_LLC_load_MPKI 0.20492
Core_0_LLC_load_miss_rate 0.577728
Core_0_LLC_rfo_access 3327
Core_0_LLC_rfo_hit 2945
Core_0_LLC_rfo_miss 382
Core_0_LLC_rfo_MPKI 0.00764
Core_0_LLC_rfo_miss_rate 0.114818
Core_0_LLC_prefetch_access 29273
Core_0_LLC_prefetch_hit 12791
Core_0_LLC_prefetch_miss 16482
Core_0_LLC_prefetch_MPKI 0.32964
Core_0_LLC_prefetch_miss_rate 0.563044
Core_0_LLC_writeback_access 16988
Core_0_LLC_writeback_hit 14051
Core_0_LLC_writeback_miss 2937
Core_0_LLC_writeback_MPKI 0.05874
Core_0_LLC_writeback_miss_rate 0.172887
Core_0_LLC_prefetch_requested 0
Core_0_LLC_prefetch_issued 0
Core_0_LLC_prefetch_useful 0
Core_0_LLC_prefetch_useless 0
Core_0_LLC_prefetch_late 0
Core_0_LLC_prefetch_accuracy 0
Core_0_LLC_prefetch_coverage 0

[DRAM Statistics]
Channel_0_RQ_row_buffer_hit 122
Channel_0_RQ_row_buffer_miss 26988
Channel_0_WQ_row_buffer_hit 194
Channel_0_WQ_row_buffer_miss 880
Channel_0_WQ_full 0
Channel_0_dbus_congested 31608
DRAM_total_RQ_row_buffer_hit 122
DRAM_total_RQ_row_buffer_miss 26988
DRAM_total_WQ_row_buffer_hit 194
DRAM_total_WQ_row_buffer_miss 880
DRAM_total_WQ_full 0
DRAM_total_dbus_congested 31608
DRAM_avg_congested_cycle 7.59798

======STLB miss causes ========
Core_0_STLB_miss_cause_breakdown
Core_0_STLB_cause_Demand_Data_miss 0
Core_0_STLB_cause_Demand_Data_miss_rate 0
Core_0_STLB_cause_Demand_Instruction_miss 0
Core_0_STLB_cause_Demand_Instruction_miss_rate 0
Core_0_STLB_cause_L1D_Prefetch_miss 0
Core_0_STLB_cause_L1D_Prefetch_miss_rate 0
Core_0_STLB_cause_L1I_Prefetch_miss 0
Core_0_STLB_cause_L1I_Prefetch_miss_rate 0
Core_0_STLB_cause_Other_miss 0
Core_0_STLB_cause_Other_miss_rate 0
Core_0_STLB_Demand_miss 0
Core_0_STLB_Demand_miss_rate 0
Core_0_STLB_L1D_Prefetch_miss 0
Core_0_STLB_L1D_Prefetch_miss_rate 0
Core_0_STLB_Other_miss 0
Core_0_STLB_Other_miss_rate 0
