[VMEM] WARNING: physical memory size is smaller than virtual memory size.

*** ChampSim Multicore Out-of-Order Simulator ***
Warmup Instructions: 20000000
Simulation Instructions: 50000000
Number of CPUs: 1
Page size: 4096
STLB ideal mode: all
Core 0: /data0/tzh/champsim_traces/SPEC06/445.gobmk-2B.champsimtrace.xz
 L1D Berti prefetcher
Off-chip DRAM Size: 4 GiB Channels: 1 Width: 64-bit Data Rate: 3205 MT/s
Warmup halting CPU 0 at instruction 20000003 cycle 4527301 for remainder of phase
Warmup finished CPU 0 instructions: 20000003 cycles: 4527301 cumulative IPC: 4.418 (Simulation time: 00 hr 01 min 00 sec)
Warmup complete CPU 0 instructions: 20000003 cycles: 4527301 cumulative IPC: 4.418 (Simulation time: 00 hr 01 min 00 sec)
Simulation finished CPU 0 instructions: 50000000 cycles: 40863270 cumulative IPC: 1.224 (Simulation time: 00 hr 05 min 06 sec)
Simulation complete CPU 0 instructions: 50000000 cycles: 40863270 cumulative IPC: 1.224 (Simulation time: 00 hr 05 min 06 sec)

ChampSim completed all CPUs

=== Simulation ===
CPU 0 runs /data0/tzh/champsim_traces/SPEC06/445.gobmk-2B.champsimtrace.xz

Region of Interest Statistics

CPU 0 cumulative IPC: 1.224 instructions: 50000000 cycles: 40863270
CPU 0 Branch Prediction Accuracy: 87.19% MPKI: 25.05 Average ROB Occupancy at Mispredict: 19.49
Branch type MPKI
BRANCH_DIRECT_JUMP: 0.04924
BRANCH_INDIRECT: 0.00026
BRANCH_CONDITIONAL: 24.94
BRANCH_DIRECT_CALL: 0.00604
BRANCH_INDIRECT_CALL: 0.0468
BRANCH_RETURN: 0.00698

cpu0->cpu0_STLB TOTAL        ACCESS:      72678 HIT:      72678 MISS:          0 MSHR_MERGE:          0
cpu0->cpu0_STLB LOAD         ACCESS:      72678 HIT:      72678 MISS:          0 MSHR_MERGE:          0
cpu0->cpu0_STLB RFO          ACCESS:          0 HIT:          0 MISS:          0 MSHR_MERGE:          0
cpu0->cpu0_STLB PREFETCH     ACCESS:          0 HIT:          0 MISS:          0 MSHR_MERGE:          0
cpu0->cpu0_STLB WRITE        ACCESS:          0 HIT:          0 MISS:          0 MSHR_MERGE:          0
cpu0->cpu0_STLB TRANSLATION  ACCESS:          0 HIT:          0 MISS:          0 MSHR_MERGE:          0
cpu0->cpu0_STLB PREFETCH REQUESTED:          0 ISSUED:          0 USEFUL:          0 USELESS:          0 LATE:          0
cpu0->cpu0_STLB AVERAGE MISS LATENCY: - cycles
cpu0->cpu0_L2C TOTAL        ACCESS:    1087198 HIT:     812360 MISS:     274838 MSHR_MERGE:      19458
cpu0->cpu0_L2C LOAD         ACCESS:     190864 HIT:     116948 MISS:      73916 MSHR_MERGE:        960
cpu0->cpu0_L2C RFO          ACCESS:      86764 HIT:      63355 MISS:      23409 MSHR_MERGE:          9
cpu0->cpu0_L2C PREFETCH     ACCESS:     678336 HIT:     500897 MISS:     177439 MSHR_MERGE:      18489
cpu0->cpu0_L2C WRITE        ACCESS:     131234 HIT:     131160 MISS:         74 MSHR_MERGE:          0
cpu0->cpu0_L2C TRANSLATION  ACCESS:          0 HIT:          0 MISS:          0 MSHR_MERGE:          0
cpu0->cpu0_L2C PREFETCH REQUESTED:     617296 ISSUED:     555263 USEFUL:      53339 USELESS:      72934 LATE:        969
cpu0->cpu0_L2C AVERAGE MISS LATENCY: 31.83 cycles
cpu0->cpu0_L1I TOTAL        ACCESS:     458387 HIT:     417153 MISS:      41234 MSHR_MERGE:      10677
cpu0->cpu0_L1I LOAD         ACCESS:     458387 HIT:     417153 MISS:      41234 MSHR_MERGE:      10677
cpu0->cpu0_L1I RFO          ACCESS:          0 HIT:          0 MISS:          0 MSHR_MERGE:          0
cpu0->cpu0_L1I PREFETCH     ACCESS:          0 HIT:          0 MISS:          0 MSHR_MERGE:          0
cpu0->cpu0_L1I WRITE        ACCESS:          0 HIT:          0 MISS:          0 MSHR_MERGE:          0
cpu0->cpu0_L1I TRANSLATION  ACCESS:          0 HIT:          0 MISS:          0 MSHR_MERGE:          0
cpu0->cpu0_L1I PREFETCH REQUESTED:          0 ISSUED:          0 USEFUL:          0 USELESS:          0 LATE:          0
cpu0->cpu0_L1I AVERAGE MISS LATENCY: 21.43 cycles
cpu0->cpu0_L1D TOTAL        ACCESS:   14782929 HIT:   14072930 MISS:     709999 MSHR_MERGE:     339853
cpu0->cpu0_L1D LOAD         ACCESS:    9310094 HIT:    9131056 MISS:     179038 MSHR_MERGE:      18731
cpu0->cpu0_L1D RFO          ACCESS:          0 HIT:          0 MISS:          0 MSHR_MERGE:          0
cpu0->cpu0_L1D PREFETCH     ACCESS:     295818 HIT:     165299 MISS:     130519 MSHR_MERGE:       7446
cpu0->cpu0_L1D WRITE        ACCESS:    5177017 HIT:    4776575 MISS:     400442 MSHR_MERGE:     313676
cpu0->cpu0_L1D TRANSLATION  ACCESS:          0 HIT:          0 MISS:          0 MSHR_MERGE:          0
cpu0->cpu0_L1D PREFETCH REQUESTED:     315170 ISSUED:     295818 USEFUL:      57254 USELESS:      65736 LATE:       2701
cpu0->cpu0_L1D AVERAGE MISS LATENCY: 19.55 cycles
cpu0->cpu0_ITLB TOTAL        ACCESS:     416422 HIT:     415741 MISS:        681 MSHR_MERGE:        377
cpu0->cpu0_ITLB LOAD         ACCESS:     416422 HIT:     415741 MISS:        681 MSHR_MERGE:        377
cpu0->cpu0_ITLB RFO          ACCESS:          0 HIT:          0 MISS:          0 MSHR_MERGE:          0
cpu0->cpu0_ITLB PREFETCH     ACCESS:          0 HIT:          0 MISS:          0 MSHR_MERGE:          0
cpu0->cpu0_ITLB WRITE        ACCESS:          0 HIT:          0 MISS:          0 MSHR_MERGE:          0
cpu0->cpu0_ITLB TRANSLATION  ACCESS:          0 HIT:          0 MISS:          0 MSHR_MERGE:          0
cpu0->cpu0_ITLB PREFETCH REQUESTED:          0 ISSUED:          0 USEFUL:          0 USELESS:          0 LATE:          0
cpu0->cpu0_ITLB AVERAGE MISS LATENCY: 5.007 cycles
cpu0->cpu0_DTLB TOTAL        ACCESS:   14178865 HIT:   14079159 MISS:      99706 MSHR_MERGE:      27332
cpu0->cpu0_DTLB LOAD         ACCESS:   14178865 HIT:   14079159 MISS:      99706 MSHR_MERGE:      27332
cpu0->cpu0_DTLB RFO          ACCESS:          0 HIT:          0 MISS:          0 MSHR_MERGE:          0
cpu0->cpu0_DTLB PREFETCH     ACCESS:          0 HIT:          0 MISS:          0 MSHR_MERGE:          0
cpu0->cpu0_DTLB WRITE        ACCESS:          0 HIT:          0 MISS:          0 MSHR_MERGE:          0
cpu0->cpu0_DTLB TRANSLATION  ACCESS:          0 HIT:          0 MISS:          0 MSHR_MERGE:          0
cpu0->cpu0_DTLB PREFETCH REQUESTED:          0 ISSUED:          0 USEFUL:          0 USELESS:          0 LATE:          0
cpu0->cpu0_DTLB AVERAGE MISS LATENCY: 5 cycles
cpu0->LLC TOTAL        ACCESS:     306540 HIT:     277568 MISS:      28972 MSHR_MERGE:          0
cpu0->LLC LOAD         ACCESS:      72956 HIT:      66174 MISS:       6782 MSHR_MERGE:          0
cpu0->LLC RFO          ACCESS:      23400 HIT:      20897 MISS:       2503 MSHR_MERGE:          0
cpu0->LLC PREFETCH     ACCESS:     158950 HIT:     142763 MISS:      16187 MSHR_MERGE:          0
cpu0->LLC WRITE        ACCESS:      51234 HIT:      47734 MISS:       3500 MSHR_MERGE:          0
cpu0->LLC TRANSLATION  ACCESS:          0 HIT:          0 MISS:          0 MSHR_MERGE:          0
cpu0->LLC PREFETCH REQUESTED:          0 ISSUED:          0 USEFUL:          0 USELESS:          0 LATE:          0
cpu0->LLC AVERAGE MISS LATENCY: 122.7 cycles

DRAM Statistics

Channel 0 RQ ROW_BUFFER_HIT:        883
  ROW_BUFFER_MISS:      24584
  AVG DBUS CONGESTED CYCLE: 11.81
Channel 0 WQ ROW_BUFFER_HIT:        902
  ROW_BUFFER_MISS:       5829
  FULL:          0
Channel 0 REFRESHES ISSUED:       3405

[ROI Statistics]
[System Configuration]
num_cpus 1
cpu_freq 4000
fetch_width 6
decode_width 6
dispatch_width 6
execute_width 6
lq_width 2
sq_width 2
retire_width 6
scheduler_size 160
branch_mispredict_penalty 1
rob_size 352
lq_size 240
sq_size 112
ifetch_buffer_size 64
decode_buffer_size 32
dispatch_buffer_size 32
register_file_size 288
decode_latency 1
dispatch_latency 1
schedule_latency 0
execute_latency 0
page_size 4096
block_size 64
core_0_itlb_set 16
core_0_itlb_way 4
core_0_itlb_rq_size 16
core_0_itlb_wq_size 16
core_0_itlb_pq_size 0
core_0_itlb_mshr_size 8
core_0_itlb_hit_latency 1
core_0_itlb_fill_latency 1
core_0_itlb_max_tag_check 2
core_0_itlb_max_fill 2
core_0_dtlb_set 16
core_0_dtlb_way 4
core_0_dtlb_rq_size 16
core_0_dtlb_wq_size 16
core_0_dtlb_pq_size 0
core_0_dtlb_mshr_size 8
core_0_dtlb_hit_latency 1
core_0_dtlb_fill_latency 1
core_0_dtlb_max_tag_check 2
core_0_dtlb_max_fill 2
core_0_stlb_set 128
core_0_stlb_way 12
core_0_stlb_rq_size 32
core_0_stlb_wq_size 32
core_0_stlb_pq_size 0
core_0_stlb_mshr_size 16
core_0_stlb_hit_latency 4
core_0_stlb_fill_latency 4
core_0_stlb_max_tag_check 1
core_0_stlb_max_fill 1
core_0_l1i_set 64
core_0_l1i_way 8
core_0_l1i_rq_size 64
core_0_l1i_wq_size 64
core_0_l1i_pq_size 32
core_0_l1i_mshr_size 8
core_0_l1i_hit_latency 2
core_0_l1i_fill_latency 2
core_0_l1i_max_tag_check 2
core_0_l1i_max_fill 2
core_0_l1d_set 64
core_0_l1d_way 12
core_0_l1d_rq_size 64
core_0_l1d_wq_size 64
core_0_l1d_pq_size 8
core_0_l1d_mshr_size 16
core_0_l1d_hit_latency 2
core_0_l1d_fill_latency 3
core_0_l1d_max_tag_check 2
core_0_l1d_max_fill 2
core_0_l2c_set 1024
core_0_l2c_way 8
core_0_l2c_rq_size 32
core_0_l2c_wq_size 32
core_0_l2c_pq_size 16
core_0_l2c_mshr_size 32
core_0_l2c_hit_latency 5
core_0_l2c_fill_latency 5
core_0_l2c_max_tag_check 1
core_0_l2c_max_fill 1
llc_set 2048
llc_way 16
llc_rq_size 32
llc_wq_size 32
llc_pq_size 32
llc_mshr_size 64
llc_hit_latency 10
llc_fill_latency 10
llc_max_tag_check 1
llc_max_fill 1
dram_channels 1
dram_ranks 1
dram_bankgroups 8
dram_banks 4
dram_rows 16384
dram_columns 1024
dram_channel_width 8
dram_rq_size 64
dram_wq_size 64
dram_size 4294967296
core_0_itlb_prefetcher no
core_0_dtlb_prefetcher no
core_0_stlb_prefetcher no
core_0_l1i_prefetcher next_line
core_0_l1d_prefetcher berti
core_0_l2c_prefetcher pythia
llc_prefetcher no
llc_replacement drrip

Core_0_instructions 50000000
Core_0_cycles 40863270
Core_0_IPC 1.22359
Core_0_branch_prediction_accuracy 87.193
Core_0_branch_MPKI 25.0526
Core_0_average_ROB_occupancy_at_mispredict 19.488

Core_0_ITLB_total_access 416422
Core_0_ITLB_total_hit 415741
Core_0_ITLB_total_miss 681
Core_0_ITLB_total_MPKI 0.01362
Core_0_ITLB_total_miss_rate 0.00163536
Core_0_ITLB_demand_access 416422
Core_0_ITLB_demand_hit 415741
Core_0_ITLB_demand_miss 681
Core_0_ITLB_demand_MPKI 0.01362
Core_0_ITLB_demand_miss_rate 0.00163536
Core_0_ITLB_load_access 416422
Core_0_ITLB_load_hit 415741
Core_0_ITLB_load_miss 681
Core_0_ITLB_load_MPKI 0.01362
Core_0_ITLB_load_miss_rate 0.00163536
Core_0_ITLB_rfo_access 0
Core_0_ITLB_rfo_hit 0
Core_0_ITLB_rfo_miss 0
Core_0_ITLB_rfo_MPKI 0
Core_0_ITLB_rfo_miss_rate 0
Core_0_ITLB_prefetch_access 0
Core_0_ITLB_prefetch_hit 0
Core_0_ITLB_prefetch_miss 0
Core_0_ITLB_prefetch_MPKI 0
Core_0_ITLB_prefetch_miss_rate 0
Core_0_ITLB_writeback_access 0
Core_0_ITLB_writeback_hit 0
Core_0_ITLB_writeback_miss 0
Core_0_ITLB_writeback_MPKI 0
Core_0_ITLB_writeback_miss_rate 0
Core_0_ITLB_prefetch_requested 0
Core_0_ITLB_prefetch_issued 0
Core_0_ITLB_prefetch_useful 0
Core_0_ITLB_prefetch_useless 0
Core_0_ITLB_prefetch_late 0
Core_0_ITLB_prefetch_accuracy 0
Core_0_ITLB_prefetch_coverage 0

Core_0_DTLB_total_access 14178865
Core_0_DTLB_total_hit 14079159
Core_0_DTLB_total_miss 99706
Core_0_DTLB_total_MPKI 1.99412
Core_0_DTLB_total_miss_rate 0.00703202
Core_0_DTLB_demand_access 14178865
Core_0_DTLB_demand_hit 14079159
Core_0_DTLB_demand_miss 99706
Core_0_DTLB_demand_MPKI 1.99412
Core_0_DTLB_demand_miss_rate 0.00703202
Core_0_DTLB_load_access 14178865
Core_0_DTLB_load_hit 14079159
Core_0_DTLB_load_miss 99706
Core_0_DTLB_load_MPKI 1.99412
Core_0_DTLB_load_miss_rate 0.00703202
Core_0_DTLB_rfo_access 0
Core_0_DTLB_rfo_hit 0
Core_0_DTLB_rfo_miss 0
Core_0_DTLB_rfo_MPKI 0
Core_0_DTLB_rfo_miss_rate 0
Core_0_DTLB_prefetch_access 0
Core_0_DTLB_prefetch_hit 0
Core_0_DTLB_prefetch_miss 0
Core_0_DTLB_prefetch_MPKI 0
Core_0_DTLB_prefetch_miss_rate 0
Core_0_DTLB_writeback_access 0
Core_0_DTLB_writeback_hit 0
Core_0_DTLB_writeback_miss 0
Core_0_DTLB_writeback_MPKI 0
Core_0_DTLB_writeback_miss_rate 0
Core_0_DTLB_prefetch_requested 0
Core_0_DTLB_prefetch_issued 0
Core_0_DTLB_prefetch_useful 0
Core_0_DTLB_prefetch_useless 0
Core_0_DTLB_prefetch_late 0
Core_0_DTLB_prefetch_accuracy 0
Core_0_DTLB_prefetch_coverage 0

Core_0_STLB_total_access 72678
Core_0_STLB_total_hit 72678
Core_0_STLB_total_miss 0
Core_0_STLB_total_MPKI 0
Core_0_STLB_total_miss_rate 0
Core_0_STLB_demand_access 72678
Core_0_STLB_demand_hit 72678
Core_0_STLB_demand_miss 0
Core_0_STLB_demand_MPKI 0
Core_0_STLB_demand_miss_rate 0
Core_0_STLB_load_access 72678
Core_0_STLB_load_hit 72678
Core_0_STLB_load_miss 0
Core_0_STLB_load_MPKI 0
Core_0_STLB_load_miss_rate 0
Core_0_STLB_rfo_access 0
Core_0_STLB_rfo_hit 0
Core_0_STLB_rfo_miss 0
Core_0_STLB_rfo_MPKI 0
Core_0_STLB_rfo_miss_rate 0
Core_0_STLB_prefetch_access 0
Core_0_STLB_prefetch_hit 0
Core_0_STLB_prefetch_miss 0
Core_0_STLB_prefetch_MPKI 0
Core_0_STLB_prefetch_miss_rate 0
Core_0_STLB_writeback_access 0
Core_0_STLB_writeback_hit 0
Core_0_STLB_writeback_miss 0
Core_0_STLB_writeback_MPKI 0
Core_0_STLB_writeback_miss_rate 0
Core_0_STLB_prefetch_requested 0
Core_0_STLB_prefetch_issued 0
Core_0_STLB_prefetch_useful 0
Core_0_STLB_prefetch_useless 0
Core_0_STLB_prefetch_late 0
Core_0_STLB_prefetch_accuracy 0
Core_0_STLB_prefetch_coverage 0

Core_0_L1I_total_access 458387
Core_0_L1I_total_hit 417153
Core_0_L1I_total_miss 41234
Core_0_L1I_total_MPKI 0.82468
Core_0_L1I_total_miss_rate 0.0899546
Core_0_L1I_demand_access 458387
Core_0_L1I_demand_hit 417153
Core_0_L1I_demand_miss 41234
Core_0_L1I_demand_MPKI 0.82468
Core_0_L1I_demand_miss_rate 0.0899546
Core_0_L1I_load_access 458387
Core_0_L1I_load_hit 417153
Core_0_L1I_load_miss 41234
Core_0_L1I_load_MPKI 0.82468
Core_0_L1I_load_miss_rate 0.0899546
Core_0_L1I_rfo_access 0
Core_0_L1I_rfo_hit 0
Core_0_L1I_rfo_miss 0
Core_0_L1I_rfo_MPKI 0
Core_0_L1I_rfo_miss_rate 0
Core_0_L1I_prefetch_access 0
Core_0_L1I_prefetch_hit 0
Core_0_L1I_prefetch_miss 0
Core_0_L1I_prefetch_MPKI 0
Core_0_L1I_prefetch_miss_rate 0
Core_0_L1I_writeback_access 0
Core_0_L1I_writeback_hit 0
Core_0_L1I_writeback_miss 0
Core_0_L1I_writeback_MPKI 0
Core_0_L1I_writeback_miss_rate 0
Core_0_L1I_prefetch_requested 0
Core_0_L1I_prefetch_issued 0
Core_0_L1I_prefetch_useful 0
Core_0_L1I_prefetch_useless 0
Core_0_L1I_prefetch_late 0
Core_0_L1I_prefetch_accuracy 0
Core_0_L1I_prefetch_coverage 0

Core_0_L1D_total_access 14782929
Core_0_L1D_total_hit 14072930
Core_0_L1D_total_miss 709999
Core_0_L1D_total_MPKI 14.2
Core_0_L1D_total_miss_rate 0.0480283
Core_0_L1D_demand_access 9310094
Core_0_L1D_demand_hit 9131056
Core_0_L1D_demand_miss 179038
Core_0_L1D_demand_MPKI 3.58076
Core_0_L1D_demand_miss_rate 0.0192305
Core_0_L1D_load_access 9310094
Core_0_L1D_load_hit 9131056
Core_0_L1D_load_miss 179038
Core_0_L1D_load_MPKI 3.58076
Core_0_L1D_load_miss_rate 0.0192305
Core_0_L1D_rfo_access 0
Core_0_L1D_rfo_hit 0
Core_0_L1D_rfo_miss 0
Core_0_L1D_rfo_MPKI 0
Core_0_L1D_rfo_miss_rate 0
Core_0_L1D_prefetch_access 295818
Core_0_L1D_prefetch_hit 165299
Core_0_L1D_prefetch_miss 130519
Core_0_L1D_prefetch_MPKI 2.61038
Core_0_L1D_prefetch_miss_rate 0.441214
Core_0_L1D_writeback_access 5177017
Core_0_L1D_writeback_hit 4776575
Core_0_L1D_writeback_miss 400442
Core_0_L1D_writeback_MPKI 8.00884
Core_0_L1D_writeback_miss_rate 0.0773499
Core_0_L1D_prefetch_requested 315170
Core_0_L1D_prefetch_issued 295818
Core_0_L1D_prefetch_useful 57254
Core_0_L1D_prefetch_useless 65736
Core_0_L1D_prefetch_late 2701
Core_0_L1D_prefetch_accuracy 0.193545
Core_0_L1D_prefetch_coverage 0.242302

Core_0_L2C_total_access 1087198
Core_0_L2C_total_hit 812360
Core_0_L2C_total_miss 274838
Core_0_L2C_total_MPKI 5.49676
Core_0_L2C_total_miss_rate 0.252795
Core_0_L2C_demand_access 277628
Core_0_L2C_demand_hit 180303
Core_0_L2C_demand_miss 97325
Core_0_L2C_demand_MPKI 1.9465
Core_0_L2C_demand_miss_rate 0.350559
Core_0_L2C_load_access 190864
Core_0_L2C_load_hit 116948
Core_0_L2C_load_miss 73916
Core_0_L2C_load_MPKI 1.47832
Core_0_L2C_load_miss_rate 0.387271
Core_0_L2C_rfo_access 86764
Core_0_L2C_rfo_hit 63355
Core_0_L2C_rfo_miss 23409
Core_0_L2C_rfo_MPKI 0.46818
Core_0_L2C_rfo_miss_rate 0.269801
Core_0_L2C_prefetch_access 678336
Core_0_L2C_prefetch_hit 500897
Core_0_L2C_prefetch_miss 177439
Core_0_L2C_prefetch_MPKI 3.54878
Core_0_L2C_prefetch_miss_rate 0.26158
Core_0_L2C_writeback_access 131234
Core_0_L2C_writeback_hit 131160
Core_0_L2C_writeback_miss 74
Core_0_L2C_writeback_MPKI 0.00148
Core_0_L2C_writeback_miss_rate 0.000563878
Core_0_L2C_prefetch_requested 617296
Core_0_L2C_prefetch_issued 555263
Core_0_L2C_prefetch_useful 53339
Core_0_L2C_prefetch_useless 72934
Core_0_L2C_prefetch_late 969
Core_0_L2C_prefetch_accuracy 0.0960608
Core_0_L2C_prefetch_coverage 0.354026

Core_0_LLC_total_access 306540
Core_0_LLC_total_hit 277568
Core_0_LLC_total_miss 28972
Core_0_LLC_total_MPKI 0.57944
Core_0_LLC_total_miss_rate 0.094513
Core_0_LLC_demand_access 96356
Core_0_LLC_demand_hit 87071
Core_0_LLC_demand_miss 9285
Core_0_LLC_demand_MPKI 0.1857
Core_0_LLC_demand_miss_rate 0.0963614
Core_0_LLC_load_access 72956
Core_0_LLC_load_hit 66174
Core_0_LLC_load_miss 6782
Core_0_LLC_load_MPKI 0.13564
Core_0_LLC_load_miss_rate 0.0929601
Core_0_LLC_rfo_access 23400
Core_0_LLC_rfo_hit 20897
Core_0_LLC_rfo_miss 2503
Core_0_LLC_rfo_MPKI 0.05006
Core_0_LLC_rfo_miss_rate 0.106966
Core_0_LLC_prefetch_access 158950
Core_0_LLC_prefetch_hit 142763
Core_0_LLC_prefetch_miss 16187
Core_0_LLC_prefetch_MPKI 0.32374
Core_0_LLC_prefetch_miss_rate 0.101837
Core_0_LLC_writeback_access 51234
Core_0_LLC_writeback_hit 47734
Core_0_LLC_writeback_miss 3500
Core_0_LLC_writeback_MPKI 0.07
Core_0_LLC_writeback_miss_rate 0.068314
Core_0_LLC_prefetch_requested 0
Core_0_LLC_prefetch_issued 0
Core_0_LLC_prefetch_useful 0
Core_0_LLC_prefetch_useless 0
Core_0_LLC_prefetch_late 0
Core_0_LLC_prefetch_accuracy 0
Core_0_LLC_prefetch_coverage 0

[DRAM Statistics]
Channel_0_RQ_row_buffer_hit 883
Channel_0_RQ_row_buffer_miss 24584
Channel_0_WQ_row_buffer_hit 902
Channel_0_WQ_row_buffer_miss 5829
Channel_0_WQ_full 0
Channel_0_dbus_congested 62513
DRAM_total_RQ_row_buffer_hit 883
DRAM_total_RQ_row_buffer_miss 24584
DRAM_total_WQ_row_buffer_hit 902
DRAM_total_WQ_row_buffer_miss 5829
DRAM_total_WQ_full 0
DRAM_total_dbus_congested 62513
DRAM_avg_congested_cycle 11.8102

======STLB miss causes ========
Core_0_STLB_miss_cause_breakdown
Core_0_STLB_cause_Demand_Data_miss 0
Core_0_STLB_cause_Demand_Data_miss_rate 0
Core_0_STLB_cause_Demand_Instruction_miss 0
Core_0_STLB_cause_Demand_Instruction_miss_rate 0
Core_0_STLB_cause_L1D_Prefetch_miss 0
Core_0_STLB_cause_L1D_Prefetch_miss_rate 0
Core_0_STLB_cause_L1I_Prefetch_miss 0
Core_0_STLB_cause_L1I_Prefetch_miss_rate 0
Core_0_STLB_cause_Other_miss 0
Core_0_STLB_cause_Other_miss_rate 0
Core_0_STLB_Demand_miss 0
Core_0_STLB_Demand_miss_rate 0
Core_0_STLB_L1D_Prefetch_miss 0
Core_0_STLB_L1D_Prefetch_miss_rate 0
Core_0_STLB_Other_miss 0
Core_0_STLB_Other_miss_rate 0
