[VMEM] WARNING: physical memory size is smaller than virtual memory size.

*** ChampSim Multicore Out-of-Order Simulator ***
Warmup Instructions: 20000000
Simulation Instructions: 50000000
Number of CPUs: 1
Page size: 4096
STLB ideal mode: all
Core 0: /data0/tzh/champsim_traces/SPEC06/450.soplex-247B.champsimtrace.xz
 L1D Berti prefetcher
Off-chip DRAM Size: 4 GiB Channels: 1 Width: 64-bit Data Rate: 3205 MT/s
Warmup halting CPU 0 at instruction 20000003 cycle 4840181 for remainder of phase
Warmup finished CPU 0 instructions: 20000003 cycles: 4840181 cumulative IPC: 4.132 (Simulation time: 00 hr 01 min 13 sec)
Warmup complete CPU 0 instructions: 20000003 cycles: 4840181 cumulative IPC: 4.132 (Simulation time: 00 hr 01 min 13 sec)
Simulation finished CPU 0 instructions: 50000000 cycles: 70601084 cumulative IPC: 0.7082 (Simulation time: 00 hr 09 min 22 sec)
Simulation complete CPU 0 instructions: 50000000 cycles: 70601084 cumulative IPC: 0.7082 (Simulation time: 00 hr 09 min 22 sec)

ChampSim completed all CPUs

=== Simulation ===
CPU 0 runs /data0/tzh/champsim_traces/SPEC06/450.soplex-247B.champsimtrace.xz

Region of Interest Statistics

CPU 0 cumulative IPC: 0.7082 instructions: 50000000 cycles: 70601084
CPU 0 Branch Prediction Accuracy: 95.3% MPKI: 8.782 Average ROB Occupancy at Mispredict: 64.46
Branch type MPKI
BRANCH_DIRECT_JUMP: 0.00052
BRANCH_INDIRECT: 0.0002
BRANCH_CONDITIONAL: 8.779
BRANCH_DIRECT_CALL: 0.00018
BRANCH_INDIRECT_CALL: 0.00062
BRANCH_RETURN: 0.0009

cpu0->cpu0_STLB TOTAL        ACCESS:     267946 HIT:     267946 MISS:          0 MSHR_MERGE:          0
cpu0->cpu0_STLB LOAD         ACCESS:     267946 HIT:     267946 MISS:          0 MSHR_MERGE:          0
cpu0->cpu0_STLB RFO          ACCESS:          0 HIT:          0 MISS:          0 MSHR_MERGE:          0
cpu0->cpu0_STLB PREFETCH     ACCESS:          0 HIT:          0 MISS:          0 MSHR_MERGE:          0
cpu0->cpu0_STLB WRITE        ACCESS:          0 HIT:          0 MISS:          0 MSHR_MERGE:          0
cpu0->cpu0_STLB TRANSLATION  ACCESS:          0 HIT:          0 MISS:          0 MSHR_MERGE:          0
cpu0->cpu0_STLB PREFETCH REQUESTED:          0 ISSUED:          0 USEFUL:          0 USELESS:          0 LATE:          0
cpu0->cpu0_STLB AVERAGE MISS LATENCY: - cycles
cpu0->cpu0_L2C TOTAL        ACCESS:   11978688 HIT:    6965712 MISS:    5012976 MSHR_MERGE:    2014743
cpu0->cpu0_L2C LOAD         ACCESS:    1287629 HIT:     727246 MISS:     560383 MSHR_MERGE:      92222
cpu0->cpu0_L2C RFO          ACCESS:     275300 HIT:      23820 MISS:     251480 MSHR_MERGE:          1
cpu0->cpu0_L2C PREFETCH     ACCESS:    9343074 HIT:    5142009 MISS:    4201065 MSHR_MERGE:    1922520
cpu0->cpu0_L2C WRITE        ACCESS:    1072685 HIT:    1072637 MISS:         48 MSHR_MERGE:          0
cpu0->cpu0_L2C TRANSLATION  ACCESS:          0 HIT:          0 MISS:          0 MSHR_MERGE:          0
cpu0->cpu0_L2C PREFETCH REQUESTED:   10655099 ISSUED:    7831173 USEFUL:    1107547 USELESS:     702505 LATE:      92223
cpu0->cpu0_L2C AVERAGE MISS LATENCY: 249.3 cycles
cpu0->cpu0_L1I TOTAL        ACCESS:    2811401 HIT:    2811305 MISS:         96 MSHR_MERGE:         22
cpu0->cpu0_L1I LOAD         ACCESS:    2811401 HIT:    2811305 MISS:         96 MSHR_MERGE:         22
cpu0->cpu0_L1I RFO          ACCESS:          0 HIT:          0 MISS:          0 MSHR_MERGE:          0
cpu0->cpu0_L1I PREFETCH     ACCESS:          0 HIT:          0 MISS:          0 MSHR_MERGE:          0
cpu0->cpu0_L1I WRITE        ACCESS:          0 HIT:          0 MISS:          0 MSHR_MERGE:          0
cpu0->cpu0_L1I TRANSLATION  ACCESS:          0 HIT:          0 MISS:          0 MSHR_MERGE:          0
cpu0->cpu0_L1I PREFETCH REQUESTED:          0 ISSUED:          0 USEFUL:          0 USELESS:          0 LATE:          0
cpu0->cpu0_L1I AVERAGE MISS LATENCY: 236 cycles
cpu0->cpu0_L1D TOTAL        ACCESS:   14620792 HIT:    9955763 MISS:    4665029 MSHR_MERGE:    1590238
cpu0->cpu0_L1D LOAD         ACCESS:    9931432 HIT:    7902136 MISS:    2029296 MSHR_MERGE:     741726
cpu0->cpu0_L1D RFO          ACCESS:          0 HIT:          0 MISS:          0 MSHR_MERGE:          0
cpu0->cpu0_L1D PREFETCH     ACCESS:    1803750 HIT:     233879 MISS:    1569871 MSHR_MERGE:      57962
cpu0->cpu0_L1D WRITE        ACCESS:    2885610 HIT:    1819748 MISS:    1065862 MSHR_MERGE:     790550
cpu0->cpu0_L1D TRANSLATION  ACCESS:          0 HIT:          0 MISS:          0 MSHR_MERGE:          0
cpu0->cpu0_L1D PREFETCH REQUESTED:    1832809 ISSUED:    1803742 USEFUL:     968920 USELESS:     542862 LATE:     136788
cpu0->cpu0_L1D AVERAGE MISS LATENCY: 141.8 cycles
cpu0->cpu0_ITLB TOTAL        ACCESS:    2338176 HIT:    2338176 MISS:          0 MSHR_MERGE:          0
cpu0->cpu0_ITLB LOAD         ACCESS:    2338176 HIT:    2338176 MISS:          0 MSHR_MERGE:          0
cpu0->cpu0_ITLB RFO          ACCESS:          0 HIT:          0 MISS:          0 MSHR_MERGE:          0
cpu0->cpu0_ITLB PREFETCH     ACCESS:          0 HIT:          0 MISS:          0 MSHR_MERGE:          0
cpu0->cpu0_ITLB WRITE        ACCESS:          0 HIT:          0 MISS:          0 MSHR_MERGE:          0
cpu0->cpu0_ITLB TRANSLATION  ACCESS:          0 HIT:          0 MISS:          0 MSHR_MERGE:          0
cpu0->cpu0_ITLB PREFETCH REQUESTED:          0 ISSUED:          0 USEFUL:          0 USELESS:          0 LATE:          0
cpu0->cpu0_ITLB AVERAGE MISS LATENCY: - cycles
cpu0->cpu0_DTLB TOTAL        ACCESS:   13895821 HIT:   13505137 MISS:     390684 MSHR_MERGE:     122738
cpu0->cpu0_DTLB LOAD         ACCESS:   13895821 HIT:   13505137 MISS:     390684 MSHR_MERGE:     122738
cpu0->cpu0_DTLB RFO          ACCESS:          0 HIT:          0 MISS:          0 MSHR_MERGE:          0
cpu0->cpu0_DTLB PREFETCH     ACCESS:          0 HIT:          0 MISS:          0 MSHR_MERGE:          0
cpu0->cpu0_DTLB WRITE        ACCESS:          0 HIT:          0 MISS:          0 MSHR_MERGE:          0
cpu0->cpu0_DTLB TRANSLATION  ACCESS:          0 HIT:          0 MISS:          0 MSHR_MERGE:          0
cpu0->cpu0_DTLB PREFETCH REQUESTED:          0 ISSUED:          0 USEFUL:          0 USELESS:          0 LATE:          0
cpu0->cpu0_DTLB AVERAGE MISS LATENCY: 5.009 cycles
cpu0->LLC TOTAL        ACCESS:    3825201 HIT:    1424697 MISS:    2400504 MSHR_MERGE:          0
cpu0->LLC LOAD         ACCESS:     468162 HIT:     165394 MISS:     302768 MSHR_MERGE:          0
cpu0->LLC RFO          ACCESS:     251479 HIT:      42764 MISS:     208715 MSHR_MERGE:          0
cpu0->LLC PREFETCH     ACCESS:    2278541 HIT:     735190 MISS:    1543351 MSHR_MERGE:          0
cpu0->LLC WRITE        ACCESS:     827019 HIT:     481349 MISS:     345670 MSHR_MERGE:          0
cpu0->LLC TRANSLATION  ACCESS:          0 HIT:          0 MISS:          0 MSHR_MERGE:          0
cpu0->LLC PREFETCH REQUESTED:          0 ISSUED:          0 USEFUL:          0 USELESS:          0 LATE:          0
cpu0->LLC AVERAGE MISS LATENCY: 199.5 cycles

DRAM Statistics

Channel 0 RQ ROW_BUFFER_HIT:     114861
  ROW_BUFFER_MISS:    1937641
  AVG DBUS CONGESTED CYCLE: 5.566
Channel 0 WQ ROW_BUFFER_HIT:      59305
  ROW_BUFFER_MISS:     442900
  FULL:       1110
Channel 0 REFRESHES ISSUED:       5883

[ROI Statistics]
[System Configuration]
num_cpus 1
cpu_freq 4000
fetch_width 6
decode_width 6
dispatch_width 6
execute_width 6
lq_width 2
sq_width 2
retire_width 6
scheduler_size 160
branch_mispredict_penalty 1
rob_size 352
lq_size 240
sq_size 112
ifetch_buffer_size 64
decode_buffer_size 32
dispatch_buffer_size 32
register_file_size 288
decode_latency 1
dispatch_latency 1
schedule_latency 0
execute_latency 0
page_size 4096
block_size 64
core_0_itlb_set 16
core_0_itlb_way 4
core_0_itlb_rq_size 16
core_0_itlb_wq_size 16
core_0_itlb_pq_size 0
core_0_itlb_mshr_size 8
core_0_itlb_hit_latency 1
core_0_itlb_fill_latency 1
core_0_itlb_max_tag_check 2
core_0_itlb_max_fill 2
core_0_dtlb_set 16
core_0_dtlb_way 4
core_0_dtlb_rq_size 16
core_0_dtlb_wq_size 16
core_0_dtlb_pq_size 0
core_0_dtlb_mshr_size 8
core_0_dtlb_hit_latency 1
core_0_dtlb_fill_latency 1
core_0_dtlb_max_tag_check 2
core_0_dtlb_max_fill 2
core_0_stlb_set 128
core_0_stlb_way 12
core_0_stlb_rq_size 32
core_0_stlb_wq_size 32
core_0_stlb_pq_size 0
core_0_stlb_mshr_size 16
core_0_stlb_hit_latency 4
core_0_stlb_fill_latency 4
core_0_stlb_max_tag_check 1
core_0_stlb_max_fill 1
core_0_l1i_set 64
core_0_l1i_way 8
core_0_l1i_rq_size 64
core_0_l1i_wq_size 64
core_0_l1i_pq_size 32
core_0_l1i_mshr_size 8
core_0_l1i_hit_latency 2
core_0_l1i_fill_latency 2
core_0_l1i_max_tag_check 2
core_0_l1i_max_fill 2
core_0_l1d_set 64
core_0_l1d_way 12
core_0_l1d_rq_size 64
core_0_l1d_wq_size 64
core_0_l1d_pq_size 8
core_0_l1d_mshr_size 16
core_0_l1d_hit_latency 2
core_0_l1d_fill_latency 3
core_0_l1d_max_tag_check 2
core_0_l1d_max_fill 2
core_0_l2c_set 1024
core_0_l2c_way 8
core_0_l2c_rq_size 32
core_0_l2c_wq_size 32
core_0_l2c_pq_size 16
core_0_l2c_mshr_size 32
core_0_l2c_hit_latency 5
core_0_l2c_fill_latency 5
core_0_l2c_max_tag_check 1
core_0_l2c_max_fill 1
llc_set 2048
llc_way 16
llc_rq_size 32
llc_wq_size 32
llc_pq_size 32
llc_mshr_size 64
llc_hit_latency 10
llc_fill_latency 10
llc_max_tag_check 1
llc_max_fill 1
dram_channels 1
dram_ranks 1
dram_bankgroups 8
dram_banks 4
dram_rows 16384
dram_columns 1024
dram_channel_width 8
dram_rq_size 64
dram_wq_size 64
dram_size 4294967296
core_0_itlb_prefetcher no
core_0_dtlb_prefetcher no
core_0_stlb_prefetcher no
core_0_l1i_prefetcher next_line
core_0_l1d_prefetcher berti
core_0_l2c_prefetcher pythia
llc_prefetcher no
llc_replacement drrip

Core_0_instructions 50000000
Core_0_cycles 70601084
Core_0_IPC 0.708204
Core_0_branch_prediction_accuracy 95.2961
Core_0_branch_MPKI 8.78186
Core_0_average_ROB_occupancy_at_mispredict 64.4563

Core_0_ITLB_total_access 2338176
Core_0_ITLB_total_hit 2338176
Core_0_ITLB_total_miss 0
Core_0_ITLB_total_MPKI 0
Core_0_ITLB_total_miss_rate 0
Core_0_ITLB_demand_access 2338176
Core_0_ITLB_demand_hit 2338176
Core_0_ITLB_demand_miss 0
Core_0_ITLB_demand_MPKI 0
Core_0_ITLB_demand_miss_rate 0
Core_0_ITLB_load_access 2338176
Core_0_ITLB_load_hit 2338176
Core_0_ITLB_load_miss 0
Core_0_ITLB_load_MPKI 0
Core_0_ITLB_load_miss_rate 0
Core_0_ITLB_rfo_access 0
Core_0_ITLB_rfo_hit 0
Core_0_ITLB_rfo_miss 0
Core_0_ITLB_rfo_MPKI 0
Core_0_ITLB_rfo_miss_rate 0
Core_0_ITLB_prefetch_access 0
Core_0_ITLB_prefetch_hit 0
Core_0_ITLB_prefetch_miss 0
Core_0_ITLB_prefetch_MPKI 0
Core_0_ITLB_prefetch_miss_rate 0
Core_0_ITLB_writeback_access 0
Core_0_ITLB_writeback_hit 0
Core_0_ITLB_writeback_miss 0
Core_0_ITLB_writeback_MPKI 0
Core_0_ITLB_writeback_miss_rate 0
Core_0_ITLB_prefetch_requested 0
Core_0_ITLB_prefetch_issued 0
Core_0_ITLB_prefetch_useful 0
Core_0_ITLB_prefetch_useless 0
Core_0_ITLB_prefetch_late 0
Core_0_ITLB_prefetch_accuracy 0
Core_0_ITLB_prefetch_coverage 0

Core_0_DTLB_total_access 13895821
Core_0_DTLB_total_hit 13505137
Core_0_DTLB_total_miss 390684
Core_0_DTLB_total_MPKI 7.81368
Core_0_DTLB_total_miss_rate 0.0281152
Core_0_DTLB_demand_access 13895821
Core_0_DTLB_demand_hit 13505137
Core_0_DTLB_demand_miss 390684
Core_0_DTLB_demand_MPKI 7.81368
Core_0_DTLB_demand_miss_rate 0.0281152
Core_0_DTLB_load_access 13895821
Core_0_DTLB_load_hit 13505137
Core_0_DTLB_load_miss 390684
Core_0_DTLB_load_MPKI 7.81368
Core_0_DTLB_load_miss_rate 0.0281152
Core_0_DTLB_rfo_access 0
Core_0_DTLB_rfo_hit 0
Core_0_DTLB_rfo_miss 0
Core_0_DTLB_rfo_MPKI 0
Core_0_DTLB_rfo_miss_rate 0
Core_0_DTLB_prefetch_access 0
Core_0_DTLB_prefetch_hit 0
Core_0_DTLB_prefetch_miss 0
Core_0_DTLB_prefetch_MPKI 0
Core_0_DTLB_prefetch_miss_rate 0
Core_0_DTLB_writeback_access 0
Core_0_DTLB_writeback_hit 0
Core_0_DTLB_writeback_miss 0
Core_0_DTLB_writeback_MPKI 0
Core_0_DTLB_writeback_miss_rate 0
Core_0_DTLB_prefetch_requested 0
Core_0_DTLB_prefetch_issued 0
Core_0_DTLB_prefetch_useful 0
Core_0_DTLB_prefetch_useless 0
Core_0_DTLB_prefetch_late 0
Core_0_DTLB_prefetch_accuracy 0
Core_0_DTLB_prefetch_coverage 0

Core_0_STLB_total_access 267946
Core_0_STLB_total_hit 267946
Core_0_STLB_total_miss 0
Core_0_STLB_total_MPKI 0
Core_0_STLB_total_miss_rate 0
Core_0_STLB_demand_access 267946
Core_0_STLB_demand_hit 267946
Core_0_STLB_demand_miss 0
Core_0_STLB_demand_MPKI 0
Core_0_STLB_demand_miss_rate 0
Core_0_STLB_load_access 267946
Core_0_STLB_load_hit 267946
Core_0_STLB_load_miss 0
Core_0_STLB_load_MPKI 0
Core_0_STLB_load_miss_rate 0
Core_0_STLB_rfo_access 0
Core_0_STLB_rfo_hit 0
Core_0_STLB_rfo_miss 0
Core_0_STLB_rfo_MPKI 0
Core_0_STLB_rfo_miss_rate 0
Core_0_STLB_prefetch_access 0
Core_0_STLB_prefetch_hit 0
Core_0_STLB_prefetch_miss 0
Core_0_STLB_prefetch_MPKI 0
Core_0_STLB_prefetch_miss_rate 0
Core_0_STLB_writeback_access 0
Core_0_STLB_writeback_hit 0
Core_0_STLB_writeback_miss 0
Core_0_STLB_writeback_MPKI 0
Core_0_STLB_writeback_miss_rate 0
Core_0_STLB_prefetch_requested 0
Core_0_STLB_prefetch_issued 0
Core_0_STLB_prefetch_useful 0
Core_0_STLB_prefetch_useless 0
Core_0_STLB_prefetch_late 0
Core_0_STLB_prefetch_accuracy 0
Core_0_STLB_prefetch_coverage 0

Core_0_L1I_total_access 2811401
Core_0_L1I_total_hit 2811305
Core_0_L1I_total_miss 96
Core_0_L1I_total_MPKI 0.00192
Core_0_L1I_total_miss_rate 3.41467e-05
Core_0_L1I_demand_access 2811401
Core_0_L1I_demand_hit 2811305
Core_0_L1I_demand_miss 96
Core_0_L1I_demand_MPKI 0.00192
Core_0_L1I_demand_miss_rate 3.41467e-05
Core_0_L1I_load_access 2811401
Core_0_L1I_load_hit 2811305
Core_0_L1I_load_miss 96
Core_0_L1I_load_MPKI 0.00192
Core_0_L1I_load_miss_rate 3.41467e-05
Core_0_L1I_rfo_access 0
Core_0_L1I_rfo_hit 0
Core_0_L1I_rfo_miss 0
Core_0_L1I_rfo_MPKI 0
Core_0_L1I_rfo_miss_rate 0
Core_0_L1I_prefetch_access 0
Core_0_L1I_prefetch_hit 0
Core_0_L1I_prefetch_miss 0
Core_0_L1I_prefetch_MPKI 0
Core_0_L1I_prefetch_miss_rate 0
Core_0_L1I_writeback_access 0
Core_0_L1I_writeback_hit 0
Core_0_L1I_writeback_miss 0
Core_0_L1I_writeback_MPKI 0
Core_0_L1I_writeback_miss_rate 0
Core_0_L1I_prefetch_requested 0
Core_0_L1I_prefetch_issued 0
Core_0_L1I_prefetch_useful 0
Core_0_L1I_prefetch_useless 0
Core_0_L1I_prefetch_late 0
Core_0_L1I_prefetch_accuracy 0
Core_0_L1I_prefetch_coverage 0

Core_0_L1D_total_access 14620792
Core_0_L1D_total_hit 9955763
Core_0_L1D_total_miss 4665029
Core_0_L1D_total_MPKI 93.3006
Core_0_L1D_total_miss_rate 0.319068
Core_0_L1D_demand_access 9931432
Core_0_L1D_demand_hit 7902136
Core_0_L1D_demand_miss 2029296
Core_0_L1D_demand_MPKI 40.5859
Core_0_L1D_demand_miss_rate 0.204331
Core_0_L1D_load_access 9931432
Core_0_L1D_load_hit 7902136
Core_0_L1D_load_miss 2029296
Core_0_L1D_load_MPKI 40.5859
Core_0_L1D_load_miss_rate 0.204331
Core_0_L1D_rfo_access 0
Core_0_L1D_rfo_hit 0
Core_0_L1D_rfo_miss 0
Core_0_L1D_rfo_MPKI 0
Core_0_L1D_rfo_miss_rate 0
Core_0_L1D_prefetch_access 1803750
Core_0_L1D_prefetch_hit 233879
Core_0_L1D_prefetch_miss 1569871
Core_0_L1D_prefetch_MPKI 31.3974
Core_0_L1D_prefetch_miss_rate 0.870337
Core_0_L1D_writeback_access 2885610
Core_0_L1D_writeback_hit 1819748
Core_0_L1D_writeback_miss 1065862
Core_0_L1D_writeback_MPKI 21.3172
Core_0_L1D_writeback_miss_rate 0.369371
Core_0_L1D_prefetch_requested 1832809
Core_0_L1D_prefetch_issued 1803742
Core_0_L1D_prefetch_useful 968920
Core_0_L1D_prefetch_useless 542862
Core_0_L1D_prefetch_late 136788
Core_0_L1D_prefetch_accuracy 0.537172
Core_0_L1D_prefetch_coverage 0.323166

Core_0_L2C_total_access 11978688
Core_0_L2C_total_hit 6965712
Core_0_L2C_total_miss 5012976
Core_0_L2C_total_MPKI 100.26
Core_0_L2C_total_miss_rate 0.418491
Core_0_L2C_demand_access 1562929
Core_0_L2C_demand_hit 751066
Core_0_L2C_demand_miss 811863
Core_0_L2C_demand_MPKI 16.2373
Core_0_L2C_demand_miss_rate 0.51945
Core_0_L2C_load_access 1287629
Core_0_L2C_load_hit 727246
Core_0_L2C_load_miss 560383
Core_0_L2C_load_MPKI 11.2077
Core_0_L2C_load_miss_rate 0.435205
Core_0_L2C_rfo_access 275300
Core_0_L2C_rfo_hit 23820
Core_0_L2C_rfo_miss 251480
Core_0_L2C_rfo_MPKI 5.0296
Core_0_L2C_rfo_miss_rate 0.913476
Core_0_L2C_prefetch_access 9343074
Core_0_L2C_prefetch_hit 5142009
Core_0_L2C_prefetch_miss 4201065
Core_0_L2C_prefetch_MPKI 84.0213
Core_0_L2C_prefetch_miss_rate 0.449645
Core_0_L2C_writeback_access 1072685
Core_0_L2C_writeback_hit 1072637
Core_0_L2C_writeback_miss 48
Core_0_L2C_writeback_MPKI 0.00096
Core_0_L2C_writeback_miss_rate 4.47475e-05
Core_0_L2C_prefetch_requested 10655099
Core_0_L2C_prefetch_issued 7831173
Core_0_L2C_prefetch_useful 1107547
Core_0_L2C_prefetch_useless 702505
Core_0_L2C_prefetch_late 92223
Core_0_L2C_prefetch_accuracy 0.141428
Core_0_L2C_prefetch_coverage 0.577025

Core_0_LLC_total_access 3825201
Core_0_LLC_total_hit 1424697
Core_0_LLC_total_miss 2400504
Core_0_LLC_total_MPKI 48.0101
Core_0_LLC_total_miss_rate 0.62755
Core_0_LLC_demand_access 719641
Core_0_LLC_demand_hit 208158
Core_0_LLC_demand_miss 511483
Core_0_LLC_demand_MPKI 10.2297
Core_0_LLC_demand_miss_rate 0.710747
Core_0_LLC_load_access 468162
Core_0_LLC_load_hit 165394
Core_0_LLC_load_miss 302768
Core_0_LLC_load_MPKI 6.05536
Core_0_LLC_load_miss_rate 0.646716
Core_0_LLC_rfo_access 251479
Core_0_LLC_rfo_hit 42764
Core_0_LLC_rfo_miss 208715
Core_0_LLC_rfo_MPKI 4.1743
Core_0_LLC_rfo_miss_rate 0.82995
Core_0_LLC_prefetch_access 2278541
Core_0_LLC_prefetch_hit 735190
Core_0_LLC_prefetch_miss 1543351
Core_0_LLC_prefetch_MPKI 30.867
Core_0_LLC_prefetch_miss_rate 0.677342
Core_0_LLC_writeback_access 827019
Core_0_LLC_writeback_hit 481349
Core_0_LLC_writeback_miss 345670
Core_0_LLC_writeback_MPKI 6.9134
Core_0_LLC_writeback_miss_rate 0.417971
Core_0_LLC_prefetch_requested 0
Core_0_LLC_prefetch_issued 0
Core_0_LLC_prefetch_useful 0
Core_0_LLC_prefetch_useless 0
Core_0_LLC_prefetch_late 0
Core_0_LLC_prefetch_accuracy 0
Core_0_LLC_prefetch_coverage 0

[DRAM Statistics]
Channel_0_RQ_row_buffer_hit 114861
Channel_0_RQ_row_buffer_miss 1937641
Channel_0_WQ_row_buffer_hit 59305
Channel_0_WQ_row_buffer_miss 442900
Channel_0_WQ_full 1110
Channel_0_dbus_congested 7067514
DRAM_total_RQ_row_buffer_hit 114861
DRAM_total_RQ_row_buffer_miss 1937641
DRAM_total_WQ_row_buffer_hit 59305
DRAM_total_WQ_row_buffer_miss 442900
DRAM_total_WQ_full 1110
DRAM_total_dbus_congested 7067514
DRAM_avg_congested_cycle 5.56636

======STLB miss causes ========
Core_0_STLB_miss_cause_breakdown
Core_0_STLB_cause_Demand_Data_miss 0
Core_0_STLB_cause_Demand_Data_miss_rate 0
Core_0_STLB_cause_Demand_Instruction_miss 0
Core_0_STLB_cause_Demand_Instruction_miss_rate 0
Core_0_STLB_cause_L1D_Prefetch_miss 0
Core_0_STLB_cause_L1D_Prefetch_miss_rate 0
Core_0_STLB_cause_L1I_Prefetch_miss 0
Core_0_STLB_cause_L1I_Prefetch_miss_rate 0
Core_0_STLB_cause_Other_miss 0
Core_0_STLB_cause_Other_miss_rate 0
Core_0_STLB_Demand_miss 0
Core_0_STLB_Demand_miss_rate 0
Core_0_STLB_L1D_Prefetch_miss 0
Core_0_STLB_L1D_Prefetch_miss_rate 0
Core_0_STLB_Other_miss 0
Core_0_STLB_Other_miss_rate 0
