[VMEM] WARNING: physical memory size is smaller than virtual memory size.

*** ChampSim Multicore Out-of-Order Simulator ***
Warmup Instructions: 20000000
Simulation Instructions: 50000000
Number of CPUs: 1
Page size: 4096
STLB ideal mode: all
Core 0: /data0/tzh/champsim_traces/SPEC06/465.tonto-44B.champsimtrace.xz
 L1D Berti prefetcher
Off-chip DRAM Size: 4 GiB Channels: 1 Width: 64-bit Data Rate: 3205 MT/s
Warmup halting CPU 0 at instruction 20000005 cycle 4072012 for remainder of phase
Warmup finished CPU 0 instructions: 20000005 cycles: 4072012 cumulative IPC: 4.912 (Simulation time: 00 hr 00 min 58 sec)
Warmup complete CPU 0 instructions: 20000005 cycles: 4072012 cumulative IPC: 4.912 (Simulation time: 00 hr 00 min 58 sec)
Simulation finished CPU 0 instructions: 50000003 cycles: 17662782 cumulative IPC: 2.831 (Simulation time: 00 hr 04 min 18 sec)
Simulation complete CPU 0 instructions: 50000003 cycles: 17662782 cumulative IPC: 2.831 (Simulation time: 00 hr 04 min 18 sec)

ChampSim completed all CPUs

=== Simulation ===
CPU 0 runs /data0/tzh/champsim_traces/SPEC06/465.tonto-44B.champsimtrace.xz

Region of Interest Statistics

CPU 0 cumulative IPC: 2.831 instructions: 50000003 cycles: 17662782
CPU 0 Branch Prediction Accuracy: 97.73% MPKI: 2.907 Average ROB Occupancy at Mispredict: 167.2
Branch type MPKI
BRANCH_DIRECT_JUMP: 0.00052
BRANCH_INDIRECT: 0.00122
BRANCH_CONDITIONAL: 2.815
BRANCH_DIRECT_CALL: 0.08916
BRANCH_INDIRECT_CALL: 0
BRANCH_RETURN: 0.00172

cpu0->cpu0_STLB TOTAL        ACCESS:      14162 HIT:      14162 MISS:          0 MSHR_MERGE:          0
cpu0->cpu0_STLB LOAD         ACCESS:      14162 HIT:      14162 MISS:          0 MSHR_MERGE:          0
cpu0->cpu0_STLB RFO          ACCESS:          0 HIT:          0 MISS:          0 MSHR_MERGE:          0
cpu0->cpu0_STLB PREFETCH     ACCESS:          0 HIT:          0 MISS:          0 MSHR_MERGE:          0
cpu0->cpu0_STLB WRITE        ACCESS:          0 HIT:          0 MISS:          0 MSHR_MERGE:          0
cpu0->cpu0_STLB TRANSLATION  ACCESS:          0 HIT:          0 MISS:          0 MSHR_MERGE:          0
cpu0->cpu0_STLB PREFETCH REQUESTED:          0 ISSUED:          0 USEFUL:          0 USELESS:          0 LATE:          0
cpu0->cpu0_STLB AVERAGE MISS LATENCY: - cycles
cpu0->cpu0_L2C TOTAL        ACCESS:    1451561 HIT:    1432856 MISS:      18705 MSHR_MERGE:       3803
cpu0->cpu0_L2C LOAD         ACCESS:      48314 HIT:      45586 MISS:       2728 MSHR_MERGE:        198
cpu0->cpu0_L2C RFO          ACCESS:     152236 HIT:     147636 MISS:       4600 MSHR_MERGE:          0
cpu0->cpu0_L2C PREFETCH     ACCESS:    1082607 HIT:    1071245 MISS:      11362 MSHR_MERGE:       3605
cpu0->cpu0_L2C WRITE        ACCESS:     168404 HIT:     168389 MISS:         15 MSHR_MERGE:          0
cpu0->cpu0_L2C TRANSLATION  ACCESS:          0 HIT:          0 MISS:          0 MSHR_MERGE:          0
cpu0->cpu0_L2C PREFETCH REQUESTED:     976875 ISSUED:     928642 USEFUL:       3550 USELESS:       2415 LATE:        198
cpu0->cpu0_L2C AVERAGE MISS LATENCY: 37.92 cycles
cpu0->cpu0_L1I TOTAL        ACCESS:    3395169 HIT:    3391313 MISS:       3856 MSHR_MERGE:       1409
cpu0->cpu0_L1I LOAD         ACCESS:    3395169 HIT:    3391313 MISS:       3856 MSHR_MERGE:       1409
cpu0->cpu0_L1I RFO          ACCESS:          0 HIT:          0 MISS:          0 MSHR_MERGE:          0
cpu0->cpu0_L1I PREFETCH     ACCESS:          0 HIT:          0 MISS:          0 MSHR_MERGE:          0
cpu0->cpu0_L1I WRITE        ACCESS:          0 HIT:          0 MISS:          0 MSHR_MERGE:          0
cpu0->cpu0_L1I TRANSLATION  ACCESS:          0 HIT:          0 MISS:          0 MSHR_MERGE:          0
cpu0->cpu0_L1I PREFETCH REQUESTED:          0 ISSUED:          0 USEFUL:          0 USELESS:          0 LATE:          0
cpu0->cpu0_L1I AVERAGE MISS LATENCY: 31.74 cycles
cpu0->cpu0_L1D TOTAL        ACCESS:   13320340 HIT:   12601035 MISS:     719305 MSHR_MERGE:     367211
cpu0->cpu0_L1D LOAD         ACCESS:    7508286 HIT:    7437574 MISS:      70712 MSHR_MERGE:      24842
cpu0->cpu0_L1D RFO          ACCESS:          0 HIT:          0 MISS:          0 MSHR_MERGE:          0
cpu0->cpu0_L1D PREFETCH     ACCESS:     259371 HIT:     101982 MISS:     157389 MSHR_MERGE:       3417
cpu0->cpu0_L1D WRITE        ACCESS:    5552683 HIT:    5061479 MISS:     491204 MSHR_MERGE:     338952
cpu0->cpu0_L1D TRANSLATION  ACCESS:          0 HIT:          0 MISS:          0 MSHR_MERGE:          0
cpu0->cpu0_L1D PREFETCH REQUESTED:     275353 ISSUED:     259374 USEFUL:     141127 USELESS:      12872 LATE:       3733
cpu0->cpu0_L1D AVERAGE MISS LATENCY: 9.154 cycles
cpu0->cpu0_ITLB TOTAL        ACCESS:    2859986 HIT:    2859612 MISS:        374 MSHR_MERGE:        240
cpu0->cpu0_ITLB LOAD         ACCESS:    2859986 HIT:    2859612 MISS:        374 MSHR_MERGE:        240
cpu0->cpu0_ITLB RFO          ACCESS:          0 HIT:          0 MISS:          0 MSHR_MERGE:          0
cpu0->cpu0_ITLB PREFETCH     ACCESS:          0 HIT:          0 MISS:          0 MSHR_MERGE:          0
cpu0->cpu0_ITLB WRITE        ACCESS:          0 HIT:          0 MISS:          0 MSHR_MERGE:          0
cpu0->cpu0_ITLB TRANSLATION  ACCESS:          0 HIT:          0 MISS:          0 MSHR_MERGE:          0
cpu0->cpu0_ITLB PREFETCH REQUESTED:          0 ISSUED:          0 USEFUL:          0 USELESS:          0 LATE:          0
cpu0->cpu0_ITLB AVERAGE MISS LATENCY: 5 cycles
cpu0->cpu0_DTLB TOTAL        ACCESS:   12272647 HIT:   12253773 MISS:      18874 MSHR_MERGE:       4846
cpu0->cpu0_DTLB LOAD         ACCESS:   12272647 HIT:   12253773 MISS:      18874 MSHR_MERGE:       4846
cpu0->cpu0_DTLB RFO          ACCESS:          0 HIT:          0 MISS:          0 MSHR_MERGE:          0
cpu0->cpu0_DTLB PREFETCH     ACCESS:          0 HIT:          0 MISS:          0 MSHR_MERGE:          0
cpu0->cpu0_DTLB WRITE        ACCESS:          0 HIT:          0 MISS:          0 MSHR_MERGE:          0
cpu0->cpu0_DTLB TRANSLATION  ACCESS:          0 HIT:          0 MISS:          0 MSHR_MERGE:          0
cpu0->cpu0_DTLB PREFETCH REQUESTED:          0 ISSUED:          0 USEFUL:          0 USELESS:          0 LATE:          0
cpu0->cpu0_DTLB AVERAGE MISS LATENCY: 5 cycles
cpu0->LLC TOTAL        ACCESS:      21750 HIT:      16322 MISS:       5428 MSHR_MERGE:          0
cpu0->LLC LOAD         ACCESS:       2530 HIT:       1665 MISS:        865 MSHR_MERGE:          0
cpu0->LLC RFO          ACCESS:       4600 HIT:       4596 MISS:          4 MSHR_MERGE:          0
cpu0->LLC PREFETCH     ACCESS:       7757 HIT:       3198 MISS:       4559 MSHR_MERGE:          0
cpu0->LLC WRITE        ACCESS:       6863 HIT:       6863 MISS:          0 MSHR_MERGE:          0
cpu0->LLC TRANSLATION  ACCESS:          0 HIT:          0 MISS:          0 MSHR_MERGE:          0
cpu0->LLC PREFETCH REQUESTED:          0 ISSUED:          0 USEFUL:          0 USELESS:          0 LATE:          0
cpu0->LLC AVERAGE MISS LATENCY: 170.1 cycles

DRAM Statistics

Channel 0 RQ ROW_BUFFER_HIT:        122
  ROW_BUFFER_MISS:       5306
  AVG DBUS CONGESTED CYCLE: 2.917
Channel 0 WQ ROW_BUFFER_HIT:          0
  ROW_BUFFER_MISS:          0
  FULL:          0
Channel 0 REFRESHES ISSUED:       1472

[ROI Statistics]
[System Configuration]
num_cpus 1
cpu_freq 4000
fetch_width 6
decode_width 6
dispatch_width 6
execute_width 6
lq_width 2
sq_width 2
retire_width 6
scheduler_size 160
branch_mispredict_penalty 1
rob_size 352
lq_size 240
sq_size 112
ifetch_buffer_size 64
decode_buffer_size 32
dispatch_buffer_size 32
register_file_size 288
decode_latency 1
dispatch_latency 1
schedule_latency 0
execute_latency 0
page_size 4096
block_size 64
core_0_itlb_set 16
core_0_itlb_way 4
core_0_itlb_rq_size 16
core_0_itlb_wq_size 16
core_0_itlb_pq_size 0
core_0_itlb_mshr_size 8
core_0_itlb_hit_latency 1
core_0_itlb_fill_latency 1
core_0_itlb_max_tag_check 2
core_0_itlb_max_fill 2
core_0_dtlb_set 16
core_0_dtlb_way 4
core_0_dtlb_rq_size 16
core_0_dtlb_wq_size 16
core_0_dtlb_pq_size 0
core_0_dtlb_mshr_size 8
core_0_dtlb_hit_latency 1
core_0_dtlb_fill_latency 1
core_0_dtlb_max_tag_check 2
core_0_dtlb_max_fill 2
core_0_stlb_set 128
core_0_stlb_way 12
core_0_stlb_rq_size 32
core_0_stlb_wq_size 32
core_0_stlb_pq_size 0
core_0_stlb_mshr_size 16
core_0_stlb_hit_latency 4
core_0_stlb_fill_latency 4
core_0_stlb_max_tag_check 1
core_0_stlb_max_fill 1
core_0_l1i_set 64
core_0_l1i_way 8
core_0_l1i_rq_size 64
core_0_l1i_wq_size 64
core_0_l1i_pq_size 32
core_0_l1i_mshr_size 8
core_0_l1i_hit_latency 2
core_0_l1i_fill_latency 2
core_0_l1i_max_tag_check 2
core_0_l1i_max_fill 2
core_0_l1d_set 64
core_0_l1d_way 12
core_0_l1d_rq_size 64
core_0_l1d_wq_size 64
core_0_l1d_pq_size 8
core_0_l1d_mshr_size 16
core_0_l1d_hit_latency 2
core_0_l1d_fill_latency 3
core_0_l1d_max_tag_check 2
core_0_l1d_max_fill 2
core_0_l2c_set 1024
core_0_l2c_way 8
core_0_l2c_rq_size 32
core_0_l2c_wq_size 32
core_0_l2c_pq_size 16
core_0_l2c_mshr_size 32
core_0_l2c_hit_latency 5
core_0_l2c_fill_latency 5
core_0_l2c_max_tag_check 1
core_0_l2c_max_fill 1
llc_set 2048
llc_way 16
llc_rq_size 32
llc_wq_size 32
llc_pq_size 32
llc_mshr_size 64
llc_hit_latency 10
llc_fill_latency 10
llc_max_tag_check 1
llc_max_fill 1
dram_channels 1
dram_ranks 1
dram_bankgroups 8
dram_banks 4
dram_rows 16384
dram_columns 1024
dram_channel_width 8
dram_rq_size 64
dram_wq_size 64
dram_size 4294967296
core_0_itlb_prefetcher no
core_0_dtlb_prefetcher no
core_0_stlb_prefetcher no
core_0_l1i_prefetcher next_line
core_0_l1d_prefetcher berti
core_0_l2c_prefetcher pythia
llc_prefetcher no
llc_replacement drrip

Core_0_instructions 50000003
Core_0_cycles 17662782
Core_0_IPC 2.83081
Core_0_branch_prediction_accuracy 97.7317
Core_0_branch_MPKI 2.90714
Core_0_average_ROB_occupancy_at_mispredict 167.203

Core_0_ITLB_total_access 2859986
Core_0_ITLB_total_hit 2859612
Core_0_ITLB_total_miss 374
Core_0_ITLB_total_MPKI 0.00748
Core_0_ITLB_total_miss_rate 0.00013077
Core_0_ITLB_demand_access 2859986
Core_0_ITLB_demand_hit 2859612
Core_0_ITLB_demand_miss 374
Core_0_ITLB_demand_MPKI 0.00748
Core_0_ITLB_demand_miss_rate 0.00013077
Core_0_ITLB_load_access 2859986
Core_0_ITLB_load_hit 2859612
Core_0_ITLB_load_miss 374
Core_0_ITLB_load_MPKI 0.00748
Core_0_ITLB_load_miss_rate 0.00013077
Core_0_ITLB_rfo_access 0
Core_0_ITLB_rfo_hit 0
Core_0_ITLB_rfo_miss 0
Core_0_ITLB_rfo_MPKI 0
Core_0_ITLB_rfo_miss_rate 0
Core_0_ITLB_prefetch_access 0
Core_0_ITLB_prefetch_hit 0
Core_0_ITLB_prefetch_miss 0
Core_0_ITLB_prefetch_MPKI 0
Core_0_ITLB_prefetch_miss_rate 0
Core_0_ITLB_writeback_access 0
Core_0_ITLB_writeback_hit 0
Core_0_ITLB_writeback_miss 0
Core_0_ITLB_writeback_MPKI 0
Core_0_ITLB_writeback_miss_rate 0
Core_0_ITLB_prefetch_requested 0
Core_0_ITLB_prefetch_issued 0
Core_0_ITLB_prefetch_useful 0
Core_0_ITLB_prefetch_useless 0
Core_0_ITLB_prefetch_late 0
Core_0_ITLB_prefetch_accuracy 0
Core_0_ITLB_prefetch_coverage 0

Core_0_DTLB_total_access 12272647
Core_0_DTLB_total_hit 12253773
Core_0_DTLB_total_miss 18874
Core_0_DTLB_total_MPKI 0.37748
Core_0_DTLB_total_miss_rate 0.00153789
Core_0_DTLB_demand_access 12272647
Core_0_DTLB_demand_hit 12253773
Core_0_DTLB_demand_miss 18874
Core_0_DTLB_demand_MPKI 0.37748
Core_0_DTLB_demand_miss_rate 0.00153789
Core_0_DTLB_load_access 12272647
Core_0_DTLB_load_hit 12253773
Core_0_DTLB_load_miss 18874
Core_0_DTLB_load_MPKI 0.37748
Core_0_DTLB_load_miss_rate 0.00153789
Core_0_DTLB_rfo_access 0
Core_0_DTLB_rfo_hit 0
Core_0_DTLB_rfo_miss 0
Core_0_DTLB_rfo_MPKI 0
Core_0_DTLB_rfo_miss_rate 0
Core_0_DTLB_prefetch_access 0
Core_0_DTLB_prefetch_hit 0
Core_0_DTLB_prefetch_miss 0
Core_0_DTLB_prefetch_MPKI 0
Core_0_DTLB_prefetch_miss_rate 0
Core_0_DTLB_writeback_access 0
Core_0_DTLB_writeback_hit 0
Core_0_DTLB_writeback_miss 0
Core_0_DTLB_writeback_MPKI 0
Core_0_DTLB_writeback_miss_rate 0
Core_0_DTLB_prefetch_requested 0
Core_0_DTLB_prefetch_issued 0
Core_0_DTLB_prefetch_useful 0
Core_0_DTLB_prefetch_useless 0
Core_0_DTLB_prefetch_late 0
Core_0_DTLB_prefetch_accuracy 0
Core_0_DTLB_prefetch_coverage 0

Core_0_STLB_total_access 14162
Core_0_STLB_total_hit 14162
Core_0_STLB_total_miss 0
Core_0_STLB_total_MPKI 0
Core_0_STLB_total_miss_rate 0
Core_0_STLB_demand_access 14162
Core_0_STLB_demand_hit 14162
Core_0_STLB_demand_miss 0
Core_0_STLB_demand_MPKI 0
Core_0_STLB_demand_miss_rate 0
Core_0_STLB_load_access 14162
Core_0_STLB_load_hit 14162
Core_0_STLB_load_miss 0
Core_0_STLB_load_MPKI 0
Core_0_STLB_load_miss_rate 0
Core_0_STLB_rfo_access 0
Core_0_STLB_rfo_hit 0
Core_0_STLB_rfo_miss 0
Core_0_STLB_rfo_MPKI 0
Core_0_STLB_rfo_miss_rate 0
Core_0_STLB_prefetch_access 0
Core_0_STLB_prefetch_hit 0
Core_0_STLB_prefetch_miss 0
Core_0_STLB_prefetch_MPKI 0
Core_0_STLB_prefetch_miss_rate 0
Core_0_STLB_writeback_access 0
Core_0_STLB_writeback_hit 0
Core_0_STLB_writeback_miss 0
Core_0_STLB_writeback_MPKI 0
Core_0_STLB_writeback_miss_rate 0
Core_0_STLB_prefetch_requested 0
Core_0_STLB_prefetch_issued 0
Core_0_STLB_prefetch_useful 0
Core_0_STLB_prefetch_useless 0
Core_0_STLB_prefetch_late 0
Core_0_STLB_prefetch_accuracy 0
Core_0_STLB_prefetch_coverage 0

Core_0_L1I_total_access 3395169
Core_0_L1I_total_hit 3391313
Core_0_L1I_total_miss 3856
Core_0_L1I_total_MPKI 0.07712
Core_0_L1I_total_miss_rate 0.00113573
Core_0_L1I_demand_access 3395169
Core_0_L1I_demand_hit 3391313
Core_0_L1I_demand_miss 3856
Core_0_L1I_demand_MPKI 0.07712
Core_0_L1I_demand_miss_rate 0.00113573
Core_0_L1I_load_access 3395169
Core_0_L1I_load_hit 3391313
Core_0_L1I_load_miss 3856
Core_0_L1I_load_MPKI 0.07712
Core_0_L1I_load_miss_rate 0.00113573
Core_0_L1I_rfo_access 0
Core_0_L1I_rfo_hit 0
Core_0_L1I_rfo_miss 0
Core_0_L1I_rfo_MPKI 0
Core_0_L1I_rfo_miss_rate 0
Core_0_L1I_prefetch_access 0
Core_0_L1I_prefetch_hit 0
Core_0_L1I_prefetch_miss 0
Core_0_L1I_prefetch_MPKI 0
Core_0_L1I_prefetch_miss_rate 0
Core_0_L1I_writeback_access 0
Core_0_L1I_writeback_hit 0
Core_0_L1I_writeback_miss 0
Core_0_L1I_writeback_MPKI 0
Core_0_L1I_writeback_miss_rate 0
Core_0_L1I_prefetch_requested 0
Core_0_L1I_prefetch_issued 0
Core_0_L1I_prefetch_useful 0
Core_0_L1I_prefetch_useless 0
Core_0_L1I_prefetch_late 0
Core_0_L1I_prefetch_accuracy 0
Core_0_L1I_prefetch_coverage 0

Core_0_L1D_total_access 13320340
Core_0_L1D_total_hit 12601035
Core_0_L1D_total_miss 719305
Core_0_L1D_total_MPKI 14.3861
Core_0_L1D_total_miss_rate 0.0540005
Core_0_L1D_demand_access 7508286
Core_0_L1D_demand_hit 7437574
Core_0_L1D_demand_miss 70712
Core_0_L1D_demand_MPKI 1.41424
Core_0_L1D_demand_miss_rate 0.00941786
Core_0_L1D_load_access 7508286
Core_0_L1D_load_hit 7437574
Core_0_L1D_load_miss 70712
Core_0_L1D_load_MPKI 1.41424
Core_0_L1D_load_miss_rate 0.00941786
Core_0_L1D_rfo_access 0
Core_0_L1D_rfo_hit 0
Core_0_L1D_rfo_miss 0
Core_0_L1D_rfo_MPKI 0
Core_0_L1D_rfo_miss_rate 0
Core_0_L1D_prefetch_access 259371
Core_0_L1D_prefetch_hit 101982
Core_0_L1D_prefetch_miss 157389
Core_0_L1D_prefetch_MPKI 3.14778
Core_0_L1D_prefetch_miss_rate 0.60681
Core_0_L1D_writeback_access 5552683
Core_0_L1D_writeback_hit 5061479
Core_0_L1D_writeback_miss 491204
Core_0_L1D_writeback_MPKI 9.82408
Core_0_L1D_writeback_miss_rate 0.0884625
Core_0_L1D_prefetch_requested 275353
Core_0_L1D_prefetch_issued 259374
Core_0_L1D_prefetch_useful 141127
Core_0_L1D_prefetch_useless 12872
Core_0_L1D_prefetch_late 3733
Core_0_L1D_prefetch_accuracy 0.544106
Core_0_L1D_prefetch_coverage 0.666199

Core_0_L2C_total_access 1451561
Core_0_L2C_total_hit 1432856
Core_0_L2C_total_miss 18705
Core_0_L2C_total_MPKI 0.3741
Core_0_L2C_total_miss_rate 0.0128861
Core_0_L2C_demand_access 200550
Core_0_L2C_demand_hit 193222
Core_0_L2C_demand_miss 7328
Core_0_L2C_demand_MPKI 0.14656
Core_0_L2C_demand_miss_rate 0.0365395
Core_0_L2C_load_access 48314
Core_0_L2C_load_hit 45586
Core_0_L2C_load_miss 2728
Core_0_L2C_load_MPKI 0.05456
Core_0_L2C_load_miss_rate 0.056464
Core_0_L2C_rfo_access 152236
Core_0_L2C_rfo_hit 147636
Core_0_L2C_rfo_miss 4600
Core_0_L2C_rfo_MPKI 0.092
Core_0_L2C_rfo_miss_rate 0.0302162
Core_0_L2C_prefetch_access 1082607
Core_0_L2C_prefetch_hit 1071245
Core_0_L2C_prefetch_miss 11362
Core_0_L2C_prefetch_MPKI 0.22724
Core_0_L2C_prefetch_miss_rate 0.010495
Core_0_L2C_writeback_access 168404
Core_0_L2C_writeback_hit 168389
Core_0_L2C_writeback_miss 15
Core_0_L2C_writeback_MPKI 0.0003
Core_0_L2C_writeback_miss_rate 8.90715e-05
Core_0_L2C_prefetch_requested 976875
Core_0_L2C_prefetch_issued 928642
Core_0_L2C_prefetch_useful 3550
Core_0_L2C_prefetch_useless 2415
Core_0_L2C_prefetch_late 198
Core_0_L2C_prefetch_accuracy 0.00382279
Core_0_L2C_prefetch_coverage 0.326347

Core_0_LLC_total_access 21750
Core_0_LLC_total_hit 16322
Core_0_LLC_total_miss 5428
Core_0_LLC_total_MPKI 0.10856
Core_0_LLC_total_miss_rate 0.249563
Core_0_LLC_demand_access 7130
Core_0_LLC_demand_hit 6261
Core_0_LLC_demand_miss 869
Core_0_LLC_demand_MPKI 0.01738
Core_0_LLC_demand_miss_rate 0.121879
Core_0_LLC_load_access 2530
Core_0_LLC_load_hit 1665
Core_0_LLC_load_miss 865
Core_0_LLC_load_MPKI 0.0173
Core_0_LLC_load_miss_rate 0.341897
Core_0_LLC_rfo_access 4600
Core_0_LLC_rfo_hit 4596
Core_0_LLC_rfo_miss 4
Core_0_LLC_rfo_MPKI 8e-05
Core_0_LLC_rfo_miss_rate 0.000869565
Core_0_LLC_prefetch_access 7757
Core_0_LLC_prefetch_hit 3198
Core_0_LLC_prefetch_miss 4559
Core_0_LLC_prefetch_MPKI 0.09118
Core_0_LLC_prefetch_miss_rate 0.587727
Core_0_LLC_writeback_access 6863
Core_0_LLC_writeback_hit 6863
Core_0_LLC_writeback_miss 0
Core_0_LLC_writeback_MPKI 0
Core_0_LLC_writeback_miss_rate 0
Core_0_LLC_prefetch_requested 0
Core_0_LLC_prefetch_issued 0
Core_0_LLC_prefetch_useful 0
Core_0_LLC_prefetch_useless 0
Core_0_LLC_prefetch_late 0
Core_0_LLC_prefetch_accuracy 0
Core_0_LLC_prefetch_coverage 0

[DRAM Statistics]
Channel_0_RQ_row_buffer_hit 122
Channel_0_RQ_row_buffer_miss 5306
Channel_0_WQ_row_buffer_hit 0
Channel_0_WQ_row_buffer_miss 0
Channel_0_WQ_full 0
Channel_0_dbus_congested 9128
DRAM_total_RQ_row_buffer_hit 122
DRAM_total_RQ_row_buffer_miss 5306
DRAM_total_WQ_row_buffer_hit 0
DRAM_total_WQ_row_buffer_miss 0
DRAM_total_WQ_full 0
DRAM_total_dbus_congested 9128
DRAM_avg_congested_cycle 2.91652

======STLB miss causes ========
Core_0_STLB_miss_cause_breakdown
Core_0_STLB_cause_Demand_Data_miss 0
Core_0_STLB_cause_Demand_Data_miss_rate 0
Core_0_STLB_cause_Demand_Instruction_miss 0
Core_0_STLB_cause_Demand_Instruction_miss_rate 0
Core_0_STLB_cause_L1D_Prefetch_miss 0
Core_0_STLB_cause_L1D_Prefetch_miss_rate 0
Core_0_STLB_cause_L1I_Prefetch_miss 0
Core_0_STLB_cause_L1I_Prefetch_miss_rate 0
Core_0_STLB_cause_Other_miss 0
Core_0_STLB_cause_Other_miss_rate 0
Core_0_STLB_Demand_miss 0
Core_0_STLB_Demand_miss_rate 0
Core_0_STLB_L1D_Prefetch_miss 0
Core_0_STLB_L1D_Prefetch_miss_rate 0
Core_0_STLB_Other_miss 0
Core_0_STLB_Other_miss_rate 0
