[VMEM] WARNING: physical memory size is smaller than virtual memory size.

*** ChampSim Multicore Out-of-Order Simulator ***
Warmup Instructions: 20000000
Simulation Instructions: 50000000
Number of CPUs: 1
Page size: 4096
STLB ideal mode: all
Core 0: /data0/tzh/champsim_traces/SPEC06/481.wrf-196B.champsimtrace.xz
 L1D Berti prefetcher
Off-chip DRAM Size: 4 GiB Channels: 1 Width: 64-bit Data Rate: 3205 MT/s
Warmup halting CPU 0 at instruction 20000001 cycle 4135823 for remainder of phase
Warmup finished CPU 0 instructions: 20000001 cycles: 4135823 cumulative IPC: 4.836 (Simulation time: 00 hr 00 min 51 sec)
Warmup complete CPU 0 instructions: 20000001 cycles: 4135823 cumulative IPC: 4.836 (Simulation time: 00 hr 00 min 51 sec)
Simulation finished CPU 0 instructions: 50000000 cycles: 11376515 cumulative IPC: 4.395 (Simulation time: 00 hr 03 min 23 sec)
Simulation complete CPU 0 instructions: 50000000 cycles: 11376515 cumulative IPC: 4.395 (Simulation time: 00 hr 03 min 23 sec)

ChampSim completed all CPUs

=== Simulation ===
CPU 0 runs /data0/tzh/champsim_traces/SPEC06/481.wrf-196B.champsimtrace.xz

Region of Interest Statistics

CPU 0 cumulative IPC: 4.395 instructions: 50000000 cycles: 11376515
CPU 0 Branch Prediction Accuracy: 99.21% MPKI: 0.2874 Average ROB Occupancy at Mispredict: 233.4
Branch type MPKI
BRANCH_DIRECT_JUMP: 0.00064
BRANCH_INDIRECT: 0
BRANCH_CONDITIONAL: 0.2864
BRANCH_DIRECT_CALL: 0.00018
BRANCH_INDIRECT_CALL: 0
BRANCH_RETURN: 0.00018

cpu0->cpu0_STLB TOTAL        ACCESS:       3485 HIT:       3485 MISS:          0 MSHR_MERGE:          0
cpu0->cpu0_STLB LOAD         ACCESS:       3485 HIT:       3485 MISS:          0 MSHR_MERGE:          0
cpu0->cpu0_STLB RFO          ACCESS:          0 HIT:          0 MISS:          0 MSHR_MERGE:          0
cpu0->cpu0_STLB PREFETCH     ACCESS:          0 HIT:          0 MISS:          0 MSHR_MERGE:          0
cpu0->cpu0_STLB WRITE        ACCESS:          0 HIT:          0 MISS:          0 MSHR_MERGE:          0
cpu0->cpu0_STLB TRANSLATION  ACCESS:          0 HIT:          0 MISS:          0 MSHR_MERGE:          0
cpu0->cpu0_STLB PREFETCH REQUESTED:          0 ISSUED:          0 USEFUL:          0 USELESS:          0 LATE:          0
cpu0->cpu0_STLB AVERAGE MISS LATENCY: - cycles
cpu0->cpu0_L2C TOTAL        ACCESS:    2943373 HIT:    2463107 MISS:     480266 MSHR_MERGE:     293342
cpu0->cpu0_L2C LOAD         ACCESS:      20780 HIT:      15993 MISS:       4787 MSHR_MERGE:        691
cpu0->cpu0_L2C RFO          ACCESS:      28403 HIT:      27482 MISS:        921 MSHR_MERGE:          0
cpu0->cpu0_L2C PREFETCH     ACCESS:    2778107 HIT:    2303562 MISS:     474545 MSHR_MERGE:     292651
cpu0->cpu0_L2C WRITE        ACCESS:     116083 HIT:     116070 MISS:         13 MSHR_MERGE:          0
cpu0->cpu0_L2C TRANSLATION  ACCESS:          0 HIT:          0 MISS:          0 MSHR_MERGE:          0
cpu0->cpu0_L2C PREFETCH REQUESTED:    2376258 ISSUED:    2359389 USEFUL:     169668 USELESS:       7631 LATE:        691
cpu0->cpu0_L2C AVERAGE MISS LATENCY: 209.2 cycles
cpu0->cpu0_L1I TOTAL        ACCESS:    7039907 HIT:    7039543 MISS:        364 MSHR_MERGE:         85
cpu0->cpu0_L1I LOAD         ACCESS:    7039907 HIT:    7039543 MISS:        364 MSHR_MERGE:         85
cpu0->cpu0_L1I RFO          ACCESS:          0 HIT:          0 MISS:          0 MSHR_MERGE:          0
cpu0->cpu0_L1I PREFETCH     ACCESS:          0 HIT:          0 MISS:          0 MSHR_MERGE:          0
cpu0->cpu0_L1I WRITE        ACCESS:          0 HIT:          0 MISS:          0 MSHR_MERGE:          0
cpu0->cpu0_L1I TRANSLATION  ACCESS:          0 HIT:          0 MISS:          0 MSHR_MERGE:          0
cpu0->cpu0_L1I PREFETCH REQUESTED:          0 ISSUED:          0 USEFUL:          0 USELESS:          0 LATE:          0
cpu0->cpu0_L1I AVERAGE MISS LATENCY: 240.8 cycles
cpu0->cpu0_L1D TOTAL        ACCESS:   10168621 HIT:    9629750 MISS:     538871 MSHR_MERGE:      71231
cpu0->cpu0_L1D LOAD         ACCESS:    7905646 HIT:    7844392 MISS:      61254 MSHR_MERGE:      40753
cpu0->cpu0_L1D RFO          ACCESS:          0 HIT:          0 MISS:          0 MSHR_MERGE:          0
cpu0->cpu0_L1D PREFETCH     ACCESS:     436199 HIT:      16088 MISS:     420111 MSHR_MERGE:       1391
cpu0->cpu0_L1D WRITE        ACCESS:    1826776 HIT:    1769270 MISS:      57506 MSHR_MERGE:      29087
cpu0->cpu0_L1D TRANSLATION  ACCESS:          0 HIT:          0 MISS:          0 MSHR_MERGE:          0
cpu0->cpu0_L1D PREFETCH REQUESTED:     436395 ISSUED:     436199 USEFUL:     416465 USELESS:       2247 LATE:       4987
cpu0->cpu0_L1D AVERAGE MISS LATENCY: 34.4 cycles
cpu0->cpu0_ITLB TOTAL        ACCESS:    5525873 HIT:    5525832 MISS:         41 MSHR_MERGE:         19
cpu0->cpu0_ITLB LOAD         ACCESS:    5525873 HIT:    5525832 MISS:         41 MSHR_MERGE:         19
cpu0->cpu0_ITLB RFO          ACCESS:          0 HIT:          0 MISS:          0 MSHR_MERGE:          0
cpu0->cpu0_ITLB PREFETCH     ACCESS:          0 HIT:          0 MISS:          0 MSHR_MERGE:          0
cpu0->cpu0_ITLB WRITE        ACCESS:          0 HIT:          0 MISS:          0 MSHR_MERGE:          0
cpu0->cpu0_ITLB TRANSLATION  ACCESS:          0 HIT:          0 MISS:          0 MSHR_MERGE:          0
cpu0->cpu0_ITLB PREFETCH REQUESTED:          0 ISSUED:          0 USEFUL:          0 USELESS:          0 LATE:          0
cpu0->cpu0_ITLB AVERAGE MISS LATENCY: 5.045 cycles
cpu0->cpu0_DTLB TOTAL        ACCESS:    9637338 HIT:    9632723 MISS:       4615 MSHR_MERGE:       1152
cpu0->cpu0_DTLB LOAD         ACCESS:    9637338 HIT:    9632723 MISS:       4615 MSHR_MERGE:       1152
cpu0->cpu0_DTLB RFO          ACCESS:          0 HIT:          0 MISS:          0 MSHR_MERGE:          0
cpu0->cpu0_DTLB PREFETCH     ACCESS:          0 HIT:          0 MISS:          0 MSHR_MERGE:          0
cpu0->cpu0_DTLB WRITE        ACCESS:          0 HIT:          0 MISS:          0 MSHR_MERGE:          0
cpu0->cpu0_DTLB TRANSLATION  ACCESS:          0 HIT:          0 MISS:          0 MSHR_MERGE:          0
cpu0->cpu0_DTLB PREFETCH REQUESTED:          0 ISSUED:          0 USEFUL:          0 USELESS:          0 LATE:          0
cpu0->cpu0_DTLB AVERAGE MISS LATENCY: 5 cycles
cpu0->LLC TOTAL        ACCESS:     247711 HIT:      27119 MISS:     220592 MSHR_MERGE:          0
cpu0->LLC LOAD         ACCESS:       4096 HIT:        355 MISS:       3741 MSHR_MERGE:          0
cpu0->LLC RFO          ACCESS:        921 HIT:          7 MISS:        914 MSHR_MERGE:          0
cpu0->LLC PREFETCH     ACCESS:     181894 HIT:       9453 MISS:     172441 MSHR_MERGE:          0
cpu0->LLC WRITE        ACCESS:      60800 HIT:      17304 MISS:      43496 MSHR_MERGE:          0
cpu0->LLC TRANSLATION  ACCESS:          0 HIT:          0 MISS:          0 MSHR_MERGE:          0
cpu0->LLC PREFETCH REQUESTED:          0 ISSUED:          0 USEFUL:          0 USELESS:          0 LATE:          0
cpu0->LLC AVERAGE MISS LATENCY: 29.88 cycles

DRAM Statistics

Channel 0 RQ ROW_BUFFER_HIT:      16148
  ROW_BUFFER_MISS:     160946
  AVG DBUS CONGESTED CYCLE: 7.692
Channel 0 WQ ROW_BUFFER_HIT:       7581
  ROW_BUFFER_MISS:      35233
  FULL:          0
Channel 0 REFRESHES ISSUED:        948

[ROI Statistics]
[System Configuration]
num_cpus 1
cpu_freq 4000
fetch_width 6
decode_width 6
dispatch_width 6
execute_width 6
lq_width 2
sq_width 2
retire_width 6
scheduler_size 160
branch_mispredict_penalty 1
rob_size 352
lq_size 240
sq_size 112
ifetch_buffer_size 64
decode_buffer_size 32
dispatch_buffer_size 32
register_file_size 288
decode_latency 1
dispatch_latency 1
schedule_latency 0
execute_latency 0
page_size 4096
block_size 64
core_0_itlb_set 16
core_0_itlb_way 4
core_0_itlb_rq_size 16
core_0_itlb_wq_size 16
core_0_itlb_pq_size 0
core_0_itlb_mshr_size 8
core_0_itlb_hit_latency 1
core_0_itlb_fill_latency 1
core_0_itlb_max_tag_check 2
core_0_itlb_max_fill 2
core_0_dtlb_set 16
core_0_dtlb_way 4
core_0_dtlb_rq_size 16
core_0_dtlb_wq_size 16
core_0_dtlb_pq_size 0
core_0_dtlb_mshr_size 8
core_0_dtlb_hit_latency 1
core_0_dtlb_fill_latency 1
core_0_dtlb_max_tag_check 2
core_0_dtlb_max_fill 2
core_0_stlb_set 128
core_0_stlb_way 12
core_0_stlb_rq_size 32
core_0_stlb_wq_size 32
core_0_stlb_pq_size 0
core_0_stlb_mshr_size 16
core_0_stlb_hit_latency 4
core_0_stlb_fill_latency 4
core_0_stlb_max_tag_check 1
core_0_stlb_max_fill 1
core_0_l1i_set 64
core_0_l1i_way 8
core_0_l1i_rq_size 64
core_0_l1i_wq_size 64
core_0_l1i_pq_size 32
core_0_l1i_mshr_size 8
core_0_l1i_hit_latency 2
core_0_l1i_fill_latency 2
core_0_l1i_max_tag_check 2
core_0_l1i_max_fill 2
core_0_l1d_set 64
core_0_l1d_way 12
core_0_l1d_rq_size 64
core_0_l1d_wq_size 64
core_0_l1d_pq_size 8
core_0_l1d_mshr_size 16
core_0_l1d_hit_latency 2
core_0_l1d_fill_latency 3
core_0_l1d_max_tag_check 2
core_0_l1d_max_fill 2
core_0_l2c_set 1024
core_0_l2c_way 8
core_0_l2c_rq_size 32
core_0_l2c_wq_size 32
core_0_l2c_pq_size 16
core_0_l2c_mshr_size 32
core_0_l2c_hit_latency 5
core_0_l2c_fill_latency 5
core_0_l2c_max_tag_check 1
core_0_l2c_max_fill 1
llc_set 2048
llc_way 16
llc_rq_size 32
llc_wq_size 32
llc_pq_size 32
llc_mshr_size 64
llc_hit_latency 10
llc_fill_latency 10
llc_max_tag_check 1
llc_max_fill 1
dram_channels 1
dram_ranks 1
dram_bankgroups 8
dram_banks 4
dram_rows 16384
dram_columns 1024
dram_channel_width 8
dram_rq_size 64
dram_wq_size 64
dram_size 4294967296
core_0_itlb_prefetcher no
core_0_dtlb_prefetcher no
core_0_stlb_prefetcher no
core_0_l1i_prefetcher next_line
core_0_l1d_prefetcher berti
core_0_l2c_prefetcher pythia
llc_prefetcher no
llc_replacement drrip

Core_0_instructions 50000000
Core_0_cycles 11376515
Core_0_IPC 4.39502
Core_0_branch_prediction_accuracy 99.2076
Core_0_branch_MPKI 0.28736
Core_0_average_ROB_occupancy_at_mispredict 233.36

Core_0_ITLB_total_access 5525873
Core_0_ITLB_total_hit 5525832
Core_0_ITLB_total_miss 41
Core_0_ITLB_total_MPKI 0.00082
Core_0_ITLB_total_miss_rate 7.41964e-06
Core_0_ITLB_demand_access 5525873
Core_0_ITLB_demand_hit 5525832
Core_0_ITLB_demand_miss 41
Core_0_ITLB_demand_MPKI 0.00082
Core_0_ITLB_demand_miss_rate 7.41964e-06
Core_0_ITLB_load_access 5525873
Core_0_ITLB_load_hit 5525832
Core_0_ITLB_load_miss 41
Core_0_ITLB_load_MPKI 0.00082
Core_0_ITLB_load_miss_rate 7.41964e-06
Core_0_ITLB_rfo_access 0
Core_0_ITLB_rfo_hit 0
Core_0_ITLB_rfo_miss 0
Core_0_ITLB_rfo_MPKI 0
Core_0_ITLB_rfo_miss_rate 0
Core_0_ITLB_prefetch_access 0
Core_0_ITLB_prefetch_hit 0
Core_0_ITLB_prefetch_miss 0
Core_0_ITLB_prefetch_MPKI 0
Core_0_ITLB_prefetch_miss_rate 0
Core_0_ITLB_writeback_access 0
Core_0_ITLB_writeback_hit 0
Core_0_ITLB_writeback_miss 0
Core_0_ITLB_writeback_MPKI 0
Core_0_ITLB_writeback_miss_rate 0
Core_0_ITLB_prefetch_requested 0
Core_0_ITLB_prefetch_issued 0
Core_0_ITLB_prefetch_useful 0
Core_0_ITLB_prefetch_useless 0
Core_0_ITLB_prefetch_late 0
Core_0_ITLB_prefetch_accuracy 0
Core_0_ITLB_prefetch_coverage 0

Core_0_DTLB_total_access 9637338
Core_0_DTLB_total_hit 9632723
Core_0_DTLB_total_miss 4615
Core_0_DTLB_total_MPKI 0.0923
Core_0_DTLB_total_miss_rate 0.000478867
Core_0_DTLB_demand_access 9637338
Core_0_DTLB_demand_hit 9632723
Core_0_DTLB_demand_miss 4615
Core_0_DTLB_demand_MPKI 0.0923
Core_0_DTLB_demand_miss_rate 0.000478867
Core_0_DTLB_load_access 9637338
Core_0_DTLB_load_hit 9632723
Core_0_DTLB_load_miss 4615
Core_0_DTLB_load_MPKI 0.0923
Core_0_DTLB_load_miss_rate 0.000478867
Core_0_DTLB_rfo_access 0
Core_0_DTLB_rfo_hit 0
Core_0_DTLB_rfo_miss 0
Core_0_DTLB_rfo_MPKI 0
Core_0_DTLB_rfo_miss_rate 0
Core_0_DTLB_prefetch_access 0
Core_0_DTLB_prefetch_hit 0
Core_0_DTLB_prefetch_miss 0
Core_0_DTLB_prefetch_MPKI 0
Core_0_DTLB_prefetch_miss_rate 0
Core_0_DTLB_writeback_access 0
Core_0_DTLB_writeback_hit 0
Core_0_DTLB_writeback_miss 0
Core_0_DTLB_writeback_MPKI 0
Core_0_DTLB_writeback_miss_rate 0
Core_0_DTLB_prefetch_requested 0
Core_0_DTLB_prefetch_issued 0
Core_0_DTLB_prefetch_useful 0
Core_0_DTLB_prefetch_useless 0
Core_0_DTLB_prefetch_late 0
Core_0_DTLB_prefetch_accuracy 0
Core_0_DTLB_prefetch_coverage 0

Core_0_STLB_total_access 3485
Core_0_STLB_total_hit 3485
Core_0_STLB_total_miss 0
Core_0_STLB_total_MPKI 0
Core_0_STLB_total_miss_rate 0
Core_0_STLB_demand_access 3485
Core_0_STLB_demand_hit 3485
Core_0_STLB_demand_miss 0
Core_0_STLB_demand_MPKI 0
Core_0_STLB_demand_miss_rate 0
Core_0_STLB_load_access 3485
Core_0_STLB_load_hit 3485
Core_0_STLB_load_miss 0
Core_0_STLB_load_MPKI 0
Core_0_STLB_load_miss_rate 0
Core_0_STLB_rfo_access 0
Core_0_STLB_rfo_hit 0
Core_0_STLB_rfo_miss 0
Core_0_STLB_rfo_MPKI 0
Core_0_STLB_rfo_miss_rate 0
Core_0_STLB_prefetch_access 0
Core_0_STLB_prefetch_hit 0
Core_0_STLB_prefetch_miss 0
Core_0_STLB_prefetch_MPKI 0
Core_0_STLB_prefetch_miss_rate 0
Core_0_STLB_writeback_access 0
Core_0_STLB_writeback_hit 0
Core_0_STLB_writeback_miss 0
Core_0_STLB_writeback_MPKI 0
Core_0_STLB_writeback_miss_rate 0
Core_0_STLB_prefetch_requested 0
Core_0_STLB_prefetch_issued 0
Core_0_STLB_prefetch_useful 0
Core_0_STLB_prefetch_useless 0
Core_0_STLB_prefetch_late 0
Core_0_STLB_prefetch_accuracy 0
Core_0_STLB_prefetch_coverage 0

Core_0_L1I_total_access 7039907
Core_0_L1I_total_hit 7039543
Core_0_L1I_total_miss 364
Core_0_L1I_total_MPKI 0.00728
Core_0_L1I_total_miss_rate 5.17052e-05
Core_0_L1I_demand_access 7039907
Core_0_L1I_demand_hit 7039543
Core_0_L1I_demand_miss 364
Core_0_L1I_demand_MPKI 0.00728
Core_0_L1I_demand_miss_rate 5.17052e-05
Core_0_L1I_load_access 7039907
Core_0_L1I_load_hit 7039543
Core_0_L1I_load_miss 364
Core_0_L1I_load_MPKI 0.00728
Core_0_L1I_load_miss_rate 5.17052e-05
Core_0_L1I_rfo_access 0
Core_0_L1I_rfo_hit 0
Core_0_L1I_rfo_miss 0
Core_0_L1I_rfo_MPKI 0
Core_0_L1I_rfo_miss_rate 0
Core_0_L1I_prefetch_access 0
Core_0_L1I_prefetch_hit 0
Core_0_L1I_prefetch_miss 0
Core_0_L1I_prefetch_MPKI 0
Core_0_L1I_prefetch_miss_rate 0
Core_0_L1I_writeback_access 0
Core_0_L1I_writeback_hit 0
Core_0_L1I_writeback_miss 0
Core_0_L1I_writeback_MPKI 0
Core_0_L1I_writeback_miss_rate 0
Core_0_L1I_prefetch_requested 0
Core_0_L1I_prefetch_issued 0
Core_0_L1I_prefetch_useful 0
Core_0_L1I_prefetch_useless 0
Core_0_L1I_prefetch_late 0
Core_0_L1I_prefetch_accuracy 0
Core_0_L1I_prefetch_coverage 0

Core_0_L1D_total_access 10168621
Core_0_L1D_total_hit 9629750
Core_0_L1D_total_miss 538871
Core_0_L1D_total_MPKI 10.7774
Core_0_L1D_total_miss_rate 0.0529935
Core_0_L1D_demand_access 7905646
Core_0_L1D_demand_hit 7844392
Core_0_L1D_demand_miss 61254
Core_0_L1D_demand_MPKI 1.22508
Core_0_L1D_demand_miss_rate 0.00774813
Core_0_L1D_load_access 7905646
Core_0_L1D_load_hit 7844392
Core_0_L1D_load_miss 61254
Core_0_L1D_load_MPKI 1.22508
Core_0_L1D_load_miss_rate 0.00774813
Core_0_L1D_rfo_access 0
Core_0_L1D_rfo_hit 0
Core_0_L1D_rfo_miss 0
Core_0_L1D_rfo_MPKI 0
Core_0_L1D_rfo_miss_rate 0
Core_0_L1D_prefetch_access 436199
Core_0_L1D_prefetch_hit 16088
Core_0_L1D_prefetch_miss 420111
Core_0_L1D_prefetch_MPKI 8.40222
Core_0_L1D_prefetch_miss_rate 0.963118
Core_0_L1D_writeback_access 1826776
Core_0_L1D_writeback_hit 1769270
Core_0_L1D_writeback_miss 57506
Core_0_L1D_writeback_MPKI 1.15012
Core_0_L1D_writeback_miss_rate 0.0314795
Core_0_L1D_prefetch_requested 436395
Core_0_L1D_prefetch_issued 436199
Core_0_L1D_prefetch_useful 416465
Core_0_L1D_prefetch_useless 2247
Core_0_L1D_prefetch_late 4987
Core_0_L1D_prefetch_accuracy 0.954759
Core_0_L1D_prefetch_coverage 0.871778

Core_0_L2C_total_access 2943373
Core_0_L2C_total_hit 2463107
Core_0_L2C_total_miss 480266
Core_0_L2C_total_MPKI 9.60532
Core_0_L2C_total_miss_rate 0.163169
Core_0_L2C_demand_access 49183
Core_0_L2C_demand_hit 43475
Core_0_L2C_demand_miss 5708
Core_0_L2C_demand_MPKI 0.11416
Core_0_L2C_demand_miss_rate 0.116056
Core_0_L2C_load_access 20780
Core_0_L2C_load_hit 15993
Core_0_L2C_load_miss 4787
Core_0_L2C_load_MPKI 0.09574
Core_0_L2C_load_miss_rate 0.230366
Core_0_L2C_rfo_access 28403
Core_0_L2C_rfo_hit 27482
Core_0_L2C_rfo_miss 921
Core_0_L2C_rfo_MPKI 0.01842
Core_0_L2C_rfo_miss_rate 0.0324262
Core_0_L2C_prefetch_access 2778107
Core_0_L2C_prefetch_hit 2303562
Core_0_L2C_prefetch_miss 474545
Core_0_L2C_prefetch_MPKI 9.4909
Core_0_L2C_prefetch_miss_rate 0.170816
Core_0_L2C_writeback_access 116083
Core_0_L2C_writeback_hit 116070
Core_0_L2C_writeback_miss 13
Core_0_L2C_writeback_MPKI 0.00026
Core_0_L2C_writeback_miss_rate 0.000111989
Core_0_L2C_prefetch_requested 2376258
Core_0_L2C_prefetch_issued 2359389
Core_0_L2C_prefetch_useful 169668
Core_0_L2C_prefetch_useless 7631
Core_0_L2C_prefetch_late 691
Core_0_L2C_prefetch_accuracy 0.0719118
Core_0_L2C_prefetch_coverage 0.967453

Core_0_LLC_total_access 247711
Core_0_LLC_total_hit 27119
Core_0_LLC_total_miss 220592
Core_0_LLC_total_MPKI 4.41184
Core_0_LLC_total_miss_rate 0.890522
Core_0_LLC_demand_access 5017
Core_0_LLC_demand_hit 362
Core_0_LLC_demand_miss 4655
Core_0_LLC_demand_MPKI 0.0931
Core_0_LLC_demand_miss_rate 0.927845
Core_0_LLC_load_access 4096
Core_0_LLC_load_hit 355
Core_0_LLC_load_miss 3741
Core_0_LLC_load_MPKI 0.07482
Core_0_LLC_load_miss_rate 0.91333
Core_0_LLC_rfo_access 921
Core_0_LLC_rfo_hit 7
Core_0_LLC_rfo_miss 914
Core_0_LLC_rfo_MPKI 0.01828
Core_0_LLC_rfo_miss_rate 0.9924
Core_0_LLC_prefetch_access 181894
Core_0_LLC_prefetch_hit 9453
Core_0_LLC_prefetch_miss 172441
Core_0_LLC_prefetch_MPKI 3.44882
Core_0_LLC_prefetch_miss_rate 0.94803
Core_0_LLC_writeback_access 60800
Core_0_LLC_writeback_hit 17304
Core_0_LLC_writeback_miss 43496
Core_0_LLC_writeback_MPKI 0.86992
Core_0_LLC_writeback_miss_rate 0.715395
Core_0_LLC_prefetch_requested 0
Core_0_LLC_prefetch_issued 0
Core_0_LLC_prefetch_useful 0
Core_0_LLC_prefetch_useless 0
Core_0_LLC_prefetch_late 0
Core_0_LLC_prefetch_accuracy 0
Core_0_LLC_prefetch_coverage 0

[DRAM Statistics]
Channel_0_RQ_row_buffer_hit 16148
Channel_0_RQ_row_buffer_miss 160946
Channel_0_WQ_row_buffer_hit 7581
Channel_0_WQ_row_buffer_miss 35233
Channel_0_WQ_full 0
Channel_0_dbus_congested 345754
DRAM_total_RQ_row_buffer_hit 16148
DRAM_total_RQ_row_buffer_miss 160946
DRAM_total_WQ_row_buffer_hit 7581
DRAM_total_WQ_row_buffer_miss 35233
DRAM_total_WQ_full 0
DRAM_total_dbus_congested 345754
DRAM_avg_congested_cycle 7.69194

======STLB miss causes ========
Core_0_STLB_miss_cause_breakdown
Core_0_STLB_cause_Demand_Data_miss 0
Core_0_STLB_cause_Demand_Data_miss_rate 0
Core_0_STLB_cause_Demand_Instruction_miss 0
Core_0_STLB_cause_Demand_Instruction_miss_rate 0
Core_0_STLB_cause_L1D_Prefetch_miss 0
Core_0_STLB_cause_L1D_Prefetch_miss_rate 0
Core_0_STLB_cause_L1I_Prefetch_miss 0
Core_0_STLB_cause_L1I_Prefetch_miss_rate 0
Core_0_STLB_cause_Other_miss 0
Core_0_STLB_cause_Other_miss_rate 0
Core_0_STLB_Demand_miss 0
Core_0_STLB_Demand_miss_rate 0
Core_0_STLB_L1D_Prefetch_miss 0
Core_0_STLB_L1D_Prefetch_miss_rate 0
Core_0_STLB_Other_miss 0
Core_0_STLB_Other_miss_rate 0
