[VMEM] WARNING: physical memory size is smaller than virtual memory size.

*** ChampSim Multicore Out-of-Order Simulator ***
Warmup Instructions: 20000000
Simulation Instructions: 50000000
Number of CPUs: 1
Page size: 4096
STLB ideal mode: all
Core 0: /data0/tzh/champsim_traces/SPEC17/605.mcf_s-994B.champsimtrace.xz
 L1D Berti prefetcher
Off-chip DRAM Size: 4 GiB Channels: 1 Width: 64-bit Data Rate: 3205 MT/s
Warmup halting CPU 0 at instruction 20000004 cycle 4656603 for remainder of phase
Warmup finished CPU 0 instructions: 20000004 cycles: 4656603 cumulative IPC: 4.295 (Simulation time: 00 hr 01 min 04 sec)
Warmup complete CPU 0 instructions: 20000004 cycles: 4656603 cumulative IPC: 4.295 (Simulation time: 00 hr 01 min 04 sec)
Simulation finished CPU 0 instructions: 50000001 cycles: 121714273 cumulative IPC: 0.4108 (Simulation time: 00 hr 12 min 59 sec)
Simulation complete CPU 0 instructions: 50000001 cycles: 121714273 cumulative IPC: 0.4108 (Simulation time: 00 hr 12 min 59 sec)

ChampSim completed all CPUs

=== Simulation ===
CPU 0 runs /data0/tzh/champsim_traces/SPEC17/605.mcf_s-994B.champsimtrace.xz

Region of Interest Statistics

CPU 0 cumulative IPC: 0.4108 instructions: 50000001 cycles: 121714273
CPU 0 Branch Prediction Accuracy: 94.03% MPKI: 15.04 Average ROB Occupancy at Mispredict: 45.39
Branch type MPKI
BRANCH_DIRECT_JUMP: 0.1366
BRANCH_INDIRECT: 0
BRANCH_CONDITIONAL: 14.9
BRANCH_DIRECT_CALL: 0
BRANCH_INDIRECT_CALL: 0.00264
BRANCH_RETURN: 4e-05

cpu0->cpu0_STLB TOTAL        ACCESS:     849431 HIT:     849431 MISS:          0 MSHR_MERGE:          0
cpu0->cpu0_STLB LOAD         ACCESS:     849431 HIT:     849431 MISS:          0 MSHR_MERGE:          0
cpu0->cpu0_STLB RFO          ACCESS:          0 HIT:          0 MISS:          0 MSHR_MERGE:          0
cpu0->cpu0_STLB PREFETCH     ACCESS:          0 HIT:          0 MISS:          0 MSHR_MERGE:          0
cpu0->cpu0_STLB WRITE        ACCESS:          0 HIT:          0 MISS:          0 MSHR_MERGE:          0
cpu0->cpu0_STLB TRANSLATION  ACCESS:          0 HIT:          0 MISS:          0 MSHR_MERGE:          0
cpu0->cpu0_STLB PREFETCH REQUESTED:          0 ISSUED:          0 USEFUL:          0 USELESS:          0 LATE:          0
cpu0->cpu0_STLB AVERAGE MISS LATENCY: - cycles
cpu0->cpu0_L2C TOTAL        ACCESS:    6407828 HIT:    2227356 MISS:    4180472 MSHR_MERGE:     940175
cpu0->cpu0_L2C LOAD         ACCESS:    1658352 HIT:     452463 MISS:    1205889 MSHR_MERGE:      93312
cpu0->cpu0_L2C RFO          ACCESS:      14328 HIT:      11410 MISS:       2918 MSHR_MERGE:         32
cpu0->cpu0_L2C PREFETCH     ACCESS:    4598532 HIT:    1627152 MISS:    2971380 MSHR_MERGE:     846831
cpu0->cpu0_L2C WRITE        ACCESS:     136616 HIT:     136331 MISS:        285 MSHR_MERGE:          0
cpu0->cpu0_L2C TRANSLATION  ACCESS:          0 HIT:          0 MISS:          0 MSHR_MERGE:          0
cpu0->cpu0_L2C PREFETCH REQUESTED:    4091878 ISSUED:    3922592 USEFUL:     242666 USELESS:    1403713 LATE:      93344
cpu0->cpu0_L2C AVERAGE MISS LATENCY: 212.7 cycles
cpu0->cpu0_L1I TOTAL        ACCESS:      16836 HIT:      16836 MISS:          0 MSHR_MERGE:          0
cpu0->cpu0_L1I LOAD         ACCESS:      16836 HIT:      16836 MISS:          0 MSHR_MERGE:          0
cpu0->cpu0_L1I RFO          ACCESS:          0 HIT:          0 MISS:          0 MSHR_MERGE:          0
cpu0->cpu0_L1I PREFETCH     ACCESS:          0 HIT:          0 MISS:          0 MSHR_MERGE:          0
cpu0->cpu0_L1I WRITE        ACCESS:          0 HIT:          0 MISS:          0 MSHR_MERGE:          0
cpu0->cpu0_L1I TRANSLATION  ACCESS:          0 HIT:          0 MISS:          0 MSHR_MERGE:          0
cpu0->cpu0_L1I PREFETCH REQUESTED:          0 ISSUED:          0 USEFUL:          0 USELESS:          0 LATE:          0
cpu0->cpu0_L1I AVERAGE MISS LATENCY: - cycles
cpu0->cpu0_L1D TOTAL        ACCESS:   20685923 HIT:   18170666 MISS:    2515257 MSHR_MERGE:     166605
cpu0->cpu0_L1D LOAD         ACCESS:   14620709 HIT:   12874621 MISS:    1746088 MSHR_MERGE:      87736
cpu0->cpu0_L1D RFO          ACCESS:          0 HIT:          0 MISS:          0 MSHR_MERGE:          0
cpu0->cpu0_L1D PREFETCH     ACCESS:     981303 HIT:     255201 MISS:     726102 MSHR_MERGE:      50162
cpu0->cpu0_L1D WRITE        ACCESS:    5083911 HIT:    5040844 MISS:      43067 MSHR_MERGE:      28707
cpu0->cpu0_L1D TRANSLATION  ACCESS:          0 HIT:          0 MISS:          0 MSHR_MERGE:          0
cpu0->cpu0_L1D PREFETCH REQUESTED:     983396 ISSUED:     981295 USEFUL:     164791 USELESS:     511199 LATE:      19604
cpu0->cpu0_L1D AVERAGE MISS LATENCY: 161.5 cycles
cpu0->cpu0_ITLB TOTAL        ACCESS:      16764 HIT:      16764 MISS:          0 MSHR_MERGE:          0
cpu0->cpu0_ITLB LOAD         ACCESS:      16764 HIT:      16764 MISS:          0 MSHR_MERGE:          0
cpu0->cpu0_ITLB RFO          ACCESS:          0 HIT:          0 MISS:          0 MSHR_MERGE:          0
cpu0->cpu0_ITLB PREFETCH     ACCESS:          0 HIT:          0 MISS:          0 MSHR_MERGE:          0
cpu0->cpu0_ITLB WRITE        ACCESS:          0 HIT:          0 MISS:          0 MSHR_MERGE:          0
cpu0->cpu0_ITLB TRANSLATION  ACCESS:          0 HIT:          0 MISS:          0 MSHR_MERGE:          0
cpu0->cpu0_ITLB PREFETCH REQUESTED:          0 ISSUED:          0 USEFUL:          0 USELESS:          0 LATE:          0
cpu0->cpu0_ITLB AVERAGE MISS LATENCY: - cycles
cpu0->cpu0_DTLB TOTAL        ACCESS:   19750586 HIT:   18815869 MISS:     934717 MSHR_MERGE:      85286
cpu0->cpu0_DTLB LOAD         ACCESS:   19750586 HIT:   18815869 MISS:     934717 MSHR_MERGE:      85286
cpu0->cpu0_DTLB RFO          ACCESS:          0 HIT:          0 MISS:          0 MSHR_MERGE:          0
cpu0->cpu0_DTLB PREFETCH     ACCESS:          0 HIT:          0 MISS:          0 MSHR_MERGE:          0
cpu0->cpu0_DTLB WRITE        ACCESS:          0 HIT:          0 MISS:          0 MSHR_MERGE:          0
cpu0->cpu0_DTLB TRANSLATION  ACCESS:          0 HIT:          0 MISS:          0 MSHR_MERGE:          0
cpu0->cpu0_DTLB PREFETCH REQUESTED:          0 ISSUED:          0 USEFUL:          0 USELESS:          0 LATE:          0
cpu0->cpu0_DTLB AVERAGE MISS LATENCY: 5.001 cycles
cpu0->LLC TOTAL        ACCESS:    3338947 HIT:     553009 MISS:    2785938 MSHR_MERGE:          0
cpu0->LLC LOAD         ACCESS:    1112577 HIT:     200358 MISS:     912219 MSHR_MERGE:          0
cpu0->LLC RFO          ACCESS:       2886 HIT:       2063 MISS:        823 MSHR_MERGE:          0
cpu0->LLC PREFETCH     ACCESS:    2124549 HIT:     282296 MISS:    1842253 MSHR_MERGE:          0
cpu0->LLC WRITE        ACCESS:      98935 HIT:      68292 MISS:      30643 MSHR_MERGE:          0
cpu0->LLC TRANSLATION  ACCESS:          0 HIT:          0 MISS:          0 MSHR_MERGE:          0
cpu0->LLC PREFETCH REQUESTED:          0 ISSUED:          0 USEFUL:          0 USELESS:          0 LATE:          0
cpu0->LLC AVERAGE MISS LATENCY: 234.3 cycles

DRAM Statistics

Channel 0 RQ ROW_BUFFER_HIT:      16522
  ROW_BUFFER_MISS:    2738071
  AVG DBUS CONGESTED CYCLE: 3.727
Channel 0 WQ ROW_BUFFER_HIT:      16958
  ROW_BUFFER_MISS:      43395
  FULL:          0
Channel 0 REFRESHES ISSUED:      10142

[ROI Statistics]
[System Configuration]
num_cpus 1
cpu_freq 4000
fetch_width 6
decode_width 6
dispatch_width 6
execute_width 6
lq_width 2
sq_width 2
retire_width 6
scheduler_size 160
branch_mispredict_penalty 1
rob_size 352
lq_size 240
sq_size 112
ifetch_buffer_size 64
decode_buffer_size 32
dispatch_buffer_size 32
register_file_size 288
decode_latency 1
dispatch_latency 1
schedule_latency 0
execute_latency 0
page_size 4096
block_size 64
core_0_itlb_set 16
core_0_itlb_way 4
core_0_itlb_rq_size 16
core_0_itlb_wq_size 16
core_0_itlb_pq_size 0
core_0_itlb_mshr_size 8
core_0_itlb_hit_latency 1
core_0_itlb_fill_latency 1
core_0_itlb_max_tag_check 2
core_0_itlb_max_fill 2
core_0_dtlb_set 16
core_0_dtlb_way 4
core_0_dtlb_rq_size 16
core_0_dtlb_wq_size 16
core_0_dtlb_pq_size 0
core_0_dtlb_mshr_size 8
core_0_dtlb_hit_latency 1
core_0_dtlb_fill_latency 1
core_0_dtlb_max_tag_check 2
core_0_dtlb_max_fill 2
core_0_stlb_set 128
core_0_stlb_way 12
core_0_stlb_rq_size 32
core_0_stlb_wq_size 32
core_0_stlb_pq_size 0
core_0_stlb_mshr_size 16
core_0_stlb_hit_latency 4
core_0_stlb_fill_latency 4
core_0_stlb_max_tag_check 1
core_0_stlb_max_fill 1
core_0_l1i_set 64
core_0_l1i_way 8
core_0_l1i_rq_size 64
core_0_l1i_wq_size 64
core_0_l1i_pq_size 32
core_0_l1i_mshr_size 8
core_0_l1i_hit_latency 2
core_0_l1i_fill_latency 2
core_0_l1i_max_tag_check 2
core_0_l1i_max_fill 2
core_0_l1d_set 64
core_0_l1d_way 12
core_0_l1d_rq_size 64
core_0_l1d_wq_size 64
core_0_l1d_pq_size 8
core_0_l1d_mshr_size 16
core_0_l1d_hit_latency 2
core_0_l1d_fill_latency 3
core_0_l1d_max_tag_check 2
core_0_l1d_max_fill 2
core_0_l2c_set 1024
core_0_l2c_way 8
core_0_l2c_rq_size 32
core_0_l2c_wq_size 32
core_0_l2c_pq_size 16
core_0_l2c_mshr_size 32
core_0_l2c_hit_latency 5
core_0_l2c_fill_latency 5
core_0_l2c_max_tag_check 1
core_0_l2c_max_fill 1
llc_set 2048
llc_way 16
llc_rq_size 32
llc_wq_size 32
llc_pq_size 32
llc_mshr_size 64
llc_hit_latency 10
llc_fill_latency 10
llc_max_tag_check 1
llc_max_fill 1
dram_channels 1
dram_ranks 1
dram_bankgroups 8
dram_banks 4
dram_rows 16384
dram_columns 1024
dram_channel_width 8
dram_rq_size 64
dram_wq_size 64
dram_size 4294967296
core_0_itlb_prefetcher no
core_0_dtlb_prefetcher no
core_0_stlb_prefetcher no
core_0_l1i_prefetcher next_line
core_0_l1d_prefetcher berti
core_0_l2c_prefetcher pythia
llc_prefetcher no
llc_replacement drrip

Core_0_instructions 50000001
Core_0_cycles 121714273
Core_0_IPC 0.410798
Core_0_branch_prediction_accuracy 94.0339
Core_0_branch_MPKI 15.0351
Core_0_average_ROB_occupancy_at_mispredict 45.3926

Core_0_ITLB_total_access 16764
Core_0_ITLB_total_hit 16764
Core_0_ITLB_total_miss 0
Core_0_ITLB_total_MPKI 0
Core_0_ITLB_total_miss_rate 0
Core_0_ITLB_demand_access 16764
Core_0_ITLB_demand_hit 16764
Core_0_ITLB_demand_miss 0
Core_0_ITLB_demand_MPKI 0
Core_0_ITLB_demand_miss_rate 0
Core_0_ITLB_load_access 16764
Core_0_ITLB_load_hit 16764
Core_0_ITLB_load_miss 0
Core_0_ITLB_load_MPKI 0
Core_0_ITLB_load_miss_rate 0
Core_0_ITLB_rfo_access 0
Core_0_ITLB_rfo_hit 0
Core_0_ITLB_rfo_miss 0
Core_0_ITLB_rfo_MPKI 0
Core_0_ITLB_rfo_miss_rate 0
Core_0_ITLB_prefetch_access 0
Core_0_ITLB_prefetch_hit 0
Core_0_ITLB_prefetch_miss 0
Core_0_ITLB_prefetch_MPKI 0
Core_0_ITLB_prefetch_miss_rate 0
Core_0_ITLB_writeback_access 0
Core_0_ITLB_writeback_hit 0
Core_0_ITLB_writeback_miss 0
Core_0_ITLB_writeback_MPKI 0
Core_0_ITLB_writeback_miss_rate 0
Core_0_ITLB_prefetch_requested 0
Core_0_ITLB_prefetch_issued 0
Core_0_ITLB_prefetch_useful 0
Core_0_ITLB_prefetch_useless 0
Core_0_ITLB_prefetch_late 0
Core_0_ITLB_prefetch_accuracy 0
Core_0_ITLB_prefetch_coverage 0

Core_0_DTLB_total_access 19750586
Core_0_DTLB_total_hit 18815869
Core_0_DTLB_total_miss 934717
Core_0_DTLB_total_MPKI 18.6943
Core_0_DTLB_total_miss_rate 0.047326
Core_0_DTLB_demand_access 19750586
Core_0_DTLB_demand_hit 18815869
Core_0_DTLB_demand_miss 934717
Core_0_DTLB_demand_MPKI 18.6943
Core_0_DTLB_demand_miss_rate 0.047326
Core_0_DTLB_load_access 19750586
Core_0_DTLB_load_hit 18815869
Core_0_DTLB_load_miss 934717
Core_0_DTLB_load_MPKI 18.6943
Core_0_DTLB_load_miss_rate 0.047326
Core_0_DTLB_rfo_access 0
Core_0_DTLB_rfo_hit 0
Core_0_DTLB_rfo_miss 0
Core_0_DTLB_rfo_MPKI 0
Core_0_DTLB_rfo_miss_rate 0
Core_0_DTLB_prefetch_access 0
Core_0_DTLB_prefetch_hit 0
Core_0_DTLB_prefetch_miss 0
Core_0_DTLB_prefetch_MPKI 0
Core_0_DTLB_prefetch_miss_rate 0
Core_0_DTLB_writeback_access 0
Core_0_DTLB_writeback_hit 0
Core_0_DTLB_writeback_miss 0
Core_0_DTLB_writeback_MPKI 0
Core_0_DTLB_writeback_miss_rate 0
Core_0_DTLB_prefetch_requested 0
Core_0_DTLB_prefetch_issued 0
Core_0_DTLB_prefetch_useful 0
Core_0_DTLB_prefetch_useless 0
Core_0_DTLB_prefetch_late 0
Core_0_DTLB_prefetch_accuracy 0
Core_0_DTLB_prefetch_coverage 0

Core_0_STLB_total_access 849431
Core_0_STLB_total_hit 849431
Core_0_STLB_total_miss 0
Core_0_STLB_total_MPKI 0
Core_0_STLB_total_miss_rate 0
Core_0_STLB_demand_access 849431
Core_0_STLB_demand_hit 849431
Core_0_STLB_demand_miss 0
Core_0_STLB_demand_MPKI 0
Core_0_STLB_demand_miss_rate 0
Core_0_STLB_load_access 849431
Core_0_STLB_load_hit 849431
Core_0_STLB_load_miss 0
Core_0_STLB_load_MPKI 0
Core_0_STLB_load_miss_rate 0
Core_0_STLB_rfo_access 0
Core_0_STLB_rfo_hit 0
Core_0_STLB_rfo_miss 0
Core_0_STLB_rfo_MPKI 0
Core_0_STLB_rfo_miss_rate 0
Core_0_STLB_prefetch_access 0
Core_0_STLB_prefetch_hit 0
Core_0_STLB_prefetch_miss 0
Core_0_STLB_prefetch_MPKI 0
Core_0_STLB_prefetch_miss_rate 0
Core_0_STLB_writeback_access 0
Core_0_STLB_writeback_hit 0
Core_0_STLB_writeback_miss 0
Core_0_STLB_writeback_MPKI 0
Core_0_STLB_writeback_miss_rate 0
Core_0_STLB_prefetch_requested 0
Core_0_STLB_prefetch_issued 0
Core_0_STLB_prefetch_useful 0
Core_0_STLB_prefetch_useless 0
Core_0_STLB_prefetch_late 0
Core_0_STLB_prefetch_accuracy 0
Core_0_STLB_prefetch_coverage 0

Core_0_L1I_total_access 16836
Core_0_L1I_total_hit 16836
Core_0_L1I_total_miss 0
Core_0_L1I_total_MPKI 0
Core_0_L1I_total_miss_rate 0
Core_0_L1I_demand_access 16836
Core_0_L1I_demand_hit 16836
Core_0_L1I_demand_miss 0
Core_0_L1I_demand_MPKI 0
Core_0_L1I_demand_miss_rate 0
Core_0_L1I_load_access 16836
Core_0_L1I_load_hit 16836
Core_0_L1I_load_miss 0
Core_0_L1I_load_MPKI 0
Core_0_L1I_load_miss_rate 0
Core_0_L1I_rfo_access 0
Core_0_L1I_rfo_hit 0
Core_0_L1I_rfo_miss 0
Core_0_L1I_rfo_MPKI 0
Core_0_L1I_rfo_miss_rate 0
Core_0_L1I_prefetch_access 0
Core_0_L1I_prefetch_hit 0
Core_0_L1I_prefetch_miss 0
Core_0_L1I_prefetch_MPKI 0
Core_0_L1I_prefetch_miss_rate 0
Core_0_L1I_writeback_access 0
Core_0_L1I_writeback_hit 0
Core_0_L1I_writeback_miss 0
Core_0_L1I_writeback_MPKI 0
Core_0_L1I_writeback_miss_rate 0
Core_0_L1I_prefetch_requested 0
Core_0_L1I_prefetch_issued 0
Core_0_L1I_prefetch_useful 0
Core_0_L1I_prefetch_useless 0
Core_0_L1I_prefetch_late 0
Core_0_L1I_prefetch_accuracy 0
Core_0_L1I_prefetch_coverage 0

Core_0_L1D_total_access 20685923
Core_0_L1D_total_hit 18170666
Core_0_L1D_total_miss 2515257
Core_0_L1D_total_MPKI 50.3051
Core_0_L1D_total_miss_rate 0.121593
Core_0_L1D_demand_access 14620709
Core_0_L1D_demand_hit 12874621
Core_0_L1D_demand_miss 1746088
Core_0_L1D_demand_MPKI 34.9218
Core_0_L1D_demand_miss_rate 0.119426
Core_0_L1D_load_access 14620709
Core_0_L1D_load_hit 12874621
Core_0_L1D_load_miss 1746088
Core_0_L1D_load_MPKI 34.9218
Core_0_L1D_load_miss_rate 0.119426
Core_0_L1D_rfo_access 0
Core_0_L1D_rfo_hit 0
Core_0_L1D_rfo_miss 0
Core_0_L1D_rfo_MPKI 0
Core_0_L1D_rfo_miss_rate 0
Core_0_L1D_prefetch_access 981303
Core_0_L1D_prefetch_hit 255201
Core_0_L1D_prefetch_miss 726102
Core_0_L1D_prefetch_MPKI 14.522
Core_0_L1D_prefetch_miss_rate 0.739937
Core_0_L1D_writeback_access 5083911
Core_0_L1D_writeback_hit 5040844
Core_0_L1D_writeback_miss 43067
Core_0_L1D_writeback_MPKI 0.86134
Core_0_L1D_writeback_miss_rate 0.00847123
Core_0_L1D_prefetch_requested 983396
Core_0_L1D_prefetch_issued 981295
Core_0_L1D_prefetch_useful 164791
Core_0_L1D_prefetch_useless 511199
Core_0_L1D_prefetch_late 19604
Core_0_L1D_prefetch_accuracy 0.167932
Core_0_L1D_prefetch_coverage 0.0862383

Core_0_L2C_total_access 6407828
Core_0_L2C_total_hit 2227356
Core_0_L2C_total_miss 4180472
Core_0_L2C_total_MPKI 83.6094
Core_0_L2C_total_miss_rate 0.652401
Core_0_L2C_demand_access 1672680
Core_0_L2C_demand_hit 463873
Core_0_L2C_demand_miss 1208807
Core_0_L2C_demand_MPKI 24.1761
Core_0_L2C_demand_miss_rate 0.722677
Core_0_L2C_load_access 1658352
Core_0_L2C_load_hit 452463
Core_0_L2C_load_miss 1205889
Core_0_L2C_load_MPKI 24.1178
Core_0_L2C_load_miss_rate 0.727161
Core_0_L2C_rfo_access 14328
Core_0_L2C_rfo_hit 11410
Core_0_L2C_rfo_miss 2918
Core_0_L2C_rfo_MPKI 0.05836
Core_0_L2C_rfo_miss_rate 0.203657
Core_0_L2C_prefetch_access 4598532
Core_0_L2C_prefetch_hit 1627152
Core_0_L2C_prefetch_miss 2971380
Core_0_L2C_prefetch_MPKI 59.4276
Core_0_L2C_prefetch_miss_rate 0.646158
Core_0_L2C_writeback_access 136616
Core_0_L2C_writeback_hit 136331
Core_0_L2C_writeback_miss 285
Core_0_L2C_writeback_MPKI 0.0057
Core_0_L2C_writeback_miss_rate 0.00208614
Core_0_L2C_prefetch_requested 4091878
Core_0_L2C_prefetch_issued 3922592
Core_0_L2C_prefetch_useful 242666
Core_0_L2C_prefetch_useless 1403713
Core_0_L2C_prefetch_late 93344
Core_0_L2C_prefetch_accuracy 0.0618637
Core_0_L2C_prefetch_coverage 0.167186

Core_0_LLC_total_access 3338947
Core_0_LLC_total_hit 553009
Core_0_LLC_total_miss 2785938
Core_0_LLC_total_MPKI 55.7188
Core_0_LLC_total_miss_rate 0.834376
Core_0_LLC_demand_access 1115463
Core_0_LLC_demand_hit 202421
Core_0_LLC_demand_miss 913042
Core_0_LLC_demand_MPKI 18.2608
Core_0_LLC_demand_miss_rate 0.818532
Core_0_LLC_load_access 1112577
Core_0_LLC_load_hit 200358
Core_0_LLC_load_miss 912219
Core_0_LLC_load_MPKI 18.2444
Core_0_LLC_load_miss_rate 0.819915
Core_0_LLC_rfo_access 2886
Core_0_LLC_rfo_hit 2063
Core_0_LLC_rfo_miss 823
Core_0_LLC_rfo_MPKI 0.01646
Core_0_LLC_rfo_miss_rate 0.28517
Core_0_LLC_prefetch_access 2124549
Core_0_LLC_prefetch_hit 282296
Core_0_LLC_prefetch_miss 1842253
Core_0_LLC_prefetch_MPKI 36.8451
Core_0_LLC_prefetch_miss_rate 0.867127
Core_0_LLC_writeback_access 98935
Core_0_LLC_writeback_hit 68292
Core_0_LLC_writeback_miss 30643
Core_0_LLC_writeback_MPKI 0.61286
Core_0_LLC_writeback_miss_rate 0.309729
Core_0_LLC_prefetch_requested 0
Core_0_LLC_prefetch_issued 0
Core_0_LLC_prefetch_useful 0
Core_0_LLC_prefetch_useless 0
Core_0_LLC_prefetch_late 0
Core_0_LLC_prefetch_accuracy 0
Core_0_LLC_prefetch_coverage 0

[DRAM Statistics]
Channel_0_RQ_row_buffer_hit 16522
Channel_0_RQ_row_buffer_miss 2738071
Channel_0_WQ_row_buffer_hit 16958
Channel_0_WQ_row_buffer_miss 43395
Channel_0_WQ_full 0
Channel_0_dbus_congested 5964342
DRAM_total_RQ_row_buffer_hit 16522
DRAM_total_RQ_row_buffer_miss 2738071
DRAM_total_WQ_row_buffer_hit 16958
DRAM_total_WQ_row_buffer_miss 43395
DRAM_total_WQ_full 0
DRAM_total_dbus_congested 5964342
DRAM_avg_congested_cycle 3.72721

======STLB miss causes ========
Core_0_STLB_miss_cause_breakdown
Core_0_STLB_cause_Demand_Data_miss 0
Core_0_STLB_cause_Demand_Data_miss_rate 0
Core_0_STLB_cause_Demand_Instruction_miss 0
Core_0_STLB_cause_Demand_Instruction_miss_rate 0
Core_0_STLB_cause_L1D_Prefetch_miss 0
Core_0_STLB_cause_L1D_Prefetch_miss_rate 0
Core_0_STLB_cause_L1I_Prefetch_miss 0
Core_0_STLB_cause_L1I_Prefetch_miss_rate 0
Core_0_STLB_cause_Other_miss 0
Core_0_STLB_cause_Other_miss_rate 0
Core_0_STLB_Demand_miss 0
Core_0_STLB_Demand_miss_rate 0
Core_0_STLB_L1D_Prefetch_miss 0
Core_0_STLB_L1D_Prefetch_miss_rate 0
Core_0_STLB_Other_miss 0
Core_0_STLB_Other_miss_rate 0
