[VMEM] WARNING: physical memory size is smaller than virtual memory size.

*** ChampSim Multicore Out-of-Order Simulator ***
Warmup Instructions: 20000000
Simulation Instructions: 50000000
Number of CPUs: 1
Page size: 4096
STLB ideal mode: all
Core 0: /data0/tzh/champsim_traces/SPEC17/605.mcf_s-665B.champsimtrace.xz
 L1D Berti prefetcher
Off-chip DRAM Size: 4 GiB Channels: 1 Width: 64-bit Data Rate: 3205 MT/s
Warmup halting CPU 0 at instruction 20000005 cycle 5058321 for remainder of phase
Warmup finished CPU 0 instructions: 20000005 cycles: 5058321 cumulative IPC: 3.954 (Simulation time: 00 hr 01 min 12 sec)
Warmup complete CPU 0 instructions: 20000005 cycles: 5058321 cumulative IPC: 3.954 (Simulation time: 00 hr 01 min 12 sec)
Simulation finished CPU 0 instructions: 50000000 cycles: 111102433 cumulative IPC: 0.45 (Simulation time: 00 hr 10 min 04 sec)
Simulation complete CPU 0 instructions: 50000000 cycles: 111102433 cumulative IPC: 0.45 (Simulation time: 00 hr 10 min 04 sec)

ChampSim completed all CPUs

=== Simulation ===
CPU 0 runs /data0/tzh/champsim_traces/SPEC17/605.mcf_s-665B.champsimtrace.xz

Region of Interest Statistics

CPU 0 cumulative IPC: 0.45 instructions: 50000000 cycles: 111102433
CPU 0 Branch Prediction Accuracy: 90.05% MPKI: 24.79 Average ROB Occupancy at Mispredict: 18
Branch type MPKI
BRANCH_DIRECT_JUMP: 0.2108
BRANCH_INDIRECT: 0
BRANCH_CONDITIONAL: 24.57
BRANCH_DIRECT_CALL: 0
BRANCH_INDIRECT_CALL: 0.00482
BRANCH_RETURN: 0

cpu0->cpu0_STLB TOTAL        ACCESS:     920073 HIT:     920073 MISS:          0 MSHR_MERGE:          0
cpu0->cpu0_STLB LOAD         ACCESS:     920073 HIT:     920073 MISS:          0 MSHR_MERGE:          0
cpu0->cpu0_STLB RFO          ACCESS:          0 HIT:          0 MISS:          0 MSHR_MERGE:          0
cpu0->cpu0_STLB PREFETCH     ACCESS:          0 HIT:          0 MISS:          0 MSHR_MERGE:          0
cpu0->cpu0_STLB WRITE        ACCESS:          0 HIT:          0 MISS:          0 MSHR_MERGE:          0
cpu0->cpu0_STLB TRANSLATION  ACCESS:          0 HIT:          0 MISS:          0 MSHR_MERGE:          0
cpu0->cpu0_STLB PREFETCH REQUESTED:          0 ISSUED:          0 USEFUL:          0 USELESS:          0 LATE:          0
cpu0->cpu0_STLB AVERAGE MISS LATENCY: - cycles
cpu0->cpu0_L2C TOTAL        ACCESS:    7497532 HIT:    4801064 MISS:    2696468 MSHR_MERGE:     230748
cpu0->cpu0_L2C LOAD         ACCESS:    1314862 HIT:     537818 MISS:     777044 MSHR_MERGE:       1135
cpu0->cpu0_L2C RFO          ACCESS:     190541 HIT:      64682 MISS:     125859 MSHR_MERGE:          4
cpu0->cpu0_L2C PREFETCH     ACCESS:    5722411 HIT:    3929051 MISS:    1793360 MSHR_MERGE:     229609
cpu0->cpu0_L2C WRITE        ACCESS:     269718 HIT:     269513 MISS:        205 MSHR_MERGE:          0
cpu0->cpu0_L2C TRANSLATION  ACCESS:          0 HIT:          0 MISS:          0 MSHR_MERGE:          0
cpu0->cpu0_L2C PREFETCH REQUESTED:    5096316 ISSUED:    4924969 USEFUL:     553587 USELESS:     851042 LATE:       1139
cpu0->cpu0_L2C AVERAGE MISS LATENCY: 69.16 cycles
cpu0->cpu0_L1I TOTAL        ACCESS:      61565 HIT:      61565 MISS:          0 MSHR_MERGE:          0
cpu0->cpu0_L1I LOAD         ACCESS:      61565 HIT:      61565 MISS:          0 MSHR_MERGE:          0
cpu0->cpu0_L1I RFO          ACCESS:          0 HIT:          0 MISS:          0 MSHR_MERGE:          0
cpu0->cpu0_L1I PREFETCH     ACCESS:          0 HIT:          0 MISS:          0 MSHR_MERGE:          0
cpu0->cpu0_L1I WRITE        ACCESS:          0 HIT:          0 MISS:          0 MSHR_MERGE:          0
cpu0->cpu0_L1I TRANSLATION  ACCESS:          0 HIT:          0 MISS:          0 MSHR_MERGE:          0
cpu0->cpu0_L1I PREFETCH REQUESTED:          0 ISSUED:          0 USEFUL:          0 USELESS:          0 LATE:          0
cpu0->cpu0_L1I AVERAGE MISS LATENCY: - cycles
cpu0->cpu0_L1D TOTAL        ACCESS:   20874491 HIT:   18159943 MISS:    2714548 MSHR_MERGE:     411716
cpu0->cpu0_L1D LOAD         ACCESS:   13931862 HIT:   12541866 MISS:    1389996 MSHR_MERGE:      75135
cpu0->cpu0_L1D RFO          ACCESS:          0 HIT:          0 MISS:          0 MSHR_MERGE:          0
cpu0->cpu0_L1D PREFETCH     ACCESS:    1197342 HIT:     393795 MISS:     803547 MSHR_MERGE:       6119
cpu0->cpu0_L1D WRITE        ACCESS:    5745287 HIT:    5224282 MISS:     521005 MSHR_MERGE:     330462
cpu0->cpu0_L1D TRANSLATION  ACCESS:          0 HIT:          0 MISS:          0 MSHR_MERGE:          0
cpu0->cpu0_L1D PREFETCH REQUESTED:    1198329 ISSUED:    1197339 USEFUL:     504457 USELESS:     292945 LATE:      10199
cpu0->cpu0_L1D AVERAGE MISS LATENCY: 50.32 cycles
cpu0->cpu0_ITLB TOTAL        ACCESS:      59061 HIT:      59061 MISS:          0 MSHR_MERGE:          0
cpu0->cpu0_ITLB LOAD         ACCESS:      59061 HIT:      59061 MISS:          0 MSHR_MERGE:          0
cpu0->cpu0_ITLB RFO          ACCESS:          0 HIT:          0 MISS:          0 MSHR_MERGE:          0
cpu0->cpu0_ITLB PREFETCH     ACCESS:          0 HIT:          0 MISS:          0 MSHR_MERGE:          0
cpu0->cpu0_ITLB WRITE        ACCESS:          0 HIT:          0 MISS:          0 MSHR_MERGE:          0
cpu0->cpu0_ITLB TRANSLATION  ACCESS:          0 HIT:          0 MISS:          0 MSHR_MERGE:          0
cpu0->cpu0_ITLB PREFETCH REQUESTED:          0 ISSUED:          0 USEFUL:          0 USELESS:          0 LATE:          0
cpu0->cpu0_ITLB AVERAGE MISS LATENCY: - cycles
cpu0->cpu0_DTLB TOTAL        ACCESS:   19864814 HIT:   18654599 MISS:    1210215 MSHR_MERGE:     290142
cpu0->cpu0_DTLB LOAD         ACCESS:   19864814 HIT:   18654599 MISS:    1210215 MSHR_MERGE:     290142
cpu0->cpu0_DTLB RFO          ACCESS:          0 HIT:          0 MISS:          0 MSHR_MERGE:          0
cpu0->cpu0_DTLB PREFETCH     ACCESS:          0 HIT:          0 MISS:          0 MSHR_MERGE:          0
cpu0->cpu0_DTLB WRITE        ACCESS:          0 HIT:          0 MISS:          0 MSHR_MERGE:          0
cpu0->cpu0_DTLB TRANSLATION  ACCESS:          0 HIT:          0 MISS:          0 MSHR_MERGE:          0
cpu0->cpu0_DTLB PREFETCH REQUESTED:          0 ISSUED:          0 USEFUL:          0 USELESS:          0 LATE:          0
cpu0->cpu0_DTLB AVERAGE MISS LATENCY: 5.001 cycles
cpu0->LLC TOTAL        ACCESS:    2646701 HIT:    1638252 MISS:    1008449 MSHR_MERGE:          0
cpu0->LLC LOAD         ACCESS:     775909 HIT:     535079 MISS:     240830 MSHR_MERGE:          0
cpu0->LLC RFO          ACCESS:     125854 HIT:     122630 MISS:       3224 MSHR_MERGE:          0
cpu0->LLC PREFETCH     ACCESS:    1563750 HIT:     800230 MISS:     763520 MSHR_MERGE:          0
cpu0->LLC WRITE        ACCESS:     181188 HIT:     180313 MISS:        875 MSHR_MERGE:          0
cpu0->LLC TRANSLATION  ACCESS:          0 HIT:          0 MISS:          0 MSHR_MERGE:          0
cpu0->LLC PREFETCH REQUESTED:          0 ISSUED:          0 USEFUL:          0 USELESS:          0 LATE:          0
cpu0->LLC AVERAGE MISS LATENCY: 198.5 cycles

DRAM Statistics

Channel 0 RQ ROW_BUFFER_HIT:      65125
  ROW_BUFFER_MISS:     942115
  AVG DBUS CONGESTED CYCLE: 10.52
Channel 0 WQ ROW_BUFFER_HIT:       3809
  ROW_BUFFER_MISS:       8724
  FULL:          0
Channel 0 REFRESHES ISSUED:       9259

[ROI Statistics]
[System Configuration]
num_cpus 1
cpu_freq 4000
fetch_width 6
decode_width 6
dispatch_width 6
execute_width 6
lq_width 2
sq_width 2
retire_width 6
scheduler_size 160
branch_mispredict_penalty 1
rob_size 352
lq_size 240
sq_size 112
ifetch_buffer_size 64
decode_buffer_size 32
dispatch_buffer_size 32
register_file_size 288
decode_latency 1
dispatch_latency 1
schedule_latency 0
execute_latency 0
page_size 4096
block_size 64
core_0_itlb_set 16
core_0_itlb_way 4
core_0_itlb_rq_size 16
core_0_itlb_wq_size 16
core_0_itlb_pq_size 0
core_0_itlb_mshr_size 8
core_0_itlb_hit_latency 1
core_0_itlb_fill_latency 1
core_0_itlb_max_tag_check 2
core_0_itlb_max_fill 2
core_0_dtlb_set 16
core_0_dtlb_way 4
core_0_dtlb_rq_size 16
core_0_dtlb_wq_size 16
core_0_dtlb_pq_size 0
core_0_dtlb_mshr_size 8
core_0_dtlb_hit_latency 1
core_0_dtlb_fill_latency 1
core_0_dtlb_max_tag_check 2
core_0_dtlb_max_fill 2
core_0_stlb_set 128
core_0_stlb_way 12
core_0_stlb_rq_size 32
core_0_stlb_wq_size 32
core_0_stlb_pq_size 0
core_0_stlb_mshr_size 16
core_0_stlb_hit_latency 4
core_0_stlb_fill_latency 4
core_0_stlb_max_tag_check 1
core_0_stlb_max_fill 1
core_0_l1i_set 64
core_0_l1i_way 8
core_0_l1i_rq_size 64
core_0_l1i_wq_size 64
core_0_l1i_pq_size 32
core_0_l1i_mshr_size 8
core_0_l1i_hit_latency 2
core_0_l1i_fill_latency 2
core_0_l1i_max_tag_check 2
core_0_l1i_max_fill 2
core_0_l1d_set 64
core_0_l1d_way 12
core_0_l1d_rq_size 64
core_0_l1d_wq_size 64
core_0_l1d_pq_size 8
core_0_l1d_mshr_size 16
core_0_l1d_hit_latency 2
core_0_l1d_fill_latency 3
core_0_l1d_max_tag_check 2
core_0_l1d_max_fill 2
core_0_l2c_set 1024
core_0_l2c_way 8
core_0_l2c_rq_size 32
core_0_l2c_wq_size 32
core_0_l2c_pq_size 16
core_0_l2c_mshr_size 32
core_0_l2c_hit_latency 5
core_0_l2c_fill_latency 5
core_0_l2c_max_tag_check 1
core_0_l2c_max_fill 1
llc_set 2048
llc_way 16
llc_rq_size 32
llc_wq_size 32
llc_pq_size 32
llc_mshr_size 64
llc_hit_latency 10
llc_fill_latency 10
llc_max_tag_check 1
llc_max_fill 1
dram_channels 1
dram_ranks 1
dram_bankgroups 8
dram_banks 4
dram_rows 16384
dram_columns 1024
dram_channel_width 8
dram_rq_size 64
dram_wq_size 64
dram_size 4294967296
core_0_itlb_prefetcher no
core_0_dtlb_prefetcher no
core_0_stlb_prefetcher no
core_0_l1i_prefetcher next_line
core_0_l1d_prefetcher berti
core_0_l2c_prefetcher pythia
llc_prefetcher no
llc_replacement drrip

Core_0_instructions 50000000
Core_0_cycles 111102433
Core_0_IPC 0.450035
Core_0_branch_prediction_accuracy 90.0545
Core_0_branch_MPKI 24.7862
Core_0_average_ROB_occupancy_at_mispredict 17.9951

Core_0_ITLB_total_access 59061
Core_0_ITLB_total_hit 59061
Core_0_ITLB_total_miss 0
Core_0_ITLB_total_MPKI 0
Core_0_ITLB_total_miss_rate 0
Core_0_ITLB_demand_access 59061
Core_0_ITLB_demand_hit 59061
Core_0_ITLB_demand_miss 0
Core_0_ITLB_demand_MPKI 0
Core_0_ITLB_demand_miss_rate 0
Core_0_ITLB_load_access 59061
Core_0_ITLB_load_hit 59061
Core_0_ITLB_load_miss 0
Core_0_ITLB_load_MPKI 0
Core_0_ITLB_load_miss_rate 0
Core_0_ITLB_rfo_access 0
Core_0_ITLB_rfo_hit 0
Core_0_ITLB_rfo_miss 0
Core_0_ITLB_rfo_MPKI 0
Core_0_ITLB_rfo_miss_rate 0
Core_0_ITLB_prefetch_access 0
Core_0_ITLB_prefetch_hit 0
Core_0_ITLB_prefetch_miss 0
Core_0_ITLB_prefetch_MPKI 0
Core_0_ITLB_prefetch_miss_rate 0
Core_0_ITLB_writeback_access 0
Core_0_ITLB_writeback_hit 0
Core_0_ITLB_writeback_miss 0
Core_0_ITLB_writeback_MPKI 0
Core_0_ITLB_writeback_miss_rate 0
Core_0_ITLB_prefetch_requested 0
Core_0_ITLB_prefetch_issued 0
Core_0_ITLB_prefetch_useful 0
Core_0_ITLB_prefetch_useless 0
Core_0_ITLB_prefetch_late 0
Core_0_ITLB_prefetch_accuracy 0
Core_0_ITLB_prefetch_coverage 0

Core_0_DTLB_total_access 19864814
Core_0_DTLB_total_hit 18654599
Core_0_DTLB_total_miss 1210215
Core_0_DTLB_total_MPKI 24.2043
Core_0_DTLB_total_miss_rate 0.0609225
Core_0_DTLB_demand_access 19864814
Core_0_DTLB_demand_hit 18654599
Core_0_DTLB_demand_miss 1210215
Core_0_DTLB_demand_MPKI 24.2043
Core_0_DTLB_demand_miss_rate 0.0609225
Core_0_DTLB_load_access 19864814
Core_0_DTLB_load_hit 18654599
Core_0_DTLB_load_miss 1210215
Core_0_DTLB_load_MPKI 24.2043
Core_0_DTLB_load_miss_rate 0.0609225
Core_0_DTLB_rfo_access 0
Core_0_DTLB_rfo_hit 0
Core_0_DTLB_rfo_miss 0
Core_0_DTLB_rfo_MPKI 0
Core_0_DTLB_rfo_miss_rate 0
Core_0_DTLB_prefetch_access 0
Core_0_DTLB_prefetch_hit 0
Core_0_DTLB_prefetch_miss 0
Core_0_DTLB_prefetch_MPKI 0
Core_0_DTLB_prefetch_miss_rate 0
Core_0_DTLB_writeback_access 0
Core_0_DTLB_writeback_hit 0
Core_0_DTLB_writeback_miss 0
Core_0_DTLB_writeback_MPKI 0
Core_0_DTLB_writeback_miss_rate 0
Core_0_DTLB_prefetch_requested 0
Core_0_DTLB_prefetch_issued 0
Core_0_DTLB_prefetch_useful 0
Core_0_DTLB_prefetch_useless 0
Core_0_DTLB_prefetch_late 0
Core_0_DTLB_prefetch_accuracy 0
Core_0_DTLB_prefetch_coverage 0

Core_0_STLB_total_access 920073
Core_0_STLB_total_hit 920073
Core_0_STLB_total_miss 0
Core_0_STLB_total_MPKI 0
Core_0_STLB_total_miss_rate 0
Core_0_STLB_demand_access 920073
Core_0_STLB_demand_hit 920073
Core_0_STLB_demand_miss 0
Core_0_STLB_demand_MPKI 0
Core_0_STLB_demand_miss_rate 0
Core_0_STLB_load_access 920073
Core_0_STLB_load_hit 920073
Core_0_STLB_load_miss 0
Core_0_STLB_load_MPKI 0
Core_0_STLB_load_miss_rate 0
Core_0_STLB_rfo_access 0
Core_0_STLB_rfo_hit 0
Core_0_STLB_rfo_miss 0
Core_0_STLB_rfo_MPKI 0
Core_0_STLB_rfo_miss_rate 0
Core_0_STLB_prefetch_access 0
Core_0_STLB_prefetch_hit 0
Core_0_STLB_prefetch_miss 0
Core_0_STLB_prefetch_MPKI 0
Core_0_STLB_prefetch_miss_rate 0
Core_0_STLB_writeback_access 0
Core_0_STLB_writeback_hit 0
Core_0_STLB_writeback_miss 0
Core_0_STLB_writeback_MPKI 0
Core_0_STLB_writeback_miss_rate 0
Core_0_STLB_prefetch_requested 0
Core_0_STLB_prefetch_issued 0
Core_0_STLB_prefetch_useful 0
Core_0_STLB_prefetch_useless 0
Core_0_STLB_prefetch_late 0
Core_0_STLB_prefetch_accuracy 0
Core_0_STLB_prefetch_coverage 0

Core_0_L1I_total_access 61565
Core_0_L1I_total_hit 61565
Core_0_L1I_total_miss 0
Core_0_L1I_total_MPKI 0
Core_0_L1I_total_miss_rate 0
Core_0_L1I_demand_access 61565
Core_0_L1I_demand_hit 61565
Core_0_L1I_demand_miss 0
Core_0_L1I_demand_MPKI 0
Core_0_L1I_demand_miss_rate 0
Core_0_L1I_load_access 61565
Core_0_L1I_load_hit 61565
Core_0_L1I_load_miss 0
Core_0_L1I_load_MPKI 0
Core_0_L1I_load_miss_rate 0
Core_0_L1I_rfo_access 0
Core_0_L1I_rfo_hit 0
Core_0_L1I_rfo_miss 0
Core_0_L1I_rfo_MPKI 0
Core_0_L1I_rfo_miss_rate 0
Core_0_L1I_prefetch_access 0
Core_0_L1I_prefetch_hit 0
Core_0_L1I_prefetch_miss 0
Core_0_L1I_prefetch_MPKI 0
Core_0_L1I_prefetch_miss_rate 0
Core_0_L1I_writeback_access 0
Core_0_L1I_writeback_hit 0
Core_0_L1I_writeback_miss 0
Core_0_L1I_writeback_MPKI 0
Core_0_L1I_writeback_miss_rate 0
Core_0_L1I_prefetch_requested 0
Core_0_L1I_prefetch_issued 0
Core_0_L1I_prefetch_useful 0
Core_0_L1I_prefetch_useless 0
Core_0_L1I_prefetch_late 0
Core_0_L1I_prefetch_accuracy 0
Core_0_L1I_prefetch_coverage 0

Core_0_L1D_total_access 20874491
Core_0_L1D_total_hit 18159943
Core_0_L1D_total_miss 2714548
Core_0_L1D_total_MPKI 54.291
Core_0_L1D_total_miss_rate 0.130041
Core_0_L1D_demand_access 13931862
Core_0_L1D_demand_hit 12541866
Core_0_L1D_demand_miss 1389996
Core_0_L1D_demand_MPKI 27.7999
Core_0_L1D_demand_miss_rate 0.099771
Core_0_L1D_load_access 13931862
Core_0_L1D_load_hit 12541866
Core_0_L1D_load_miss 1389996
Core_0_L1D_load_MPKI 27.7999
Core_0_L1D_load_miss_rate 0.099771
Core_0_L1D_rfo_access 0
Core_0_L1D_rfo_hit 0
Core_0_L1D_rfo_miss 0
Core_0_L1D_rfo_MPKI 0
Core_0_L1D_rfo_miss_rate 0
Core_0_L1D_prefetch_access 1197342
Core_0_L1D_prefetch_hit 393795
Core_0_L1D_prefetch_miss 803547
Core_0_L1D_prefetch_MPKI 16.0709
Core_0_L1D_prefetch_miss_rate 0.671109
Core_0_L1D_writeback_access 5745287
Core_0_L1D_writeback_hit 5224282
Core_0_L1D_writeback_miss 521005
Core_0_L1D_writeback_MPKI 10.4201
Core_0_L1D_writeback_miss_rate 0.0906839
Core_0_L1D_prefetch_requested 1198329
Core_0_L1D_prefetch_issued 1197339
Core_0_L1D_prefetch_useful 504457
Core_0_L1D_prefetch_useless 292945
Core_0_L1D_prefetch_late 10199
Core_0_L1D_prefetch_accuracy 0.421315
Core_0_L1D_prefetch_coverage 0.266281

Core_0_L2C_total_access 7497532
Core_0_L2C_total_hit 4801064
Core_0_L2C_total_miss 2696468
Core_0_L2C_total_MPKI 53.9294
Core_0_L2C_total_miss_rate 0.359647
Core_0_L2C_demand_access 1505403
Core_0_L2C_demand_hit 602500
Core_0_L2C_demand_miss 902903
Core_0_L2C_demand_MPKI 18.0581
Core_0_L2C_demand_miss_rate 0.599775
Core_0_L2C_load_access 1314862
Core_0_L2C_load_hit 537818
Core_0_L2C_load_miss 777044
Core_0_L2C_load_MPKI 15.5409
Core_0_L2C_load_miss_rate 0.59097
Core_0_L2C_rfo_access 190541
Core_0_L2C_rfo_hit 64682
Core_0_L2C_rfo_miss 125859
Core_0_L2C_rfo_MPKI 2.51718
Core_0_L2C_rfo_miss_rate 0.660535
Core_0_L2C_prefetch_access 5722411
Core_0_L2C_prefetch_hit 3929051
Core_0_L2C_prefetch_miss 1793360
Core_0_L2C_prefetch_MPKI 35.8672
Core_0_L2C_prefetch_miss_rate 0.313392
Core_0_L2C_writeback_access 269718
Core_0_L2C_writeback_hit 269513
Core_0_L2C_writeback_miss 205
Core_0_L2C_writeback_MPKI 0.0041
Core_0_L2C_writeback_miss_rate 0.000760053
Core_0_L2C_prefetch_requested 5096316
Core_0_L2C_prefetch_issued 4924969
Core_0_L2C_prefetch_useful 553587
Core_0_L2C_prefetch_useless 851042
Core_0_L2C_prefetch_late 1139
Core_0_L2C_prefetch_accuracy 0.112404
Core_0_L2C_prefetch_coverage 0.380083

Core_0_LLC_total_access 2646701
Core_0_LLC_total_hit 1638252
Core_0_LLC_total_miss 1008449
Core_0_LLC_total_MPKI 20.169
Core_0_LLC_total_miss_rate 0.381021
Core_0_LLC_demand_access 901763
Core_0_LLC_demand_hit 657709
Core_0_LLC_demand_miss 244054
Core_0_LLC_demand_MPKI 4.88108
Core_0_LLC_demand_miss_rate 0.270641
Core_0_LLC_load_access 775909
Core_0_LLC_load_hit 535079
Core_0_LLC_load_miss 240830
Core_0_LLC_load_MPKI 4.8166
Core_0_LLC_load_miss_rate 0.310384
Core_0_LLC_rfo_access 125854
Core_0_LLC_rfo_hit 122630
Core_0_LLC_rfo_miss 3224
Core_0_LLC_rfo_MPKI 0.06448
Core_0_LLC_rfo_miss_rate 0.025617
Core_0_LLC_prefetch_access 1563750
Core_0_LLC_prefetch_hit 800230
Core_0_LLC_prefetch_miss 763520
Core_0_LLC_prefetch_MPKI 15.2704
Core_0_LLC_prefetch_miss_rate 0.488262
Core_0_LLC_writeback_access 181188
Core_0_LLC_writeback_hit 180313
Core_0_LLC_writeback_miss 875
Core_0_LLC_writeback_MPKI 0.0175
Core_0_LLC_writeback_miss_rate 0.00482924
Core_0_LLC_prefetch_requested 0
Core_0_LLC_prefetch_issued 0
Core_0_LLC_prefetch_useful 0
Core_0_LLC_prefetch_useless 0
Core_0_LLC_prefetch_late 0
Core_0_LLC_prefetch_accuracy 0
Core_0_LLC_prefetch_coverage 0

[DRAM Statistics]
Channel_0_RQ_row_buffer_hit 65125
Channel_0_RQ_row_buffer_miss 942115
Channel_0_WQ_row_buffer_hit 3809
Channel_0_WQ_row_buffer_miss 8724
Channel_0_WQ_full 0
Channel_0_dbus_congested 1815707
DRAM_total_RQ_row_buffer_hit 65125
DRAM_total_RQ_row_buffer_miss 942115
DRAM_total_WQ_row_buffer_hit 3809
DRAM_total_WQ_row_buffer_miss 8724
DRAM_total_WQ_full 0
DRAM_total_dbus_congested 1815707
DRAM_avg_congested_cycle 10.5232

======STLB miss causes ========
Core_0_STLB_miss_cause_breakdown
Core_0_STLB_cause_Demand_Data_miss 0
Core_0_STLB_cause_Demand_Data_miss_rate 0
Core_0_STLB_cause_Demand_Instruction_miss 0
Core_0_STLB_cause_Demand_Instruction_miss_rate 0
Core_0_STLB_cause_L1D_Prefetch_miss 0
Core_0_STLB_cause_L1D_Prefetch_miss_rate 0
Core_0_STLB_cause_L1I_Prefetch_miss 0
Core_0_STLB_cause_L1I_Prefetch_miss_rate 0
Core_0_STLB_cause_Other_miss 0
Core_0_STLB_cause_Other_miss_rate 0
Core_0_STLB_Demand_miss 0
Core_0_STLB_Demand_miss_rate 0
Core_0_STLB_L1D_Prefetch_miss 0
Core_0_STLB_L1D_Prefetch_miss_rate 0
Core_0_STLB_Other_miss 0
Core_0_STLB_Other_miss_rate 0
