[VMEM] WARNING: physical memory size is smaller than virtual memory size.

*** ChampSim Multicore Out-of-Order Simulator ***
Warmup Instructions: 20000000
Simulation Instructions: 50000000
Number of CPUs: 1
Page size: 4096
STLB ideal mode: all
Core 0: /data0/tzh/champsim_traces/SPEC17/621.wrf_s-6673B.champsimtrace.xz
 L1D Berti prefetcher
Off-chip DRAM Size: 4 GiB Channels: 1 Width: 64-bit Data Rate: 3205 MT/s
Warmup halting CPU 0 at instruction 20000001 cycle 4209701 for remainder of phase
Warmup finished CPU 0 instructions: 20000001 cycles: 4209701 cumulative IPC: 4.751 (Simulation time: 00 hr 00 min 53 sec)
Warmup complete CPU 0 instructions: 20000001 cycles: 4209701 cumulative IPC: 4.751 (Simulation time: 00 hr 00 min 53 sec)
Simulation finished CPU 0 instructions: 50000002 cycles: 31833689 cumulative IPC: 1.571 (Simulation time: 00 hr 06 min 19 sec)
Simulation complete CPU 0 instructions: 50000002 cycles: 31833689 cumulative IPC: 1.571 (Simulation time: 00 hr 06 min 19 sec)

ChampSim completed all CPUs

=== Simulation ===
CPU 0 runs /data0/tzh/champsim_traces/SPEC17/621.wrf_s-6673B.champsimtrace.xz

Region of Interest Statistics

CPU 0 cumulative IPC: 1.571 instructions: 50000002 cycles: 31833689
CPU 0 Branch Prediction Accuracy: 97.54% MPKI: 1.458 Average ROB Occupancy at Mispredict: 245.1
Branch type MPKI
BRANCH_DIRECT_JUMP: 0.00082
BRANCH_INDIRECT: 0
BRANCH_CONDITIONAL: 1.445
BRANCH_DIRECT_CALL: 0.00646
BRANCH_INDIRECT_CALL: 0
BRANCH_RETURN: 0.0058

cpu0->cpu0_STLB TOTAL        ACCESS:      88018 HIT:      88018 MISS:          0 MSHR_MERGE:          0
cpu0->cpu0_STLB LOAD         ACCESS:      88018 HIT:      88018 MISS:          0 MSHR_MERGE:          0
cpu0->cpu0_STLB RFO          ACCESS:          0 HIT:          0 MISS:          0 MSHR_MERGE:          0
cpu0->cpu0_STLB PREFETCH     ACCESS:          0 HIT:          0 MISS:          0 MSHR_MERGE:          0
cpu0->cpu0_STLB WRITE        ACCESS:          0 HIT:          0 MISS:          0 MSHR_MERGE:          0
cpu0->cpu0_STLB TRANSLATION  ACCESS:          0 HIT:          0 MISS:          0 MSHR_MERGE:          0
cpu0->cpu0_STLB PREFETCH REQUESTED:          0 ISSUED:          0 USEFUL:          0 USELESS:          0 LATE:          0
cpu0->cpu0_STLB AVERAGE MISS LATENCY: - cycles
cpu0->cpu0_L2C TOTAL        ACCESS:    6806599 HIT:    3648588 MISS:    3158011 MSHR_MERGE:    1952094
cpu0->cpu0_L2C LOAD         ACCESS:     314863 HIT:     207306 MISS:     107557 MSHR_MERGE:      49517
cpu0->cpu0_L2C RFO          ACCESS:     255041 HIT:      71013 MISS:     184028 MSHR_MERGE:       1377
cpu0->cpu0_L2C PREFETCH     ACCESS:    5671616 HIT:    2805230 MISS:    2866386 MSHR_MERGE:    1901200
cpu0->cpu0_L2C WRITE        ACCESS:     565079 HIT:     565039 MISS:         40 MSHR_MERGE:          0
cpu0->cpu0_L2C TRANSLATION  ACCESS:          0 HIT:          0 MISS:          0 MSHR_MERGE:          0
cpu0->cpu0_L2C PREFETCH REQUESTED:    6022702 ISSUED:    4757072 USEFUL:     686456 USELESS:     212407 LATE:      50894
cpu0->cpu0_L2C AVERAGE MISS LATENCY: 463.8 cycles
cpu0->cpu0_L1I TOTAL        ACCESS:    3598464 HIT:    3594794 MISS:       3670 MSHR_MERGE:       1282
cpu0->cpu0_L1I LOAD         ACCESS:    3598464 HIT:    3594794 MISS:       3670 MSHR_MERGE:       1282
cpu0->cpu0_L1I RFO          ACCESS:          0 HIT:          0 MISS:          0 MSHR_MERGE:          0
cpu0->cpu0_L1I PREFETCH     ACCESS:          0 HIT:          0 MISS:          0 MSHR_MERGE:          0
cpu0->cpu0_L1I WRITE        ACCESS:          0 HIT:          0 MISS:          0 MSHR_MERGE:          0
cpu0->cpu0_L1I TRANSLATION  ACCESS:          0 HIT:          0 MISS:          0 MSHR_MERGE:          0
cpu0->cpu0_L1I PREFETCH REQUESTED:          0 ISSUED:          0 USEFUL:          0 USELESS:          0 LATE:          0
cpu0->cpu0_L1I AVERAGE MISS LATENCY: 305.1 cycles
cpu0->cpu0_L1D TOTAL        ACCESS:   12512994 HIT:    9820068 MISS:    2692926 MSHR_MERGE:    1210851
cpu0->cpu0_L1D LOAD         ACCESS:    7890729 HIT:    7264967 MISS:     625762 MSHR_MERGE:     313287
cpu0->cpu0_L1D RFO          ACCESS:          0 HIT:          0 MISS:          0 MSHR_MERGE:          0
cpu0->cpu0_L1D PREFETCH     ACCESS:    1103357 HIT:     154259 MISS:     949098 MSHR_MERGE:      34557
cpu0->cpu0_L1D WRITE        ACCESS:    3518908 HIT:    2400842 MISS:    1118066 MSHR_MERGE:     863007
cpu0->cpu0_L1D TRANSLATION  ACCESS:          0 HIT:          0 MISS:          0 MSHR_MERGE:          0
cpu0->cpu0_L1D PREFETCH REQUESTED:    1243259 ISSUED:    1103349 USEFUL:     876518 USELESS:      38001 LATE:     104353
cpu0->cpu0_L1D AVERAGE MISS LATENCY: 243.7 cycles
cpu0->cpu0_ITLB TOTAL        ACCESS:    3087653 HIT:    3087490 MISS:        163 MSHR_MERGE:         80
cpu0->cpu0_ITLB LOAD         ACCESS:    3087653 HIT:    3087490 MISS:        163 MSHR_MERGE:         80
cpu0->cpu0_ITLB RFO          ACCESS:          0 HIT:          0 MISS:          0 MSHR_MERGE:          0
cpu0->cpu0_ITLB PREFETCH     ACCESS:          0 HIT:          0 MISS:          0 MSHR_MERGE:          0
cpu0->cpu0_ITLB WRITE        ACCESS:          0 HIT:          0 MISS:          0 MSHR_MERGE:          0
cpu0->cpu0_ITLB TRANSLATION  ACCESS:          0 HIT:          0 MISS:          0 MSHR_MERGE:          0
cpu0->cpu0_ITLB PREFETCH REQUESTED:          0 ISSUED:          0 USEFUL:          0 USELESS:          0 LATE:          0
cpu0->cpu0_ITLB AVERAGE MISS LATENCY: 5.012 cycles
cpu0->cpu0_DTLB TOTAL        ACCESS:   11763827 HIT:   11657401 MISS:     106426 MSHR_MERGE:      18491
cpu0->cpu0_DTLB LOAD         ACCESS:   11763827 HIT:   11657401 MISS:     106426 MSHR_MERGE:      18491
cpu0->cpu0_DTLB RFO          ACCESS:          0 HIT:          0 MISS:          0 MSHR_MERGE:          0
cpu0->cpu0_DTLB PREFETCH     ACCESS:          0 HIT:          0 MISS:          0 MSHR_MERGE:          0
cpu0->cpu0_DTLB WRITE        ACCESS:          0 HIT:          0 MISS:          0 MSHR_MERGE:          0
cpu0->cpu0_DTLB TRANSLATION  ACCESS:          0 HIT:          0 MISS:          0 MSHR_MERGE:          0
cpu0->cpu0_DTLB PREFETCH REQUESTED:          0 ISSUED:          0 USEFUL:          0 USELESS:          0 LATE:          0
cpu0->cpu0_DTLB AVERAGE MISS LATENCY: 5.048 cycles
cpu0->LLC TOTAL        ACCESS:    1651785 HIT:     255141 MISS:    1396644 MSHR_MERGE:          0
cpu0->LLC LOAD         ACCESS:      58039 HIT:      13430 MISS:      44609 MSHR_MERGE:          0
cpu0->LLC RFO          ACCESS:     182651 HIT:       6357 MISS:     176294 MSHR_MERGE:          0
cpu0->LLC PREFETCH     ACCESS:     965186 HIT:     118812 MISS:     846374 MSHR_MERGE:          0
cpu0->LLC WRITE        ACCESS:     445909 HIT:     116542 MISS:     329367 MSHR_MERGE:          0
cpu0->LLC TRANSLATION  ACCESS:          0 HIT:          0 MISS:          0 MSHR_MERGE:          0
cpu0->LLC PREFETCH REQUESTED:          0 ISSUED:          0 USEFUL:          0 USELESS:          0 LATE:          0
cpu0->LLC AVERAGE MISS LATENCY: 214.4 cycles

DRAM Statistics

Channel 0 RQ ROW_BUFFER_HIT:      61475
  ROW_BUFFER_MISS:    1005363
  AVG DBUS CONGESTED CYCLE: 5.939
Channel 0 WQ ROW_BUFFER_HIT:      31783
  ROW_BUFFER_MISS:     349609
  FULL:       9010
Channel 0 REFRESHES ISSUED:       2653

[ROI Statistics]
[System Configuration]
num_cpus 1
cpu_freq 4000
fetch_width 6
decode_width 6
dispatch_width 6
execute_width 6
lq_width 2
sq_width 2
retire_width 6
scheduler_size 160
branch_mispredict_penalty 1
rob_size 352
lq_size 240
sq_size 112
ifetch_buffer_size 64
decode_buffer_size 32
dispatch_buffer_size 32
register_file_size 288
decode_latency 1
dispatch_latency 1
schedule_latency 0
execute_latency 0
page_size 4096
block_size 64
core_0_itlb_set 16
core_0_itlb_way 4
core_0_itlb_rq_size 16
core_0_itlb_wq_size 16
core_0_itlb_pq_size 0
core_0_itlb_mshr_size 8
core_0_itlb_hit_latency 1
core_0_itlb_fill_latency 1
core_0_itlb_max_tag_check 2
core_0_itlb_max_fill 2
core_0_dtlb_set 16
core_0_dtlb_way 4
core_0_dtlb_rq_size 16
core_0_dtlb_wq_size 16
core_0_dtlb_pq_size 0
core_0_dtlb_mshr_size 8
core_0_dtlb_hit_latency 1
core_0_dtlb_fill_latency 1
core_0_dtlb_max_tag_check 2
core_0_dtlb_max_fill 2
core_0_stlb_set 128
core_0_stlb_way 12
core_0_stlb_rq_size 32
core_0_stlb_wq_size 32
core_0_stlb_pq_size 0
core_0_stlb_mshr_size 16
core_0_stlb_hit_latency 4
core_0_stlb_fill_latency 4
core_0_stlb_max_tag_check 1
core_0_stlb_max_fill 1
core_0_l1i_set 64
core_0_l1i_way 8
core_0_l1i_rq_size 64
core_0_l1i_wq_size 64
core_0_l1i_pq_size 32
core_0_l1i_mshr_size 8
core_0_l1i_hit_latency 2
core_0_l1i_fill_latency 2
core_0_l1i_max_tag_check 2
core_0_l1i_max_fill 2
core_0_l1d_set 64
core_0_l1d_way 12
core_0_l1d_rq_size 64
core_0_l1d_wq_size 64
core_0_l1d_pq_size 8
core_0_l1d_mshr_size 16
core_0_l1d_hit_latency 2
core_0_l1d_fill_latency 3
core_0_l1d_max_tag_check 2
core_0_l1d_max_fill 2
core_0_l2c_set 1024
core_0_l2c_way 8
core_0_l2c_rq_size 32
core_0_l2c_wq_size 32
core_0_l2c_pq_size 16
core_0_l2c_mshr_size 32
core_0_l2c_hit_latency 5
core_0_l2c_fill_latency 5
core_0_l2c_max_tag_check 1
core_0_l2c_max_fill 1
llc_set 2048
llc_way 16
llc_rq_size 32
llc_wq_size 32
llc_pq_size 32
llc_mshr_size 64
llc_hit_latency 10
llc_fill_latency 10
llc_max_tag_check 1
llc_max_fill 1
dram_channels 1
dram_ranks 1
dram_bankgroups 8
dram_banks 4
dram_rows 16384
dram_columns 1024
dram_channel_width 8
dram_rq_size 64
dram_wq_size 64
dram_size 4294967296
core_0_itlb_prefetcher no
core_0_dtlb_prefetcher no
core_0_stlb_prefetcher no
core_0_l1i_prefetcher next_line
core_0_l1d_prefetcher berti
core_0_l2c_prefetcher pythia
llc_prefetcher no
llc_replacement drrip

Core_0_instructions 50000002
Core_0_cycles 31833689
Core_0_IPC 1.57066
Core_0_branch_prediction_accuracy 97.5425
Core_0_branch_MPKI 1.45784
Core_0_average_ROB_occupancy_at_mispredict 245.11

Core_0_ITLB_total_access 3087653
Core_0_ITLB_total_hit 3087490
Core_0_ITLB_total_miss 163
Core_0_ITLB_total_MPKI 0.00326
Core_0_ITLB_total_miss_rate 5.27909e-05
Core_0_ITLB_demand_access 3087653
Core_0_ITLB_demand_hit 3087490
Core_0_ITLB_demand_miss 163
Core_0_ITLB_demand_MPKI 0.00326
Core_0_ITLB_demand_miss_rate 5.27909e-05
Core_0_ITLB_load_access 3087653
Core_0_ITLB_load_hit 3087490
Core_0_ITLB_load_miss 163
Core_0_ITLB_load_MPKI 0.00326
Core_0_ITLB_load_miss_rate 5.27909e-05
Core_0_ITLB_rfo_access 0
Core_0_ITLB_rfo_hit 0
Core_0_ITLB_rfo_miss 0
Core_0_ITLB_rfo_MPKI 0
Core_0_ITLB_rfo_miss_rate 0
Core_0_ITLB_prefetch_access 0
Core_0_ITLB_prefetch_hit 0
Core_0_ITLB_prefetch_miss 0
Core_0_ITLB_prefetch_MPKI 0
Core_0_ITLB_prefetch_miss_rate 0
Core_0_ITLB_writeback_access 0
Core_0_ITLB_writeback_hit 0
Core_0_ITLB_writeback_miss 0
Core_0_ITLB_writeback_MPKI 0
Core_0_ITLB_writeback_miss_rate 0
Core_0_ITLB_prefetch_requested 0
Core_0_ITLB_prefetch_issued 0
Core_0_ITLB_prefetch_useful 0
Core_0_ITLB_prefetch_useless 0
Core_0_ITLB_prefetch_late 0
Core_0_ITLB_prefetch_accuracy 0
Core_0_ITLB_prefetch_coverage 0

Core_0_DTLB_total_access 11763827
Core_0_DTLB_total_hit 11657401
Core_0_DTLB_total_miss 106426
Core_0_DTLB_total_MPKI 2.12852
Core_0_DTLB_total_miss_rate 0.00904689
Core_0_DTLB_demand_access 11763827
Core_0_DTLB_demand_hit 11657401
Core_0_DTLB_demand_miss 106426
Core_0_DTLB_demand_MPKI 2.12852
Core_0_DTLB_demand_miss_rate 0.00904689
Core_0_DTLB_load_access 11763827
Core_0_DTLB_load_hit 11657401
Core_0_DTLB_load_miss 106426
Core_0_DTLB_load_MPKI 2.12852
Core_0_DTLB_load_miss_rate 0.00904689
Core_0_DTLB_rfo_access 0
Core_0_DTLB_rfo_hit 0
Core_0_DTLB_rfo_miss 0
Core_0_DTLB_rfo_MPKI 0
Core_0_DTLB_rfo_miss_rate 0
Core_0_DTLB_prefetch_access 0
Core_0_DTLB_prefetch_hit 0
Core_0_DTLB_prefetch_miss 0
Core_0_DTLB_prefetch_MPKI 0
Core_0_DTLB_prefetch_miss_rate 0
Core_0_DTLB_writeback_access 0
Core_0_DTLB_writeback_hit 0
Core_0_DTLB_writeback_miss 0
Core_0_DTLB_writeback_MPKI 0
Core_0_DTLB_writeback_miss_rate 0
Core_0_DTLB_prefetch_requested 0
Core_0_DTLB_prefetch_issued 0
Core_0_DTLB_prefetch_useful 0
Core_0_DTLB_prefetch_useless 0
Core_0_DTLB_prefetch_late 0
Core_0_DTLB_prefetch_accuracy 0
Core_0_DTLB_prefetch_coverage 0

Core_0_STLB_total_access 88018
Core_0_STLB_total_hit 88018
Core_0_STLB_total_miss 0
Core_0_STLB_total_MPKI 0
Core_0_STLB_total_miss_rate 0
Core_0_STLB_demand_access 88018
Core_0_STLB_demand_hit 88018
Core_0_STLB_demand_miss 0
Core_0_STLB_demand_MPKI 0
Core_0_STLB_demand_miss_rate 0
Core_0_STLB_load_access 88018
Core_0_STLB_load_hit 88018
Core_0_STLB_load_miss 0
Core_0_STLB_load_MPKI 0
Core_0_STLB_load_miss_rate 0
Core_0_STLB_rfo_access 0
Core_0_STLB_rfo_hit 0
Core_0_STLB_rfo_miss 0
Core_0_STLB_rfo_MPKI 0
Core_0_STLB_rfo_miss_rate 0
Core_0_STLB_prefetch_access 0
Core_0_STLB_prefetch_hit 0
Core_0_STLB_prefetch_miss 0
Core_0_STLB_prefetch_MPKI 0
Core_0_STLB_prefetch_miss_rate 0
Core_0_STLB_writeback_access 0
Core_0_STLB_writeback_hit 0
Core_0_STLB_writeback_miss 0
Core_0_STLB_writeback_MPKI 0
Core_0_STLB_writeback_miss_rate 0
Core_0_STLB_prefetch_requested 0
Core_0_STLB_prefetch_issued 0
Core_0_STLB_prefetch_useful 0
Core_0_STLB_prefetch_useless 0
Core_0_STLB_prefetch_late 0
Core_0_STLB_prefetch_accuracy 0
Core_0_STLB_prefetch_coverage 0

Core_0_L1I_total_access 3598464
Core_0_L1I_total_hit 3594794
Core_0_L1I_total_miss 3670
Core_0_L1I_total_MPKI 0.0734
Core_0_L1I_total_miss_rate 0.00101988
Core_0_L1I_demand_access 3598464
Core_0_L1I_demand_hit 3594794
Core_0_L1I_demand_miss 3670
Core_0_L1I_demand_MPKI 0.0734
Core_0_L1I_demand_miss_rate 0.00101988
Core_0_L1I_load_access 3598464
Core_0_L1I_load_hit 3594794
Core_0_L1I_load_miss 3670
Core_0_L1I_load_MPKI 0.0734
Core_0_L1I_load_miss_rate 0.00101988
Core_0_L1I_rfo_access 0
Core_0_L1I_rfo_hit 0
Core_0_L1I_rfo_miss 0
Core_0_L1I_rfo_MPKI 0
Core_0_L1I_rfo_miss_rate 0
Core_0_L1I_prefetch_access 0
Core_0_L1I_prefetch_hit 0
Core_0_L1I_prefetch_miss 0
Core_0_L1I_prefetch_MPKI 0
Core_0_L1I_prefetch_miss_rate 0
Core_0_L1I_writeback_access 0
Core_0_L1I_writeback_hit 0
Core_0_L1I_writeback_miss 0
Core_0_L1I_writeback_MPKI 0
Core_0_L1I_writeback_miss_rate 0
Core_0_L1I_prefetch_requested 0
Core_0_L1I_prefetch_issued 0
Core_0_L1I_prefetch_useful 0
Core_0_L1I_prefetch_useless 0
Core_0_L1I_prefetch_late 0
Core_0_L1I_prefetch_accuracy 0
Core_0_L1I_prefetch_coverage 0

Core_0_L1D_total_access 12512994
Core_0_L1D_total_hit 9820068
Core_0_L1D_total_miss 2692926
Core_0_L1D_total_MPKI 53.8585
Core_0_L1D_total_miss_rate 0.21521
Core_0_L1D_demand_access 7890729
Core_0_L1D_demand_hit 7264967
Core_0_L1D_demand_miss 625762
Core_0_L1D_demand_MPKI 12.5152
Core_0_L1D_demand_miss_rate 0.0793034
Core_0_L1D_load_access 7890729
Core_0_L1D_load_hit 7264967
Core_0_L1D_load_miss 625762
Core_0_L1D_load_MPKI 12.5152
Core_0_L1D_load_miss_rate 0.0793034
Core_0_L1D_rfo_access 0
Core_0_L1D_rfo_hit 0
Core_0_L1D_rfo_miss 0
Core_0_L1D_rfo_MPKI 0
Core_0_L1D_rfo_miss_rate 0
Core_0_L1D_prefetch_access 1103357
Core_0_L1D_prefetch_hit 154259
Core_0_L1D_prefetch_miss 949098
Core_0_L1D_prefetch_MPKI 18.982
Core_0_L1D_prefetch_miss_rate 0.860191
Core_0_L1D_writeback_access 3518908
Core_0_L1D_writeback_hit 2400842
Core_0_L1D_writeback_miss 1118066
Core_0_L1D_writeback_MPKI 22.3613
Core_0_L1D_writeback_miss_rate 0.317731
Core_0_L1D_prefetch_requested 1243259
Core_0_L1D_prefetch_issued 1103349
Core_0_L1D_prefetch_useful 876518
Core_0_L1D_prefetch_useless 38001
Core_0_L1D_prefetch_late 104353
Core_0_L1D_prefetch_accuracy 0.794416
Core_0_L1D_prefetch_coverage 0.583458

Core_0_L2C_total_access 6806599
Core_0_L2C_total_hit 3648588
Core_0_L2C_total_miss 3158011
Core_0_L2C_total_MPKI 63.1602
Core_0_L2C_total_miss_rate 0.463963
Core_0_L2C_demand_access 569904
Core_0_L2C_demand_hit 278319
Core_0_L2C_demand_miss 291585
Core_0_L2C_demand_MPKI 5.8317
Core_0_L2C_demand_miss_rate 0.511639
Core_0_L2C_load_access 314863
Core_0_L2C_load_hit 207306
Core_0_L2C_load_miss 107557
Core_0_L2C_load_MPKI 2.15114
Core_0_L2C_load_miss_rate 0.341599
Core_0_L2C_rfo_access 255041
Core_0_L2C_rfo_hit 71013
Core_0_L2C_rfo_miss 184028
Core_0_L2C_rfo_MPKI 3.68056
Core_0_L2C_rfo_miss_rate 0.721562
Core_0_L2C_prefetch_access 5671616
Core_0_L2C_prefetch_hit 2805230
Core_0_L2C_prefetch_miss 2866386
Core_0_L2C_prefetch_MPKI 57.3277
Core_0_L2C_prefetch_miss_rate 0.505391
Core_0_L2C_writeback_access 565079
Core_0_L2C_writeback_hit 565039
Core_0_L2C_writeback_miss 40
Core_0_L2C_writeback_MPKI 0.0008
Core_0_L2C_writeback_miss_rate 7.07866e-05
Core_0_L2C_prefetch_requested 6022702
Core_0_L2C_prefetch_issued 4757072
Core_0_L2C_prefetch_useful 686456
Core_0_L2C_prefetch_useless 212407
Core_0_L2C_prefetch_late 50894
Core_0_L2C_prefetch_accuracy 0.144302
Core_0_L2C_prefetch_coverage 0.701868

Core_0_LLC_total_access 1651785
Core_0_LLC_total_hit 255141
Core_0_LLC_total_miss 1396644
Core_0_LLC_total_MPKI 27.9329
Core_0_LLC_total_miss_rate 0.845536
Core_0_LLC_demand_access 240690
Core_0_LLC_demand_hit 19787
Core_0_LLC_demand_miss 220903
Core_0_LLC_demand_MPKI 4.41806
Core_0_LLC_demand_miss_rate 0.917791
Core_0_LLC_load_access 58039
Core_0_LLC_load_hit 13430
Core_0_LLC_load_miss 44609
Core_0_LLC_load_MPKI 0.89218
Core_0_LLC_load_miss_rate 0.768604
Core_0_LLC_rfo_access 182651
Core_0_LLC_rfo_hit 6357
Core_0_LLC_rfo_miss 176294
Core_0_LLC_rfo_MPKI 3.52588
Core_0_LLC_rfo_miss_rate 0.965196
Core_0_LLC_prefetch_access 965186
Core_0_LLC_prefetch_hit 118812
Core_0_LLC_prefetch_miss 846374
Core_0_LLC_prefetch_MPKI 16.9275
Core_0_LLC_prefetch_miss_rate 0.876902
Core_0_LLC_writeback_access 445909
Core_0_LLC_writeback_hit 116542
Core_0_LLC_writeback_miss 329367
Core_0_LLC_writeback_MPKI 6.58734
Core_0_LLC_writeback_miss_rate 0.738642
Core_0_LLC_prefetch_requested 0
Core_0_LLC_prefetch_issued 0
Core_0_LLC_prefetch_useful 0
Core_0_LLC_prefetch_useless 0
Core_0_LLC_prefetch_late 0
Core_0_LLC_prefetch_accuracy 0
Core_0_LLC_prefetch_coverage 0

[DRAM Statistics]
Channel_0_RQ_row_buffer_hit 61475
Channel_0_RQ_row_buffer_miss 1005363
Channel_0_WQ_row_buffer_hit 31783
Channel_0_WQ_row_buffer_miss 349609
Channel_0_WQ_full 9010
Channel_0_dbus_congested 4355574
DRAM_total_RQ_row_buffer_hit 61475
DRAM_total_RQ_row_buffer_miss 1005363
DRAM_total_WQ_row_buffer_hit 31783
DRAM_total_WQ_row_buffer_miss 349609
DRAM_total_WQ_full 9010
DRAM_total_dbus_congested 4355574
DRAM_avg_congested_cycle 5.93911

======STLB miss causes ========
Core_0_STLB_miss_cause_breakdown
Core_0_STLB_cause_Demand_Data_miss 0
Core_0_STLB_cause_Demand_Data_miss_rate 0
Core_0_STLB_cause_Demand_Instruction_miss 0
Core_0_STLB_cause_Demand_Instruction_miss_rate 0
Core_0_STLB_cause_L1D_Prefetch_miss 0
Core_0_STLB_cause_L1D_Prefetch_miss_rate 0
Core_0_STLB_cause_L1I_Prefetch_miss 0
Core_0_STLB_cause_L1I_Prefetch_miss_rate 0
Core_0_STLB_cause_Other_miss 0
Core_0_STLB_cause_Other_miss_rate 0
Core_0_STLB_Demand_miss 0
Core_0_STLB_Demand_miss_rate 0
Core_0_STLB_L1D_Prefetch_miss 0
Core_0_STLB_L1D_Prefetch_miss_rate 0
Core_0_STLB_Other_miss 0
Core_0_STLB_Other_miss_rate 0
