[VMEM] WARNING: physical memory size is smaller than virtual memory size.

*** ChampSim Multicore Out-of-Order Simulator ***
Warmup Instructions: 20000000
Simulation Instructions: 50000000
Number of CPUs: 1
Page size: 4096
STLB ideal mode: all
Core 0: /data0/tzh/champsim_traces/SPEC17/641.leela_s-1083B.champsimtrace.xz
 L1D Berti prefetcher
Off-chip DRAM Size: 4 GiB Channels: 1 Width: 64-bit Data Rate: 3205 MT/s
Warmup halting CPU 0 at instruction 20000004 cycle 4284887 for remainder of phase
Warmup finished CPU 0 instructions: 20000004 cycles: 4284887 cumulative IPC: 4.668 (Simulation time: 00 hr 00 min 53 sec)
Warmup complete CPU 0 instructions: 20000004 cycles: 4284887 cumulative IPC: 4.668 (Simulation time: 00 hr 00 min 53 sec)
Simulation finished CPU 0 instructions: 50000001 cycles: 30486769 cumulative IPC: 1.64 (Simulation time: 00 hr 05 min 07 sec)
Simulation complete CPU 0 instructions: 50000001 cycles: 30486769 cumulative IPC: 1.64 (Simulation time: 00 hr 05 min 07 sec)

ChampSim completed all CPUs

=== Simulation ===
CPU 0 runs /data0/tzh/champsim_traces/SPEC17/641.leela_s-1083B.champsimtrace.xz

Region of Interest Statistics

CPU 0 cumulative IPC: 1.64 instructions: 50000001 cycles: 30486769
CPU 0 Branch Prediction Accuracy: 89.11% MPKI: 18.31 Average ROB Occupancy at Mispredict: 27.83
Branch type MPKI
BRANCH_DIRECT_JUMP: 0.08876
BRANCH_INDIRECT: 0.00048
BRANCH_CONDITIONAL: 18.19
BRANCH_DIRECT_CALL: 0.00018
BRANCH_INDIRECT_CALL: 0
BRANCH_RETURN: 0.03592

cpu0->cpu0_STLB TOTAL        ACCESS:      24082 HIT:      24082 MISS:          0 MSHR_MERGE:          0
cpu0->cpu0_STLB LOAD         ACCESS:      24082 HIT:      24082 MISS:          0 MSHR_MERGE:          0
cpu0->cpu0_STLB RFO          ACCESS:          0 HIT:          0 MISS:          0 MSHR_MERGE:          0
cpu0->cpu0_STLB PREFETCH     ACCESS:          0 HIT:          0 MISS:          0 MSHR_MERGE:          0
cpu0->cpu0_STLB WRITE        ACCESS:          0 HIT:          0 MISS:          0 MSHR_MERGE:          0
cpu0->cpu0_STLB TRANSLATION  ACCESS:          0 HIT:          0 MISS:          0 MSHR_MERGE:          0
cpu0->cpu0_STLB PREFETCH REQUESTED:          0 ISSUED:          0 USEFUL:          0 USELESS:          0 LATE:          0
cpu0->cpu0_STLB AVERAGE MISS LATENCY: - cycles
cpu0->cpu0_L2C TOTAL        ACCESS:     422131 HIT:     406147 MISS:      15984 MSHR_MERGE:       2892
cpu0->cpu0_L2C LOAD         ACCESS:      67988 HIT:      66088 MISS:       1900 MSHR_MERGE:         54
cpu0->cpu0_L2C RFO          ACCESS:      14705 HIT:      14642 MISS:         63 MSHR_MERGE:          2
cpu0->cpu0_L2C PREFETCH     ACCESS:     309288 HIT:     295268 MISS:      14020 MSHR_MERGE:       2836
cpu0->cpu0_L2C WRITE        ACCESS:      30150 HIT:      30149 MISS:          1 MSHR_MERGE:          0
cpu0->cpu0_L2C TRANSLATION  ACCESS:          0 HIT:          0 MISS:          0 MSHR_MERGE:          0
cpu0->cpu0_L2C PREFETCH REQUESTED:     240895 ISSUED:     235343 USEFUL:       3575 USELESS:       4896 LATE:         56
cpu0->cpu0_L2C AVERAGE MISS LATENCY: 55.25 cycles
cpu0->cpu0_L1I TOTAL        ACCESS:      64247 HIT:      64227 MISS:         20 MSHR_MERGE:          7
cpu0->cpu0_L1I LOAD         ACCESS:      64247 HIT:      64227 MISS:         20 MSHR_MERGE:          7
cpu0->cpu0_L1I RFO          ACCESS:          0 HIT:          0 MISS:          0 MSHR_MERGE:          0
cpu0->cpu0_L1I PREFETCH     ACCESS:          0 HIT:          0 MISS:          0 MSHR_MERGE:          0
cpu0->cpu0_L1I WRITE        ACCESS:          0 HIT:          0 MISS:          0 MSHR_MERGE:          0
cpu0->cpu0_L1I TRANSLATION  ACCESS:          0 HIT:          0 MISS:          0 MSHR_MERGE:          0
cpu0->cpu0_L1I PREFETCH REQUESTED:          0 ISSUED:          0 USEFUL:          0 USELESS:          0 LATE:          0
cpu0->cpu0_L1I AVERAGE MISS LATENCY: 126.8 cycles
cpu0->cpu0_L1D TOTAL        ACCESS:   14543495 HIT:   14350055 MISS:     193440 MSHR_MERGE:      36814
cpu0->cpu0_L1D LOAD         ACCESS:    8790383 HIT:    8714147 MISS:      76236 MSHR_MERGE:       8261
cpu0->cpu0_L1D RFO          ACCESS:          0 HIT:          0 MISS:          0 MSHR_MERGE:          0
cpu0->cpu0_L1D PREFETCH     ACCESS:     138033 HIT:      62448 MISS:      75585 MSHR_MERGE:       1639
cpu0->cpu0_L1D WRITE        ACCESS:    5615079 HIT:    5573460 MISS:      41619 MSHR_MERGE:      26914
cpu0->cpu0_L1D TRANSLATION  ACCESS:          0 HIT:          0 MISS:          0 MSHR_MERGE:          0
cpu0->cpu0_L1D PREFETCH REQUESTED:     147292 ISSUED:     138033 USEFUL:      48429 USELESS:      25517 LATE:       3580
cpu0->cpu0_L1D AVERAGE MISS LATENCY: 9.449 cycles
cpu0->cpu0_ITLB TOTAL        ACCESS:      63977 HIT:      63977 MISS:          0 MSHR_MERGE:          0
cpu0->cpu0_ITLB LOAD         ACCESS:      63977 HIT:      63977 MISS:          0 MSHR_MERGE:          0
cpu0->cpu0_ITLB RFO          ACCESS:          0 HIT:          0 MISS:          0 MSHR_MERGE:          0
cpu0->cpu0_ITLB PREFETCH     ACCESS:          0 HIT:          0 MISS:          0 MSHR_MERGE:          0
cpu0->cpu0_ITLB WRITE        ACCESS:          0 HIT:          0 MISS:          0 MSHR_MERGE:          0
cpu0->cpu0_ITLB TRANSLATION  ACCESS:          0 HIT:          0 MISS:          0 MSHR_MERGE:          0
cpu0->cpu0_ITLB PREFETCH REQUESTED:          0 ISSUED:          0 USEFUL:          0 USELESS:          0 LATE:          0
cpu0->cpu0_ITLB AVERAGE MISS LATENCY: - cycles
cpu0->cpu0_DTLB TOTAL        ACCESS:   13742793 HIT:   13715636 MISS:      27157 MSHR_MERGE:       3075
cpu0->cpu0_DTLB LOAD         ACCESS:   13742793 HIT:   13715636 MISS:      27157 MSHR_MERGE:       3075
cpu0->cpu0_DTLB RFO          ACCESS:          0 HIT:          0 MISS:          0 MSHR_MERGE:          0
cpu0->cpu0_DTLB PREFETCH     ACCESS:          0 HIT:          0 MISS:          0 MSHR_MERGE:          0
cpu0->cpu0_DTLB WRITE        ACCESS:          0 HIT:          0 MISS:          0 MSHR_MERGE:          0
cpu0->cpu0_DTLB TRANSLATION  ACCESS:          0 HIT:          0 MISS:          0 MSHR_MERGE:          0
cpu0->cpu0_DTLB PREFETCH REQUESTED:          0 ISSUED:          0 USEFUL:          0 USELESS:          0 LATE:          0
cpu0->cpu0_DTLB AVERAGE MISS LATENCY: 5 cycles
cpu0->LLC TOTAL        ACCESS:      14132 HIT:       8922 MISS:       5210 MSHR_MERGE:          0
cpu0->LLC LOAD         ACCESS:       1846 HIT:       1407 MISS:        439 MSHR_MERGE:          0
cpu0->LLC RFO          ACCESS:         61 HIT:         20 MISS:         41 MSHR_MERGE:          0
cpu0->LLC PREFETCH     ACCESS:      11184 HIT:       6454 MISS:       4730 MSHR_MERGE:          0
cpu0->LLC WRITE        ACCESS:       1041 HIT:       1041 MISS:          0 MSHR_MERGE:          0
cpu0->LLC TRANSLATION  ACCESS:          0 HIT:          0 MISS:          0 MSHR_MERGE:          0
cpu0->LLC PREFETCH REQUESTED:          0 ISSUED:          0 USEFUL:          0 USELESS:          0 LATE:          0
cpu0->LLC AVERAGE MISS LATENCY: 155 cycles

DRAM Statistics

Channel 0 RQ ROW_BUFFER_HIT:        305
  ROW_BUFFER_MISS:       4905
  AVG DBUS CONGESTED CYCLE: 2.581
Channel 0 WQ ROW_BUFFER_HIT:          0
  ROW_BUFFER_MISS:          0
  FULL:          0
Channel 0 REFRESHES ISSUED:       2540

[ROI Statistics]
[System Configuration]
num_cpus 1
cpu_freq 4000
fetch_width 6
decode_width 6
dispatch_width 6
execute_width 6
lq_width 2
sq_width 2
retire_width 6
scheduler_size 160
branch_mispredict_penalty 1
rob_size 352
lq_size 240
sq_size 112
ifetch_buffer_size 64
decode_buffer_size 32
dispatch_buffer_size 32
register_file_size 288
decode_latency 1
dispatch_latency 1
schedule_latency 0
execute_latency 0
page_size 4096
block_size 64
core_0_itlb_set 16
core_0_itlb_way 4
core_0_itlb_rq_size 16
core_0_itlb_wq_size 16
core_0_itlb_pq_size 0
core_0_itlb_mshr_size 8
core_0_itlb_hit_latency 1
core_0_itlb_fill_latency 1
core_0_itlb_max_tag_check 2
core_0_itlb_max_fill 2
core_0_dtlb_set 16
core_0_dtlb_way 4
core_0_dtlb_rq_size 16
core_0_dtlb_wq_size 16
core_0_dtlb_pq_size 0
core_0_dtlb_mshr_size 8
core_0_dtlb_hit_latency 1
core_0_dtlb_fill_latency 1
core_0_dtlb_max_tag_check 2
core_0_dtlb_max_fill 2
core_0_stlb_set 128
core_0_stlb_way 12
core_0_stlb_rq_size 32
core_0_stlb_wq_size 32
core_0_stlb_pq_size 0
core_0_stlb_mshr_size 16
core_0_stlb_hit_latency 4
core_0_stlb_fill_latency 4
core_0_stlb_max_tag_check 1
core_0_stlb_max_fill 1
core_0_l1i_set 64
core_0_l1i_way 8
core_0_l1i_rq_size 64
core_0_l1i_wq_size 64
core_0_l1i_pq_size 32
core_0_l1i_mshr_size 8
core_0_l1i_hit_latency 2
core_0_l1i_fill_latency 2
core_0_l1i_max_tag_check 2
core_0_l1i_max_fill 2
core_0_l1d_set 64
core_0_l1d_way 12
core_0_l1d_rq_size 64
core_0_l1d_wq_size 64
core_0_l1d_pq_size 8
core_0_l1d_mshr_size 16
core_0_l1d_hit_latency 2
core_0_l1d_fill_latency 3
core_0_l1d_max_tag_check 2
core_0_l1d_max_fill 2
core_0_l2c_set 1024
core_0_l2c_way 8
core_0_l2c_rq_size 32
core_0_l2c_wq_size 32
core_0_l2c_pq_size 16
core_0_l2c_mshr_size 32
core_0_l2c_hit_latency 5
core_0_l2c_fill_latency 5
core_0_l2c_max_tag_check 1
core_0_l2c_max_fill 1
llc_set 2048
llc_way 16
llc_rq_size 32
llc_wq_size 32
llc_pq_size 32
llc_mshr_size 64
llc_hit_latency 10
llc_fill_latency 10
llc_max_tag_check 1
llc_max_fill 1
dram_channels 1
dram_ranks 1
dram_bankgroups 8
dram_banks 4
dram_rows 16384
dram_columns 1024
dram_channel_width 8
dram_rq_size 64
dram_wq_size 64
dram_size 4294967296
core_0_itlb_prefetcher no
core_0_dtlb_prefetcher no
core_0_stlb_prefetcher no
core_0_l1i_prefetcher next_line
core_0_l1d_prefetcher berti
core_0_l2c_prefetcher pythia
llc_prefetcher no
llc_replacement drrip

Core_0_instructions 50000001
Core_0_cycles 30486769
Core_0_IPC 1.64006
Core_0_branch_prediction_accuracy 89.1054
Core_0_branch_MPKI 18.3127
Core_0_average_ROB_occupancy_at_mispredict 27.8293

Core_0_ITLB_total_access 63977
Core_0_ITLB_total_hit 63977
Core_0_ITLB_total_miss 0
Core_0_ITLB_total_MPKI 0
Core_0_ITLB_total_miss_rate 0
Core_0_ITLB_demand_access 63977
Core_0_ITLB_demand_hit 63977
Core_0_ITLB_demand_miss 0
Core_0_ITLB_demand_MPKI 0
Core_0_ITLB_demand_miss_rate 0
Core_0_ITLB_load_access 63977
Core_0_ITLB_load_hit 63977
Core_0_ITLB_load_miss 0
Core_0_ITLB_load_MPKI 0
Core_0_ITLB_load_miss_rate 0
Core_0_ITLB_rfo_access 0
Core_0_ITLB_rfo_hit 0
Core_0_ITLB_rfo_miss 0
Core_0_ITLB_rfo_MPKI 0
Core_0_ITLB_rfo_miss_rate 0
Core_0_ITLB_prefetch_access 0
Core_0_ITLB_prefetch_hit 0
Core_0_ITLB_prefetch_miss 0
Core_0_ITLB_prefetch_MPKI 0
Core_0_ITLB_prefetch_miss_rate 0
Core_0_ITLB_writeback_access 0
Core_0_ITLB_writeback_hit 0
Core_0_ITLB_writeback_miss 0
Core_0_ITLB_writeback_MPKI 0
Core_0_ITLB_writeback_miss_rate 0
Core_0_ITLB_prefetch_requested 0
Core_0_ITLB_prefetch_issued 0
Core_0_ITLB_prefetch_useful 0
Core_0_ITLB_prefetch_useless 0
Core_0_ITLB_prefetch_late 0
Core_0_ITLB_prefetch_accuracy 0
Core_0_ITLB_prefetch_coverage 0

Core_0_DTLB_total_access 13742793
Core_0_DTLB_total_hit 13715636
Core_0_DTLB_total_miss 27157
Core_0_DTLB_total_MPKI 0.54314
Core_0_DTLB_total_miss_rate 0.00197609
Core_0_DTLB_demand_access 13742793
Core_0_DTLB_demand_hit 13715636
Core_0_DTLB_demand_miss 27157
Core_0_DTLB_demand_MPKI 0.54314
Core_0_DTLB_demand_miss_rate 0.00197609
Core_0_DTLB_load_access 13742793
Core_0_DTLB_load_hit 13715636
Core_0_DTLB_load_miss 27157
Core_0_DTLB_load_MPKI 0.54314
Core_0_DTLB_load_miss_rate 0.00197609
Core_0_DTLB_rfo_access 0
Core_0_DTLB_rfo_hit 0
Core_0_DTLB_rfo_miss 0
Core_0_DTLB_rfo_MPKI 0
Core_0_DTLB_rfo_miss_rate 0
Core_0_DTLB_prefetch_access 0
Core_0_DTLB_prefetch_hit 0
Core_0_DTLB_prefetch_miss 0
Core_0_DTLB_prefetch_MPKI 0
Core_0_DTLB_prefetch_miss_rate 0
Core_0_DTLB_writeback_access 0
Core_0_DTLB_writeback_hit 0
Core_0_DTLB_writeback_miss 0
Core_0_DTLB_writeback_MPKI 0
Core_0_DTLB_writeback_miss_rate 0
Core_0_DTLB_prefetch_requested 0
Core_0_DTLB_prefetch_issued 0
Core_0_DTLB_prefetch_useful 0
Core_0_DTLB_prefetch_useless 0
Core_0_DTLB_prefetch_late 0
Core_0_DTLB_prefetch_accuracy 0
Core_0_DTLB_prefetch_coverage 0

Core_0_STLB_total_access 24082
Core_0_STLB_total_hit 24082
Core_0_STLB_total_miss 0
Core_0_STLB_total_MPKI 0
Core_0_STLB_total_miss_rate 0
Core_0_STLB_demand_access 24082
Core_0_STLB_demand_hit 24082
Core_0_STLB_demand_miss 0
Core_0_STLB_demand_MPKI 0
Core_0_STLB_demand_miss_rate 0
Core_0_STLB_load_access 24082
Core_0_STLB_load_hit 24082
Core_0_STLB_load_miss 0
Core_0_STLB_load_MPKI 0
Core_0_STLB_load_miss_rate 0
Core_0_STLB_rfo_access 0
Core_0_STLB_rfo_hit 0
Core_0_STLB_rfo_miss 0
Core_0_STLB_rfo_MPKI 0
Core_0_STLB_rfo_miss_rate 0
Core_0_STLB_prefetch_access 0
Core_0_STLB_prefetch_hit 0
Core_0_STLB_prefetch_miss 0
Core_0_STLB_prefetch_MPKI 0
Core_0_STLB_prefetch_miss_rate 0
Core_0_STLB_writeback_access 0
Core_0_STLB_writeback_hit 0
Core_0_STLB_writeback_miss 0
Core_0_STLB_writeback_MPKI 0
Core_0_STLB_writeback_miss_rate 0
Core_0_STLB_prefetch_requested 0
Core_0_STLB_prefetch_issued 0
Core_0_STLB_prefetch_useful 0
Core_0_STLB_prefetch_useless 0
Core_0_STLB_prefetch_late 0
Core_0_STLB_prefetch_accuracy 0
Core_0_STLB_prefetch_coverage 0

Core_0_L1I_total_access 64247
Core_0_L1I_total_hit 64227
Core_0_L1I_total_miss 20
Core_0_L1I_total_MPKI 0.0004
Core_0_L1I_total_miss_rate 0.000311299
Core_0_L1I_demand_access 64247
Core_0_L1I_demand_hit 64227
Core_0_L1I_demand_miss 20
Core_0_L1I_demand_MPKI 0.0004
Core_0_L1I_demand_miss_rate 0.000311299
Core_0_L1I_load_access 64247
Core_0_L1I_load_hit 64227
Core_0_L1I_load_miss 20
Core_0_L1I_load_MPKI 0.0004
Core_0_L1I_load_miss_rate 0.000311299
Core_0_L1I_rfo_access 0
Core_0_L1I_rfo_hit 0
Core_0_L1I_rfo_miss 0
Core_0_L1I_rfo_MPKI 0
Core_0_L1I_rfo_miss_rate 0
Core_0_L1I_prefetch_access 0
Core_0_L1I_prefetch_hit 0
Core_0_L1I_prefetch_miss 0
Core_0_L1I_prefetch_MPKI 0
Core_0_L1I_prefetch_miss_rate 0
Core_0_L1I_writeback_access 0
Core_0_L1I_writeback_hit 0
Core_0_L1I_writeback_miss 0
Core_0_L1I_writeback_MPKI 0
Core_0_L1I_writeback_miss_rate 0
Core_0_L1I_prefetch_requested 0
Core_0_L1I_prefetch_issued 0
Core_0_L1I_prefetch_useful 0
Core_0_L1I_prefetch_useless 0
Core_0_L1I_prefetch_late 0
Core_0_L1I_prefetch_accuracy 0
Core_0_L1I_prefetch_coverage 0

Core_0_L1D_total_access 14543495
Core_0_L1D_total_hit 14350055
Core_0_L1D_total_miss 193440
Core_0_L1D_total_MPKI 3.8688
Core_0_L1D_total_miss_rate 0.0133008
Core_0_L1D_demand_access 8790383
Core_0_L1D_demand_hit 8714147
Core_0_L1D_demand_miss 76236
Core_0_L1D_demand_MPKI 1.52472
Core_0_L1D_demand_miss_rate 0.00867266
Core_0_L1D_load_access 8790383
Core_0_L1D_load_hit 8714147
Core_0_L1D_load_miss 76236
Core_0_L1D_load_MPKI 1.52472
Core_0_L1D_load_miss_rate 0.00867266
Core_0_L1D_rfo_access 0
Core_0_L1D_rfo_hit 0
Core_0_L1D_rfo_miss 0
Core_0_L1D_rfo_MPKI 0
Core_0_L1D_rfo_miss_rate 0
Core_0_L1D_prefetch_access 138033
Core_0_L1D_prefetch_hit 62448
Core_0_L1D_prefetch_miss 75585
Core_0_L1D_prefetch_MPKI 1.5117
Core_0_L1D_prefetch_miss_rate 0.547586
Core_0_L1D_writeback_access 5615079
Core_0_L1D_writeback_hit 5573460
Core_0_L1D_writeback_miss 41619
Core_0_L1D_writeback_MPKI 0.83238
Core_0_L1D_writeback_miss_rate 0.00741201
Core_0_L1D_prefetch_requested 147292
Core_0_L1D_prefetch_issued 138033
Core_0_L1D_prefetch_useful 48429
Core_0_L1D_prefetch_useless 25517
Core_0_L1D_prefetch_late 3580
Core_0_L1D_prefetch_accuracy 0.350851
Core_0_L1D_prefetch_coverage 0.388473

Core_0_L2C_total_access 422131
Core_0_L2C_total_hit 406147
Core_0_L2C_total_miss 15984
Core_0_L2C_total_MPKI 0.31968
Core_0_L2C_total_miss_rate 0.037865
Core_0_L2C_demand_access 82693
Core_0_L2C_demand_hit 80730
Core_0_L2C_demand_miss 1963
Core_0_L2C_demand_MPKI 0.03926
Core_0_L2C_demand_miss_rate 0.0237384
Core_0_L2C_load_access 67988
Core_0_L2C_load_hit 66088
Core_0_L2C_load_miss 1900
Core_0_L2C_load_MPKI 0.038
Core_0_L2C_load_miss_rate 0.0279461
Core_0_L2C_rfo_access 14705
Core_0_L2C_rfo_hit 14642
Core_0_L2C_rfo_miss 63
Core_0_L2C_rfo_MPKI 0.00126
Core_0_L2C_rfo_miss_rate 0.00428426
Core_0_L2C_prefetch_access 309288
Core_0_L2C_prefetch_hit 295268
Core_0_L2C_prefetch_miss 14020
Core_0_L2C_prefetch_MPKI 0.2804
Core_0_L2C_prefetch_miss_rate 0.0453299
Core_0_L2C_writeback_access 30150
Core_0_L2C_writeback_hit 30149
Core_0_L2C_writeback_miss 1
Core_0_L2C_writeback_MPKI 2e-05
Core_0_L2C_writeback_miss_rate 3.31675e-05
Core_0_L2C_prefetch_requested 240895
Core_0_L2C_prefetch_issued 235343
Core_0_L2C_prefetch_useful 3575
Core_0_L2C_prefetch_useless 4896
Core_0_L2C_prefetch_late 56
Core_0_L2C_prefetch_accuracy 0.0151906
Core_0_L2C_prefetch_coverage 0.64554

Core_0_LLC_total_access 14132
Core_0_LLC_total_hit 8922
Core_0_LLC_total_miss 5210
Core_0_LLC_total_MPKI 0.1042
Core_0_LLC_total_miss_rate 0.368667
Core_0_LLC_demand_access 1907
Core_0_LLC_demand_hit 1427
Core_0_LLC_demand_miss 480
Core_0_LLC_demand_MPKI 0.0096
Core_0_LLC_demand_miss_rate 0.251704
Core_0_LLC_load_access 1846
Core_0_LLC_load_hit 1407
Core_0_LLC_load_miss 439
Core_0_LLC_load_MPKI 0.00878
Core_0_LLC_load_miss_rate 0.237811
Core_0_LLC_rfo_access 61
Core_0_LLC_rfo_hit 20
Core_0_LLC_rfo_miss 41
Core_0_LLC_rfo_MPKI 0.00082
Core_0_LLC_rfo_miss_rate 0.672131
Core_0_LLC_prefetch_access 11184
Core_0_LLC_prefetch_hit 6454
Core_0_LLC_prefetch_miss 4730
Core_0_LLC_prefetch_MPKI 0.0946
Core_0_LLC_prefetch_miss_rate 0.422926
Core_0_LLC_writeback_access 1041
Core_0_LLC_writeback_hit 1041
Core_0_LLC_writeback_miss 0
Core_0_LLC_writeback_MPKI 0
Core_0_LLC_writeback_miss_rate 0
Core_0_LLC_prefetch_requested 0
Core_0_LLC_prefetch_issued 0
Core_0_LLC_prefetch_useful 0
Core_0_LLC_prefetch_useless 0
Core_0_LLC_prefetch_late 0
Core_0_LLC_prefetch_accuracy 0
Core_0_LLC_prefetch_coverage 0

[DRAM Statistics]
Channel_0_RQ_row_buffer_hit 305
Channel_0_RQ_row_buffer_miss 4905
Channel_0_WQ_row_buffer_hit 0
Channel_0_WQ_row_buffer_miss 0
Channel_0_WQ_full 0
Channel_0_dbus_congested 3695
DRAM_total_RQ_row_buffer_hit 305
DRAM_total_RQ_row_buffer_miss 4905
DRAM_total_WQ_row_buffer_hit 0
DRAM_total_WQ_row_buffer_miss 0
DRAM_total_WQ_full 0
DRAM_total_dbus_congested 3695
DRAM_avg_congested_cycle 2.58051

======STLB miss causes ========
Core_0_STLB_miss_cause_breakdown
Core_0_STLB_cause_Demand_Data_miss 0
Core_0_STLB_cause_Demand_Data_miss_rate 0
Core_0_STLB_cause_Demand_Instruction_miss 0
Core_0_STLB_cause_Demand_Instruction_miss_rate 0
Core_0_STLB_cause_L1D_Prefetch_miss 0
Core_0_STLB_cause_L1D_Prefetch_miss_rate 0
Core_0_STLB_cause_L1I_Prefetch_miss 0
Core_0_STLB_cause_L1I_Prefetch_miss_rate 0
Core_0_STLB_cause_Other_miss 0
Core_0_STLB_cause_Other_miss_rate 0
Core_0_STLB_Demand_miss 0
Core_0_STLB_Demand_miss_rate 0
Core_0_STLB_L1D_Prefetch_miss 0
Core_0_STLB_L1D_Prefetch_miss_rate 0
Core_0_STLB_Other_miss 0
Core_0_STLB_Other_miss_rate 0
