[VMEM] WARNING: physical memory size is smaller than virtual memory size.

*** ChampSim Multicore Out-of-Order Simulator ***
Warmup Instructions: 20000000
Simulation Instructions: 50000000
Number of CPUs: 1
Page size: 4096
STLB ideal mode: all
Core 0: /data0/tzh/champsim_traces/SPEC17/654.roms_s-1613B.champsimtrace.xz
 L1D Berti prefetcher
Off-chip DRAM Size: 4 GiB Channels: 1 Width: 64-bit Data Rate: 3205 MT/s
Warmup halting CPU 0 at instruction 20000003 cycle 4033901 for remainder of phase
Warmup finished CPU 0 instructions: 20000003 cycles: 4033901 cumulative IPC: 4.958 (Simulation time: 00 hr 01 min 00 sec)
Warmup complete CPU 0 instructions: 20000003 cycles: 4033901 cumulative IPC: 4.958 (Simulation time: 00 hr 01 min 00 sec)
Simulation finished CPU 0 instructions: 50000005 cycles: 37760523 cumulative IPC: 1.324 (Simulation time: 00 hr 05 min 24 sec)
Simulation complete CPU 0 instructions: 50000005 cycles: 37760523 cumulative IPC: 1.324 (Simulation time: 00 hr 05 min 24 sec)

ChampSim completed all CPUs

=== Simulation ===
CPU 0 runs /data0/tzh/champsim_traces/SPEC17/654.roms_s-1613B.champsimtrace.xz

Region of Interest Statistics

CPU 0 cumulative IPC: 1.324 instructions: 50000005 cycles: 37760523
CPU 0 Branch Prediction Accuracy: 86.43% MPKI: 13.94 Average ROB Occupancy at Mispredict: 46.56
Branch type MPKI
BRANCH_DIRECT_JUMP: 0.00082
BRANCH_INDIRECT: 4e-05
BRANCH_CONDITIONAL: 6.988
BRANCH_DIRECT_CALL: 0.00084
BRANCH_INDIRECT_CALL: 0
BRANCH_RETURN: 6.945

cpu0->cpu0_STLB TOTAL        ACCESS:       4917 HIT:       4917 MISS:          0 MSHR_MERGE:          0
cpu0->cpu0_STLB LOAD         ACCESS:       4917 HIT:       4917 MISS:          0 MSHR_MERGE:          0
cpu0->cpu0_STLB RFO          ACCESS:          0 HIT:          0 MISS:          0 MSHR_MERGE:          0
cpu0->cpu0_STLB PREFETCH     ACCESS:          0 HIT:          0 MISS:          0 MSHR_MERGE:          0
cpu0->cpu0_STLB WRITE        ACCESS:          0 HIT:          0 MISS:          0 MSHR_MERGE:          0
cpu0->cpu0_STLB TRANSLATION  ACCESS:          0 HIT:          0 MISS:          0 MSHR_MERGE:          0
cpu0->cpu0_STLB PREFETCH REQUESTED:          0 ISSUED:          0 USEFUL:          0 USELESS:          0 LATE:          0
cpu0->cpu0_STLB AVERAGE MISS LATENCY: - cycles
cpu0->cpu0_L2C TOTAL        ACCESS:     942049 HIT:     358303 MISS:     583746 MSHR_MERGE:     348589
cpu0->cpu0_L2C LOAD         ACCESS:      21059 HIT:      10959 MISS:      10100 MSHR_MERGE:       5528
cpu0->cpu0_L2C RFO          ACCESS:      88496 HIT:          6 MISS:      88490 MSHR_MERGE:          0
cpu0->cpu0_L2C PREFETCH     ACCESS:     743965 HIT:     259009 MISS:     484956 MSHR_MERGE:     343061
cpu0->cpu0_L2C WRITE        ACCESS:      88529 HIT:      88329 MISS:        200 MSHR_MERGE:          0
cpu0->cpu0_L2C TRANSLATION  ACCESS:          0 HIT:          0 MISS:          0 MSHR_MERGE:          0
cpu0->cpu0_L2C PREFETCH REQUESTED:     673800 ISSUED:     626817 USEFUL:      76019 USELESS:      55379 LATE:       5528
cpu0->cpu0_L2C AVERAGE MISS LATENCY: 338.1 cycles
cpu0->cpu0_L1I TOTAL        ACCESS:     814349 HIT:     814148 MISS:        201 MSHR_MERGE:         24
cpu0->cpu0_L1I LOAD         ACCESS:     814349 HIT:     814148 MISS:        201 MSHR_MERGE:         24
cpu0->cpu0_L1I RFO          ACCESS:          0 HIT:          0 MISS:          0 MSHR_MERGE:          0
cpu0->cpu0_L1I PREFETCH     ACCESS:          0 HIT:          0 MISS:          0 MSHR_MERGE:          0
cpu0->cpu0_L1I WRITE        ACCESS:          0 HIT:          0 MISS:          0 MSHR_MERGE:          0
cpu0->cpu0_L1I TRANSLATION  ACCESS:          0 HIT:          0 MISS:          0 MSHR_MERGE:          0
cpu0->cpu0_L1I PREFETCH REQUESTED:          0 ISSUED:          0 USEFUL:          0 USELESS:          0 LATE:          0
cpu0->cpu0_L1I AVERAGE MISS LATENCY: 232 cycles
cpu0->cpu0_L1D TOTAL        ACCESS:   12772952 HIT:   12013467 MISS:     759485 MSHR_MERGE:     532959
cpu0->cpu0_L1D LOAD         ACCESS:    7427195 HIT:    7337158 MISS:      90037 MSHR_MERGE:      69155
cpu0->cpu0_L1D RFO          ACCESS:          0 HIT:          0 MISS:          0 MSHR_MERGE:          0
cpu0->cpu0_L1D PREFETCH     ACCESS:     130836 HIT:       9765 MISS:     121071 MSHR_MERGE:       3923
cpu0->cpu0_L1D WRITE        ACCESS:    5214921 HIT:    4666544 MISS:     548377 MSHR_MERGE:     459881
cpu0->cpu0_L1D TRANSLATION  ACCESS:          0 HIT:          0 MISS:          0 MSHR_MERGE:          0
cpu0->cpu0_L1D PREFETCH REQUESTED:     132970 ISSUED:     130828 USEFUL:     112111 USELESS:       5007 LATE:      16170
cpu0->cpu0_L1D AVERAGE MISS LATENCY: 301.4 cycles
cpu0->cpu0_ITLB TOTAL        ACCESS:     810925 HIT:     810905 MISS:         20 MSHR_MERGE:          5
cpu0->cpu0_ITLB LOAD         ACCESS:     810925 HIT:     810905 MISS:         20 MSHR_MERGE:          5
cpu0->cpu0_ITLB RFO          ACCESS:          0 HIT:          0 MISS:          0 MSHR_MERGE:          0
cpu0->cpu0_ITLB PREFETCH     ACCESS:          0 HIT:          0 MISS:          0 MSHR_MERGE:          0
cpu0->cpu0_ITLB WRITE        ACCESS:          0 HIT:          0 MISS:          0 MSHR_MERGE:          0
cpu0->cpu0_ITLB TRANSLATION  ACCESS:          0 HIT:          0 MISS:          0 MSHR_MERGE:          0
cpu0->cpu0_ITLB PREFETCH REQUESTED:          0 ISSUED:          0 USEFUL:          0 USELESS:          0 LATE:          0
cpu0->cpu0_ITLB AVERAGE MISS LATENCY: 5 cycles
cpu0->cpu0_DTLB TOTAL        ACCESS:   11806503 HIT:   11794130 MISS:      12373 MSHR_MERGE:       7471
cpu0->cpu0_DTLB LOAD         ACCESS:   11806503 HIT:   11794130 MISS:      12373 MSHR_MERGE:       7471
cpu0->cpu0_DTLB RFO          ACCESS:          0 HIT:          0 MISS:          0 MSHR_MERGE:          0
cpu0->cpu0_DTLB PREFETCH     ACCESS:          0 HIT:          0 MISS:          0 MSHR_MERGE:          0
cpu0->cpu0_DTLB WRITE        ACCESS:          0 HIT:          0 MISS:          0 MSHR_MERGE:          0
cpu0->cpu0_DTLB TRANSLATION  ACCESS:          0 HIT:          0 MISS:          0 MSHR_MERGE:          0
cpu0->cpu0_DTLB PREFETCH REQUESTED:          0 ISSUED:          0 USEFUL:          0 USELESS:          0 LATE:          0
cpu0->cpu0_DTLB AVERAGE MISS LATENCY: 5.001 cycles
cpu0->LLC TOTAL        ACCESS:     323685 HIT:      32752 MISS:     290933 MSHR_MERGE:          0
cpu0->LLC LOAD         ACCESS:       4572 HIT:        181 MISS:       4391 MSHR_MERGE:          0
cpu0->LLC RFO          ACCESS:      88490 HIT:          0 MISS:      88490 MSHR_MERGE:          0
cpu0->LLC PREFETCH     ACCESS:     141895 HIT:       5882 MISS:     136013 MSHR_MERGE:          0
cpu0->LLC WRITE        ACCESS:      88728 HIT:      26689 MISS:      62039 MSHR_MERGE:          0
cpu0->LLC TRANSLATION  ACCESS:          0 HIT:          0 MISS:          0 MSHR_MERGE:          0
cpu0->LLC PREFETCH REQUESTED:          0 ISSUED:          0 USEFUL:          0 USELESS:          0 LATE:          0
cpu0->LLC AVERAGE MISS LATENCY: 200 cycles

DRAM Statistics

Channel 0 RQ ROW_BUFFER_HIT:       7911
  ROW_BUFFER_MISS:     220961
  AVG DBUS CONGESTED CYCLE: 8.043
Channel 0 WQ ROW_BUFFER_HIT:       6956
  ROW_BUFFER_MISS:      60269
  FULL:          0
Channel 0 REFRESHES ISSUED:       3146

[ROI Statistics]
[System Configuration]
num_cpus 1
cpu_freq 4000
fetch_width 6
decode_width 6
dispatch_width 6
execute_width 6
lq_width 2
sq_width 2
retire_width 6
scheduler_size 160
branch_mispredict_penalty 1
rob_size 352
lq_size 240
sq_size 112
ifetch_buffer_size 64
decode_buffer_size 32
dispatch_buffer_size 32
register_file_size 288
decode_latency 1
dispatch_latency 1
schedule_latency 0
execute_latency 0
page_size 4096
block_size 64
core_0_itlb_set 16
core_0_itlb_way 4
core_0_itlb_rq_size 16
core_0_itlb_wq_size 16
core_0_itlb_pq_size 0
core_0_itlb_mshr_size 8
core_0_itlb_hit_latency 1
core_0_itlb_fill_latency 1
core_0_itlb_max_tag_check 2
core_0_itlb_max_fill 2
core_0_dtlb_set 16
core_0_dtlb_way 4
core_0_dtlb_rq_size 16
core_0_dtlb_wq_size 16
core_0_dtlb_pq_size 0
core_0_dtlb_mshr_size 8
core_0_dtlb_hit_latency 1
core_0_dtlb_fill_latency 1
core_0_dtlb_max_tag_check 2
core_0_dtlb_max_fill 2
core_0_stlb_set 128
core_0_stlb_way 12
core_0_stlb_rq_size 32
core_0_stlb_wq_size 32
core_0_stlb_pq_size 0
core_0_stlb_mshr_size 16
core_0_stlb_hit_latency 4
core_0_stlb_fill_latency 4
core_0_stlb_max_tag_check 1
core_0_stlb_max_fill 1
core_0_l1i_set 64
core_0_l1i_way 8
core_0_l1i_rq_size 64
core_0_l1i_wq_size 64
core_0_l1i_pq_size 32
core_0_l1i_mshr_size 8
core_0_l1i_hit_latency 2
core_0_l1i_fill_latency 2
core_0_l1i_max_tag_check 2
core_0_l1i_max_fill 2
core_0_l1d_set 64
core_0_l1d_way 12
core_0_l1d_rq_size 64
core_0_l1d_wq_size 64
core_0_l1d_pq_size 8
core_0_l1d_mshr_size 16
core_0_l1d_hit_latency 2
core_0_l1d_fill_latency 3
core_0_l1d_max_tag_check 2
core_0_l1d_max_fill 2
core_0_l2c_set 1024
core_0_l2c_way 8
core_0_l2c_rq_size 32
core_0_l2c_wq_size 32
core_0_l2c_pq_size 16
core_0_l2c_mshr_size 32
core_0_l2c_hit_latency 5
core_0_l2c_fill_latency 5
core_0_l2c_max_tag_check 1
core_0_l2c_max_fill 1
llc_set 2048
llc_way 16
llc_rq_size 32
llc_wq_size 32
llc_pq_size 32
llc_mshr_size 64
llc_hit_latency 10
llc_fill_latency 10
llc_max_tag_check 1
llc_max_fill 1
dram_channels 1
dram_ranks 1
dram_bankgroups 8
dram_banks 4
dram_rows 16384
dram_columns 1024
dram_channel_width 8
dram_rq_size 64
dram_wq_size 64
dram_size 4294967296
core_0_itlb_prefetcher no
core_0_dtlb_prefetcher no
core_0_stlb_prefetcher no
core_0_l1i_prefetcher next_line
core_0_l1d_prefetcher berti
core_0_l2c_prefetcher pythia
llc_prefetcher no
llc_replacement drrip

Core_0_instructions 50000005
Core_0_cycles 37760523
Core_0_IPC 1.32413
Core_0_branch_prediction_accuracy 86.4313
Core_0_branch_MPKI 13.9354
Core_0_average_ROB_occupancy_at_mispredict 46.5617

Core_0_ITLB_total_access 810925
Core_0_ITLB_total_hit 810905
Core_0_ITLB_total_miss 20
Core_0_ITLB_total_MPKI 0.0004
Core_0_ITLB_total_miss_rate 2.46632e-05
Core_0_ITLB_demand_access 810925
Core_0_ITLB_demand_hit 810905
Core_0_ITLB_demand_miss 20
Core_0_ITLB_demand_MPKI 0.0004
Core_0_ITLB_demand_miss_rate 2.46632e-05
Core_0_ITLB_load_access 810925
Core_0_ITLB_load_hit 810905
Core_0_ITLB_load_miss 20
Core_0_ITLB_load_MPKI 0.0004
Core_0_ITLB_load_miss_rate 2.46632e-05
Core_0_ITLB_rfo_access 0
Core_0_ITLB_rfo_hit 0
Core_0_ITLB_rfo_miss 0
Core_0_ITLB_rfo_MPKI 0
Core_0_ITLB_rfo_miss_rate 0
Core_0_ITLB_prefetch_access 0
Core_0_ITLB_prefetch_hit 0
Core_0_ITLB_prefetch_miss 0
Core_0_ITLB_prefetch_MPKI 0
Core_0_ITLB_prefetch_miss_rate 0
Core_0_ITLB_writeback_access 0
Core_0_ITLB_writeback_hit 0
Core_0_ITLB_writeback_miss 0
Core_0_ITLB_writeback_MPKI 0
Core_0_ITLB_writeback_miss_rate 0
Core_0_ITLB_prefetch_requested 0
Core_0_ITLB_prefetch_issued 0
Core_0_ITLB_prefetch_useful 0
Core_0_ITLB_prefetch_useless 0
Core_0_ITLB_prefetch_late 0
Core_0_ITLB_prefetch_accuracy 0
Core_0_ITLB_prefetch_coverage 0

Core_0_DTLB_total_access 11806503
Core_0_DTLB_total_hit 11794130
Core_0_DTLB_total_miss 12373
Core_0_DTLB_total_MPKI 0.24746
Core_0_DTLB_total_miss_rate 0.00104798
Core_0_DTLB_demand_access 11806503
Core_0_DTLB_demand_hit 11794130
Core_0_DTLB_demand_miss 12373
Core_0_DTLB_demand_MPKI 0.24746
Core_0_DTLB_demand_miss_rate 0.00104798
Core_0_DTLB_load_access 11806503
Core_0_DTLB_load_hit 11794130
Core_0_DTLB_load_miss 12373
Core_0_DTLB_load_MPKI 0.24746
Core_0_DTLB_load_miss_rate 0.00104798
Core_0_DTLB_rfo_access 0
Core_0_DTLB_rfo_hit 0
Core_0_DTLB_rfo_miss 0
Core_0_DTLB_rfo_MPKI 0
Core_0_DTLB_rfo_miss_rate 0
Core_0_DTLB_prefetch_access 0
Core_0_DTLB_prefetch_hit 0
Core_0_DTLB_prefetch_miss 0
Core_0_DTLB_prefetch_MPKI 0
Core_0_DTLB_prefetch_miss_rate 0
Core_0_DTLB_writeback_access 0
Core_0_DTLB_writeback_hit 0
Core_0_DTLB_writeback_miss 0
Core_0_DTLB_writeback_MPKI 0
Core_0_DTLB_writeback_miss_rate 0
Core_0_DTLB_prefetch_requested 0
Core_0_DTLB_prefetch_issued 0
Core_0_DTLB_prefetch_useful 0
Core_0_DTLB_prefetch_useless 0
Core_0_DTLB_prefetch_late 0
Core_0_DTLB_prefetch_accuracy 0
Core_0_DTLB_prefetch_coverage 0

Core_0_STLB_total_access 4917
Core_0_STLB_total_hit 4917
Core_0_STLB_total_miss 0
Core_0_STLB_total_MPKI 0
Core_0_STLB_total_miss_rate 0
Core_0_STLB_demand_access 4917
Core_0_STLB_demand_hit 4917
Core_0_STLB_demand_miss 0
Core_0_STLB_demand_MPKI 0
Core_0_STLB_demand_miss_rate 0
Core_0_STLB_load_access 4917
Core_0_STLB_load_hit 4917
Core_0_STLB_load_miss 0
Core_0_STLB_load_MPKI 0
Core_0_STLB_load_miss_rate 0
Core_0_STLB_rfo_access 0
Core_0_STLB_rfo_hit 0
Core_0_STLB_rfo_miss 0
Core_0_STLB_rfo_MPKI 0
Core_0_STLB_rfo_miss_rate 0
Core_0_STLB_prefetch_access 0
Core_0_STLB_prefetch_hit 0
Core_0_STLB_prefetch_miss 0
Core_0_STLB_prefetch_MPKI 0
Core_0_STLB_prefetch_miss_rate 0
Core_0_STLB_writeback_access 0
Core_0_STLB_writeback_hit 0
Core_0_STLB_writeback_miss 0
Core_0_STLB_writeback_MPKI 0
Core_0_STLB_writeback_miss_rate 0
Core_0_STLB_prefetch_requested 0
Core_0_STLB_prefetch_issued 0
Core_0_STLB_prefetch_useful 0
Core_0_STLB_prefetch_useless 0
Core_0_STLB_prefetch_late 0
Core_0_STLB_prefetch_accuracy 0
Core_0_STLB_prefetch_coverage 0

Core_0_L1I_total_access 814349
Core_0_L1I_total_hit 814148
Core_0_L1I_total_miss 201
Core_0_L1I_total_MPKI 0.00402
Core_0_L1I_total_miss_rate 0.000246823
Core_0_L1I_demand_access 814349
Core_0_L1I_demand_hit 814148
Core_0_L1I_demand_miss 201
Core_0_L1I_demand_MPKI 0.00402
Core_0_L1I_demand_miss_rate 0.000246823
Core_0_L1I_load_access 814349
Core_0_L1I_load_hit 814148
Core_0_L1I_load_miss 201
Core_0_L1I_load_MPKI 0.00402
Core_0_L1I_load_miss_rate 0.000246823
Core_0_L1I_rfo_access 0
Core_0_L1I_rfo_hit 0
Core_0_L1I_rfo_miss 0
Core_0_L1I_rfo_MPKI 0
Core_0_L1I_rfo_miss_rate 0
Core_0_L1I_prefetch_access 0
Core_0_L1I_prefetch_hit 0
Core_0_L1I_prefetch_miss 0
Core_0_L1I_prefetch_MPKI 0
Core_0_L1I_prefetch_miss_rate 0
Core_0_L1I_writeback_access 0
Core_0_L1I_writeback_hit 0
Core_0_L1I_writeback_miss 0
Core_0_L1I_writeback_MPKI 0
Core_0_L1I_writeback_miss_rate 0
Core_0_L1I_prefetch_requested 0
Core_0_L1I_prefetch_issued 0
Core_0_L1I_prefetch_useful 0
Core_0_L1I_prefetch_useless 0
Core_0_L1I_prefetch_late 0
Core_0_L1I_prefetch_accuracy 0
Core_0_L1I_prefetch_coverage 0

Core_0_L1D_total_access 12772952
Core_0_L1D_total_hit 12013467
Core_0_L1D_total_miss 759485
Core_0_L1D_total_MPKI 15.1897
Core_0_L1D_total_miss_rate 0.0594604
Core_0_L1D_demand_access 7427195
Core_0_L1D_demand_hit 7337158
Core_0_L1D_demand_miss 90037
Core_0_L1D_demand_MPKI 1.80074
Core_0_L1D_demand_miss_rate 0.0121226
Core_0_L1D_load_access 7427195
Core_0_L1D_load_hit 7337158
Core_0_L1D_load_miss 90037
Core_0_L1D_load_MPKI 1.80074
Core_0_L1D_load_miss_rate 0.0121226
Core_0_L1D_rfo_access 0
Core_0_L1D_rfo_hit 0
Core_0_L1D_rfo_miss 0
Core_0_L1D_rfo_MPKI 0
Core_0_L1D_rfo_miss_rate 0
Core_0_L1D_prefetch_access 130836
Core_0_L1D_prefetch_hit 9765
Core_0_L1D_prefetch_miss 121071
Core_0_L1D_prefetch_MPKI 2.42142
Core_0_L1D_prefetch_miss_rate 0.925365
Core_0_L1D_writeback_access 5214921
Core_0_L1D_writeback_hit 4666544
Core_0_L1D_writeback_miss 548377
Core_0_L1D_writeback_MPKI 10.9675
Core_0_L1D_writeback_miss_rate 0.105155
Core_0_L1D_prefetch_requested 132970
Core_0_L1D_prefetch_issued 130828
Core_0_L1D_prefetch_useful 112111
Core_0_L1D_prefetch_useless 5007
Core_0_L1D_prefetch_late 16170
Core_0_L1D_prefetch_accuracy 0.856934
Core_0_L1D_prefetch_coverage 0.554599

Core_0_L2C_total_access 942049
Core_0_L2C_total_hit 358303
Core_0_L2C_total_miss 583746
Core_0_L2C_total_MPKI 11.6749
Core_0_L2C_total_miss_rate 0.619656
Core_0_L2C_demand_access 109555
Core_0_L2C_demand_hit 10965
Core_0_L2C_demand_miss 98590
Core_0_L2C_demand_MPKI 1.9718
Core_0_L2C_demand_miss_rate 0.899913
Core_0_L2C_load_access 21059
Core_0_L2C_load_hit 10959
Core_0_L2C_load_miss 10100
Core_0_L2C_load_MPKI 0.202
Core_0_L2C_load_miss_rate 0.479605
Core_0_L2C_rfo_access 88496
Core_0_L2C_rfo_hit 6
Core_0_L2C_rfo_miss 88490
Core_0_L2C_rfo_MPKI 1.7698
Core_0_L2C_rfo_miss_rate 0.999932
Core_0_L2C_prefetch_access 743965
Core_0_L2C_prefetch_hit 259009
Core_0_L2C_prefetch_miss 484956
Core_0_L2C_prefetch_MPKI 9.69912
Core_0_L2C_prefetch_miss_rate 0.651853
Core_0_L2C_writeback_access 88529
Core_0_L2C_writeback_hit 88329
Core_0_L2C_writeback_miss 200
Core_0_L2C_writeback_MPKI 0.004
Core_0_L2C_writeback_miss_rate 0.00225915
Core_0_L2C_prefetch_requested 673800
Core_0_L2C_prefetch_issued 626817
Core_0_L2C_prefetch_useful 76019
Core_0_L2C_prefetch_useless 55379
Core_0_L2C_prefetch_late 5528
Core_0_L2C_prefetch_accuracy 0.121278
Core_0_L2C_prefetch_coverage 0.435367

Core_0_LLC_total_access 323685
Core_0_LLC_total_hit 32752
Core_0_LLC_total_miss 290933
Core_0_LLC_total_MPKI 5.81866
Core_0_LLC_total_miss_rate 0.898815
Core_0_LLC_demand_access 93062
Core_0_LLC_demand_hit 181
Core_0_LLC_demand_miss 92881
Core_0_LLC_demand_MPKI 1.85762
Core_0_LLC_demand_miss_rate 0.998055
Core_0_LLC_load_access 4572
Core_0_LLC_load_hit 181
Core_0_LLC_load_miss 4391
Core_0_LLC_load_MPKI 0.08782
Core_0_LLC_load_miss_rate 0.960411
Core_0_LLC_rfo_access 88490
Core_0_LLC_rfo_hit 0
Core_0_LLC_rfo_miss 88490
Core_0_LLC_rfo_MPKI 1.7698
Core_0_LLC_rfo_miss_rate 1
Core_0_LLC_prefetch_access 141895
Core_0_LLC_prefetch_hit 5882
Core_0_LLC_prefetch_miss 136013
Core_0_LLC_prefetch_MPKI 2.72026
Core_0_LLC_prefetch_miss_rate 0.958547
Core_0_LLC_writeback_access 88728
Core_0_LLC_writeback_hit 26689
Core_0_LLC_writeback_miss 62039
Core_0_LLC_writeback_MPKI 1.24078
Core_0_LLC_writeback_miss_rate 0.699204
Core_0_LLC_prefetch_requested 0
Core_0_LLC_prefetch_issued 0
Core_0_LLC_prefetch_useful 0
Core_0_LLC_prefetch_useless 0
Core_0_LLC_prefetch_late 0
Core_0_LLC_prefetch_accuracy 0
Core_0_LLC_prefetch_coverage 0

[DRAM Statistics]
Channel_0_RQ_row_buffer_hit 7911
Channel_0_RQ_row_buffer_miss 220961
Channel_0_WQ_row_buffer_hit 6956
Channel_0_WQ_row_buffer_miss 60269
Channel_0_WQ_full 0
Channel_0_dbus_congested 797156
DRAM_total_RQ_row_buffer_hit 7911
DRAM_total_RQ_row_buffer_miss 220961
DRAM_total_WQ_row_buffer_hit 6956
DRAM_total_WQ_row_buffer_miss 60269
DRAM_total_WQ_full 0
DRAM_total_dbus_congested 797156
DRAM_avg_congested_cycle 8.04307

======STLB miss causes ========
Core_0_STLB_miss_cause_breakdown
Core_0_STLB_cause_Demand_Data_miss 0
Core_0_STLB_cause_Demand_Data_miss_rate 0
Core_0_STLB_cause_Demand_Instruction_miss 0
Core_0_STLB_cause_Demand_Instruction_miss_rate 0
Core_0_STLB_cause_L1D_Prefetch_miss 0
Core_0_STLB_cause_L1D_Prefetch_miss_rate 0
Core_0_STLB_cause_L1I_Prefetch_miss 0
Core_0_STLB_cause_L1I_Prefetch_miss_rate 0
Core_0_STLB_cause_Other_miss 0
Core_0_STLB_cause_Other_miss_rate 0
Core_0_STLB_Demand_miss 0
Core_0_STLB_Demand_miss_rate 0
Core_0_STLB_L1D_Prefetch_miss 0
Core_0_STLB_L1D_Prefetch_miss_rate 0
Core_0_STLB_Other_miss 0
Core_0_STLB_Other_miss_rate 0
