[VMEM] WARNING: physical memory size is smaller than virtual memory size.

*** ChampSim Multicore Out-of-Order Simulator ***
Warmup Instructions: 20000000
Simulation Instructions: 50000000
Number of CPUs: 1
Page size: 4096
STLB ideal mode: all
Core 0: /data0/tzh/champsim_traces/SPEC17/657.xz_s-4994B.champsimtrace.xz
 L1D Berti prefetcher
Off-chip DRAM Size: 4 GiB Channels: 1 Width: 64-bit Data Rate: 3205 MT/s
Warmup halting CPU 0 at instruction 20000004 cycle 4086438 for remainder of phase
Warmup finished CPU 0 instructions: 20000004 cycles: 4086438 cumulative IPC: 4.894 (Simulation time: 00 hr 00 min 40 sec)
Warmup complete CPU 0 instructions: 20000004 cycles: 4086438 cumulative IPC: 4.894 (Simulation time: 00 hr 00 min 40 sec)
Simulation finished CPU 0 instructions: 50000000 cycles: 25052777 cumulative IPC: 1.996 (Simulation time: 00 hr 03 min 31 sec)
Simulation complete CPU 0 instructions: 50000000 cycles: 25052777 cumulative IPC: 1.996 (Simulation time: 00 hr 03 min 31 sec)

ChampSim completed all CPUs

=== Simulation ===
CPU 0 runs /data0/tzh/champsim_traces/SPEC17/657.xz_s-4994B.champsimtrace.xz

Region of Interest Statistics

CPU 0 cumulative IPC: 1.996 instructions: 50000000 cycles: 25052777
CPU 0 Branch Prediction Accuracy: 86.35% MPKI: 14.3 Average ROB Occupancy at Mispredict: 29.56
Branch type MPKI
BRANCH_DIRECT_JUMP: 6e-05
BRANCH_INDIRECT: 0.00092
BRANCH_CONDITIONAL: 14.3
BRANCH_DIRECT_CALL: 0
BRANCH_INDIRECT_CALL: 0
BRANCH_RETURN: 0

cpu0->cpu0_STLB TOTAL        ACCESS:        501 HIT:        501 MISS:          0 MSHR_MERGE:          0
cpu0->cpu0_STLB LOAD         ACCESS:        501 HIT:        501 MISS:          0 MSHR_MERGE:          0
cpu0->cpu0_STLB RFO          ACCESS:          0 HIT:          0 MISS:          0 MSHR_MERGE:          0
cpu0->cpu0_STLB PREFETCH     ACCESS:          0 HIT:          0 MISS:          0 MSHR_MERGE:          0
cpu0->cpu0_STLB WRITE        ACCESS:          0 HIT:          0 MISS:          0 MSHR_MERGE:          0
cpu0->cpu0_STLB TRANSLATION  ACCESS:          0 HIT:          0 MISS:          0 MSHR_MERGE:          0
cpu0->cpu0_STLB PREFETCH REQUESTED:          0 ISSUED:          0 USEFUL:          0 USELESS:          0 LATE:          0
cpu0->cpu0_STLB AVERAGE MISS LATENCY: - cycles
cpu0->cpu0_L2C TOTAL        ACCESS:     106623 HIT:      90777 MISS:      15846 MSHR_MERGE:       6324
cpu0->cpu0_L2C LOAD         ACCESS:       4599 HIT:       4395 MISS:        204 MSHR_MERGE:         66
cpu0->cpu0_L2C RFO          ACCESS:       7880 HIT:       3806 MISS:       4074 MSHR_MERGE:          0
cpu0->cpu0_L2C PREFETCH     ACCESS:      80878 HIT:      69313 MISS:      11565 MSHR_MERGE:       6258
cpu0->cpu0_L2C WRITE        ACCESS:      13266 HIT:      13263 MISS:          3 MSHR_MERGE:          0
cpu0->cpu0_L2C TRANSLATION  ACCESS:          0 HIT:          0 MISS:          0 MSHR_MERGE:          0
cpu0->cpu0_L2C PREFETCH REQUESTED:      71443 ISSUED:      70375 USEFUL:       4749 USELESS:        203 LATE:         66
cpu0->cpu0_L2C AVERAGE MISS LATENCY: 145.5 cycles
cpu0->cpu0_L1I TOTAL        ACCESS:     382957 HIT:     382957 MISS:          0 MSHR_MERGE:          0
cpu0->cpu0_L1I LOAD         ACCESS:     382957 HIT:     382957 MISS:          0 MSHR_MERGE:          0
cpu0->cpu0_L1I RFO          ACCESS:          0 HIT:          0 MISS:          0 MSHR_MERGE:          0
cpu0->cpu0_L1I PREFETCH     ACCESS:          0 HIT:          0 MISS:          0 MSHR_MERGE:          0
cpu0->cpu0_L1I WRITE        ACCESS:          0 HIT:          0 MISS:          0 MSHR_MERGE:          0
cpu0->cpu0_L1I TRANSLATION  ACCESS:          0 HIT:          0 MISS:          0 MSHR_MERGE:          0
cpu0->cpu0_L1I PREFETCH REQUESTED:          0 ISSUED:          0 USEFUL:          0 USELESS:          0 LATE:          0
cpu0->cpu0_L1I AVERAGE MISS LATENCY: - cycles
cpu0->cpu0_L1D TOTAL        ACCESS:    7841435 HIT:    7778969 MISS:      62466 MSHR_MERGE:      39484
cpu0->cpu0_L1D LOAD         ACCESS:    4679360 HIT:    4673587 MISS:       5773 MSHR_MERGE:       1174
cpu0->cpu0_L1D RFO          ACCESS:          0 HIT:          0 MISS:          0 MSHR_MERGE:          0
cpu0->cpu0_L1D PREFETCH     ACCESS:      30400 HIT:      19785 MISS:      10615 MSHR_MERGE:        112
cpu0->cpu0_L1D WRITE        ACCESS:    3131675 HIT:    3085597 MISS:      46078 MSHR_MERGE:      38198
cpu0->cpu0_L1D TRANSLATION  ACCESS:          0 HIT:          0 MISS:          0 MSHR_MERGE:          0
cpu0->cpu0_L1D PREFETCH REQUESTED:      30487 ISSUED:      30400 USEFUL:       8661 USELESS:       1824 LATE:        140
cpu0->cpu0_L1D AVERAGE MISS LATENCY: 57.99 cycles
cpu0->cpu0_ITLB TOTAL        ACCESS:     381908 HIT:     381908 MISS:          0 MSHR_MERGE:          0
cpu0->cpu0_ITLB LOAD         ACCESS:     381908 HIT:     381908 MISS:          0 MSHR_MERGE:          0
cpu0->cpu0_ITLB RFO          ACCESS:          0 HIT:          0 MISS:          0 MSHR_MERGE:          0
cpu0->cpu0_ITLB PREFETCH     ACCESS:          0 HIT:          0 MISS:          0 MSHR_MERGE:          0
cpu0->cpu0_ITLB WRITE        ACCESS:          0 HIT:          0 MISS:          0 MSHR_MERGE:          0
cpu0->cpu0_ITLB TRANSLATION  ACCESS:          0 HIT:          0 MISS:          0 MSHR_MERGE:          0
cpu0->cpu0_ITLB PREFETCH REQUESTED:          0 ISSUED:          0 USEFUL:          0 USELESS:          0 LATE:          0
cpu0->cpu0_ITLB AVERAGE MISS LATENCY: - cycles
cpu0->cpu0_DTLB TOTAL        ACCESS:    7357643 HIT:    7356956 MISS:        687 MSHR_MERGE:        186
cpu0->cpu0_DTLB LOAD         ACCESS:    7357643 HIT:    7356956 MISS:        687 MSHR_MERGE:        186
cpu0->cpu0_DTLB RFO          ACCESS:          0 HIT:          0 MISS:          0 MSHR_MERGE:          0
cpu0->cpu0_DTLB PREFETCH     ACCESS:          0 HIT:          0 MISS:          0 MSHR_MERGE:          0
cpu0->cpu0_DTLB WRITE        ACCESS:          0 HIT:          0 MISS:          0 MSHR_MERGE:          0
cpu0->cpu0_DTLB TRANSLATION  ACCESS:          0 HIT:          0 MISS:          0 MSHR_MERGE:          0
cpu0->cpu0_DTLB PREFETCH REQUESTED:          0 ISSUED:          0 USEFUL:          0 USELESS:          0 LATE:          0
cpu0->cpu0_DTLB AVERAGE MISS LATENCY: 5 cycles
cpu0->LLC TOTAL        ACCESS:      12974 HIT:       3664 MISS:       9310 MSHR_MERGE:          0
cpu0->LLC LOAD         ACCESS:        138 HIT:         60 MISS:         78 MSHR_MERGE:          0
cpu0->LLC RFO          ACCESS:       4074 HIT:          0 MISS:       4074 MSHR_MERGE:          0
cpu0->LLC PREFETCH     ACCESS:       5307 HIT:        149 MISS:       5158 MSHR_MERGE:          0
cpu0->LLC WRITE        ACCESS:       3455 HIT:       3455 MISS:          0 MSHR_MERGE:          0
cpu0->LLC TRANSLATION  ACCESS:          0 HIT:          0 MISS:          0 MSHR_MERGE:          0
cpu0->LLC PREFETCH REQUESTED:          0 ISSUED:          0 USEFUL:          0 USELESS:          0 LATE:          0
cpu0->LLC AVERAGE MISS LATENCY: 132.1 cycles

DRAM Statistics

Channel 0 RQ ROW_BUFFER_HIT:       2622
  ROW_BUFFER_MISS:       6688
  AVG DBUS CONGESTED CYCLE: 2.806
Channel 0 WQ ROW_BUFFER_HIT:          0
  ROW_BUFFER_MISS:          0
  FULL:          0
Channel 0 REFRESHES ISSUED:       2088

[ROI Statistics]
[System Configuration]
num_cpus 1
cpu_freq 4000
fetch_width 6
decode_width 6
dispatch_width 6
execute_width 6
lq_width 2
sq_width 2
retire_width 6
scheduler_size 160
branch_mispredict_penalty 1
rob_size 352
lq_size 240
sq_size 112
ifetch_buffer_size 64
decode_buffer_size 32
dispatch_buffer_size 32
register_file_size 288
decode_latency 1
dispatch_latency 1
schedule_latency 0
execute_latency 0
page_size 4096
block_size 64
core_0_itlb_set 16
core_0_itlb_way 4
core_0_itlb_rq_size 16
core_0_itlb_wq_size 16
core_0_itlb_pq_size 0
core_0_itlb_mshr_size 8
core_0_itlb_hit_latency 1
core_0_itlb_fill_latency 1
core_0_itlb_max_tag_check 2
core_0_itlb_max_fill 2
core_0_dtlb_set 16
core_0_dtlb_way 4
core_0_dtlb_rq_size 16
core_0_dtlb_wq_size 16
core_0_dtlb_pq_size 0
core_0_dtlb_mshr_size 8
core_0_dtlb_hit_latency 1
core_0_dtlb_fill_latency 1
core_0_dtlb_max_tag_check 2
core_0_dtlb_max_fill 2
core_0_stlb_set 128
core_0_stlb_way 12
core_0_stlb_rq_size 32
core_0_stlb_wq_size 32
core_0_stlb_pq_size 0
core_0_stlb_mshr_size 16
core_0_stlb_hit_latency 4
core_0_stlb_fill_latency 4
core_0_stlb_max_tag_check 1
core_0_stlb_max_fill 1
core_0_l1i_set 64
core_0_l1i_way 8
core_0_l1i_rq_size 64
core_0_l1i_wq_size 64
core_0_l1i_pq_size 32
core_0_l1i_mshr_size 8
core_0_l1i_hit_latency 2
core_0_l1i_fill_latency 2
core_0_l1i_max_tag_check 2
core_0_l1i_max_fill 2
core_0_l1d_set 64
core_0_l1d_way 12
core_0_l1d_rq_size 64
core_0_l1d_wq_size 64
core_0_l1d_pq_size 8
core_0_l1d_mshr_size 16
core_0_l1d_hit_latency 2
core_0_l1d_fill_latency 3
core_0_l1d_max_tag_check 2
core_0_l1d_max_fill 2
core_0_l2c_set 1024
core_0_l2c_way 8
core_0_l2c_rq_size 32
core_0_l2c_wq_size 32
core_0_l2c_pq_size 16
core_0_l2c_mshr_size 32
core_0_l2c_hit_latency 5
core_0_l2c_fill_latency 5
core_0_l2c_max_tag_check 1
core_0_l2c_max_fill 1
llc_set 2048
llc_way 16
llc_rq_size 32
llc_wq_size 32
llc_pq_size 32
llc_mshr_size 64
llc_hit_latency 10
llc_fill_latency 10
llc_max_tag_check 1
llc_max_fill 1
dram_channels 1
dram_ranks 1
dram_bankgroups 8
dram_banks 4
dram_rows 16384
dram_columns 1024
dram_channel_width 8
dram_rq_size 64
dram_wq_size 64
dram_size 4294967296
core_0_itlb_prefetcher no
core_0_dtlb_prefetcher no
core_0_stlb_prefetcher no
core_0_l1i_prefetcher next_line
core_0_l1d_prefetcher berti
core_0_l2c_prefetcher pythia
llc_prefetcher no
llc_replacement drrip

Core_0_instructions 50000000
Core_0_cycles 25052777
Core_0_IPC 1.99579
Core_0_branch_prediction_accuracy 86.3502
Core_0_branch_MPKI 14.301
Core_0_average_ROB_occupancy_at_mispredict 29.5629

Core_0_ITLB_total_access 381908
Core_0_ITLB_total_hit 381908
Core_0_ITLB_total_miss 0
Core_0_ITLB_total_MPKI 0
Core_0_ITLB_total_miss_rate 0
Core_0_ITLB_demand_access 381908
Core_0_ITLB_demand_hit 381908
Core_0_ITLB_demand_miss 0
Core_0_ITLB_demand_MPKI 0
Core_0_ITLB_demand_miss_rate 0
Core_0_ITLB_load_access 381908
Core_0_ITLB_load_hit 381908
Core_0_ITLB_load_miss 0
Core_0_ITLB_load_MPKI 0
Core_0_ITLB_load_miss_rate 0
Core_0_ITLB_rfo_access 0
Core_0_ITLB_rfo_hit 0
Core_0_ITLB_rfo_miss 0
Core_0_ITLB_rfo_MPKI 0
Core_0_ITLB_rfo_miss_rate 0
Core_0_ITLB_prefetch_access 0
Core_0_ITLB_prefetch_hit 0
Core_0_ITLB_prefetch_miss 0
Core_0_ITLB_prefetch_MPKI 0
Core_0_ITLB_prefetch_miss_rate 0
Core_0_ITLB_writeback_access 0
Core_0_ITLB_writeback_hit 0
Core_0_ITLB_writeback_miss 0
Core_0_ITLB_writeback_MPKI 0
Core_0_ITLB_writeback_miss_rate 0
Core_0_ITLB_prefetch_requested 0
Core_0_ITLB_prefetch_issued 0
Core_0_ITLB_prefetch_useful 0
Core_0_ITLB_prefetch_useless 0
Core_0_ITLB_prefetch_late 0
Core_0_ITLB_prefetch_accuracy 0
Core_0_ITLB_prefetch_coverage 0

Core_0_DTLB_total_access 7357643
Core_0_DTLB_total_hit 7356956
Core_0_DTLB_total_miss 687
Core_0_DTLB_total_MPKI 0.01374
Core_0_DTLB_total_miss_rate 9.33723e-05
Core_0_DTLB_demand_access 7357643
Core_0_DTLB_demand_hit 7356956
Core_0_DTLB_demand_miss 687
Core_0_DTLB_demand_MPKI 0.01374
Core_0_DTLB_demand_miss_rate 9.33723e-05
Core_0_DTLB_load_access 7357643
Core_0_DTLB_load_hit 7356956
Core_0_DTLB_load_miss 687
Core_0_DTLB_load_MPKI 0.01374
Core_0_DTLB_load_miss_rate 9.33723e-05
Core_0_DTLB_rfo_access 0
Core_0_DTLB_rfo_hit 0
Core_0_DTLB_rfo_miss 0
Core_0_DTLB_rfo_MPKI 0
Core_0_DTLB_rfo_miss_rate 0
Core_0_DTLB_prefetch_access 0
Core_0_DTLB_prefetch_hit 0
Core_0_DTLB_prefetch_miss 0
Core_0_DTLB_prefetch_MPKI 0
Core_0_DTLB_prefetch_miss_rate 0
Core_0_DTLB_writeback_access 0
Core_0_DTLB_writeback_hit 0
Core_0_DTLB_writeback_miss 0
Core_0_DTLB_writeback_MPKI 0
Core_0_DTLB_writeback_miss_rate 0
Core_0_DTLB_prefetch_requested 0
Core_0_DTLB_prefetch_issued 0
Core_0_DTLB_prefetch_useful 0
Core_0_DTLB_prefetch_useless 0
Core_0_DTLB_prefetch_late 0
Core_0_DTLB_prefetch_accuracy 0
Core_0_DTLB_prefetch_coverage 0

Core_0_STLB_total_access 501
Core_0_STLB_total_hit 501
Core_0_STLB_total_miss 0
Core_0_STLB_total_MPKI 0
Core_0_STLB_total_miss_rate 0
Core_0_STLB_demand_access 501
Core_0_STLB_demand_hit 501
Core_0_STLB_demand_miss 0
Core_0_STLB_demand_MPKI 0
Core_0_STLB_demand_miss_rate 0
Core_0_STLB_load_access 501
Core_0_STLB_load_hit 501
Core_0_STLB_load_miss 0
Core_0_STLB_load_MPKI 0
Core_0_STLB_load_miss_rate 0
Core_0_STLB_rfo_access 0
Core_0_STLB_rfo_hit 0
Core_0_STLB_rfo_miss 0
Core_0_STLB_rfo_MPKI 0
Core_0_STLB_rfo_miss_rate 0
Core_0_STLB_prefetch_access 0
Core_0_STLB_prefetch_hit 0
Core_0_STLB_prefetch_miss 0
Core_0_STLB_prefetch_MPKI 0
Core_0_STLB_prefetch_miss_rate 0
Core_0_STLB_writeback_access 0
Core_0_STLB_writeback_hit 0
Core_0_STLB_writeback_miss 0
Core_0_STLB_writeback_MPKI 0
Core_0_STLB_writeback_miss_rate 0
Core_0_STLB_prefetch_requested 0
Core_0_STLB_prefetch_issued 0
Core_0_STLB_prefetch_useful 0
Core_0_STLB_prefetch_useless 0
Core_0_STLB_prefetch_late 0
Core_0_STLB_prefetch_accuracy 0
Core_0_STLB_prefetch_coverage 0

Core_0_L1I_total_access 382957
Core_0_L1I_total_hit 382957
Core_0_L1I_total_miss 0
Core_0_L1I_total_MPKI 0
Core_0_L1I_total_miss_rate 0
Core_0_L1I_demand_access 382957
Core_0_L1I_demand_hit 382957
Core_0_L1I_demand_miss 0
Core_0_L1I_demand_MPKI 0
Core_0_L1I_demand_miss_rate 0
Core_0_L1I_load_access 382957
Core_0_L1I_load_hit 382957
Core_0_L1I_load_miss 0
Core_0_L1I_load_MPKI 0
Core_0_L1I_load_miss_rate 0
Core_0_L1I_rfo_access 0
Core_0_L1I_rfo_hit 0
Core_0_L1I_rfo_miss 0
Core_0_L1I_rfo_MPKI 0
Core_0_L1I_rfo_miss_rate 0
Core_0_L1I_prefetch_access 0
Core_0_L1I_prefetch_hit 0
Core_0_L1I_prefetch_miss 0
Core_0_L1I_prefetch_MPKI 0
Core_0_L1I_prefetch_miss_rate 0
Core_0_L1I_writeback_access 0
Core_0_L1I_writeback_hit 0
Core_0_L1I_writeback_miss 0
Core_0_L1I_writeback_MPKI 0
Core_0_L1I_writeback_miss_rate 0
Core_0_L1I_prefetch_requested 0
Core_0_L1I_prefetch_issued 0
Core_0_L1I_prefetch_useful 0
Core_0_L1I_prefetch_useless 0
Core_0_L1I_prefetch_late 0
Core_0_L1I_prefetch_accuracy 0
Core_0_L1I_prefetch_coverage 0

Core_0_L1D_total_access 7841435
Core_0_L1D_total_hit 7778969
Core_0_L1D_total_miss 62466
Core_0_L1D_total_MPKI 1.24932
Core_0_L1D_total_miss_rate 0.00796614
Core_0_L1D_demand_access 4679360
Core_0_L1D_demand_hit 4673587
Core_0_L1D_demand_miss 5773
Core_0_L1D_demand_MPKI 0.11546
Core_0_L1D_demand_miss_rate 0.00123372
Core_0_L1D_load_access 4679360
Core_0_L1D_load_hit 4673587
Core_0_L1D_load_miss 5773
Core_0_L1D_load_MPKI 0.11546
Core_0_L1D_load_miss_rate 0.00123372
Core_0_L1D_rfo_access 0
Core_0_L1D_rfo_hit 0
Core_0_L1D_rfo_miss 0
Core_0_L1D_rfo_MPKI 0
Core_0_L1D_rfo_miss_rate 0
Core_0_L1D_prefetch_access 30400
Core_0_L1D_prefetch_hit 19785
Core_0_L1D_prefetch_miss 10615
Core_0_L1D_prefetch_MPKI 0.2123
Core_0_L1D_prefetch_miss_rate 0.349178
Core_0_L1D_writeback_access 3131675
Core_0_L1D_writeback_hit 3085597
Core_0_L1D_writeback_miss 46078
Core_0_L1D_writeback_MPKI 0.92156
Core_0_L1D_writeback_miss_rate 0.0147135
Core_0_L1D_prefetch_requested 30487
Core_0_L1D_prefetch_issued 30400
Core_0_L1D_prefetch_useful 8661
Core_0_L1D_prefetch_useless 1824
Core_0_L1D_prefetch_late 140
Core_0_L1D_prefetch_accuracy 0.284901
Core_0_L1D_prefetch_coverage 0.600042

Core_0_L2C_total_access 106623
Core_0_L2C_total_hit 90777
Core_0_L2C_total_miss 15846
Core_0_L2C_total_MPKI 0.31692
Core_0_L2C_total_miss_rate 0.148617
Core_0_L2C_demand_access 12479
Core_0_L2C_demand_hit 8201
Core_0_L2C_demand_miss 4278
Core_0_L2C_demand_MPKI 0.08556
Core_0_L2C_demand_miss_rate 0.342816
Core_0_L2C_load_access 4599
Core_0_L2C_load_hit 4395
Core_0_L2C_load_miss 204
Core_0_L2C_load_MPKI 0.00408
Core_0_L2C_load_miss_rate 0.0443575
Core_0_L2C_rfo_access 7880
Core_0_L2C_rfo_hit 3806
Core_0_L2C_rfo_miss 4074
Core_0_L2C_rfo_MPKI 0.08148
Core_0_L2C_rfo_miss_rate 0.517005
Core_0_L2C_prefetch_access 80878
Core_0_L2C_prefetch_hit 69313
Core_0_L2C_prefetch_miss 11565
Core_0_L2C_prefetch_MPKI 0.2313
Core_0_L2C_prefetch_miss_rate 0.142993
Core_0_L2C_writeback_access 13266
Core_0_L2C_writeback_hit 13263
Core_0_L2C_writeback_miss 3
Core_0_L2C_writeback_MPKI 6e-05
Core_0_L2C_writeback_miss_rate 0.000226142
Core_0_L2C_prefetch_requested 71443
Core_0_L2C_prefetch_issued 70375
Core_0_L2C_prefetch_useful 4749
Core_0_L2C_prefetch_useless 203
Core_0_L2C_prefetch_late 66
Core_0_L2C_prefetch_accuracy 0.0674813
Core_0_L2C_prefetch_coverage 0.526088

Core_0_LLC_total_access 12974
Core_0_LLC_total_hit 3664
Core_0_LLC_total_miss 9310
Core_0_LLC_total_MPKI 0.1862
Core_0_LLC_total_miss_rate 0.717589
Core_0_LLC_demand_access 4212
Core_0_LLC_demand_hit 60
Core_0_LLC_demand_miss 4152
Core_0_LLC_demand_MPKI 0.08304
Core_0_LLC_demand_miss_rate 0.985755
Core_0_LLC_load_access 138
Core_0_LLC_load_hit 60
Core_0_LLC_load_miss 78
Core_0_LLC_load_MPKI 0.00156
Core_0_LLC_load_miss_rate 0.565217
Core_0_LLC_rfo_access 4074
Core_0_LLC_rfo_hit 0
Core_0_LLC_rfo_miss 4074
Core_0_LLC_rfo_MPKI 0.08148
Core_0_LLC_rfo_miss_rate 1
Core_0_LLC_prefetch_access 5307
Core_0_LLC_prefetch_hit 149
Core_0_LLC_prefetch_miss 5158
Core_0_LLC_prefetch_MPKI 0.10316
Core_0_LLC_prefetch_miss_rate 0.971924
Core_0_LLC_writeback_access 3455
Core_0_LLC_writeback_hit 3455
Core_0_LLC_writeback_miss 0
Core_0_LLC_writeback_MPKI 0
Core_0_LLC_writeback_miss_rate 0
Core_0_LLC_prefetch_requested 0
Core_0_LLC_prefetch_issued 0
Core_0_LLC_prefetch_useful 0
Core_0_LLC_prefetch_useless 0
Core_0_LLC_prefetch_late 0
Core_0_LLC_prefetch_accuracy 0
Core_0_LLC_prefetch_coverage 0

[DRAM Statistics]
Channel_0_RQ_row_buffer_hit 2622
Channel_0_RQ_row_buffer_miss 6688
Channel_0_WQ_row_buffer_hit 0
Channel_0_WQ_row_buffer_miss 0
Channel_0_WQ_full 0
Channel_0_dbus_congested 3182
DRAM_total_RQ_row_buffer_hit 2622
DRAM_total_RQ_row_buffer_miss 6688
DRAM_total_WQ_row_buffer_hit 0
DRAM_total_WQ_row_buffer_miss 0
DRAM_total_WQ_full 0
DRAM_total_dbus_congested 3182
DRAM_avg_congested_cycle 2.80578

======STLB miss causes ========
Core_0_STLB_miss_cause_breakdown
Core_0_STLB_cause_Demand_Data_miss 0
Core_0_STLB_cause_Demand_Data_miss_rate 0
Core_0_STLB_cause_Demand_Instruction_miss 0
Core_0_STLB_cause_Demand_Instruction_miss_rate 0
Core_0_STLB_cause_L1D_Prefetch_miss 0
Core_0_STLB_cause_L1D_Prefetch_miss_rate 0
Core_0_STLB_cause_L1I_Prefetch_miss 0
Core_0_STLB_cause_L1I_Prefetch_miss_rate 0
Core_0_STLB_cause_Other_miss 0
Core_0_STLB_cause_Other_miss_rate 0
Core_0_STLB_Demand_miss 0
Core_0_STLB_Demand_miss_rate 0
Core_0_STLB_L1D_Prefetch_miss 0
Core_0_STLB_L1D_Prefetch_miss_rate 0
Core_0_STLB_Other_miss 0
Core_0_STLB_Other_miss_rate 0
