[VMEM] WARNING: physical memory size is smaller than virtual memory size.

*** ChampSim Multicore Out-of-Order Simulator ***
Warmup Instructions: 20000000
Simulation Instructions: 50000000
Number of CPUs: 1
Page size: 4096
STLB ideal mode: all
Core 0: /data0/tzh/champsim_traces/GAP/gap.cc.twitter-10B.champsimtrace.xz
 L1D Berti prefetcher
Off-chip DRAM Size: 4 GiB Channels: 1 Width: 64-bit Data Rate: 3205 MT/s
Warmup halting CPU 0 at instruction 20000005 cycle 4498090 for remainder of phase
Warmup finished CPU 0 instructions: 20000005 cycles: 4498090 cumulative IPC: 4.446 (Simulation time: 00 hr 00 min 51 sec)
Warmup complete CPU 0 instructions: 20000005 cycles: 4498090 cumulative IPC: 4.446 (Simulation time: 00 hr 00 min 51 sec)
Simulation finished CPU 0 instructions: 50000001 cycles: 64103873 cumulative IPC: 0.78 (Simulation time: 00 hr 05 min 58 sec)
Simulation complete CPU 0 instructions: 50000001 cycles: 64103873 cumulative IPC: 0.78 (Simulation time: 00 hr 05 min 58 sec)

ChampSim completed all CPUs

=== Simulation ===
CPU 0 runs /data0/tzh/champsim_traces/GAP/gap.cc.twitter-10B.champsimtrace.xz

Region of Interest Statistics

CPU 0 cumulative IPC: 0.78 instructions: 50000001 cycles: 64103873
CPU 0 Branch Prediction Accuracy: 91.08% MPKI: 26.68 Average ROB Occupancy at Mispredict: 17.72
Branch type MPKI
BRANCH_DIRECT_JUMP: 0
BRANCH_INDIRECT: 0
BRANCH_CONDITIONAL: 26.68
BRANCH_DIRECT_CALL: 0
BRANCH_INDIRECT_CALL: 0
BRANCH_RETURN: 0

cpu0->cpu0_STLB TOTAL        ACCESS:     179565 HIT:     179565 MISS:          0 MSHR_MERGE:          0
cpu0->cpu0_STLB LOAD         ACCESS:     179565 HIT:     179565 MISS:          0 MSHR_MERGE:          0
cpu0->cpu0_STLB RFO          ACCESS:          0 HIT:          0 MISS:          0 MSHR_MERGE:          0
cpu0->cpu0_STLB PREFETCH     ACCESS:          0 HIT:          0 MISS:          0 MSHR_MERGE:          0
cpu0->cpu0_STLB WRITE        ACCESS:          0 HIT:          0 MISS:          0 MSHR_MERGE:          0
cpu0->cpu0_STLB TRANSLATION  ACCESS:          0 HIT:          0 MISS:          0 MSHR_MERGE:          0
cpu0->cpu0_STLB PREFETCH REQUESTED:          0 ISSUED:          0 USEFUL:          0 USELESS:          0 LATE:          0
cpu0->cpu0_STLB AVERAGE MISS LATENCY: - cycles
cpu0->cpu0_L2C TOTAL        ACCESS:    2448786 HIT:    1753446 MISS:     695340 MSHR_MERGE:     235369
cpu0->cpu0_L2C LOAD         ACCESS:     182122 HIT:      46184 MISS:     135938 MSHR_MERGE:          0
cpu0->cpu0_L2C RFO          ACCESS:          0 HIT:          0 MISS:          0 MSHR_MERGE:          0
cpu0->cpu0_L2C PREFETCH     ACCESS:    1963165 HIT:    1403763 MISS:     559402 MSHR_MERGE:     235369
cpu0->cpu0_L2C WRITE        ACCESS:     303499 HIT:     303499 MISS:          0 MSHR_MERGE:          0
cpu0->cpu0_L2C TRANSLATION  ACCESS:          0 HIT:          0 MISS:          0 MSHR_MERGE:          0
cpu0->cpu0_L2C PREFETCH REQUESTED:    1634516 ISSUED:    1634516 USEFUL:     303108 USELESS:       8519 LATE:          0
cpu0->cpu0_L2C AVERAGE MISS LATENCY: 165.3 cycles
cpu0->cpu0_L1D TOTAL        ACCESS:   12207013 HIT:   11670897 MISS:     536116 MSHR_MERGE:      25348
cpu0->cpu0_L1D LOAD         ACCESS:   10545207 HIT:   10337800 MISS:     207407 MSHR_MERGE:      25285
cpu0->cpu0_L1D RFO          ACCESS:          0 HIT:          0 MISS:          0 MSHR_MERGE:          0
cpu0->cpu0_L1D PREFETCH     ACCESS:     379979 HIT:      51270 MISS:     328709 MSHR_MERGE:         63
cpu0->cpu0_L1D WRITE        ACCESS:    1281827 HIT:    1281827 MISS:          0 MSHR_MERGE:          0
cpu0->cpu0_L1D TRANSLATION  ACCESS:          0 HIT:          0 MISS:          0 MSHR_MERGE:          0
cpu0->cpu0_L1D PREFETCH REQUESTED:     379977 ISSUED:     379977 USEFUL:     307851 USELESS:      20809 LATE:       2024
cpu0->cpu0_L1D AVERAGE MISS LATENCY: 131.3 cycles
cpu0->cpu0_DTLB TOTAL        ACCESS:   12136678 HIT:   11950246 MISS:     186432 MSHR_MERGE:       6867
cpu0->cpu0_DTLB LOAD         ACCESS:   12136678 HIT:   11950246 MISS:     186432 MSHR_MERGE:       6867
cpu0->cpu0_DTLB RFO          ACCESS:          0 HIT:          0 MISS:          0 MSHR_MERGE:          0
cpu0->cpu0_DTLB PREFETCH     ACCESS:          0 HIT:          0 MISS:          0 MSHR_MERGE:          0
cpu0->cpu0_DTLB WRITE        ACCESS:          0 HIT:          0 MISS:          0 MSHR_MERGE:          0
cpu0->cpu0_DTLB TRANSLATION  ACCESS:          0 HIT:          0 MISS:          0 MSHR_MERGE:          0
cpu0->cpu0_DTLB PREFETCH REQUESTED:          0 ISSUED:          0 USEFUL:          0 USELESS:          0 LATE:          0
cpu0->cpu0_DTLB AVERAGE MISS LATENCY: 5 cycles
cpu0->LLC TOTAL        ACCESS:     763050 HIT:     303943 MISS:     459107 MSHR_MERGE:          0
cpu0->LLC LOAD         ACCESS:     135938 HIT:      28104 MISS:     107834 MSHR_MERGE:          0
cpu0->LLC RFO          ACCESS:          0 HIT:          0 MISS:          0 MSHR_MERGE:          0
cpu0->LLC PREFETCH     ACCESS:     324033 HIT:       9623 MISS:     314410 MSHR_MERGE:          0
cpu0->LLC WRITE        ACCESS:     303079 HIT:     266216 MISS:      36863 MSHR_MERGE:          0
cpu0->LLC TRANSLATION  ACCESS:          0 HIT:          0 MISS:          0 MSHR_MERGE:          0
cpu0->LLC PREFETCH REQUESTED:          0 ISSUED:          0 USEFUL:          0 USELESS:          0 LATE:          0
cpu0->LLC AVERAGE MISS LATENCY: 142.7 cycles

DRAM Statistics

Channel 0 RQ ROW_BUFFER_HIT:      15294
  ROW_BUFFER_MISS:     406938
  AVG DBUS CONGESTED CYCLE: 15.4
Channel 0 WQ ROW_BUFFER_HIT:      85985
  ROW_BUFFER_MISS:     216796
  FULL:          0
Channel 0 REFRESHES ISSUED:       5342

[ROI Statistics]
[System Configuration]
num_cpus 1
cpu_freq 4000
fetch_width 6
decode_width 6
dispatch_width 6
execute_width 6
lq_width 2
sq_width 2
retire_width 6
scheduler_size 160
branch_mispredict_penalty 1
rob_size 352
lq_size 240
sq_size 112
ifetch_buffer_size 64
decode_buffer_size 32
dispatch_buffer_size 32
register_file_size 288
decode_latency 1
dispatch_latency 1
schedule_latency 0
execute_latency 0
page_size 4096
block_size 64
core_0_itlb_set 16
core_0_itlb_way 4
core_0_itlb_rq_size 16
core_0_itlb_wq_size 16
core_0_itlb_pq_size 0
core_0_itlb_mshr_size 8
core_0_itlb_hit_latency 1
core_0_itlb_fill_latency 1
core_0_itlb_max_tag_check 2
core_0_itlb_max_fill 2
core_0_dtlb_set 16
core_0_dtlb_way 4
core_0_dtlb_rq_size 16
core_0_dtlb_wq_size 16
core_0_dtlb_pq_size 0
core_0_dtlb_mshr_size 8
core_0_dtlb_hit_latency 1
core_0_dtlb_fill_latency 1
core_0_dtlb_max_tag_check 2
core_0_dtlb_max_fill 2
core_0_stlb_set 128
core_0_stlb_way 12
core_0_stlb_rq_size 32
core_0_stlb_wq_size 32
core_0_stlb_pq_size 0
core_0_stlb_mshr_size 16
core_0_stlb_hit_latency 4
core_0_stlb_fill_latency 4
core_0_stlb_max_tag_check 1
core_0_stlb_max_fill 1
core_0_l1i_set 64
core_0_l1i_way 8
core_0_l1i_rq_size 64
core_0_l1i_wq_size 64
core_0_l1i_pq_size 32
core_0_l1i_mshr_size 8
core_0_l1i_hit_latency 2
core_0_l1i_fill_latency 2
core_0_l1i_max_tag_check 2
core_0_l1i_max_fill 2
core_0_l1d_set 64
core_0_l1d_way 12
core_0_l1d_rq_size 64
core_0_l1d_wq_size 64
core_0_l1d_pq_size 8
core_0_l1d_mshr_size 16
core_0_l1d_hit_latency 2
core_0_l1d_fill_latency 3
core_0_l1d_max_tag_check 2
core_0_l1d_max_fill 2
core_0_l2c_set 1024
core_0_l2c_way 8
core_0_l2c_rq_size 32
core_0_l2c_wq_size 32
core_0_l2c_pq_size 16
core_0_l2c_mshr_size 32
core_0_l2c_hit_latency 5
core_0_l2c_fill_latency 5
core_0_l2c_max_tag_check 1
core_0_l2c_max_fill 1
llc_set 2048
llc_way 16
llc_rq_size 32
llc_wq_size 32
llc_pq_size 32
llc_mshr_size 64
llc_hit_latency 10
llc_fill_latency 10
llc_max_tag_check 1
llc_max_fill 1
dram_channels 1
dram_ranks 1
dram_bankgroups 8
dram_banks 4
dram_rows 16384
dram_columns 1024
dram_channel_width 8
dram_rq_size 64
dram_wq_size 64
dram_size 4294967296
core_0_itlb_prefetcher no
core_0_dtlb_prefetcher no
core_0_stlb_prefetcher no
core_0_l1i_prefetcher next_line
core_0_l1d_prefetcher berti
core_0_l2c_prefetcher pythia
llc_prefetcher no
llc_replacement drrip

Core_0_instructions 50000001
Core_0_cycles 64103873
Core_0_IPC 0.779984
Core_0_branch_prediction_accuracy 91.0815
Core_0_branch_MPKI 26.6798
Core_0_average_ROB_occupancy_at_mispredict 17.7218

Core_0_ITLB_total_access 0
Core_0_ITLB_total_hit 0
Core_0_ITLB_total_miss 0
Core_0_ITLB_total_MPKI 0
Core_0_ITLB_total_miss_rate 0
Core_0_ITLB_demand_access 0
Core_0_ITLB_demand_hit 0
Core_0_ITLB_demand_miss 0
Core_0_ITLB_demand_MPKI 0
Core_0_ITLB_demand_miss_rate 0
Core_0_ITLB_load_access 0
Core_0_ITLB_load_hit 0
Core_0_ITLB_load_miss 0
Core_0_ITLB_load_MPKI 0
Core_0_ITLB_load_miss_rate 0
Core_0_ITLB_rfo_access 0
Core_0_ITLB_rfo_hit 0
Core_0_ITLB_rfo_miss 0
Core_0_ITLB_rfo_MPKI 0
Core_0_ITLB_rfo_miss_rate 0
Core_0_ITLB_prefetch_access 0
Core_0_ITLB_prefetch_hit 0
Core_0_ITLB_prefetch_miss 0
Core_0_ITLB_prefetch_MPKI 0
Core_0_ITLB_prefetch_miss_rate 0
Core_0_ITLB_writeback_access 0
Core_0_ITLB_writeback_hit 0
Core_0_ITLB_writeback_miss 0
Core_0_ITLB_writeback_MPKI 0
Core_0_ITLB_writeback_miss_rate 0
Core_0_ITLB_prefetch_requested 0
Core_0_ITLB_prefetch_issued 0
Core_0_ITLB_prefetch_useful 0
Core_0_ITLB_prefetch_useless 0
Core_0_ITLB_prefetch_late 0
Core_0_ITLB_prefetch_accuracy 0
Core_0_ITLB_prefetch_coverage 0

Core_0_DTLB_total_access 12136678
Core_0_DTLB_total_hit 11950246
Core_0_DTLB_total_miss 186432
Core_0_DTLB_total_MPKI 3.72864
Core_0_DTLB_total_miss_rate 0.015361
Core_0_DTLB_demand_access 12136678
Core_0_DTLB_demand_hit 11950246
Core_0_DTLB_demand_miss 186432
Core_0_DTLB_demand_MPKI 3.72864
Core_0_DTLB_demand_miss_rate 0.015361
Core_0_DTLB_load_access 12136678
Core_0_DTLB_load_hit 11950246
Core_0_DTLB_load_miss 186432
Core_0_DTLB_load_MPKI 3.72864
Core_0_DTLB_load_miss_rate 0.015361
Core_0_DTLB_rfo_access 0
Core_0_DTLB_rfo_hit 0
Core_0_DTLB_rfo_miss 0
Core_0_DTLB_rfo_MPKI 0
Core_0_DTLB_rfo_miss_rate 0
Core_0_DTLB_prefetch_access 0
Core_0_DTLB_prefetch_hit 0
Core_0_DTLB_prefetch_miss 0
Core_0_DTLB_prefetch_MPKI 0
Core_0_DTLB_prefetch_miss_rate 0
Core_0_DTLB_writeback_access 0
Core_0_DTLB_writeback_hit 0
Core_0_DTLB_writeback_miss 0
Core_0_DTLB_writeback_MPKI 0
Core_0_DTLB_writeback_miss_rate 0
Core_0_DTLB_prefetch_requested 0
Core_0_DTLB_prefetch_issued 0
Core_0_DTLB_prefetch_useful 0
Core_0_DTLB_prefetch_useless 0
Core_0_DTLB_prefetch_late 0
Core_0_DTLB_prefetch_accuracy 0
Core_0_DTLB_prefetch_coverage 0

Core_0_STLB_total_access 179565
Core_0_STLB_total_hit 179565
Core_0_STLB_total_miss 0
Core_0_STLB_total_MPKI 0
Core_0_STLB_total_miss_rate 0
Core_0_STLB_demand_access 179565
Core_0_STLB_demand_hit 179565
Core_0_STLB_demand_miss 0
Core_0_STLB_demand_MPKI 0
Core_0_STLB_demand_miss_rate 0
Core_0_STLB_load_access 179565
Core_0_STLB_load_hit 179565
Core_0_STLB_load_miss 0
Core_0_STLB_load_MPKI 0
Core_0_STLB_load_miss_rate 0
Core_0_STLB_rfo_access 0
Core_0_STLB_rfo_hit 0
Core_0_STLB_rfo_miss 0
Core_0_STLB_rfo_MPKI 0
Core_0_STLB_rfo_miss_rate 0
Core_0_STLB_prefetch_access 0
Core_0_STLB_prefetch_hit 0
Core_0_STLB_prefetch_miss 0
Core_0_STLB_prefetch_MPKI 0
Core_0_STLB_prefetch_miss_rate 0
Core_0_STLB_writeback_access 0
Core_0_STLB_writeback_hit 0
Core_0_STLB_writeback_miss 0
Core_0_STLB_writeback_MPKI 0
Core_0_STLB_writeback_miss_rate 0
Core_0_STLB_prefetch_requested 0
Core_0_STLB_prefetch_issued 0
Core_0_STLB_prefetch_useful 0
Core_0_STLB_prefetch_useless 0
Core_0_STLB_prefetch_late 0
Core_0_STLB_prefetch_accuracy 0
Core_0_STLB_prefetch_coverage 0

Core_0_L1I_total_access 0
Core_0_L1I_total_hit 0
Core_0_L1I_total_miss 0
Core_0_L1I_total_MPKI 0
Core_0_L1I_total_miss_rate 0
Core_0_L1I_demand_access 0
Core_0_L1I_demand_hit 0
Core_0_L1I_demand_miss 0
Core_0_L1I_demand_MPKI 0
Core_0_L1I_demand_miss_rate 0
Core_0_L1I_load_access 0
Core_0_L1I_load_hit 0
Core_0_L1I_load_miss 0
Core_0_L1I_load_MPKI 0
Core_0_L1I_load_miss_rate 0
Core_0_L1I_rfo_access 0
Core_0_L1I_rfo_hit 0
Core_0_L1I_rfo_miss 0
Core_0_L1I_rfo_MPKI 0
Core_0_L1I_rfo_miss_rate 0
Core_0_L1I_prefetch_access 0
Core_0_L1I_prefetch_hit 0
Core_0_L1I_prefetch_miss 0
Core_0_L1I_prefetch_MPKI 0
Core_0_L1I_prefetch_miss_rate 0
Core_0_L1I_writeback_access 0
Core_0_L1I_writeback_hit 0
Core_0_L1I_writeback_miss 0
Core_0_L1I_writeback_MPKI 0
Core_0_L1I_writeback_miss_rate 0
Core_0_L1I_prefetch_requested 0
Core_0_L1I_prefetch_issued 0
Core_0_L1I_prefetch_useful 0
Core_0_L1I_prefetch_useless 0
Core_0_L1I_prefetch_late 0
Core_0_L1I_prefetch_accuracy 0
Core_0_L1I_prefetch_coverage 0

Core_0_L1D_total_access 12207013
Core_0_L1D_total_hit 11670897
Core_0_L1D_total_miss 536116
Core_0_L1D_total_MPKI 10.7223
Core_0_L1D_total_miss_rate 0.0439187
Core_0_L1D_demand_access 10545207
Core_0_L1D_demand_hit 10337800
Core_0_L1D_demand_miss 207407
Core_0_L1D_demand_MPKI 4.14814
Core_0_L1D_demand_miss_rate 0.0196684
Core_0_L1D_load_access 10545207
Core_0_L1D_load_hit 10337800
Core_0_L1D_load_miss 207407
Core_0_L1D_load_MPKI 4.14814
Core_0_L1D_load_miss_rate 0.0196684
Core_0_L1D_rfo_access 0
Core_0_L1D_rfo_hit 0
Core_0_L1D_rfo_miss 0
Core_0_L1D_rfo_MPKI 0
Core_0_L1D_rfo_miss_rate 0
Core_0_L1D_prefetch_access 379979
Core_0_L1D_prefetch_hit 51270
Core_0_L1D_prefetch_miss 328709
Core_0_L1D_prefetch_MPKI 6.57418
Core_0_L1D_prefetch_miss_rate 0.865071
Core_0_L1D_writeback_access 1281827
Core_0_L1D_writeback_hit 1281827
Core_0_L1D_writeback_miss 0
Core_0_L1D_writeback_MPKI 0
Core_0_L1D_writeback_miss_rate 0
Core_0_L1D_prefetch_requested 379977
Core_0_L1D_prefetch_issued 379977
Core_0_L1D_prefetch_useful 307851
Core_0_L1D_prefetch_useless 20809
Core_0_L1D_prefetch_late 2024
Core_0_L1D_prefetch_accuracy 0.810183
Core_0_L1D_prefetch_coverage 0.59747

Core_0_L2C_total_access 2448786
Core_0_L2C_total_hit 1753446
Core_0_L2C_total_miss 695340
Core_0_L2C_total_MPKI 13.9068
Core_0_L2C_total_miss_rate 0.283953
Core_0_L2C_demand_access 182122
Core_0_L2C_demand_hit 46184
Core_0_L2C_demand_miss 135938
Core_0_L2C_demand_MPKI 2.71876
Core_0_L2C_demand_miss_rate 0.746412
Core_0_L2C_load_access 182122
Core_0_L2C_load_hit 46184
Core_0_L2C_load_miss 135938
Core_0_L2C_load_MPKI 2.71876
Core_0_L2C_load_miss_rate 0.746412
Core_0_L2C_rfo_access 0
Core_0_L2C_rfo_hit 0
Core_0_L2C_rfo_miss 0
Core_0_L2C_rfo_MPKI 0
Core_0_L2C_rfo_miss_rate 0
Core_0_L2C_prefetch_access 1963165
Core_0_L2C_prefetch_hit 1403763
Core_0_L2C_prefetch_miss 559402
Core_0_L2C_prefetch_MPKI 11.188
Core_0_L2C_prefetch_miss_rate 0.284949
Core_0_L2C_writeback_access 303499
Core_0_L2C_writeback_hit 303499
Core_0_L2C_writeback_miss 0
Core_0_L2C_writeback_MPKI 0
Core_0_L2C_writeback_miss_rate 0
Core_0_L2C_prefetch_requested 1634516
Core_0_L2C_prefetch_issued 1634516
Core_0_L2C_prefetch_useful 303108
Core_0_L2C_prefetch_useless 8519
Core_0_L2C_prefetch_late 0
Core_0_L2C_prefetch_accuracy 0.185442
Core_0_L2C_prefetch_coverage 0.690379

Core_0_LLC_total_access 763050
Core_0_LLC_total_hit 303943
Core_0_LLC_total_miss 459107
Core_0_LLC_total_MPKI 9.18214
Core_0_LLC_total_miss_rate 0.601674
Core_0_LLC_demand_access 135938
Core_0_LLC_demand_hit 28104
Core_0_LLC_demand_miss 107834
Core_0_LLC_demand_MPKI 2.15668
Core_0_LLC_demand_miss_rate 0.793259
Core_0_LLC_load_access 135938
Core_0_LLC_load_hit 28104
Core_0_LLC_load_miss 107834
Core_0_LLC_load_MPKI 2.15668
Core_0_LLC_load_miss_rate 0.793259
Core_0_LLC_rfo_access 0
Core_0_LLC_rfo_hit 0
Core_0_LLC_rfo_miss 0
Core_0_LLC_rfo_MPKI 0
Core_0_LLC_rfo_miss_rate 0
Core_0_LLC_prefetch_access 324033
Core_0_LLC_prefetch_hit 9623
Core_0_LLC_prefetch_miss 314410
Core_0_LLC_prefetch_MPKI 6.2882
Core_0_LLC_prefetch_miss_rate 0.970302
Core_0_LLC_writeback_access 303079
Core_0_LLC_writeback_hit 266216
Core_0_LLC_writeback_miss 36863
Core_0_LLC_writeback_MPKI 0.73726
Core_0_LLC_writeback_miss_rate 0.121628
Core_0_LLC_prefetch_requested 0
Core_0_LLC_prefetch_issued 0
Core_0_LLC_prefetch_useful 0
Core_0_LLC_prefetch_useless 0
Core_0_LLC_prefetch_late 0
Core_0_LLC_prefetch_accuracy 0
Core_0_LLC_prefetch_coverage 0

[DRAM Statistics]
Channel_0_RQ_row_buffer_hit 15294
Channel_0_RQ_row_buffer_miss 406938
Channel_0_WQ_row_buffer_hit 85985
Channel_0_WQ_row_buffer_miss 216796
Channel_0_WQ_full 0
Channel_0_dbus_congested 2500196
DRAM_total_RQ_row_buffer_hit 15294
DRAM_total_RQ_row_buffer_miss 406938
DRAM_total_WQ_row_buffer_hit 85985
DRAM_total_WQ_row_buffer_miss 216796
DRAM_total_WQ_full 0
DRAM_total_dbus_congested 2500196
DRAM_avg_congested_cycle 15.3977

======STLB miss causes ========
Core_0_STLB_miss_cause_breakdown
Core_0_STLB_cause_Demand_Data_miss 0
Core_0_STLB_cause_Demand_Data_miss_rate 0
Core_0_STLB_cause_Demand_Instruction_miss 0
Core_0_STLB_cause_Demand_Instruction_miss_rate 0
Core_0_STLB_cause_L1D_Prefetch_miss 0
Core_0_STLB_cause_L1D_Prefetch_miss_rate 0
Core_0_STLB_cause_L1I_Prefetch_miss 0
Core_0_STLB_cause_L1I_Prefetch_miss_rate 0
Core_0_STLB_cause_Other_miss 0
Core_0_STLB_cause_Other_miss_rate 0
Core_0_STLB_Demand_miss 0
Core_0_STLB_Demand_miss_rate 0
Core_0_STLB_L1D_Prefetch_miss 0
Core_0_STLB_L1D_Prefetch_miss_rate 0
Core_0_STLB_Other_miss 0
Core_0_STLB_Other_miss_rate 0
