[VMEM] WARNING: physical memory size is smaller than virtual memory size.

*** ChampSim Multicore Out-of-Order Simulator ***
Warmup Instructions: 20000000
Simulation Instructions: 50000000
Number of CPUs: 1
Page size: 4096
STLB ideal mode: all
Core 0: /data0/tzh/champsim_traces/Ligra/ligra_BFS.com-lj.ungraph.gcc_6.3.0_O3.drop_17000M.length_250M.champsimtrace.xz
 L1D Berti prefetcher
Off-chip DRAM Size: 4 GiB Channels: 1 Width: 64-bit Data Rate: 3205 MT/s
Warmup halting CPU 0 at instruction 20000003 cycle 5058883 for remainder of phase
Warmup finished CPU 0 instructions: 20000003 cycles: 5058883 cumulative IPC: 3.953 (Simulation time: 00 hr 01 min 14 sec)
Warmup complete CPU 0 instructions: 20000003 cycles: 5058883 cumulative IPC: 3.953 (Simulation time: 00 hr 01 min 14 sec)
Simulation finished CPU 0 instructions: 50000005 cycles: 31294865 cumulative IPC: 1.598 (Simulation time: 00 hr 06 min 31 sec)
Simulation complete CPU 0 instructions: 50000005 cycles: 31294865 cumulative IPC: 1.598 (Simulation time: 00 hr 06 min 31 sec)

ChampSim completed all CPUs

=== Simulation ===
CPU 0 runs /data0/tzh/champsim_traces/Ligra/ligra_BFS.com-lj.ungraph.gcc_6.3.0_O3.drop_17000M.length_250M.champsimtrace.xz

Region of Interest Statistics

CPU 0 cumulative IPC: 1.598 instructions: 50000005 cycles: 31294865
CPU 0 Branch Prediction Accuracy: 99.3% MPKI: 0.6963 Average ROB Occupancy at Mispredict: 200.6
Branch type MPKI
BRANCH_DIRECT_JUMP: 2e-05
BRANCH_INDIRECT: 0
BRANCH_CONDITIONAL: 0.6961
BRANCH_DIRECT_CALL: 4e-05
BRANCH_INDIRECT_CALL: 0
BRANCH_RETURN: 0.0001

cpu0->cpu0_STLB TOTAL        ACCESS:      21892 HIT:      21892 MISS:          0 MSHR_MERGE:          0
cpu0->cpu0_STLB LOAD         ACCESS:      21892 HIT:      21892 MISS:          0 MSHR_MERGE:          0
cpu0->cpu0_STLB RFO          ACCESS:          0 HIT:          0 MISS:          0 MSHR_MERGE:          0
cpu0->cpu0_STLB PREFETCH     ACCESS:          0 HIT:          0 MISS:          0 MSHR_MERGE:          0
cpu0->cpu0_STLB WRITE        ACCESS:          0 HIT:          0 MISS:          0 MSHR_MERGE:          0
cpu0->cpu0_STLB TRANSLATION  ACCESS:          0 HIT:          0 MISS:          0 MSHR_MERGE:          0
cpu0->cpu0_STLB PREFETCH REQUESTED:          0 ISSUED:          0 USEFUL:          0 USELESS:          0 LATE:          0
cpu0->cpu0_STLB AVERAGE MISS LATENCY: - cycles
cpu0->cpu0_L2C TOTAL        ACCESS:    3920737 HIT:    1491732 MISS:    2429005 MSHR_MERGE:    1544044
cpu0->cpu0_L2C LOAD         ACCESS:     332302 HIT:     233861 MISS:      98441 MSHR_MERGE:      84422
cpu0->cpu0_L2C RFO          ACCESS:     480135 HIT:      33937 MISS:     446198 MSHR_MERGE:         26
cpu0->cpu0_L2C PREFETCH     ACCESS:    2577703 HIT:     693358 MISS:    1884345 MSHR_MERGE:    1459596
cpu0->cpu0_L2C WRITE        ACCESS:     530597 HIT:     530576 MISS:         21 MSHR_MERGE:          0
cpu0->cpu0_L2C TRANSLATION  ACCESS:          0 HIT:          0 MISS:          0 MSHR_MERGE:          0
cpu0->cpu0_L2C PREFETCH REQUESTED:    2442659 ISSUED:    2313147 USEFUL:     306653 USELESS:      95383 LATE:      84448
cpu0->cpu0_L2C AVERAGE MISS LATENCY: 445.2 cycles
cpu0->cpu0_L1I TOTAL        ACCESS:    6139247 HIT:    6139244 MISS:          3 MSHR_MERGE:          1
cpu0->cpu0_L1I LOAD         ACCESS:    6139247 HIT:    6139244 MISS:          3 MSHR_MERGE:          1
cpu0->cpu0_L1I RFO          ACCESS:          0 HIT:          0 MISS:          0 MSHR_MERGE:          0
cpu0->cpu0_L1I PREFETCH     ACCESS:          0 HIT:          0 MISS:          0 MSHR_MERGE:          0
cpu0->cpu0_L1I WRITE        ACCESS:          0 HIT:          0 MISS:          0 MSHR_MERGE:          0
cpu0->cpu0_L1I TRANSLATION  ACCESS:          0 HIT:          0 MISS:          0 MSHR_MERGE:          0
cpu0->cpu0_L1I PREFETCH REQUESTED:          0 ISSUED:          0 USEFUL:          0 USELESS:          0 LATE:          0
cpu0->cpu0_L1I AVERAGE MISS LATENCY: 225.5 cycles
cpu0->cpu0_L1D TOTAL        ACCESS:   14664076 HIT:   10093682 MISS:    4570394 MSHR_MERGE:    3493388
cpu0->cpu0_L1D LOAD         ACCESS:    4283922 HIT:    3639350 MISS:     644572 MSHR_MERGE:     312271
cpu0->cpu0_L1D RFO          ACCESS:          0 HIT:          0 MISS:          0 MSHR_MERGE:          0
cpu0->cpu0_L1D PREFETCH     ACCESS:     446954 HIT:     133304 MISS:     313650 MSHR_MERGE:      49093
cpu0->cpu0_L1D WRITE        ACCESS:    9933200 HIT:    6321028 MISS:    3612172 MSHR_MERGE:    3132024
cpu0->cpu0_L1D TRANSLATION  ACCESS:          0 HIT:          0 MISS:          0 MSHR_MERGE:          0
cpu0->cpu0_L1D PREFETCH REQUESTED:     661226 ISSUED:     446950 USEFUL:     255207 USELESS:       9350 LATE:      74330
cpu0->cpu0_L1D AVERAGE MISS LATENCY: 299.1 cycles
cpu0->cpu0_ITLB TOTAL        ACCESS:    5976786 HIT:    5976786 MISS:          0 MSHR_MERGE:          0
cpu0->cpu0_ITLB LOAD         ACCESS:    5976786 HIT:    5976786 MISS:          0 MSHR_MERGE:          0
cpu0->cpu0_ITLB RFO          ACCESS:          0 HIT:          0 MISS:          0 MSHR_MERGE:          0
cpu0->cpu0_ITLB PREFETCH     ACCESS:          0 HIT:          0 MISS:          0 MSHR_MERGE:          0
cpu0->cpu0_ITLB WRITE        ACCESS:          0 HIT:          0 MISS:          0 MSHR_MERGE:          0
cpu0->cpu0_ITLB TRANSLATION  ACCESS:          0 HIT:          0 MISS:          0 MSHR_MERGE:          0
cpu0->cpu0_ITLB PREFETCH REQUESTED:          0 ISSUED:          0 USEFUL:          0 USELESS:          0 LATE:          0
cpu0->cpu0_ITLB AVERAGE MISS LATENCY: - cycles
cpu0->cpu0_DTLB TOTAL        ACCESS:   13288819 HIT:   13228242 MISS:      60577 MSHR_MERGE:      38685
cpu0->cpu0_DTLB LOAD         ACCESS:   13288819 HIT:   13228242 MISS:      60577 MSHR_MERGE:      38685
cpu0->cpu0_DTLB RFO          ACCESS:          0 HIT:          0 MISS:          0 MSHR_MERGE:          0
cpu0->cpu0_DTLB PREFETCH     ACCESS:          0 HIT:          0 MISS:          0 MSHR_MERGE:          0
cpu0->cpu0_DTLB WRITE        ACCESS:          0 HIT:          0 MISS:          0 MSHR_MERGE:          0
cpu0->cpu0_DTLB TRANSLATION  ACCESS:          0 HIT:          0 MISS:          0 MSHR_MERGE:          0
cpu0->cpu0_DTLB PREFETCH REQUESTED:          0 ISSUED:          0 USEFUL:          0 USELESS:          0 LATE:          0
cpu0->cpu0_DTLB AVERAGE MISS LATENCY: 5.001 cycles
cpu0->LLC TOTAL        ACCESS:    1388677 HIT:     108168 MISS:    1280509 MSHR_MERGE:          0
cpu0->LLC LOAD         ACCESS:      14019 HIT:       1712 MISS:      12307 MSHR_MERGE:          0
cpu0->LLC RFO          ACCESS:     446171 HIT:       2252 MISS:     443919 MSHR_MERGE:          0
cpu0->LLC PREFETCH     ACCESS:     424749 HIT:      24692 MISS:     400057 MSHR_MERGE:          0
cpu0->LLC WRITE        ACCESS:     503738 HIT:      79512 MISS:     424226 MSHR_MERGE:          0
cpu0->LLC TRANSLATION  ACCESS:          0 HIT:          0 MISS:          0 MSHR_MERGE:          0
cpu0->LLC PREFETCH REQUESTED:          0 ISSUED:          0 USEFUL:          0 USELESS:          0 LATE:          0
cpu0->LLC AVERAGE MISS LATENCY: 244.8 cycles

DRAM Statistics

Channel 0 RQ ROW_BUFFER_HIT:      62883
  ROW_BUFFER_MISS:     793311
  AVG DBUS CONGESTED CYCLE: 6.971
Channel 0 WQ ROW_BUFFER_HIT:      55934
  ROW_BUFFER_MISS:     447889
  FULL:       3367
Channel 0 REFRESHES ISSUED:       2608

[ROI Statistics]
[System Configuration]
num_cpus 1
cpu_freq 4000
fetch_width 6
decode_width 6
dispatch_width 6
execute_width 6
lq_width 2
sq_width 2
retire_width 6
scheduler_size 160
branch_mispredict_penalty 1
rob_size 352
lq_size 240
sq_size 112
ifetch_buffer_size 64
decode_buffer_size 32
dispatch_buffer_size 32
register_file_size 288
decode_latency 1
dispatch_latency 1
schedule_latency 0
execute_latency 0
page_size 4096
block_size 64
core_0_itlb_set 16
core_0_itlb_way 4
core_0_itlb_rq_size 16
core_0_itlb_wq_size 16
core_0_itlb_pq_size 0
core_0_itlb_mshr_size 8
core_0_itlb_hit_latency 1
core_0_itlb_fill_latency 1
core_0_itlb_max_tag_check 2
core_0_itlb_max_fill 2
core_0_dtlb_set 16
core_0_dtlb_way 4
core_0_dtlb_rq_size 16
core_0_dtlb_wq_size 16
core_0_dtlb_pq_size 0
core_0_dtlb_mshr_size 8
core_0_dtlb_hit_latency 1
core_0_dtlb_fill_latency 1
core_0_dtlb_max_tag_check 2
core_0_dtlb_max_fill 2
core_0_stlb_set 128
core_0_stlb_way 12
core_0_stlb_rq_size 32
core_0_stlb_wq_size 32
core_0_stlb_pq_size 0
core_0_stlb_mshr_size 16
core_0_stlb_hit_latency 4
core_0_stlb_fill_latency 4
core_0_stlb_max_tag_check 1
core_0_stlb_max_fill 1
core_0_l1i_set 64
core_0_l1i_way 8
core_0_l1i_rq_size 64
core_0_l1i_wq_size 64
core_0_l1i_pq_size 32
core_0_l1i_mshr_size 8
core_0_l1i_hit_latency 2
core_0_l1i_fill_latency 2
core_0_l1i_max_tag_check 2
core_0_l1i_max_fill 2
core_0_l1d_set 64
core_0_l1d_way 12
core_0_l1d_rq_size 64
core_0_l1d_wq_size 64
core_0_l1d_pq_size 8
core_0_l1d_mshr_size 16
core_0_l1d_hit_latency 2
core_0_l1d_fill_latency 3
core_0_l1d_max_tag_check 2
core_0_l1d_max_fill 2
core_0_l2c_set 1024
core_0_l2c_way 8
core_0_l2c_rq_size 32
core_0_l2c_wq_size 32
core_0_l2c_pq_size 16
core_0_l2c_mshr_size 32
core_0_l2c_hit_latency 5
core_0_l2c_fill_latency 5
core_0_l2c_max_tag_check 1
core_0_l2c_max_fill 1
llc_set 2048
llc_way 16
llc_rq_size 32
llc_wq_size 32
llc_pq_size 32
llc_mshr_size 64
llc_hit_latency 10
llc_fill_latency 10
llc_max_tag_check 1
llc_max_fill 1
dram_channels 1
dram_ranks 1
dram_bankgroups 8
dram_banks 4
dram_rows 16384
dram_columns 1024
dram_channel_width 8
dram_rq_size 64
dram_wq_size 64
dram_size 4294967296
core_0_itlb_prefetcher no
core_0_dtlb_prefetcher no
core_0_stlb_prefetcher no
core_0_l1i_prefetcher next_line
core_0_l1d_prefetcher berti
core_0_l2c_prefetcher pythia
llc_prefetcher no
llc_replacement drrip

Core_0_instructions 50000005
Core_0_cycles 31294865
Core_0_IPC 1.59771
Core_0_branch_prediction_accuracy 99.3005
Core_0_branch_MPKI 0.69628
Core_0_average_ROB_occupancy_at_mispredict 200.628

Core_0_ITLB_total_access 5976786
Core_0_ITLB_total_hit 5976786
Core_0_ITLB_total_miss 0
Core_0_ITLB_total_MPKI 0
Core_0_ITLB_total_miss_rate 0
Core_0_ITLB_demand_access 5976786
Core_0_ITLB_demand_hit 5976786
Core_0_ITLB_demand_miss 0
Core_0_ITLB_demand_MPKI 0
Core_0_ITLB_demand_miss_rate 0
Core_0_ITLB_load_access 5976786
Core_0_ITLB_load_hit 5976786
Core_0_ITLB_load_miss 0
Core_0_ITLB_load_MPKI 0
Core_0_ITLB_load_miss_rate 0
Core_0_ITLB_rfo_access 0
Core_0_ITLB_rfo_hit 0
Core_0_ITLB_rfo_miss 0
Core_0_ITLB_rfo_MPKI 0
Core_0_ITLB_rfo_miss_rate 0
Core_0_ITLB_prefetch_access 0
Core_0_ITLB_prefetch_hit 0
Core_0_ITLB_prefetch_miss 0
Core_0_ITLB_prefetch_MPKI 0
Core_0_ITLB_prefetch_miss_rate 0
Core_0_ITLB_writeback_access 0
Core_0_ITLB_writeback_hit 0
Core_0_ITLB_writeback_miss 0
Core_0_ITLB_writeback_MPKI 0
Core_0_ITLB_writeback_miss_rate 0
Core_0_ITLB_prefetch_requested 0
Core_0_ITLB_prefetch_issued 0
Core_0_ITLB_prefetch_useful 0
Core_0_ITLB_prefetch_useless 0
Core_0_ITLB_prefetch_late 0
Core_0_ITLB_prefetch_accuracy 0
Core_0_ITLB_prefetch_coverage 0

Core_0_DTLB_total_access 13288819
Core_0_DTLB_total_hit 13228242
Core_0_DTLB_total_miss 60577
Core_0_DTLB_total_MPKI 1.21154
Core_0_DTLB_total_miss_rate 0.00455849
Core_0_DTLB_demand_access 13288819
Core_0_DTLB_demand_hit 13228242
Core_0_DTLB_demand_miss 60577
Core_0_DTLB_demand_MPKI 1.21154
Core_0_DTLB_demand_miss_rate 0.00455849
Core_0_DTLB_load_access 13288819
Core_0_DTLB_load_hit 13228242
Core_0_DTLB_load_miss 60577
Core_0_DTLB_load_MPKI 1.21154
Core_0_DTLB_load_miss_rate 0.00455849
Core_0_DTLB_rfo_access 0
Core_0_DTLB_rfo_hit 0
Core_0_DTLB_rfo_miss 0
Core_0_DTLB_rfo_MPKI 0
Core_0_DTLB_rfo_miss_rate 0
Core_0_DTLB_prefetch_access 0
Core_0_DTLB_prefetch_hit 0
Core_0_DTLB_prefetch_miss 0
Core_0_DTLB_prefetch_MPKI 0
Core_0_DTLB_prefetch_miss_rate 0
Core_0_DTLB_writeback_access 0
Core_0_DTLB_writeback_hit 0
Core_0_DTLB_writeback_miss 0
Core_0_DTLB_writeback_MPKI 0
Core_0_DTLB_writeback_miss_rate 0
Core_0_DTLB_prefetch_requested 0
Core_0_DTLB_prefetch_issued 0
Core_0_DTLB_prefetch_useful 0
Core_0_DTLB_prefetch_useless 0
Core_0_DTLB_prefetch_late 0
Core_0_DTLB_prefetch_accuracy 0
Core_0_DTLB_prefetch_coverage 0

Core_0_STLB_total_access 21892
Core_0_STLB_total_hit 21892
Core_0_STLB_total_miss 0
Core_0_STLB_total_MPKI 0
Core_0_STLB_total_miss_rate 0
Core_0_STLB_demand_access 21892
Core_0_STLB_demand_hit 21892
Core_0_STLB_demand_miss 0
Core_0_STLB_demand_MPKI 0
Core_0_STLB_demand_miss_rate 0
Core_0_STLB_load_access 21892
Core_0_STLB_load_hit 21892
Core_0_STLB_load_miss 0
Core_0_STLB_load_MPKI 0
Core_0_STLB_load_miss_rate 0
Core_0_STLB_rfo_access 0
Core_0_STLB_rfo_hit 0
Core_0_STLB_rfo_miss 0
Core_0_STLB_rfo_MPKI 0
Core_0_STLB_rfo_miss_rate 0
Core_0_STLB_prefetch_access 0
Core_0_STLB_prefetch_hit 0
Core_0_STLB_prefetch_miss 0
Core_0_STLB_prefetch_MPKI 0
Core_0_STLB_prefetch_miss_rate 0
Core_0_STLB_writeback_access 0
Core_0_STLB_writeback_hit 0
Core_0_STLB_writeback_miss 0
Core_0_STLB_writeback_MPKI 0
Core_0_STLB_writeback_miss_rate 0
Core_0_STLB_prefetch_requested 0
Core_0_STLB_prefetch_issued 0
Core_0_STLB_prefetch_useful 0
Core_0_STLB_prefetch_useless 0
Core_0_STLB_prefetch_late 0
Core_0_STLB_prefetch_accuracy 0
Core_0_STLB_prefetch_coverage 0

Core_0_L1I_total_access 6139247
Core_0_L1I_total_hit 6139244
Core_0_L1I_total_miss 3
Core_0_L1I_total_MPKI 6e-05
Core_0_L1I_total_miss_rate 4.88659e-07
Core_0_L1I_demand_access 6139247
Core_0_L1I_demand_hit 6139244
Core_0_L1I_demand_miss 3
Core_0_L1I_demand_MPKI 6e-05
Core_0_L1I_demand_miss_rate 4.88659e-07
Core_0_L1I_load_access 6139247
Core_0_L1I_load_hit 6139244
Core_0_L1I_load_miss 3
Core_0_L1I_load_MPKI 6e-05
Core_0_L1I_load_miss_rate 4.88659e-07
Core_0_L1I_rfo_access 0
Core_0_L1I_rfo_hit 0
Core_0_L1I_rfo_miss 0
Core_0_L1I_rfo_MPKI 0
Core_0_L1I_rfo_miss_rate 0
Core_0_L1I_prefetch_access 0
Core_0_L1I_prefetch_hit 0
Core_0_L1I_prefetch_miss 0
Core_0_L1I_prefetch_MPKI 0
Core_0_L1I_prefetch_miss_rate 0
Core_0_L1I_writeback_access 0
Core_0_L1I_writeback_hit 0
Core_0_L1I_writeback_miss 0
Core_0_L1I_writeback_MPKI 0
Core_0_L1I_writeback_miss_rate 0
Core_0_L1I_prefetch_requested 0
Core_0_L1I_prefetch_issued 0
Core_0_L1I_prefetch_useful 0
Core_0_L1I_prefetch_useless 0
Core_0_L1I_prefetch_late 0
Core_0_L1I_prefetch_accuracy 0
Core_0_L1I_prefetch_coverage 0

Core_0_L1D_total_access 14664076
Core_0_L1D_total_hit 10093682
Core_0_L1D_total_miss 4570394
Core_0_L1D_total_MPKI 91.4079
Core_0_L1D_total_miss_rate 0.311673
Core_0_L1D_demand_access 4283922
Core_0_L1D_demand_hit 3639350
Core_0_L1D_demand_miss 644572
Core_0_L1D_demand_MPKI 12.8914
Core_0_L1D_demand_miss_rate 0.150463
Core_0_L1D_load_access 4283922
Core_0_L1D_load_hit 3639350
Core_0_L1D_load_miss 644572
Core_0_L1D_load_MPKI 12.8914
Core_0_L1D_load_miss_rate 0.150463
Core_0_L1D_rfo_access 0
Core_0_L1D_rfo_hit 0
Core_0_L1D_rfo_miss 0
Core_0_L1D_rfo_MPKI 0
Core_0_L1D_rfo_miss_rate 0
Core_0_L1D_prefetch_access 446954
Core_0_L1D_prefetch_hit 133304
Core_0_L1D_prefetch_miss 313650
Core_0_L1D_prefetch_MPKI 6.273
Core_0_L1D_prefetch_miss_rate 0.70175
Core_0_L1D_writeback_access 9933200
Core_0_L1D_writeback_hit 6321028
Core_0_L1D_writeback_miss 3612172
Core_0_L1D_writeback_MPKI 72.2434
Core_0_L1D_writeback_miss_rate 0.363646
Core_0_L1D_prefetch_requested 661226
Core_0_L1D_prefetch_issued 446950
Core_0_L1D_prefetch_useful 255207
Core_0_L1D_prefetch_useless 9350
Core_0_L1D_prefetch_late 74330
Core_0_L1D_prefetch_accuracy 0.570997
Core_0_L1D_prefetch_coverage 0.283633

Core_0_L2C_total_access 3920737
Core_0_L2C_total_hit 1491732
Core_0_L2C_total_miss 2429005
Core_0_L2C_total_MPKI 48.5801
Core_0_L2C_total_miss_rate 0.619528
Core_0_L2C_demand_access 812437
Core_0_L2C_demand_hit 267798
Core_0_L2C_demand_miss 544639
Core_0_L2C_demand_MPKI 10.8928
Core_0_L2C_demand_miss_rate 0.670377
Core_0_L2C_load_access 332302
Core_0_L2C_load_hit 233861
Core_0_L2C_load_miss 98441
Core_0_L2C_load_MPKI 1.96882
Core_0_L2C_load_miss_rate 0.29624
Core_0_L2C_rfo_access 480135
Core_0_L2C_rfo_hit 33937
Core_0_L2C_rfo_miss 446198
Core_0_L2C_rfo_MPKI 8.92396
Core_0_L2C_rfo_miss_rate 0.929318
Core_0_L2C_prefetch_access 2577703
Core_0_L2C_prefetch_hit 693358
Core_0_L2C_prefetch_miss 1884345
Core_0_L2C_prefetch_MPKI 37.6869
Core_0_L2C_prefetch_miss_rate 0.731017
Core_0_L2C_writeback_access 530597
Core_0_L2C_writeback_hit 530576
Core_0_L2C_writeback_miss 21
Core_0_L2C_writeback_MPKI 0.00042
Core_0_L2C_writeback_miss_rate 3.95781e-05
Core_0_L2C_prefetch_requested 2442659
Core_0_L2C_prefetch_issued 2313147
Core_0_L2C_prefetch_useful 306653
Core_0_L2C_prefetch_useless 95383
Core_0_L2C_prefetch_late 84448
Core_0_L2C_prefetch_accuracy 0.13257
Core_0_L2C_prefetch_coverage 0.360221

Core_0_LLC_total_access 1388677
Core_0_LLC_total_hit 108168
Core_0_LLC_total_miss 1280509
Core_0_LLC_total_MPKI 25.6102
Core_0_LLC_total_miss_rate 0.922107
Core_0_LLC_demand_access 460190
Core_0_LLC_demand_hit 3964
Core_0_LLC_demand_miss 456226
Core_0_LLC_demand_MPKI 9.12452
Core_0_LLC_demand_miss_rate 0.991386
Core_0_LLC_load_access 14019
Core_0_LLC_load_hit 1712
Core_0_LLC_load_miss 12307
Core_0_LLC_load_MPKI 0.24614
Core_0_LLC_load_miss_rate 0.87788
Core_0_LLC_rfo_access 446171
Core_0_LLC_rfo_hit 2252
Core_0_LLC_rfo_miss 443919
Core_0_LLC_rfo_MPKI 8.87838
Core_0_LLC_rfo_miss_rate 0.994953
Core_0_LLC_prefetch_access 424749
Core_0_LLC_prefetch_hit 24692
Core_0_LLC_prefetch_miss 400057
Core_0_LLC_prefetch_MPKI 8.00114
Core_0_LLC_prefetch_miss_rate 0.941867
Core_0_LLC_writeback_access 503738
Core_0_LLC_writeback_hit 79512
Core_0_LLC_writeback_miss 424226
Core_0_LLC_writeback_MPKI 8.48452
Core_0_LLC_writeback_miss_rate 0.842156
Core_0_LLC_prefetch_requested 0
Core_0_LLC_prefetch_issued 0
Core_0_LLC_prefetch_useful 0
Core_0_LLC_prefetch_useless 0
Core_0_LLC_prefetch_late 0
Core_0_LLC_prefetch_accuracy 0
Core_0_LLC_prefetch_coverage 0

[DRAM Statistics]
Channel_0_RQ_row_buffer_hit 62883
Channel_0_RQ_row_buffer_miss 793311
Channel_0_WQ_row_buffer_hit 55934
Channel_0_WQ_row_buffer_miss 447889
Channel_0_WQ_full 3367
Channel_0_dbus_congested 4643724
DRAM_total_RQ_row_buffer_hit 62883
DRAM_total_RQ_row_buffer_miss 793311
DRAM_total_WQ_row_buffer_hit 55934
DRAM_total_WQ_row_buffer_miss 447889
DRAM_total_WQ_full 3367
DRAM_total_dbus_congested 4643724
DRAM_avg_congested_cycle 6.97065

======STLB miss causes ========
Core_0_STLB_miss_cause_breakdown
Core_0_STLB_cause_Demand_Data_miss 0
Core_0_STLB_cause_Demand_Data_miss_rate 0
Core_0_STLB_cause_Demand_Instruction_miss 0
Core_0_STLB_cause_Demand_Instruction_miss_rate 0
Core_0_STLB_cause_L1D_Prefetch_miss 0
Core_0_STLB_cause_L1D_Prefetch_miss_rate 0
Core_0_STLB_cause_L1I_Prefetch_miss 0
Core_0_STLB_cause_L1I_Prefetch_miss_rate 0
Core_0_STLB_cause_Other_miss 0
Core_0_STLB_cause_Other_miss_rate 0
Core_0_STLB_Demand_miss 0
Core_0_STLB_Demand_miss_rate 0
Core_0_STLB_L1D_Prefetch_miss 0
Core_0_STLB_L1D_Prefetch_miss_rate 0
Core_0_STLB_Other_miss 0
Core_0_STLB_Other_miss_rate 0
