[VMEM] WARNING: physical memory size is smaller than virtual memory size.

*** ChampSim Multicore Out-of-Order Simulator ***
Warmup Instructions: 20000000
Simulation Instructions: 50000000
Number of CPUs: 1
Page size: 4096
STLB ideal mode: all
Core 0: /data0/tzh/champsim_traces/Ligra/ligra_Radii.com-lj.ungraph.gcc_6.3.0_O3.drop_18000M.length_250M.champsimtrace.xz
 L1D Berti prefetcher
Off-chip DRAM Size: 4 GiB Channels: 1 Width: 64-bit Data Rate: 3205 MT/s
Warmup halting CPU 0 at instruction 20000005 cycle 5092585 for remainder of phase
Warmup finished CPU 0 instructions: 20000005 cycles: 5092585 cumulative IPC: 3.927 (Simulation time: 00 hr 01 min 12 sec)
Warmup complete CPU 0 instructions: 20000005 cycles: 5092585 cumulative IPC: 3.927 (Simulation time: 00 hr 01 min 12 sec)
Simulation finished CPU 0 instructions: 50000000 cycles: 26016201 cumulative IPC: 1.922 (Simulation time: 00 hr 05 min 49 sec)
Simulation complete CPU 0 instructions: 50000000 cycles: 26016201 cumulative IPC: 1.922 (Simulation time: 00 hr 05 min 49 sec)

ChampSim completed all CPUs

=== Simulation ===
CPU 0 runs /data0/tzh/champsim_traces/Ligra/ligra_Radii.com-lj.ungraph.gcc_6.3.0_O3.drop_18000M.length_250M.champsimtrace.xz

Region of Interest Statistics

CPU 0 cumulative IPC: 1.922 instructions: 50000000 cycles: 26016201
CPU 0 Branch Prediction Accuracy: 99% MPKI: 1.012 Average ROB Occupancy at Mispredict: 171.2
Branch type MPKI
BRANCH_DIRECT_JUMP: 0
BRANCH_INDIRECT: 0
BRANCH_CONDITIONAL: 1.012
BRANCH_DIRECT_CALL: 0
BRANCH_INDIRECT_CALL: 0
BRANCH_RETURN: 0.00028

cpu0->cpu0_STLB TOTAL        ACCESS:      23699 HIT:      23699 MISS:          0 MSHR_MERGE:          0
cpu0->cpu0_STLB LOAD         ACCESS:      23699 HIT:      23699 MISS:          0 MSHR_MERGE:          0
cpu0->cpu0_STLB RFO          ACCESS:          0 HIT:          0 MISS:          0 MSHR_MERGE:          0
cpu0->cpu0_STLB PREFETCH     ACCESS:          0 HIT:          0 MISS:          0 MSHR_MERGE:          0
cpu0->cpu0_STLB WRITE        ACCESS:          0 HIT:          0 MISS:          0 MSHR_MERGE:          0
cpu0->cpu0_STLB TRANSLATION  ACCESS:          0 HIT:          0 MISS:          0 MSHR_MERGE:          0
cpu0->cpu0_STLB PREFETCH REQUESTED:          0 ISSUED:          0 USEFUL:          0 USELESS:          0 LATE:          0
cpu0->cpu0_STLB AVERAGE MISS LATENCY: - cycles
cpu0->cpu0_L2C TOTAL        ACCESS:    4370220 HIT:    2170961 MISS:    2199259 MSHR_MERGE:    1173262
cpu0->cpu0_L2C LOAD         ACCESS:     417449 HIT:     328300 MISS:      89149 MSHR_MERGE:      62503
cpu0->cpu0_L2C RFO          ACCESS:     554772 HIT:      35777 MISS:     518995 MSHR_MERGE:         31
cpu0->cpu0_L2C PREFETCH     ACCESS:    2840586 HIT:    1249555 MISS:    1591031 MSHR_MERGE:    1110728
cpu0->cpu0_L2C WRITE        ACCESS:     557413 HIT:     557329 MISS:         84 MSHR_MERGE:          0
cpu0->cpu0_L2C TRANSLATION  ACCESS:          0 HIT:          0 MISS:          0 MSHR_MERGE:          0
cpu0->cpu0_L2C PREFETCH REQUESTED:    2862765 ISSUED:    2558279 USEFUL:     360186 USELESS:      76515 LATE:      62534
cpu0->cpu0_L2C AVERAGE MISS LATENCY: 295.9 cycles
cpu0->cpu0_L1I TOTAL        ACCESS:    4855518 HIT:    4855518 MISS:          0 MSHR_MERGE:          0
cpu0->cpu0_L1I LOAD         ACCESS:    4855518 HIT:    4855518 MISS:          0 MSHR_MERGE:          0
cpu0->cpu0_L1I RFO          ACCESS:          0 HIT:          0 MISS:          0 MSHR_MERGE:          0
cpu0->cpu0_L1I PREFETCH     ACCESS:          0 HIT:          0 MISS:          0 MSHR_MERGE:          0
cpu0->cpu0_L1I WRITE        ACCESS:          0 HIT:          0 MISS:          0 MSHR_MERGE:          0
cpu0->cpu0_L1I TRANSLATION  ACCESS:          0 HIT:          0 MISS:          0 MSHR_MERGE:          0
cpu0->cpu0_L1I PREFETCH REQUESTED:          0 ISSUED:          0 USEFUL:          0 USELESS:          0 LATE:          0
cpu0->cpu0_L1I AVERAGE MISS LATENCY: - cycles
cpu0->cpu0_L1D TOTAL        ACCESS:   14132592 HIT:    9479562 MISS:    4653030 MSHR_MERGE:    3398469
cpu0->cpu0_L1D LOAD         ACCESS:    3847356 HIT:    3149828 MISS:     697528 MSHR_MERGE:     280075
cpu0->cpu0_L1D RFO          ACCESS:          0 HIT:          0 MISS:          0 MSHR_MERGE:          0
cpu0->cpu0_L1D PREFETCH     ACCESS:     459620 HIT:     134937 MISS:     324683 MSHR_MERGE:      42372
cpu0->cpu0_L1D WRITE        ACCESS:    9825616 HIT:    6194797 MISS:    3630819 MSHR_MERGE:    3076022
cpu0->cpu0_L1D TRANSLATION  ACCESS:          0 HIT:          0 MISS:          0 MSHR_MERGE:          0
cpu0->cpu0_L1D PREFETCH REQUESTED:     710789 ISSUED:     459620 USEFUL:     271969 USELESS:      10343 LATE:      63294
cpu0->cpu0_L1D AVERAGE MISS LATENCY: 193.2 cycles
cpu0->cpu0_ITLB TOTAL        ACCESS:    4780481 HIT:    4780481 MISS:          0 MSHR_MERGE:          0
cpu0->cpu0_ITLB LOAD         ACCESS:    4780481 HIT:    4780481 MISS:          0 MSHR_MERGE:          0
cpu0->cpu0_ITLB RFO          ACCESS:          0 HIT:          0 MISS:          0 MSHR_MERGE:          0
cpu0->cpu0_ITLB PREFETCH     ACCESS:          0 HIT:          0 MISS:          0 MSHR_MERGE:          0
cpu0->cpu0_ITLB WRITE        ACCESS:          0 HIT:          0 MISS:          0 MSHR_MERGE:          0
cpu0->cpu0_ITLB TRANSLATION  ACCESS:          0 HIT:          0 MISS:          0 MSHR_MERGE:          0
cpu0->cpu0_ITLB PREFETCH REQUESTED:          0 ISSUED:          0 USEFUL:          0 USELESS:          0 LATE:          0
cpu0->cpu0_ITLB AVERAGE MISS LATENCY: - cycles
cpu0->cpu0_DTLB TOTAL        ACCESS:   12591850 HIT:   12523388 MISS:      68462 MSHR_MERGE:      44763
cpu0->cpu0_DTLB LOAD         ACCESS:   12591850 HIT:   12523388 MISS:      68462 MSHR_MERGE:      44763
cpu0->cpu0_DTLB RFO          ACCESS:          0 HIT:          0 MISS:          0 MSHR_MERGE:          0
cpu0->cpu0_DTLB PREFETCH     ACCESS:          0 HIT:          0 MISS:          0 MSHR_MERGE:          0
cpu0->cpu0_DTLB WRITE        ACCESS:          0 HIT:          0 MISS:          0 MSHR_MERGE:          0
cpu0->cpu0_DTLB TRANSLATION  ACCESS:          0 HIT:          0 MISS:          0 MSHR_MERGE:          0
cpu0->cpu0_DTLB PREFETCH REQUESTED:          0 ISSUED:          0 USEFUL:          0 USELESS:          0 LATE:          0
cpu0->cpu0_DTLB AVERAGE MISS LATENCY: 5.001 cycles
cpu0->LLC TOTAL        ACCESS:    1547376 HIT:     616116 MISS:     931260 MSHR_MERGE:          0
cpu0->LLC LOAD         ACCESS:      26646 HIT:      17780 MISS:       8866 MSHR_MERGE:          0
cpu0->LLC RFO          ACCESS:     518964 HIT:     153097 MISS:     365867 MSHR_MERGE:          0
cpu0->LLC PREFETCH     ACCESS:     480303 HIT:     229950 MISS:     250353 MSHR_MERGE:          0
cpu0->LLC WRITE        ACCESS:     521463 HIT:     215289 MISS:     306174 MSHR_MERGE:          0
cpu0->LLC TRANSLATION  ACCESS:          0 HIT:          0 MISS:          0 MSHR_MERGE:          0
cpu0->LLC PREFETCH REQUESTED:          0 ISSUED:          0 USEFUL:          0 USELESS:          0 LATE:          0
cpu0->LLC AVERAGE MISS LATENCY: 236.8 cycles

DRAM Statistics

Channel 0 RQ ROW_BUFFER_HIT:      47207
  ROW_BUFFER_MISS:     576863
  AVG DBUS CONGESTED CYCLE: 7.082
Channel 0 WQ ROW_BUFFER_HIT:      46676
  ROW_BUFFER_MISS:     329949
  FULL:      13964
Channel 0 REFRESHES ISSUED:       2168

[ROI Statistics]
[System Configuration]
num_cpus 1
cpu_freq 4000
fetch_width 6
decode_width 6
dispatch_width 6
execute_width 6
lq_width 2
sq_width 2
retire_width 6
scheduler_size 160
branch_mispredict_penalty 1
rob_size 352
lq_size 240
sq_size 112
ifetch_buffer_size 64
decode_buffer_size 32
dispatch_buffer_size 32
register_file_size 288
decode_latency 1
dispatch_latency 1
schedule_latency 0
execute_latency 0
page_size 4096
block_size 64
core_0_itlb_set 16
core_0_itlb_way 4
core_0_itlb_rq_size 16
core_0_itlb_wq_size 16
core_0_itlb_pq_size 0
core_0_itlb_mshr_size 8
core_0_itlb_hit_latency 1
core_0_itlb_fill_latency 1
core_0_itlb_max_tag_check 2
core_0_itlb_max_fill 2
core_0_dtlb_set 16
core_0_dtlb_way 4
core_0_dtlb_rq_size 16
core_0_dtlb_wq_size 16
core_0_dtlb_pq_size 0
core_0_dtlb_mshr_size 8
core_0_dtlb_hit_latency 1
core_0_dtlb_fill_latency 1
core_0_dtlb_max_tag_check 2
core_0_dtlb_max_fill 2
core_0_stlb_set 128
core_0_stlb_way 12
core_0_stlb_rq_size 32
core_0_stlb_wq_size 32
core_0_stlb_pq_size 0
core_0_stlb_mshr_size 16
core_0_stlb_hit_latency 4
core_0_stlb_fill_latency 4
core_0_stlb_max_tag_check 1
core_0_stlb_max_fill 1
core_0_l1i_set 64
core_0_l1i_way 8
core_0_l1i_rq_size 64
core_0_l1i_wq_size 64
core_0_l1i_pq_size 32
core_0_l1i_mshr_size 8
core_0_l1i_hit_latency 2
core_0_l1i_fill_latency 2
core_0_l1i_max_tag_check 2
core_0_l1i_max_fill 2
core_0_l1d_set 64
core_0_l1d_way 12
core_0_l1d_rq_size 64
core_0_l1d_wq_size 64
core_0_l1d_pq_size 8
core_0_l1d_mshr_size 16
core_0_l1d_hit_latency 2
core_0_l1d_fill_latency 3
core_0_l1d_max_tag_check 2
core_0_l1d_max_fill 2
core_0_l2c_set 1024
core_0_l2c_way 8
core_0_l2c_rq_size 32
core_0_l2c_wq_size 32
core_0_l2c_pq_size 16
core_0_l2c_mshr_size 32
core_0_l2c_hit_latency 5
core_0_l2c_fill_latency 5
core_0_l2c_max_tag_check 1
core_0_l2c_max_fill 1
llc_set 2048
llc_way 16
llc_rq_size 32
llc_wq_size 32
llc_pq_size 32
llc_mshr_size 64
llc_hit_latency 10
llc_fill_latency 10
llc_max_tag_check 1
llc_max_fill 1
dram_channels 1
dram_ranks 1
dram_bankgroups 8
dram_banks 4
dram_rows 16384
dram_columns 1024
dram_channel_width 8
dram_rq_size 64
dram_wq_size 64
dram_size 4294967296
core_0_itlb_prefetcher no
core_0_dtlb_prefetcher no
core_0_stlb_prefetcher no
core_0_l1i_prefetcher next_line
core_0_l1d_prefetcher berti
core_0_l2c_prefetcher pythia
llc_prefetcher no
llc_replacement drrip

Core_0_instructions 50000000
Core_0_cycles 26016201
Core_0_IPC 1.92188
Core_0_branch_prediction_accuracy 99.0032
Core_0_branch_MPKI 1.01178
Core_0_average_ROB_occupancy_at_mispredict 171.191

Core_0_ITLB_total_access 4780481
Core_0_ITLB_total_hit 4780481
Core_0_ITLB_total_miss 0
Core_0_ITLB_total_MPKI 0
Core_0_ITLB_total_miss_rate 0
Core_0_ITLB_demand_access 4780481
Core_0_ITLB_demand_hit 4780481
Core_0_ITLB_demand_miss 0
Core_0_ITLB_demand_MPKI 0
Core_0_ITLB_demand_miss_rate 0
Core_0_ITLB_load_access 4780481
Core_0_ITLB_load_hit 4780481
Core_0_ITLB_load_miss 0
Core_0_ITLB_load_MPKI 0
Core_0_ITLB_load_miss_rate 0
Core_0_ITLB_rfo_access 0
Core_0_ITLB_rfo_hit 0
Core_0_ITLB_rfo_miss 0
Core_0_ITLB_rfo_MPKI 0
Core_0_ITLB_rfo_miss_rate 0
Core_0_ITLB_prefetch_access 0
Core_0_ITLB_prefetch_hit 0
Core_0_ITLB_prefetch_miss 0
Core_0_ITLB_prefetch_MPKI 0
Core_0_ITLB_prefetch_miss_rate 0
Core_0_ITLB_writeback_access 0
Core_0_ITLB_writeback_hit 0
Core_0_ITLB_writeback_miss 0
Core_0_ITLB_writeback_MPKI 0
Core_0_ITLB_writeback_miss_rate 0
Core_0_ITLB_prefetch_requested 0
Core_0_ITLB_prefetch_issued 0
Core_0_ITLB_prefetch_useful 0
Core_0_ITLB_prefetch_useless 0
Core_0_ITLB_prefetch_late 0
Core_0_ITLB_prefetch_accuracy 0
Core_0_ITLB_prefetch_coverage 0

Core_0_DTLB_total_access 12591850
Core_0_DTLB_total_hit 12523388
Core_0_DTLB_total_miss 68462
Core_0_DTLB_total_MPKI 1.36924
Core_0_DTLB_total_miss_rate 0.00543701
Core_0_DTLB_demand_access 12591850
Core_0_DTLB_demand_hit 12523388
Core_0_DTLB_demand_miss 68462
Core_0_DTLB_demand_MPKI 1.36924
Core_0_DTLB_demand_miss_rate 0.00543701
Core_0_DTLB_load_access 12591850
Core_0_DTLB_load_hit 12523388
Core_0_DTLB_load_miss 68462
Core_0_DTLB_load_MPKI 1.36924
Core_0_DTLB_load_miss_rate 0.00543701
Core_0_DTLB_rfo_access 0
Core_0_DTLB_rfo_hit 0
Core_0_DTLB_rfo_miss 0
Core_0_DTLB_rfo_MPKI 0
Core_0_DTLB_rfo_miss_rate 0
Core_0_DTLB_prefetch_access 0
Core_0_DTLB_prefetch_hit 0
Core_0_DTLB_prefetch_miss 0
Core_0_DTLB_prefetch_MPKI 0
Core_0_DTLB_prefetch_miss_rate 0
Core_0_DTLB_writeback_access 0
Core_0_DTLB_writeback_hit 0
Core_0_DTLB_writeback_miss 0
Core_0_DTLB_writeback_MPKI 0
Core_0_DTLB_writeback_miss_rate 0
Core_0_DTLB_prefetch_requested 0
Core_0_DTLB_prefetch_issued 0
Core_0_DTLB_prefetch_useful 0
Core_0_DTLB_prefetch_useless 0
Core_0_DTLB_prefetch_late 0
Core_0_DTLB_prefetch_accuracy 0
Core_0_DTLB_prefetch_coverage 0

Core_0_STLB_total_access 23699
Core_0_STLB_total_hit 23699
Core_0_STLB_total_miss 0
Core_0_STLB_total_MPKI 0
Core_0_STLB_total_miss_rate 0
Core_0_STLB_demand_access 23699
Core_0_STLB_demand_hit 23699
Core_0_STLB_demand_miss 0
Core_0_STLB_demand_MPKI 0
Core_0_STLB_demand_miss_rate 0
Core_0_STLB_load_access 23699
Core_0_STLB_load_hit 23699
Core_0_STLB_load_miss 0
Core_0_STLB_load_MPKI 0
Core_0_STLB_load_miss_rate 0
Core_0_STLB_rfo_access 0
Core_0_STLB_rfo_hit 0
Core_0_STLB_rfo_miss 0
Core_0_STLB_rfo_MPKI 0
Core_0_STLB_rfo_miss_rate 0
Core_0_STLB_prefetch_access 0
Core_0_STLB_prefetch_hit 0
Core_0_STLB_prefetch_miss 0
Core_0_STLB_prefetch_MPKI 0
Core_0_STLB_prefetch_miss_rate 0
Core_0_STLB_writeback_access 0
Core_0_STLB_writeback_hit 0
Core_0_STLB_writeback_miss 0
Core_0_STLB_writeback_MPKI 0
Core_0_STLB_writeback_miss_rate 0
Core_0_STLB_prefetch_requested 0
Core_0_STLB_prefetch_issued 0
Core_0_STLB_prefetch_useful 0
Core_0_STLB_prefetch_useless 0
Core_0_STLB_prefetch_late 0
Core_0_STLB_prefetch_accuracy 0
Core_0_STLB_prefetch_coverage 0

Core_0_L1I_total_access 4855518
Core_0_L1I_total_hit 4855518
Core_0_L1I_total_miss 0
Core_0_L1I_total_MPKI 0
Core_0_L1I_total_miss_rate 0
Core_0_L1I_demand_access 4855518
Core_0_L1I_demand_hit 4855518
Core_0_L1I_demand_miss 0
Core_0_L1I_demand_MPKI 0
Core_0_L1I_demand_miss_rate 0
Core_0_L1I_load_access 4855518
Core_0_L1I_load_hit 4855518
Core_0_L1I_load_miss 0
Core_0_L1I_load_MPKI 0
Core_0_L1I_load_miss_rate 0
Core_0_L1I_rfo_access 0
Core_0_L1I_rfo_hit 0
Core_0_L1I_rfo_miss 0
Core_0_L1I_rfo_MPKI 0
Core_0_L1I_rfo_miss_rate 0
Core_0_L1I_prefetch_access 0
Core_0_L1I_prefetch_hit 0
Core_0_L1I_prefetch_miss 0
Core_0_L1I_prefetch_MPKI 0
Core_0_L1I_prefetch_miss_rate 0
Core_0_L1I_writeback_access 0
Core_0_L1I_writeback_hit 0
Core_0_L1I_writeback_miss 0
Core_0_L1I_writeback_MPKI 0
Core_0_L1I_writeback_miss_rate 0
Core_0_L1I_prefetch_requested 0
Core_0_L1I_prefetch_issued 0
Core_0_L1I_prefetch_useful 0
Core_0_L1I_prefetch_useless 0
Core_0_L1I_prefetch_late 0
Core_0_L1I_prefetch_accuracy 0
Core_0_L1I_prefetch_coverage 0

Core_0_L1D_total_access 14132592
Core_0_L1D_total_hit 9479562
Core_0_L1D_total_miss 4653030
Core_0_L1D_total_MPKI 93.0606
Core_0_L1D_total_miss_rate 0.329241
Core_0_L1D_demand_access 3847356
Core_0_L1D_demand_hit 3149828
Core_0_L1D_demand_miss 697528
Core_0_L1D_demand_MPKI 13.9506
Core_0_L1D_demand_miss_rate 0.181301
Core_0_L1D_load_access 3847356
Core_0_L1D_load_hit 3149828
Core_0_L1D_load_miss 697528
Core_0_L1D_load_MPKI 13.9506
Core_0_L1D_load_miss_rate 0.181301
Core_0_L1D_rfo_access 0
Core_0_L1D_rfo_hit 0
Core_0_L1D_rfo_miss 0
Core_0_L1D_rfo_MPKI 0
Core_0_L1D_rfo_miss_rate 0
Core_0_L1D_prefetch_access 459620
Core_0_L1D_prefetch_hit 134937
Core_0_L1D_prefetch_miss 324683
Core_0_L1D_prefetch_MPKI 6.49366
Core_0_L1D_prefetch_miss_rate 0.706416
Core_0_L1D_writeback_access 9825616
Core_0_L1D_writeback_hit 6194797
Core_0_L1D_writeback_miss 3630819
Core_0_L1D_writeback_MPKI 72.6164
Core_0_L1D_writeback_miss_rate 0.369526
Core_0_L1D_prefetch_requested 710789
Core_0_L1D_prefetch_issued 459620
Core_0_L1D_prefetch_useful 271969
Core_0_L1D_prefetch_useless 10343
Core_0_L1D_prefetch_late 63294
Core_0_L1D_prefetch_accuracy 0.591726
Core_0_L1D_prefetch_coverage 0.280526

Core_0_L2C_total_access 4370220
Core_0_L2C_total_hit 2170961
Core_0_L2C_total_miss 2199259
Core_0_L2C_total_MPKI 43.9852
Core_0_L2C_total_miss_rate 0.503238
Core_0_L2C_demand_access 972221
Core_0_L2C_demand_hit 364077
Core_0_L2C_demand_miss 608144
Core_0_L2C_demand_MPKI 12.1629
Core_0_L2C_demand_miss_rate 0.62552
Core_0_L2C_load_access 417449
Core_0_L2C_load_hit 328300
Core_0_L2C_load_miss 89149
Core_0_L2C_load_MPKI 1.78298
Core_0_L2C_load_miss_rate 0.213557
Core_0_L2C_rfo_access 554772
Core_0_L2C_rfo_hit 35777
Core_0_L2C_rfo_miss 518995
Core_0_L2C_rfo_MPKI 10.3799
Core_0_L2C_rfo_miss_rate 0.93551
Core_0_L2C_prefetch_access 2840586
Core_0_L2C_prefetch_hit 1249555
Core_0_L2C_prefetch_miss 1591031
Core_0_L2C_prefetch_MPKI 31.8206
Core_0_L2C_prefetch_miss_rate 0.560107
Core_0_L2C_writeback_access 557413
Core_0_L2C_writeback_hit 557329
Core_0_L2C_writeback_miss 84
Core_0_L2C_writeback_MPKI 0.00168
Core_0_L2C_writeback_miss_rate 0.000150696
Core_0_L2C_prefetch_requested 2862765
Core_0_L2C_prefetch_issued 2558279
Core_0_L2C_prefetch_useful 360186
Core_0_L2C_prefetch_useless 76515
Core_0_L2C_prefetch_late 62534
Core_0_L2C_prefetch_accuracy 0.140792
Core_0_L2C_prefetch_coverage 0.371966

Core_0_LLC_total_access 1547376
Core_0_LLC_total_hit 616116
Core_0_LLC_total_miss 931260
Core_0_LLC_total_MPKI 18.6252
Core_0_LLC_total_miss_rate 0.601832
Core_0_LLC_demand_access 545610
Core_0_LLC_demand_hit 170877
Core_0_LLC_demand_miss 374733
Core_0_LLC_demand_MPKI 7.49466
Core_0_LLC_demand_miss_rate 0.686815
Core_0_LLC_load_access 26646
Core_0_LLC_load_hit 17780
Core_0_LLC_load_miss 8866
Core_0_LLC_load_MPKI 0.17732
Core_0_LLC_load_miss_rate 0.332733
Core_0_LLC_rfo_access 518964
Core_0_LLC_rfo_hit 153097
Core_0_LLC_rfo_miss 365867
Core_0_LLC_rfo_MPKI 7.31734
Core_0_LLC_rfo_miss_rate 0.704995
Core_0_LLC_prefetch_access 480303
Core_0_LLC_prefetch_hit 229950
Core_0_LLC_prefetch_miss 250353
Core_0_LLC_prefetch_MPKI 5.00706
Core_0_LLC_prefetch_miss_rate 0.52124
Core_0_LLC_writeback_access 521463
Core_0_LLC_writeback_hit 215289
Core_0_LLC_writeback_miss 306174
Core_0_LLC_writeback_MPKI 6.12348
Core_0_LLC_writeback_miss_rate 0.587144
Core_0_LLC_prefetch_requested 0
Core_0_LLC_prefetch_issued 0
Core_0_LLC_prefetch_useful 0
Core_0_LLC_prefetch_useless 0
Core_0_LLC_prefetch_late 0
Core_0_LLC_prefetch_accuracy 0
Core_0_LLC_prefetch_coverage 0

[DRAM Statistics]
Channel_0_RQ_row_buffer_hit 47207
Channel_0_RQ_row_buffer_miss 576863
Channel_0_WQ_row_buffer_hit 46676
Channel_0_WQ_row_buffer_miss 329949
Channel_0_WQ_full 13964
Channel_0_dbus_congested 3272415
DRAM_total_RQ_row_buffer_hit 47207
DRAM_total_RQ_row_buffer_miss 576863
DRAM_total_WQ_row_buffer_hit 46676
DRAM_total_WQ_row_buffer_miss 329949
DRAM_total_WQ_full 13964
DRAM_total_dbus_congested 3272415
DRAM_avg_congested_cycle 7.08235

======STLB miss causes ========
Core_0_STLB_miss_cause_breakdown
Core_0_STLB_cause_Demand_Data_miss 0
Core_0_STLB_cause_Demand_Data_miss_rate 0
Core_0_STLB_cause_Demand_Instruction_miss 0
Core_0_STLB_cause_Demand_Instruction_miss_rate 0
Core_0_STLB_cause_L1D_Prefetch_miss 0
Core_0_STLB_cause_L1D_Prefetch_miss_rate 0
Core_0_STLB_cause_L1I_Prefetch_miss 0
Core_0_STLB_cause_L1I_Prefetch_miss_rate 0
Core_0_STLB_cause_Other_miss 0
Core_0_STLB_cause_Other_miss_rate 0
Core_0_STLB_Demand_miss 0
Core_0_STLB_Demand_miss_rate 0
Core_0_STLB_L1D_Prefetch_miss 0
Core_0_STLB_L1D_Prefetch_miss_rate 0
Core_0_STLB_Other_miss 0
Core_0_STLB_Other_miss_rate 0
