[VMEM] WARNING: physical memory size is smaller than virtual memory size.

*** ChampSim Multicore Out-of-Order Simulator ***
Warmup Instructions: 20000000
Simulation Instructions: 50000000
Number of CPUs: 1
Page size: 4096
STLB ideal mode: all
Core 0: /data0/tzh/champsim_traces/Ligra/ligra_PageRankDelta.com-lj.ungraph.gcc_6.3.0_O3.drop_35250M.length_250M.champsimtrace.xz
 L1D Berti prefetcher
Off-chip DRAM Size: 4 GiB Channels: 1 Width: 64-bit Data Rate: 3205 MT/s
Warmup halting CPU 0 at instruction 20000002 cycle 4000025 for remainder of phase
Warmup finished CPU 0 instructions: 20000002 cycles: 4000025 cumulative IPC: 5 (Simulation time: 00 hr 00 min 59 sec)
Warmup complete CPU 0 instructions: 20000002 cycles: 4000025 cumulative IPC: 5 (Simulation time: 00 hr 00 min 59 sec)
Simulation finished CPU 0 instructions: 50000003 cycles: 29283833 cumulative IPC: 1.707 (Simulation time: 00 hr 05 min 48 sec)
Simulation complete CPU 0 instructions: 50000003 cycles: 29283833 cumulative IPC: 1.707 (Simulation time: 00 hr 05 min 48 sec)

ChampSim completed all CPUs

=== Simulation ===
CPU 0 runs /data0/tzh/champsim_traces/Ligra/ligra_PageRankDelta.com-lj.ungraph.gcc_6.3.0_O3.drop_35250M.length_250M.champsimtrace.xz

Region of Interest Statistics

CPU 0 cumulative IPC: 1.707 instructions: 50000003 cycles: 29283833
CPU 0 Branch Prediction Accuracy: 93.81% MPKI: 10.64 Average ROB Occupancy at Mispredict: 28.83
Branch type MPKI
BRANCH_DIRECT_JUMP: 0.00012
BRANCH_INDIRECT: 0
BRANCH_CONDITIONAL: 10.64
BRANCH_DIRECT_CALL: 0.00012
BRANCH_INDIRECT_CALL: 0
BRANCH_RETURN: 0.00012

cpu0->cpu0_STLB TOTAL        ACCESS:      11456 HIT:      11456 MISS:          0 MSHR_MERGE:          0
cpu0->cpu0_STLB LOAD         ACCESS:      11456 HIT:      11456 MISS:          0 MSHR_MERGE:          0
cpu0->cpu0_STLB RFO          ACCESS:          0 HIT:          0 MISS:          0 MSHR_MERGE:          0
cpu0->cpu0_STLB PREFETCH     ACCESS:          0 HIT:          0 MISS:          0 MSHR_MERGE:          0
cpu0->cpu0_STLB WRITE        ACCESS:          0 HIT:          0 MISS:          0 MSHR_MERGE:          0
cpu0->cpu0_STLB TRANSLATION  ACCESS:          0 HIT:          0 MISS:          0 MSHR_MERGE:          0
cpu0->cpu0_STLB PREFETCH REQUESTED:          0 ISSUED:          0 USEFUL:          0 USELESS:          0 LATE:          0
cpu0->cpu0_STLB AVERAGE MISS LATENCY: - cycles
cpu0->cpu0_L2C TOTAL        ACCESS:    3709391 HIT:    1542584 MISS:    2166807 MSHR_MERGE:    1434615
cpu0->cpu0_L2C LOAD         ACCESS:      16516 HIT:       8762 MISS:       7754 MSHR_MERGE:        218
cpu0->cpu0_L2C RFO          ACCESS:     237791 HIT:          1 MISS:     237790 MSHR_MERGE:          0
cpu0->cpu0_L2C PREFETCH     ACCESS:    3011884 HIT:    1090621 MISS:    1921263 MSHR_MERGE:    1434397
cpu0->cpu0_L2C WRITE        ACCESS:     443200 HIT:     443200 MISS:          0 MSHR_MERGE:          0
cpu0->cpu0_L2C TRANSLATION  ACCESS:          0 HIT:          0 MISS:          0 MSHR_MERGE:          0
cpu0->cpu0_L2C PREFETCH REQUESTED:    2541905 ISSUED:    2534031 USEFUL:     395215 USELESS:      65754 LATE:        218
cpu0->cpu0_L2C AVERAGE MISS LATENCY: 497.7 cycles
cpu0->cpu0_L1I TOTAL        ACCESS:    1135185 HIT:    1135137 MISS:         48 MSHR_MERGE:          4
cpu0->cpu0_L1I LOAD         ACCESS:    1135185 HIT:    1135137 MISS:         48 MSHR_MERGE:          4
cpu0->cpu0_L1I RFO          ACCESS:          0 HIT:          0 MISS:          0 MSHR_MERGE:          0
cpu0->cpu0_L1I PREFETCH     ACCESS:          0 HIT:          0 MISS:          0 MSHR_MERGE:          0
cpu0->cpu0_L1I WRITE        ACCESS:          0 HIT:          0 MISS:          0 MSHR_MERGE:          0
cpu0->cpu0_L1I TRANSLATION  ACCESS:          0 HIT:          0 MISS:          0 MSHR_MERGE:          0
cpu0->cpu0_L1I PREFETCH REQUESTED:          0 ISSUED:          0 USEFUL:          0 USELESS:          0 LATE:          0
cpu0->cpu0_L1I AVERAGE MISS LATENCY: 272.4 cycles
cpu0->cpu0_L1D TOTAL        ACCESS:   12214003 HIT:    8963579 MISS:    3250424 MSHR_MERGE:    2518308
cpu0->cpu0_L1D LOAD         ACCESS:    7277088 HIT:    7133221 MISS:     143867 MSHR_MERGE:     127395
cpu0->cpu0_L1D RFO          ACCESS:          0 HIT:          0 MISS:          0 MSHR_MERGE:          0
cpu0->cpu0_L1D PREFETCH     ACCESS:     486220 HIT:       7259 MISS:     478961 MSHR_MERGE:       1108
cpu0->cpu0_L1D WRITE        ACCESS:    4450695 HIT:    1823099 MISS:    2627596 MSHR_MERGE:    2389805
cpu0->cpu0_L1D TRANSLATION  ACCESS:          0 HIT:          0 MISS:          0 MSHR_MERGE:          0
cpu0->cpu0_L1D PREFETCH REQUESTED:     486329 ISSUED:     486212 USEFUL:     477825 USELESS:         26 LATE:      22405
cpu0->cpu0_L1D AVERAGE MISS LATENCY: 473.1 cycles
cpu0->cpu0_ITLB TOTAL        ACCESS:    1123860 HIT:    1123854 MISS:          6 MSHR_MERGE:          1
cpu0->cpu0_ITLB LOAD         ACCESS:    1123860 HIT:    1123854 MISS:          6 MSHR_MERGE:          1
cpu0->cpu0_ITLB RFO          ACCESS:          0 HIT:          0 MISS:          0 MSHR_MERGE:          0
cpu0->cpu0_ITLB PREFETCH     ACCESS:          0 HIT:          0 MISS:          0 MSHR_MERGE:          0
cpu0->cpu0_ITLB WRITE        ACCESS:          0 HIT:          0 MISS:          0 MSHR_MERGE:          0
cpu0->cpu0_ITLB TRANSLATION  ACCESS:          0 HIT:          0 MISS:          0 MSHR_MERGE:          0
cpu0->cpu0_ITLB PREFETCH REQUESTED:          0 ISSUED:          0 USEFUL:          0 USELESS:          0 LATE:          0
cpu0->cpu0_ITLB AVERAGE MISS LATENCY: 5 cycles
cpu0->cpu0_DTLB TOTAL        ACCESS:   12020013 HIT:   12000517 MISS:      19496 MSHR_MERGE:       8045
cpu0->cpu0_DTLB LOAD         ACCESS:   12020013 HIT:   12000517 MISS:      19496 MSHR_MERGE:       8045
cpu0->cpu0_DTLB RFO          ACCESS:          0 HIT:          0 MISS:          0 MSHR_MERGE:          0
cpu0->cpu0_DTLB PREFETCH     ACCESS:          0 HIT:          0 MISS:          0 MSHR_MERGE:          0
cpu0->cpu0_DTLB WRITE        ACCESS:          0 HIT:          0 MISS:          0 MSHR_MERGE:          0
cpu0->cpu0_DTLB TRANSLATION  ACCESS:          0 HIT:          0 MISS:          0 MSHR_MERGE:          0
cpu0->cpu0_DTLB PREFETCH REQUESTED:          0 ISSUED:          0 USEFUL:          0 USELESS:          0 LATE:          0
cpu0->cpu0_DTLB AVERAGE MISS LATENCY: 5 cycles
cpu0->LLC TOTAL        ACCESS:    1179909 HIT:     346378 MISS:     833531 MSHR_MERGE:          0
cpu0->LLC LOAD         ACCESS:       7536 HIT:          0 MISS:       7536 MSHR_MERGE:          0
cpu0->LLC RFO          ACCESS:     237790 HIT:          0 MISS:     237790 MSHR_MERGE:          0
cpu0->LLC PREFETCH     ACCESS:     486866 HIT:          0 MISS:     486866 MSHR_MERGE:          0
cpu0->LLC WRITE        ACCESS:     447717 HIT:     346378 MISS:     101339 MSHR_MERGE:          0
cpu0->LLC TRANSLATION  ACCESS:          0 HIT:          0 MISS:          0 MSHR_MERGE:          0
cpu0->LLC PREFETCH REQUESTED:          0 ISSUED:          0 USEFUL:          0 USELESS:          0 LATE:          0
cpu0->LLC AVERAGE MISS LATENCY: 343.6 cycles

DRAM Statistics

Channel 0 RQ ROW_BUFFER_HIT:      56060
  ROW_BUFFER_MISS:     676131
  AVG DBUS CONGESTED CYCLE: 7.503
Channel 0 WQ ROW_BUFFER_HIT:      52704
  ROW_BUFFER_MISS:     396213
  FULL:          0
Channel 0 REFRESHES ISSUED:       2440

[ROI Statistics]
[System Configuration]
num_cpus 1
cpu_freq 4000
fetch_width 6
decode_width 6
dispatch_width 6
execute_width 6
lq_width 2
sq_width 2
retire_width 6
scheduler_size 160
branch_mispredict_penalty 1
rob_size 352
lq_size 240
sq_size 112
ifetch_buffer_size 64
decode_buffer_size 32
dispatch_buffer_size 32
register_file_size 288
decode_latency 1
dispatch_latency 1
schedule_latency 0
execute_latency 0
page_size 4096
block_size 64
core_0_itlb_set 16
core_0_itlb_way 4
core_0_itlb_rq_size 16
core_0_itlb_wq_size 16
core_0_itlb_pq_size 0
core_0_itlb_mshr_size 8
core_0_itlb_hit_latency 1
core_0_itlb_fill_latency 1
core_0_itlb_max_tag_check 2
core_0_itlb_max_fill 2
core_0_dtlb_set 16
core_0_dtlb_way 4
core_0_dtlb_rq_size 16
core_0_dtlb_wq_size 16
core_0_dtlb_pq_size 0
core_0_dtlb_mshr_size 8
core_0_dtlb_hit_latency 1
core_0_dtlb_fill_latency 1
core_0_dtlb_max_tag_check 2
core_0_dtlb_max_fill 2
core_0_stlb_set 128
core_0_stlb_way 12
core_0_stlb_rq_size 32
core_0_stlb_wq_size 32
core_0_stlb_pq_size 0
core_0_stlb_mshr_size 16
core_0_stlb_hit_latency 4
core_0_stlb_fill_latency 4
core_0_stlb_max_tag_check 1
core_0_stlb_max_fill 1
core_0_l1i_set 64
core_0_l1i_way 8
core_0_l1i_rq_size 64
core_0_l1i_wq_size 64
core_0_l1i_pq_size 32
core_0_l1i_mshr_size 8
core_0_l1i_hit_latency 2
core_0_l1i_fill_latency 2
core_0_l1i_max_tag_check 2
core_0_l1i_max_fill 2
core_0_l1d_set 64
core_0_l1d_way 12
core_0_l1d_rq_size 64
core_0_l1d_wq_size 64
core_0_l1d_pq_size 8
core_0_l1d_mshr_size 16
core_0_l1d_hit_latency 2
core_0_l1d_fill_latency 3
core_0_l1d_max_tag_check 2
core_0_l1d_max_fill 2
core_0_l2c_set 1024
core_0_l2c_way 8
core_0_l2c_rq_size 32
core_0_l2c_wq_size 32
core_0_l2c_pq_size 16
core_0_l2c_mshr_size 32
core_0_l2c_hit_latency 5
core_0_l2c_fill_latency 5
core_0_l2c_max_tag_check 1
core_0_l2c_max_fill 1
llc_set 2048
llc_way 16
llc_rq_size 32
llc_wq_size 32
llc_pq_size 32
llc_mshr_size 64
llc_hit_latency 10
llc_fill_latency 10
llc_max_tag_check 1
llc_max_fill 1
dram_channels 1
dram_ranks 1
dram_bankgroups 8
dram_banks 4
dram_rows 16384
dram_columns 1024
dram_channel_width 8
dram_rq_size 64
dram_wq_size 64
dram_size 4294967296
core_0_itlb_prefetcher no
core_0_dtlb_prefetcher no
core_0_stlb_prefetcher no
core_0_l1i_prefetcher next_line
core_0_l1d_prefetcher berti
core_0_l2c_prefetcher pythia
llc_prefetcher no
llc_replacement drrip

Core_0_instructions 50000003
Core_0_cycles 29283833
Core_0_IPC 1.70743
Core_0_branch_prediction_accuracy 93.8089
Core_0_branch_MPKI 10.6385
Core_0_average_ROB_occupancy_at_mispredict 28.8321

Core_0_ITLB_total_access 1123860
Core_0_ITLB_total_hit 1123854
Core_0_ITLB_total_miss 6
Core_0_ITLB_total_MPKI 0.00012
Core_0_ITLB_total_miss_rate 5.33874e-06
Core_0_ITLB_demand_access 1123860
Core_0_ITLB_demand_hit 1123854
Core_0_ITLB_demand_miss 6
Core_0_ITLB_demand_MPKI 0.00012
Core_0_ITLB_demand_miss_rate 5.33874e-06
Core_0_ITLB_load_access 1123860
Core_0_ITLB_load_hit 1123854
Core_0_ITLB_load_miss 6
Core_0_ITLB_load_MPKI 0.00012
Core_0_ITLB_load_miss_rate 5.33874e-06
Core_0_ITLB_rfo_access 0
Core_0_ITLB_rfo_hit 0
Core_0_ITLB_rfo_miss 0
Core_0_ITLB_rfo_MPKI 0
Core_0_ITLB_rfo_miss_rate 0
Core_0_ITLB_prefetch_access 0
Core_0_ITLB_prefetch_hit 0
Core_0_ITLB_prefetch_miss 0
Core_0_ITLB_prefetch_MPKI 0
Core_0_ITLB_prefetch_miss_rate 0
Core_0_ITLB_writeback_access 0
Core_0_ITLB_writeback_hit 0
Core_0_ITLB_writeback_miss 0
Core_0_ITLB_writeback_MPKI 0
Core_0_ITLB_writeback_miss_rate 0
Core_0_ITLB_prefetch_requested 0
Core_0_ITLB_prefetch_issued 0
Core_0_ITLB_prefetch_useful 0
Core_0_ITLB_prefetch_useless 0
Core_0_ITLB_prefetch_late 0
Core_0_ITLB_prefetch_accuracy 0
Core_0_ITLB_prefetch_coverage 0

Core_0_DTLB_total_access 12020013
Core_0_DTLB_total_hit 12000517
Core_0_DTLB_total_miss 19496
Core_0_DTLB_total_MPKI 0.38992
Core_0_DTLB_total_miss_rate 0.00162196
Core_0_DTLB_demand_access 12020013
Core_0_DTLB_demand_hit 12000517
Core_0_DTLB_demand_miss 19496
Core_0_DTLB_demand_MPKI 0.38992
Core_0_DTLB_demand_miss_rate 0.00162196
Core_0_DTLB_load_access 12020013
Core_0_DTLB_load_hit 12000517
Core_0_DTLB_load_miss 19496
Core_0_DTLB_load_MPKI 0.38992
Core_0_DTLB_load_miss_rate 0.00162196
Core_0_DTLB_rfo_access 0
Core_0_DTLB_rfo_hit 0
Core_0_DTLB_rfo_miss 0
Core_0_DTLB_rfo_MPKI 0
Core_0_DTLB_rfo_miss_rate 0
Core_0_DTLB_prefetch_access 0
Core_0_DTLB_prefetch_hit 0
Core_0_DTLB_prefetch_miss 0
Core_0_DTLB_prefetch_MPKI 0
Core_0_DTLB_prefetch_miss_rate 0
Core_0_DTLB_writeback_access 0
Core_0_DTLB_writeback_hit 0
Core_0_DTLB_writeback_miss 0
Core_0_DTLB_writeback_MPKI 0
Core_0_DTLB_writeback_miss_rate 0
Core_0_DTLB_prefetch_requested 0
Core_0_DTLB_prefetch_issued 0
Core_0_DTLB_prefetch_useful 0
Core_0_DTLB_prefetch_useless 0
Core_0_DTLB_prefetch_late 0
Core_0_DTLB_prefetch_accuracy 0
Core_0_DTLB_prefetch_coverage 0

Core_0_STLB_total_access 11456
Core_0_STLB_total_hit 11456
Core_0_STLB_total_miss 0
Core_0_STLB_total_MPKI 0
Core_0_STLB_total_miss_rate 0
Core_0_STLB_demand_access 11456
Core_0_STLB_demand_hit 11456
Core_0_STLB_demand_miss 0
Core_0_STLB_demand_MPKI 0
Core_0_STLB_demand_miss_rate 0
Core_0_STLB_load_access 11456
Core_0_STLB_load_hit 11456
Core_0_STLB_load_miss 0
Core_0_STLB_load_MPKI 0
Core_0_STLB_load_miss_rate 0
Core_0_STLB_rfo_access 0
Core_0_STLB_rfo_hit 0
Core_0_STLB_rfo_miss 0
Core_0_STLB_rfo_MPKI 0
Core_0_STLB_rfo_miss_rate 0
Core_0_STLB_prefetch_access 0
Core_0_STLB_prefetch_hit 0
Core_0_STLB_prefetch_miss 0
Core_0_STLB_prefetch_MPKI 0
Core_0_STLB_prefetch_miss_rate 0
Core_0_STLB_writeback_access 0
Core_0_STLB_writeback_hit 0
Core_0_STLB_writeback_miss 0
Core_0_STLB_writeback_MPKI 0
Core_0_STLB_writeback_miss_rate 0
Core_0_STLB_prefetch_requested 0
Core_0_STLB_prefetch_issued 0
Core_0_STLB_prefetch_useful 0
Core_0_STLB_prefetch_useless 0
Core_0_STLB_prefetch_late 0
Core_0_STLB_prefetch_accuracy 0
Core_0_STLB_prefetch_coverage 0

Core_0_L1I_total_access 1135185
Core_0_L1I_total_hit 1135137
Core_0_L1I_total_miss 48
Core_0_L1I_total_MPKI 0.00096
Core_0_L1I_total_miss_rate 4.22839e-05
Core_0_L1I_demand_access 1135185
Core_0_L1I_demand_hit 1135137
Core_0_L1I_demand_miss 48
Core_0_L1I_demand_MPKI 0.00096
Core_0_L1I_demand_miss_rate 4.22839e-05
Core_0_L1I_load_access 1135185
Core_0_L1I_load_hit 1135137
Core_0_L1I_load_miss 48
Core_0_L1I_load_MPKI 0.00096
Core_0_L1I_load_miss_rate 4.22839e-05
Core_0_L1I_rfo_access 0
Core_0_L1I_rfo_hit 0
Core_0_L1I_rfo_miss 0
Core_0_L1I_rfo_MPKI 0
Core_0_L1I_rfo_miss_rate 0
Core_0_L1I_prefetch_access 0
Core_0_L1I_prefetch_hit 0
Core_0_L1I_prefetch_miss 0
Core_0_L1I_prefetch_MPKI 0
Core_0_L1I_prefetch_miss_rate 0
Core_0_L1I_writeback_access 0
Core_0_L1I_writeback_hit 0
Core_0_L1I_writeback_miss 0
Core_0_L1I_writeback_MPKI 0
Core_0_L1I_writeback_miss_rate 0
Core_0_L1I_prefetch_requested 0
Core_0_L1I_prefetch_issued 0
Core_0_L1I_prefetch_useful 0
Core_0_L1I_prefetch_useless 0
Core_0_L1I_prefetch_late 0
Core_0_L1I_prefetch_accuracy 0
Core_0_L1I_prefetch_coverage 0

Core_0_L1D_total_access 12214003
Core_0_L1D_total_hit 8963579
Core_0_L1D_total_miss 3250424
Core_0_L1D_total_MPKI 65.0085
Core_0_L1D_total_miss_rate 0.266123
Core_0_L1D_demand_access 7277088
Core_0_L1D_demand_hit 7133221
Core_0_L1D_demand_miss 143867
Core_0_L1D_demand_MPKI 2.87734
Core_0_L1D_demand_miss_rate 0.0197699
Core_0_L1D_load_access 7277088
Core_0_L1D_load_hit 7133221
Core_0_L1D_load_miss 143867
Core_0_L1D_load_MPKI 2.87734
Core_0_L1D_load_miss_rate 0.0197699
Core_0_L1D_rfo_access 0
Core_0_L1D_rfo_hit 0
Core_0_L1D_rfo_miss 0
Core_0_L1D_rfo_MPKI 0
Core_0_L1D_rfo_miss_rate 0
Core_0_L1D_prefetch_access 486220
Core_0_L1D_prefetch_hit 7259
Core_0_L1D_prefetch_miss 478961
Core_0_L1D_prefetch_MPKI 9.57922
Core_0_L1D_prefetch_miss_rate 0.985071
Core_0_L1D_writeback_access 4450695
Core_0_L1D_writeback_hit 1823099
Core_0_L1D_writeback_miss 2627596
Core_0_L1D_writeback_MPKI 52.5519
Core_0_L1D_writeback_miss_rate 0.590379
Core_0_L1D_prefetch_requested 486329
Core_0_L1D_prefetch_issued 486212
Core_0_L1D_prefetch_useful 477825
Core_0_L1D_prefetch_useless 26
Core_0_L1D_prefetch_late 22405
Core_0_L1D_prefetch_accuracy 0.98275
Core_0_L1D_prefetch_coverage 0.768588

Core_0_L2C_total_access 3709391
Core_0_L2C_total_hit 1542584
Core_0_L2C_total_miss 2166807
Core_0_L2C_total_MPKI 43.3361
Core_0_L2C_total_miss_rate 0.584141
Core_0_L2C_demand_access 254307
Core_0_L2C_demand_hit 8763
Core_0_L2C_demand_miss 245544
Core_0_L2C_demand_MPKI 4.91088
Core_0_L2C_demand_miss_rate 0.965542
Core_0_L2C_load_access 16516
Core_0_L2C_load_hit 8762
Core_0_L2C_load_miss 7754
Core_0_L2C_load_MPKI 0.15508
Core_0_L2C_load_miss_rate 0.469484
Core_0_L2C_rfo_access 237791
Core_0_L2C_rfo_hit 1
Core_0_L2C_rfo_miss 237790
Core_0_L2C_rfo_MPKI 4.7558
Core_0_L2C_rfo_miss_rate 0.999996
Core_0_L2C_prefetch_access 3011884
Core_0_L2C_prefetch_hit 1090621
Core_0_L2C_prefetch_miss 1921263
Core_0_L2C_prefetch_MPKI 38.4253
Core_0_L2C_prefetch_miss_rate 0.637894
Core_0_L2C_writeback_access 443200
Core_0_L2C_writeback_hit 443200
Core_0_L2C_writeback_miss 0
Core_0_L2C_writeback_MPKI 0
Core_0_L2C_writeback_miss_rate 0
Core_0_L2C_prefetch_requested 2541905
Core_0_L2C_prefetch_issued 2534031
Core_0_L2C_prefetch_useful 395215
Core_0_L2C_prefetch_useless 65754
Core_0_L2C_prefetch_late 218
Core_0_L2C_prefetch_accuracy 0.155963
Core_0_L2C_prefetch_coverage 0.616792

Core_0_LLC_total_access 1179909
Core_0_LLC_total_hit 346378
Core_0_LLC_total_miss 833531
Core_0_LLC_total_MPKI 16.6706
Core_0_LLC_total_miss_rate 0.706437
Core_0_LLC_demand_access 245326
Core_0_LLC_demand_hit 0
Core_0_LLC_demand_miss 245326
Core_0_LLC_demand_MPKI 4.90652
Core_0_LLC_demand_miss_rate 1
Core_0_LLC_load_access 7536
Core_0_LLC_load_hit 0
Core_0_LLC_load_miss 7536
Core_0_LLC_load_MPKI 0.15072
Core_0_LLC_load_miss_rate 1
Core_0_LLC_rfo_access 237790
Core_0_LLC_rfo_hit 0
Core_0_LLC_rfo_miss 237790
Core_0_LLC_rfo_MPKI 4.7558
Core_0_LLC_rfo_miss_rate 1
Core_0_LLC_prefetch_access 486866
Core_0_LLC_prefetch_hit 0
Core_0_LLC_prefetch_miss 486866
Core_0_LLC_prefetch_MPKI 9.73732
Core_0_LLC_prefetch_miss_rate 1
Core_0_LLC_writeback_access 447717
Core_0_LLC_writeback_hit 346378
Core_0_LLC_writeback_miss 101339
Core_0_LLC_writeback_MPKI 2.02678
Core_0_LLC_writeback_miss_rate 0.226346
Core_0_LLC_prefetch_requested 0
Core_0_LLC_prefetch_issued 0
Core_0_LLC_prefetch_useful 0
Core_0_LLC_prefetch_useless 0
Core_0_LLC_prefetch_late 0
Core_0_LLC_prefetch_accuracy 0
Core_0_LLC_prefetch_coverage 0

[DRAM Statistics]
Channel_0_RQ_row_buffer_hit 56060
Channel_0_RQ_row_buffer_miss 676131
Channel_0_WQ_row_buffer_hit 52704
Channel_0_WQ_row_buffer_miss 396213
Channel_0_WQ_full 0
Channel_0_dbus_congested 4182474
DRAM_total_RQ_row_buffer_hit 56060
DRAM_total_RQ_row_buffer_miss 676131
DRAM_total_WQ_row_buffer_hit 52704
DRAM_total_WQ_row_buffer_miss 396213
DRAM_total_WQ_full 0
DRAM_total_dbus_congested 4182474
DRAM_avg_congested_cycle 7.50296

======STLB miss causes ========
Core_0_STLB_miss_cause_breakdown
Core_0_STLB_cause_Demand_Data_miss 0
Core_0_STLB_cause_Demand_Data_miss_rate 0
Core_0_STLB_cause_Demand_Instruction_miss 0
Core_0_STLB_cause_Demand_Instruction_miss_rate 0
Core_0_STLB_cause_L1D_Prefetch_miss 0
Core_0_STLB_cause_L1D_Prefetch_miss_rate 0
Core_0_STLB_cause_L1I_Prefetch_miss 0
Core_0_STLB_cause_L1I_Prefetch_miss_rate 0
Core_0_STLB_cause_Other_miss 0
Core_0_STLB_cause_Other_miss_rate 0
Core_0_STLB_Demand_miss 0
Core_0_STLB_Demand_miss_rate 0
Core_0_STLB_L1D_Prefetch_miss 0
Core_0_STLB_L1D_Prefetch_miss_rate 0
Core_0_STLB_Other_miss 0
Core_0_STLB_Other_miss_rate 0
