[VMEM] WARNING: physical memory size is smaller than virtual memory size.

*** ChampSim Multicore Out-of-Order Simulator ***
Warmup Instructions: 20000000
Simulation Instructions: 50000000
Number of CPUs: 1
Page size: 4096
STLB ideal mode: all
Core 0: /data0/tzh/champsim_traces/SPEC06/433.milc-337B.champsimtrace.xz
Off-chip DRAM Size: 4 GiB Channels: 1 Width: 64-bit Data Rate: 3205 MT/s
Warmup halting CPU 0 at instruction 20000002 cycle 5300680 for remainder of phase
Warmup finished CPU 0 instructions: 20000002 cycles: 5300680 cumulative IPC: 3.773 (Simulation time: 00 hr 00 min 41 sec)
Warmup complete CPU 0 instructions: 20000002 cycles: 5300680 cumulative IPC: 3.773 (Simulation time: 00 hr 00 min 41 sec)
Simulation finished CPU 0 instructions: 50000001 cycles: 38668981 cumulative IPC: 1.293 (Simulation time: 00 hr 06 min 48 sec)
Simulation complete CPU 0 instructions: 50000001 cycles: 38668981 cumulative IPC: 1.293 (Simulation time: 00 hr 06 min 48 sec)

ChampSim completed all CPUs

=== Simulation ===
CPU 0 runs /data0/tzh/champsim_traces/SPEC06/433.milc-337B.champsimtrace.xz

Region of Interest Statistics

CPU 0 cumulative IPC: 1.293 instructions: 50000001 cycles: 38668981
CPU 0 Branch Prediction Accuracy: 100% MPKI: 0.00042 Average ROB Occupancy at Mispredict: 54.14
Branch type MPKI
BRANCH_DIRECT_JUMP: 4e-05
BRANCH_INDIRECT: 0
BRANCH_CONDITIONAL: 0.00022
BRANCH_DIRECT_CALL: 8e-05
BRANCH_INDIRECT_CALL: 0
BRANCH_RETURN: 8e-05

cpu0->cpu0_STLB TOTAL        ACCESS:      78725 HIT:      78725 MISS:          0 MSHR_MERGE:          0
cpu0->cpu0_STLB LOAD         ACCESS:      78725 HIT:      78725 MISS:          0 MSHR_MERGE:          0
cpu0->cpu0_STLB RFO          ACCESS:          0 HIT:          0 MISS:          0 MSHR_MERGE:          0
cpu0->cpu0_STLB PREFETCH     ACCESS:          0 HIT:          0 MISS:          0 MSHR_MERGE:          0
cpu0->cpu0_STLB WRITE        ACCESS:          0 HIT:          0 MISS:          0 MSHR_MERGE:          0
cpu0->cpu0_STLB TRANSLATION  ACCESS:          0 HIT:          0 MISS:          0 MSHR_MERGE:          0
cpu0->cpu0_STLB PREFETCH REQUESTED:          0 ISSUED:          0 USEFUL:          0 USELESS:          0 LATE:          0
cpu0->cpu0_STLB AVERAGE MISS LATENCY: - cycles
cpu0->cpu0_L2C TOTAL        ACCESS:    1451662 HIT:     350924 MISS:    1100738 MSHR_MERGE:       9350
cpu0->cpu0_L2C LOAD         ACCESS:     425254 HIT:       3740 MISS:     421514 MSHR_MERGE:         15
cpu0->cpu0_L2C RFO          ACCESS:     311856 HIT:          0 MISS:     311856 MSHR_MERGE:          0
cpu0->cpu0_L2C PREFETCH     ACCESS:     403021 HIT:      35657 MISS:     367364 MSHR_MERGE:       9335
cpu0->cpu0_L2C WRITE        ACCESS:     311531 HIT:     311527 MISS:          4 MSHR_MERGE:          0
cpu0->cpu0_L2C TRANSLATION  ACCESS:          0 HIT:          0 MISS:          0 MSHR_MERGE:          0
cpu0->cpu0_L2C PREFETCH REQUESTED:      62603 ISSUED:      62603 USEFUL:      22415 USELESS:       9234 LATE:         15
cpu0->cpu0_L2C AVERAGE MISS LATENCY: 200.3 cycles
cpu0->cpu0_L1I TOTAL        ACCESS:    7166117 HIT:    7166102 MISS:         15 MSHR_MERGE:          3
cpu0->cpu0_L1I LOAD         ACCESS:    7166117 HIT:    7166102 MISS:         15 MSHR_MERGE:          3
cpu0->cpu0_L1I RFO          ACCESS:          0 HIT:          0 MISS:          0 MSHR_MERGE:          0
cpu0->cpu0_L1I PREFETCH     ACCESS:          0 HIT:          0 MISS:          0 MSHR_MERGE:          0
cpu0->cpu0_L1I WRITE        ACCESS:          0 HIT:          0 MISS:          0 MSHR_MERGE:          0
cpu0->cpu0_L1I TRANSLATION  ACCESS:          0 HIT:          0 MISS:          0 MSHR_MERGE:          0
cpu0->cpu0_L1I PREFETCH REQUESTED:          0 ISSUED:          0 USEFUL:          0 USELESS:          0 LATE:          0
cpu0->cpu0_L1I AVERAGE MISS LATENCY: 205.3 cycles
cpu0->cpu0_L1D TOTAL        ACCESS:   15143264 HIT:    7022747 MISS:    8120517 MSHR_MERGE:    7043000
cpu0->cpu0_L1D LOAD         ACCESS:    7146418 HIT:    4199076 MISS:    2947342 MSHR_MERGE:    2522100
cpu0->cpu0_L1D RFO          ACCESS:          0 HIT:          0 MISS:          0 MSHR_MERGE:          0
cpu0->cpu0_L1D PREFETCH     ACCESS:    5797211 HIT:    2613203 MISS:    3184008 MSHR_MERGE:    2843589
cpu0->cpu0_L1D WRITE        ACCESS:    2199635 HIT:     210468 MISS:    1989167 MSHR_MERGE:    1677311
cpu0->cpu0_L1D TRANSLATION  ACCESS:          0 HIT:          0 MISS:          0 MSHR_MERGE:          0
cpu0->cpu0_L1D PREFETCH REQUESTED:    9965482 ISSUED:    5797204 USEFUL:     192399 USELESS:     148006 LATE:     118390
cpu0->cpu0_L1D AVERAGE MISS LATENCY: 198.7 cycles
cpu0->cpu0_ITLB TOTAL        ACCESS:    7077490 HIT:    7077489 MISS:          1 MSHR_MERGE:          0
cpu0->cpu0_ITLB LOAD         ACCESS:    7077490 HIT:    7077489 MISS:          1 MSHR_MERGE:          0
cpu0->cpu0_ITLB RFO          ACCESS:          0 HIT:          0 MISS:          0 MSHR_MERGE:          0
cpu0->cpu0_ITLB PREFETCH     ACCESS:          0 HIT:          0 MISS:          0 MSHR_MERGE:          0
cpu0->cpu0_ITLB WRITE        ACCESS:          0 HIT:          0 MISS:          0 MSHR_MERGE:          0
cpu0->cpu0_ITLB TRANSLATION  ACCESS:          0 HIT:          0 MISS:          0 MSHR_MERGE:          0
cpu0->cpu0_ITLB PREFETCH REQUESTED:          0 ISSUED:          0 USEFUL:          0 USELESS:          0 LATE:          0
cpu0->cpu0_ITLB AVERAGE MISS LATENCY: 5 cycles
cpu0->cpu0_DTLB TOTAL        ACCESS:   12997813 HIT:   12776318 MISS:     221495 MSHR_MERGE:     142771
cpu0->cpu0_DTLB LOAD         ACCESS:   12997813 HIT:   12776318 MISS:     221495 MSHR_MERGE:     142771
cpu0->cpu0_DTLB RFO          ACCESS:          0 HIT:          0 MISS:          0 MSHR_MERGE:          0
cpu0->cpu0_DTLB PREFETCH     ACCESS:          0 HIT:          0 MISS:          0 MSHR_MERGE:          0
cpu0->cpu0_DTLB WRITE        ACCESS:          0 HIT:          0 MISS:          0 MSHR_MERGE:          0
cpu0->cpu0_DTLB TRANSLATION  ACCESS:          0 HIT:          0 MISS:          0 MSHR_MERGE:          0
cpu0->cpu0_DTLB PREFETCH REQUESTED:          0 ISSUED:          0 USEFUL:          0 USELESS:          0 LATE:          0
cpu0->cpu0_DTLB AVERAGE MISS LATENCY: 5.001 cycles
cpu0->LLC TOTAL        ACCESS:    1400678 HIT:     273824 MISS:    1126854 MSHR_MERGE:       1012
cpu0->LLC LOAD         ACCESS:     421499 HIT:       1211 MISS:     420288 MSHR_MERGE:          4
cpu0->LLC RFO          ACCESS:     311856 HIT:        251 MISS:     311605 MSHR_MERGE:          0
cpu0->LLC PREFETCH     ACCESS:     358028 HIT:       7856 MISS:     350172 MSHR_MERGE:       1008
cpu0->LLC WRITE        ACCESS:     309295 HIT:     264506 MISS:      44789 MSHR_MERGE:          0
cpu0->LLC TRANSLATION  ACCESS:          0 HIT:          0 MISS:          0 MSHR_MERGE:          0
cpu0->LLC PREFETCH REQUESTED:          0 ISSUED:          0 USEFUL:          0 USELESS:          0 LATE:          0
cpu0->LLC AVERAGE MISS LATENCY: 175.4 cycles

DRAM Statistics

Channel 0 RQ ROW_BUFFER_HIT:     188990
  ROW_BUFFER_MISS:     892061
  AVG DBUS CONGESTED CYCLE: 19.75
Channel 0 WQ ROW_BUFFER_HIT:      22781
  ROW_BUFFER_MISS:     267692
  FULL:          0
Channel 0 REFRESHES ISSUED:       3223

[ROI Statistics]
[System Configuration]
num_cpus 1
cpu_freq 4000
fetch_width 4
decode_width 4
dispatch_width 4
execute_width 4
lq_width 2
sq_width 2
retire_width 4
scheduler_size 128
branch_mispredict_penalty 15
rob_size 352
lq_size 128
sq_size 72
ifetch_buffer_size 64
decode_buffer_size 32
dispatch_buffer_size 32
register_file_size 288
decode_latency 1
dispatch_latency 1
schedule_latency 1
execute_latency 1
page_size 4096
block_size 64
core_0_itlb_set 16
core_0_itlb_way 4
core_0_itlb_rq_size 16
core_0_itlb_wq_size 16
core_0_itlb_pq_size 0
core_0_itlb_mshr_size 8
core_0_itlb_hit_latency 1
core_0_itlb_fill_latency 1
core_0_itlb_max_tag_check 2
core_0_itlb_max_fill 2
core_0_dtlb_set 16
core_0_dtlb_way 4
core_0_dtlb_rq_size 16
core_0_dtlb_wq_size 16
core_0_dtlb_pq_size 0
core_0_dtlb_mshr_size 8
core_0_dtlb_hit_latency 1
core_0_dtlb_fill_latency 1
core_0_dtlb_max_tag_check 2
core_0_dtlb_max_fill 2
core_0_stlb_set 128
core_0_stlb_way 12
core_0_stlb_rq_size 32
core_0_stlb_wq_size 32
core_0_stlb_pq_size 0
core_0_stlb_mshr_size 16
core_0_stlb_hit_latency 4
core_0_stlb_fill_latency 4
core_0_stlb_max_tag_check 1
core_0_stlb_max_fill 1
core_0_l1i_set 64
core_0_l1i_way 8
core_0_l1i_rq_size 64
core_0_l1i_wq_size 64
core_0_l1i_pq_size 32
core_0_l1i_mshr_size 8
core_0_l1i_hit_latency 1
core_0_l1i_fill_latency 1
core_0_l1i_max_tag_check 2
core_0_l1i_max_fill 2
core_0_l1d_set 64
core_0_l1d_way 8
core_0_l1d_rq_size 64
core_0_l1d_wq_size 64
core_0_l1d_pq_size 8
core_0_l1d_mshr_size 8
core_0_l1d_hit_latency 2
core_0_l1d_fill_latency 2
core_0_l1d_max_tag_check 2
core_0_l1d_max_fill 2
core_0_l2c_set 512
core_0_l2c_way 8
core_0_l2c_rq_size 32
core_0_l2c_wq_size 32
core_0_l2c_pq_size 16
core_0_l2c_mshr_size 16
core_0_l2c_hit_latency 4
core_0_l2c_fill_latency 4
core_0_l2c_max_tag_check 1
core_0_l2c_max_fill 1
llc_set 2048
llc_way 16
llc_rq_size 32
llc_wq_size 32
llc_pq_size 32
llc_mshr_size 32
llc_hit_latency 10
llc_fill_latency 10
llc_max_tag_check 1
llc_max_fill 1
dram_channels 1
dram_ranks 1
dram_bankgroups 8
dram_banks 4
dram_rows 16384
dram_columns 1024
dram_channel_width 8
dram_rq_size 64
dram_wq_size 64
dram_size 4294967296
core_0_itlb_prefetcher no
core_0_dtlb_prefetcher no
core_0_stlb_prefetcher no
core_0_l1i_prefetcher next_line
core_0_l1d_prefetcher next_line
core_0_l2c_prefetcher ip_stride
llc_prefetcher no
llc_replacement drrip

Core_0_instructions 50000001
Core_0_cycles 38668981
Core_0_IPC 1.29303
Core_0_branch_prediction_accuracy 99.9988
Core_0_branch_MPKI 0.00042
Core_0_average_ROB_occupancy_at_mispredict 54.1429

Core_0_ITLB_total_access 7077490
Core_0_ITLB_total_hit 7077489
Core_0_ITLB_total_miss 1
Core_0_ITLB_total_MPKI 2e-05
Core_0_ITLB_total_miss_rate 1.41293e-07
Core_0_ITLB_demand_access 7077490
Core_0_ITLB_demand_hit 7077489
Core_0_ITLB_demand_miss 1
Core_0_ITLB_demand_MPKI 2e-05
Core_0_ITLB_demand_miss_rate 1.41293e-07
Core_0_ITLB_load_access 7077490
Core_0_ITLB_load_hit 7077489
Core_0_ITLB_load_miss 1
Core_0_ITLB_load_MPKI 2e-05
Core_0_ITLB_load_miss_rate 1.41293e-07
Core_0_ITLB_rfo_access 0
Core_0_ITLB_rfo_hit 0
Core_0_ITLB_rfo_miss 0
Core_0_ITLB_rfo_MPKI 0
Core_0_ITLB_rfo_miss_rate 0
Core_0_ITLB_prefetch_access 0
Core_0_ITLB_prefetch_hit 0
Core_0_ITLB_prefetch_miss 0
Core_0_ITLB_prefetch_MPKI 0
Core_0_ITLB_prefetch_miss_rate 0
Core_0_ITLB_writeback_access 0
Core_0_ITLB_writeback_hit 0
Core_0_ITLB_writeback_miss 0
Core_0_ITLB_writeback_MPKI 0
Core_0_ITLB_writeback_miss_rate 0
Core_0_ITLB_prefetch_requested 0
Core_0_ITLB_prefetch_issued 0
Core_0_ITLB_prefetch_useful 0
Core_0_ITLB_prefetch_useless 0
Core_0_ITLB_prefetch_late 0
Core_0_ITLB_prefetch_accuracy 0
Core_0_ITLB_prefetch_coverage 0

Core_0_DTLB_total_access 12997813
Core_0_DTLB_total_hit 12776318
Core_0_DTLB_total_miss 221495
Core_0_DTLB_total_MPKI 4.4299
Core_0_DTLB_total_miss_rate 0.0170409
Core_0_DTLB_demand_access 12997813
Core_0_DTLB_demand_hit 12776318
Core_0_DTLB_demand_miss 221495
Core_0_DTLB_demand_MPKI 4.4299
Core_0_DTLB_demand_miss_rate 0.0170409
Core_0_DTLB_load_access 12997813
Core_0_DTLB_load_hit 12776318
Core_0_DTLB_load_miss 221495
Core_0_DTLB_load_MPKI 4.4299
Core_0_DTLB_load_miss_rate 0.0170409
Core_0_DTLB_rfo_access 0
Core_0_DTLB_rfo_hit 0
Core_0_DTLB_rfo_miss 0
Core_0_DTLB_rfo_MPKI 0
Core_0_DTLB_rfo_miss_rate 0
Core_0_DTLB_prefetch_access 0
Core_0_DTLB_prefetch_hit 0
Core_0_DTLB_prefetch_miss 0
Core_0_DTLB_prefetch_MPKI 0
Core_0_DTLB_prefetch_miss_rate 0
Core_0_DTLB_writeback_access 0
Core_0_DTLB_writeback_hit 0
Core_0_DTLB_writeback_miss 0
Core_0_DTLB_writeback_MPKI 0
Core_0_DTLB_writeback_miss_rate 0
Core_0_DTLB_prefetch_requested 0
Core_0_DTLB_prefetch_issued 0
Core_0_DTLB_prefetch_useful 0
Core_0_DTLB_prefetch_useless 0
Core_0_DTLB_prefetch_late 0
Core_0_DTLB_prefetch_accuracy 0
Core_0_DTLB_prefetch_coverage 0

Core_0_STLB_total_access 78725
Core_0_STLB_total_hit 78725
Core_0_STLB_total_miss 0
Core_0_STLB_total_MPKI 0
Core_0_STLB_total_miss_rate 0
Core_0_STLB_demand_access 78725
Core_0_STLB_demand_hit 78725
Core_0_STLB_demand_miss 0
Core_0_STLB_demand_MPKI 0
Core_0_STLB_demand_miss_rate 0
Core_0_STLB_load_access 78725
Core_0_STLB_load_hit 78725
Core_0_STLB_load_miss 0
Core_0_STLB_load_MPKI 0
Core_0_STLB_load_miss_rate 0
Core_0_STLB_rfo_access 0
Core_0_STLB_rfo_hit 0
Core_0_STLB_rfo_miss 0
Core_0_STLB_rfo_MPKI 0
Core_0_STLB_rfo_miss_rate 0
Core_0_STLB_prefetch_access 0
Core_0_STLB_prefetch_hit 0
Core_0_STLB_prefetch_miss 0
Core_0_STLB_prefetch_MPKI 0
Core_0_STLB_prefetch_miss_rate 0
Core_0_STLB_writeback_access 0
Core_0_STLB_writeback_hit 0
Core_0_STLB_writeback_miss 0
Core_0_STLB_writeback_MPKI 0
Core_0_STLB_writeback_miss_rate 0
Core_0_STLB_prefetch_requested 0
Core_0_STLB_prefetch_issued 0
Core_0_STLB_prefetch_useful 0
Core_0_STLB_prefetch_useless 0
Core_0_STLB_prefetch_late 0
Core_0_STLB_prefetch_accuracy 0
Core_0_STLB_prefetch_coverage 0

Core_0_L1I_total_access 7166117
Core_0_L1I_total_hit 7166102
Core_0_L1I_total_miss 15
Core_0_L1I_total_MPKI 0.0003
Core_0_L1I_total_miss_rate 2.09318e-06
Core_0_L1I_demand_access 7166117
Core_0_L1I_demand_hit 7166102
Core_0_L1I_demand_miss 15
Core_0_L1I_demand_MPKI 0.0003
Core_0_L1I_demand_miss_rate 2.09318e-06
Core_0_L1I_load_access 7166117
Core_0_L1I_load_hit 7166102
Core_0_L1I_load_miss 15
Core_0_L1I_load_MPKI 0.0003
Core_0_L1I_load_miss_rate 2.09318e-06
Core_0_L1I_rfo_access 0
Core_0_L1I_rfo_hit 0
Core_0_L1I_rfo_miss 0
Core_0_L1I_rfo_MPKI 0
Core_0_L1I_rfo_miss_rate 0
Core_0_L1I_prefetch_access 0
Core_0_L1I_prefetch_hit 0
Core_0_L1I_prefetch_miss 0
Core_0_L1I_prefetch_MPKI 0
Core_0_L1I_prefetch_miss_rate 0
Core_0_L1I_writeback_access 0
Core_0_L1I_writeback_hit 0
Core_0_L1I_writeback_miss 0
Core_0_L1I_writeback_MPKI 0
Core_0_L1I_writeback_miss_rate 0
Core_0_L1I_prefetch_requested 0
Core_0_L1I_prefetch_issued 0
Core_0_L1I_prefetch_useful 0
Core_0_L1I_prefetch_useless 0
Core_0_L1I_prefetch_late 0
Core_0_L1I_prefetch_accuracy 0
Core_0_L1I_prefetch_coverage 0

Core_0_L1D_total_access 15143264
Core_0_L1D_total_hit 7022747
Core_0_L1D_total_miss 8120517
Core_0_L1D_total_MPKI 162.41
Core_0_L1D_total_miss_rate 0.536246
Core_0_L1D_demand_access 7146418
Core_0_L1D_demand_hit 4199076
Core_0_L1D_demand_miss 2947342
Core_0_L1D_demand_MPKI 58.9468
Core_0_L1D_demand_miss_rate 0.412422
Core_0_L1D_load_access 7146418
Core_0_L1D_load_hit 4199076
Core_0_L1D_load_miss 2947342
Core_0_L1D_load_MPKI 58.9468
Core_0_L1D_load_miss_rate 0.412422
Core_0_L1D_rfo_access 0
Core_0_L1D_rfo_hit 0
Core_0_L1D_rfo_miss 0
Core_0_L1D_rfo_MPKI 0
Core_0_L1D_rfo_miss_rate 0
Core_0_L1D_prefetch_access 5797211
Core_0_L1D_prefetch_hit 2613203
Core_0_L1D_prefetch_miss 3184008
Core_0_L1D_prefetch_MPKI 63.6802
Core_0_L1D_prefetch_miss_rate 0.549231
Core_0_L1D_writeback_access 2199635
Core_0_L1D_writeback_hit 210468
Core_0_L1D_writeback_miss 1989167
Core_0_L1D_writeback_MPKI 39.7833
Core_0_L1D_writeback_miss_rate 0.904317
Core_0_L1D_prefetch_requested 9965482
Core_0_L1D_prefetch_issued 5797204
Core_0_L1D_prefetch_useful 192399
Core_0_L1D_prefetch_useless 148006
Core_0_L1D_prefetch_late 118390
Core_0_L1D_prefetch_accuracy 0.0331882
Core_0_L1D_prefetch_coverage 0.0612786

Core_0_L2C_total_access 1451662
Core_0_L2C_total_hit 350924
Core_0_L2C_total_miss 1100738
Core_0_L2C_total_MPKI 22.0148
Core_0_L2C_total_miss_rate 0.758261
Core_0_L2C_demand_access 737110
Core_0_L2C_demand_hit 3740
Core_0_L2C_demand_miss 733370
Core_0_L2C_demand_MPKI 14.6674
Core_0_L2C_demand_miss_rate 0.994926
Core_0_L2C_load_access 425254
Core_0_L2C_load_hit 3740
Core_0_L2C_load_miss 421514
Core_0_L2C_load_MPKI 8.43028
Core_0_L2C_load_miss_rate 0.991205
Core_0_L2C_rfo_access 311856
Core_0_L2C_rfo_hit 0
Core_0_L2C_rfo_miss 311856
Core_0_L2C_rfo_MPKI 6.23712
Core_0_L2C_rfo_miss_rate 1
Core_0_L2C_prefetch_access 403021
Core_0_L2C_prefetch_hit 35657
Core_0_L2C_prefetch_miss 367364
Core_0_L2C_prefetch_MPKI 7.34728
Core_0_L2C_prefetch_miss_rate 0.911526
Core_0_L2C_writeback_access 311531
Core_0_L2C_writeback_hit 311527
Core_0_L2C_writeback_miss 4
Core_0_L2C_writeback_MPKI 8e-05
Core_0_L2C_writeback_miss_rate 1.28398e-05
Core_0_L2C_prefetch_requested 62603
Core_0_L2C_prefetch_issued 62603
Core_0_L2C_prefetch_useful 22415
Core_0_L2C_prefetch_useless 9234
Core_0_L2C_prefetch_late 15
Core_0_L2C_prefetch_accuracy 0.35805
Core_0_L2C_prefetch_coverage 0.0296579

Core_0_LLC_total_access 1400678
Core_0_LLC_total_hit 273824
Core_0_LLC_total_miss 1126854
Core_0_LLC_total_MPKI 22.5371
Core_0_LLC_total_miss_rate 0.804506
Core_0_LLC_demand_access 733355
Core_0_LLC_demand_hit 1462
Core_0_LLC_demand_miss 731893
Core_0_LLC_demand_MPKI 14.6379
Core_0_LLC_demand_miss_rate 0.998006
Core_0_LLC_load_access 421499
Core_0_LLC_load_hit 1211
Core_0_LLC_load_miss 420288
Core_0_LLC_load_MPKI 8.40576
Core_0_LLC_load_miss_rate 0.997127
Core_0_LLC_rfo_access 311856
Core_0_LLC_rfo_hit 251
Core_0_LLC_rfo_miss 311605
Core_0_LLC_rfo_MPKI 6.2321
Core_0_LLC_rfo_miss_rate 0.999195
Core_0_LLC_prefetch_access 358028
Core_0_LLC_prefetch_hit 7856
Core_0_LLC_prefetch_miss 350172
Core_0_LLC_prefetch_MPKI 7.00344
Core_0_LLC_prefetch_miss_rate 0.978058
Core_0_LLC_writeback_access 309295
Core_0_LLC_writeback_hit 264506
Core_0_LLC_writeback_miss 44789
Core_0_LLC_writeback_MPKI 0.89578
Core_0_LLC_writeback_miss_rate 0.14481
Core_0_LLC_prefetch_requested 0
Core_0_LLC_prefetch_issued 0
Core_0_LLC_prefetch_useful 0
Core_0_LLC_prefetch_useless 0
Core_0_LLC_prefetch_late 0
Core_0_LLC_prefetch_accuracy 0
Core_0_LLC_prefetch_coverage 0

[DRAM Statistics]
Channel_0_RQ_row_buffer_hit 188990
Channel_0_RQ_row_buffer_miss 892061
Channel_0_WQ_row_buffer_hit 22781
Channel_0_WQ_row_buffer_miss 267692
Channel_0_WQ_full 0
Channel_0_dbus_congested 6853505
DRAM_total_RQ_row_buffer_hit 188990
DRAM_total_RQ_row_buffer_miss 892061
DRAM_total_WQ_row_buffer_hit 22781
DRAM_total_WQ_row_buffer_miss 267692
DRAM_total_WQ_full 0
DRAM_total_dbus_congested 6853505
DRAM_avg_congested_cycle 19.75

======STLB miss causes ========
Core_0_STLB_miss_cause_breakdown
Core_0_STLB_cause_Demand_Data_miss 0
Core_0_STLB_cause_Demand_Data_miss_rate 0
Core_0_STLB_cause_Demand_Instruction_miss 0
Core_0_STLB_cause_Demand_Instruction_miss_rate 0
Core_0_STLB_cause_L1D_Prefetch_miss 0
Core_0_STLB_cause_L1D_Prefetch_miss_rate 0
Core_0_STLB_cause_L1I_Prefetch_miss 0
Core_0_STLB_cause_L1I_Prefetch_miss_rate 0
Core_0_STLB_cause_Other_miss 0
Core_0_STLB_cause_Other_miss_rate 0
Core_0_STLB_Demand_miss 0
Core_0_STLB_Demand_miss_rate 0
Core_0_STLB_L1D_Prefetch_miss 0
Core_0_STLB_L1D_Prefetch_miss_rate 0
Core_0_STLB_Other_miss 0
Core_0_STLB_Other_miss_rate 0
