[VMEM] WARNING: physical memory size is smaller than virtual memory size.

*** ChampSim Multicore Out-of-Order Simulator ***
Warmup Instructions: 20000000
Simulation Instructions: 50000000
Number of CPUs: 1
Page size: 4096
STLB ideal mode: all
Core 0: /data0/tzh/champsim_traces/SPEC06/459.GemsFDTD-1169B.champsimtrace.xz
Off-chip DRAM Size: 4 GiB Channels: 1 Width: 64-bit Data Rate: 3205 MT/s
Warmup halting CPU 0 at instruction 20000001 cycle 5704902 for remainder of phase
Warmup finished CPU 0 instructions: 20000001 cycles: 5704902 cumulative IPC: 3.506 (Simulation time: 00 hr 00 min 54 sec)
Warmup complete CPU 0 instructions: 20000001 cycles: 5704902 cumulative IPC: 3.506 (Simulation time: 00 hr 00 min 54 sec)
Simulation finished CPU 0 instructions: 50000001 cycles: 36091968 cumulative IPC: 1.385 (Simulation time: 00 hr 06 min 34 sec)
Simulation complete CPU 0 instructions: 50000001 cycles: 36091968 cumulative IPC: 1.385 (Simulation time: 00 hr 06 min 34 sec)

ChampSim completed all CPUs

=== Simulation ===
CPU 0 runs /data0/tzh/champsim_traces/SPEC06/459.GemsFDTD-1169B.champsimtrace.xz

Region of Interest Statistics

CPU 0 cumulative IPC: 1.385 instructions: 50000001 cycles: 36091968
CPU 0 Branch Prediction Accuracy: 99.92% MPKI: 0.0022 Average ROB Occupancy at Mispredict: 319.8
Branch type MPKI
BRANCH_DIRECT_JUMP: 2e-05
BRANCH_INDIRECT: 0
BRANCH_CONDITIONAL: 0.00218
BRANCH_DIRECT_CALL: 0
BRANCH_INDIRECT_CALL: 0
BRANCH_RETURN: 0

cpu0->cpu0_STLB TOTAL        ACCESS:     742800 HIT:     742800 MISS:          0 MSHR_MERGE:          0
cpu0->cpu0_STLB LOAD         ACCESS:     742800 HIT:     742800 MISS:          0 MSHR_MERGE:          0
cpu0->cpu0_STLB RFO          ACCESS:          0 HIT:          0 MISS:          0 MSHR_MERGE:          0
cpu0->cpu0_STLB PREFETCH     ACCESS:          0 HIT:          0 MISS:          0 MSHR_MERGE:          0
cpu0->cpu0_STLB WRITE        ACCESS:          0 HIT:          0 MISS:          0 MSHR_MERGE:          0
cpu0->cpu0_STLB TRANSLATION  ACCESS:          0 HIT:          0 MISS:          0 MSHR_MERGE:          0
cpu0->cpu0_STLB PREFETCH REQUESTED:          0 ISSUED:          0 USEFUL:          0 USELESS:          0 LATE:          0
cpu0->cpu0_STLB AVERAGE MISS LATENCY: - cycles
cpu0->cpu0_L2C TOTAL        ACCESS:    3641335 HIT:    1561243 MISS:    2080092 MSHR_MERGE:       1415
cpu0->cpu0_L2C LOAD         ACCESS:    1736439 HIT:     686435 MISS:    1050004 MSHR_MERGE:          0
cpu0->cpu0_L2C RFO          ACCESS:         37 HIT:         36 MISS:          1 MSHR_MERGE:          0
cpu0->cpu0_L2C PREFETCH     ACCESS:    1488744 HIT:     458668 MISS:    1030076 MSHR_MERGE:       1415
cpu0->cpu0_L2C WRITE        ACCESS:     416115 HIT:     416104 MISS:         11 MSHR_MERGE:          0
cpu0->cpu0_L2C TRANSLATION  ACCESS:          0 HIT:          0 MISS:          0 MSHR_MERGE:          0
cpu0->cpu0_L2C PREFETCH REQUESTED:     281490 ISSUED:     281490 USEFUL:      50880 USELESS:      93231 LATE:          0
cpu0->cpu0_L2C AVERAGE MISS LATENCY: 39.16 cycles
cpu0->cpu0_L1I TOTAL        ACCESS:    9856418 HIT:    9856101 MISS:        317 MSHR_MERGE:        176
cpu0->cpu0_L1I LOAD         ACCESS:    9856418 HIT:    9856101 MISS:        317 MSHR_MERGE:        176
cpu0->cpu0_L1I RFO          ACCESS:          0 HIT:          0 MISS:          0 MSHR_MERGE:          0
cpu0->cpu0_L1I PREFETCH     ACCESS:          0 HIT:          0 MISS:          0 MSHR_MERGE:          0
cpu0->cpu0_L1I WRITE        ACCESS:          0 HIT:          0 MISS:          0 MSHR_MERGE:          0
cpu0->cpu0_L1I TRANSLATION  ACCESS:          0 HIT:          0 MISS:          0 MSHR_MERGE:          0
cpu0->cpu0_L1I PREFETCH REQUESTED:          0 ISSUED:          0 USEFUL:          0 USELESS:          0 LATE:          0
cpu0->cpu0_L1I AVERAGE MISS LATENCY: 147.3 cycles
cpu0->cpu0_L1D TOTAL        ACCESS:   31512695 HIT:   28322433 MISS:    3190262 MSHR_MERGE:     246671
cpu0->cpu0_L1D LOAD         ACCESS:   20216631 HIT:   18306690 MISS:    1909941 MSHR_MERGE:     173642
cpu0->cpu0_L1D RFO          ACCESS:          0 HIT:          0 MISS:          0 MSHR_MERGE:          0
cpu0->cpu0_L1D PREFETCH     ACCESS:    9652047 HIT:    8371765 MISS:    1280282 MSHR_MERGE:      73028
cpu0->cpu0_L1D WRITE        ACCESS:    1644017 HIT:    1643978 MISS:         39 MSHR_MERGE:          1
cpu0->cpu0_L1D TRANSLATION  ACCESS:          0 HIT:          0 MISS:          0 MSHR_MERGE:          0
cpu0->cpu0_L1D PREFETCH REQUESTED:   20250355 ISSUED:    9652048 USEFUL:     253799 USELESS:     953407 LATE:        893
cpu0->cpu0_L1D AVERAGE MISS LATENCY: 30.29 cycles
cpu0->cpu0_ITLB TOTAL        ACCESS:    9458256 HIT:    9458247 MISS:          9 MSHR_MERGE:          7
cpu0->cpu0_ITLB LOAD         ACCESS:    9458256 HIT:    9458247 MISS:          9 MSHR_MERGE:          7
cpu0->cpu0_ITLB RFO          ACCESS:          0 HIT:          0 MISS:          0 MSHR_MERGE:          0
cpu0->cpu0_ITLB PREFETCH     ACCESS:          0 HIT:          0 MISS:          0 MSHR_MERGE:          0
cpu0->cpu0_ITLB WRITE        ACCESS:          0 HIT:          0 MISS:          0 MSHR_MERGE:          0
cpu0->cpu0_ITLB TRANSLATION  ACCESS:          0 HIT:          0 MISS:          0 MSHR_MERGE:          0
cpu0->cpu0_ITLB PREFETCH REQUESTED:          0 ISSUED:          0 USEFUL:          0 USELESS:          0 LATE:          0
cpu0->cpu0_ITLB AVERAGE MISS LATENCY: 5 cycles
cpu0->cpu0_DTLB TOTAL        ACCESS:   28298554 HIT:   27553061 MISS:     745493 MSHR_MERGE:       2695
cpu0->cpu0_DTLB LOAD         ACCESS:   28298554 HIT:   27553061 MISS:     745493 MSHR_MERGE:       2695
cpu0->cpu0_DTLB RFO          ACCESS:          0 HIT:          0 MISS:          0 MSHR_MERGE:          0
cpu0->cpu0_DTLB PREFETCH     ACCESS:          0 HIT:          0 MISS:          0 MSHR_MERGE:          0
cpu0->cpu0_DTLB WRITE        ACCESS:          0 HIT:          0 MISS:          0 MSHR_MERGE:          0
cpu0->cpu0_DTLB TRANSLATION  ACCESS:          0 HIT:          0 MISS:          0 MSHR_MERGE:          0
cpu0->cpu0_DTLB PREFETCH REQUESTED:          0 ISSUED:          0 USEFUL:          0 USELESS:          0 LATE:          0
cpu0->cpu0_DTLB AVERAGE MISS LATENCY: 5.001 cycles
cpu0->LLC TOTAL        ACCESS:    2340853 HIT:    1781479 MISS:     559374 MSHR_MERGE:          0
cpu0->LLC LOAD         ACCESS:    1050004 HIT:     820192 MISS:     229812 MSHR_MERGE:          0
cpu0->LLC RFO          ACCESS:          1 HIT:          0 MISS:          1 MSHR_MERGE:          0
cpu0->LLC PREFETCH     ACCESS:    1028653 HIT:     699116 MISS:     329537 MSHR_MERGE:          0
cpu0->LLC WRITE        ACCESS:     262195 HIT:     262171 MISS:         24 MSHR_MERGE:          0
cpu0->LLC TRANSLATION  ACCESS:          0 HIT:          0 MISS:          0 MSHR_MERGE:          0
cpu0->LLC PREFETCH REQUESTED:          0 ISSUED:          0 USEFUL:          0 USELESS:          0 LATE:          0
cpu0->LLC AVERAGE MISS LATENCY: 113.9 cycles

DRAM Statistics

Channel 0 RQ ROW_BUFFER_HIT:        532
  ROW_BUFFER_MISS:     558759
  AVG DBUS CONGESTED CYCLE: 18.95
Channel 0 WQ ROW_BUFFER_HIT:        642
  ROW_BUFFER_MISS:       2637
  FULL:          0
Channel 0 REFRESHES ISSUED:       3008

[ROI Statistics]
[System Configuration]
num_cpus 1
cpu_freq 4000
fetch_width 4
decode_width 4
dispatch_width 4
execute_width 4
lq_width 2
sq_width 2
retire_width 4
scheduler_size 128
branch_mispredict_penalty 15
rob_size 352
lq_size 128
sq_size 72
ifetch_buffer_size 64
decode_buffer_size 32
dispatch_buffer_size 32
register_file_size 288
decode_latency 1
dispatch_latency 1
schedule_latency 1
execute_latency 1
page_size 4096
block_size 64
core_0_itlb_set 16
core_0_itlb_way 4
core_0_itlb_rq_size 16
core_0_itlb_wq_size 16
core_0_itlb_pq_size 0
core_0_itlb_mshr_size 8
core_0_itlb_hit_latency 1
core_0_itlb_fill_latency 1
core_0_itlb_max_tag_check 2
core_0_itlb_max_fill 2
core_0_dtlb_set 16
core_0_dtlb_way 4
core_0_dtlb_rq_size 16
core_0_dtlb_wq_size 16
core_0_dtlb_pq_size 0
core_0_dtlb_mshr_size 8
core_0_dtlb_hit_latency 1
core_0_dtlb_fill_latency 1
core_0_dtlb_max_tag_check 2
core_0_dtlb_max_fill 2
core_0_stlb_set 128
core_0_stlb_way 12
core_0_stlb_rq_size 32
core_0_stlb_wq_size 32
core_0_stlb_pq_size 0
core_0_stlb_mshr_size 16
core_0_stlb_hit_latency 4
core_0_stlb_fill_latency 4
core_0_stlb_max_tag_check 1
core_0_stlb_max_fill 1
core_0_l1i_set 64
core_0_l1i_way 8
core_0_l1i_rq_size 64
core_0_l1i_wq_size 64
core_0_l1i_pq_size 32
core_0_l1i_mshr_size 8
core_0_l1i_hit_latency 1
core_0_l1i_fill_latency 1
core_0_l1i_max_tag_check 2
core_0_l1i_max_fill 2
core_0_l1d_set 64
core_0_l1d_way 8
core_0_l1d_rq_size 64
core_0_l1d_wq_size 64
core_0_l1d_pq_size 8
core_0_l1d_mshr_size 8
core_0_l1d_hit_latency 2
core_0_l1d_fill_latency 2
core_0_l1d_max_tag_check 2
core_0_l1d_max_fill 2
core_0_l2c_set 512
core_0_l2c_way 8
core_0_l2c_rq_size 32
core_0_l2c_wq_size 32
core_0_l2c_pq_size 16
core_0_l2c_mshr_size 16
core_0_l2c_hit_latency 4
core_0_l2c_fill_latency 4
core_0_l2c_max_tag_check 1
core_0_l2c_max_fill 1
llc_set 2048
llc_way 16
llc_rq_size 32
llc_wq_size 32
llc_pq_size 32
llc_mshr_size 32
llc_hit_latency 10
llc_fill_latency 10
llc_max_tag_check 1
llc_max_fill 1
dram_channels 1
dram_ranks 1
dram_bankgroups 8
dram_banks 4
dram_rows 16384
dram_columns 1024
dram_channel_width 8
dram_rq_size 64
dram_wq_size 64
dram_size 4294967296
core_0_itlb_prefetcher no
core_0_dtlb_prefetcher no
core_0_stlb_prefetcher no
core_0_l1i_prefetcher next_line
core_0_l1d_prefetcher next_line
core_0_l2c_prefetcher ip_stride
llc_prefetcher no
llc_replacement drrip

Core_0_instructions 50000001
Core_0_cycles 36091968
Core_0_IPC 1.38535
Core_0_branch_prediction_accuracy 99.9172
Core_0_branch_MPKI 0.0022
Core_0_average_ROB_occupancy_at_mispredict 319.791

Core_0_ITLB_total_access 9458256
Core_0_ITLB_total_hit 9458247
Core_0_ITLB_total_miss 9
Core_0_ITLB_total_MPKI 0.00018
Core_0_ITLB_total_miss_rate 9.5155e-07
Core_0_ITLB_demand_access 9458256
Core_0_ITLB_demand_hit 9458247
Core_0_ITLB_demand_miss 9
Core_0_ITLB_demand_MPKI 0.00018
Core_0_ITLB_demand_miss_rate 9.5155e-07
Core_0_ITLB_load_access 9458256
Core_0_ITLB_load_hit 9458247
Core_0_ITLB_load_miss 9
Core_0_ITLB_load_MPKI 0.00018
Core_0_ITLB_load_miss_rate 9.5155e-07
Core_0_ITLB_rfo_access 0
Core_0_ITLB_rfo_hit 0
Core_0_ITLB_rfo_miss 0
Core_0_ITLB_rfo_MPKI 0
Core_0_ITLB_rfo_miss_rate 0
Core_0_ITLB_prefetch_access 0
Core_0_ITLB_prefetch_hit 0
Core_0_ITLB_prefetch_miss 0
Core_0_ITLB_prefetch_MPKI 0
Core_0_ITLB_prefetch_miss_rate 0
Core_0_ITLB_writeback_access 0
Core_0_ITLB_writeback_hit 0
Core_0_ITLB_writeback_miss 0
Core_0_ITLB_writeback_MPKI 0
Core_0_ITLB_writeback_miss_rate 0
Core_0_ITLB_prefetch_requested 0
Core_0_ITLB_prefetch_issued 0
Core_0_ITLB_prefetch_useful 0
Core_0_ITLB_prefetch_useless 0
Core_0_ITLB_prefetch_late 0
Core_0_ITLB_prefetch_accuracy 0
Core_0_ITLB_prefetch_coverage 0

Core_0_DTLB_total_access 28298554
Core_0_DTLB_total_hit 27553061
Core_0_DTLB_total_miss 745493
Core_0_DTLB_total_MPKI 14.9099
Core_0_DTLB_total_miss_rate 0.0263439
Core_0_DTLB_demand_access 28298554
Core_0_DTLB_demand_hit 27553061
Core_0_DTLB_demand_miss 745493
Core_0_DTLB_demand_MPKI 14.9099
Core_0_DTLB_demand_miss_rate 0.0263439
Core_0_DTLB_load_access 28298554
Core_0_DTLB_load_hit 27553061
Core_0_DTLB_load_miss 745493
Core_0_DTLB_load_MPKI 14.9099
Core_0_DTLB_load_miss_rate 0.0263439
Core_0_DTLB_rfo_access 0
Core_0_DTLB_rfo_hit 0
Core_0_DTLB_rfo_miss 0
Core_0_DTLB_rfo_MPKI 0
Core_0_DTLB_rfo_miss_rate 0
Core_0_DTLB_prefetch_access 0
Core_0_DTLB_prefetch_hit 0
Core_0_DTLB_prefetch_miss 0
Core_0_DTLB_prefetch_MPKI 0
Core_0_DTLB_prefetch_miss_rate 0
Core_0_DTLB_writeback_access 0
Core_0_DTLB_writeback_hit 0
Core_0_DTLB_writeback_miss 0
Core_0_DTLB_writeback_MPKI 0
Core_0_DTLB_writeback_miss_rate 0
Core_0_DTLB_prefetch_requested 0
Core_0_DTLB_prefetch_issued 0
Core_0_DTLB_prefetch_useful 0
Core_0_DTLB_prefetch_useless 0
Core_0_DTLB_prefetch_late 0
Core_0_DTLB_prefetch_accuracy 0
Core_0_DTLB_prefetch_coverage 0

Core_0_STLB_total_access 742800
Core_0_STLB_total_hit 742800
Core_0_STLB_total_miss 0
Core_0_STLB_total_MPKI 0
Core_0_STLB_total_miss_rate 0
Core_0_STLB_demand_access 742800
Core_0_STLB_demand_hit 742800
Core_0_STLB_demand_miss 0
Core_0_STLB_demand_MPKI 0
Core_0_STLB_demand_miss_rate 0
Core_0_STLB_load_access 742800
Core_0_STLB_load_hit 742800
Core_0_STLB_load_miss 0
Core_0_STLB_load_MPKI 0
Core_0_STLB_load_miss_rate 0
Core_0_STLB_rfo_access 0
Core_0_STLB_rfo_hit 0
Core_0_STLB_rfo_miss 0
Core_0_STLB_rfo_MPKI 0
Core_0_STLB_rfo_miss_rate 0
Core_0_STLB_prefetch_access 0
Core_0_STLB_prefetch_hit 0
Core_0_STLB_prefetch_miss 0
Core_0_STLB_prefetch_MPKI 0
Core_0_STLB_prefetch_miss_rate 0
Core_0_STLB_writeback_access 0
Core_0_STLB_writeback_hit 0
Core_0_STLB_writeback_miss 0
Core_0_STLB_writeback_MPKI 0
Core_0_STLB_writeback_miss_rate 0
Core_0_STLB_prefetch_requested 0
Core_0_STLB_prefetch_issued 0
Core_0_STLB_prefetch_useful 0
Core_0_STLB_prefetch_useless 0
Core_0_STLB_prefetch_late 0
Core_0_STLB_prefetch_accuracy 0
Core_0_STLB_prefetch_coverage 0

Core_0_L1I_total_access 9856418
Core_0_L1I_total_hit 9856101
Core_0_L1I_total_miss 317
Core_0_L1I_total_MPKI 0.00634
Core_0_L1I_total_miss_rate 3.21618e-05
Core_0_L1I_demand_access 9856418
Core_0_L1I_demand_hit 9856101
Core_0_L1I_demand_miss 317
Core_0_L1I_demand_MPKI 0.00634
Core_0_L1I_demand_miss_rate 3.21618e-05
Core_0_L1I_load_access 9856418
Core_0_L1I_load_hit 9856101
Core_0_L1I_load_miss 317
Core_0_L1I_load_MPKI 0.00634
Core_0_L1I_load_miss_rate 3.21618e-05
Core_0_L1I_rfo_access 0
Core_0_L1I_rfo_hit 0
Core_0_L1I_rfo_miss 0
Core_0_L1I_rfo_MPKI 0
Core_0_L1I_rfo_miss_rate 0
Core_0_L1I_prefetch_access 0
Core_0_L1I_prefetch_hit 0
Core_0_L1I_prefetch_miss 0
Core_0_L1I_prefetch_MPKI 0
Core_0_L1I_prefetch_miss_rate 0
Core_0_L1I_writeback_access 0
Core_0_L1I_writeback_hit 0
Core_0_L1I_writeback_miss 0
Core_0_L1I_writeback_MPKI 0
Core_0_L1I_writeback_miss_rate 0
Core_0_L1I_prefetch_requested 0
Core_0_L1I_prefetch_issued 0
Core_0_L1I_prefetch_useful 0
Core_0_L1I_prefetch_useless 0
Core_0_L1I_prefetch_late 0
Core_0_L1I_prefetch_accuracy 0
Core_0_L1I_prefetch_coverage 0

Core_0_L1D_total_access 31512695
Core_0_L1D_total_hit 28322433
Core_0_L1D_total_miss 3190262
Core_0_L1D_total_MPKI 63.8052
Core_0_L1D_total_miss_rate 0.101237
Core_0_L1D_demand_access 20216631
Core_0_L1D_demand_hit 18306690
Core_0_L1D_demand_miss 1909941
Core_0_L1D_demand_MPKI 38.1988
Core_0_L1D_demand_miss_rate 0.0944738
Core_0_L1D_load_access 20216631
Core_0_L1D_load_hit 18306690
Core_0_L1D_load_miss 1909941
Core_0_L1D_load_MPKI 38.1988
Core_0_L1D_load_miss_rate 0.0944738
Core_0_L1D_rfo_access 0
Core_0_L1D_rfo_hit 0
Core_0_L1D_rfo_miss 0
Core_0_L1D_rfo_MPKI 0
Core_0_L1D_rfo_miss_rate 0
Core_0_L1D_prefetch_access 9652047
Core_0_L1D_prefetch_hit 8371765
Core_0_L1D_prefetch_miss 1280282
Core_0_L1D_prefetch_MPKI 25.6056
Core_0_L1D_prefetch_miss_rate 0.132644
Core_0_L1D_writeback_access 1644017
Core_0_L1D_writeback_hit 1643978
Core_0_L1D_writeback_miss 39
Core_0_L1D_writeback_MPKI 0.00078
Core_0_L1D_writeback_miss_rate 2.37224e-05
Core_0_L1D_prefetch_requested 20250355
Core_0_L1D_prefetch_issued 9652048
Core_0_L1D_prefetch_useful 253799
Core_0_L1D_prefetch_useless 953407
Core_0_L1D_prefetch_late 893
Core_0_L1D_prefetch_accuracy 0.0262948
Core_0_L1D_prefetch_coverage 0.117296

Core_0_L2C_total_access 3641335
Core_0_L2C_total_hit 1561243
Core_0_L2C_total_miss 2080092
Core_0_L2C_total_MPKI 41.6018
Core_0_L2C_total_miss_rate 0.571244
Core_0_L2C_demand_access 1736476
Core_0_L2C_demand_hit 686471
Core_0_L2C_demand_miss 1050005
Core_0_L2C_demand_MPKI 21.0001
Core_0_L2C_demand_miss_rate 0.604676
Core_0_L2C_load_access 1736439
Core_0_L2C_load_hit 686435
Core_0_L2C_load_miss 1050004
Core_0_L2C_load_MPKI 21.0001
Core_0_L2C_load_miss_rate 0.604688
Core_0_L2C_rfo_access 37
Core_0_L2C_rfo_hit 36
Core_0_L2C_rfo_miss 1
Core_0_L2C_rfo_MPKI 2e-05
Core_0_L2C_rfo_miss_rate 0.027027
Core_0_L2C_prefetch_access 1488744
Core_0_L2C_prefetch_hit 458668
Core_0_L2C_prefetch_miss 1030076
Core_0_L2C_prefetch_MPKI 20.6015
Core_0_L2C_prefetch_miss_rate 0.691909
Core_0_L2C_writeback_access 416115
Core_0_L2C_writeback_hit 416104
Core_0_L2C_writeback_miss 11
Core_0_L2C_writeback_MPKI 0.00022
Core_0_L2C_writeback_miss_rate 2.6435e-05
Core_0_L2C_prefetch_requested 281490
Core_0_L2C_prefetch_issued 281490
Core_0_L2C_prefetch_useful 50880
Core_0_L2C_prefetch_useless 93231
Core_0_L2C_prefetch_late 0
Core_0_L2C_prefetch_accuracy 0.180752
Core_0_L2C_prefetch_coverage 0.0462174

Core_0_LLC_total_access 2340853
Core_0_LLC_total_hit 1781479
Core_0_LLC_total_miss 559374
Core_0_LLC_total_MPKI 11.1875
Core_0_LLC_total_miss_rate 0.238962
Core_0_LLC_demand_access 1050005
Core_0_LLC_demand_hit 820192
Core_0_LLC_demand_miss 229813
Core_0_LLC_demand_MPKI 4.59626
Core_0_LLC_demand_miss_rate 0.218868
Core_0_LLC_load_access 1050004
Core_0_LLC_load_hit 820192
Core_0_LLC_load_miss 229812
Core_0_LLC_load_MPKI 4.59624
Core_0_LLC_load_miss_rate 0.218868
Core_0_LLC_rfo_access 1
Core_0_LLC_rfo_hit 0
Core_0_LLC_rfo_miss 1
Core_0_LLC_rfo_MPKI 2e-05
Core_0_LLC_rfo_miss_rate 1
Core_0_LLC_prefetch_access 1028653
Core_0_LLC_prefetch_hit 699116
Core_0_LLC_prefetch_miss 329537
Core_0_LLC_prefetch_MPKI 6.59074
Core_0_LLC_prefetch_miss_rate 0.320358
Core_0_LLC_writeback_access 262195
Core_0_LLC_writeback_hit 262171
Core_0_LLC_writeback_miss 24
Core_0_LLC_writeback_MPKI 0.00048
Core_0_LLC_writeback_miss_rate 9.15349e-05
Core_0_LLC_prefetch_requested 0
Core_0_LLC_prefetch_issued 0
Core_0_LLC_prefetch_useful 0
Core_0_LLC_prefetch_useless 0
Core_0_LLC_prefetch_late 0
Core_0_LLC_prefetch_accuracy 0
Core_0_LLC_prefetch_coverage 0

[DRAM Statistics]
Channel_0_RQ_row_buffer_hit 532
Channel_0_RQ_row_buffer_miss 558759
Channel_0_WQ_row_buffer_hit 642
Channel_0_WQ_row_buffer_miss 2637
Channel_0_WQ_full 0
Channel_0_dbus_congested 1195327
DRAM_total_RQ_row_buffer_hit 532
DRAM_total_RQ_row_buffer_miss 558759
DRAM_total_WQ_row_buffer_hit 642
DRAM_total_WQ_row_buffer_miss 2637
DRAM_total_WQ_full 0
DRAM_total_dbus_congested 1195327
DRAM_avg_congested_cycle 18.9476

======STLB miss causes ========
Core_0_STLB_miss_cause_breakdown
Core_0_STLB_cause_Demand_Data_miss 0
Core_0_STLB_cause_Demand_Data_miss_rate 0
Core_0_STLB_cause_Demand_Instruction_miss 0
Core_0_STLB_cause_Demand_Instruction_miss_rate 0
Core_0_STLB_cause_L1D_Prefetch_miss 0
Core_0_STLB_cause_L1D_Prefetch_miss_rate 0
Core_0_STLB_cause_L1I_Prefetch_miss 0
Core_0_STLB_cause_L1I_Prefetch_miss_rate 0
Core_0_STLB_cause_Other_miss 0
Core_0_STLB_cause_Other_miss_rate 0
Core_0_STLB_Demand_miss 0
Core_0_STLB_Demand_miss_rate 0
Core_0_STLB_L1D_Prefetch_miss 0
Core_0_STLB_L1D_Prefetch_miss_rate 0
Core_0_STLB_Other_miss 0
Core_0_STLB_Other_miss_rate 0
