[VMEM] WARNING: physical memory size is smaller than virtual memory size.

*** ChampSim Multicore Out-of-Order Simulator ***
Warmup Instructions: 20000000
Simulation Instructions: 50000000
Number of CPUs: 1
Page size: 4096
Core 0: /data0/tzh/champsim_traces/SPEC06/400.perlbench-41B.champsimtrace.xz
Off-chip DRAM Size: 16 GiB Channels: 1 Width: 64-bit Data Rate: 3205 MT/s
Warmup halting CPU 0 at instruction 20000005 cycle 4965337 for remainder of phase
Warmup finished CPU 0 instructions: 20000005 cycles: 4965337 cumulative IPC: 4.028 (Simulation time: 00 hr 01 min 14 sec)
Warmup complete CPU 0 instructions: 20000005 cycles: 4965337 cumulative IPC: 4.028 (Simulation time: 00 hr 01 min 14 sec)
Simulation finished CPU 0 instructions: 50000000 cycles: 24598426 cumulative IPC: 2.033 (Simulation time: 00 hr 05 min 12 sec)
Simulation complete CPU 0 instructions: 50000000 cycles: 24598426 cumulative IPC: 2.033 (Simulation time: 00 hr 05 min 12 sec)

ChampSim completed all CPUs

=== Simulation ===
CPU 0 runs /data0/tzh/champsim_traces/SPEC06/400.perlbench-41B.champsimtrace.xz

Region of Interest Statistics

CPU 0 cumulative IPC: 2.033 instructions: 50000000 cycles: 24598426
CPU 0 Branch Prediction Accuracy: 99.05% MPKI: 1.946 Average ROB Occupancy at Mispredict: 173.7
Branch type MPKI
BRANCH_DIRECT_JUMP: 0.00256
BRANCH_INDIRECT: 0.2763
BRANCH_CONDITIONAL: 1.65
BRANCH_DIRECT_CALL: 0.0073
BRANCH_INDIRECT_CALL: 0.00762
BRANCH_RETURN: 0.0019

cpu0->cpu0_STLB TOTAL        ACCESS:       6406 HIT:       6011 MISS:        395 MSHR_MERGE:          0
cpu0->cpu0_STLB LOAD         ACCESS:       6406 HIT:       6011 MISS:        395 MSHR_MERGE:          0
cpu0->cpu0_STLB RFO          ACCESS:          0 HIT:          0 MISS:          0 MSHR_MERGE:          0
cpu0->cpu0_STLB PREFETCH     ACCESS:          0 HIT:          0 MISS:          0 MSHR_MERGE:          0
cpu0->cpu0_STLB WRITE        ACCESS:          0 HIT:          0 MISS:          0 MSHR_MERGE:          0
cpu0->cpu0_STLB TRANSLATION  ACCESS:          0 HIT:          0 MISS:          0 MSHR_MERGE:          0
cpu0->cpu0_STLB PREFETCH REQUESTED:          0 ISSUED:          0 USEFUL:          0 USELESS:          0 LATE:          0
cpu0->cpu0_STLB AVERAGE MISS LATENCY: 143.6 cycles
cpu0->cpu0_L2C TOTAL        ACCESS:      16154 HIT:       7950 MISS:       8204 MSHR_MERGE:          0
cpu0->cpu0_L2C LOAD         ACCESS:      14497 HIT:       6660 MISS:       7837 MSHR_MERGE:          0
cpu0->cpu0_L2C RFO          ACCESS:        409 HIT:        173 MISS:        236 MSHR_MERGE:          0
cpu0->cpu0_L2C PREFETCH     ACCESS:          0 HIT:          0 MISS:          0 MSHR_MERGE:          0
cpu0->cpu0_L2C WRITE        ACCESS:        960 HIT:        958 MISS:          2 MSHR_MERGE:          0
cpu0->cpu0_L2C TRANSLATION  ACCESS:        288 HIT:        159 MISS:        129 MSHR_MERGE:          0
cpu0->cpu0_L2C PREFETCH REQUESTED:          0 ISSUED:          0 USEFUL:          0 USELESS:          0 LATE:          0
cpu0->cpu0_L2C AVERAGE MISS LATENCY: 186.9 cycles
cpu0->cpu0_L1I TOTAL        ACCESS:    3573338 HIT:    3563788 MISS:       9550 MSHR_MERGE:       2863
cpu0->cpu0_L1I LOAD         ACCESS:    3573338 HIT:    3563788 MISS:       9550 MSHR_MERGE:       2863
cpu0->cpu0_L1I RFO          ACCESS:          0 HIT:          0 MISS:          0 MSHR_MERGE:          0
cpu0->cpu0_L1I PREFETCH     ACCESS:          0 HIT:          0 MISS:          0 MSHR_MERGE:          0
cpu0->cpu0_L1I WRITE        ACCESS:          0 HIT:          0 MISS:          0 MSHR_MERGE:          0
cpu0->cpu0_L1I TRANSLATION  ACCESS:          0 HIT:          0 MISS:          0 MSHR_MERGE:          0
cpu0->cpu0_L1I PREFETCH REQUESTED:          0 ISSUED:          0 USEFUL:          0 USELESS:          0 LATE:          0
cpu0->cpu0_L1I AVERAGE MISS LATENCY: 7.723 cycles
cpu0->cpu0_L1D TOTAL        ACCESS:   12896156 HIT:   12885758 MISS:      10398 MSHR_MERGE:       1891
cpu0->cpu0_L1D LOAD         ACCESS:    6168988 HIT:    6159883 MISS:       9105 MSHR_MERGE:       1295
cpu0->cpu0_L1D RFO          ACCESS:          0 HIT:          0 MISS:          0 MSHR_MERGE:          0
cpu0->cpu0_L1D PREFETCH     ACCESS:          0 HIT:          0 MISS:          0 MSHR_MERGE:          0
cpu0->cpu0_L1D WRITE        ACCESS:    6726376 HIT:    6725371 MISS:       1005 MSHR_MERGE:        596
cpu0->cpu0_L1D TRANSLATION  ACCESS:        792 HIT:        504 MISS:        288 MSHR_MERGE:          0
cpu0->cpu0_L1D PREFETCH REQUESTED:          0 ISSUED:          0 USEFUL:          0 USELESS:          0 LATE:          0
cpu0->cpu0_L1D AVERAGE MISS LATENCY: 188.7 cycles
cpu0->cpu0_ITLB TOTAL        ACCESS:    3124683 HIT:    3124675 MISS:          8 MSHR_MERGE:          6
cpu0->cpu0_ITLB LOAD         ACCESS:    3124683 HIT:    3124675 MISS:          8 MSHR_MERGE:          6
cpu0->cpu0_ITLB RFO          ACCESS:          0 HIT:          0 MISS:          0 MSHR_MERGE:          0
cpu0->cpu0_ITLB PREFETCH     ACCESS:          0 HIT:          0 MISS:          0 MSHR_MERGE:          0
cpu0->cpu0_ITLB WRITE        ACCESS:          0 HIT:          0 MISS:          0 MSHR_MERGE:          0
cpu0->cpu0_ITLB TRANSLATION  ACCESS:          0 HIT:          0 MISS:          0 MSHR_MERGE:          0
cpu0->cpu0_ITLB PREFETCH REQUESTED:          0 ISSUED:          0 USEFUL:          0 USELESS:          0 LATE:          0
cpu0->cpu0_ITLB AVERAGE MISS LATENCY: 23 cycles
cpu0->cpu0_DTLB TOTAL        ACCESS:   12054365 HIT:   12045690 MISS:       8675 MSHR_MERGE:       2271
cpu0->cpu0_DTLB LOAD         ACCESS:   12054365 HIT:   12045690 MISS:       8675 MSHR_MERGE:       2271
cpu0->cpu0_DTLB RFO          ACCESS:          0 HIT:          0 MISS:          0 MSHR_MERGE:          0
cpu0->cpu0_DTLB PREFETCH     ACCESS:          0 HIT:          0 MISS:          0 MSHR_MERGE:          0
cpu0->cpu0_DTLB WRITE        ACCESS:          0 HIT:          0 MISS:          0 MSHR_MERGE:          0
cpu0->cpu0_DTLB TRANSLATION  ACCESS:          0 HIT:          0 MISS:          0 MSHR_MERGE:          0
cpu0->cpu0_DTLB PREFETCH REQUESTED:          0 ISSUED:          0 USEFUL:          0 USELESS:          0 LATE:          0
cpu0->cpu0_DTLB AVERAGE MISS LATENCY: 13.91 cycles
cpu0->LLC TOTAL        ACCESS:       9589 HIT:       1567 MISS:       8022 MSHR_MERGE:          0
cpu0->LLC LOAD         ACCESS:       7837 HIT:        186 MISS:       7651 MSHR_MERGE:          0
cpu0->LLC RFO          ACCESS:        236 HIT:         30 MISS:        206 MSHR_MERGE:          0
cpu0->LLC PREFETCH     ACCESS:          0 HIT:          0 MISS:          0 MSHR_MERGE:          0
cpu0->LLC WRITE        ACCESS:       1387 HIT:       1253 MISS:        134 MSHR_MERGE:          0
cpu0->LLC TRANSLATION  ACCESS:        129 HIT:         98 MISS:         31 MSHR_MERGE:          0
cpu0->LLC PREFETCH REQUESTED:          0 ISSUED:          0 USEFUL:          0 USELESS:          0 LATE:          0
cpu0->LLC AVERAGE MISS LATENCY: 175 cycles

DRAM Statistics

Channel 0 RQ ROW_BUFFER_HIT:         38
  ROW_BUFFER_MISS:       7850
  AVG DBUS CONGESTED CYCLE: 20.46
Channel 0 WQ ROW_BUFFER_HIT:        498
  ROW_BUFFER_MISS:        910
  FULL:          0
Channel 0 REFRESHES ISSUED:       2050

[ROI Statistics]
[System Configuration]
num_cpus 1
cpu_freq 4000
fetch_width 6
decode_width 6
dispatch_width 6
execute_width 6
lq_width 2
sq_width 2
retire_width 6
scheduler_size 128
branch_mispredict_penalty 15
rob_size 352
lq_size 128
sq_size 72
ifetch_buffer_size 64
decode_buffer_size 32
dispatch_buffer_size 32
register_file_size 288
decode_latency 1
dispatch_latency 1
schedule_latency 1
execute_latency 1
page_size 4096
block_size 64
core_0_itlb_set 16
core_0_itlb_way 4
core_0_itlb_rq_size 16
core_0_itlb_wq_size 16
core_0_itlb_pq_size 0
core_0_itlb_mshr_size 8
core_0_itlb_hit_latency 1
core_0_itlb_fill_latency 1
core_0_itlb_max_tag_check 2
core_0_itlb_max_fill 2
core_0_dtlb_set 16
core_0_dtlb_way 4
core_0_dtlb_rq_size 16
core_0_dtlb_wq_size 16
core_0_dtlb_pq_size 0
core_0_dtlb_mshr_size 8
core_0_dtlb_hit_latency 1
core_0_dtlb_fill_latency 1
core_0_dtlb_max_tag_check 2
core_0_dtlb_max_fill 2
core_0_stlb_set 128
core_0_stlb_way 12
core_0_stlb_rq_size 32
core_0_stlb_wq_size 32
core_0_stlb_pq_size 0
core_0_stlb_mshr_size 16
core_0_stlb_hit_latency 4
core_0_stlb_fill_latency 4
core_0_stlb_max_tag_check 1
core_0_stlb_max_fill 1
core_0_l1i_set 64
core_0_l1i_way 8
core_0_l1i_rq_size 64
core_0_l1i_wq_size 64
core_0_l1i_pq_size 32
core_0_l1i_mshr_size 8
core_0_l1i_hit_latency 2
core_0_l1i_fill_latency 2
core_0_l1i_max_tag_check 2
core_0_l1i_max_fill 2
core_0_l1d_set 64
core_0_l1d_way 12
core_0_l1d_rq_size 64
core_0_l1d_wq_size 64
core_0_l1d_pq_size 8
core_0_l1d_mshr_size 16
core_0_l1d_hit_latency 2
core_0_l1d_fill_latency 3
core_0_l1d_max_tag_check 2
core_0_l1d_max_fill 2
core_0_l2c_set 1024
core_0_l2c_way 8
core_0_l2c_rq_size 32
core_0_l2c_wq_size 32
core_0_l2c_pq_size 16
core_0_l2c_mshr_size 32
core_0_l2c_hit_latency 5
core_0_l2c_fill_latency 5
core_0_l2c_max_tag_check 1
core_0_l2c_max_fill 1
llc_set 2048
llc_way 16
llc_rq_size 32
llc_wq_size 32
llc_pq_size 32
llc_mshr_size 64
llc_hit_latency 10
llc_fill_latency 10
llc_max_tag_check 1
llc_max_fill 1
dram_channels 1
dram_ranks 1
dram_bankgroups 8
dram_banks 4
dram_rows 65536
dram_columns 1024
dram_channel_width 8
dram_rq_size 64
dram_wq_size 64
dram_size 17179869184
core_0_itlb_prefetcher no
core_0_dtlb_prefetcher no
core_0_stlb_prefetcher no
core_0_l1i_prefetcher no
core_0_l1d_prefetcher no
core_0_l2c_prefetcher no
llc_prefetcher no
llc_replacement drrip

Core_0_instructions 50000000
Core_0_cycles 24598426
Core_0_IPC 2.03265
Core_0_branch_prediction_accuracy 99.0536
Core_0_branch_MPKI 1.94556
Core_0_average_ROB_occupancy_at_mispredict 173.737

Core_0_ITLB_total_access 3124683
Core_0_ITLB_total_hit 3124675
Core_0_ITLB_total_miss 8
Core_0_ITLB_total_MPKI 0.00016
Core_0_ITLB_total_miss_rate 2.56026e-06
Core_0_ITLB_demand_access 3124683
Core_0_ITLB_demand_hit 3124675
Core_0_ITLB_demand_miss 8
Core_0_ITLB_demand_MPKI 0.00016
Core_0_ITLB_demand_miss_rate 2.56026e-06
Core_0_ITLB_load_access 3124683
Core_0_ITLB_load_hit 3124675
Core_0_ITLB_load_miss 8
Core_0_ITLB_load_MPKI 0.00016
Core_0_ITLB_load_miss_rate 2.56026e-06
Core_0_ITLB_rfo_access 0
Core_0_ITLB_rfo_hit 0
Core_0_ITLB_rfo_miss 0
Core_0_ITLB_rfo_MPKI 0
Core_0_ITLB_rfo_miss_rate 0
Core_0_ITLB_prefetch_access 0
Core_0_ITLB_prefetch_hit 0
Core_0_ITLB_prefetch_miss 0
Core_0_ITLB_prefetch_MPKI 0
Core_0_ITLB_prefetch_miss_rate 0
Core_0_ITLB_writeback_access 0
Core_0_ITLB_writeback_hit 0
Core_0_ITLB_writeback_miss 0
Core_0_ITLB_writeback_MPKI 0
Core_0_ITLB_writeback_miss_rate 0
Core_0_ITLB_prefetch_requested 0
Core_0_ITLB_prefetch_issued 0
Core_0_ITLB_prefetch_useful 0
Core_0_ITLB_prefetch_useless 0
Core_0_ITLB_prefetch_late 0
Core_0_ITLB_prefetch_accuracy 0
Core_0_ITLB_prefetch_coverage 0

Core_0_DTLB_total_access 12054365
Core_0_DTLB_total_hit 12045690
Core_0_DTLB_total_miss 8675
Core_0_DTLB_total_MPKI 0.1735
Core_0_DTLB_total_miss_rate 0.000719656
Core_0_DTLB_demand_access 12054365
Core_0_DTLB_demand_hit 12045690
Core_0_DTLB_demand_miss 8675
Core_0_DTLB_demand_MPKI 0.1735
Core_0_DTLB_demand_miss_rate 0.000719656
Core_0_DTLB_load_access 12054365
Core_0_DTLB_load_hit 12045690
Core_0_DTLB_load_miss 8675
Core_0_DTLB_load_MPKI 0.1735
Core_0_DTLB_load_miss_rate 0.000719656
Core_0_DTLB_rfo_access 0
Core_0_DTLB_rfo_hit 0
Core_0_DTLB_rfo_miss 0
Core_0_DTLB_rfo_MPKI 0
Core_0_DTLB_rfo_miss_rate 0
Core_0_DTLB_prefetch_access 0
Core_0_DTLB_prefetch_hit 0
Core_0_DTLB_prefetch_miss 0
Core_0_DTLB_prefetch_MPKI 0
Core_0_DTLB_prefetch_miss_rate 0
Core_0_DTLB_writeback_access 0
Core_0_DTLB_writeback_hit 0
Core_0_DTLB_writeback_miss 0
Core_0_DTLB_writeback_MPKI 0
Core_0_DTLB_writeback_miss_rate 0
Core_0_DTLB_prefetch_requested 0
Core_0_DTLB_prefetch_issued 0
Core_0_DTLB_prefetch_useful 0
Core_0_DTLB_prefetch_useless 0
Core_0_DTLB_prefetch_late 0
Core_0_DTLB_prefetch_accuracy 0
Core_0_DTLB_prefetch_coverage 0

Core_0_STLB_total_access 6406
Core_0_STLB_total_hit 6011
Core_0_STLB_total_miss 395
Core_0_STLB_total_MPKI 0.0079
Core_0_STLB_total_miss_rate 0.0616609
Core_0_STLB_demand_access 6406
Core_0_STLB_demand_hit 6011
Core_0_STLB_demand_miss 395
Core_0_STLB_demand_MPKI 0.0079
Core_0_STLB_demand_miss_rate 0.0616609
Core_0_STLB_load_access 6406
Core_0_STLB_load_hit 6011
Core_0_STLB_load_miss 395
Core_0_STLB_load_MPKI 0.0079
Core_0_STLB_load_miss_rate 0.0616609
Core_0_STLB_rfo_access 0
Core_0_STLB_rfo_hit 0
Core_0_STLB_rfo_miss 0
Core_0_STLB_rfo_MPKI 0
Core_0_STLB_rfo_miss_rate 0
Core_0_STLB_prefetch_access 0
Core_0_STLB_prefetch_hit 0
Core_0_STLB_prefetch_miss 0
Core_0_STLB_prefetch_MPKI 0
Core_0_STLB_prefetch_miss_rate 0
Core_0_STLB_writeback_access 0
Core_0_STLB_writeback_hit 0
Core_0_STLB_writeback_miss 0
Core_0_STLB_writeback_MPKI 0
Core_0_STLB_writeback_miss_rate 0
Core_0_STLB_prefetch_requested 0
Core_0_STLB_prefetch_issued 0
Core_0_STLB_prefetch_useful 0
Core_0_STLB_prefetch_useless 0
Core_0_STLB_prefetch_late 0
Core_0_STLB_prefetch_accuracy 0
Core_0_STLB_prefetch_coverage 0

Core_0_L1I_total_access 3573338
Core_0_L1I_total_hit 3563788
Core_0_L1I_total_miss 9550
Core_0_L1I_total_MPKI 0.191
Core_0_L1I_total_miss_rate 0.00267257
Core_0_L1I_demand_access 3573338
Core_0_L1I_demand_hit 3563788
Core_0_L1I_demand_miss 9550
Core_0_L1I_demand_MPKI 0.191
Core_0_L1I_demand_miss_rate 0.00267257
Core_0_L1I_load_access 3573338
Core_0_L1I_load_hit 3563788
Core_0_L1I_load_miss 9550
Core_0_L1I_load_MPKI 0.191
Core_0_L1I_load_miss_rate 0.00267257
Core_0_L1I_rfo_access 0
Core_0_L1I_rfo_hit 0
Core_0_L1I_rfo_miss 0
Core_0_L1I_rfo_MPKI 0
Core_0_L1I_rfo_miss_rate 0
Core_0_L1I_prefetch_access 0
Core_0_L1I_prefetch_hit 0
Core_0_L1I_prefetch_miss 0
Core_0_L1I_prefetch_MPKI 0
Core_0_L1I_prefetch_miss_rate 0
Core_0_L1I_writeback_access 0
Core_0_L1I_writeback_hit 0
Core_0_L1I_writeback_miss 0
Core_0_L1I_writeback_MPKI 0
Core_0_L1I_writeback_miss_rate 0
Core_0_L1I_prefetch_requested 0
Core_0_L1I_prefetch_issued 0
Core_0_L1I_prefetch_useful 0
Core_0_L1I_prefetch_useless 0
Core_0_L1I_prefetch_late 0
Core_0_L1I_prefetch_accuracy 0
Core_0_L1I_prefetch_coverage 0

Core_0_L1D_total_access 12895364
Core_0_L1D_total_hit 12885254
Core_0_L1D_total_miss 10110
Core_0_L1D_total_MPKI 0.2022
Core_0_L1D_total_miss_rate 0.000784003
Core_0_L1D_demand_access 6168988
Core_0_L1D_demand_hit 6159883
Core_0_L1D_demand_miss 9105
Core_0_L1D_demand_MPKI 0.1821
Core_0_L1D_demand_miss_rate 0.00147593
Core_0_L1D_load_access 6168988
Core_0_L1D_load_hit 6159883
Core_0_L1D_load_miss 9105
Core_0_L1D_load_MPKI 0.1821
Core_0_L1D_load_miss_rate 0.00147593
Core_0_L1D_rfo_access 0
Core_0_L1D_rfo_hit 0
Core_0_L1D_rfo_miss 0
Core_0_L1D_rfo_MPKI 0
Core_0_L1D_rfo_miss_rate 0
Core_0_L1D_prefetch_access 0
Core_0_L1D_prefetch_hit 0
Core_0_L1D_prefetch_miss 0
Core_0_L1D_prefetch_MPKI 0
Core_0_L1D_prefetch_miss_rate 0
Core_0_L1D_writeback_access 6726376
Core_0_L1D_writeback_hit 6725371
Core_0_L1D_writeback_miss 1005
Core_0_L1D_writeback_MPKI 0.0201
Core_0_L1D_writeback_miss_rate 0.000149412
Core_0_L1D_prefetch_requested 0
Core_0_L1D_prefetch_issued 0
Core_0_L1D_prefetch_useful 0
Core_0_L1D_prefetch_useless 0
Core_0_L1D_prefetch_late 0
Core_0_L1D_prefetch_accuracy 0
Core_0_L1D_prefetch_coverage 0

Core_0_L2C_total_access 15866
Core_0_L2C_total_hit 7791
Core_0_L2C_total_miss 8075
Core_0_L2C_total_MPKI 0.1615
Core_0_L2C_total_miss_rate 0.50895
Core_0_L2C_demand_access 14906
Core_0_L2C_demand_hit 6833
Core_0_L2C_demand_miss 8073
Core_0_L2C_demand_MPKI 0.16146
Core_0_L2C_demand_miss_rate 0.541594
Core_0_L2C_load_access 14497
Core_0_L2C_load_hit 6660
Core_0_L2C_load_miss 7837
Core_0_L2C_load_MPKI 0.15674
Core_0_L2C_load_miss_rate 0.540595
Core_0_L2C_rfo_access 409
Core_0_L2C_rfo_hit 173
Core_0_L2C_rfo_miss 236
Core_0_L2C_rfo_MPKI 0.00472
Core_0_L2C_rfo_miss_rate 0.577017
Core_0_L2C_prefetch_access 0
Core_0_L2C_prefetch_hit 0
Core_0_L2C_prefetch_miss 0
Core_0_L2C_prefetch_MPKI 0
Core_0_L2C_prefetch_miss_rate 0
Core_0_L2C_writeback_access 960
Core_0_L2C_writeback_hit 958
Core_0_L2C_writeback_miss 2
Core_0_L2C_writeback_MPKI 4e-05
Core_0_L2C_writeback_miss_rate 0.00208333
Core_0_L2C_prefetch_requested 0
Core_0_L2C_prefetch_issued 0
Core_0_L2C_prefetch_useful 0
Core_0_L2C_prefetch_useless 0
Core_0_L2C_prefetch_late 0
Core_0_L2C_prefetch_accuracy 0
Core_0_L2C_prefetch_coverage 0

Core_0_LLC_total_access 9460
Core_0_LLC_total_hit 1469
Core_0_LLC_total_miss 7991
Core_0_LLC_total_MPKI 0.15982
Core_0_LLC_total_miss_rate 0.844715
Core_0_LLC_demand_access 8073
Core_0_LLC_demand_hit 216
Core_0_LLC_demand_miss 7857
Core_0_LLC_demand_MPKI 0.15714
Core_0_LLC_demand_miss_rate 0.973244
Core_0_LLC_load_access 7837
Core_0_LLC_load_hit 186
Core_0_LLC_load_miss 7651
Core_0_LLC_load_MPKI 0.15302
Core_0_LLC_load_miss_rate 0.976266
Core_0_LLC_rfo_access 236
Core_0_LLC_rfo_hit 30
Core_0_LLC_rfo_miss 206
Core_0_LLC_rfo_MPKI 0.00412
Core_0_LLC_rfo_miss_rate 0.872881
Core_0_LLC_prefetch_access 0
Core_0_LLC_prefetch_hit 0
Core_0_LLC_prefetch_miss 0
Core_0_LLC_prefetch_MPKI 0
Core_0_LLC_prefetch_miss_rate 0
Core_0_LLC_writeback_access 1387
Core_0_LLC_writeback_hit 1253
Core_0_LLC_writeback_miss 134
Core_0_LLC_writeback_MPKI 0.00268
Core_0_LLC_writeback_miss_rate 0.0966114
Core_0_LLC_prefetch_requested 0
Core_0_LLC_prefetch_issued 0
Core_0_LLC_prefetch_useful 0
Core_0_LLC_prefetch_useless 0
Core_0_LLC_prefetch_late 0
Core_0_LLC_prefetch_accuracy 0
Core_0_LLC_prefetch_coverage 0

[DRAM Statistics]
Channel_0_RQ_row_buffer_hit 38
Channel_0_RQ_row_buffer_miss 7850
Channel_0_WQ_row_buffer_hit 498
Channel_0_WQ_row_buffer_miss 910
Channel_0_WQ_full 0
Channel_0_dbus_congested 33444
DRAM_total_RQ_row_buffer_hit 38
DRAM_total_RQ_row_buffer_miss 7850
DRAM_total_WQ_row_buffer_hit 498
DRAM_total_WQ_row_buffer_miss 910
DRAM_total_WQ_full 0
DRAM_total_dbus_congested 33444
DRAM_avg_congested_cycle 20.458

======STLB miss causes ========
Core_0_STLB_miss_cause_breakdown
Core_0_STLB_cause_Demand_Data_miss 394
Core_0_STLB_cause_Demand_Data_miss_rate 0.0615048
Core_0_STLB_cause_Demand_Instruction_miss 1
Core_0_STLB_cause_Demand_Instruction_miss_rate 0.000156104
Core_0_STLB_cause_L1D_Prefetch_miss 0
Core_0_STLB_cause_L1D_Prefetch_miss_rate 0
Core_0_STLB_cause_L1I_Prefetch_miss 0
Core_0_STLB_cause_L1I_Prefetch_miss_rate 0
Core_0_STLB_cause_Other_miss 0
Core_0_STLB_cause_Other_miss_rate 0
Core_0_STLB_Demand_miss 395
Core_0_STLB_Demand_miss_rate 0.0616609
Core_0_STLB_L1D_Prefetch_miss 0
Core_0_STLB_L1D_Prefetch_miss_rate 0
Core_0_STLB_Other_miss 0
Core_0_STLB_Other_miss_rate 0
