[VMEM] WARNING: physical memory size is smaller than virtual memory size.

*** ChampSim Multicore Out-of-Order Simulator ***
Warmup Instructions: 20000000
Simulation Instructions: 50000000
Number of CPUs: 1
Page size: 4096
Core 0: /data0/tzh/champsim_traces/SPEC06/429.mcf-217B.champsimtrace.xz
Off-chip DRAM Size: 16 GiB Channels: 1 Width: 64-bit Data Rate: 3205 MT/s
Warmup halting CPU 0 at instruction 20000001 cycle 6751591 for remainder of phase
Warmup finished CPU 0 instructions: 20000001 cycles: 6751591 cumulative IPC: 2.962 (Simulation time: 00 hr 01 min 30 sec)
Warmup complete CPU 0 instructions: 20000001 cycles: 6751591 cumulative IPC: 2.962 (Simulation time: 00 hr 01 min 30 sec)
Simulation CPU 0 warning: IPC 0.046238 < 0.05
Simulation CPU 0 warning: IPC 0.043887 < 0.05
Simulation CPU 0 warning: IPC 0.043513 < 0.05
Simulation CPU 0 warning: IPC 0.049442 < 0.05
Simulation CPU 0 warning: IPC 0.049872 < 0.05
Simulation CPU 0 warning: IPC 0.041623 < 0.05
Simulation CPU 0 warning: IPC 0.048753 < 0.05
Simulation CPU 0 warning: IPC 0.047712 < 0.05
Simulation finished CPU 0 instructions: 50000000 cycles: 228111797 cumulative IPC: 0.2192 (Simulation time: 00 hr 26 min 39 sec)
Simulation complete CPU 0 instructions: 50000000 cycles: 228111797 cumulative IPC: 0.2192 (Simulation time: 00 hr 26 min 39 sec)

ChampSim completed all CPUs

=== Simulation ===
CPU 0 runs /data0/tzh/champsim_traces/SPEC06/429.mcf-217B.champsimtrace.xz

Region of Interest Statistics

CPU 0 cumulative IPC: 0.2192 instructions: 50000000 cycles: 228111797
CPU 0 Branch Prediction Accuracy: 98.95% MPKI: 1.194 Average ROB Occupancy at Mispredict: 118.4
Branch type MPKI
BRANCH_DIRECT_JUMP: 0
BRANCH_INDIRECT: 0
BRANCH_CONDITIONAL: 1.194
BRANCH_DIRECT_CALL: 0
BRANCH_INDIRECT_CALL: 0
BRANCH_RETURN: 0

cpu0->cpu0_STLB TOTAL        ACCESS:     104962 HIT:      59353 MISS:      45609 MSHR_MERGE:          0
cpu0->cpu0_STLB LOAD         ACCESS:     104962 HIT:      59353 MISS:      45609 MSHR_MERGE:          0
cpu0->cpu0_STLB RFO          ACCESS:          0 HIT:          0 MISS:          0 MSHR_MERGE:          0
cpu0->cpu0_STLB PREFETCH     ACCESS:          0 HIT:          0 MISS:          0 MSHR_MERGE:          0
cpu0->cpu0_STLB WRITE        ACCESS:          0 HIT:          0 MISS:          0 MSHR_MERGE:          0
cpu0->cpu0_STLB TRANSLATION  ACCESS:          0 HIT:          0 MISS:          0 MSHR_MERGE:          0
cpu0->cpu0_STLB PREFETCH REQUESTED:          0 ISSUED:          0 USEFUL:          0 USELESS:          0 LATE:          0
cpu0->cpu0_STLB AVERAGE MISS LATENCY: 53.29 cycles
cpu0->cpu0_L2C TOTAL        ACCESS:    2693276 HIT:     109658 MISS:    2583618 MSHR_MERGE:          0
cpu0->cpu0_L2C LOAD         ACCESS:    2592690 HIT:      16640 MISS:    2576050 MSHR_MERGE:          0
cpu0->cpu0_L2C RFO          ACCESS:       1161 HIT:       1010 MISS:        151 MSHR_MERGE:          0
cpu0->cpu0_L2C PREFETCH     ACCESS:          0 HIT:          0 MISS:          0 MSHR_MERGE:          0
cpu0->cpu0_L2C WRITE        ACCESS:      91885 HIT:      91372 MISS:        513 MSHR_MERGE:          0
cpu0->cpu0_L2C TRANSLATION  ACCESS:       7540 HIT:        636 MISS:       6904 MSHR_MERGE:          0
cpu0->cpu0_L2C PREFETCH REQUESTED:          0 ISSUED:          0 USEFUL:          0 USELESS:          0 LATE:          0
cpu0->cpu0_L2C AVERAGE MISS LATENCY: 162.3 cycles
cpu0->cpu0_L1I TOTAL        ACCESS:    8476165 HIT:    8476165 MISS:          0 MSHR_MERGE:          0
cpu0->cpu0_L1I LOAD         ACCESS:    8476165 HIT:    8476165 MISS:          0 MSHR_MERGE:          0
cpu0->cpu0_L1I RFO          ACCESS:          0 HIT:          0 MISS:          0 MSHR_MERGE:          0
cpu0->cpu0_L1I PREFETCH     ACCESS:          0 HIT:          0 MISS:          0 MSHR_MERGE:          0
cpu0->cpu0_L1I WRITE        ACCESS:          0 HIT:          0 MISS:          0 MSHR_MERGE:          0
cpu0->cpu0_L1I TRANSLATION  ACCESS:          0 HIT:          0 MISS:          0 MSHR_MERGE:          0
cpu0->cpu0_L1I PREFETCH REQUESTED:          0 ISSUED:          0 USEFUL:          0 USELESS:          0 LATE:          0
cpu0->cpu0_L1I AVERAGE MISS LATENCY: - cycles
cpu0->cpu0_L1D TOTAL        ACCESS:   16555801 HIT:   13766307 MISS:    2789494 MSHR_MERGE:     188095
cpu0->cpu0_L1D LOAD         ACCESS:    9377669 HIT:    6599696 MISS:    2777973 MSHR_MERGE:     185275
cpu0->cpu0_L1D RFO          ACCESS:          0 HIT:          0 MISS:          0 MSHR_MERGE:          0
cpu0->cpu0_L1D PREFETCH     ACCESS:          0 HIT:          0 MISS:          0 MSHR_MERGE:          0
cpu0->cpu0_L1D WRITE        ACCESS:    7086914 HIT:    7082944 MISS:       3970 MSHR_MERGE:       2809
cpu0->cpu0_L1D TRANSLATION  ACCESS:      91218 HIT:      83667 MISS:       7551 MSHR_MERGE:         11
cpu0->cpu0_L1D PREFETCH REQUESTED:          0 ISSUED:          0 USEFUL:          0 USELESS:          0 LATE:          0
cpu0->cpu0_L1D AVERAGE MISS LATENCY: 170.2 cycles
cpu0->cpu0_ITLB TOTAL        ACCESS:    7037979 HIT:    7037979 MISS:          0 MSHR_MERGE:          0
cpu0->cpu0_ITLB LOAD         ACCESS:    7037979 HIT:    7037979 MISS:          0 MSHR_MERGE:          0
cpu0->cpu0_ITLB RFO          ACCESS:          0 HIT:          0 MISS:          0 MSHR_MERGE:          0
cpu0->cpu0_ITLB PREFETCH     ACCESS:          0 HIT:          0 MISS:          0 MSHR_MERGE:          0
cpu0->cpu0_ITLB WRITE        ACCESS:          0 HIT:          0 MISS:          0 MSHR_MERGE:          0
cpu0->cpu0_ITLB TRANSLATION  ACCESS:          0 HIT:          0 MISS:          0 MSHR_MERGE:          0
cpu0->cpu0_ITLB PREFETCH REQUESTED:          0 ISSUED:          0 USEFUL:          0 USELESS:          0 LATE:          0
cpu0->cpu0_ITLB AVERAGE MISS LATENCY: - cycles
cpu0->cpu0_DTLB TOTAL        ACCESS:   15263573 HIT:   15103071 MISS:     160502 MSHR_MERGE:      55540
cpu0->cpu0_DTLB LOAD         ACCESS:   15263573 HIT:   15103071 MISS:     160502 MSHR_MERGE:      55540
cpu0->cpu0_DTLB RFO          ACCESS:          0 HIT:          0 MISS:          0 MSHR_MERGE:          0
cpu0->cpu0_DTLB PREFETCH     ACCESS:          0 HIT:          0 MISS:          0 MSHR_MERGE:          0
cpu0->cpu0_DTLB WRITE        ACCESS:          0 HIT:          0 MISS:          0 MSHR_MERGE:          0
cpu0->cpu0_DTLB TRANSLATION  ACCESS:          0 HIT:          0 MISS:          0 MSHR_MERGE:          0
cpu0->cpu0_DTLB PREFETCH REQUESTED:          0 ISSUED:          0 USEFUL:          0 USELESS:          0 LATE:          0
cpu0->cpu0_DTLB AVERAGE MISS LATENCY: 28.59 cycles
cpu0->LLC TOTAL        ACCESS:    2661634 HIT:     728675 MISS:    1932959 MSHR_MERGE:          0
cpu0->LLC LOAD         ACCESS:    2576050 HIT:     712314 MISS:    1863736 MSHR_MERGE:          0
cpu0->LLC RFO          ACCESS:        151 HIT:        117 MISS:         34 MSHR_MERGE:          0
cpu0->LLC PREFETCH     ACCESS:          0 HIT:          0 MISS:          0 MSHR_MERGE:          0
cpu0->LLC WRITE        ACCESS:      78529 HIT:      14593 MISS:      63936 MSHR_MERGE:          0
cpu0->LLC TRANSLATION  ACCESS:       6904 HIT:       1651 MISS:       5253 MSHR_MERGE:          0
cpu0->LLC PREFETCH REQUESTED:          0 ISSUED:          0 USEFUL:          0 USELESS:          0 LATE:          0
cpu0->LLC AVERAGE MISS LATENCY: 196.2 cycles

DRAM Statistics

Channel 0 RQ ROW_BUFFER_HIT:      55149
  ROW_BUFFER_MISS:    1813834
  AVG DBUS CONGESTED CYCLE: 13.36
Channel 0 WQ ROW_BUFFER_HIT:      28020
  ROW_BUFFER_MISS:      52690
  FULL:          0
Channel 0 REFRESHES ISSUED:      19009

[ROI Statistics]
[System Configuration]
num_cpus 1
cpu_freq 4000
fetch_width 6
decode_width 6
dispatch_width 6
execute_width 6
lq_width 2
sq_width 2
retire_width 6
scheduler_size 128
branch_mispredict_penalty 15
rob_size 352
lq_size 128
sq_size 72
ifetch_buffer_size 64
decode_buffer_size 32
dispatch_buffer_size 32
register_file_size 288
decode_latency 1
dispatch_latency 1
schedule_latency 1
execute_latency 1
page_size 4096
block_size 64
core_0_itlb_set 16
core_0_itlb_way 4
core_0_itlb_rq_size 16
core_0_itlb_wq_size 16
core_0_itlb_pq_size 0
core_0_itlb_mshr_size 8
core_0_itlb_hit_latency 1
core_0_itlb_fill_latency 1
core_0_itlb_max_tag_check 2
core_0_itlb_max_fill 2
core_0_dtlb_set 16
core_0_dtlb_way 4
core_0_dtlb_rq_size 16
core_0_dtlb_wq_size 16
core_0_dtlb_pq_size 0
core_0_dtlb_mshr_size 8
core_0_dtlb_hit_latency 1
core_0_dtlb_fill_latency 1
core_0_dtlb_max_tag_check 2
core_0_dtlb_max_fill 2
core_0_stlb_set 128
core_0_stlb_way 12
core_0_stlb_rq_size 32
core_0_stlb_wq_size 32
core_0_stlb_pq_size 0
core_0_stlb_mshr_size 16
core_0_stlb_hit_latency 4
core_0_stlb_fill_latency 4
core_0_stlb_max_tag_check 1
core_0_stlb_max_fill 1
core_0_l1i_set 64
core_0_l1i_way 8
core_0_l1i_rq_size 64
core_0_l1i_wq_size 64
core_0_l1i_pq_size 32
core_0_l1i_mshr_size 8
core_0_l1i_hit_latency 2
core_0_l1i_fill_latency 2
core_0_l1i_max_tag_check 2
core_0_l1i_max_fill 2
core_0_l1d_set 64
core_0_l1d_way 12
core_0_l1d_rq_size 64
core_0_l1d_wq_size 64
core_0_l1d_pq_size 8
core_0_l1d_mshr_size 16
core_0_l1d_hit_latency 2
core_0_l1d_fill_latency 3
core_0_l1d_max_tag_check 2
core_0_l1d_max_fill 2
core_0_l2c_set 1024
core_0_l2c_way 8
core_0_l2c_rq_size 32
core_0_l2c_wq_size 32
core_0_l2c_pq_size 16
core_0_l2c_mshr_size 32
core_0_l2c_hit_latency 5
core_0_l2c_fill_latency 5
core_0_l2c_max_tag_check 1
core_0_l2c_max_fill 1
llc_set 2048
llc_way 16
llc_rq_size 32
llc_wq_size 32
llc_pq_size 32
llc_mshr_size 64
llc_hit_latency 10
llc_fill_latency 10
llc_max_tag_check 1
llc_max_fill 1
dram_channels 1
dram_ranks 1
dram_bankgroups 8
dram_banks 4
dram_rows 65536
dram_columns 1024
dram_channel_width 8
dram_rq_size 64
dram_wq_size 64
dram_size 17179869184
core_0_itlb_prefetcher no
core_0_dtlb_prefetcher no
core_0_stlb_prefetcher no
core_0_l1i_prefetcher no
core_0_l1d_prefetcher no
core_0_l2c_prefetcher no
llc_prefetcher no
llc_replacement drrip

Core_0_instructions 50000000
Core_0_cycles 228111797
Core_0_IPC 0.219191
Core_0_branch_prediction_accuracy 98.9508
Core_0_branch_MPKI 1.1941
Core_0_average_ROB_occupancy_at_mispredict 118.365

Core_0_ITLB_total_access 7037979
Core_0_ITLB_total_hit 7037979
Core_0_ITLB_total_miss 0
Core_0_ITLB_total_MPKI 0
Core_0_ITLB_total_miss_rate 0
Core_0_ITLB_demand_access 7037979
Core_0_ITLB_demand_hit 7037979
Core_0_ITLB_demand_miss 0
Core_0_ITLB_demand_MPKI 0
Core_0_ITLB_demand_miss_rate 0
Core_0_ITLB_load_access 7037979
Core_0_ITLB_load_hit 7037979
Core_0_ITLB_load_miss 0
Core_0_ITLB_load_MPKI 0
Core_0_ITLB_load_miss_rate 0
Core_0_ITLB_rfo_access 0
Core_0_ITLB_rfo_hit 0
Core_0_ITLB_rfo_miss 0
Core_0_ITLB_rfo_MPKI 0
Core_0_ITLB_rfo_miss_rate 0
Core_0_ITLB_prefetch_access 0
Core_0_ITLB_prefetch_hit 0
Core_0_ITLB_prefetch_miss 0
Core_0_ITLB_prefetch_MPKI 0
Core_0_ITLB_prefetch_miss_rate 0
Core_0_ITLB_writeback_access 0
Core_0_ITLB_writeback_hit 0
Core_0_ITLB_writeback_miss 0
Core_0_ITLB_writeback_MPKI 0
Core_0_ITLB_writeback_miss_rate 0
Core_0_ITLB_prefetch_requested 0
Core_0_ITLB_prefetch_issued 0
Core_0_ITLB_prefetch_useful 0
Core_0_ITLB_prefetch_useless 0
Core_0_ITLB_prefetch_late 0
Core_0_ITLB_prefetch_accuracy 0
Core_0_ITLB_prefetch_coverage 0

Core_0_DTLB_total_access 15263573
Core_0_DTLB_total_hit 15103071
Core_0_DTLB_total_miss 160502
Core_0_DTLB_total_MPKI 3.21004
Core_0_DTLB_total_miss_rate 0.0105154
Core_0_DTLB_demand_access 15263573
Core_0_DTLB_demand_hit 15103071
Core_0_DTLB_demand_miss 160502
Core_0_DTLB_demand_MPKI 3.21004
Core_0_DTLB_demand_miss_rate 0.0105154
Core_0_DTLB_load_access 15263573
Core_0_DTLB_load_hit 15103071
Core_0_DTLB_load_miss 160502
Core_0_DTLB_load_MPKI 3.21004
Core_0_DTLB_load_miss_rate 0.0105154
Core_0_DTLB_rfo_access 0
Core_0_DTLB_rfo_hit 0
Core_0_DTLB_rfo_miss 0
Core_0_DTLB_rfo_MPKI 0
Core_0_DTLB_rfo_miss_rate 0
Core_0_DTLB_prefetch_access 0
Core_0_DTLB_prefetch_hit 0
Core_0_DTLB_prefetch_miss 0
Core_0_DTLB_prefetch_MPKI 0
Core_0_DTLB_prefetch_miss_rate 0
Core_0_DTLB_writeback_access 0
Core_0_DTLB_writeback_hit 0
Core_0_DTLB_writeback_miss 0
Core_0_DTLB_writeback_MPKI 0
Core_0_DTLB_writeback_miss_rate 0
Core_0_DTLB_prefetch_requested 0
Core_0_DTLB_prefetch_issued 0
Core_0_DTLB_prefetch_useful 0
Core_0_DTLB_prefetch_useless 0
Core_0_DTLB_prefetch_late 0
Core_0_DTLB_prefetch_accuracy 0
Core_0_DTLB_prefetch_coverage 0

Core_0_STLB_total_access 104962
Core_0_STLB_total_hit 59353
Core_0_STLB_total_miss 45609
Core_0_STLB_total_MPKI 0.91218
Core_0_STLB_total_miss_rate 0.434529
Core_0_STLB_demand_access 104962
Core_0_STLB_demand_hit 59353
Core_0_STLB_demand_miss 45609
Core_0_STLB_demand_MPKI 0.91218
Core_0_STLB_demand_miss_rate 0.434529
Core_0_STLB_load_access 104962
Core_0_STLB_load_hit 59353
Core_0_STLB_load_miss 45609
Core_0_STLB_load_MPKI 0.91218
Core_0_STLB_load_miss_rate 0.434529
Core_0_STLB_rfo_access 0
Core_0_STLB_rfo_hit 0
Core_0_STLB_rfo_miss 0
Core_0_STLB_rfo_MPKI 0
Core_0_STLB_rfo_miss_rate 0
Core_0_STLB_prefetch_access 0
Core_0_STLB_prefetch_hit 0
Core_0_STLB_prefetch_miss 0
Core_0_STLB_prefetch_MPKI 0
Core_0_STLB_prefetch_miss_rate 0
Core_0_STLB_writeback_access 0
Core_0_STLB_writeback_hit 0
Core_0_STLB_writeback_miss 0
Core_0_STLB_writeback_MPKI 0
Core_0_STLB_writeback_miss_rate 0
Core_0_STLB_prefetch_requested 0
Core_0_STLB_prefetch_issued 0
Core_0_STLB_prefetch_useful 0
Core_0_STLB_prefetch_useless 0
Core_0_STLB_prefetch_late 0
Core_0_STLB_prefetch_accuracy 0
Core_0_STLB_prefetch_coverage 0

Core_0_L1I_total_access 8476165
Core_0_L1I_total_hit 8476165
Core_0_L1I_total_miss 0
Core_0_L1I_total_MPKI 0
Core_0_L1I_total_miss_rate 0
Core_0_L1I_demand_access 8476165
Core_0_L1I_demand_hit 8476165
Core_0_L1I_demand_miss 0
Core_0_L1I_demand_MPKI 0
Core_0_L1I_demand_miss_rate 0
Core_0_L1I_load_access 8476165
Core_0_L1I_load_hit 8476165
Core_0_L1I_load_miss 0
Core_0_L1I_load_MPKI 0
Core_0_L1I_load_miss_rate 0
Core_0_L1I_rfo_access 0
Core_0_L1I_rfo_hit 0
Core_0_L1I_rfo_miss 0
Core_0_L1I_rfo_MPKI 0
Core_0_L1I_rfo_miss_rate 0
Core_0_L1I_prefetch_access 0
Core_0_L1I_prefetch_hit 0
Core_0_L1I_prefetch_miss 0
Core_0_L1I_prefetch_MPKI 0
Core_0_L1I_prefetch_miss_rate 0
Core_0_L1I_writeback_access 0
Core_0_L1I_writeback_hit 0
Core_0_L1I_writeback_miss 0
Core_0_L1I_writeback_MPKI 0
Core_0_L1I_writeback_miss_rate 0
Core_0_L1I_prefetch_requested 0
Core_0_L1I_prefetch_issued 0
Core_0_L1I_prefetch_useful 0
Core_0_L1I_prefetch_useless 0
Core_0_L1I_prefetch_late 0
Core_0_L1I_prefetch_accuracy 0
Core_0_L1I_prefetch_coverage 0

Core_0_L1D_total_access 16464583
Core_0_L1D_total_hit 13682640
Core_0_L1D_total_miss 2781943
Core_0_L1D_total_MPKI 55.6389
Core_0_L1D_total_miss_rate 0.168965
Core_0_L1D_demand_access 9377669
Core_0_L1D_demand_hit 6599696
Core_0_L1D_demand_miss 2777973
Core_0_L1D_demand_MPKI 55.5595
Core_0_L1D_demand_miss_rate 0.296233
Core_0_L1D_load_access 9377669
Core_0_L1D_load_hit 6599696
Core_0_L1D_load_miss 2777973
Core_0_L1D_load_MPKI 55.5595
Core_0_L1D_load_miss_rate 0.296233
Core_0_L1D_rfo_access 0
Core_0_L1D_rfo_hit 0
Core_0_L1D_rfo_miss 0
Core_0_L1D_rfo_MPKI 0
Core_0_L1D_rfo_miss_rate 0
Core_0_L1D_prefetch_access 0
Core_0_L1D_prefetch_hit 0
Core_0_L1D_prefetch_miss 0
Core_0_L1D_prefetch_MPKI 0
Core_0_L1D_prefetch_miss_rate 0
Core_0_L1D_writeback_access 7086914
Core_0_L1D_writeback_hit 7082944
Core_0_L1D_writeback_miss 3970
Core_0_L1D_writeback_MPKI 0.0794
Core_0_L1D_writeback_miss_rate 0.000560187
Core_0_L1D_prefetch_requested 0
Core_0_L1D_prefetch_issued 0
Core_0_L1D_prefetch_useful 0
Core_0_L1D_prefetch_useless 0
Core_0_L1D_prefetch_late 0
Core_0_L1D_prefetch_accuracy 0
Core_0_L1D_prefetch_coverage 0

Core_0_L2C_total_access 2685736
Core_0_L2C_total_hit 109022
Core_0_L2C_total_miss 2576714
Core_0_L2C_total_MPKI 51.5343
Core_0_L2C_total_miss_rate 0.959407
Core_0_L2C_demand_access 2593851
Core_0_L2C_demand_hit 17650
Core_0_L2C_demand_miss 2576201
Core_0_L2C_demand_MPKI 51.524
Core_0_L2C_demand_miss_rate 0.993195
Core_0_L2C_load_access 2592690
Core_0_L2C_load_hit 16640
Core_0_L2C_load_miss 2576050
Core_0_L2C_load_MPKI 51.521
Core_0_L2C_load_miss_rate 0.993582
Core_0_L2C_rfo_access 1161
Core_0_L2C_rfo_hit 1010
Core_0_L2C_rfo_miss 151
Core_0_L2C_rfo_MPKI 0.00302
Core_0_L2C_rfo_miss_rate 0.13006
Core_0_L2C_prefetch_access 0
Core_0_L2C_prefetch_hit 0
Core_0_L2C_prefetch_miss 0
Core_0_L2C_prefetch_MPKI 0
Core_0_L2C_prefetch_miss_rate 0
Core_0_L2C_writeback_access 91885
Core_0_L2C_writeback_hit 91372
Core_0_L2C_writeback_miss 513
Core_0_L2C_writeback_MPKI 0.01026
Core_0_L2C_writeback_miss_rate 0.00558307
Core_0_L2C_prefetch_requested 0
Core_0_L2C_prefetch_issued 0
Core_0_L2C_prefetch_useful 0
Core_0_L2C_prefetch_useless 0
Core_0_L2C_prefetch_late 0
Core_0_L2C_prefetch_accuracy 0
Core_0_L2C_prefetch_coverage 0

Core_0_LLC_total_access 2654730
Core_0_LLC_total_hit 727024
Core_0_LLC_total_miss 1927706
Core_0_LLC_total_MPKI 38.5541
Core_0_LLC_total_miss_rate 0.72614
Core_0_LLC_demand_access 2576201
Core_0_LLC_demand_hit 712431
Core_0_LLC_demand_miss 1863770
Core_0_LLC_demand_MPKI 37.2754
Core_0_LLC_demand_miss_rate 0.723457
Core_0_LLC_load_access 2576050
Core_0_LLC_load_hit 712314
Core_0_LLC_load_miss 1863736
Core_0_LLC_load_MPKI 37.2747
Core_0_LLC_load_miss_rate 0.723486
Core_0_LLC_rfo_access 151
Core_0_LLC_rfo_hit 117
Core_0_LLC_rfo_miss 34
Core_0_LLC_rfo_MPKI 0.00068
Core_0_LLC_rfo_miss_rate 0.225166
Core_0_LLC_prefetch_access 0
Core_0_LLC_prefetch_hit 0
Core_0_LLC_prefetch_miss 0
Core_0_LLC_prefetch_MPKI 0
Core_0_LLC_prefetch_miss_rate 0
Core_0_LLC_writeback_access 78529
Core_0_LLC_writeback_hit 14593
Core_0_LLC_writeback_miss 63936
Core_0_LLC_writeback_MPKI 1.27872
Core_0_LLC_writeback_miss_rate 0.814171
Core_0_LLC_prefetch_requested 0
Core_0_LLC_prefetch_issued 0
Core_0_LLC_prefetch_useful 0
Core_0_LLC_prefetch_useless 0
Core_0_LLC_prefetch_late 0
Core_0_LLC_prefetch_accuracy 0
Core_0_LLC_prefetch_coverage 0

[DRAM Statistics]
Channel_0_RQ_row_buffer_hit 55149
Channel_0_RQ_row_buffer_miss 1813834
Channel_0_WQ_row_buffer_hit 28020
Channel_0_WQ_row_buffer_miss 52690
Channel_0_WQ_full 0
Channel_0_dbus_congested 3942452
DRAM_total_RQ_row_buffer_hit 55149
DRAM_total_RQ_row_buffer_miss 1813834
DRAM_total_WQ_row_buffer_hit 28020
DRAM_total_WQ_row_buffer_miss 52690
DRAM_total_WQ_full 0
DRAM_total_dbus_congested 3942452
DRAM_avg_congested_cycle 13.3558

======STLB miss causes ========
Core_0_STLB_miss_cause_breakdown
Core_0_STLB_cause_Demand_Data_miss 45609
Core_0_STLB_cause_Demand_Data_miss_rate 0.434529
Core_0_STLB_cause_Demand_Instruction_miss 0
Core_0_STLB_cause_Demand_Instruction_miss_rate 0
Core_0_STLB_cause_L1D_Prefetch_miss 0
Core_0_STLB_cause_L1D_Prefetch_miss_rate 0
Core_0_STLB_cause_L1I_Prefetch_miss 0
Core_0_STLB_cause_L1I_Prefetch_miss_rate 0
Core_0_STLB_cause_Other_miss 0
Core_0_STLB_cause_Other_miss_rate 0
Core_0_STLB_Demand_miss 45609
Core_0_STLB_Demand_miss_rate 0.434529
Core_0_STLB_L1D_Prefetch_miss 0
Core_0_STLB_L1D_Prefetch_miss_rate 0
Core_0_STLB_Other_miss 0
Core_0_STLB_Other_miss_rate 0
