[VMEM] WARNING: physical memory size is smaller than virtual memory size.

*** ChampSim Multicore Out-of-Order Simulator ***
Warmup Instructions: 20000000
Simulation Instructions: 50000000
Number of CPUs: 1
Page size: 4096
Core 0: /data2/zcq/gap_dpc/bfs-8.trace.gz
Off-chip DRAM Size: 16 GiB Channels: 1 Width: 64-bit Data Rate: 3205 MT/s
Warmup halting CPU 0 at instruction 20000004 cycle 5448763 for remainder of phase
Warmup finished CPU 0 instructions: 20000004 cycles: 5448763 cumulative IPC: 3.671 (Simulation time: 00 hr 01 min 05 sec)
Warmup complete CPU 0 instructions: 20000004 cycles: 5448763 cumulative IPC: 3.671 (Simulation time: 00 hr 01 min 05 sec)
Simulation finished CPU 0 instructions: 50000002 cycles: 178251442 cumulative IPC: 0.2805 (Simulation time: 00 hr 11 min 52 sec)
Simulation complete CPU 0 instructions: 50000002 cycles: 178251442 cumulative IPC: 0.2805 (Simulation time: 00 hr 11 min 52 sec)

ChampSim completed all CPUs

=== Simulation ===
CPU 0 runs /data2/zcq/gap_dpc/bfs-8.trace.gz

Region of Interest Statistics

CPU 0 cumulative IPC: 0.2805 instructions: 50000002 cycles: 178251442
CPU 0 Branch Prediction Accuracy: 88.89% MPKI: 24.24 Average ROB Occupancy at Mispredict: 14.67
Branch type MPKI
BRANCH_DIRECT_JUMP: 0.0001
BRANCH_INDIRECT: 2e-05
BRANCH_CONDITIONAL: 24.24
BRANCH_DIRECT_CALL: 0.00028
BRANCH_INDIRECT_CALL: 4e-05
BRANCH_RETURN: 0.00032

cpu0->cpu0_STLB TOTAL        ACCESS:     111806 HIT:      43913 MISS:      67893 MSHR_MERGE:          0
cpu0->cpu0_STLB LOAD         ACCESS:     111806 HIT:      43913 MISS:      67893 MSHR_MERGE:          0
cpu0->cpu0_STLB RFO          ACCESS:          0 HIT:          0 MISS:          0 MSHR_MERGE:          0
cpu0->cpu0_STLB PREFETCH     ACCESS:          0 HIT:          0 MISS:          0 MSHR_MERGE:          0
cpu0->cpu0_STLB WRITE        ACCESS:          0 HIT:          0 MISS:          0 MSHR_MERGE:          0
cpu0->cpu0_STLB TRANSLATION  ACCESS:          0 HIT:          0 MISS:          0 MSHR_MERGE:          0
cpu0->cpu0_STLB PREFETCH REQUESTED:          0 ISSUED:          0 USEFUL:          0 USELESS:          0 LATE:          0
cpu0->cpu0_STLB AVERAGE MISS LATENCY: 105.7 cycles
cpu0->cpu0_L2C TOTAL        ACCESS:    1320596 HIT:     404023 MISS:     916573 MSHR_MERGE:          0
cpu0->cpu0_L2C LOAD         ACCESS:    1143337 HIT:     275668 MISS:     867669 MSHR_MERGE:          0
cpu0->cpu0_L2C RFO          ACCESS:      39839 HIT:       2906 MISS:      36933 MSHR_MERGE:          0
cpu0->cpu0_L2C PREFETCH     ACCESS:          0 HIT:          0 MISS:          0 MSHR_MERGE:          0
cpu0->cpu0_L2C WRITE        ACCESS:     118802 HIT:     118793 MISS:          9 MSHR_MERGE:          0
cpu0->cpu0_L2C TRANSLATION  ACCESS:      18618 HIT:       6656 MISS:      11962 MSHR_MERGE:          0
cpu0->cpu0_L2C PREFETCH REQUESTED:          0 ISSUED:          0 USEFUL:          0 USELESS:          0 LATE:          0
cpu0->cpu0_L2C AVERAGE MISS LATENCY: 186.6 cycles
cpu0->cpu0_L1I TOTAL        ACCESS:    1867729 HIT:    1867715 MISS:         14 MSHR_MERGE:          0
cpu0->cpu0_L1I LOAD         ACCESS:    1867729 HIT:    1867715 MISS:         14 MSHR_MERGE:          0
cpu0->cpu0_L1I RFO          ACCESS:          0 HIT:          0 MISS:          0 MSHR_MERGE:          0
cpu0->cpu0_L1I PREFETCH     ACCESS:          0 HIT:          0 MISS:          0 MSHR_MERGE:          0
cpu0->cpu0_L1I WRITE        ACCESS:          0 HIT:          0 MISS:          0 MSHR_MERGE:          0
cpu0->cpu0_L1I TRANSLATION  ACCESS:          0 HIT:          0 MISS:          0 MSHR_MERGE:          0
cpu0->cpu0_L1I PREFETCH REQUESTED:          0 ISSUED:          0 USEFUL:          0 USELESS:          0 LATE:          0
cpu0->cpu0_L1I AVERAGE MISS LATENCY: 246.7 cycles
cpu0->cpu0_L1D TOTAL        ACCESS:   11828794 HIT:    9257702 MISS:    2571092 MSHR_MERGE:    1369312
cpu0->cpu0_L1D LOAD         ACCESS:   10233812 HIT:    7806519 MISS:    2427293 MSHR_MERGE:    1283970
cpu0->cpu0_L1D RFO          ACCESS:          0 HIT:          0 MISS:          0 MSHR_MERGE:          0
cpu0->cpu0_L1D PREFETCH     ACCESS:          0 HIT:          0 MISS:          0 MSHR_MERGE:          0
cpu0->cpu0_L1D WRITE        ACCESS:    1461204 HIT:    1339086 MISS:     122118 MSHR_MERGE:      82279
cpu0->cpu0_L1D TRANSLATION  ACCESS:     133778 HIT:     112097 MISS:      21681 MSHR_MERGE:       3063
cpu0->cpu0_L1D PREFETCH REQUESTED:          0 ISSUED:          0 USEFUL:          0 USELESS:          0 LATE:          0
cpu0->cpu0_L1D AVERAGE MISS LATENCY: 151.1 cycles
cpu0->cpu0_ITLB TOTAL        ACCESS:    1865382 HIT:    1865382 MISS:          0 MSHR_MERGE:          0
cpu0->cpu0_ITLB LOAD         ACCESS:    1865382 HIT:    1865382 MISS:          0 MSHR_MERGE:          0
cpu0->cpu0_ITLB RFO          ACCESS:          0 HIT:          0 MISS:          0 MSHR_MERGE:          0
cpu0->cpu0_ITLB PREFETCH     ACCESS:          0 HIT:          0 MISS:          0 MSHR_MERGE:          0
cpu0->cpu0_ITLB WRITE        ACCESS:          0 HIT:          0 MISS:          0 MSHR_MERGE:          0
cpu0->cpu0_ITLB TRANSLATION  ACCESS:          0 HIT:          0 MISS:          0 MSHR_MERGE:          0
cpu0->cpu0_ITLB PREFETCH REQUESTED:          0 ISSUED:          0 USEFUL:          0 USELESS:          0 LATE:          0
cpu0->cpu0_ITLB AVERAGE MISS LATENCY: - cycles
cpu0->cpu0_DTLB TOTAL        ACCESS:   11658889 HIT:   11515813 MISS:     143076 MSHR_MERGE:      31270
cpu0->cpu0_DTLB LOAD         ACCESS:   11658889 HIT:   11515813 MISS:     143076 MSHR_MERGE:      31270
cpu0->cpu0_DTLB RFO          ACCESS:          0 HIT:          0 MISS:          0 MSHR_MERGE:          0
cpu0->cpu0_DTLB PREFETCH     ACCESS:          0 HIT:          0 MISS:          0 MSHR_MERGE:          0
cpu0->cpu0_DTLB WRITE        ACCESS:          0 HIT:          0 MISS:          0 MSHR_MERGE:          0
cpu0->cpu0_DTLB TRANSLATION  ACCESS:          0 HIT:          0 MISS:          0 MSHR_MERGE:          0
cpu0->cpu0_DTLB PREFETCH REQUESTED:          0 ISSUED:          0 USEFUL:          0 USELESS:          0 LATE:          0
cpu0->cpu0_DTLB AVERAGE MISS LATENCY: 69.78 cycles
cpu0->LLC TOTAL        ACCESS:    1032269 HIT:     116159 MISS:     916110 MSHR_MERGE:          0
cpu0->LLC LOAD         ACCESS:     867668 HIT:      66995 MISS:     800673 MSHR_MERGE:          0
cpu0->LLC RFO          ACCESS:      36933 HIT:       4838 MISS:      32095 MSHR_MERGE:          0
cpu0->LLC PREFETCH     ACCESS:          0 HIT:          0 MISS:          0 MSHR_MERGE:          0
cpu0->LLC WRITE        ACCESS:     115706 HIT:      44002 MISS:      71704 MSHR_MERGE:          0
cpu0->LLC TRANSLATION  ACCESS:      11962 HIT:        324 MISS:      11638 MSHR_MERGE:          0
cpu0->LLC PREFETCH REQUESTED:          0 ISSUED:          0 USEFUL:          0 USELESS:          0 LATE:          0
cpu0->LLC AVERAGE MISS LATENCY: 171.5 cycles

DRAM Statistics

Channel 0 RQ ROW_BUFFER_HIT:      25967
  ROW_BUFFER_MISS:     818366
  AVG DBUS CONGESTED CYCLE: 18.56
Channel 0 WQ ROW_BUFFER_HIT:      24934
  ROW_BUFFER_MISS:      87737
  FULL:          0
Channel 0 REFRESHES ISSUED:      14854

[ROI Statistics]
[System Configuration]
num_cpus 1
cpu_freq 4000
fetch_width 6
decode_width 6
dispatch_width 6
execute_width 6
lq_width 2
sq_width 2
retire_width 6
scheduler_size 128
branch_mispredict_penalty 15
rob_size 352
lq_size 128
sq_size 72
ifetch_buffer_size 64
decode_buffer_size 32
dispatch_buffer_size 32
register_file_size 288
decode_latency 1
dispatch_latency 1
schedule_latency 1
execute_latency 1
page_size 4096
block_size 64
core_0_itlb_set 16
core_0_itlb_way 4
core_0_itlb_rq_size 16
core_0_itlb_wq_size 16
core_0_itlb_pq_size 0
core_0_itlb_mshr_size 8
core_0_itlb_hit_latency 1
core_0_itlb_fill_latency 1
core_0_itlb_max_tag_check 2
core_0_itlb_max_fill 2
core_0_dtlb_set 16
core_0_dtlb_way 4
core_0_dtlb_rq_size 16
core_0_dtlb_wq_size 16
core_0_dtlb_pq_size 0
core_0_dtlb_mshr_size 8
core_0_dtlb_hit_latency 1
core_0_dtlb_fill_latency 1
core_0_dtlb_max_tag_check 2
core_0_dtlb_max_fill 2
core_0_stlb_set 128
core_0_stlb_way 12
core_0_stlb_rq_size 32
core_0_stlb_wq_size 32
core_0_stlb_pq_size 0
core_0_stlb_mshr_size 16
core_0_stlb_hit_latency 4
core_0_stlb_fill_latency 4
core_0_stlb_max_tag_check 1
core_0_stlb_max_fill 1
core_0_l1i_set 64
core_0_l1i_way 8
core_0_l1i_rq_size 64
core_0_l1i_wq_size 64
core_0_l1i_pq_size 32
core_0_l1i_mshr_size 8
core_0_l1i_hit_latency 2
core_0_l1i_fill_latency 2
core_0_l1i_max_tag_check 2
core_0_l1i_max_fill 2
core_0_l1d_set 64
core_0_l1d_way 12
core_0_l1d_rq_size 64
core_0_l1d_wq_size 64
core_0_l1d_pq_size 8
core_0_l1d_mshr_size 16
core_0_l1d_hit_latency 2
core_0_l1d_fill_latency 3
core_0_l1d_max_tag_check 2
core_0_l1d_max_fill 2
core_0_l2c_set 1024
core_0_l2c_way 8
core_0_l2c_rq_size 32
core_0_l2c_wq_size 32
core_0_l2c_pq_size 16
core_0_l2c_mshr_size 32
core_0_l2c_hit_latency 5
core_0_l2c_fill_latency 5
core_0_l2c_max_tag_check 1
core_0_l2c_max_fill 1
llc_set 2048
llc_way 16
llc_rq_size 32
llc_wq_size 32
llc_pq_size 32
llc_mshr_size 64
llc_hit_latency 10
llc_fill_latency 10
llc_max_tag_check 1
llc_max_fill 1
dram_channels 1
dram_ranks 1
dram_bankgroups 8
dram_banks 4
dram_rows 65536
dram_columns 1024
dram_channel_width 8
dram_rq_size 64
dram_wq_size 64
dram_size 17179869184
core_0_itlb_prefetcher no
core_0_dtlb_prefetcher no
core_0_stlb_prefetcher no
core_0_l1i_prefetcher no
core_0_l1d_prefetcher no
core_0_l2c_prefetcher no
llc_prefetcher no
llc_replacement drrip

Core_0_instructions 50000002
Core_0_cycles 178251442
Core_0_IPC 0.280503
Core_0_branch_prediction_accuracy 88.8925
Core_0_branch_MPKI 24.2442
Core_0_average_ROB_occupancy_at_mispredict 14.6692

Core_0_ITLB_total_access 1865382
Core_0_ITLB_total_hit 1865382
Core_0_ITLB_total_miss 0
Core_0_ITLB_total_MPKI 0
Core_0_ITLB_total_miss_rate 0
Core_0_ITLB_demand_access 1865382
Core_0_ITLB_demand_hit 1865382
Core_0_ITLB_demand_miss 0
Core_0_ITLB_demand_MPKI 0
Core_0_ITLB_demand_miss_rate 0
Core_0_ITLB_load_access 1865382
Core_0_ITLB_load_hit 1865382
Core_0_ITLB_load_miss 0
Core_0_ITLB_load_MPKI 0
Core_0_ITLB_load_miss_rate 0
Core_0_ITLB_rfo_access 0
Core_0_ITLB_rfo_hit 0
Core_0_ITLB_rfo_miss 0
Core_0_ITLB_rfo_MPKI 0
Core_0_ITLB_rfo_miss_rate 0
Core_0_ITLB_prefetch_access 0
Core_0_ITLB_prefetch_hit 0
Core_0_ITLB_prefetch_miss 0
Core_0_ITLB_prefetch_MPKI 0
Core_0_ITLB_prefetch_miss_rate 0
Core_0_ITLB_writeback_access 0
Core_0_ITLB_writeback_hit 0
Core_0_ITLB_writeback_miss 0
Core_0_ITLB_writeback_MPKI 0
Core_0_ITLB_writeback_miss_rate 0
Core_0_ITLB_prefetch_requested 0
Core_0_ITLB_prefetch_issued 0
Core_0_ITLB_prefetch_useful 0
Core_0_ITLB_prefetch_useless 0
Core_0_ITLB_prefetch_late 0
Core_0_ITLB_prefetch_accuracy 0
Core_0_ITLB_prefetch_coverage 0

Core_0_DTLB_total_access 11658889
Core_0_DTLB_total_hit 11515813
Core_0_DTLB_total_miss 143076
Core_0_DTLB_total_MPKI 2.86152
Core_0_DTLB_total_miss_rate 0.0122718
Core_0_DTLB_demand_access 11658889
Core_0_DTLB_demand_hit 11515813
Core_0_DTLB_demand_miss 143076
Core_0_DTLB_demand_MPKI 2.86152
Core_0_DTLB_demand_miss_rate 0.0122718
Core_0_DTLB_load_access 11658889
Core_0_DTLB_load_hit 11515813
Core_0_DTLB_load_miss 143076
Core_0_DTLB_load_MPKI 2.86152
Core_0_DTLB_load_miss_rate 0.0122718
Core_0_DTLB_rfo_access 0
Core_0_DTLB_rfo_hit 0
Core_0_DTLB_rfo_miss 0
Core_0_DTLB_rfo_MPKI 0
Core_0_DTLB_rfo_miss_rate 0
Core_0_DTLB_prefetch_access 0
Core_0_DTLB_prefetch_hit 0
Core_0_DTLB_prefetch_miss 0
Core_0_DTLB_prefetch_MPKI 0
Core_0_DTLB_prefetch_miss_rate 0
Core_0_DTLB_writeback_access 0
Core_0_DTLB_writeback_hit 0
Core_0_DTLB_writeback_miss 0
Core_0_DTLB_writeback_MPKI 0
Core_0_DTLB_writeback_miss_rate 0
Core_0_DTLB_prefetch_requested 0
Core_0_DTLB_prefetch_issued 0
Core_0_DTLB_prefetch_useful 0
Core_0_DTLB_prefetch_useless 0
Core_0_DTLB_prefetch_late 0
Core_0_DTLB_prefetch_accuracy 0
Core_0_DTLB_prefetch_coverage 0

Core_0_STLB_total_access 111806
Core_0_STLB_total_hit 43913
Core_0_STLB_total_miss 67893
Core_0_STLB_total_MPKI 1.35786
Core_0_STLB_total_miss_rate 0.607239
Core_0_STLB_demand_access 111806
Core_0_STLB_demand_hit 43913
Core_0_STLB_demand_miss 67893
Core_0_STLB_demand_MPKI 1.35786
Core_0_STLB_demand_miss_rate 0.607239
Core_0_STLB_load_access 111806
Core_0_STLB_load_hit 43913
Core_0_STLB_load_miss 67893
Core_0_STLB_load_MPKI 1.35786
Core_0_STLB_load_miss_rate 0.607239
Core_0_STLB_rfo_access 0
Core_0_STLB_rfo_hit 0
Core_0_STLB_rfo_miss 0
Core_0_STLB_rfo_MPKI 0
Core_0_STLB_rfo_miss_rate 0
Core_0_STLB_prefetch_access 0
Core_0_STLB_prefetch_hit 0
Core_0_STLB_prefetch_miss 0
Core_0_STLB_prefetch_MPKI 0
Core_0_STLB_prefetch_miss_rate 0
Core_0_STLB_writeback_access 0
Core_0_STLB_writeback_hit 0
Core_0_STLB_writeback_miss 0
Core_0_STLB_writeback_MPKI 0
Core_0_STLB_writeback_miss_rate 0
Core_0_STLB_prefetch_requested 0
Core_0_STLB_prefetch_issued 0
Core_0_STLB_prefetch_useful 0
Core_0_STLB_prefetch_useless 0
Core_0_STLB_prefetch_late 0
Core_0_STLB_prefetch_accuracy 0
Core_0_STLB_prefetch_coverage 0

Core_0_L1I_total_access 1867729
Core_0_L1I_total_hit 1867715
Core_0_L1I_total_miss 14
Core_0_L1I_total_MPKI 0.00028
Core_0_L1I_total_miss_rate 7.49573e-06
Core_0_L1I_demand_access 1867729
Core_0_L1I_demand_hit 1867715
Core_0_L1I_demand_miss 14
Core_0_L1I_demand_MPKI 0.00028
Core_0_L1I_demand_miss_rate 7.49573e-06
Core_0_L1I_load_access 1867729
Core_0_L1I_load_hit 1867715
Core_0_L1I_load_miss 14
Core_0_L1I_load_MPKI 0.00028
Core_0_L1I_load_miss_rate 7.49573e-06
Core_0_L1I_rfo_access 0
Core_0_L1I_rfo_hit 0
Core_0_L1I_rfo_miss 0
Core_0_L1I_rfo_MPKI 0
Core_0_L1I_rfo_miss_rate 0
Core_0_L1I_prefetch_access 0
Core_0_L1I_prefetch_hit 0
Core_0_L1I_prefetch_miss 0
Core_0_L1I_prefetch_MPKI 0
Core_0_L1I_prefetch_miss_rate 0
Core_0_L1I_writeback_access 0
Core_0_L1I_writeback_hit 0
Core_0_L1I_writeback_miss 0
Core_0_L1I_writeback_MPKI 0
Core_0_L1I_writeback_miss_rate 0
Core_0_L1I_prefetch_requested 0
Core_0_L1I_prefetch_issued 0
Core_0_L1I_prefetch_useful 0
Core_0_L1I_prefetch_useless 0
Core_0_L1I_prefetch_late 0
Core_0_L1I_prefetch_accuracy 0
Core_0_L1I_prefetch_coverage 0

Core_0_L1D_total_access 11695016
Core_0_L1D_total_hit 9145605
Core_0_L1D_total_miss 2549411
Core_0_L1D_total_MPKI 50.9882
Core_0_L1D_total_miss_rate 0.217991
Core_0_L1D_demand_access 10233812
Core_0_L1D_demand_hit 7806519
Core_0_L1D_demand_miss 2427293
Core_0_L1D_demand_MPKI 48.5459
Core_0_L1D_demand_miss_rate 0.237184
Core_0_L1D_load_access 10233812
Core_0_L1D_load_hit 7806519
Core_0_L1D_load_miss 2427293
Core_0_L1D_load_MPKI 48.5459
Core_0_L1D_load_miss_rate 0.237184
Core_0_L1D_rfo_access 0
Core_0_L1D_rfo_hit 0
Core_0_L1D_rfo_miss 0
Core_0_L1D_rfo_MPKI 0
Core_0_L1D_rfo_miss_rate 0
Core_0_L1D_prefetch_access 0
Core_0_L1D_prefetch_hit 0
Core_0_L1D_prefetch_miss 0
Core_0_L1D_prefetch_MPKI 0
Core_0_L1D_prefetch_miss_rate 0
Core_0_L1D_writeback_access 1461204
Core_0_L1D_writeback_hit 1339086
Core_0_L1D_writeback_miss 122118
Core_0_L1D_writeback_MPKI 2.44236
Core_0_L1D_writeback_miss_rate 0.0835735
Core_0_L1D_prefetch_requested 0
Core_0_L1D_prefetch_issued 0
Core_0_L1D_prefetch_useful 0
Core_0_L1D_prefetch_useless 0
Core_0_L1D_prefetch_late 0
Core_0_L1D_prefetch_accuracy 0
Core_0_L1D_prefetch_coverage 0

Core_0_L2C_total_access 1301978
Core_0_L2C_total_hit 397367
Core_0_L2C_total_miss 904611
Core_0_L2C_total_MPKI 18.0922
Core_0_L2C_total_miss_rate 0.694797
Core_0_L2C_demand_access 1183176
Core_0_L2C_demand_hit 278574
Core_0_L2C_demand_miss 904602
Core_0_L2C_demand_MPKI 18.092
Core_0_L2C_demand_miss_rate 0.764554
Core_0_L2C_load_access 1143337
Core_0_L2C_load_hit 275668
Core_0_L2C_load_miss 867669
Core_0_L2C_load_MPKI 17.3534
Core_0_L2C_load_miss_rate 0.758892
Core_0_L2C_rfo_access 39839
Core_0_L2C_rfo_hit 2906
Core_0_L2C_rfo_miss 36933
Core_0_L2C_rfo_MPKI 0.73866
Core_0_L2C_rfo_miss_rate 0.927056
Core_0_L2C_prefetch_access 0
Core_0_L2C_prefetch_hit 0
Core_0_L2C_prefetch_miss 0
Core_0_L2C_prefetch_MPKI 0
Core_0_L2C_prefetch_miss_rate 0
Core_0_L2C_writeback_access 118802
Core_0_L2C_writeback_hit 118793
Core_0_L2C_writeback_miss 9
Core_0_L2C_writeback_MPKI 0.00018
Core_0_L2C_writeback_miss_rate 7.57563e-05
Core_0_L2C_prefetch_requested 0
Core_0_L2C_prefetch_issued 0
Core_0_L2C_prefetch_useful 0
Core_0_L2C_prefetch_useless 0
Core_0_L2C_prefetch_late 0
Core_0_L2C_prefetch_accuracy 0
Core_0_L2C_prefetch_coverage 0

Core_0_LLC_total_access 1020307
Core_0_LLC_total_hit 115835
Core_0_LLC_total_miss 904472
Core_0_LLC_total_MPKI 18.0894
Core_0_LLC_total_miss_rate 0.88647
Core_0_LLC_demand_access 904601
Core_0_LLC_demand_hit 71833
Core_0_LLC_demand_miss 832768
Core_0_LLC_demand_MPKI 16.6554
Core_0_LLC_demand_miss_rate 0.920592
Core_0_LLC_load_access 867668
Core_0_LLC_load_hit 66995
Core_0_LLC_load_miss 800673
Core_0_LLC_load_MPKI 16.0135
Core_0_LLC_load_miss_rate 0.922787
Core_0_LLC_rfo_access 36933
Core_0_LLC_rfo_hit 4838
Core_0_LLC_rfo_miss 32095
Core_0_LLC_rfo_MPKI 0.6419
Core_0_LLC_rfo_miss_rate 0.869006
Core_0_LLC_prefetch_access 0
Core_0_LLC_prefetch_hit 0
Core_0_LLC_prefetch_miss 0
Core_0_LLC_prefetch_MPKI 0
Core_0_LLC_prefetch_miss_rate 0
Core_0_LLC_writeback_access 115706
Core_0_LLC_writeback_hit 44002
Core_0_LLC_writeback_miss 71704
Core_0_LLC_writeback_MPKI 1.43408
Core_0_LLC_writeback_miss_rate 0.619709
Core_0_LLC_prefetch_requested 0
Core_0_LLC_prefetch_issued 0
Core_0_LLC_prefetch_useful 0
Core_0_LLC_prefetch_useless 0
Core_0_LLC_prefetch_late 0
Core_0_LLC_prefetch_accuracy 0
Core_0_LLC_prefetch_coverage 0

[DRAM Statistics]
Channel_0_RQ_row_buffer_hit 25967
Channel_0_RQ_row_buffer_miss 818366
Channel_0_WQ_row_buffer_hit 24934
Channel_0_WQ_row_buffer_miss 87737
Channel_0_WQ_full 0
Channel_0_dbus_congested 2050746
DRAM_total_RQ_row_buffer_hit 25967
DRAM_total_RQ_row_buffer_miss 818366
DRAM_total_WQ_row_buffer_hit 24934
DRAM_total_WQ_row_buffer_miss 87737
DRAM_total_WQ_full 0
DRAM_total_dbus_congested 2050746
DRAM_avg_congested_cycle 18.5618

====== DRAM_RQ_TRAFFIC ========
DRAM_RQ_READ_TRAFFIC_BREAKDOWN:
data_demand_read.count = 832754
data_demand_read.share = 98.62%

inst_demand_read.count = 14
inst_demand_read.share = 0.00%

cache_inst_prefetch.count = 0
cache_inst_prefetch.share = 0.00%

cache_data_prefetch.count = 0
cache_data_prefetch.share = 0.00%

stlb_data_demand.count = 11638
stlb_data_demand.share = 1.38%

stlb_inst_demand.count = 0
stlb_inst_demand.share = 0.00%

stlb_l1i_pref.count = 0
stlb_l1i_pref.share = 0.00%

stlb_l1d_pref.count = 0
stlb_l1d_pref.share = 0.00%

DRAM_RQ_READ_TRAFFIC_SUMMARY:
cache_demand.count = 832768
cache_demand.share = 98.62%

cache_prefetch.count = 0
cache_prefetch.share = 0.00%

stlb_demand.count = 11638
stlb_demand.share = 1.38%

stlb_prefetch.count = 0
stlb_prefetch.share = 0.00%

DRAM_RQ_READ_TRAFFIC_DEBUG:
total_classified_read.count = 844406
unclassified_read.count = 0
total_read_with_other.count = 844406

classified_plus_unclassified_check.count = 844406
dram_rq_read_total_observed.count = 844406
dram_rq_read_total_observed.per_1K_instructions = 16.8881

STLB_MISS_PTW_DRAM_TOUCH_BREAKDOWN:
stlb_miss_total.count = 67893

stlb_miss_touch_dram.count = 11561
stlb_miss_touch_dram.share = 17.03%

stlb_miss_no_dram_touch.count = 56332
stlb_miss_no_dram_touch.share = 82.97%

STLB_MISS_PTW_DRAM_TOUCH_DEBUG:
stlb_miss_touch_plus_no_touch.count = 67893
stlb_miss_total_check.count = 67893

======STLB miss causes ========
Core_0_STLB_miss_cause_breakdown
Core_0_STLB_cause_Demand_Data_miss 67893
Core_0_STLB_cause_Demand_Data_miss_rate 0.607239
Core_0_STLB_cause_Demand_Instruction_miss 0
Core_0_STLB_cause_Demand_Instruction_miss_rate 0
Core_0_STLB_cause_L1D_Prefetch_miss 0
Core_0_STLB_cause_L1D_Prefetch_miss_rate 0
Core_0_STLB_cause_L1I_Prefetch_miss 0
Core_0_STLB_cause_L1I_Prefetch_miss_rate 0
Core_0_STLB_cause_Other_miss 0
Core_0_STLB_cause_Other_miss_rate 0
Core_0_STLB_Demand_miss 67893
Core_0_STLB_Demand_miss_rate 0.607239
Core_0_STLB_L1D_Prefetch_miss 0
Core_0_STLB_L1D_Prefetch_miss_rate 0
Core_0_STLB_Other_miss 0
Core_0_STLB_Other_miss_rate 0
