[VMEM] WARNING: physical memory size is smaller than virtual memory size.

*** ChampSim Multicore Out-of-Order Simulator ***
Warmup Instructions: 20000000
Simulation Instructions: 50000000
Number of CPUs: 1
Page size: 4096
Core 0: /data0/tzh/champsim_traces/QMM/compute_int_32_new.xz
Off-chip DRAM Size: 16 GiB Channels: 1 Width: 64-bit Data Rate: 3205 MT/s
[BTB] WARNING: target of return is a lower address than the corresponding call. This is usually a problem with your trace.
Warmup halting CPU 0 at instruction 20000000 cycle 5047416 for remainder of phase
Warmup finished CPU 0 instructions: 20000000 cycles: 5047416 cumulative IPC: 3.962 (Simulation time: 00 hr 00 min 56 sec)
Warmup complete CPU 0 instructions: 20000000 cycles: 5047416 cumulative IPC: 3.962 (Simulation time: 00 hr 00 min 56 sec)
*** Reached end of trace: (0, "/data0/tzh/champsim_traces/QMM/compute_int_32_new.xz")
[BTB] WARNING: target of return is a lower address than the corresponding call. This is usually a problem with your trace.
[BTB] WARNING: target of return is a lower address than the corresponding call. This is usually a problem with your trace.
*** Reached end of trace: (0, "/data0/tzh/champsim_traces/QMM/compute_int_32_new.xz")
[BTB] WARNING: target of return is a lower address than the corresponding call. This is usually a problem with your trace.
Simulation finished CPU 0 instructions: 50000000 cycles: 70425681 cumulative IPC: 0.71 (Simulation time: 00 hr 08 min 32 sec)
Simulation complete CPU 0 instructions: 50000000 cycles: 70425681 cumulative IPC: 0.71 (Simulation time: 00 hr 08 min 32 sec)

ChampSim completed all CPUs

=== Simulation ===
CPU 0 runs /data0/tzh/champsim_traces/QMM/compute_int_32_new.xz

Region of Interest Statistics

CPU 0 cumulative IPC: 0.71 instructions: 50000000 cycles: 70425681
CPU 0 Branch Prediction Accuracy: 99.13% MPKI: 1.931 Average ROB Occupancy at Mispredict: 156.5
Branch type MPKI
BRANCH_DIRECT_JUMP: 0.00108
BRANCH_INDIRECT: 1.121
BRANCH_CONDITIONAL: 0.6826
BRANCH_DIRECT_CALL: 0.00124
BRANCH_INDIRECT_CALL: 0.1231
BRANCH_RETURN: 0.0015

cpu0->cpu0_STLB TOTAL        ACCESS:     579694 HIT:     565775 MISS:      13919 MSHR_MERGE:          0
cpu0->cpu0_STLB LOAD         ACCESS:     579694 HIT:     565775 MISS:      13919 MSHR_MERGE:          0
cpu0->cpu0_STLB RFO          ACCESS:          0 HIT:          0 MISS:          0 MSHR_MERGE:          0
cpu0->cpu0_STLB PREFETCH     ACCESS:          0 HIT:          0 MISS:          0 MSHR_MERGE:          0
cpu0->cpu0_STLB WRITE        ACCESS:          0 HIT:          0 MISS:          0 MSHR_MERGE:          0
cpu0->cpu0_STLB TRANSLATION  ACCESS:          0 HIT:          0 MISS:          0 MSHR_MERGE:          0
cpu0->cpu0_STLB PREFETCH REQUESTED:          0 ISSUED:          0 USEFUL:          0 USELESS:          0 LATE:          0
cpu0->cpu0_STLB AVERAGE MISS LATENCY: 104.2 cycles
cpu0->cpu0_L2C TOTAL        ACCESS:    2212890 HIT:    1752503 MISS:     460387 MSHR_MERGE:          0
cpu0->cpu0_L2C LOAD         ACCESS:    2002210 HIT:    1600959 MISS:     401251 MSHR_MERGE:          0
cpu0->cpu0_L2C RFO          ACCESS:      64538 HIT:      11897 MISS:      52641 MSHR_MERGE:          0
cpu0->cpu0_L2C PREFETCH     ACCESS:          0 HIT:          0 MISS:          0 MSHR_MERGE:          0
cpu0->cpu0_L2C WRITE        ACCESS:     137918 HIT:     137674 MISS:        244 MSHR_MERGE:          0
cpu0->cpu0_L2C TRANSLATION  ACCESS:       8224 HIT:       1973 MISS:       6251 MSHR_MERGE:          0
cpu0->cpu0_L2C PREFETCH REQUESTED:          0 ISSUED:          0 USEFUL:          0 USELESS:          0 LATE:          0
cpu0->cpu0_L2C AVERAGE MISS LATENCY: 204 cycles
cpu0->cpu0_L1I TOTAL        ACCESS:    6602305 HIT:    5362553 MISS:    1239752 MSHR_MERGE:     299003
cpu0->cpu0_L1I LOAD         ACCESS:    6602305 HIT:    5362553 MISS:    1239752 MSHR_MERGE:     299003
cpu0->cpu0_L1I RFO          ACCESS:          0 HIT:          0 MISS:          0 MSHR_MERGE:          0
cpu0->cpu0_L1I PREFETCH     ACCESS:          0 HIT:          0 MISS:          0 MSHR_MERGE:          0
cpu0->cpu0_L1I WRITE        ACCESS:          0 HIT:          0 MISS:          0 MSHR_MERGE:          0
cpu0->cpu0_L1I TRANSLATION  ACCESS:          0 HIT:          0 MISS:          0 MSHR_MERGE:          0
cpu0->cpu0_L1I PREFETCH REQUESTED:          0 ISSUED:          0 USEFUL:          0 USELESS:          0 LATE:          0
cpu0->cpu0_L1I AVERAGE MISS LATENCY: 9.007 cycles
cpu0->cpu0_L1D TOTAL        ACCESS:   11818453 HIT:   10248605 MISS:    1569848 MSHR_MERGE:     435611
cpu0->cpu0_L1D LOAD         ACCESS:    7447151 HIT:    6074431 MISS:    1372720 MSHR_MERGE:     311255
cpu0->cpu0_L1D RFO          ACCESS:          0 HIT:          0 MISS:          0 MSHR_MERGE:          0
cpu0->cpu0_L1D PREFETCH     ACCESS:          0 HIT:          0 MISS:          0 MSHR_MERGE:          0
cpu0->cpu0_L1D WRITE        ACCESS:    4342110 HIT:    4153302 MISS:     188808 MSHR_MERGE:     124260
cpu0->cpu0_L1D TRANSLATION  ACCESS:      29192 HIT:      20872 MISS:       8320 MSHR_MERGE:         96
cpu0->cpu0_L1D PREFETCH REQUESTED:          0 ISSUED:          0 USEFUL:          0 USELESS:          0 LATE:          0
cpu0->cpu0_L1D AVERAGE MISS LATENCY: 89.89 cycles
cpu0->cpu0_ITLB TOTAL        ACCESS:    5906533 HIT:    5613655 MISS:     292878 MSHR_MERGE:     183400
cpu0->cpu0_ITLB LOAD         ACCESS:    5906533 HIT:    5613655 MISS:     292878 MSHR_MERGE:     183400
cpu0->cpu0_ITLB RFO          ACCESS:          0 HIT:          0 MISS:          0 MSHR_MERGE:          0
cpu0->cpu0_ITLB PREFETCH     ACCESS:          0 HIT:          0 MISS:          0 MSHR_MERGE:          0
cpu0->cpu0_ITLB WRITE        ACCESS:          0 HIT:          0 MISS:          0 MSHR_MERGE:          0
cpu0->cpu0_ITLB TRANSLATION  ACCESS:          0 HIT:          0 MISS:          0 MSHR_MERGE:          0
cpu0->cpu0_ITLB PREFETCH REQUESTED:          0 ISSUED:          0 USEFUL:          0 USELESS:          0 LATE:          0
cpu0->cpu0_ITLB AVERAGE MISS LATENCY: 5.673 cycles
cpu0->cpu0_DTLB TOTAL        ACCESS:   11228646 HIT:   10563802 MISS:     664844 MSHR_MERGE:     194627
cpu0->cpu0_DTLB LOAD         ACCESS:   11228646 HIT:   10563802 MISS:     664844 MSHR_MERGE:     194627
cpu0->cpu0_DTLB RFO          ACCESS:          0 HIT:          0 MISS:          0 MSHR_MERGE:          0
cpu0->cpu0_DTLB PREFETCH     ACCESS:          0 HIT:          0 MISS:          0 MSHR_MERGE:          0
cpu0->cpu0_DTLB WRITE        ACCESS:          0 HIT:          0 MISS:          0 MSHR_MERGE:          0
cpu0->cpu0_DTLB TRANSLATION  ACCESS:          0 HIT:          0 MISS:          0 MSHR_MERGE:          0
cpu0->cpu0_DTLB PREFETCH REQUESTED:          0 ISSUED:          0 USEFUL:          0 USELESS:          0 LATE:          0
cpu0->cpu0_DTLB AVERAGE MISS LATENCY: 7.968 cycles
cpu0->LLC TOTAL        ACCESS:     574872 HIT:      79022 MISS:     495850 MSHR_MERGE:          0
cpu0->LLC LOAD         ACCESS:     401251 HIT:      35677 MISS:     365574 MSHR_MERGE:          0
cpu0->LLC RFO          ACCESS:      52641 HIT:       4486 MISS:      48155 MSHR_MERGE:          0
cpu0->LLC PREFETCH     ACCESS:          0 HIT:          0 MISS:          0 MSHR_MERGE:          0
cpu0->LLC WRITE        ACCESS:     114729 HIT:      37310 MISS:      77419 MSHR_MERGE:          0
cpu0->LLC TRANSLATION  ACCESS:       6251 HIT:       1549 MISS:       4702 MSHR_MERGE:          0
cpu0->LLC PREFETCH REQUESTED:          0 ISSUED:          0 USEFUL:          0 USELESS:          0 LATE:          0
cpu0->LLC AVERAGE MISS LATENCY: 176 cycles

DRAM Statistics

Channel 0 RQ ROW_BUFFER_HIT:       1868
  ROW_BUFFER_MISS:     416556
  AVG DBUS CONGESTED CYCLE: 14.68
Channel 0 WQ ROW_BUFFER_HIT:      30008
  ROW_BUFFER_MISS:      74338
  FULL:          0
Channel 0 REFRESHES ISSUED:       5869

[ROI Statistics]
[System Configuration]
num_cpus 1
cpu_freq 4000
fetch_width 6
decode_width 6
dispatch_width 6
execute_width 6
lq_width 2
sq_width 2
retire_width 6
scheduler_size 128
branch_mispredict_penalty 15
rob_size 352
lq_size 128
sq_size 72
ifetch_buffer_size 64
decode_buffer_size 32
dispatch_buffer_size 32
register_file_size 288
decode_latency 1
dispatch_latency 1
schedule_latency 1
execute_latency 1
page_size 4096
block_size 64
core_0_itlb_set 16
core_0_itlb_way 4
core_0_itlb_rq_size 16
core_0_itlb_wq_size 16
core_0_itlb_pq_size 0
core_0_itlb_mshr_size 8
core_0_itlb_hit_latency 1
core_0_itlb_fill_latency 1
core_0_itlb_max_tag_check 2
core_0_itlb_max_fill 2
core_0_dtlb_set 16
core_0_dtlb_way 4
core_0_dtlb_rq_size 16
core_0_dtlb_wq_size 16
core_0_dtlb_pq_size 0
core_0_dtlb_mshr_size 8
core_0_dtlb_hit_latency 1
core_0_dtlb_fill_latency 1
core_0_dtlb_max_tag_check 2
core_0_dtlb_max_fill 2
core_0_stlb_set 128
core_0_stlb_way 12
core_0_stlb_rq_size 32
core_0_stlb_wq_size 32
core_0_stlb_pq_size 0
core_0_stlb_mshr_size 16
core_0_stlb_hit_latency 4
core_0_stlb_fill_latency 4
core_0_stlb_max_tag_check 1
core_0_stlb_max_fill 1
core_0_l1i_set 64
core_0_l1i_way 8
core_0_l1i_rq_size 64
core_0_l1i_wq_size 64
core_0_l1i_pq_size 32
core_0_l1i_mshr_size 8
core_0_l1i_hit_latency 2
core_0_l1i_fill_latency 2
core_0_l1i_max_tag_check 2
core_0_l1i_max_fill 2
core_0_l1d_set 64
core_0_l1d_way 12
core_0_l1d_rq_size 64
core_0_l1d_wq_size 64
core_0_l1d_pq_size 8
core_0_l1d_mshr_size 16
core_0_l1d_hit_latency 2
core_0_l1d_fill_latency 3
core_0_l1d_max_tag_check 2
core_0_l1d_max_fill 2
core_0_l2c_set 1024
core_0_l2c_way 8
core_0_l2c_rq_size 32
core_0_l2c_wq_size 32
core_0_l2c_pq_size 16
core_0_l2c_mshr_size 32
core_0_l2c_hit_latency 5
core_0_l2c_fill_latency 5
core_0_l2c_max_tag_check 1
core_0_l2c_max_fill 1
llc_set 2048
llc_way 16
llc_rq_size 32
llc_wq_size 32
llc_pq_size 32
llc_mshr_size 64
llc_hit_latency 10
llc_fill_latency 10
llc_max_tag_check 1
llc_max_fill 1
dram_channels 1
dram_ranks 1
dram_bankgroups 8
dram_banks 4
dram_rows 65536
dram_columns 1024
dram_channel_width 8
dram_rq_size 64
dram_wq_size 64
dram_size 17179869184
core_0_itlb_prefetcher no
core_0_dtlb_prefetcher no
core_0_stlb_prefetcher no
core_0_l1i_prefetcher no
core_0_l1d_prefetcher no
core_0_l2c_prefetcher no
llc_prefetcher no
llc_replacement drrip

Core_0_instructions 50000000
Core_0_cycles 70425681
Core_0_IPC 0.709968
Core_0_branch_prediction_accuracy 99.1279
Core_0_branch_MPKI 1.93068
Core_0_average_ROB_occupancy_at_mispredict 156.525

Core_0_ITLB_total_access 5906533
Core_0_ITLB_total_hit 5613655
Core_0_ITLB_total_miss 292878
Core_0_ITLB_total_MPKI 5.85756
Core_0_ITLB_total_miss_rate 0.0495854
Core_0_ITLB_demand_access 5906533
Core_0_ITLB_demand_hit 5613655
Core_0_ITLB_demand_miss 292878
Core_0_ITLB_demand_MPKI 5.85756
Core_0_ITLB_demand_miss_rate 0.0495854
Core_0_ITLB_load_access 5906533
Core_0_ITLB_load_hit 5613655
Core_0_ITLB_load_miss 292878
Core_0_ITLB_load_MPKI 5.85756
Core_0_ITLB_load_miss_rate 0.0495854
Core_0_ITLB_rfo_access 0
Core_0_ITLB_rfo_hit 0
Core_0_ITLB_rfo_miss 0
Core_0_ITLB_rfo_MPKI 0
Core_0_ITLB_rfo_miss_rate 0
Core_0_ITLB_prefetch_access 0
Core_0_ITLB_prefetch_hit 0
Core_0_ITLB_prefetch_miss 0
Core_0_ITLB_prefetch_MPKI 0
Core_0_ITLB_prefetch_miss_rate 0
Core_0_ITLB_writeback_access 0
Core_0_ITLB_writeback_hit 0
Core_0_ITLB_writeback_miss 0
Core_0_ITLB_writeback_MPKI 0
Core_0_ITLB_writeback_miss_rate 0
Core_0_ITLB_prefetch_requested 0
Core_0_ITLB_prefetch_issued 0
Core_0_ITLB_prefetch_useful 0
Core_0_ITLB_prefetch_useless 0
Core_0_ITLB_prefetch_late 0
Core_0_ITLB_prefetch_accuracy 0
Core_0_ITLB_prefetch_coverage 0

Core_0_DTLB_total_access 11228646
Core_0_DTLB_total_hit 10563802
Core_0_DTLB_total_miss 664844
Core_0_DTLB_total_MPKI 13.2969
Core_0_DTLB_total_miss_rate 0.0592096
Core_0_DTLB_demand_access 11228646
Core_0_DTLB_demand_hit 10563802
Core_0_DTLB_demand_miss 664844
Core_0_DTLB_demand_MPKI 13.2969
Core_0_DTLB_demand_miss_rate 0.0592096
Core_0_DTLB_load_access 11228646
Core_0_DTLB_load_hit 10563802
Core_0_DTLB_load_miss 664844
Core_0_DTLB_load_MPKI 13.2969
Core_0_DTLB_load_miss_rate 0.0592096
Core_0_DTLB_rfo_access 0
Core_0_DTLB_rfo_hit 0
Core_0_DTLB_rfo_miss 0
Core_0_DTLB_rfo_MPKI 0
Core_0_DTLB_rfo_miss_rate 0
Core_0_DTLB_prefetch_access 0
Core_0_DTLB_prefetch_hit 0
Core_0_DTLB_prefetch_miss 0
Core_0_DTLB_prefetch_MPKI 0
Core_0_DTLB_prefetch_miss_rate 0
Core_0_DTLB_writeback_access 0
Core_0_DTLB_writeback_hit 0
Core_0_DTLB_writeback_miss 0
Core_0_DTLB_writeback_MPKI 0
Core_0_DTLB_writeback_miss_rate 0
Core_0_DTLB_prefetch_requested 0
Core_0_DTLB_prefetch_issued 0
Core_0_DTLB_prefetch_useful 0
Core_0_DTLB_prefetch_useless 0
Core_0_DTLB_prefetch_late 0
Core_0_DTLB_prefetch_accuracy 0
Core_0_DTLB_prefetch_coverage 0

Core_0_STLB_total_access 579694
Core_0_STLB_total_hit 565775
Core_0_STLB_total_miss 13919
Core_0_STLB_total_MPKI 0.27838
Core_0_STLB_total_miss_rate 0.0240109
Core_0_STLB_demand_access 579694
Core_0_STLB_demand_hit 565775
Core_0_STLB_demand_miss 13919
Core_0_STLB_demand_MPKI 0.27838
Core_0_STLB_demand_miss_rate 0.0240109
Core_0_STLB_load_access 579694
Core_0_STLB_load_hit 565775
Core_0_STLB_load_miss 13919
Core_0_STLB_load_MPKI 0.27838
Core_0_STLB_load_miss_rate 0.0240109
Core_0_STLB_rfo_access 0
Core_0_STLB_rfo_hit 0
Core_0_STLB_rfo_miss 0
Core_0_STLB_rfo_MPKI 0
Core_0_STLB_rfo_miss_rate 0
Core_0_STLB_prefetch_access 0
Core_0_STLB_prefetch_hit 0
Core_0_STLB_prefetch_miss 0
Core_0_STLB_prefetch_MPKI 0
Core_0_STLB_prefetch_miss_rate 0
Core_0_STLB_writeback_access 0
Core_0_STLB_writeback_hit 0
Core_0_STLB_writeback_miss 0
Core_0_STLB_writeback_MPKI 0
Core_0_STLB_writeback_miss_rate 0
Core_0_STLB_prefetch_requested 0
Core_0_STLB_prefetch_issued 0
Core_0_STLB_prefetch_useful 0
Core_0_STLB_prefetch_useless 0
Core_0_STLB_prefetch_late 0
Core_0_STLB_prefetch_accuracy 0
Core_0_STLB_prefetch_coverage 0

Core_0_L1I_total_access 6602305
Core_0_L1I_total_hit 5362553
Core_0_L1I_total_miss 1239752
Core_0_L1I_total_MPKI 24.795
Core_0_L1I_total_miss_rate 0.187776
Core_0_L1I_demand_access 6602305
Core_0_L1I_demand_hit 5362553
Core_0_L1I_demand_miss 1239752
Core_0_L1I_demand_MPKI 24.795
Core_0_L1I_demand_miss_rate 0.187776
Core_0_L1I_load_access 6602305
Core_0_L1I_load_hit 5362553
Core_0_L1I_load_miss 1239752
Core_0_L1I_load_MPKI 24.795
Core_0_L1I_load_miss_rate 0.187776
Core_0_L1I_rfo_access 0
Core_0_L1I_rfo_hit 0
Core_0_L1I_rfo_miss 0
Core_0_L1I_rfo_MPKI 0
Core_0_L1I_rfo_miss_rate 0
Core_0_L1I_prefetch_access 0
Core_0_L1I_prefetch_hit 0
Core_0_L1I_prefetch_miss 0
Core_0_L1I_prefetch_MPKI 0
Core_0_L1I_prefetch_miss_rate 0
Core_0_L1I_writeback_access 0
Core_0_L1I_writeback_hit 0
Core_0_L1I_writeback_miss 0
Core_0_L1I_writeback_MPKI 0
Core_0_L1I_writeback_miss_rate 0
Core_0_L1I_prefetch_requested 0
Core_0_L1I_prefetch_issued 0
Core_0_L1I_prefetch_useful 0
Core_0_L1I_prefetch_useless 0
Core_0_L1I_prefetch_late 0
Core_0_L1I_prefetch_accuracy 0
Core_0_L1I_prefetch_coverage 0

Core_0_L1D_total_access 11789261
Core_0_L1D_total_hit 10227733
Core_0_L1D_total_miss 1561528
Core_0_L1D_total_MPKI 31.2306
Core_0_L1D_total_miss_rate 0.132453
Core_0_L1D_demand_access 7447151
Core_0_L1D_demand_hit 6074431
Core_0_L1D_demand_miss 1372720
Core_0_L1D_demand_MPKI 27.4544
Core_0_L1D_demand_miss_rate 0.184328
Core_0_L1D_load_access 7447151
Core_0_L1D_load_hit 6074431
Core_0_L1D_load_miss 1372720
Core_0_L1D_load_MPKI 27.4544
Core_0_L1D_load_miss_rate 0.184328
Core_0_L1D_rfo_access 0
Core_0_L1D_rfo_hit 0
Core_0_L1D_rfo_miss 0
Core_0_L1D_rfo_MPKI 0
Core_0_L1D_rfo_miss_rate 0
Core_0_L1D_prefetch_access 0
Core_0_L1D_prefetch_hit 0
Core_0_L1D_prefetch_miss 0
Core_0_L1D_prefetch_MPKI 0
Core_0_L1D_prefetch_miss_rate 0
Core_0_L1D_writeback_access 4342110
Core_0_L1D_writeback_hit 4153302
Core_0_L1D_writeback_miss 188808
Core_0_L1D_writeback_MPKI 3.77616
Core_0_L1D_writeback_miss_rate 0.043483
Core_0_L1D_prefetch_requested 0
Core_0_L1D_prefetch_issued 0
Core_0_L1D_prefetch_useful 0
Core_0_L1D_prefetch_useless 0
Core_0_L1D_prefetch_late 0
Core_0_L1D_prefetch_accuracy 0
Core_0_L1D_prefetch_coverage 0

Core_0_L2C_total_access 2204666
Core_0_L2C_total_hit 1750530
Core_0_L2C_total_miss 454136
Core_0_L2C_total_MPKI 9.08272
Core_0_L2C_total_miss_rate 0.205989
Core_0_L2C_demand_access 2066748
Core_0_L2C_demand_hit 1612856
Core_0_L2C_demand_miss 453892
Core_0_L2C_demand_MPKI 9.07784
Core_0_L2C_demand_miss_rate 0.219617
Core_0_L2C_load_access 2002210
Core_0_L2C_load_hit 1600959
Core_0_L2C_load_miss 401251
Core_0_L2C_load_MPKI 8.02502
Core_0_L2C_load_miss_rate 0.200404
Core_0_L2C_rfo_access 64538
Core_0_L2C_rfo_hit 11897
Core_0_L2C_rfo_miss 52641
Core_0_L2C_rfo_MPKI 1.05282
Core_0_L2C_rfo_miss_rate 0.815659
Core_0_L2C_prefetch_access 0
Core_0_L2C_prefetch_hit 0
Core_0_L2C_prefetch_miss 0
Core_0_L2C_prefetch_MPKI 0
Core_0_L2C_prefetch_miss_rate 0
Core_0_L2C_writeback_access 137918
Core_0_L2C_writeback_hit 137674
Core_0_L2C_writeback_miss 244
Core_0_L2C_writeback_MPKI 0.00488
Core_0_L2C_writeback_miss_rate 0.00176917
Core_0_L2C_prefetch_requested 0
Core_0_L2C_prefetch_issued 0
Core_0_L2C_prefetch_useful 0
Core_0_L2C_prefetch_useless 0
Core_0_L2C_prefetch_late 0
Core_0_L2C_prefetch_accuracy 0
Core_0_L2C_prefetch_coverage 0

Core_0_LLC_total_access 568621
Core_0_LLC_total_hit 77473
Core_0_LLC_total_miss 491148
Core_0_LLC_total_MPKI 9.82296
Core_0_LLC_total_miss_rate 0.863753
Core_0_LLC_demand_access 453892
Core_0_LLC_demand_hit 40163
Core_0_LLC_demand_miss 413729
Core_0_LLC_demand_MPKI 8.27458
Core_0_LLC_demand_miss_rate 0.911514
Core_0_LLC_load_access 401251
Core_0_LLC_load_hit 35677
Core_0_LLC_load_miss 365574
Core_0_LLC_load_MPKI 7.31148
Core_0_LLC_load_miss_rate 0.911086
Core_0_LLC_rfo_access 52641
Core_0_LLC_rfo_hit 4486
Core_0_LLC_rfo_miss 48155
Core_0_LLC_rfo_MPKI 0.9631
Core_0_LLC_rfo_miss_rate 0.914781
Core_0_LLC_prefetch_access 0
Core_0_LLC_prefetch_hit 0
Core_0_LLC_prefetch_miss 0
Core_0_LLC_prefetch_MPKI 0
Core_0_LLC_prefetch_miss_rate 0
Core_0_LLC_writeback_access 114729
Core_0_LLC_writeback_hit 37310
Core_0_LLC_writeback_miss 77419
Core_0_LLC_writeback_MPKI 1.54838
Core_0_LLC_writeback_miss_rate 0.674799
Core_0_LLC_prefetch_requested 0
Core_0_LLC_prefetch_issued 0
Core_0_LLC_prefetch_useful 0
Core_0_LLC_prefetch_useless 0
Core_0_LLC_prefetch_late 0
Core_0_LLC_prefetch_accuracy 0
Core_0_LLC_prefetch_coverage 0

[DRAM Statistics]
Channel_0_RQ_row_buffer_hit 1868
Channel_0_RQ_row_buffer_miss 416556
Channel_0_WQ_row_buffer_hit 30008
Channel_0_WQ_row_buffer_miss 74338
Channel_0_WQ_full 0
Channel_0_dbus_congested 1315738
DRAM_total_RQ_row_buffer_hit 1868
DRAM_total_RQ_row_buffer_miss 416556
DRAM_total_WQ_row_buffer_hit 30008
DRAM_total_WQ_row_buffer_miss 74338
DRAM_total_WQ_full 0
DRAM_total_dbus_congested 1315738
DRAM_avg_congested_cycle 14.6815

====== DRAM_RQ_TRAFFIC ========
DRAM_RQ_READ_TRAFFIC_BREAKDOWN:
data_demand_read.count = 407692
data_demand_read.share = 97.43%

inst_demand_read.count = 6037
inst_demand_read.share = 1.44%

cache_inst_prefetch.count = 0
cache_inst_prefetch.share = 0.00%

cache_data_prefetch.count = 0
cache_data_prefetch.share = 0.00%

stlb_data_demand.count = 4514
stlb_data_demand.share = 1.08%

stlb_inst_demand.count = 188
stlb_inst_demand.share = 0.04%

stlb_l1i_pref.count = 0
stlb_l1i_pref.share = 0.00%

stlb_l1d_pref.count = 0
stlb_l1d_pref.share = 0.00%

DRAM_RQ_READ_TRAFFIC_SUMMARY:
cache_demand.count = 413729
cache_demand.share = 98.88%

cache_prefetch.count = 0
cache_prefetch.share = 0.00%

stlb_demand.count = 4702
stlb_demand.share = 1.12%

stlb_prefetch.count = 0
stlb_prefetch.share = 0.00%

DRAM_RQ_READ_TRAFFIC_DEBUG:
total_classified_read.count = 418431
unclassified_read.count = 0
total_read_with_other.count = 418431

classified_plus_unclassified_check.count = 418431
dram_rq_read_total_observed.count = 418431
dram_rq_read_total_observed.per_1K_instructions = 8.36862

STLB_MISS_PTW_DRAM_TOUCH_BREAKDOWN:
stlb_miss_total.count = 13919

stlb_miss_touch_dram.count = 4545
stlb_miss_touch_dram.share = 32.65%

stlb_miss_no_dram_touch.count = 9374
stlb_miss_no_dram_touch.share = 67.35%

STLB_MISS_PTW_DRAM_TOUCH_DEBUG:
stlb_miss_touch_plus_no_touch.count = 13919
stlb_miss_total_check.count = 13919

======STLB miss causes ========
Core_0_STLB_miss_cause_breakdown
Core_0_STLB_cause_Demand_Data_miss 13294
Core_0_STLB_cause_Demand_Data_miss_rate 0.0229328
Core_0_STLB_cause_Demand_Instruction_miss 625
Core_0_STLB_cause_Demand_Instruction_miss_rate 0.00107816
Core_0_STLB_cause_L1D_Prefetch_miss 0
Core_0_STLB_cause_L1D_Prefetch_miss_rate 0
Core_0_STLB_cause_L1I_Prefetch_miss 0
Core_0_STLB_cause_L1I_Prefetch_miss_rate 0
Core_0_STLB_cause_Other_miss 0
Core_0_STLB_cause_Other_miss_rate 0
Core_0_STLB_Demand_miss 13919
Core_0_STLB_Demand_miss_rate 0.0240109
Core_0_STLB_L1D_Prefetch_miss 0
Core_0_STLB_L1D_Prefetch_miss_rate 0
Core_0_STLB_Other_miss 0
Core_0_STLB_Other_miss_rate 0
