[VMEM] WARNING: physical memory size is smaller than virtual memory size.

*** ChampSim Multicore Out-of-Order Simulator ***
Warmup Instructions: 20000000
Simulation Instructions: 50000000
Number of CPUs: 1
Page size: 4096
Core 0: /data0/tzh/champsim_traces/PARSEC/parsec_2.1.canneal.simlarge.prebuilt.drop_0M.length_250M.champsimtrace.xz
Off-chip DRAM Size: 16 GiB Channels: 1 Width: 64-bit Data Rate: 3205 MT/s
Warmup halting CPU 0 at instruction 20000003 cycle 5281196 for remainder of phase
Warmup finished CPU 0 instructions: 20000003 cycles: 5281196 cumulative IPC: 3.787 (Simulation time: 00 hr 01 min 06 sec)
Warmup complete CPU 0 instructions: 20000003 cycles: 5281196 cumulative IPC: 3.787 (Simulation time: 00 hr 01 min 06 sec)
Simulation finished CPU 0 instructions: 50000000 cycles: 79233451 cumulative IPC: 0.631 (Simulation time: 00 hr 09 min 48 sec)
Simulation complete CPU 0 instructions: 50000000 cycles: 79233451 cumulative IPC: 0.631 (Simulation time: 00 hr 09 min 48 sec)

ChampSim completed all CPUs

=== Simulation ===
CPU 0 runs /data0/tzh/champsim_traces/PARSEC/parsec_2.1.canneal.simlarge.prebuilt.drop_0M.length_250M.champsimtrace.xz

Region of Interest Statistics

CPU 0 cumulative IPC: 0.631 instructions: 50000000 cycles: 79233451
CPU 0 Branch Prediction Accuracy: 100% MPKI: 0.00646 Average ROB Occupancy at Mispredict: 175.6
Branch type MPKI
BRANCH_DIRECT_JUMP: 0.00032
BRANCH_INDIRECT: 4e-05
BRANCH_CONDITIONAL: 0.00548
BRANCH_DIRECT_CALL: 0.0003
BRANCH_INDIRECT_CALL: 4e-05
BRANCH_RETURN: 0.00028

cpu0->cpu0_STLB TOTAL        ACCESS:       8986 HIT:         89 MISS:       8897 MSHR_MERGE:          0
cpu0->cpu0_STLB LOAD         ACCESS:       8986 HIT:         89 MISS:       8897 MSHR_MERGE:          0
cpu0->cpu0_STLB RFO          ACCESS:          0 HIT:          0 MISS:          0 MSHR_MERGE:          0
cpu0->cpu0_STLB PREFETCH     ACCESS:          0 HIT:          0 MISS:          0 MSHR_MERGE:          0
cpu0->cpu0_STLB WRITE        ACCESS:          0 HIT:          0 MISS:          0 MSHR_MERGE:          0
cpu0->cpu0_STLB TRANSLATION  ACCESS:          0 HIT:          0 MISS:          0 MSHR_MERGE:          0
cpu0->cpu0_STLB PREFETCH REQUESTED:          0 ISSUED:          0 USEFUL:          0 USELESS:          0 LATE:          0
cpu0->cpu0_STLB AVERAGE MISS LATENCY: 208.4 cycles
cpu0->cpu0_L2C TOTAL        ACCESS:    1144847 HIT:     573142 MISS:     571705 MSHR_MERGE:          0
cpu0->cpu0_L2C LOAD         ACCESS:     486818 HIT:        324 MISS:     486494 MSHR_MERGE:          0
cpu0->cpu0_L2C RFO          ACCESS:      85217 HIT:       1257 MISS:      83960 MSHR_MERGE:          0
cpu0->cpu0_L2C PREFETCH     ACCESS:          0 HIT:          0 MISS:          0 MSHR_MERGE:          0
cpu0->cpu0_L2C WRITE        ACCESS:     571662 HIT:     571560 MISS:        102 MSHR_MERGE:          0
cpu0->cpu0_L2C TRANSLATION  ACCESS:       1150 HIT:          1 MISS:       1149 MSHR_MERGE:          0
cpu0->cpu0_L2C PREFETCH REQUESTED:          0 ISSUED:          0 USEFUL:          0 USELESS:          0 LATE:          0
cpu0->cpu0_L2C AVERAGE MISS LATENCY: 283.4 cycles
cpu0->cpu0_L1I TOTAL        ACCESS:   13583307 HIT:   13583185 MISS:        122 MSHR_MERGE:         21
cpu0->cpu0_L1I LOAD         ACCESS:   13583307 HIT:   13583185 MISS:        122 MSHR_MERGE:         21
cpu0->cpu0_L1I RFO          ACCESS:          0 HIT:          0 MISS:          0 MSHR_MERGE:          0
cpu0->cpu0_L1I PREFETCH     ACCESS:          0 HIT:          0 MISS:          0 MSHR_MERGE:          0
cpu0->cpu0_L1I WRITE        ACCESS:          0 HIT:          0 MISS:          0 MSHR_MERGE:          0
cpu0->cpu0_L1I TRANSLATION  ACCESS:          0 HIT:          0 MISS:          0 MSHR_MERGE:          0
cpu0->cpu0_L1I PREFETCH REQUESTED:          0 ISSUED:          0 USEFUL:          0 USELESS:          0 LATE:          0
cpu0->cpu0_L1I AVERAGE MISS LATENCY: 263.1 cycles
cpu0->cpu0_L1D TOTAL        ACCESS:   19982329 HIT:   17006925 MISS:    2975404 MSHR_MERGE:    2402179
cpu0->cpu0_L1D LOAD         ACCESS:    7922809 HIT:    7435822 MISS:     486987 MSHR_MERGE:        271
cpu0->cpu0_L1D RFO          ACCESS:          0 HIT:          0 MISS:          0 MSHR_MERGE:          0
cpu0->cpu0_L1D PREFETCH     ACCESS:          0 HIT:          0 MISS:          0 MSHR_MERGE:          0
cpu0->cpu0_L1D WRITE        ACCESS:   12041715 HIT:    9554453 MISS:    2487262 MSHR_MERGE:    2401903
cpu0->cpu0_L1D TRANSLATION  ACCESS:      17805 HIT:      16650 MISS:       1155 MSHR_MERGE:          5
cpu0->cpu0_L1D PREFETCH REQUESTED:          0 ISSUED:          0 USEFUL:          0 USELESS:          0 LATE:          0
cpu0->cpu0_L1D AVERAGE MISS LATENCY: 291.7 cycles
cpu0->cpu0_ITLB TOTAL        ACCESS:   12042106 HIT:   12042084 MISS:         22 MSHR_MERGE:         12
cpu0->cpu0_ITLB LOAD         ACCESS:   12042106 HIT:   12042084 MISS:         22 MSHR_MERGE:         12
cpu0->cpu0_ITLB RFO          ACCESS:          0 HIT:          0 MISS:          0 MSHR_MERGE:          0
cpu0->cpu0_ITLB PREFETCH     ACCESS:          0 HIT:          0 MISS:          0 MSHR_MERGE:          0
cpu0->cpu0_ITLB WRITE        ACCESS:          0 HIT:          0 MISS:          0 MSHR_MERGE:          0
cpu0->cpu0_ITLB TRANSLATION  ACCESS:          0 HIT:          0 MISS:          0 MSHR_MERGE:          0
cpu0->cpu0_ITLB PREFETCH REQUESTED:          0 ISSUED:          0 USEFUL:          0 USELESS:          0 LATE:          0
cpu0->cpu0_ITLB AVERAGE MISS LATENCY: 200.4 cycles
cpu0->cpu0_DTLB TOTAL        ACCESS:   19003957 HIT:   18980757 MISS:      23200 MSHR_MERGE:      14224
cpu0->cpu0_DTLB LOAD         ACCESS:   19003957 HIT:   18980757 MISS:      23200 MSHR_MERGE:      14224
cpu0->cpu0_DTLB RFO          ACCESS:          0 HIT:          0 MISS:          0 MSHR_MERGE:          0
cpu0->cpu0_DTLB PREFETCH     ACCESS:          0 HIT:          0 MISS:          0 MSHR_MERGE:          0
cpu0->cpu0_DTLB WRITE        ACCESS:          0 HIT:          0 MISS:          0 MSHR_MERGE:          0
cpu0->cpu0_DTLB TRANSLATION  ACCESS:          0 HIT:          0 MISS:          0 MSHR_MERGE:          0
cpu0->cpu0_DTLB PREFETCH REQUESTED:          0 ISSUED:          0 USEFUL:          0 USELESS:          0 LATE:          0
cpu0->cpu0_DTLB AVERAGE MISS LATENCY: 212.4 cycles
cpu0->LLC TOTAL        ACCESS:    1141815 HIT:     176763 MISS:     965052 MSHR_MERGE:          0
cpu0->LLC LOAD         ACCESS:     486494 HIT:          0 MISS:     486494 MSHR_MERGE:          0
cpu0->LLC RFO          ACCESS:      83960 HIT:          0 MISS:      83960 MSHR_MERGE:          0
cpu0->LLC PREFETCH     ACCESS:          0 HIT:          0 MISS:          0 MSHR_MERGE:          0
cpu0->LLC WRITE        ACCESS:     570212 HIT:     176757 MISS:     393455 MSHR_MERGE:          0
cpu0->LLC TRANSLATION  ACCESS:       1149 HIT:          6 MISS:       1143 MSHR_MERGE:          0
cpu0->LLC PREFETCH REQUESTED:          0 ISSUED:          0 USEFUL:          0 USELESS:          0 LATE:          0
cpu0->LLC AVERAGE MISS LATENCY: 162.1 cycles

DRAM Statistics

Channel 0 RQ ROW_BUFFER_HIT:      17499
  ROW_BUFFER_MISS:     554094
  AVG DBUS CONGESTED CYCLE: 8.051
Channel 0 WQ ROW_BUFFER_HIT:     164725
  ROW_BUFFER_MISS:     410606
  FULL:          0
Channel 0 REFRESHES ISSUED:       6602

[ROI Statistics]
[System Configuration]
num_cpus 1
cpu_freq 4000
fetch_width 6
decode_width 6
dispatch_width 6
execute_width 6
lq_width 2
sq_width 2
retire_width 6
scheduler_size 128
branch_mispredict_penalty 15
rob_size 352
lq_size 128
sq_size 72
ifetch_buffer_size 64
decode_buffer_size 32
dispatch_buffer_size 32
register_file_size 288
decode_latency 1
dispatch_latency 1
schedule_latency 1
execute_latency 1
page_size 4096
block_size 64
core_0_itlb_set 16
core_0_itlb_way 4
core_0_itlb_rq_size 16
core_0_itlb_wq_size 16
core_0_itlb_pq_size 0
core_0_itlb_mshr_size 8
core_0_itlb_hit_latency 1
core_0_itlb_fill_latency 1
core_0_itlb_max_tag_check 2
core_0_itlb_max_fill 2
core_0_dtlb_set 16
core_0_dtlb_way 4
core_0_dtlb_rq_size 16
core_0_dtlb_wq_size 16
core_0_dtlb_pq_size 0
core_0_dtlb_mshr_size 8
core_0_dtlb_hit_latency 1
core_0_dtlb_fill_latency 1
core_0_dtlb_max_tag_check 2
core_0_dtlb_max_fill 2
core_0_stlb_set 128
core_0_stlb_way 12
core_0_stlb_rq_size 32
core_0_stlb_wq_size 32
core_0_stlb_pq_size 0
core_0_stlb_mshr_size 16
core_0_stlb_hit_latency 4
core_0_stlb_fill_latency 4
core_0_stlb_max_tag_check 1
core_0_stlb_max_fill 1
core_0_l1i_set 64
core_0_l1i_way 8
core_0_l1i_rq_size 64
core_0_l1i_wq_size 64
core_0_l1i_pq_size 32
core_0_l1i_mshr_size 8
core_0_l1i_hit_latency 2
core_0_l1i_fill_latency 2
core_0_l1i_max_tag_check 2
core_0_l1i_max_fill 2
core_0_l1d_set 64
core_0_l1d_way 12
core_0_l1d_rq_size 64
core_0_l1d_wq_size 64
core_0_l1d_pq_size 8
core_0_l1d_mshr_size 16
core_0_l1d_hit_latency 2
core_0_l1d_fill_latency 3
core_0_l1d_max_tag_check 2
core_0_l1d_max_fill 2
core_0_l2c_set 1024
core_0_l2c_way 8
core_0_l2c_rq_size 32
core_0_l2c_wq_size 32
core_0_l2c_pq_size 16
core_0_l2c_mshr_size 32
core_0_l2c_hit_latency 5
core_0_l2c_fill_latency 5
core_0_l2c_max_tag_check 1
core_0_l2c_max_fill 1
llc_set 2048
llc_way 16
llc_rq_size 32
llc_wq_size 32
llc_pq_size 32
llc_mshr_size 64
llc_hit_latency 10
llc_fill_latency 10
llc_max_tag_check 1
llc_max_fill 1
dram_channels 1
dram_ranks 1
dram_bankgroups 8
dram_banks 4
dram_rows 65536
dram_columns 1024
dram_channel_width 8
dram_rq_size 64
dram_wq_size 64
dram_size 17179869184
core_0_itlb_prefetcher no
core_0_dtlb_prefetcher no
core_0_stlb_prefetcher no
core_0_l1i_prefetcher no
core_0_l1d_prefetcher no
core_0_l2c_prefetcher no
llc_prefetcher no
llc_replacement drrip

Core_0_instructions 50000000
Core_0_cycles 79233451
Core_0_IPC 0.631047
Core_0_branch_prediction_accuracy 99.9971
Core_0_branch_MPKI 0.00646
Core_0_average_ROB_occupancy_at_mispredict 175.638

Core_0_ITLB_total_access 12042106
Core_0_ITLB_total_hit 12042084
Core_0_ITLB_total_miss 22
Core_0_ITLB_total_MPKI 0.00044
Core_0_ITLB_total_miss_rate 1.82692e-06
Core_0_ITLB_demand_access 12042106
Core_0_ITLB_demand_hit 12042084
Core_0_ITLB_demand_miss 22
Core_0_ITLB_demand_MPKI 0.00044
Core_0_ITLB_demand_miss_rate 1.82692e-06
Core_0_ITLB_load_access 12042106
Core_0_ITLB_load_hit 12042084
Core_0_ITLB_load_miss 22
Core_0_ITLB_load_MPKI 0.00044
Core_0_ITLB_load_miss_rate 1.82692e-06
Core_0_ITLB_rfo_access 0
Core_0_ITLB_rfo_hit 0
Core_0_ITLB_rfo_miss 0
Core_0_ITLB_rfo_MPKI 0
Core_0_ITLB_rfo_miss_rate 0
Core_0_ITLB_prefetch_access 0
Core_0_ITLB_prefetch_hit 0
Core_0_ITLB_prefetch_miss 0
Core_0_ITLB_prefetch_MPKI 0
Core_0_ITLB_prefetch_miss_rate 0
Core_0_ITLB_writeback_access 0
Core_0_ITLB_writeback_hit 0
Core_0_ITLB_writeback_miss 0
Core_0_ITLB_writeback_MPKI 0
Core_0_ITLB_writeback_miss_rate 0
Core_0_ITLB_prefetch_requested 0
Core_0_ITLB_prefetch_issued 0
Core_0_ITLB_prefetch_useful 0
Core_0_ITLB_prefetch_useless 0
Core_0_ITLB_prefetch_late 0
Core_0_ITLB_prefetch_accuracy 0
Core_0_ITLB_prefetch_coverage 0

Core_0_DTLB_total_access 19003957
Core_0_DTLB_total_hit 18980757
Core_0_DTLB_total_miss 23200
Core_0_DTLB_total_MPKI 0.464
Core_0_DTLB_total_miss_rate 0.0012208
Core_0_DTLB_demand_access 19003957
Core_0_DTLB_demand_hit 18980757
Core_0_DTLB_demand_miss 23200
Core_0_DTLB_demand_MPKI 0.464
Core_0_DTLB_demand_miss_rate 0.0012208
Core_0_DTLB_load_access 19003957
Core_0_DTLB_load_hit 18980757
Core_0_DTLB_load_miss 23200
Core_0_DTLB_load_MPKI 0.464
Core_0_DTLB_load_miss_rate 0.0012208
Core_0_DTLB_rfo_access 0
Core_0_DTLB_rfo_hit 0
Core_0_DTLB_rfo_miss 0
Core_0_DTLB_rfo_MPKI 0
Core_0_DTLB_rfo_miss_rate 0
Core_0_DTLB_prefetch_access 0
Core_0_DTLB_prefetch_hit 0
Core_0_DTLB_prefetch_miss 0
Core_0_DTLB_prefetch_MPKI 0
Core_0_DTLB_prefetch_miss_rate 0
Core_0_DTLB_writeback_access 0
Core_0_DTLB_writeback_hit 0
Core_0_DTLB_writeback_miss 0
Core_0_DTLB_writeback_MPKI 0
Core_0_DTLB_writeback_miss_rate 0
Core_0_DTLB_prefetch_requested 0
Core_0_DTLB_prefetch_issued 0
Core_0_DTLB_prefetch_useful 0
Core_0_DTLB_prefetch_useless 0
Core_0_DTLB_prefetch_late 0
Core_0_DTLB_prefetch_accuracy 0
Core_0_DTLB_prefetch_coverage 0

Core_0_STLB_total_access 8986
Core_0_STLB_total_hit 89
Core_0_STLB_total_miss 8897
Core_0_STLB_total_MPKI 0.17794
Core_0_STLB_total_miss_rate 0.990096
Core_0_STLB_demand_access 8986
Core_0_STLB_demand_hit 89
Core_0_STLB_demand_miss 8897
Core_0_STLB_demand_MPKI 0.17794
Core_0_STLB_demand_miss_rate 0.990096
Core_0_STLB_load_access 8986
Core_0_STLB_load_hit 89
Core_0_STLB_load_miss 8897
Core_0_STLB_load_MPKI 0.17794
Core_0_STLB_load_miss_rate 0.990096
Core_0_STLB_rfo_access 0
Core_0_STLB_rfo_hit 0
Core_0_STLB_rfo_miss 0
Core_0_STLB_rfo_MPKI 0
Core_0_STLB_rfo_miss_rate 0
Core_0_STLB_prefetch_access 0
Core_0_STLB_prefetch_hit 0
Core_0_STLB_prefetch_miss 0
Core_0_STLB_prefetch_MPKI 0
Core_0_STLB_prefetch_miss_rate 0
Core_0_STLB_writeback_access 0
Core_0_STLB_writeback_hit 0
Core_0_STLB_writeback_miss 0
Core_0_STLB_writeback_MPKI 0
Core_0_STLB_writeback_miss_rate 0
Core_0_STLB_prefetch_requested 0
Core_0_STLB_prefetch_issued 0
Core_0_STLB_prefetch_useful 0
Core_0_STLB_prefetch_useless 0
Core_0_STLB_prefetch_late 0
Core_0_STLB_prefetch_accuracy 0
Core_0_STLB_prefetch_coverage 0

Core_0_L1I_total_access 13583307
Core_0_L1I_total_hit 13583185
Core_0_L1I_total_miss 122
Core_0_L1I_total_MPKI 0.00244
Core_0_L1I_total_miss_rate 8.98161e-06
Core_0_L1I_demand_access 13583307
Core_0_L1I_demand_hit 13583185
Core_0_L1I_demand_miss 122
Core_0_L1I_demand_MPKI 0.00244
Core_0_L1I_demand_miss_rate 8.98161e-06
Core_0_L1I_load_access 13583307
Core_0_L1I_load_hit 13583185
Core_0_L1I_load_miss 122
Core_0_L1I_load_MPKI 0.00244
Core_0_L1I_load_miss_rate 8.98161e-06
Core_0_L1I_rfo_access 0
Core_0_L1I_rfo_hit 0
Core_0_L1I_rfo_miss 0
Core_0_L1I_rfo_MPKI 0
Core_0_L1I_rfo_miss_rate 0
Core_0_L1I_prefetch_access 0
Core_0_L1I_prefetch_hit 0
Core_0_L1I_prefetch_miss 0
Core_0_L1I_prefetch_MPKI 0
Core_0_L1I_prefetch_miss_rate 0
Core_0_L1I_writeback_access 0
Core_0_L1I_writeback_hit 0
Core_0_L1I_writeback_miss 0
Core_0_L1I_writeback_MPKI 0
Core_0_L1I_writeback_miss_rate 0
Core_0_L1I_prefetch_requested 0
Core_0_L1I_prefetch_issued 0
Core_0_L1I_prefetch_useful 0
Core_0_L1I_prefetch_useless 0
Core_0_L1I_prefetch_late 0
Core_0_L1I_prefetch_accuracy 0
Core_0_L1I_prefetch_coverage 0

Core_0_L1D_total_access 19964524
Core_0_L1D_total_hit 16990275
Core_0_L1D_total_miss 2974249
Core_0_L1D_total_MPKI 59.485
Core_0_L1D_total_miss_rate 0.148977
Core_0_L1D_demand_access 7922809
Core_0_L1D_demand_hit 7435822
Core_0_L1D_demand_miss 486987
Core_0_L1D_demand_MPKI 9.73974
Core_0_L1D_demand_miss_rate 0.0614665
Core_0_L1D_load_access 7922809
Core_0_L1D_load_hit 7435822
Core_0_L1D_load_miss 486987
Core_0_L1D_load_MPKI 9.73974
Core_0_L1D_load_miss_rate 0.0614665
Core_0_L1D_rfo_access 0
Core_0_L1D_rfo_hit 0
Core_0_L1D_rfo_miss 0
Core_0_L1D_rfo_MPKI 0
Core_0_L1D_rfo_miss_rate 0
Core_0_L1D_prefetch_access 0
Core_0_L1D_prefetch_hit 0
Core_0_L1D_prefetch_miss 0
Core_0_L1D_prefetch_MPKI 0
Core_0_L1D_prefetch_miss_rate 0
Core_0_L1D_writeback_access 12041715
Core_0_L1D_writeback_hit 9554453
Core_0_L1D_writeback_miss 2487262
Core_0_L1D_writeback_MPKI 49.7452
Core_0_L1D_writeback_miss_rate 0.206554
Core_0_L1D_prefetch_requested 0
Core_0_L1D_prefetch_issued 0
Core_0_L1D_prefetch_useful 0
Core_0_L1D_prefetch_useless 0
Core_0_L1D_prefetch_late 0
Core_0_L1D_prefetch_accuracy 0
Core_0_L1D_prefetch_coverage 0

Core_0_L2C_total_access 1143697
Core_0_L2C_total_hit 573141
Core_0_L2C_total_miss 570556
Core_0_L2C_total_MPKI 11.4111
Core_0_L2C_total_miss_rate 0.49887
Core_0_L2C_demand_access 572035
Core_0_L2C_demand_hit 1581
Core_0_L2C_demand_miss 570454
Core_0_L2C_demand_MPKI 11.4091
Core_0_L2C_demand_miss_rate 0.997236
Core_0_L2C_load_access 486818
Core_0_L2C_load_hit 324
Core_0_L2C_load_miss 486494
Core_0_L2C_load_MPKI 9.72988
Core_0_L2C_load_miss_rate 0.999334
Core_0_L2C_rfo_access 85217
Core_0_L2C_rfo_hit 1257
Core_0_L2C_rfo_miss 83960
Core_0_L2C_rfo_MPKI 1.6792
Core_0_L2C_rfo_miss_rate 0.985249
Core_0_L2C_prefetch_access 0
Core_0_L2C_prefetch_hit 0
Core_0_L2C_prefetch_miss 0
Core_0_L2C_prefetch_MPKI 0
Core_0_L2C_prefetch_miss_rate 0
Core_0_L2C_writeback_access 571662
Core_0_L2C_writeback_hit 571560
Core_0_L2C_writeback_miss 102
Core_0_L2C_writeback_MPKI 0.00204
Core_0_L2C_writeback_miss_rate 0.000178427
Core_0_L2C_prefetch_requested 0
Core_0_L2C_prefetch_issued 0
Core_0_L2C_prefetch_useful 0
Core_0_L2C_prefetch_useless 0
Core_0_L2C_prefetch_late 0
Core_0_L2C_prefetch_accuracy 0
Core_0_L2C_prefetch_coverage 0

Core_0_LLC_total_access 1140666
Core_0_LLC_total_hit 176757
Core_0_LLC_total_miss 963909
Core_0_LLC_total_MPKI 19.2782
Core_0_LLC_total_miss_rate 0.845041
Core_0_LLC_demand_access 570454
Core_0_LLC_demand_hit 0
Core_0_LLC_demand_miss 570454
Core_0_LLC_demand_MPKI 11.4091
Core_0_LLC_demand_miss_rate 1
Core_0_LLC_load_access 486494
Core_0_LLC_load_hit 0
Core_0_LLC_load_miss 486494
Core_0_LLC_load_MPKI 9.72988
Core_0_LLC_load_miss_rate 1
Core_0_LLC_rfo_access 83960
Core_0_LLC_rfo_hit 0
Core_0_LLC_rfo_miss 83960
Core_0_LLC_rfo_MPKI 1.6792
Core_0_LLC_rfo_miss_rate 1
Core_0_LLC_prefetch_access 0
Core_0_LLC_prefetch_hit 0
Core_0_LLC_prefetch_miss 0
Core_0_LLC_prefetch_MPKI 0
Core_0_LLC_prefetch_miss_rate 0
Core_0_LLC_writeback_access 570212
Core_0_LLC_writeback_hit 176757
Core_0_LLC_writeback_miss 393455
Core_0_LLC_writeback_MPKI 7.8691
Core_0_LLC_writeback_miss_rate 0.690015
Core_0_LLC_prefetch_requested 0
Core_0_LLC_prefetch_issued 0
Core_0_LLC_prefetch_useful 0
Core_0_LLC_prefetch_useless 0
Core_0_LLC_prefetch_late 0
Core_0_LLC_prefetch_accuracy 0
Core_0_LLC_prefetch_coverage 0

[DRAM Statistics]
Channel_0_RQ_row_buffer_hit 17499
Channel_0_RQ_row_buffer_miss 554094
Channel_0_WQ_row_buffer_hit 164725
Channel_0_WQ_row_buffer_miss 410606
Channel_0_WQ_full 0
Channel_0_dbus_congested 4031334
DRAM_total_RQ_row_buffer_hit 17499
DRAM_total_RQ_row_buffer_miss 554094
DRAM_total_WQ_row_buffer_hit 164725
DRAM_total_WQ_row_buffer_miss 410606
DRAM_total_WQ_full 0
DRAM_total_dbus_congested 4031334
DRAM_avg_congested_cycle 8.05127

====== DRAM_RQ_TRAFFIC ========
DRAM_RQ_READ_TRAFFIC_BREAKDOWN:
data_demand_read.count = 570353
data_demand_read.share = 99.78%

inst_demand_read.count = 101
inst_demand_read.share = 0.02%

cache_inst_prefetch.count = 0
cache_inst_prefetch.share = 0.00%

cache_data_prefetch.count = 0
cache_data_prefetch.share = 0.00%

stlb_data_demand.count = 1137
stlb_data_demand.share = 0.20%

stlb_inst_demand.count = 6
stlb_inst_demand.share = 0.00%

stlb_l1i_pref.count = 0
stlb_l1i_pref.share = 0.00%

stlb_l1d_pref.count = 0
stlb_l1d_pref.share = 0.00%

DRAM_RQ_READ_TRAFFIC_SUMMARY:
cache_demand.count = 570454
cache_demand.share = 99.80%

cache_prefetch.count = 0
cache_prefetch.share = 0.00%

stlb_demand.count = 1143
stlb_demand.share = 0.20%

stlb_prefetch.count = 0
stlb_prefetch.share = 0.00%

DRAM_RQ_READ_TRAFFIC_DEBUG:
total_classified_read.count = 571597
unclassified_read.count = 0
total_read_with_other.count = 571597

classified_plus_unclassified_check.count = 571597
dram_rq_read_total_observed.count = 571597
dram_rq_read_total_observed.per_1K_instructions = 11.4319

STLB_MISS_PTW_DRAM_TOUCH_BREAKDOWN:
stlb_miss_total.count = 8896

stlb_miss_touch_dram.count = 1135
stlb_miss_touch_dram.share = 12.76%

stlb_miss_no_dram_touch.count = 7761
stlb_miss_no_dram_touch.share = 87.24%

STLB_MISS_PTW_DRAM_TOUCH_DEBUG:
stlb_miss_touch_plus_no_touch.count = 8896
stlb_miss_total_check.count = 8896

======STLB miss causes ========
Core_0_STLB_miss_cause_breakdown
Core_0_STLB_cause_Demand_Data_miss 8887
Core_0_STLB_cause_Demand_Data_miss_rate 0.988983
Core_0_STLB_cause_Demand_Instruction_miss 10
Core_0_STLB_cause_Demand_Instruction_miss_rate 0.00111284
Core_0_STLB_cause_L1D_Prefetch_miss 0
Core_0_STLB_cause_L1D_Prefetch_miss_rate 0
Core_0_STLB_cause_L1I_Prefetch_miss 0
Core_0_STLB_cause_L1I_Prefetch_miss_rate 0
Core_0_STLB_cause_Other_miss 0
Core_0_STLB_cause_Other_miss_rate 0
Core_0_STLB_Demand_miss 8897
Core_0_STLB_Demand_miss_rate 0.990096
Core_0_STLB_L1D_Prefetch_miss 0
Core_0_STLB_L1D_Prefetch_miss_rate 0
Core_0_STLB_Other_miss 0
Core_0_STLB_Other_miss_rate 0
