[VMEM] WARNING: physical memory size is smaller than virtual memory size.

*** ChampSim Multicore Out-of-Order Simulator ***
Warmup Instructions: 20000000
Simulation Instructions: 50000000
Number of CPUs: 1
Page size: 4096
Core 0: /data0/tzh/champsim_traces/QMM/srv_40_new.xz
Off-chip DRAM Size: 16 GiB Channels: 1 Width: 64-bit Data Rate: 3205 MT/s
[BTB] WARNING: target of return is a lower address than the corresponding call. This is usually a problem with your trace.
[BTB] WARNING: target of return is a lower address than the corresponding call. This is usually a problem with your trace.
[BTB] WARNING: target of return is a lower address than the corresponding call. This is usually a problem with your trace.
[BTB] WARNING: target of return is a lower address than the corresponding call. This is usually a problem with your trace.
[BTB] WARNING: target of return is a lower address than the corresponding call. This is usually a problem with your trace.
[BTB] WARNING: target of return is a lower address than the corresponding call. This is usually a problem with your trace.
[BTB] WARNING: target of return is a lower address than the corresponding call. This is usually a problem with your trace.
[BTB] WARNING: target of return is a lower address than the corresponding call. This is usually a problem with your trace.
[BTB] WARNING: target of return is a lower address than the corresponding call. This is usually a problem with your trace.
[BTB] WARNING: target of return is a lower address than the corresponding call. This is usually a problem with your trace.
Warmup halting CPU 0 at instruction 20000004 cycle 4849316 for remainder of phase
Warmup finished CPU 0 instructions: 20000004 cycles: 4849316 cumulative IPC: 4.124 (Simulation time: 00 hr 00 min 52 sec)
Warmup complete CPU 0 instructions: 20000004 cycles: 4849316 cumulative IPC: 4.124 (Simulation time: 00 hr 00 min 52 sec)
*** Reached end of trace: (0, "/data0/tzh/champsim_traces/QMM/srv_40_new.xz")
*** Reached end of trace: (0, "/data0/tzh/champsim_traces/QMM/srv_40_new.xz")
Simulation finished CPU 0 instructions: 50000000 cycles: 39115313 cumulative IPC: 1.278 (Simulation time: 00 hr 05 min 59 sec)
Simulation complete CPU 0 instructions: 50000000 cycles: 39115313 cumulative IPC: 1.278 (Simulation time: 00 hr 05 min 59 sec)

ChampSim completed all CPUs

=== Simulation ===
CPU 0 runs /data0/tzh/champsim_traces/QMM/srv_40_new.xz

Region of Interest Statistics

CPU 0 cumulative IPC: 1.278 instructions: 50000000 cycles: 39115313
CPU 0 Branch Prediction Accuracy: 98.97% MPKI: 0.8528 Average ROB Occupancy at Mispredict: 118.3
Branch type MPKI
BRANCH_DIRECT_JUMP: 0.0435
BRANCH_INDIRECT: 0.02196
BRANCH_CONDITIONAL: 0.5731
BRANCH_DIRECT_CALL: 0.08394
BRANCH_INDIRECT_CALL: 0.07592
BRANCH_RETURN: 0.05432

cpu0->cpu0_STLB TOTAL        ACCESS:     137289 HIT:     125475 MISS:      11814 MSHR_MERGE:          0
cpu0->cpu0_STLB LOAD         ACCESS:     137289 HIT:     125475 MISS:      11814 MSHR_MERGE:          0
cpu0->cpu0_STLB RFO          ACCESS:          0 HIT:          0 MISS:          0 MSHR_MERGE:          0
cpu0->cpu0_STLB PREFETCH     ACCESS:          0 HIT:          0 MISS:          0 MSHR_MERGE:          0
cpu0->cpu0_STLB WRITE        ACCESS:          0 HIT:          0 MISS:          0 MSHR_MERGE:          0
cpu0->cpu0_STLB TRANSLATION  ACCESS:          0 HIT:          0 MISS:          0 MSHR_MERGE:          0
cpu0->cpu0_STLB PREFETCH REQUESTED:          0 ISSUED:          0 USEFUL:          0 USELESS:          0 LATE:          0
cpu0->cpu0_STLB AVERAGE MISS LATENCY: 146.3 cycles
cpu0->cpu0_L2C TOTAL        ACCESS:    1214272 HIT:     776662 MISS:     437610 MSHR_MERGE:          0
cpu0->cpu0_L2C LOAD         ACCESS:     628188 HIT:     426954 MISS:     201234 MSHR_MERGE:          0
cpu0->cpu0_L2C RFO          ACCESS:     261697 HIT:      31289 MISS:     230408 MSHR_MERGE:          0
cpu0->cpu0_L2C PREFETCH     ACCESS:          0 HIT:          0 MISS:          0 MSHR_MERGE:          0
cpu0->cpu0_L2C WRITE        ACCESS:     316368 HIT:     316109 MISS:        259 MSHR_MERGE:          0
cpu0->cpu0_L2C TRANSLATION  ACCESS:       8019 HIT:       2310 MISS:       5709 MSHR_MERGE:          0
cpu0->cpu0_L2C PREFETCH REQUESTED:          0 ISSUED:          0 USEFUL:          0 USELESS:          0 LATE:          0
cpu0->cpu0_L2C AVERAGE MISS LATENCY: 393.4 cycles
cpu0->cpu0_L1I TOTAL        ACCESS:   10597086 HIT:   10121604 MISS:     475482 MSHR_MERGE:     159637
cpu0->cpu0_L1I LOAD         ACCESS:   10597086 HIT:   10121604 MISS:     475482 MSHR_MERGE:     159637
cpu0->cpu0_L1I RFO          ACCESS:          0 HIT:          0 MISS:          0 MSHR_MERGE:          0
cpu0->cpu0_L1I PREFETCH     ACCESS:          0 HIT:          0 MISS:          0 MSHR_MERGE:          0
cpu0->cpu0_L1I WRITE        ACCESS:          0 HIT:          0 MISS:          0 MSHR_MERGE:          0
cpu0->cpu0_L1I TRANSLATION  ACCESS:          0 HIT:          0 MISS:          0 MSHR_MERGE:          0
cpu0->cpu0_L1I PREFETCH REQUESTED:          0 ISSUED:          0 USEFUL:          0 USELESS:          0 LATE:          0
cpu0->cpu0_L1I AVERAGE MISS LATENCY: 24.81 cycles
cpu0->cpu0_L1D TOTAL        ACCESS:   13120972 HIT:   11619546 MISS:    1501426 MSHR_MERGE:     919362
cpu0->cpu0_L1D LOAD         ACCESS:    9999230 HIT:    9576144 MISS:     423086 MSHR_MERGE:     110740
cpu0->cpu0_L1D RFO          ACCESS:          0 HIT:          0 MISS:          0 MSHR_MERGE:          0
cpu0->cpu0_L1D PREFETCH     ACCESS:          0 HIT:          0 MISS:          0 MSHR_MERGE:          0
cpu0->cpu0_L1D WRITE        ACCESS:    3095311 HIT:    2025206 MISS:    1070105 MSHR_MERGE:     808406
cpu0->cpu0_L1D TRANSLATION  ACCESS:      26431 HIT:      18196 MISS:       8235 MSHR_MERGE:        216
cpu0->cpu0_L1D PREFETCH REQUESTED:          0 ISSUED:          0 USEFUL:          0 USELESS:          0 LATE:          0
cpu0->cpu0_L1D AVERAGE MISS LATENCY: 295.4 cycles
cpu0->cpu0_ITLB TOTAL        ACCESS:    9729524 HIT:    9586816 MISS:     142708 MSHR_MERGE:      84119
cpu0->cpu0_ITLB LOAD         ACCESS:    9729524 HIT:    9586816 MISS:     142708 MSHR_MERGE:      84119
cpu0->cpu0_ITLB RFO          ACCESS:          0 HIT:          0 MISS:          0 MSHR_MERGE:          0
cpu0->cpu0_ITLB PREFETCH     ACCESS:          0 HIT:          0 MISS:          0 MSHR_MERGE:          0
cpu0->cpu0_ITLB WRITE        ACCESS:          0 HIT:          0 MISS:          0 MSHR_MERGE:          0
cpu0->cpu0_ITLB TRANSLATION  ACCESS:          0 HIT:          0 MISS:          0 MSHR_MERGE:          0
cpu0->cpu0_ITLB PREFETCH REQUESTED:          0 ISSUED:          0 USEFUL:          0 USELESS:          0 LATE:          0
cpu0->cpu0_ITLB AVERAGE MISS LATENCY: 8.58 cycles
cpu0->cpu0_DTLB TOTAL        ACCESS:   12682598 HIT:   12520343 MISS:     162255 MSHR_MERGE:      83555
cpu0->cpu0_DTLB LOAD         ACCESS:   12682598 HIT:   12520343 MISS:     162255 MSHR_MERGE:      83555
cpu0->cpu0_DTLB RFO          ACCESS:          0 HIT:          0 MISS:          0 MSHR_MERGE:          0
cpu0->cpu0_DTLB PREFETCH     ACCESS:          0 HIT:          0 MISS:          0 MSHR_MERGE:          0
cpu0->cpu0_DTLB WRITE        ACCESS:          0 HIT:          0 MISS:          0 MSHR_MERGE:          0
cpu0->cpu0_DTLB TRANSLATION  ACCESS:          0 HIT:          0 MISS:          0 MSHR_MERGE:          0
cpu0->cpu0_DTLB PREFETCH REQUESTED:          0 ISSUED:          0 USEFUL:          0 USELESS:          0 LATE:          0
cpu0->cpu0_DTLB AVERAGE MISS LATENCY: 24.48 cycles
cpu0->LLC TOTAL        ACCESS:     686347 HIT:     279165 MISS:     407182 MSHR_MERGE:          0
cpu0->LLC LOAD         ACCESS:     201234 HIT:      51193 MISS:     150041 MSHR_MERGE:          0
cpu0->LLC RFO          ACCESS:     230408 HIT:       6399 MISS:     224009 MSHR_MERGE:          0
cpu0->LLC PREFETCH     ACCESS:          0 HIT:          0 MISS:          0 MSHR_MERGE:          0
cpu0->LLC WRITE        ACCESS:     248996 HIT:     219738 MISS:      29258 MSHR_MERGE:          0
cpu0->LLC TRANSLATION  ACCESS:       5709 HIT:       1835 MISS:       3874 MSHR_MERGE:          0
cpu0->LLC PREFETCH REQUESTED:          0 ISSUED:          0 USEFUL:          0 USELESS:          0 LATE:          0
cpu0->LLC AVERAGE MISS LATENCY: 406.3 cycles

DRAM Statistics

Channel 0 RQ ROW_BUFFER_HIT:      27467
  ROW_BUFFER_MISS:     350456
  AVG DBUS CONGESTED CYCLE: 7.624
Channel 0 WQ ROW_BUFFER_HIT:      25022
  ROW_BUFFER_MISS:     215290
  FULL:          0
Channel 0 REFRESHES ISSUED:       3259

[ROI Statistics]
[System Configuration]
num_cpus 1
cpu_freq 4000
fetch_width 6
decode_width 6
dispatch_width 6
execute_width 6
lq_width 2
sq_width 2
retire_width 6
scheduler_size 128
branch_mispredict_penalty 15
rob_size 352
lq_size 128
sq_size 72
ifetch_buffer_size 64
decode_buffer_size 32
dispatch_buffer_size 32
register_file_size 288
decode_latency 1
dispatch_latency 1
schedule_latency 1
execute_latency 1
page_size 4096
block_size 64
core_0_itlb_set 16
core_0_itlb_way 4
core_0_itlb_rq_size 16
core_0_itlb_wq_size 16
core_0_itlb_pq_size 0
core_0_itlb_mshr_size 8
core_0_itlb_hit_latency 1
core_0_itlb_fill_latency 1
core_0_itlb_max_tag_check 2
core_0_itlb_max_fill 2
core_0_dtlb_set 16
core_0_dtlb_way 4
core_0_dtlb_rq_size 16
core_0_dtlb_wq_size 16
core_0_dtlb_pq_size 0
core_0_dtlb_mshr_size 8
core_0_dtlb_hit_latency 1
core_0_dtlb_fill_latency 1
core_0_dtlb_max_tag_check 2
core_0_dtlb_max_fill 2
core_0_stlb_set 128
core_0_stlb_way 12
core_0_stlb_rq_size 32
core_0_stlb_wq_size 32
core_0_stlb_pq_size 0
core_0_stlb_mshr_size 16
core_0_stlb_hit_latency 4
core_0_stlb_fill_latency 4
core_0_stlb_max_tag_check 1
core_0_stlb_max_fill 1
core_0_l1i_set 64
core_0_l1i_way 8
core_0_l1i_rq_size 64
core_0_l1i_wq_size 64
core_0_l1i_pq_size 32
core_0_l1i_mshr_size 8
core_0_l1i_hit_latency 2
core_0_l1i_fill_latency 2
core_0_l1i_max_tag_check 2
core_0_l1i_max_fill 2
core_0_l1d_set 64
core_0_l1d_way 12
core_0_l1d_rq_size 64
core_0_l1d_wq_size 64
core_0_l1d_pq_size 8
core_0_l1d_mshr_size 16
core_0_l1d_hit_latency 2
core_0_l1d_fill_latency 3
core_0_l1d_max_tag_check 2
core_0_l1d_max_fill 2
core_0_l2c_set 1024
core_0_l2c_way 8
core_0_l2c_rq_size 32
core_0_l2c_wq_size 32
core_0_l2c_pq_size 16
core_0_l2c_mshr_size 32
core_0_l2c_hit_latency 5
core_0_l2c_fill_latency 5
core_0_l2c_max_tag_check 1
core_0_l2c_max_fill 1
llc_set 2048
llc_way 16
llc_rq_size 32
llc_wq_size 32
llc_pq_size 32
llc_mshr_size 64
llc_hit_latency 10
llc_fill_latency 10
llc_max_tag_check 1
llc_max_fill 1
dram_channels 1
dram_ranks 1
dram_bankgroups 8
dram_banks 4
dram_rows 65536
dram_columns 1024
dram_channel_width 8
dram_rq_size 64
dram_wq_size 64
dram_size 17179869184
core_0_itlb_prefetcher no
core_0_dtlb_prefetcher no
core_0_stlb_prefetcher no
core_0_l1i_prefetcher no
core_0_l1d_prefetcher no
core_0_l2c_prefetcher no
llc_prefetcher no
llc_replacement drrip

Core_0_instructions 50000000
Core_0_cycles 39115313
Core_0_IPC 1.27827
Core_0_branch_prediction_accuracy 98.9738
Core_0_branch_MPKI 0.85276
Core_0_average_ROB_occupancy_at_mispredict 118.309

Core_0_ITLB_total_access 9729524
Core_0_ITLB_total_hit 9586816
Core_0_ITLB_total_miss 142708
Core_0_ITLB_total_MPKI 2.85416
Core_0_ITLB_total_miss_rate 0.0146675
Core_0_ITLB_demand_access 9729524
Core_0_ITLB_demand_hit 9586816
Core_0_ITLB_demand_miss 142708
Core_0_ITLB_demand_MPKI 2.85416
Core_0_ITLB_demand_miss_rate 0.0146675
Core_0_ITLB_load_access 9729524
Core_0_ITLB_load_hit 9586816
Core_0_ITLB_load_miss 142708
Core_0_ITLB_load_MPKI 2.85416
Core_0_ITLB_load_miss_rate 0.0146675
Core_0_ITLB_rfo_access 0
Core_0_ITLB_rfo_hit 0
Core_0_ITLB_rfo_miss 0
Core_0_ITLB_rfo_MPKI 0
Core_0_ITLB_rfo_miss_rate 0
Core_0_ITLB_prefetch_access 0
Core_0_ITLB_prefetch_hit 0
Core_0_ITLB_prefetch_miss 0
Core_0_ITLB_prefetch_MPKI 0
Core_0_ITLB_prefetch_miss_rate 0
Core_0_ITLB_writeback_access 0
Core_0_ITLB_writeback_hit 0
Core_0_ITLB_writeback_miss 0
Core_0_ITLB_writeback_MPKI 0
Core_0_ITLB_writeback_miss_rate 0
Core_0_ITLB_prefetch_requested 0
Core_0_ITLB_prefetch_issued 0
Core_0_ITLB_prefetch_useful 0
Core_0_ITLB_prefetch_useless 0
Core_0_ITLB_prefetch_late 0
Core_0_ITLB_prefetch_accuracy 0
Core_0_ITLB_prefetch_coverage 0

Core_0_DTLB_total_access 12682598
Core_0_DTLB_total_hit 12520343
Core_0_DTLB_total_miss 162255
Core_0_DTLB_total_MPKI 3.2451
Core_0_DTLB_total_miss_rate 0.0127935
Core_0_DTLB_demand_access 12682598
Core_0_DTLB_demand_hit 12520343
Core_0_DTLB_demand_miss 162255
Core_0_DTLB_demand_MPKI 3.2451
Core_0_DTLB_demand_miss_rate 0.0127935
Core_0_DTLB_load_access 12682598
Core_0_DTLB_load_hit 12520343
Core_0_DTLB_load_miss 162255
Core_0_DTLB_load_MPKI 3.2451
Core_0_DTLB_load_miss_rate 0.0127935
Core_0_DTLB_rfo_access 0
Core_0_DTLB_rfo_hit 0
Core_0_DTLB_rfo_miss 0
Core_0_DTLB_rfo_MPKI 0
Core_0_DTLB_rfo_miss_rate 0
Core_0_DTLB_prefetch_access 0
Core_0_DTLB_prefetch_hit 0
Core_0_DTLB_prefetch_miss 0
Core_0_DTLB_prefetch_MPKI 0
Core_0_DTLB_prefetch_miss_rate 0
Core_0_DTLB_writeback_access 0
Core_0_DTLB_writeback_hit 0
Core_0_DTLB_writeback_miss 0
Core_0_DTLB_writeback_MPKI 0
Core_0_DTLB_writeback_miss_rate 0
Core_0_DTLB_prefetch_requested 0
Core_0_DTLB_prefetch_issued 0
Core_0_DTLB_prefetch_useful 0
Core_0_DTLB_prefetch_useless 0
Core_0_DTLB_prefetch_late 0
Core_0_DTLB_prefetch_accuracy 0
Core_0_DTLB_prefetch_coverage 0

Core_0_STLB_total_access 137289
Core_0_STLB_total_hit 125475
Core_0_STLB_total_miss 11814
Core_0_STLB_total_MPKI 0.23628
Core_0_STLB_total_miss_rate 0.0860521
Core_0_STLB_demand_access 137289
Core_0_STLB_demand_hit 125475
Core_0_STLB_demand_miss 11814
Core_0_STLB_demand_MPKI 0.23628
Core_0_STLB_demand_miss_rate 0.0860521
Core_0_STLB_load_access 137289
Core_0_STLB_load_hit 125475
Core_0_STLB_load_miss 11814
Core_0_STLB_load_MPKI 0.23628
Core_0_STLB_load_miss_rate 0.0860521
Core_0_STLB_rfo_access 0
Core_0_STLB_rfo_hit 0
Core_0_STLB_rfo_miss 0
Core_0_STLB_rfo_MPKI 0
Core_0_STLB_rfo_miss_rate 0
Core_0_STLB_prefetch_access 0
Core_0_STLB_prefetch_hit 0
Core_0_STLB_prefetch_miss 0
Core_0_STLB_prefetch_MPKI 0
Core_0_STLB_prefetch_miss_rate 0
Core_0_STLB_writeback_access 0
Core_0_STLB_writeback_hit 0
Core_0_STLB_writeback_miss 0
Core_0_STLB_writeback_MPKI 0
Core_0_STLB_writeback_miss_rate 0
Core_0_STLB_prefetch_requested 0
Core_0_STLB_prefetch_issued 0
Core_0_STLB_prefetch_useful 0
Core_0_STLB_prefetch_useless 0
Core_0_STLB_prefetch_late 0
Core_0_STLB_prefetch_accuracy 0
Core_0_STLB_prefetch_coverage 0

Core_0_L1I_total_access 10597086
Core_0_L1I_total_hit 10121604
Core_0_L1I_total_miss 475482
Core_0_L1I_total_MPKI 9.50964
Core_0_L1I_total_miss_rate 0.0448691
Core_0_L1I_demand_access 10597086
Core_0_L1I_demand_hit 10121604
Core_0_L1I_demand_miss 475482
Core_0_L1I_demand_MPKI 9.50964
Core_0_L1I_demand_miss_rate 0.0448691
Core_0_L1I_load_access 10597086
Core_0_L1I_load_hit 10121604
Core_0_L1I_load_miss 475482
Core_0_L1I_load_MPKI 9.50964
Core_0_L1I_load_miss_rate 0.0448691
Core_0_L1I_rfo_access 0
Core_0_L1I_rfo_hit 0
Core_0_L1I_rfo_miss 0
Core_0_L1I_rfo_MPKI 0
Core_0_L1I_rfo_miss_rate 0
Core_0_L1I_prefetch_access 0
Core_0_L1I_prefetch_hit 0
Core_0_L1I_prefetch_miss 0
Core_0_L1I_prefetch_MPKI 0
Core_0_L1I_prefetch_miss_rate 0
Core_0_L1I_writeback_access 0
Core_0_L1I_writeback_hit 0
Core_0_L1I_writeback_miss 0
Core_0_L1I_writeback_MPKI 0
Core_0_L1I_writeback_miss_rate 0
Core_0_L1I_prefetch_requested 0
Core_0_L1I_prefetch_issued 0
Core_0_L1I_prefetch_useful 0
Core_0_L1I_prefetch_useless 0
Core_0_L1I_prefetch_late 0
Core_0_L1I_prefetch_accuracy 0
Core_0_L1I_prefetch_coverage 0

Core_0_L1D_total_access 13094541
Core_0_L1D_total_hit 11601350
Core_0_L1D_total_miss 1493191
Core_0_L1D_total_MPKI 29.8638
Core_0_L1D_total_miss_rate 0.114032
Core_0_L1D_demand_access 9999230
Core_0_L1D_demand_hit 9576144
Core_0_L1D_demand_miss 423086
Core_0_L1D_demand_MPKI 8.46172
Core_0_L1D_demand_miss_rate 0.0423119
Core_0_L1D_load_access 9999230
Core_0_L1D_load_hit 9576144
Core_0_L1D_load_miss 423086
Core_0_L1D_load_MPKI 8.46172
Core_0_L1D_load_miss_rate 0.0423119
Core_0_L1D_rfo_access 0
Core_0_L1D_rfo_hit 0
Core_0_L1D_rfo_miss 0
Core_0_L1D_rfo_MPKI 0
Core_0_L1D_rfo_miss_rate 0
Core_0_L1D_prefetch_access 0
Core_0_L1D_prefetch_hit 0
Core_0_L1D_prefetch_miss 0
Core_0_L1D_prefetch_MPKI 0
Core_0_L1D_prefetch_miss_rate 0
Core_0_L1D_writeback_access 3095311
Core_0_L1D_writeback_hit 2025206
Core_0_L1D_writeback_miss 1070105
Core_0_L1D_writeback_MPKI 21.4021
Core_0_L1D_writeback_miss_rate 0.345718
Core_0_L1D_prefetch_requested 0
Core_0_L1D_prefetch_issued 0
Core_0_L1D_prefetch_useful 0
Core_0_L1D_prefetch_useless 0
Core_0_L1D_prefetch_late 0
Core_0_L1D_prefetch_accuracy 0
Core_0_L1D_prefetch_coverage 0

Core_0_L2C_total_access 1206253
Core_0_L2C_total_hit 774352
Core_0_L2C_total_miss 431901
Core_0_L2C_total_MPKI 8.63802
Core_0_L2C_total_miss_rate 0.358052
Core_0_L2C_demand_access 889885
Core_0_L2C_demand_hit 458243
Core_0_L2C_demand_miss 431642
Core_0_L2C_demand_MPKI 8.63284
Core_0_L2C_demand_miss_rate 0.485054
Core_0_L2C_load_access 628188
Core_0_L2C_load_hit 426954
Core_0_L2C_load_miss 201234
Core_0_L2C_load_MPKI 4.02468
Core_0_L2C_load_miss_rate 0.32034
Core_0_L2C_rfo_access 261697
Core_0_L2C_rfo_hit 31289
Core_0_L2C_rfo_miss 230408
Core_0_L2C_rfo_MPKI 4.60816
Core_0_L2C_rfo_miss_rate 0.880438
Core_0_L2C_prefetch_access 0
Core_0_L2C_prefetch_hit 0
Core_0_L2C_prefetch_miss 0
Core_0_L2C_prefetch_MPKI 0
Core_0_L2C_prefetch_miss_rate 0
Core_0_L2C_writeback_access 316368
Core_0_L2C_writeback_hit 316109
Core_0_L2C_writeback_miss 259
Core_0_L2C_writeback_MPKI 0.00518
Core_0_L2C_writeback_miss_rate 0.000818667
Core_0_L2C_prefetch_requested 0
Core_0_L2C_prefetch_issued 0
Core_0_L2C_prefetch_useful 0
Core_0_L2C_prefetch_useless 0
Core_0_L2C_prefetch_late 0
Core_0_L2C_prefetch_accuracy 0
Core_0_L2C_prefetch_coverage 0

Core_0_LLC_total_access 680638
Core_0_LLC_total_hit 277330
Core_0_LLC_total_miss 403308
Core_0_LLC_total_MPKI 8.06616
Core_0_LLC_total_miss_rate 0.592544
Core_0_LLC_demand_access 431642
Core_0_LLC_demand_hit 57592
Core_0_LLC_demand_miss 374050
Core_0_LLC_demand_MPKI 7.481
Core_0_LLC_demand_miss_rate 0.866575
Core_0_LLC_load_access 201234
Core_0_LLC_load_hit 51193
Core_0_LLC_load_miss 150041
Core_0_LLC_load_MPKI 3.00082
Core_0_LLC_load_miss_rate 0.745605
Core_0_LLC_rfo_access 230408
Core_0_LLC_rfo_hit 6399
Core_0_LLC_rfo_miss 224009
Core_0_LLC_rfo_MPKI 4.48018
Core_0_LLC_rfo_miss_rate 0.972228
Core_0_LLC_prefetch_access 0
Core_0_LLC_prefetch_hit 0
Core_0_LLC_prefetch_miss 0
Core_0_LLC_prefetch_MPKI 0
Core_0_LLC_prefetch_miss_rate 0
Core_0_LLC_writeback_access 248996
Core_0_LLC_writeback_hit 219738
Core_0_LLC_writeback_miss 29258
Core_0_LLC_writeback_MPKI 0.58516
Core_0_LLC_writeback_miss_rate 0.117504
Core_0_LLC_prefetch_requested 0
Core_0_LLC_prefetch_issued 0
Core_0_LLC_prefetch_useful 0
Core_0_LLC_prefetch_useless 0
Core_0_LLC_prefetch_late 0
Core_0_LLC_prefetch_accuracy 0
Core_0_LLC_prefetch_coverage 0

[DRAM Statistics]
Channel_0_RQ_row_buffer_hit 27467
Channel_0_RQ_row_buffer_miss 350456
Channel_0_WQ_row_buffer_hit 25022
Channel_0_WQ_row_buffer_miss 215290
Channel_0_WQ_full 0
Channel_0_dbus_congested 2110230
DRAM_total_RQ_row_buffer_hit 27467
DRAM_total_RQ_row_buffer_miss 350456
DRAM_total_WQ_row_buffer_hit 25022
DRAM_total_WQ_row_buffer_miss 215290
DRAM_total_WQ_full 0
DRAM_total_dbus_congested 2110230
DRAM_avg_congested_cycle 7.6244

====== DRAM_RQ_TRAFFIC ========
DRAM_RQ_READ_TRAFFIC_BREAKDOWN:
data_demand_read.count = 354623
data_demand_read.share = 93.83%

inst_demand_read.count = 19427
inst_demand_read.share = 5.14%

cache_inst_prefetch.count = 0
cache_inst_prefetch.share = 0.00%

cache_data_prefetch.count = 0
cache_data_prefetch.share = 0.00%

stlb_data_demand.count = 3353
stlb_data_demand.share = 0.89%

stlb_inst_demand.count = 521
stlb_inst_demand.share = 0.14%

stlb_l1i_pref.count = 0
stlb_l1i_pref.share = 0.00%

stlb_l1d_pref.count = 0
stlb_l1d_pref.share = 0.00%

DRAM_RQ_READ_TRAFFIC_SUMMARY:
cache_demand.count = 374050
cache_demand.share = 98.97%

cache_prefetch.count = 0
cache_prefetch.share = 0.00%

stlb_demand.count = 3874
stlb_demand.share = 1.03%

stlb_prefetch.count = 0
stlb_prefetch.share = 0.00%

DRAM_RQ_READ_TRAFFIC_DEBUG:
total_classified_read.count = 377924
unclassified_read.count = 0
total_read_with_other.count = 377924

classified_plus_unclassified_check.count = 377924
dram_rq_read_total_observed.count = 377924
dram_rq_read_total_observed.per_1K_instructions = 7.55848

STLB_MISS_PTW_DRAM_TOUCH_BREAKDOWN:
stlb_miss_total.count = 11814

stlb_miss_touch_dram.count = 3376
stlb_miss_touch_dram.share = 28.58%

stlb_miss_no_dram_touch.count = 8438
stlb_miss_no_dram_touch.share = 71.42%

STLB_MISS_PTW_DRAM_TOUCH_DEBUG:
stlb_miss_touch_plus_no_touch.count = 11814
stlb_miss_total_check.count = 11814

======STLB miss causes ========
Core_0_STLB_miss_cause_breakdown
Core_0_STLB_cause_Demand_Data_miss 9755
Core_0_STLB_cause_Demand_Data_miss_rate 0.0710545
Core_0_STLB_cause_Demand_Instruction_miss 2059
Core_0_STLB_cause_Demand_Instruction_miss_rate 0.0149976
Core_0_STLB_cause_L1D_Prefetch_miss 0
Core_0_STLB_cause_L1D_Prefetch_miss_rate 0
Core_0_STLB_cause_L1I_Prefetch_miss 0
Core_0_STLB_cause_L1I_Prefetch_miss_rate 0
Core_0_STLB_cause_Other_miss 0
Core_0_STLB_cause_Other_miss_rate 0
Core_0_STLB_Demand_miss 11814
Core_0_STLB_Demand_miss_rate 0.0860521
Core_0_STLB_L1D_Prefetch_miss 0
Core_0_STLB_L1D_Prefetch_miss_rate 0
Core_0_STLB_Other_miss 0
Core_0_STLB_Other_miss_rate 0
