[VMEM] WARNING: physical memory size is smaller than virtual memory size.

*** ChampSim Multicore Out-of-Order Simulator ***
Warmup Instructions: 20000000
Simulation Instructions: 50000000
Number of CPUs: 1
Page size: 4096
Core 0: /data0/tzh/champsim_traces/QMM/srv_30_new.xz
Off-chip DRAM Size: 16 GiB Channels: 1 Width: 64-bit Data Rate: 3205 MT/s
Warmup halting CPU 0 at instruction 20000003 cycle 5076435 for remainder of phase
Warmup finished CPU 0 instructions: 20000003 cycles: 5076435 cumulative IPC: 3.94 (Simulation time: 00 hr 01 min 08 sec)
Warmup complete CPU 0 instructions: 20000003 cycles: 5076435 cumulative IPC: 3.94 (Simulation time: 00 hr 01 min 08 sec)
*** Reached end of trace: (0, "/data0/tzh/champsim_traces/QMM/srv_30_new.xz")
[BTB] WARNING: target of return is a lower address than the corresponding call. This is usually a problem with your trace.
[BTB] WARNING: target of return is a lower address than the corresponding call. This is usually a problem with your trace.
[BTB] WARNING: target of return is a lower address than the corresponding call. This is usually a problem with your trace.
*** Reached end of trace: (0, "/data0/tzh/champsim_traces/QMM/srv_30_new.xz")
[BTB] WARNING: target of return is a lower address than the corresponding call. This is usually a problem with your trace.
[BTB] WARNING: target of return is a lower address than the corresponding call. This is usually a problem with your trace.
[BTB] WARNING: target of return is a lower address than the corresponding call. This is usually a problem with your trace.
Simulation finished CPU 0 instructions: 50000004 cycles: 21453539 cumulative IPC: 2.331 (Simulation time: 00 hr 04 min 55 sec)
Simulation complete CPU 0 instructions: 50000004 cycles: 21453539 cumulative IPC: 2.331 (Simulation time: 00 hr 04 min 55 sec)

ChampSim completed all CPUs

=== Simulation ===
CPU 0 runs /data0/tzh/champsim_traces/QMM/srv_30_new.xz

Region of Interest Statistics

CPU 0 cumulative IPC: 2.331 instructions: 50000004 cycles: 21453539
CPU 0 Branch Prediction Accuracy: 99.64% MPKI: 0.6535 Average ROB Occupancy at Mispredict: 223.2
Branch type MPKI
BRANCH_DIRECT_JUMP: 0.0002
BRANCH_INDIRECT: 0.00682
BRANCH_CONDITIONAL: 0.6443
BRANCH_DIRECT_CALL: 0.00038
BRANCH_INDIRECT_CALL: 0.0015
BRANCH_RETURN: 0.00028

cpu0->cpu0_STLB TOTAL        ACCESS:     476705 HIT:     454977 MISS:      21728 MSHR_MERGE:          0
cpu0->cpu0_STLB LOAD         ACCESS:     476705 HIT:     454977 MISS:      21728 MSHR_MERGE:          0
cpu0->cpu0_STLB RFO          ACCESS:          0 HIT:          0 MISS:          0 MSHR_MERGE:          0
cpu0->cpu0_STLB PREFETCH     ACCESS:          0 HIT:          0 MISS:          0 MSHR_MERGE:          0
cpu0->cpu0_STLB WRITE        ACCESS:          0 HIT:          0 MISS:          0 MSHR_MERGE:          0
cpu0->cpu0_STLB TRANSLATION  ACCESS:          0 HIT:          0 MISS:          0 MSHR_MERGE:          0
cpu0->cpu0_STLB PREFETCH REQUESTED:          0 ISSUED:          0 USEFUL:          0 USELESS:          0 LATE:          0
cpu0->cpu0_STLB AVERAGE MISS LATENCY: 38.84 cycles
cpu0->cpu0_L2C TOTAL        ACCESS:     376263 HIT:     244069 MISS:     132194 MSHR_MERGE:          0
cpu0->cpu0_L2C LOAD         ACCESS:     272930 HIT:     178755 MISS:      94175 MSHR_MERGE:          0
cpu0->cpu0_L2C RFO          ACCESS:      32846 HIT:       2633 MISS:      30213 MSHR_MERGE:          0
cpu0->cpu0_L2C PREFETCH     ACCESS:          0 HIT:          0 MISS:          0 MSHR_MERGE:          0
cpu0->cpu0_L2C WRITE        ACCESS:      46528 HIT:      46253 MISS:        275 MSHR_MERGE:          0
cpu0->cpu0_L2C TRANSLATION  ACCESS:      23959 HIT:      16428 MISS:       7531 MSHR_MERGE:          0
cpu0->cpu0_L2C PREFETCH REQUESTED:          0 ISSUED:          0 USEFUL:          0 USELESS:          0 LATE:          0
cpu0->cpu0_L2C AVERAGE MISS LATENCY: 79.39 cycles
cpu0->cpu0_L1I TOTAL        ACCESS:    8699179 HIT:    8436629 MISS:     262550 MSHR_MERGE:      87993
cpu0->cpu0_L1I LOAD         ACCESS:    8699179 HIT:    8436629 MISS:     262550 MSHR_MERGE:      87993
cpu0->cpu0_L1I RFO          ACCESS:          0 HIT:          0 MISS:          0 MSHR_MERGE:          0
cpu0->cpu0_L1I PREFETCH     ACCESS:          0 HIT:          0 MISS:          0 MSHR_MERGE:          0
cpu0->cpu0_L1I WRITE        ACCESS:          0 HIT:          0 MISS:          0 MSHR_MERGE:          0
cpu0->cpu0_L1I TRANSLATION  ACCESS:          0 HIT:          0 MISS:          0 MSHR_MERGE:          0
cpu0->cpu0_L1I PREFETCH REQUESTED:          0 ISSUED:          0 USEFUL:          0 USELESS:          0 LATE:          0
cpu0->cpu0_L1I AVERAGE MISS LATENCY: 9.638 cycles
cpu0->cpu0_L1D TOTAL        ACCESS:   12600536 HIT:   12226086 MISS:     374450 MSHR_MERGE:     219269
cpu0->cpu0_L1D LOAD         ACCESS:    6550686 HIT:    6362788 MISS:     187898 MSHR_MERGE:      89523
cpu0->cpu0_L1D RFO          ACCESS:          0 HIT:          0 MISS:          0 MSHR_MERGE:          0
cpu0->cpu0_L1D PREFETCH     ACCESS:          0 HIT:          0 MISS:          0 MSHR_MERGE:          0
cpu0->cpu0_L1D WRITE        ACCESS:    5997977 HIT:    5835546 MISS:     162431 MSHR_MERGE:     129584
cpu0->cpu0_L1D TRANSLATION  ACCESS:      51873 HIT:      27752 MISS:      24121 MSHR_MERGE:        162
cpu0->cpu0_L1D PREFETCH REQUESTED:          0 ISSUED:          0 USEFUL:          0 USELESS:          0 LATE:          0
cpu0->cpu0_L1D AVERAGE MISS LATENCY: 74.04 cycles
cpu0->cpu0_ITLB TOTAL        ACCESS:    7856413 HIT:    7788995 MISS:      67418 MSHR_MERGE:      41159
cpu0->cpu0_ITLB LOAD         ACCESS:    7856413 HIT:    7788995 MISS:      67418 MSHR_MERGE:      41159
cpu0->cpu0_ITLB RFO          ACCESS:          0 HIT:          0 MISS:          0 MSHR_MERGE:          0
cpu0->cpu0_ITLB PREFETCH     ACCESS:          0 HIT:          0 MISS:          0 MSHR_MERGE:          0
cpu0->cpu0_ITLB WRITE        ACCESS:          0 HIT:          0 MISS:          0 MSHR_MERGE:          0
cpu0->cpu0_ITLB TRANSLATION  ACCESS:          0 HIT:          0 MISS:          0 MSHR_MERGE:          0
cpu0->cpu0_ITLB PREFETCH REQUESTED:          0 ISSUED:          0 USEFUL:          0 USELESS:          0 LATE:          0
cpu0->cpu0_ITLB AVERAGE MISS LATENCY: 6.585 cycles
cpu0->cpu0_DTLB TOTAL        ACCESS:   11501040 HIT:   10782648 MISS:     718392 MSHR_MERGE:     267946
cpu0->cpu0_DTLB LOAD         ACCESS:   11501040 HIT:   10782648 MISS:     718392 MSHR_MERGE:     267946
cpu0->cpu0_DTLB RFO          ACCESS:          0 HIT:          0 MISS:          0 MSHR_MERGE:          0
cpu0->cpu0_DTLB PREFETCH     ACCESS:          0 HIT:          0 MISS:          0 MSHR_MERGE:          0
cpu0->cpu0_DTLB WRITE        ACCESS:          0 HIT:          0 MISS:          0 MSHR_MERGE:          0
cpu0->cpu0_DTLB TRANSLATION  ACCESS:          0 HIT:          0 MISS:          0 MSHR_MERGE:          0
cpu0->cpu0_DTLB PREFETCH REQUESTED:          0 ISSUED:          0 USEFUL:          0 USELESS:          0 LATE:          0
cpu0->cpu0_DTLB AVERAGE MISS LATENCY: 6.831 cycles
cpu0->LLC TOTAL        ACCESS:     172460 HIT:     121917 MISS:      50543 MSHR_MERGE:          0
cpu0->LLC LOAD         ACCESS:      94175 HIT:      52041 MISS:      42134 MSHR_MERGE:          0
cpu0->LLC RFO          ACCESS:      30213 HIT:      25235 MISS:       4978 MSHR_MERGE:          0
cpu0->LLC PREFETCH     ACCESS:          0 HIT:          0 MISS:          0 MSHR_MERGE:          0
cpu0->LLC WRITE        ACCESS:      40541 HIT:      37541 MISS:       3000 MSHR_MERGE:          0
cpu0->LLC TRANSLATION  ACCESS:       7531 HIT:       7100 MISS:        431 MSHR_MERGE:          0
cpu0->LLC PREFETCH REQUESTED:          0 ISSUED:          0 USEFUL:          0 USELESS:          0 LATE:          0
cpu0->LLC AVERAGE MISS LATENCY: 168 cycles

DRAM Statistics

Channel 0 RQ ROW_BUFFER_HIT:       2028
  ROW_BUFFER_MISS:      45506
  AVG DBUS CONGESTED CYCLE: 12.27
Channel 0 WQ ROW_BUFFER_HIT:        929
  ROW_BUFFER_MISS:       3053
  FULL:          0
Channel 0 REFRESHES ISSUED:       1787

[ROI Statistics]
[System Configuration]
num_cpus 1
cpu_freq 4000
fetch_width 6
decode_width 6
dispatch_width 6
execute_width 6
lq_width 2
sq_width 2
retire_width 6
scheduler_size 128
branch_mispredict_penalty 15
rob_size 352
lq_size 128
sq_size 72
ifetch_buffer_size 64
decode_buffer_size 32
dispatch_buffer_size 32
register_file_size 288
decode_latency 1
dispatch_latency 1
schedule_latency 1
execute_latency 1
page_size 4096
block_size 64
core_0_itlb_set 16
core_0_itlb_way 4
core_0_itlb_rq_size 16
core_0_itlb_wq_size 16
core_0_itlb_pq_size 0
core_0_itlb_mshr_size 8
core_0_itlb_hit_latency 1
core_0_itlb_fill_latency 1
core_0_itlb_max_tag_check 2
core_0_itlb_max_fill 2
core_0_dtlb_set 16
core_0_dtlb_way 4
core_0_dtlb_rq_size 16
core_0_dtlb_wq_size 16
core_0_dtlb_pq_size 0
core_0_dtlb_mshr_size 8
core_0_dtlb_hit_latency 1
core_0_dtlb_fill_latency 1
core_0_dtlb_max_tag_check 2
core_0_dtlb_max_fill 2
core_0_stlb_set 128
core_0_stlb_way 12
core_0_stlb_rq_size 32
core_0_stlb_wq_size 32
core_0_stlb_pq_size 0
core_0_stlb_mshr_size 16
core_0_stlb_hit_latency 4
core_0_stlb_fill_latency 4
core_0_stlb_max_tag_check 1
core_0_stlb_max_fill 1
core_0_l1i_set 64
core_0_l1i_way 8
core_0_l1i_rq_size 64
core_0_l1i_wq_size 64
core_0_l1i_pq_size 32
core_0_l1i_mshr_size 8
core_0_l1i_hit_latency 2
core_0_l1i_fill_latency 2
core_0_l1i_max_tag_check 2
core_0_l1i_max_fill 2
core_0_l1d_set 64
core_0_l1d_way 12
core_0_l1d_rq_size 64
core_0_l1d_wq_size 64
core_0_l1d_pq_size 8
core_0_l1d_mshr_size 16
core_0_l1d_hit_latency 2
core_0_l1d_fill_latency 3
core_0_l1d_max_tag_check 2
core_0_l1d_max_fill 2
core_0_l2c_set 1024
core_0_l2c_way 8
core_0_l2c_rq_size 32
core_0_l2c_wq_size 32
core_0_l2c_pq_size 16
core_0_l2c_mshr_size 32
core_0_l2c_hit_latency 5
core_0_l2c_fill_latency 5
core_0_l2c_max_tag_check 1
core_0_l2c_max_fill 1
llc_set 2048
llc_way 16
llc_rq_size 32
llc_wq_size 32
llc_pq_size 32
llc_mshr_size 64
llc_hit_latency 10
llc_fill_latency 10
llc_max_tag_check 1
llc_max_fill 1
dram_channels 1
dram_ranks 1
dram_bankgroups 8
dram_banks 4
dram_rows 65536
dram_columns 1024
dram_channel_width 8
dram_rq_size 64
dram_wq_size 64
dram_size 17179869184
core_0_itlb_prefetcher no
core_0_dtlb_prefetcher no
core_0_stlb_prefetcher no
core_0_l1i_prefetcher no
core_0_l1d_prefetcher no
core_0_l2c_prefetcher no
llc_prefetcher no
llc_replacement drrip

Core_0_instructions 50000004
Core_0_cycles 21453539
Core_0_IPC 2.33062
Core_0_branch_prediction_accuracy 99.6419
Core_0_branch_MPKI 0.6535
Core_0_average_ROB_occupancy_at_mispredict 223.157

Core_0_ITLB_total_access 7856413
Core_0_ITLB_total_hit 7788995
Core_0_ITLB_total_miss 67418
Core_0_ITLB_total_MPKI 1.34836
Core_0_ITLB_total_miss_rate 0.00858127
Core_0_ITLB_demand_access 7856413
Core_0_ITLB_demand_hit 7788995
Core_0_ITLB_demand_miss 67418
Core_0_ITLB_demand_MPKI 1.34836
Core_0_ITLB_demand_miss_rate 0.00858127
Core_0_ITLB_load_access 7856413
Core_0_ITLB_load_hit 7788995
Core_0_ITLB_load_miss 67418
Core_0_ITLB_load_MPKI 1.34836
Core_0_ITLB_load_miss_rate 0.00858127
Core_0_ITLB_rfo_access 0
Core_0_ITLB_rfo_hit 0
Core_0_ITLB_rfo_miss 0
Core_0_ITLB_rfo_MPKI 0
Core_0_ITLB_rfo_miss_rate 0
Core_0_ITLB_prefetch_access 0
Core_0_ITLB_prefetch_hit 0
Core_0_ITLB_prefetch_miss 0
Core_0_ITLB_prefetch_MPKI 0
Core_0_ITLB_prefetch_miss_rate 0
Core_0_ITLB_writeback_access 0
Core_0_ITLB_writeback_hit 0
Core_0_ITLB_writeback_miss 0
Core_0_ITLB_writeback_MPKI 0
Core_0_ITLB_writeback_miss_rate 0
Core_0_ITLB_prefetch_requested 0
Core_0_ITLB_prefetch_issued 0
Core_0_ITLB_prefetch_useful 0
Core_0_ITLB_prefetch_useless 0
Core_0_ITLB_prefetch_late 0
Core_0_ITLB_prefetch_accuracy 0
Core_0_ITLB_prefetch_coverage 0

Core_0_DTLB_total_access 11501040
Core_0_DTLB_total_hit 10782648
Core_0_DTLB_total_miss 718392
Core_0_DTLB_total_MPKI 14.3678
Core_0_DTLB_total_miss_rate 0.0624632
Core_0_DTLB_demand_access 11501040
Core_0_DTLB_demand_hit 10782648
Core_0_DTLB_demand_miss 718392
Core_0_DTLB_demand_MPKI 14.3678
Core_0_DTLB_demand_miss_rate 0.0624632
Core_0_DTLB_load_access 11501040
Core_0_DTLB_load_hit 10782648
Core_0_DTLB_load_miss 718392
Core_0_DTLB_load_MPKI 14.3678
Core_0_DTLB_load_miss_rate 0.0624632
Core_0_DTLB_rfo_access 0
Core_0_DTLB_rfo_hit 0
Core_0_DTLB_rfo_miss 0
Core_0_DTLB_rfo_MPKI 0
Core_0_DTLB_rfo_miss_rate 0
Core_0_DTLB_prefetch_access 0
Core_0_DTLB_prefetch_hit 0
Core_0_DTLB_prefetch_miss 0
Core_0_DTLB_prefetch_MPKI 0
Core_0_DTLB_prefetch_miss_rate 0
Core_0_DTLB_writeback_access 0
Core_0_DTLB_writeback_hit 0
Core_0_DTLB_writeback_miss 0
Core_0_DTLB_writeback_MPKI 0
Core_0_DTLB_writeback_miss_rate 0
Core_0_DTLB_prefetch_requested 0
Core_0_DTLB_prefetch_issued 0
Core_0_DTLB_prefetch_useful 0
Core_0_DTLB_prefetch_useless 0
Core_0_DTLB_prefetch_late 0
Core_0_DTLB_prefetch_accuracy 0
Core_0_DTLB_prefetch_coverage 0

Core_0_STLB_total_access 476705
Core_0_STLB_total_hit 454977
Core_0_STLB_total_miss 21728
Core_0_STLB_total_MPKI 0.43456
Core_0_STLB_total_miss_rate 0.0455796
Core_0_STLB_demand_access 476705
Core_0_STLB_demand_hit 454977
Core_0_STLB_demand_miss 21728
Core_0_STLB_demand_MPKI 0.43456
Core_0_STLB_demand_miss_rate 0.0455796
Core_0_STLB_load_access 476705
Core_0_STLB_load_hit 454977
Core_0_STLB_load_miss 21728
Core_0_STLB_load_MPKI 0.43456
Core_0_STLB_load_miss_rate 0.0455796
Core_0_STLB_rfo_access 0
Core_0_STLB_rfo_hit 0
Core_0_STLB_rfo_miss 0
Core_0_STLB_rfo_MPKI 0
Core_0_STLB_rfo_miss_rate 0
Core_0_STLB_prefetch_access 0
Core_0_STLB_prefetch_hit 0
Core_0_STLB_prefetch_miss 0
Core_0_STLB_prefetch_MPKI 0
Core_0_STLB_prefetch_miss_rate 0
Core_0_STLB_writeback_access 0
Core_0_STLB_writeback_hit 0
Core_0_STLB_writeback_miss 0
Core_0_STLB_writeback_MPKI 0
Core_0_STLB_writeback_miss_rate 0
Core_0_STLB_prefetch_requested 0
Core_0_STLB_prefetch_issued 0
Core_0_STLB_prefetch_useful 0
Core_0_STLB_prefetch_useless 0
Core_0_STLB_prefetch_late 0
Core_0_STLB_prefetch_accuracy 0
Core_0_STLB_prefetch_coverage 0

Core_0_L1I_total_access 8699179
Core_0_L1I_total_hit 8436629
Core_0_L1I_total_miss 262550
Core_0_L1I_total_MPKI 5.251
Core_0_L1I_total_miss_rate 0.030181
Core_0_L1I_demand_access 8699179
Core_0_L1I_demand_hit 8436629
Core_0_L1I_demand_miss 262550
Core_0_L1I_demand_MPKI 5.251
Core_0_L1I_demand_miss_rate 0.030181
Core_0_L1I_load_access 8699179
Core_0_L1I_load_hit 8436629
Core_0_L1I_load_miss 262550
Core_0_L1I_load_MPKI 5.251
Core_0_L1I_load_miss_rate 0.030181
Core_0_L1I_rfo_access 0
Core_0_L1I_rfo_hit 0
Core_0_L1I_rfo_miss 0
Core_0_L1I_rfo_MPKI 0
Core_0_L1I_rfo_miss_rate 0
Core_0_L1I_prefetch_access 0
Core_0_L1I_prefetch_hit 0
Core_0_L1I_prefetch_miss 0
Core_0_L1I_prefetch_MPKI 0
Core_0_L1I_prefetch_miss_rate 0
Core_0_L1I_writeback_access 0
Core_0_L1I_writeback_hit 0
Core_0_L1I_writeback_miss 0
Core_0_L1I_writeback_MPKI 0
Core_0_L1I_writeback_miss_rate 0
Core_0_L1I_prefetch_requested 0
Core_0_L1I_prefetch_issued 0
Core_0_L1I_prefetch_useful 0
Core_0_L1I_prefetch_useless 0
Core_0_L1I_prefetch_late 0
Core_0_L1I_prefetch_accuracy 0
Core_0_L1I_prefetch_coverage 0

Core_0_L1D_total_access 12548663
Core_0_L1D_total_hit 12198334
Core_0_L1D_total_miss 350329
Core_0_L1D_total_MPKI 7.00658
Core_0_L1D_total_miss_rate 0.0279176
Core_0_L1D_demand_access 6550686
Core_0_L1D_demand_hit 6362788
Core_0_L1D_demand_miss 187898
Core_0_L1D_demand_MPKI 3.75796
Core_0_L1D_demand_miss_rate 0.0286837
Core_0_L1D_load_access 6550686
Core_0_L1D_load_hit 6362788
Core_0_L1D_load_miss 187898
Core_0_L1D_load_MPKI 3.75796
Core_0_L1D_load_miss_rate 0.0286837
Core_0_L1D_rfo_access 0
Core_0_L1D_rfo_hit 0
Core_0_L1D_rfo_miss 0
Core_0_L1D_rfo_MPKI 0
Core_0_L1D_rfo_miss_rate 0
Core_0_L1D_prefetch_access 0
Core_0_L1D_prefetch_hit 0
Core_0_L1D_prefetch_miss 0
Core_0_L1D_prefetch_MPKI 0
Core_0_L1D_prefetch_miss_rate 0
Core_0_L1D_writeback_access 5997977
Core_0_L1D_writeback_hit 5835546
Core_0_L1D_writeback_miss 162431
Core_0_L1D_writeback_MPKI 3.24862
Core_0_L1D_writeback_miss_rate 0.027081
Core_0_L1D_prefetch_requested 0
Core_0_L1D_prefetch_issued 0
Core_0_L1D_prefetch_useful 0
Core_0_L1D_prefetch_useless 0
Core_0_L1D_prefetch_late 0
Core_0_L1D_prefetch_accuracy 0
Core_0_L1D_prefetch_coverage 0

Core_0_L2C_total_access 352304
Core_0_L2C_total_hit 227641
Core_0_L2C_total_miss 124663
Core_0_L2C_total_MPKI 2.49326
Core_0_L2C_total_miss_rate 0.353851
Core_0_L2C_demand_access 305776
Core_0_L2C_demand_hit 181388
Core_0_L2C_demand_miss 124388
Core_0_L2C_demand_MPKI 2.48776
Core_0_L2C_demand_miss_rate 0.406795
Core_0_L2C_load_access 272930
Core_0_L2C_load_hit 178755
Core_0_L2C_load_miss 94175
Core_0_L2C_load_MPKI 1.8835
Core_0_L2C_load_miss_rate 0.345052
Core_0_L2C_rfo_access 32846
Core_0_L2C_rfo_hit 2633
Core_0_L2C_rfo_miss 30213
Core_0_L2C_rfo_MPKI 0.60426
Core_0_L2C_rfo_miss_rate 0.919838
Core_0_L2C_prefetch_access 0
Core_0_L2C_prefetch_hit 0
Core_0_L2C_prefetch_miss 0
Core_0_L2C_prefetch_MPKI 0
Core_0_L2C_prefetch_miss_rate 0
Core_0_L2C_writeback_access 46528
Core_0_L2C_writeback_hit 46253
Core_0_L2C_writeback_miss 275
Core_0_L2C_writeback_MPKI 0.0055
Core_0_L2C_writeback_miss_rate 0.00591042
Core_0_L2C_prefetch_requested 0
Core_0_L2C_prefetch_issued 0
Core_0_L2C_prefetch_useful 0
Core_0_L2C_prefetch_useless 0
Core_0_L2C_prefetch_late 0
Core_0_L2C_prefetch_accuracy 0
Core_0_L2C_prefetch_coverage 0

Core_0_LLC_total_access 164929
Core_0_LLC_total_hit 114817
Core_0_LLC_total_miss 50112
Core_0_LLC_total_MPKI 1.00224
Core_0_LLC_total_miss_rate 0.30384
Core_0_LLC_demand_access 124388
Core_0_LLC_demand_hit 77276
Core_0_LLC_demand_miss 47112
Core_0_LLC_demand_MPKI 0.94224
Core_0_LLC_demand_miss_rate 0.37875
Core_0_LLC_load_access 94175
Core_0_LLC_load_hit 52041
Core_0_LLC_load_miss 42134
Core_0_LLC_load_MPKI 0.84268
Core_0_LLC_load_miss_rate 0.447401
Core_0_LLC_rfo_access 30213
Core_0_LLC_rfo_hit 25235
Core_0_LLC_rfo_miss 4978
Core_0_LLC_rfo_MPKI 0.09956
Core_0_LLC_rfo_miss_rate 0.164764
Core_0_LLC_prefetch_access 0
Core_0_LLC_prefetch_hit 0
Core_0_LLC_prefetch_miss 0
Core_0_LLC_prefetch_MPKI 0
Core_0_LLC_prefetch_miss_rate 0
Core_0_LLC_writeback_access 40541
Core_0_LLC_writeback_hit 37541
Core_0_LLC_writeback_miss 3000
Core_0_LLC_writeback_MPKI 0.06
Core_0_LLC_writeback_miss_rate 0.0739992
Core_0_LLC_prefetch_requested 0
Core_0_LLC_prefetch_issued 0
Core_0_LLC_prefetch_useful 0
Core_0_LLC_prefetch_useless 0
Core_0_LLC_prefetch_late 0
Core_0_LLC_prefetch_accuracy 0
Core_0_LLC_prefetch_coverage 0

[DRAM Statistics]
Channel_0_RQ_row_buffer_hit 2028
Channel_0_RQ_row_buffer_miss 45506
Channel_0_WQ_row_buffer_hit 929
Channel_0_WQ_row_buffer_miss 3053
Channel_0_WQ_full 0
Channel_0_dbus_congested 67362
DRAM_total_RQ_row_buffer_hit 2028
DRAM_total_RQ_row_buffer_miss 45506
DRAM_total_WQ_row_buffer_hit 929
DRAM_total_WQ_row_buffer_miss 3053
DRAM_total_WQ_full 0
DRAM_total_dbus_congested 67362
DRAM_avg_congested_cycle 12.2726

====== DRAM_RQ_TRAFFIC ========
DRAM_RQ_READ_TRAFFIC_BREAKDOWN:
data_demand_read.count = 45948
data_demand_read.share = 96.65%

inst_demand_read.count = 1164
inst_demand_read.share = 2.45%

cache_inst_prefetch.count = 0
cache_inst_prefetch.share = 0.00%

cache_data_prefetch.count = 0
cache_data_prefetch.share = 0.00%

stlb_data_demand.count = 389
stlb_data_demand.share = 0.82%

stlb_inst_demand.count = 42
stlb_inst_demand.share = 0.09%

stlb_l1i_pref.count = 0
stlb_l1i_pref.share = 0.00%

stlb_l1d_pref.count = 0
stlb_l1d_pref.share = 0.00%

DRAM_RQ_READ_TRAFFIC_SUMMARY:
cache_demand.count = 47112
cache_demand.share = 99.09%

cache_prefetch.count = 0
cache_prefetch.share = 0.00%

stlb_demand.count = 431
stlb_demand.share = 0.91%

stlb_prefetch.count = 0
stlb_prefetch.share = 0.00%

DRAM_RQ_READ_TRAFFIC_DEBUG:
total_classified_read.count = 47543
unclassified_read.count = 0
total_read_with_other.count = 47543

classified_plus_unclassified_check.count = 47543
dram_rq_read_total_observed.count = 47543
dram_rq_read_total_observed.per_1K_instructions = 0.95086

STLB_MISS_PTW_DRAM_TOUCH_BREAKDOWN:
stlb_miss_total.count = 21728

stlb_miss_touch_dram.count = 399
stlb_miss_touch_dram.share = 1.84%

stlb_miss_no_dram_touch.count = 21329
stlb_miss_no_dram_touch.share = 98.16%

STLB_MISS_PTW_DRAM_TOUCH_DEBUG:
stlb_miss_touch_plus_no_touch.count = 21728
stlb_miss_total_check.count = 21728

======STLB miss causes ========
Core_0_STLB_miss_cause_breakdown
Core_0_STLB_cause_Demand_Data_miss 20538
Core_0_STLB_cause_Demand_Data_miss_rate 0.0430832
Core_0_STLB_cause_Demand_Instruction_miss 1190
Core_0_STLB_cause_Demand_Instruction_miss_rate 0.0024963
Core_0_STLB_cause_L1D_Prefetch_miss 0
Core_0_STLB_cause_L1D_Prefetch_miss_rate 0
Core_0_STLB_cause_L1I_Prefetch_miss 0
Core_0_STLB_cause_L1I_Prefetch_miss_rate 0
Core_0_STLB_cause_Other_miss 0
Core_0_STLB_cause_Other_miss_rate 0
Core_0_STLB_Demand_miss 21728
Core_0_STLB_Demand_miss_rate 0.0455796
Core_0_STLB_L1D_Prefetch_miss 0
Core_0_STLB_L1D_Prefetch_miss_rate 0
Core_0_STLB_Other_miss 0
Core_0_STLB_Other_miss_rate 0
