[VMEM] WARNING: physical memory size is smaller than virtual memory size.

*** ChampSim Multicore Out-of-Order Simulator ***
Warmup Instructions: 20000000
Simulation Instructions: 50000000
Number of CPUs: 1
Page size: 4096
Core 0: /data2/zcq/gap_dpc/sssp-5.trace.gz
Off-chip DRAM Size: 16 GiB Channels: 1 Width: 64-bit Data Rate: 3205 MT/s
Warmup halting CPU 0 at instruction 20000000 cycle 4542364 for remainder of phase
Warmup finished CPU 0 instructions: 20000000 cycles: 4542364 cumulative IPC: 4.403 (Simulation time: 00 hr 00 min 57 sec)
Warmup complete CPU 0 instructions: 20000000 cycles: 4542364 cumulative IPC: 4.403 (Simulation time: 00 hr 00 min 57 sec)
Simulation finished CPU 0 instructions: 50000001 cycles: 137772785 cumulative IPC: 0.3629 (Simulation time: 00 hr 10 min 47 sec)
Simulation complete CPU 0 instructions: 50000001 cycles: 137772785 cumulative IPC: 0.3629 (Simulation time: 00 hr 10 min 47 sec)

ChampSim completed all CPUs

=== Simulation ===
CPU 0 runs /data2/zcq/gap_dpc/sssp-5.trace.gz

Region of Interest Statistics

CPU 0 cumulative IPC: 0.3629 instructions: 50000001 cycles: 137772785
CPU 0 Branch Prediction Accuracy: 95.22% MPKI: 7.059 Average ROB Occupancy at Mispredict: 97
Branch type MPKI
BRANCH_DIRECT_JUMP: 2e-05
BRANCH_INDIRECT: 0
BRANCH_CONDITIONAL: 7.059
BRANCH_DIRECT_CALL: 0
BRANCH_INDIRECT_CALL: 0
BRANCH_RETURN: 0

cpu0->cpu0_STLB TOTAL        ACCESS:     954781 HIT:     943131 MISS:      11650 MSHR_MERGE:          0
cpu0->cpu0_STLB LOAD         ACCESS:     954781 HIT:     943131 MISS:      11650 MSHR_MERGE:          0
cpu0->cpu0_STLB RFO          ACCESS:          0 HIT:          0 MISS:          0 MSHR_MERGE:          0
cpu0->cpu0_STLB PREFETCH     ACCESS:          0 HIT:          0 MISS:          0 MSHR_MERGE:          0
cpu0->cpu0_STLB WRITE        ACCESS:          0 HIT:          0 MISS:          0 MSHR_MERGE:          0
cpu0->cpu0_STLB TRANSLATION  ACCESS:          0 HIT:          0 MISS:          0 MSHR_MERGE:          0
cpu0->cpu0_STLB PREFETCH REQUESTED:          0 ISSUED:          0 USEFUL:          0 USELESS:          0 LATE:          0
cpu0->cpu0_STLB AVERAGE MISS LATENCY: 268.6 cycles
cpu0->cpu0_L2C TOTAL        ACCESS:    3274809 HIT:    1289313 MISS:    1985496 MSHR_MERGE:          0
cpu0->cpu0_L2C LOAD         ACCESS:    2362801 HIT:     451577 MISS:    1911224 MSHR_MERGE:          0
cpu0->cpu0_L2C RFO          ACCESS:     239316 HIT:     174118 MISS:      65198 MSHR_MERGE:          0
cpu0->cpu0_L2C PREFETCH     ACCESS:          0 HIT:          0 MISS:          0 MSHR_MERGE:          0
cpu0->cpu0_L2C WRITE        ACCESS:     663150 HIT:     661923 MISS:       1227 MSHR_MERGE:          0
cpu0->cpu0_L2C TRANSLATION  ACCESS:       9542 HIT:       1695 MISS:       7847 MSHR_MERGE:          0
cpu0->cpu0_L2C PREFETCH REQUESTED:          0 ISSUED:          0 USEFUL:          0 USELESS:          0 LATE:          0
cpu0->cpu0_L2C AVERAGE MISS LATENCY: 105.8 cycles
cpu0->cpu0_L1I TOTAL        ACCESS:     200515 HIT:     200514 MISS:          1 MSHR_MERGE:          0
cpu0->cpu0_L1I LOAD         ACCESS:     200515 HIT:     200514 MISS:          1 MSHR_MERGE:          0
cpu0->cpu0_L1I RFO          ACCESS:          0 HIT:          0 MISS:          0 MSHR_MERGE:          0
cpu0->cpu0_L1I PREFETCH     ACCESS:          0 HIT:          0 MISS:          0 MSHR_MERGE:          0
cpu0->cpu0_L1I WRITE        ACCESS:          0 HIT:          0 MISS:          0 MSHR_MERGE:          0
cpu0->cpu0_L1I TRANSLATION  ACCESS:          0 HIT:          0 MISS:          0 MSHR_MERGE:          0
cpu0->cpu0_L1I PREFETCH REQUESTED:          0 ISSUED:          0 USEFUL:          0 USELESS:          0 LATE:          0
cpu0->cpu0_L1I AVERAGE MISS LATENCY: 176 cycles
cpu0->cpu0_L1D TOTAL        ACCESS:   14446431 HIT:   10325753 MISS:    4120678 MSHR_MERGE:    1509020
cpu0->cpu0_L1D LOAD         ACCESS:   13222760 HIT:    9448388 MISS:    3774372 MSHR_MERGE:    1411572
cpu0->cpu0_L1D RFO          ACCESS:          0 HIT:          0 MISS:          0 MSHR_MERGE:          0
cpu0->cpu0_L1D PREFETCH     ACCESS:          0 HIT:          0 MISS:          0 MSHR_MERGE:          0
cpu0->cpu0_L1D WRITE        ACCESS:    1198933 HIT:     862236 MISS:     336697 MSHR_MERGE:      97381
cpu0->cpu0_L1D TRANSLATION  ACCESS:      24738 HIT:      15129 MISS:       9609 MSHR_MERGE:         67
cpu0->cpu0_L1D PREFETCH REQUESTED:          0 ISSUED:          0 USEFUL:          0 USELESS:          0 LATE:          0
cpu0->cpu0_L1D AVERAGE MISS LATENCY: 89.44 cycles
cpu0->cpu0_ITLB TOTAL        ACCESS:     196456 HIT:     196456 MISS:          0 MSHR_MERGE:          0
cpu0->cpu0_ITLB LOAD         ACCESS:     196456 HIT:     196456 MISS:          0 MSHR_MERGE:          0
cpu0->cpu0_ITLB RFO          ACCESS:          0 HIT:          0 MISS:          0 MSHR_MERGE:          0
cpu0->cpu0_ITLB PREFETCH     ACCESS:          0 HIT:          0 MISS:          0 MSHR_MERGE:          0
cpu0->cpu0_ITLB WRITE        ACCESS:          0 HIT:          0 MISS:          0 MSHR_MERGE:          0
cpu0->cpu0_ITLB TRANSLATION  ACCESS:          0 HIT:          0 MISS:          0 MSHR_MERGE:          0
cpu0->cpu0_ITLB PREFETCH REQUESTED:          0 ISSUED:          0 USEFUL:          0 USELESS:          0 LATE:          0
cpu0->cpu0_ITLB AVERAGE MISS LATENCY: - cycles
cpu0->cpu0_DTLB TOTAL        ACCESS:   14394754 HIT:   13029190 MISS:    1365564 MSHR_MERGE:     410782
cpu0->cpu0_DTLB LOAD         ACCESS:   14394754 HIT:   13029190 MISS:    1365564 MSHR_MERGE:     410782
cpu0->cpu0_DTLB RFO          ACCESS:          0 HIT:          0 MISS:          0 MSHR_MERGE:          0
cpu0->cpu0_DTLB PREFETCH     ACCESS:          0 HIT:          0 MISS:          0 MSHR_MERGE:          0
cpu0->cpu0_DTLB WRITE        ACCESS:          0 HIT:          0 MISS:          0 MSHR_MERGE:          0
cpu0->cpu0_DTLB TRANSLATION  ACCESS:          0 HIT:          0 MISS:          0 MSHR_MERGE:          0
cpu0->cpu0_DTLB PREFETCH REQUESTED:          0 ISSUED:          0 USEFUL:          0 USELESS:          0 LATE:          0
cpu0->cpu0_DTLB AVERAGE MISS LATENCY: 8.307 cycles
cpu0->LLC TOTAL        ACCESS:    2400432 HIT:    1320078 MISS:    1080354 MSHR_MERGE:          0
cpu0->LLC LOAD         ACCESS:    1911224 HIT:    1070538 MISS:     840686 MSHR_MERGE:          0
cpu0->LLC RFO          ACCESS:      65198 HIT:      14507 MISS:      50691 MSHR_MERGE:          0
cpu0->LLC PREFETCH     ACCESS:          0 HIT:          0 MISS:          0 MSHR_MERGE:          0
cpu0->LLC WRITE        ACCESS:     416163 HIT:     234030 MISS:     182133 MSHR_MERGE:          0
cpu0->LLC TRANSLATION  ACCESS:       7847 HIT:       1003 MISS:       6844 MSHR_MERGE:          0
cpu0->LLC PREFETCH REQUESTED:          0 ISSUED:          0 USEFUL:          0 USELESS:          0 LATE:          0
cpu0->LLC AVERAGE MISS LATENCY: 167.6 cycles

DRAM Statistics

Channel 0 RQ ROW_BUFFER_HIT:      10815
  ROW_BUFFER_MISS:     887191
  AVG DBUS CONGESTED CYCLE: 20.01
Channel 0 WQ ROW_BUFFER_HIT:      90361
  ROW_BUFFER_MISS:     163466
  FULL:          0
Channel 0 REFRESHES ISSUED:      11481

[ROI Statistics]
[System Configuration]
num_cpus 1
cpu_freq 4000
fetch_width 6
decode_width 6
dispatch_width 6
execute_width 6
lq_width 2
sq_width 2
retire_width 6
scheduler_size 128
branch_mispredict_penalty 15
rob_size 352
lq_size 128
sq_size 72
ifetch_buffer_size 64
decode_buffer_size 32
dispatch_buffer_size 32
register_file_size 288
decode_latency 1
dispatch_latency 1
schedule_latency 1
execute_latency 1
page_size 4096
block_size 64
core_0_itlb_set 16
core_0_itlb_way 4
core_0_itlb_rq_size 16
core_0_itlb_wq_size 16
core_0_itlb_pq_size 0
core_0_itlb_mshr_size 8
core_0_itlb_hit_latency 1
core_0_itlb_fill_latency 1
core_0_itlb_max_tag_check 2
core_0_itlb_max_fill 2
core_0_dtlb_set 16
core_0_dtlb_way 4
core_0_dtlb_rq_size 16
core_0_dtlb_wq_size 16
core_0_dtlb_pq_size 0
core_0_dtlb_mshr_size 8
core_0_dtlb_hit_latency 1
core_0_dtlb_fill_latency 1
core_0_dtlb_max_tag_check 2
core_0_dtlb_max_fill 2
core_0_stlb_set 128
core_0_stlb_way 12
core_0_stlb_rq_size 32
core_0_stlb_wq_size 32
core_0_stlb_pq_size 0
core_0_stlb_mshr_size 16
core_0_stlb_hit_latency 4
core_0_stlb_fill_latency 4
core_0_stlb_max_tag_check 1
core_0_stlb_max_fill 1
core_0_l1i_set 64
core_0_l1i_way 8
core_0_l1i_rq_size 64
core_0_l1i_wq_size 64
core_0_l1i_pq_size 32
core_0_l1i_mshr_size 8
core_0_l1i_hit_latency 2
core_0_l1i_fill_latency 2
core_0_l1i_max_tag_check 2
core_0_l1i_max_fill 2
core_0_l1d_set 64
core_0_l1d_way 12
core_0_l1d_rq_size 64
core_0_l1d_wq_size 64
core_0_l1d_pq_size 8
core_0_l1d_mshr_size 16
core_0_l1d_hit_latency 2
core_0_l1d_fill_latency 3
core_0_l1d_max_tag_check 2
core_0_l1d_max_fill 2
core_0_l2c_set 1024
core_0_l2c_way 8
core_0_l2c_rq_size 32
core_0_l2c_wq_size 32
core_0_l2c_pq_size 16
core_0_l2c_mshr_size 32
core_0_l2c_hit_latency 5
core_0_l2c_fill_latency 5
core_0_l2c_max_tag_check 1
core_0_l2c_max_fill 1
llc_set 2048
llc_way 16
llc_rq_size 32
llc_wq_size 32
llc_pq_size 32
llc_mshr_size 64
llc_hit_latency 10
llc_fill_latency 10
llc_max_tag_check 1
llc_max_fill 1
dram_channels 1
dram_ranks 1
dram_bankgroups 8
dram_banks 4
dram_rows 65536
dram_columns 1024
dram_channel_width 8
dram_rq_size 64
dram_wq_size 64
dram_size 17179869184
core_0_itlb_prefetcher no
core_0_dtlb_prefetcher no
core_0_stlb_prefetcher no
core_0_l1i_prefetcher no
core_0_l1d_prefetcher no
core_0_l2c_prefetcher no
llc_prefetcher no
llc_replacement drrip

Core_0_instructions 50000001
Core_0_cycles 137772785
Core_0_IPC 0.362916
Core_0_branch_prediction_accuracy 95.216
Core_0_branch_MPKI 7.05882
Core_0_average_ROB_occupancy_at_mispredict 97.0028

Core_0_ITLB_total_access 196456
Core_0_ITLB_total_hit 196456
Core_0_ITLB_total_miss 0
Core_0_ITLB_total_MPKI 0
Core_0_ITLB_total_miss_rate 0
Core_0_ITLB_demand_access 196456
Core_0_ITLB_demand_hit 196456
Core_0_ITLB_demand_miss 0
Core_0_ITLB_demand_MPKI 0
Core_0_ITLB_demand_miss_rate 0
Core_0_ITLB_load_access 196456
Core_0_ITLB_load_hit 196456
Core_0_ITLB_load_miss 0
Core_0_ITLB_load_MPKI 0
Core_0_ITLB_load_miss_rate 0
Core_0_ITLB_rfo_access 0
Core_0_ITLB_rfo_hit 0
Core_0_ITLB_rfo_miss 0
Core_0_ITLB_rfo_MPKI 0
Core_0_ITLB_rfo_miss_rate 0
Core_0_ITLB_prefetch_access 0
Core_0_ITLB_prefetch_hit 0
Core_0_ITLB_prefetch_miss 0
Core_0_ITLB_prefetch_MPKI 0
Core_0_ITLB_prefetch_miss_rate 0
Core_0_ITLB_writeback_access 0
Core_0_ITLB_writeback_hit 0
Core_0_ITLB_writeback_miss 0
Core_0_ITLB_writeback_MPKI 0
Core_0_ITLB_writeback_miss_rate 0
Core_0_ITLB_prefetch_requested 0
Core_0_ITLB_prefetch_issued 0
Core_0_ITLB_prefetch_useful 0
Core_0_ITLB_prefetch_useless 0
Core_0_ITLB_prefetch_late 0
Core_0_ITLB_prefetch_accuracy 0
Core_0_ITLB_prefetch_coverage 0

Core_0_DTLB_total_access 14394754
Core_0_DTLB_total_hit 13029190
Core_0_DTLB_total_miss 1365564
Core_0_DTLB_total_MPKI 27.3113
Core_0_DTLB_total_miss_rate 0.0948654
Core_0_DTLB_demand_access 14394754
Core_0_DTLB_demand_hit 13029190
Core_0_DTLB_demand_miss 1365564
Core_0_DTLB_demand_MPKI 27.3113
Core_0_DTLB_demand_miss_rate 0.0948654
Core_0_DTLB_load_access 14394754
Core_0_DTLB_load_hit 13029190
Core_0_DTLB_load_miss 1365564
Core_0_DTLB_load_MPKI 27.3113
Core_0_DTLB_load_miss_rate 0.0948654
Core_0_DTLB_rfo_access 0
Core_0_DTLB_rfo_hit 0
Core_0_DTLB_rfo_miss 0
Core_0_DTLB_rfo_MPKI 0
Core_0_DTLB_rfo_miss_rate 0
Core_0_DTLB_prefetch_access 0
Core_0_DTLB_prefetch_hit 0
Core_0_DTLB_prefetch_miss 0
Core_0_DTLB_prefetch_MPKI 0
Core_0_DTLB_prefetch_miss_rate 0
Core_0_DTLB_writeback_access 0
Core_0_DTLB_writeback_hit 0
Core_0_DTLB_writeback_miss 0
Core_0_DTLB_writeback_MPKI 0
Core_0_DTLB_writeback_miss_rate 0
Core_0_DTLB_prefetch_requested 0
Core_0_DTLB_prefetch_issued 0
Core_0_DTLB_prefetch_useful 0
Core_0_DTLB_prefetch_useless 0
Core_0_DTLB_prefetch_late 0
Core_0_DTLB_prefetch_accuracy 0
Core_0_DTLB_prefetch_coverage 0

Core_0_STLB_total_access 954781
Core_0_STLB_total_hit 943131
Core_0_STLB_total_miss 11650
Core_0_STLB_total_MPKI 0.233
Core_0_STLB_total_miss_rate 0.0122018
Core_0_STLB_demand_access 954781
Core_0_STLB_demand_hit 943131
Core_0_STLB_demand_miss 11650
Core_0_STLB_demand_MPKI 0.233
Core_0_STLB_demand_miss_rate 0.0122018
Core_0_STLB_load_access 954781
Core_0_STLB_load_hit 943131
Core_0_STLB_load_miss 11650
Core_0_STLB_load_MPKI 0.233
Core_0_STLB_load_miss_rate 0.0122018
Core_0_STLB_rfo_access 0
Core_0_STLB_rfo_hit 0
Core_0_STLB_rfo_miss 0
Core_0_STLB_rfo_MPKI 0
Core_0_STLB_rfo_miss_rate 0
Core_0_STLB_prefetch_access 0
Core_0_STLB_prefetch_hit 0
Core_0_STLB_prefetch_miss 0
Core_0_STLB_prefetch_MPKI 0
Core_0_STLB_prefetch_miss_rate 0
Core_0_STLB_writeback_access 0
Core_0_STLB_writeback_hit 0
Core_0_STLB_writeback_miss 0
Core_0_STLB_writeback_MPKI 0
Core_0_STLB_writeback_miss_rate 0
Core_0_STLB_prefetch_requested 0
Core_0_STLB_prefetch_issued 0
Core_0_STLB_prefetch_useful 0
Core_0_STLB_prefetch_useless 0
Core_0_STLB_prefetch_late 0
Core_0_STLB_prefetch_accuracy 0
Core_0_STLB_prefetch_coverage 0

Core_0_L1I_total_access 200515
Core_0_L1I_total_hit 200514
Core_0_L1I_total_miss 1
Core_0_L1I_total_MPKI 2e-05
Core_0_L1I_total_miss_rate 4.98716e-06
Core_0_L1I_demand_access 200515
Core_0_L1I_demand_hit 200514
Core_0_L1I_demand_miss 1
Core_0_L1I_demand_MPKI 2e-05
Core_0_L1I_demand_miss_rate 4.98716e-06
Core_0_L1I_load_access 200515
Core_0_L1I_load_hit 200514
Core_0_L1I_load_miss 1
Core_0_L1I_load_MPKI 2e-05
Core_0_L1I_load_miss_rate 4.98716e-06
Core_0_L1I_rfo_access 0
Core_0_L1I_rfo_hit 0
Core_0_L1I_rfo_miss 0
Core_0_L1I_rfo_MPKI 0
Core_0_L1I_rfo_miss_rate 0
Core_0_L1I_prefetch_access 0
Core_0_L1I_prefetch_hit 0
Core_0_L1I_prefetch_miss 0
Core_0_L1I_prefetch_MPKI 0
Core_0_L1I_prefetch_miss_rate 0
Core_0_L1I_writeback_access 0
Core_0_L1I_writeback_hit 0
Core_0_L1I_writeback_miss 0
Core_0_L1I_writeback_MPKI 0
Core_0_L1I_writeback_miss_rate 0
Core_0_L1I_prefetch_requested 0
Core_0_L1I_prefetch_issued 0
Core_0_L1I_prefetch_useful 0
Core_0_L1I_prefetch_useless 0
Core_0_L1I_prefetch_late 0
Core_0_L1I_prefetch_accuracy 0
Core_0_L1I_prefetch_coverage 0

Core_0_L1D_total_access 14421693
Core_0_L1D_total_hit 10310624
Core_0_L1D_total_miss 4111069
Core_0_L1D_total_MPKI 82.2214
Core_0_L1D_total_miss_rate 0.285061
Core_0_L1D_demand_access 13222760
Core_0_L1D_demand_hit 9448388
Core_0_L1D_demand_miss 3774372
Core_0_L1D_demand_MPKI 75.4874
Core_0_L1D_demand_miss_rate 0.285445
Core_0_L1D_load_access 13222760
Core_0_L1D_load_hit 9448388
Core_0_L1D_load_miss 3774372
Core_0_L1D_load_MPKI 75.4874
Core_0_L1D_load_miss_rate 0.285445
Core_0_L1D_rfo_access 0
Core_0_L1D_rfo_hit 0
Core_0_L1D_rfo_miss 0
Core_0_L1D_rfo_MPKI 0
Core_0_L1D_rfo_miss_rate 0
Core_0_L1D_prefetch_access 0
Core_0_L1D_prefetch_hit 0
Core_0_L1D_prefetch_miss 0
Core_0_L1D_prefetch_MPKI 0
Core_0_L1D_prefetch_miss_rate 0
Core_0_L1D_writeback_access 1198933
Core_0_L1D_writeback_hit 862236
Core_0_L1D_writeback_miss 336697
Core_0_L1D_writeback_MPKI 6.73394
Core_0_L1D_writeback_miss_rate 0.280831
Core_0_L1D_prefetch_requested 0
Core_0_L1D_prefetch_issued 0
Core_0_L1D_prefetch_useful 0
Core_0_L1D_prefetch_useless 0
Core_0_L1D_prefetch_late 0
Core_0_L1D_prefetch_accuracy 0
Core_0_L1D_prefetch_coverage 0

Core_0_L2C_total_access 3265267
Core_0_L2C_total_hit 1287618
Core_0_L2C_total_miss 1977649
Core_0_L2C_total_MPKI 39.553
Core_0_L2C_total_miss_rate 0.605662
Core_0_L2C_demand_access 2602117
Core_0_L2C_demand_hit 625695
Core_0_L2C_demand_miss 1976422
Core_0_L2C_demand_MPKI 39.5284
Core_0_L2C_demand_miss_rate 0.759544
Core_0_L2C_load_access 2362801
Core_0_L2C_load_hit 451577
Core_0_L2C_load_miss 1911224
Core_0_L2C_load_MPKI 38.2245
Core_0_L2C_load_miss_rate 0.808881
Core_0_L2C_rfo_access 239316
Core_0_L2C_rfo_hit 174118
Core_0_L2C_rfo_miss 65198
Core_0_L2C_rfo_MPKI 1.30396
Core_0_L2C_rfo_miss_rate 0.272435
Core_0_L2C_prefetch_access 0
Core_0_L2C_prefetch_hit 0
Core_0_L2C_prefetch_miss 0
Core_0_L2C_prefetch_MPKI 0
Core_0_L2C_prefetch_miss_rate 0
Core_0_L2C_writeback_access 663150
Core_0_L2C_writeback_hit 661923
Core_0_L2C_writeback_miss 1227
Core_0_L2C_writeback_MPKI 0.02454
Core_0_L2C_writeback_miss_rate 0.00185026
Core_0_L2C_prefetch_requested 0
Core_0_L2C_prefetch_issued 0
Core_0_L2C_prefetch_useful 0
Core_0_L2C_prefetch_useless 0
Core_0_L2C_prefetch_late 0
Core_0_L2C_prefetch_accuracy 0
Core_0_L2C_prefetch_coverage 0

Core_0_LLC_total_access 2392585
Core_0_LLC_total_hit 1319075
Core_0_LLC_total_miss 1073510
Core_0_LLC_total_MPKI 21.4702
Core_0_LLC_total_miss_rate 0.448682
Core_0_LLC_demand_access 1976422
Core_0_LLC_demand_hit 1085045
Core_0_LLC_demand_miss 891377
Core_0_LLC_demand_MPKI 17.8275
Core_0_LLC_demand_miss_rate 0.451005
Core_0_LLC_load_access 1911224
Core_0_LLC_load_hit 1070538
Core_0_LLC_load_miss 840686
Core_0_LLC_load_MPKI 16.8137
Core_0_LLC_load_miss_rate 0.439868
Core_0_LLC_rfo_access 65198
Core_0_LLC_rfo_hit 14507
Core_0_LLC_rfo_miss 50691
Core_0_LLC_rfo_MPKI 1.01382
Core_0_LLC_rfo_miss_rate 0.777493
Core_0_LLC_prefetch_access 0
Core_0_LLC_prefetch_hit 0
Core_0_LLC_prefetch_miss 0
Core_0_LLC_prefetch_MPKI 0
Core_0_LLC_prefetch_miss_rate 0
Core_0_LLC_writeback_access 416163
Core_0_LLC_writeback_hit 234030
Core_0_LLC_writeback_miss 182133
Core_0_LLC_writeback_MPKI 3.64266
Core_0_LLC_writeback_miss_rate 0.437648
Core_0_LLC_prefetch_requested 0
Core_0_LLC_prefetch_issued 0
Core_0_LLC_prefetch_useful 0
Core_0_LLC_prefetch_useless 0
Core_0_LLC_prefetch_late 0
Core_0_LLC_prefetch_accuracy 0
Core_0_LLC_prefetch_coverage 0

[DRAM Statistics]
Channel_0_RQ_row_buffer_hit 10815
Channel_0_RQ_row_buffer_miss 887191
Channel_0_WQ_row_buffer_hit 90361
Channel_0_WQ_row_buffer_miss 163466
Channel_0_WQ_full 0
Channel_0_dbus_congested 4195691
DRAM_total_RQ_row_buffer_hit 10815
DRAM_total_RQ_row_buffer_miss 887191
DRAM_total_WQ_row_buffer_hit 90361
DRAM_total_WQ_row_buffer_miss 163466
DRAM_total_WQ_full 0
DRAM_total_dbus_congested 4195691
DRAM_avg_congested_cycle 20.0051

====== DRAM_RQ_TRAFFIC ========
DRAM_RQ_READ_TRAFFIC_BREAKDOWN:
data_demand_read.count = 891376
data_demand_read.share = 99.24%

inst_demand_read.count = 1
inst_demand_read.share = 0.00%

cache_inst_prefetch.count = 0
cache_inst_prefetch.share = 0.00%

cache_data_prefetch.count = 0
cache_data_prefetch.share = 0.00%

stlb_data_demand.count = 6844
stlb_data_demand.share = 0.76%

stlb_inst_demand.count = 0
stlb_inst_demand.share = 0.00%

stlb_l1i_pref.count = 0
stlb_l1i_pref.share = 0.00%

stlb_l1d_pref.count = 0
stlb_l1d_pref.share = 0.00%

DRAM_RQ_READ_TRAFFIC_SUMMARY:
cache_demand.count = 891377
cache_demand.share = 99.24%

cache_prefetch.count = 0
cache_prefetch.share = 0.00%

stlb_demand.count = 6844
stlb_demand.share = 0.76%

stlb_prefetch.count = 0
stlb_prefetch.share = 0.00%

DRAM_RQ_READ_TRAFFIC_DEBUG:
total_classified_read.count = 898221
unclassified_read.count = 0
total_read_with_other.count = 898221

classified_plus_unclassified_check.count = 898221
dram_rq_read_total_observed.count = 898221
dram_rq_read_total_observed.per_1K_instructions = 17.9644

STLB_MISS_PTW_DRAM_TOUCH_BREAKDOWN:
stlb_miss_total.count = 11650

stlb_miss_touch_dram.count = 6329
stlb_miss_touch_dram.share = 54.33%

stlb_miss_no_dram_touch.count = 5321
stlb_miss_no_dram_touch.share = 45.67%

STLB_MISS_PTW_DRAM_TOUCH_DEBUG:
stlb_miss_touch_plus_no_touch.count = 11650
stlb_miss_total_check.count = 11650

======STLB miss causes ========
Core_0_STLB_miss_cause_breakdown
Core_0_STLB_cause_Demand_Data_miss 11650
Core_0_STLB_cause_Demand_Data_miss_rate 0.0122018
Core_0_STLB_cause_Demand_Instruction_miss 0
Core_0_STLB_cause_Demand_Instruction_miss_rate 0
Core_0_STLB_cause_L1D_Prefetch_miss 0
Core_0_STLB_cause_L1D_Prefetch_miss_rate 0
Core_0_STLB_cause_L1I_Prefetch_miss 0
Core_0_STLB_cause_L1I_Prefetch_miss_rate 0
Core_0_STLB_cause_Other_miss 0
Core_0_STLB_cause_Other_miss_rate 0
Core_0_STLB_Demand_miss 11650
Core_0_STLB_Demand_miss_rate 0.0122018
Core_0_STLB_L1D_Prefetch_miss 0
Core_0_STLB_L1D_Prefetch_miss_rate 0
Core_0_STLB_Other_miss 0
Core_0_STLB_Other_miss_rate 0
