[VMEM] WARNING: physical memory size is smaller than virtual memory size.

*** ChampSim Multicore Out-of-Order Simulator ***
Warmup Instructions: 20000000
Simulation Instructions: 50000000
Number of CPUs: 1
Page size: 4096
Core 0: /data2/zcq/champsim_traces_xsbench/xs.XL100nuclide-296B.champsimtrace.xz
Off-chip DRAM Size: 16 GiB Channels: 1 Width: 64-bit Data Rate: 3205 MT/s
Warmup halting CPU 0 at instruction 20000005 cycle 15304053 for remainder of phase
Warmup finished CPU 0 instructions: 20000005 cycles: 15304053 cumulative IPC: 1.307 (Simulation time: 00 hr 02 min 17 sec)
Warmup complete CPU 0 instructions: 20000005 cycles: 15304053 cumulative IPC: 1.307 (Simulation time: 00 hr 02 min 17 sec)
Simulation finished CPU 0 instructions: 50000004 cycles: 337821365 cumulative IPC: 0.148 (Simulation time: 00 hr 21 min 46 sec)
Simulation complete CPU 0 instructions: 50000004 cycles: 337821365 cumulative IPC: 0.148 (Simulation time: 00 hr 21 min 46 sec)

ChampSim completed all CPUs

=== Simulation ===
CPU 0 runs /data2/zcq/champsim_traces_xsbench/xs.XL100nuclide-296B.champsimtrace.xz

Region of Interest Statistics

CPU 0 cumulative IPC: 0.148 instructions: 50000004 cycles: 337821365
CPU 0 Branch Prediction Accuracy: 87.17% MPKI: 21.47 Average ROB Occupancy at Mispredict: 26.07
Branch type MPKI
BRANCH_DIRECT_JUMP: 0
BRANCH_INDIRECT: 0
BRANCH_CONDITIONAL: 21.47
BRANCH_DIRECT_CALL: 0
BRANCH_INDIRECT_CALL: 0
BRANCH_RETURN: 0

cpu0->cpu0_STLB TOTAL        ACCESS:    1899442 HIT:      66346 MISS:    1833096 MSHR_MERGE:          0
cpu0->cpu0_STLB LOAD         ACCESS:    1899442 HIT:      66346 MISS:    1833096 MSHR_MERGE:          0
cpu0->cpu0_STLB RFO          ACCESS:          0 HIT:          0 MISS:          0 MSHR_MERGE:          0
cpu0->cpu0_STLB PREFETCH     ACCESS:          0 HIT:          0 MISS:          0 MSHR_MERGE:          0
cpu0->cpu0_STLB WRITE        ACCESS:          0 HIT:          0 MISS:          0 MSHR_MERGE:          0
cpu0->cpu0_STLB TRANSLATION  ACCESS:          0 HIT:          0 MISS:          0 MSHR_MERGE:          0
cpu0->cpu0_STLB PREFETCH REQUESTED:          0 ISSUED:          0 USEFUL:          0 USELESS:          0 LATE:          0
cpu0->cpu0_STLB AVERAGE MISS LATENCY: 171.6 cycles
cpu0->cpu0_L2C TOTAL        ACCESS:    4421214 HIT:     254749 MISS:    4166465 MSHR_MERGE:          0
cpu0->cpu0_L2C LOAD         ACCESS:    2954332 HIT:     121969 MISS:    2832363 MSHR_MERGE:          0
cpu0->cpu0_L2C RFO          ACCESS:      10849 HIT:      10540 MISS:        309 MSHR_MERGE:          0
cpu0->cpu0_L2C PREFETCH     ACCESS:          0 HIT:          0 MISS:          0 MSHR_MERGE:          0
cpu0->cpu0_L2C WRITE        ACCESS:      12832 HIT:      12826 MISS:          6 MSHR_MERGE:          0
cpu0->cpu0_L2C TRANSLATION  ACCESS:    1443201 HIT:     109414 MISS:    1333787 MSHR_MERGE:          0
cpu0->cpu0_L2C PREFETCH REQUESTED:          0 ISSUED:          0 USEFUL:          0 USELESS:          0 LATE:          0
cpu0->cpu0_L2C AVERAGE MISS LATENCY: 149.7 cycles
cpu0->cpu0_L1I TOTAL        ACCESS:      11483 HIT:      11483 MISS:          0 MSHR_MERGE:          0
cpu0->cpu0_L1I LOAD         ACCESS:      11483 HIT:      11483 MISS:          0 MSHR_MERGE:          0
cpu0->cpu0_L1I RFO          ACCESS:          0 HIT:          0 MISS:          0 MSHR_MERGE:          0
cpu0->cpu0_L1I PREFETCH     ACCESS:          0 HIT:          0 MISS:          0 MSHR_MERGE:          0
cpu0->cpu0_L1I WRITE        ACCESS:          0 HIT:          0 MISS:          0 MSHR_MERGE:          0
cpu0->cpu0_L1I TRANSLATION  ACCESS:          0 HIT:          0 MISS:          0 MSHR_MERGE:          0
cpu0->cpu0_L1I PREFETCH REQUESTED:          0 ISSUED:          0 USEFUL:          0 USELESS:          0 LATE:          0
cpu0->cpu0_L1I AVERAGE MISS LATENCY: - cycles
cpu0->cpu0_L1D TOTAL        ACCESS:    9670180 HIT:    4528084 MISS:    5142096 MSHR_MERGE:     733709
cpu0->cpu0_L1D LOAD         ACCESS:    4816791 HIT:    1810031 MISS:    3006760 MSHR_MERGE:      52428
cpu0->cpu0_L1D RFO          ACCESS:          0 HIT:          0 MISS:          0 MSHR_MERGE:          0
cpu0->cpu0_L1D PREFETCH     ACCESS:          0 HIT:          0 MISS:          0 MSHR_MERGE:          0
cpu0->cpu0_L1D WRITE        ACCESS:     947135 HIT:     919506 MISS:      27629 MSHR_MERGE:      16775
cpu0->cpu0_L1D TRANSLATION  ACCESS:    3906254 HIT:    1798547 MISS:    2107707 MSHR_MERGE:     664506
cpu0->cpu0_L1D PREFETCH REQUESTED:          0 ISSUED:          0 USEFUL:          0 USELESS:          0 LATE:          0
cpu0->cpu0_L1D AVERAGE MISS LATENCY: 150.5 cycles
cpu0->cpu0_ITLB TOTAL        ACCESS:       9292 HIT:       9292 MISS:          0 MSHR_MERGE:          0
cpu0->cpu0_ITLB LOAD         ACCESS:       9292 HIT:       9292 MISS:          0 MSHR_MERGE:          0
cpu0->cpu0_ITLB RFO          ACCESS:          0 HIT:          0 MISS:          0 MSHR_MERGE:          0
cpu0->cpu0_ITLB PREFETCH     ACCESS:          0 HIT:          0 MISS:          0 MSHR_MERGE:          0
cpu0->cpu0_ITLB WRITE        ACCESS:          0 HIT:          0 MISS:          0 MSHR_MERGE:          0
cpu0->cpu0_ITLB TRANSLATION  ACCESS:          0 HIT:          0 MISS:          0 MSHR_MERGE:          0
cpu0->cpu0_ITLB PREFETCH REQUESTED:          0 ISSUED:          0 USEFUL:          0 USELESS:          0 LATE:          0
cpu0->cpu0_ITLB AVERAGE MISS LATENCY: - cycles
cpu0->cpu0_DTLB TOTAL        ACCESS:    5706274 HIT:    3700748 MISS:    2005526 MSHR_MERGE:     106084
cpu0->cpu0_DTLB LOAD         ACCESS:    5706274 HIT:    3700748 MISS:    2005526 MSHR_MERGE:     106084
cpu0->cpu0_DTLB RFO          ACCESS:          0 HIT:          0 MISS:          0 MSHR_MERGE:          0
cpu0->cpu0_DTLB PREFETCH     ACCESS:          0 HIT:          0 MISS:          0 MSHR_MERGE:          0
cpu0->cpu0_DTLB WRITE        ACCESS:          0 HIT:          0 MISS:          0 MSHR_MERGE:          0
cpu0->cpu0_DTLB TRANSLATION  ACCESS:          0 HIT:          0 MISS:          0 MSHR_MERGE:          0
cpu0->cpu0_DTLB PREFETCH REQUESTED:          0 ISSUED:          0 USEFUL:          0 USELESS:          0 LATE:          0
cpu0->cpu0_DTLB AVERAGE MISS LATENCY: 171.6 cycles
cpu0->LLC TOTAL        ACCESS:    4167747 HIT:    1376533 MISS:    2791214 MSHR_MERGE:          0
cpu0->LLC LOAD         ACCESS:    2832363 HIT:     661587 MISS:    2170776 MSHR_MERGE:          0
cpu0->LLC RFO          ACCESS:        309 HIT:        309 MISS:          0 MSHR_MERGE:          0
cpu0->LLC PREFETCH     ACCESS:          0 HIT:          0 MISS:          0 MSHR_MERGE:          0
cpu0->LLC WRITE        ACCESS:       1288 HIT:       1280 MISS:          8 MSHR_MERGE:          0
cpu0->LLC TRANSLATION  ACCESS:    1333787 HIT:     713357 MISS:     620430 MSHR_MERGE:          0
cpu0->LLC PREFETCH REQUESTED:          0 ISSUED:          0 USEFUL:          0 USELESS:          0 LATE:          0
cpu0->LLC AVERAGE MISS LATENCY: 200 cycles

DRAM Statistics

Channel 0 RQ ROW_BUFFER_HIT:      26917
  ROW_BUFFER_MISS:    2764286
  AVG DBUS CONGESTED CYCLE: 2.947
Channel 0 WQ ROW_BUFFER_HIT:          4
  ROW_BUFFER_MISS:          4
  FULL:          0
Channel 0 REFRESHES ISSUED:      28152

[ROI Statistics]
[System Configuration]
num_cpus 1
cpu_freq 4000
fetch_width 6
decode_width 6
dispatch_width 6
execute_width 6
lq_width 2
sq_width 2
retire_width 6
scheduler_size 128
branch_mispredict_penalty 15
rob_size 352
lq_size 128
sq_size 72
ifetch_buffer_size 64
decode_buffer_size 32
dispatch_buffer_size 32
register_file_size 288
decode_latency 1
dispatch_latency 1
schedule_latency 1
execute_latency 1
page_size 4096
block_size 64
core_0_itlb_set 16
core_0_itlb_way 4
core_0_itlb_rq_size 16
core_0_itlb_wq_size 16
core_0_itlb_pq_size 0
core_0_itlb_mshr_size 8
core_0_itlb_hit_latency 1
core_0_itlb_fill_latency 1
core_0_itlb_max_tag_check 2
core_0_itlb_max_fill 2
core_0_dtlb_set 16
core_0_dtlb_way 4
core_0_dtlb_rq_size 16
core_0_dtlb_wq_size 16
core_0_dtlb_pq_size 0
core_0_dtlb_mshr_size 8
core_0_dtlb_hit_latency 1
core_0_dtlb_fill_latency 1
core_0_dtlb_max_tag_check 2
core_0_dtlb_max_fill 2
core_0_stlb_set 128
core_0_stlb_way 12
core_0_stlb_rq_size 32
core_0_stlb_wq_size 32
core_0_stlb_pq_size 0
core_0_stlb_mshr_size 16
core_0_stlb_hit_latency 4
core_0_stlb_fill_latency 4
core_0_stlb_max_tag_check 1
core_0_stlb_max_fill 1
core_0_l1i_set 64
core_0_l1i_way 8
core_0_l1i_rq_size 64
core_0_l1i_wq_size 64
core_0_l1i_pq_size 32
core_0_l1i_mshr_size 8
core_0_l1i_hit_latency 2
core_0_l1i_fill_latency 2
core_0_l1i_max_tag_check 2
core_0_l1i_max_fill 2
core_0_l1d_set 64
core_0_l1d_way 12
core_0_l1d_rq_size 64
core_0_l1d_wq_size 64
core_0_l1d_pq_size 8
core_0_l1d_mshr_size 16
core_0_l1d_hit_latency 2
core_0_l1d_fill_latency 3
core_0_l1d_max_tag_check 2
core_0_l1d_max_fill 2
core_0_l2c_set 1024
core_0_l2c_way 8
core_0_l2c_rq_size 32
core_0_l2c_wq_size 32
core_0_l2c_pq_size 16
core_0_l2c_mshr_size 32
core_0_l2c_hit_latency 5
core_0_l2c_fill_latency 5
core_0_l2c_max_tag_check 1
core_0_l2c_max_fill 1
llc_set 2048
llc_way 16
llc_rq_size 32
llc_wq_size 32
llc_pq_size 32
llc_mshr_size 64
llc_hit_latency 10
llc_fill_latency 10
llc_max_tag_check 1
llc_max_fill 1
dram_channels 1
dram_ranks 1
dram_bankgroups 8
dram_banks 4
dram_rows 65536
dram_columns 1024
dram_channel_width 8
dram_rq_size 64
dram_wq_size 64
dram_size 17179869184
core_0_itlb_prefetcher no
core_0_dtlb_prefetcher no
core_0_stlb_prefetcher no
core_0_l1i_prefetcher no
core_0_l1d_prefetcher no
core_0_l2c_prefetcher no
llc_prefetcher no
llc_replacement drrip

Core_0_instructions 50000004
Core_0_cycles 337821365
Core_0_IPC 0.148007
Core_0_branch_prediction_accuracy 87.1659
Core_0_branch_MPKI 21.4654
Core_0_average_ROB_occupancy_at_mispredict 26.0692

Core_0_ITLB_total_access 9292
Core_0_ITLB_total_hit 9292
Core_0_ITLB_total_miss 0
Core_0_ITLB_total_MPKI 0
Core_0_ITLB_total_miss_rate 0
Core_0_ITLB_demand_access 9292
Core_0_ITLB_demand_hit 9292
Core_0_ITLB_demand_miss 0
Core_0_ITLB_demand_MPKI 0
Core_0_ITLB_demand_miss_rate 0
Core_0_ITLB_load_access 9292
Core_0_ITLB_load_hit 9292
Core_0_ITLB_load_miss 0
Core_0_ITLB_load_MPKI 0
Core_0_ITLB_load_miss_rate 0
Core_0_ITLB_rfo_access 0
Core_0_ITLB_rfo_hit 0
Core_0_ITLB_rfo_miss 0
Core_0_ITLB_rfo_MPKI 0
Core_0_ITLB_rfo_miss_rate 0
Core_0_ITLB_prefetch_access 0
Core_0_ITLB_prefetch_hit 0
Core_0_ITLB_prefetch_miss 0
Core_0_ITLB_prefetch_MPKI 0
Core_0_ITLB_prefetch_miss_rate 0
Core_0_ITLB_writeback_access 0
Core_0_ITLB_writeback_hit 0
Core_0_ITLB_writeback_miss 0
Core_0_ITLB_writeback_MPKI 0
Core_0_ITLB_writeback_miss_rate 0
Core_0_ITLB_prefetch_requested 0
Core_0_ITLB_prefetch_issued 0
Core_0_ITLB_prefetch_useful 0
Core_0_ITLB_prefetch_useless 0
Core_0_ITLB_prefetch_late 0
Core_0_ITLB_prefetch_accuracy 0
Core_0_ITLB_prefetch_coverage 0

Core_0_DTLB_total_access 5706274
Core_0_DTLB_total_hit 3700748
Core_0_DTLB_total_miss 2005526
Core_0_DTLB_total_MPKI 40.1105
Core_0_DTLB_total_miss_rate 0.35146
Core_0_DTLB_demand_access 5706274
Core_0_DTLB_demand_hit 3700748
Core_0_DTLB_demand_miss 2005526
Core_0_DTLB_demand_MPKI 40.1105
Core_0_DTLB_demand_miss_rate 0.35146
Core_0_DTLB_load_access 5706274
Core_0_DTLB_load_hit 3700748
Core_0_DTLB_load_miss 2005526
Core_0_DTLB_load_MPKI 40.1105
Core_0_DTLB_load_miss_rate 0.35146
Core_0_DTLB_rfo_access 0
Core_0_DTLB_rfo_hit 0
Core_0_DTLB_rfo_miss 0
Core_0_DTLB_rfo_MPKI 0
Core_0_DTLB_rfo_miss_rate 0
Core_0_DTLB_prefetch_access 0
Core_0_DTLB_prefetch_hit 0
Core_0_DTLB_prefetch_miss 0
Core_0_DTLB_prefetch_MPKI 0
Core_0_DTLB_prefetch_miss_rate 0
Core_0_DTLB_writeback_access 0
Core_0_DTLB_writeback_hit 0
Core_0_DTLB_writeback_miss 0
Core_0_DTLB_writeback_MPKI 0
Core_0_DTLB_writeback_miss_rate 0
Core_0_DTLB_prefetch_requested 0
Core_0_DTLB_prefetch_issued 0
Core_0_DTLB_prefetch_useful 0
Core_0_DTLB_prefetch_useless 0
Core_0_DTLB_prefetch_late 0
Core_0_DTLB_prefetch_accuracy 0
Core_0_DTLB_prefetch_coverage 0

Core_0_STLB_total_access 1899442
Core_0_STLB_total_hit 66346
Core_0_STLB_total_miss 1833096
Core_0_STLB_total_MPKI 36.6619
Core_0_STLB_total_miss_rate 0.965071
Core_0_STLB_demand_access 1899442
Core_0_STLB_demand_hit 66346
Core_0_STLB_demand_miss 1833096
Core_0_STLB_demand_MPKI 36.6619
Core_0_STLB_demand_miss_rate 0.965071
Core_0_STLB_load_access 1899442
Core_0_STLB_load_hit 66346
Core_0_STLB_load_miss 1833096
Core_0_STLB_load_MPKI 36.6619
Core_0_STLB_load_miss_rate 0.965071
Core_0_STLB_rfo_access 0
Core_0_STLB_rfo_hit 0
Core_0_STLB_rfo_miss 0
Core_0_STLB_rfo_MPKI 0
Core_0_STLB_rfo_miss_rate 0
Core_0_STLB_prefetch_access 0
Core_0_STLB_prefetch_hit 0
Core_0_STLB_prefetch_miss 0
Core_0_STLB_prefetch_MPKI 0
Core_0_STLB_prefetch_miss_rate 0
Core_0_STLB_writeback_access 0
Core_0_STLB_writeback_hit 0
Core_0_STLB_writeback_miss 0
Core_0_STLB_writeback_MPKI 0
Core_0_STLB_writeback_miss_rate 0
Core_0_STLB_prefetch_requested 0
Core_0_STLB_prefetch_issued 0
Core_0_STLB_prefetch_useful 0
Core_0_STLB_prefetch_useless 0
Core_0_STLB_prefetch_late 0
Core_0_STLB_prefetch_accuracy 0
Core_0_STLB_prefetch_coverage 0

Core_0_L1I_total_access 11483
Core_0_L1I_total_hit 11483
Core_0_L1I_total_miss 0
Core_0_L1I_total_MPKI 0
Core_0_L1I_total_miss_rate 0
Core_0_L1I_demand_access 11483
Core_0_L1I_demand_hit 11483
Core_0_L1I_demand_miss 0
Core_0_L1I_demand_MPKI 0
Core_0_L1I_demand_miss_rate 0
Core_0_L1I_load_access 11483
Core_0_L1I_load_hit 11483
Core_0_L1I_load_miss 0
Core_0_L1I_load_MPKI 0
Core_0_L1I_load_miss_rate 0
Core_0_L1I_rfo_access 0
Core_0_L1I_rfo_hit 0
Core_0_L1I_rfo_miss 0
Core_0_L1I_rfo_MPKI 0
Core_0_L1I_rfo_miss_rate 0
Core_0_L1I_prefetch_access 0
Core_0_L1I_prefetch_hit 0
Core_0_L1I_prefetch_miss 0
Core_0_L1I_prefetch_MPKI 0
Core_0_L1I_prefetch_miss_rate 0
Core_0_L1I_writeback_access 0
Core_0_L1I_writeback_hit 0
Core_0_L1I_writeback_miss 0
Core_0_L1I_writeback_MPKI 0
Core_0_L1I_writeback_miss_rate 0
Core_0_L1I_prefetch_requested 0
Core_0_L1I_prefetch_issued 0
Core_0_L1I_prefetch_useful 0
Core_0_L1I_prefetch_useless 0
Core_0_L1I_prefetch_late 0
Core_0_L1I_prefetch_accuracy 0
Core_0_L1I_prefetch_coverage 0

Core_0_L1D_total_access 5763926
Core_0_L1D_total_hit 2729537
Core_0_L1D_total_miss 3034389
Core_0_L1D_total_MPKI 60.6878
Core_0_L1D_total_miss_rate 0.526445
Core_0_L1D_demand_access 4816791
Core_0_L1D_demand_hit 1810031
Core_0_L1D_demand_miss 3006760
Core_0_L1D_demand_MPKI 60.1352
Core_0_L1D_demand_miss_rate 0.624225
Core_0_L1D_load_access 4816791
Core_0_L1D_load_hit 1810031
Core_0_L1D_load_miss 3006760
Core_0_L1D_load_MPKI 60.1352
Core_0_L1D_load_miss_rate 0.624225
Core_0_L1D_rfo_access 0
Core_0_L1D_rfo_hit 0
Core_0_L1D_rfo_miss 0
Core_0_L1D_rfo_MPKI 0
Core_0_L1D_rfo_miss_rate 0
Core_0_L1D_prefetch_access 0
Core_0_L1D_prefetch_hit 0
Core_0_L1D_prefetch_miss 0
Core_0_L1D_prefetch_MPKI 0
Core_0_L1D_prefetch_miss_rate 0
Core_0_L1D_writeback_access 947135
Core_0_L1D_writeback_hit 919506
Core_0_L1D_writeback_miss 27629
Core_0_L1D_writeback_MPKI 0.55258
Core_0_L1D_writeback_miss_rate 0.0291711
Core_0_L1D_prefetch_requested 0
Core_0_L1D_prefetch_issued 0
Core_0_L1D_prefetch_useful 0
Core_0_L1D_prefetch_useless 0
Core_0_L1D_prefetch_late 0
Core_0_L1D_prefetch_accuracy 0
Core_0_L1D_prefetch_coverage 0

Core_0_L2C_total_access 2978013
Core_0_L2C_total_hit 145335
Core_0_L2C_total_miss 2832678
Core_0_L2C_total_MPKI 56.6536
Core_0_L2C_total_miss_rate 0.951197
Core_0_L2C_demand_access 2965181
Core_0_L2C_demand_hit 132509
Core_0_L2C_demand_miss 2832672
Core_0_L2C_demand_MPKI 56.6534
Core_0_L2C_demand_miss_rate 0.955312
Core_0_L2C_load_access 2954332
Core_0_L2C_load_hit 121969
Core_0_L2C_load_miss 2832363
Core_0_L2C_load_MPKI 56.6473
Core_0_L2C_load_miss_rate 0.958715
Core_0_L2C_rfo_access 10849
Core_0_L2C_rfo_hit 10540
Core_0_L2C_rfo_miss 309
Core_0_L2C_rfo_MPKI 0.00618
Core_0_L2C_rfo_miss_rate 0.0284819
Core_0_L2C_prefetch_access 0
Core_0_L2C_prefetch_hit 0
Core_0_L2C_prefetch_miss 0
Core_0_L2C_prefetch_MPKI 0
Core_0_L2C_prefetch_miss_rate 0
Core_0_L2C_writeback_access 12832
Core_0_L2C_writeback_hit 12826
Core_0_L2C_writeback_miss 6
Core_0_L2C_writeback_MPKI 0.00012
Core_0_L2C_writeback_miss_rate 0.000467581
Core_0_L2C_prefetch_requested 0
Core_0_L2C_prefetch_issued 0
Core_0_L2C_prefetch_useful 0
Core_0_L2C_prefetch_useless 0
Core_0_L2C_prefetch_late 0
Core_0_L2C_prefetch_accuracy 0
Core_0_L2C_prefetch_coverage 0

Core_0_LLC_total_access 2833960
Core_0_LLC_total_hit 663176
Core_0_LLC_total_miss 2170784
Core_0_LLC_total_MPKI 43.4157
Core_0_LLC_total_miss_rate 0.76599
Core_0_LLC_demand_access 2832672
Core_0_LLC_demand_hit 661896
Core_0_LLC_demand_miss 2170776
Core_0_LLC_demand_MPKI 43.4155
Core_0_LLC_demand_miss_rate 0.766335
Core_0_LLC_load_access 2832363
Core_0_LLC_load_hit 661587
Core_0_LLC_load_miss 2170776
Core_0_LLC_load_MPKI 43.4155
Core_0_LLC_load_miss_rate 0.766419
Core_0_LLC_rfo_access 309
Core_0_LLC_rfo_hit 309
Core_0_LLC_rfo_miss 0
Core_0_LLC_rfo_MPKI 0
Core_0_LLC_rfo_miss_rate 0
Core_0_LLC_prefetch_access 0
Core_0_LLC_prefetch_hit 0
Core_0_LLC_prefetch_miss 0
Core_0_LLC_prefetch_MPKI 0
Core_0_LLC_prefetch_miss_rate 0
Core_0_LLC_writeback_access 1288
Core_0_LLC_writeback_hit 1280
Core_0_LLC_writeback_miss 8
Core_0_LLC_writeback_MPKI 0.00016
Core_0_LLC_writeback_miss_rate 0.00621118
Core_0_LLC_prefetch_requested 0
Core_0_LLC_prefetch_issued 0
Core_0_LLC_prefetch_useful 0
Core_0_LLC_prefetch_useless 0
Core_0_LLC_prefetch_late 0
Core_0_LLC_prefetch_accuracy 0
Core_0_LLC_prefetch_coverage 0

[DRAM Statistics]
Channel_0_RQ_row_buffer_hit 26917
Channel_0_RQ_row_buffer_miss 2764286
Channel_0_WQ_row_buffer_hit 4
Channel_0_WQ_row_buffer_miss 4
Channel_0_WQ_full 0
Channel_0_dbus_congested 2904411
DRAM_total_RQ_row_buffer_hit 26917
DRAM_total_RQ_row_buffer_miss 2764286
DRAM_total_WQ_row_buffer_hit 4
DRAM_total_WQ_row_buffer_miss 4
DRAM_total_WQ_full 0
DRAM_total_dbus_congested 2904411
DRAM_avg_congested_cycle 2.94662

====== DRAM_RQ_TRAFFIC ========
DRAM_RQ_READ_TRAFFIC_BREAKDOWN:
data_demand_read.count = 2170776
data_demand_read.share = 77.77%

inst_demand_read.count = 0
inst_demand_read.share = 0.00%

cache_inst_prefetch.count = 0
cache_inst_prefetch.share = 0.00%

cache_data_prefetch.count = 0
cache_data_prefetch.share = 0.00%

stlb_data_demand.count = 620430
stlb_data_demand.share = 22.23%

stlb_inst_demand.count = 0
stlb_inst_demand.share = 0.00%

stlb_l1i_pref.count = 0
stlb_l1i_pref.share = 0.00%

stlb_l1d_pref.count = 0
stlb_l1d_pref.share = 0.00%

DRAM_RQ_READ_TRAFFIC_SUMMARY:
cache_demand.count = 2170776
cache_demand.share = 77.77%

cache_prefetch.count = 0
cache_prefetch.share = 0.00%

stlb_demand.count = 620430
stlb_demand.share = 22.23%

stlb_prefetch.count = 0
stlb_prefetch.share = 0.00%

DRAM_RQ_READ_TRAFFIC_DEBUG:
total_classified_read.count = 2791206
unclassified_read.count = 0
total_read_with_other.count = 2791206

classified_plus_unclassified_check.count = 2791206
dram_rq_read_total_observed.count = 2791206
dram_rq_read_total_observed.per_1K_instructions = 55.8241

STLB_MISS_PTW_DRAM_TOUCH_BREAKDOWN:
stlb_miss_total.count = 1833092

stlb_miss_touch_dram.count = 623292
stlb_miss_touch_dram.share = 34.00%

stlb_miss_no_dram_touch.count = 1209800
stlb_miss_no_dram_touch.share = 66.00%

STLB_MISS_PTW_DRAM_TOUCH_DEBUG:
stlb_miss_touch_plus_no_touch.count = 1833092
stlb_miss_total_check.count = 1833092

======STLB miss causes ========
Core_0_STLB_miss_cause_breakdown
Core_0_STLB_cause_Demand_Data_miss 1833096
Core_0_STLB_cause_Demand_Data_miss_rate 0.965071
Core_0_STLB_cause_Demand_Instruction_miss 0
Core_0_STLB_cause_Demand_Instruction_miss_rate 0
Core_0_STLB_cause_L1D_Prefetch_miss 0
Core_0_STLB_cause_L1D_Prefetch_miss_rate 0
Core_0_STLB_cause_L1I_Prefetch_miss 0
Core_0_STLB_cause_L1I_Prefetch_miss_rate 0
Core_0_STLB_cause_Other_miss 0
Core_0_STLB_cause_Other_miss_rate 0
Core_0_STLB_Demand_miss 1833096
Core_0_STLB_Demand_miss_rate 0.965071
Core_0_STLB_L1D_Prefetch_miss 0
Core_0_STLB_L1D_Prefetch_miss_rate 0
Core_0_STLB_Other_miss 0
Core_0_STLB_Other_miss_rate 0
