[VMEM] WARNING: physical memory size is smaller than virtual memory size.

*** ChampSim Multicore Out-of-Order Simulator ***
Warmup Instructions: 20000000
Simulation Instructions: 50000000
Number of CPUs: 1
Page size: 4096
Core 0: /data2/zcq/champsim_traces_xsbench/xs.XXL64hash-205B.champsimtrace.xz
Off-chip DRAM Size: 16 GiB Channels: 1 Width: 64-bit Data Rate: 3205 MT/s
Warmup halting CPU 0 at instruction 20000003 cycle 13979937 for remainder of phase
Warmup finished CPU 0 instructions: 20000003 cycles: 13979937 cumulative IPC: 1.431 (Simulation time: 00 hr 02 min 05 sec)
Warmup complete CPU 0 instructions: 20000003 cycles: 13979937 cumulative IPC: 1.431 (Simulation time: 00 hr 02 min 05 sec)
Simulation finished CPU 0 instructions: 50000001 cycles: 263984277 cumulative IPC: 0.1894 (Simulation time: 00 hr 19 min 10 sec)
Simulation complete CPU 0 instructions: 50000001 cycles: 263984277 cumulative IPC: 0.1894 (Simulation time: 00 hr 19 min 10 sec)

ChampSim completed all CPUs

=== Simulation ===
CPU 0 runs /data2/zcq/champsim_traces_xsbench/xs.XXL64hash-205B.champsimtrace.xz

Region of Interest Statistics

CPU 0 cumulative IPC: 0.1894 instructions: 50000001 cycles: 263984277
CPU 0 Branch Prediction Accuracy: 92.84% MPKI: 10.34 Average ROB Occupancy at Mispredict: 64.84
Branch type MPKI
BRANCH_DIRECT_JUMP: 2e-05
BRANCH_INDIRECT: 0
BRANCH_CONDITIONAL: 10.34
BRANCH_DIRECT_CALL: 0
BRANCH_INDIRECT_CALL: 0
BRANCH_RETURN: 0

cpu0->cpu0_STLB TOTAL        ACCESS:     472513 HIT:       6247 MISS:     466266 MSHR_MERGE:          0
cpu0->cpu0_STLB LOAD         ACCESS:     472513 HIT:       6247 MISS:     466266 MSHR_MERGE:          0
cpu0->cpu0_STLB RFO          ACCESS:          0 HIT:          0 MISS:          0 MSHR_MERGE:          0
cpu0->cpu0_STLB PREFETCH     ACCESS:          0 HIT:          0 MISS:          0 MSHR_MERGE:          0
cpu0->cpu0_STLB WRITE        ACCESS:          0 HIT:          0 MISS:          0 MSHR_MERGE:          0
cpu0->cpu0_STLB TRANSLATION  ACCESS:          0 HIT:          0 MISS:          0 MSHR_MERGE:          0
cpu0->cpu0_STLB PREFETCH REQUESTED:          0 ISSUED:          0 USEFUL:          0 USELESS:          0 LATE:          0
cpu0->cpu0_STLB AVERAGE MISS LATENCY: 397.3 cycles
cpu0->cpu0_L2C TOTAL        ACCESS:    2852509 HIT:     271078 MISS:    2581431 MSHR_MERGE:          0
cpu0->cpu0_L2C LOAD         ACCESS:    2269333 HIT:      55021 MISS:    2214312 MSHR_MERGE:          0
cpu0->cpu0_L2C RFO          ACCESS:       4333 HIT:       4282 MISS:         51 MSHR_MERGE:          0
cpu0->cpu0_L2C PREFETCH     ACCESS:          0 HIT:          0 MISS:          0 MSHR_MERGE:          0
cpu0->cpu0_L2C WRITE        ACCESS:       6575 HIT:       6551 MISS:         24 MSHR_MERGE:          0
cpu0->cpu0_L2C TRANSLATION  ACCESS:     572268 HIT:     205224 MISS:     367044 MSHR_MERGE:          0
cpu0->cpu0_L2C PREFETCH REQUESTED:          0 ISSUED:          0 USEFUL:          0 USELESS:          0 LATE:          0
cpu0->cpu0_L2C AVERAGE MISS LATENCY: 218.1 cycles
cpu0->cpu0_L1I TOTAL        ACCESS:     133359 HIT:     133359 MISS:          0 MSHR_MERGE:          0
cpu0->cpu0_L1I LOAD         ACCESS:     133359 HIT:     133359 MISS:          0 MSHR_MERGE:          0
cpu0->cpu0_L1I RFO          ACCESS:          0 HIT:          0 MISS:          0 MSHR_MERGE:          0
cpu0->cpu0_L1I PREFETCH     ACCESS:          0 HIT:          0 MISS:          0 MSHR_MERGE:          0
cpu0->cpu0_L1I WRITE        ACCESS:          0 HIT:          0 MISS:          0 MSHR_MERGE:          0
cpu0->cpu0_L1I TRANSLATION  ACCESS:          0 HIT:          0 MISS:          0 MSHR_MERGE:          0
cpu0->cpu0_L1I PREFETCH REQUESTED:          0 ISSUED:          0 USEFUL:          0 USELESS:          0 LATE:          0
cpu0->cpu0_L1I AVERAGE MISS LATENCY: - cycles
cpu0->cpu0_L1D TOTAL        ACCESS:    9704547 HIT:    6208410 MISS:    3496137 MSHR_MERGE:     650197
cpu0->cpu0_L1D LOAD         ACCESS:    6955635 HIT:    4193618 MISS:    2762017 MSHR_MERGE:     492684
cpu0->cpu0_L1D RFO          ACCESS:          0 HIT:          0 MISS:          0 MSHR_MERGE:          0
cpu0->cpu0_L1D PREFETCH     ACCESS:          0 HIT:          0 MISS:          0 MSHR_MERGE:          0
cpu0->cpu0_L1D WRITE        ACCESS:    1635764 HIT:    1620160 MISS:      15604 MSHR_MERGE:      11265
cpu0->cpu0_L1D TRANSLATION  ACCESS:    1113148 HIT:     394632 MISS:     718516 MSHR_MERGE:     146248
cpu0->cpu0_L1D PREFETCH REQUESTED:          0 ISSUED:          0 USEFUL:          0 USELESS:          0 LATE:          0
cpu0->cpu0_L1D AVERAGE MISS LATENCY: 207.3 cycles
cpu0->cpu0_ITLB TOTAL        ACCESS:     111268 HIT:     111268 MISS:          0 MSHR_MERGE:          0
cpu0->cpu0_ITLB LOAD         ACCESS:     111268 HIT:     111268 MISS:          0 MSHR_MERGE:          0
cpu0->cpu0_ITLB RFO          ACCESS:          0 HIT:          0 MISS:          0 MSHR_MERGE:          0
cpu0->cpu0_ITLB PREFETCH     ACCESS:          0 HIT:          0 MISS:          0 MSHR_MERGE:          0
cpu0->cpu0_ITLB WRITE        ACCESS:          0 HIT:          0 MISS:          0 MSHR_MERGE:          0
cpu0->cpu0_ITLB TRANSLATION  ACCESS:          0 HIT:          0 MISS:          0 MSHR_MERGE:          0
cpu0->cpu0_ITLB PREFETCH REQUESTED:          0 ISSUED:          0 USEFUL:          0 USELESS:          0 LATE:          0
cpu0->cpu0_ITLB AVERAGE MISS LATENCY: - cycles
cpu0->cpu0_DTLB TOTAL        ACCESS:    8483451 HIT:    6799071 MISS:    1684380 MSHR_MERGE:    1211867
cpu0->cpu0_DTLB LOAD         ACCESS:    8483451 HIT:    6799071 MISS:    1684380 MSHR_MERGE:    1211867
cpu0->cpu0_DTLB RFO          ACCESS:          0 HIT:          0 MISS:          0 MSHR_MERGE:          0
cpu0->cpu0_DTLB PREFETCH     ACCESS:          0 HIT:          0 MISS:          0 MSHR_MERGE:          0
cpu0->cpu0_DTLB WRITE        ACCESS:          0 HIT:          0 MISS:          0 MSHR_MERGE:          0
cpu0->cpu0_DTLB TRANSLATION  ACCESS:          0 HIT:          0 MISS:          0 MSHR_MERGE:          0
cpu0->cpu0_DTLB PREFETCH REQUESTED:          0 ISSUED:          0 USEFUL:          0 USELESS:          0 LATE:          0
cpu0->cpu0_DTLB AVERAGE MISS LATENCY: 398 cycles
cpu0->LLC TOTAL        ACCESS:    2581647 HIT:      72446 MISS:    2509201 MSHR_MERGE:          0
cpu0->LLC LOAD         ACCESS:    2214312 HIT:       9493 MISS:    2204819 MSHR_MERGE:          0
cpu0->LLC RFO          ACCESS:         51 HIT:         51 MISS:          0 MSHR_MERGE:          0
cpu0->LLC PREFETCH     ACCESS:          0 HIT:          0 MISS:          0 MSHR_MERGE:          0
cpu0->LLC WRITE        ACCESS:        240 HIT:        211 MISS:         29 MSHR_MERGE:          0
cpu0->LLC TRANSLATION  ACCESS:     367044 HIT:      62691 MISS:     304353 MSHR_MERGE:          0
cpu0->LLC PREFETCH REQUESTED:          0 ISSUED:          0 USEFUL:          0 USELESS:          0 LATE:          0
cpu0->LLC AVERAGE MISS LATENCY: 207.9 cycles

DRAM Statistics

Channel 0 RQ ROW_BUFFER_HIT:      36283
  ROW_BUFFER_MISS:    2472889
  AVG DBUS CONGESTED CYCLE: 3.007
Channel 0 WQ ROW_BUFFER_HIT:          8
  ROW_BUFFER_MISS:         22
  FULL:          0
Channel 0 REFRESHES ISSUED:      21999

[ROI Statistics]
[System Configuration]
num_cpus 1
cpu_freq 4000
fetch_width 6
decode_width 6
dispatch_width 6
execute_width 6
lq_width 2
sq_width 2
retire_width 6
scheduler_size 128
branch_mispredict_penalty 15
rob_size 352
lq_size 128
sq_size 72
ifetch_buffer_size 64
decode_buffer_size 32
dispatch_buffer_size 32
register_file_size 288
decode_latency 1
dispatch_latency 1
schedule_latency 1
execute_latency 1
page_size 4096
block_size 64
core_0_itlb_set 16
core_0_itlb_way 4
core_0_itlb_rq_size 16
core_0_itlb_wq_size 16
core_0_itlb_pq_size 0
core_0_itlb_mshr_size 8
core_0_itlb_hit_latency 1
core_0_itlb_fill_latency 1
core_0_itlb_max_tag_check 2
core_0_itlb_max_fill 2
core_0_dtlb_set 16
core_0_dtlb_way 4
core_0_dtlb_rq_size 16
core_0_dtlb_wq_size 16
core_0_dtlb_pq_size 0
core_0_dtlb_mshr_size 8
core_0_dtlb_hit_latency 1
core_0_dtlb_fill_latency 1
core_0_dtlb_max_tag_check 2
core_0_dtlb_max_fill 2
core_0_stlb_set 128
core_0_stlb_way 12
core_0_stlb_rq_size 32
core_0_stlb_wq_size 32
core_0_stlb_pq_size 0
core_0_stlb_mshr_size 16
core_0_stlb_hit_latency 4
core_0_stlb_fill_latency 4
core_0_stlb_max_tag_check 1
core_0_stlb_max_fill 1
core_0_l1i_set 64
core_0_l1i_way 8
core_0_l1i_rq_size 64
core_0_l1i_wq_size 64
core_0_l1i_pq_size 32
core_0_l1i_mshr_size 8
core_0_l1i_hit_latency 2
core_0_l1i_fill_latency 2
core_0_l1i_max_tag_check 2
core_0_l1i_max_fill 2
core_0_l1d_set 64
core_0_l1d_way 12
core_0_l1d_rq_size 64
core_0_l1d_wq_size 64
core_0_l1d_pq_size 8
core_0_l1d_mshr_size 16
core_0_l1d_hit_latency 2
core_0_l1d_fill_latency 3
core_0_l1d_max_tag_check 2
core_0_l1d_max_fill 2
core_0_l2c_set 1024
core_0_l2c_way 8
core_0_l2c_rq_size 32
core_0_l2c_wq_size 32
core_0_l2c_pq_size 16
core_0_l2c_mshr_size 32
core_0_l2c_hit_latency 5
core_0_l2c_fill_latency 5
core_0_l2c_max_tag_check 1
core_0_l2c_max_fill 1
llc_set 2048
llc_way 16
llc_rq_size 32
llc_wq_size 32
llc_pq_size 32
llc_mshr_size 64
llc_hit_latency 10
llc_fill_latency 10
llc_max_tag_check 1
llc_max_fill 1
dram_channels 1
dram_ranks 1
dram_bankgroups 8
dram_banks 4
dram_rows 65536
dram_columns 1024
dram_channel_width 8
dram_rq_size 64
dram_wq_size 64
dram_size 17179869184
core_0_itlb_prefetcher no
core_0_dtlb_prefetcher no
core_0_stlb_prefetcher no
core_0_l1i_prefetcher no
core_0_l1d_prefetcher no
core_0_l2c_prefetcher no
llc_prefetcher no
llc_replacement drrip

Core_0_instructions 50000001
Core_0_cycles 263984277
Core_0_IPC 0.189405
Core_0_branch_prediction_accuracy 92.8416
Core_0_branch_MPKI 10.3426
Core_0_average_ROB_occupancy_at_mispredict 64.8397

Core_0_ITLB_total_access 111268
Core_0_ITLB_total_hit 111268
Core_0_ITLB_total_miss 0
Core_0_ITLB_total_MPKI 0
Core_0_ITLB_total_miss_rate 0
Core_0_ITLB_demand_access 111268
Core_0_ITLB_demand_hit 111268
Core_0_ITLB_demand_miss 0
Core_0_ITLB_demand_MPKI 0
Core_0_ITLB_demand_miss_rate 0
Core_0_ITLB_load_access 111268
Core_0_ITLB_load_hit 111268
Core_0_ITLB_load_miss 0
Core_0_ITLB_load_MPKI 0
Core_0_ITLB_load_miss_rate 0
Core_0_ITLB_rfo_access 0
Core_0_ITLB_rfo_hit 0
Core_0_ITLB_rfo_miss 0
Core_0_ITLB_rfo_MPKI 0
Core_0_ITLB_rfo_miss_rate 0
Core_0_ITLB_prefetch_access 0
Core_0_ITLB_prefetch_hit 0
Core_0_ITLB_prefetch_miss 0
Core_0_ITLB_prefetch_MPKI 0
Core_0_ITLB_prefetch_miss_rate 0
Core_0_ITLB_writeback_access 0
Core_0_ITLB_writeback_hit 0
Core_0_ITLB_writeback_miss 0
Core_0_ITLB_writeback_MPKI 0
Core_0_ITLB_writeback_miss_rate 0
Core_0_ITLB_prefetch_requested 0
Core_0_ITLB_prefetch_issued 0
Core_0_ITLB_prefetch_useful 0
Core_0_ITLB_prefetch_useless 0
Core_0_ITLB_prefetch_late 0
Core_0_ITLB_prefetch_accuracy 0
Core_0_ITLB_prefetch_coverage 0

Core_0_DTLB_total_access 8483451
Core_0_DTLB_total_hit 6799071
Core_0_DTLB_total_miss 1684380
Core_0_DTLB_total_MPKI 33.6876
Core_0_DTLB_total_miss_rate 0.198549
Core_0_DTLB_demand_access 8483451
Core_0_DTLB_demand_hit 6799071
Core_0_DTLB_demand_miss 1684380
Core_0_DTLB_demand_MPKI 33.6876
Core_0_DTLB_demand_miss_rate 0.198549
Core_0_DTLB_load_access 8483451
Core_0_DTLB_load_hit 6799071
Core_0_DTLB_load_miss 1684380
Core_0_DTLB_load_MPKI 33.6876
Core_0_DTLB_load_miss_rate 0.198549
Core_0_DTLB_rfo_access 0
Core_0_DTLB_rfo_hit 0
Core_0_DTLB_rfo_miss 0
Core_0_DTLB_rfo_MPKI 0
Core_0_DTLB_rfo_miss_rate 0
Core_0_DTLB_prefetch_access 0
Core_0_DTLB_prefetch_hit 0
Core_0_DTLB_prefetch_miss 0
Core_0_DTLB_prefetch_MPKI 0
Core_0_DTLB_prefetch_miss_rate 0
Core_0_DTLB_writeback_access 0
Core_0_DTLB_writeback_hit 0
Core_0_DTLB_writeback_miss 0
Core_0_DTLB_writeback_MPKI 0
Core_0_DTLB_writeback_miss_rate 0
Core_0_DTLB_prefetch_requested 0
Core_0_DTLB_prefetch_issued 0
Core_0_DTLB_prefetch_useful 0
Core_0_DTLB_prefetch_useless 0
Core_0_DTLB_prefetch_late 0
Core_0_DTLB_prefetch_accuracy 0
Core_0_DTLB_prefetch_coverage 0

Core_0_STLB_total_access 472513
Core_0_STLB_total_hit 6247
Core_0_STLB_total_miss 466266
Core_0_STLB_total_MPKI 9.32532
Core_0_STLB_total_miss_rate 0.986779
Core_0_STLB_demand_access 472513
Core_0_STLB_demand_hit 6247
Core_0_STLB_demand_miss 466266
Core_0_STLB_demand_MPKI 9.32532
Core_0_STLB_demand_miss_rate 0.986779
Core_0_STLB_load_access 472513
Core_0_STLB_load_hit 6247
Core_0_STLB_load_miss 466266
Core_0_STLB_load_MPKI 9.32532
Core_0_STLB_load_miss_rate 0.986779
Core_0_STLB_rfo_access 0
Core_0_STLB_rfo_hit 0
Core_0_STLB_rfo_miss 0
Core_0_STLB_rfo_MPKI 0
Core_0_STLB_rfo_miss_rate 0
Core_0_STLB_prefetch_access 0
Core_0_STLB_prefetch_hit 0
Core_0_STLB_prefetch_miss 0
Core_0_STLB_prefetch_MPKI 0
Core_0_STLB_prefetch_miss_rate 0
Core_0_STLB_writeback_access 0
Core_0_STLB_writeback_hit 0
Core_0_STLB_writeback_miss 0
Core_0_STLB_writeback_MPKI 0
Core_0_STLB_writeback_miss_rate 0
Core_0_STLB_prefetch_requested 0
Core_0_STLB_prefetch_issued 0
Core_0_STLB_prefetch_useful 0
Core_0_STLB_prefetch_useless 0
Core_0_STLB_prefetch_late 0
Core_0_STLB_prefetch_accuracy 0
Core_0_STLB_prefetch_coverage 0

Core_0_L1I_total_access 133359
Core_0_L1I_total_hit 133359
Core_0_L1I_total_miss 0
Core_0_L1I_total_MPKI 0
Core_0_L1I_total_miss_rate 0
Core_0_L1I_demand_access 133359
Core_0_L1I_demand_hit 133359
Core_0_L1I_demand_miss 0
Core_0_L1I_demand_MPKI 0
Core_0_L1I_demand_miss_rate 0
Core_0_L1I_load_access 133359
Core_0_L1I_load_hit 133359
Core_0_L1I_load_miss 0
Core_0_L1I_load_MPKI 0
Core_0_L1I_load_miss_rate 0
Core_0_L1I_rfo_access 0
Core_0_L1I_rfo_hit 0
Core_0_L1I_rfo_miss 0
Core_0_L1I_rfo_MPKI 0
Core_0_L1I_rfo_miss_rate 0
Core_0_L1I_prefetch_access 0
Core_0_L1I_prefetch_hit 0
Core_0_L1I_prefetch_miss 0
Core_0_L1I_prefetch_MPKI 0
Core_0_L1I_prefetch_miss_rate 0
Core_0_L1I_writeback_access 0
Core_0_L1I_writeback_hit 0
Core_0_L1I_writeback_miss 0
Core_0_L1I_writeback_MPKI 0
Core_0_L1I_writeback_miss_rate 0
Core_0_L1I_prefetch_requested 0
Core_0_L1I_prefetch_issued 0
Core_0_L1I_prefetch_useful 0
Core_0_L1I_prefetch_useless 0
Core_0_L1I_prefetch_late 0
Core_0_L1I_prefetch_accuracy 0
Core_0_L1I_prefetch_coverage 0

Core_0_L1D_total_access 8591399
Core_0_L1D_total_hit 5813778
Core_0_L1D_total_miss 2777621
Core_0_L1D_total_MPKI 55.5524
Core_0_L1D_total_miss_rate 0.323303
Core_0_L1D_demand_access 6955635
Core_0_L1D_demand_hit 4193618
Core_0_L1D_demand_miss 2762017
Core_0_L1D_demand_MPKI 55.2403
Core_0_L1D_demand_miss_rate 0.397091
Core_0_L1D_load_access 6955635
Core_0_L1D_load_hit 4193618
Core_0_L1D_load_miss 2762017
Core_0_L1D_load_MPKI 55.2403
Core_0_L1D_load_miss_rate 0.397091
Core_0_L1D_rfo_access 0
Core_0_L1D_rfo_hit 0
Core_0_L1D_rfo_miss 0
Core_0_L1D_rfo_MPKI 0
Core_0_L1D_rfo_miss_rate 0
Core_0_L1D_prefetch_access 0
Core_0_L1D_prefetch_hit 0
Core_0_L1D_prefetch_miss 0
Core_0_L1D_prefetch_MPKI 0
Core_0_L1D_prefetch_miss_rate 0
Core_0_L1D_writeback_access 1635764
Core_0_L1D_writeback_hit 1620160
Core_0_L1D_writeback_miss 15604
Core_0_L1D_writeback_MPKI 0.31208
Core_0_L1D_writeback_miss_rate 0.00953927
Core_0_L1D_prefetch_requested 0
Core_0_L1D_prefetch_issued 0
Core_0_L1D_prefetch_useful 0
Core_0_L1D_prefetch_useless 0
Core_0_L1D_prefetch_late 0
Core_0_L1D_prefetch_accuracy 0
Core_0_L1D_prefetch_coverage 0

Core_0_L2C_total_access 2280241
Core_0_L2C_total_hit 65854
Core_0_L2C_total_miss 2214387
Core_0_L2C_total_MPKI 44.2877
Core_0_L2C_total_miss_rate 0.97112
Core_0_L2C_demand_access 2273666
Core_0_L2C_demand_hit 59303
Core_0_L2C_demand_miss 2214363
Core_0_L2C_demand_MPKI 44.2873
Core_0_L2C_demand_miss_rate 0.973917
Core_0_L2C_load_access 2269333
Core_0_L2C_load_hit 55021
Core_0_L2C_load_miss 2214312
Core_0_L2C_load_MPKI 44.2862
Core_0_L2C_load_miss_rate 0.975755
Core_0_L2C_rfo_access 4333
Core_0_L2C_rfo_hit 4282
Core_0_L2C_rfo_miss 51
Core_0_L2C_rfo_MPKI 0.00102
Core_0_L2C_rfo_miss_rate 0.0117701
Core_0_L2C_prefetch_access 0
Core_0_L2C_prefetch_hit 0
Core_0_L2C_prefetch_miss 0
Core_0_L2C_prefetch_MPKI 0
Core_0_L2C_prefetch_miss_rate 0
Core_0_L2C_writeback_access 6575
Core_0_L2C_writeback_hit 6551
Core_0_L2C_writeback_miss 24
Core_0_L2C_writeback_MPKI 0.00048
Core_0_L2C_writeback_miss_rate 0.00365019
Core_0_L2C_prefetch_requested 0
Core_0_L2C_prefetch_issued 0
Core_0_L2C_prefetch_useful 0
Core_0_L2C_prefetch_useless 0
Core_0_L2C_prefetch_late 0
Core_0_L2C_prefetch_accuracy 0
Core_0_L2C_prefetch_coverage 0

Core_0_LLC_total_access 2214603
Core_0_LLC_total_hit 9755
Core_0_LLC_total_miss 2204848
Core_0_LLC_total_MPKI 44.097
Core_0_LLC_total_miss_rate 0.995595
Core_0_LLC_demand_access 2214363
Core_0_LLC_demand_hit 9544
Core_0_LLC_demand_miss 2204819
Core_0_LLC_demand_MPKI 44.0964
Core_0_LLC_demand_miss_rate 0.99569
Core_0_LLC_load_access 2214312
Core_0_LLC_load_hit 9493
Core_0_LLC_load_miss 2204819
Core_0_LLC_load_MPKI 44.0964
Core_0_LLC_load_miss_rate 0.995713
Core_0_LLC_rfo_access 51
Core_0_LLC_rfo_hit 51
Core_0_LLC_rfo_miss 0
Core_0_LLC_rfo_MPKI 0
Core_0_LLC_rfo_miss_rate 0
Core_0_LLC_prefetch_access 0
Core_0_LLC_prefetch_hit 0
Core_0_LLC_prefetch_miss 0
Core_0_LLC_prefetch_MPKI 0
Core_0_LLC_prefetch_miss_rate 0
Core_0_LLC_writeback_access 240
Core_0_LLC_writeback_hit 211
Core_0_LLC_writeback_miss 29
Core_0_LLC_writeback_MPKI 0.00058
Core_0_LLC_writeback_miss_rate 0.120833
Core_0_LLC_prefetch_requested 0
Core_0_LLC_prefetch_issued 0
Core_0_LLC_prefetch_useful 0
Core_0_LLC_prefetch_useless 0
Core_0_LLC_prefetch_late 0
Core_0_LLC_prefetch_accuracy 0
Core_0_LLC_prefetch_coverage 0

[DRAM Statistics]
Channel_0_RQ_row_buffer_hit 36283
Channel_0_RQ_row_buffer_miss 2472889
Channel_0_WQ_row_buffer_hit 8
Channel_0_WQ_row_buffer_miss 22
Channel_0_WQ_full 0
Channel_0_dbus_congested 3713279
DRAM_total_RQ_row_buffer_hit 36283
DRAM_total_RQ_row_buffer_miss 2472889
DRAM_total_WQ_row_buffer_hit 8
DRAM_total_WQ_row_buffer_miss 22
DRAM_total_WQ_full 0
DRAM_total_dbus_congested 3713279
DRAM_avg_congested_cycle 3.00736

====== DRAM_RQ_TRAFFIC ========
DRAM_RQ_READ_TRAFFIC_BREAKDOWN:
data_demand_read.count = 2204819
data_demand_read.share = 87.87%

inst_demand_read.count = 0
inst_demand_read.share = 0.00%

cache_inst_prefetch.count = 0
cache_inst_prefetch.share = 0.00%

cache_data_prefetch.count = 0
cache_data_prefetch.share = 0.00%

stlb_data_demand.count = 304353
stlb_data_demand.share = 12.13%

stlb_inst_demand.count = 0
stlb_inst_demand.share = 0.00%

stlb_l1i_pref.count = 0
stlb_l1i_pref.share = 0.00%

stlb_l1d_pref.count = 0
stlb_l1d_pref.share = 0.00%

DRAM_RQ_READ_TRAFFIC_SUMMARY:
cache_demand.count = 2204819
cache_demand.share = 87.87%

cache_prefetch.count = 0
cache_prefetch.share = 0.00%

stlb_demand.count = 304353
stlb_demand.share = 12.13%

stlb_prefetch.count = 0
stlb_prefetch.share = 0.00%

DRAM_RQ_READ_TRAFFIC_DEBUG:
total_classified_read.count = 2509172
unclassified_read.count = 0
total_read_with_other.count = 2509172

classified_plus_unclassified_check.count = 2509172
dram_rq_read_total_observed.count = 2509172
dram_rq_read_total_observed.per_1K_instructions = 50.1834

STLB_MISS_PTW_DRAM_TOUCH_BREAKDOWN:
stlb_miss_total.count = 466266

stlb_miss_touch_dram.count = 418413
stlb_miss_touch_dram.share = 89.74%

stlb_miss_no_dram_touch.count = 47853
stlb_miss_no_dram_touch.share = 10.26%

STLB_MISS_PTW_DRAM_TOUCH_DEBUG:
stlb_miss_touch_plus_no_touch.count = 466266
stlb_miss_total_check.count = 466266

======STLB miss causes ========
Core_0_STLB_miss_cause_breakdown
Core_0_STLB_cause_Demand_Data_miss 466266
Core_0_STLB_cause_Demand_Data_miss_rate 0.986779
Core_0_STLB_cause_Demand_Instruction_miss 0
Core_0_STLB_cause_Demand_Instruction_miss_rate 0
Core_0_STLB_cause_L1D_Prefetch_miss 0
Core_0_STLB_cause_L1D_Prefetch_miss_rate 0
Core_0_STLB_cause_L1I_Prefetch_miss 0
Core_0_STLB_cause_L1I_Prefetch_miss_rate 0
Core_0_STLB_cause_Other_miss 0
Core_0_STLB_cause_Other_miss_rate 0
Core_0_STLB_Demand_miss 466266
Core_0_STLB_Demand_miss_rate 0.986779
Core_0_STLB_L1D_Prefetch_miss 0
Core_0_STLB_L1D_Prefetch_miss_rate 0
Core_0_STLB_Other_miss 0
Core_0_STLB_Other_miss_rate 0
