[VMEM] WARNING: physical memory size is smaller than virtual memory size.

*** ChampSim Multicore Out-of-Order Simulator ***
Warmup Instructions: 20000000
Simulation Instructions: 50000000
Number of CPUs: 1
Page size: 4096
Core 0: /data2/zcq/champsim_traces_xsbench/xs.XXL64hash-24B.champsimtrace.xz
Off-chip DRAM Size: 16 GiB Channels: 1 Width: 64-bit Data Rate: 3205 MT/s
Warmup halting CPU 0 at instruction 20000000 cycle 5044423 for remainder of phase
Warmup finished CPU 0 instructions: 20000000 cycles: 5044423 cumulative IPC: 3.965 (Simulation time: 00 hr 00 min 51 sec)
Warmup complete CPU 0 instructions: 20000000 cycles: 5044423 cumulative IPC: 3.965 (Simulation time: 00 hr 00 min 51 sec)
Simulation finished CPU 0 instructions: 50000000 cycles: 249455000 cumulative IPC: 0.2004 (Simulation time: 00 hr 18 min 44 sec)
Simulation complete CPU 0 instructions: 50000000 cycles: 249455000 cumulative IPC: 0.2004 (Simulation time: 00 hr 18 min 44 sec)

ChampSim completed all CPUs

=== Simulation ===
CPU 0 runs /data2/zcq/champsim_traces_xsbench/xs.XXL64hash-24B.champsimtrace.xz

Region of Interest Statistics

CPU 0 cumulative IPC: 0.2004 instructions: 50000000 cycles: 249455000
CPU 0 Branch Prediction Accuracy: 92.39% MPKI: 18.26 Average ROB Occupancy at Mispredict: 37.63
Branch type MPKI
BRANCH_DIRECT_JUMP: 2e-05
BRANCH_INDIRECT: 0
BRANCH_CONDITIONAL: 18.26
BRANCH_DIRECT_CALL: 4e-05
BRANCH_INDIRECT_CALL: 6e-05
BRANCH_RETURN: 0.00038

cpu0->cpu0_STLB TOTAL        ACCESS:    1375787 HIT:     655627 MISS:     720160 MSHR_MERGE:          0
cpu0->cpu0_STLB LOAD         ACCESS:    1375787 HIT:     655627 MISS:     720160 MSHR_MERGE:          0
cpu0->cpu0_STLB RFO          ACCESS:          0 HIT:          0 MISS:          0 MSHR_MERGE:          0
cpu0->cpu0_STLB PREFETCH     ACCESS:          0 HIT:          0 MISS:          0 MSHR_MERGE:          0
cpu0->cpu0_STLB WRITE        ACCESS:          0 HIT:          0 MISS:          0 MSHR_MERGE:          0
cpu0->cpu0_STLB TRANSLATION  ACCESS:          0 HIT:          0 MISS:          0 MSHR_MERGE:          0
cpu0->cpu0_STLB PREFETCH REQUESTED:          0 ISSUED:          0 USEFUL:          0 USELESS:          0 LATE:          0
cpu0->cpu0_STLB AVERAGE MISS LATENCY: 23.45 cycles
cpu0->cpu0_L2C TOTAL        ACCESS:    3426079 HIT:    1401936 MISS:    2024143 MSHR_MERGE:          0
cpu0->cpu0_L2C LOAD         ACCESS:    1947311 HIT:     165340 MISS:    1781971 MSHR_MERGE:          0
cpu0->cpu0_L2C RFO          ACCESS:     247643 HIT:      21607 MISS:     226036 MSHR_MERGE:          0
cpu0->cpu0_L2C PREFETCH     ACCESS:          0 HIT:          0 MISS:          0 MSHR_MERGE:          0
cpu0->cpu0_L2C WRITE        ACCESS:     743615 HIT:     743600 MISS:         15 MSHR_MERGE:          0
cpu0->cpu0_L2C TRANSLATION  ACCESS:     487510 HIT:     471389 MISS:      16121 MSHR_MERGE:          0
cpu0->cpu0_L2C PREFETCH REQUESTED:          0 ISSUED:          0 USEFUL:          0 USELESS:          0 LATE:          0
cpu0->cpu0_L2C AVERAGE MISS LATENCY: 225.3 cycles
cpu0->cpu0_L1I TOTAL        ACCESS:     643025 HIT:     643022 MISS:          3 MSHR_MERGE:          0
cpu0->cpu0_L1I LOAD         ACCESS:     643025 HIT:     643022 MISS:          3 MSHR_MERGE:          0
cpu0->cpu0_L1I RFO          ACCESS:          0 HIT:          0 MISS:          0 MSHR_MERGE:          0
cpu0->cpu0_L1I PREFETCH     ACCESS:          0 HIT:          0 MISS:          0 MSHR_MERGE:          0
cpu0->cpu0_L1I WRITE        ACCESS:          0 HIT:          0 MISS:          0 MSHR_MERGE:          0
cpu0->cpu0_L1I TRANSLATION  ACCESS:          0 HIT:          0 MISS:          0 MSHR_MERGE:          0
cpu0->cpu0_L1I PREFETCH REQUESTED:          0 ISSUED:          0 USEFUL:          0 USELESS:          0 LATE:          0
cpu0->cpu0_L1I AVERAGE MISS LATENCY: 322 cycles
cpu0->cpu0_L1D TOTAL        ACCESS:   18501144 HIT:   14208733 MISS:    4292411 MSHR_MERGE:    1609950
cpu0->cpu0_L1D LOAD         ACCESS:   10769664 HIT:    8021830 MISS:    2747834 MSHR_MERGE:     800526
cpu0->cpu0_L1D RFO          ACCESS:          0 HIT:          0 MISS:          0 MSHR_MERGE:          0
cpu0->cpu0_L1D PREFETCH     ACCESS:          0 HIT:          0 MISS:          0 MSHR_MERGE:          0
cpu0->cpu0_L1D WRITE        ACCESS:    6292317 HIT:    5236183 MISS:    1056134 MSHR_MERGE:     808491
cpu0->cpu0_L1D TRANSLATION  ACCESS:    1439163 HIT:     950720 MISS:     488443 MSHR_MERGE:        933
cpu0->cpu0_L1D PREFETCH REQUESTED:          0 ISSUED:          0 USEFUL:          0 USELESS:          0 LATE:          0
cpu0->cpu0_L1D AVERAGE MISS LATENCY: 178.8 cycles
cpu0->cpu0_ITLB TOTAL        ACCESS:     610602 HIT:     610602 MISS:          0 MSHR_MERGE:          0
cpu0->cpu0_ITLB LOAD         ACCESS:     610602 HIT:     610602 MISS:          0 MSHR_MERGE:          0
cpu0->cpu0_ITLB RFO          ACCESS:          0 HIT:          0 MISS:          0 MSHR_MERGE:          0
cpu0->cpu0_ITLB PREFETCH     ACCESS:          0 HIT:          0 MISS:          0 MSHR_MERGE:          0
cpu0->cpu0_ITLB WRITE        ACCESS:          0 HIT:          0 MISS:          0 MSHR_MERGE:          0
cpu0->cpu0_ITLB TRANSLATION  ACCESS:          0 HIT:          0 MISS:          0 MSHR_MERGE:          0
cpu0->cpu0_ITLB PREFETCH REQUESTED:          0 ISSUED:          0 USEFUL:          0 USELESS:          0 LATE:          0
cpu0->cpu0_ITLB AVERAGE MISS LATENCY: - cycles
cpu0->cpu0_DTLB TOTAL        ACCESS:   16701267 HIT:   14770337 MISS:    1930930 MSHR_MERGE:     555143
cpu0->cpu0_DTLB LOAD         ACCESS:   16701267 HIT:   14770337 MISS:    1930930 MSHR_MERGE:     555143
cpu0->cpu0_DTLB RFO          ACCESS:          0 HIT:          0 MISS:          0 MSHR_MERGE:          0
cpu0->cpu0_DTLB PREFETCH     ACCESS:          0 HIT:          0 MISS:          0 MSHR_MERGE:          0
cpu0->cpu0_DTLB WRITE        ACCESS:          0 HIT:          0 MISS:          0 MSHR_MERGE:          0
cpu0->cpu0_DTLB TRANSLATION  ACCESS:          0 HIT:          0 MISS:          0 MSHR_MERGE:          0
cpu0->cpu0_DTLB PREFETCH REQUESTED:          0 ISSUED:          0 USEFUL:          0 USELESS:          0 LATE:          0
cpu0->cpu0_DTLB AVERAGE MISS LATENCY: 17.81 cycles
cpu0->LLC TOTAL        ACCESS:    2725909 HIT:     454420 MISS:    2271489 MSHR_MERGE:          0
cpu0->LLC LOAD         ACCESS:    1781971 HIT:     223556 MISS:    1558415 MSHR_MERGE:          0
cpu0->LLC RFO          ACCESS:     226036 HIT:      32645 MISS:     193391 MSHR_MERGE:          0
cpu0->LLC PREFETCH     ACCESS:          0 HIT:          0 MISS:          0 MSHR_MERGE:          0
cpu0->LLC WRITE        ACCESS:     701781 HIT:     195563 MISS:     506218 MSHR_MERGE:          0
cpu0->LLC TRANSLATION  ACCESS:      16121 HIT:       2656 MISS:      13465 MSHR_MERGE:          0
cpu0->LLC PREFETCH REQUESTED:          0 ISSUED:          0 USEFUL:          0 USELESS:          0 LATE:          0
cpu0->LLC AVERAGE MISS LATENCY: 188.6 cycles

DRAM Statistics

Channel 0 RQ ROW_BUFFER_HIT:      12348
  ROW_BUFFER_MISS:    1752582
  AVG DBUS CONGESTED CYCLE: 6.881
Channel 0 WQ ROW_BUFFER_HIT:     173007
  ROW_BUFFER_MISS:     424285
  FULL:        101
Channel 0 REFRESHES ISSUED:      20788

[ROI Statistics]
[System Configuration]
num_cpus 1
cpu_freq 4000
fetch_width 6
decode_width 6
dispatch_width 6
execute_width 6
lq_width 2
sq_width 2
retire_width 6
scheduler_size 128
branch_mispredict_penalty 15
rob_size 352
lq_size 128
sq_size 72
ifetch_buffer_size 64
decode_buffer_size 32
dispatch_buffer_size 32
register_file_size 288
decode_latency 1
dispatch_latency 1
schedule_latency 1
execute_latency 1
page_size 4096
block_size 64
core_0_itlb_set 16
core_0_itlb_way 4
core_0_itlb_rq_size 16
core_0_itlb_wq_size 16
core_0_itlb_pq_size 0
core_0_itlb_mshr_size 8
core_0_itlb_hit_latency 1
core_0_itlb_fill_latency 1
core_0_itlb_max_tag_check 2
core_0_itlb_max_fill 2
core_0_dtlb_set 16
core_0_dtlb_way 4
core_0_dtlb_rq_size 16
core_0_dtlb_wq_size 16
core_0_dtlb_pq_size 0
core_0_dtlb_mshr_size 8
core_0_dtlb_hit_latency 1
core_0_dtlb_fill_latency 1
core_0_dtlb_max_tag_check 2
core_0_dtlb_max_fill 2
core_0_stlb_set 128
core_0_stlb_way 12
core_0_stlb_rq_size 32
core_0_stlb_wq_size 32
core_0_stlb_pq_size 0
core_0_stlb_mshr_size 16
core_0_stlb_hit_latency 4
core_0_stlb_fill_latency 4
core_0_stlb_max_tag_check 1
core_0_stlb_max_fill 1
core_0_l1i_set 64
core_0_l1i_way 8
core_0_l1i_rq_size 64
core_0_l1i_wq_size 64
core_0_l1i_pq_size 32
core_0_l1i_mshr_size 8
core_0_l1i_hit_latency 2
core_0_l1i_fill_latency 2
core_0_l1i_max_tag_check 2
core_0_l1i_max_fill 2
core_0_l1d_set 64
core_0_l1d_way 12
core_0_l1d_rq_size 64
core_0_l1d_wq_size 64
core_0_l1d_pq_size 8
core_0_l1d_mshr_size 16
core_0_l1d_hit_latency 2
core_0_l1d_fill_latency 3
core_0_l1d_max_tag_check 2
core_0_l1d_max_fill 2
core_0_l2c_set 1024
core_0_l2c_way 8
core_0_l2c_rq_size 32
core_0_l2c_wq_size 32
core_0_l2c_pq_size 16
core_0_l2c_mshr_size 32
core_0_l2c_hit_latency 5
core_0_l2c_fill_latency 5
core_0_l2c_max_tag_check 1
core_0_l2c_max_fill 1
llc_set 2048
llc_way 16
llc_rq_size 32
llc_wq_size 32
llc_pq_size 32
llc_mshr_size 64
llc_hit_latency 10
llc_fill_latency 10
llc_max_tag_check 1
llc_max_fill 1
dram_channels 1
dram_ranks 1
dram_bankgroups 8
dram_banks 4
dram_rows 65536
dram_columns 1024
dram_channel_width 8
dram_rq_size 64
dram_wq_size 64
dram_size 17179869184
core_0_itlb_prefetcher no
core_0_dtlb_prefetcher no
core_0_stlb_prefetcher no
core_0_l1i_prefetcher no
core_0_l1d_prefetcher no
core_0_l2c_prefetcher no
llc_prefetcher no
llc_replacement drrip

Core_0_instructions 50000000
Core_0_cycles 249455000
Core_0_IPC 0.200437
Core_0_branch_prediction_accuracy 92.3949
Core_0_branch_MPKI 18.2624
Core_0_average_ROB_occupancy_at_mispredict 37.6278

Core_0_ITLB_total_access 610602
Core_0_ITLB_total_hit 610602
Core_0_ITLB_total_miss 0
Core_0_ITLB_total_MPKI 0
Core_0_ITLB_total_miss_rate 0
Core_0_ITLB_demand_access 610602
Core_0_ITLB_demand_hit 610602
Core_0_ITLB_demand_miss 0
Core_0_ITLB_demand_MPKI 0
Core_0_ITLB_demand_miss_rate 0
Core_0_ITLB_load_access 610602
Core_0_ITLB_load_hit 610602
Core_0_ITLB_load_miss 0
Core_0_ITLB_load_MPKI 0
Core_0_ITLB_load_miss_rate 0
Core_0_ITLB_rfo_access 0
Core_0_ITLB_rfo_hit 0
Core_0_ITLB_rfo_miss 0
Core_0_ITLB_rfo_MPKI 0
Core_0_ITLB_rfo_miss_rate 0
Core_0_ITLB_prefetch_access 0
Core_0_ITLB_prefetch_hit 0
Core_0_ITLB_prefetch_miss 0
Core_0_ITLB_prefetch_MPKI 0
Core_0_ITLB_prefetch_miss_rate 0
Core_0_ITLB_writeback_access 0
Core_0_ITLB_writeback_hit 0
Core_0_ITLB_writeback_miss 0
Core_0_ITLB_writeback_MPKI 0
Core_0_ITLB_writeback_miss_rate 0
Core_0_ITLB_prefetch_requested 0
Core_0_ITLB_prefetch_issued 0
Core_0_ITLB_prefetch_useful 0
Core_0_ITLB_prefetch_useless 0
Core_0_ITLB_prefetch_late 0
Core_0_ITLB_prefetch_accuracy 0
Core_0_ITLB_prefetch_coverage 0

Core_0_DTLB_total_access 16701267
Core_0_DTLB_total_hit 14770337
Core_0_DTLB_total_miss 1930930
Core_0_DTLB_total_MPKI 38.6186
Core_0_DTLB_total_miss_rate 0.115616
Core_0_DTLB_demand_access 16701267
Core_0_DTLB_demand_hit 14770337
Core_0_DTLB_demand_miss 1930930
Core_0_DTLB_demand_MPKI 38.6186
Core_0_DTLB_demand_miss_rate 0.115616
Core_0_DTLB_load_access 16701267
Core_0_DTLB_load_hit 14770337
Core_0_DTLB_load_miss 1930930
Core_0_DTLB_load_MPKI 38.6186
Core_0_DTLB_load_miss_rate 0.115616
Core_0_DTLB_rfo_access 0
Core_0_DTLB_rfo_hit 0
Core_0_DTLB_rfo_miss 0
Core_0_DTLB_rfo_MPKI 0
Core_0_DTLB_rfo_miss_rate 0
Core_0_DTLB_prefetch_access 0
Core_0_DTLB_prefetch_hit 0
Core_0_DTLB_prefetch_miss 0
Core_0_DTLB_prefetch_MPKI 0
Core_0_DTLB_prefetch_miss_rate 0
Core_0_DTLB_writeback_access 0
Core_0_DTLB_writeback_hit 0
Core_0_DTLB_writeback_miss 0
Core_0_DTLB_writeback_MPKI 0
Core_0_DTLB_writeback_miss_rate 0
Core_0_DTLB_prefetch_requested 0
Core_0_DTLB_prefetch_issued 0
Core_0_DTLB_prefetch_useful 0
Core_0_DTLB_prefetch_useless 0
Core_0_DTLB_prefetch_late 0
Core_0_DTLB_prefetch_accuracy 0
Core_0_DTLB_prefetch_coverage 0

Core_0_STLB_total_access 1375787
Core_0_STLB_total_hit 655627
Core_0_STLB_total_miss 720160
Core_0_STLB_total_MPKI 14.4032
Core_0_STLB_total_miss_rate 0.523453
Core_0_STLB_demand_access 1375787
Core_0_STLB_demand_hit 655627
Core_0_STLB_demand_miss 720160
Core_0_STLB_demand_MPKI 14.4032
Core_0_STLB_demand_miss_rate 0.523453
Core_0_STLB_load_access 1375787
Core_0_STLB_load_hit 655627
Core_0_STLB_load_miss 720160
Core_0_STLB_load_MPKI 14.4032
Core_0_STLB_load_miss_rate 0.523453
Core_0_STLB_rfo_access 0
Core_0_STLB_rfo_hit 0
Core_0_STLB_rfo_miss 0
Core_0_STLB_rfo_MPKI 0
Core_0_STLB_rfo_miss_rate 0
Core_0_STLB_prefetch_access 0
Core_0_STLB_prefetch_hit 0
Core_0_STLB_prefetch_miss 0
Core_0_STLB_prefetch_MPKI 0
Core_0_STLB_prefetch_miss_rate 0
Core_0_STLB_writeback_access 0
Core_0_STLB_writeback_hit 0
Core_0_STLB_writeback_miss 0
Core_0_STLB_writeback_MPKI 0
Core_0_STLB_writeback_miss_rate 0
Core_0_STLB_prefetch_requested 0
Core_0_STLB_prefetch_issued 0
Core_0_STLB_prefetch_useful 0
Core_0_STLB_prefetch_useless 0
Core_0_STLB_prefetch_late 0
Core_0_STLB_prefetch_accuracy 0
Core_0_STLB_prefetch_coverage 0

Core_0_L1I_total_access 643025
Core_0_L1I_total_hit 643022
Core_0_L1I_total_miss 3
Core_0_L1I_total_MPKI 6e-05
Core_0_L1I_total_miss_rate 4.66545e-06
Core_0_L1I_demand_access 643025
Core_0_L1I_demand_hit 643022
Core_0_L1I_demand_miss 3
Core_0_L1I_demand_MPKI 6e-05
Core_0_L1I_demand_miss_rate 4.66545e-06
Core_0_L1I_load_access 643025
Core_0_L1I_load_hit 643022
Core_0_L1I_load_miss 3
Core_0_L1I_load_MPKI 6e-05
Core_0_L1I_load_miss_rate 4.66545e-06
Core_0_L1I_rfo_access 0
Core_0_L1I_rfo_hit 0
Core_0_L1I_rfo_miss 0
Core_0_L1I_rfo_MPKI 0
Core_0_L1I_rfo_miss_rate 0
Core_0_L1I_prefetch_access 0
Core_0_L1I_prefetch_hit 0
Core_0_L1I_prefetch_miss 0
Core_0_L1I_prefetch_MPKI 0
Core_0_L1I_prefetch_miss_rate 0
Core_0_L1I_writeback_access 0
Core_0_L1I_writeback_hit 0
Core_0_L1I_writeback_miss 0
Core_0_L1I_writeback_MPKI 0
Core_0_L1I_writeback_miss_rate 0
Core_0_L1I_prefetch_requested 0
Core_0_L1I_prefetch_issued 0
Core_0_L1I_prefetch_useful 0
Core_0_L1I_prefetch_useless 0
Core_0_L1I_prefetch_late 0
Core_0_L1I_prefetch_accuracy 0
Core_0_L1I_prefetch_coverage 0

Core_0_L1D_total_access 17061981
Core_0_L1D_total_hit 13258013
Core_0_L1D_total_miss 3803968
Core_0_L1D_total_MPKI 76.0794
Core_0_L1D_total_miss_rate 0.22295
Core_0_L1D_demand_access 10769664
Core_0_L1D_demand_hit 8021830
Core_0_L1D_demand_miss 2747834
Core_0_L1D_demand_MPKI 54.9567
Core_0_L1D_demand_miss_rate 0.255146
Core_0_L1D_load_access 10769664
Core_0_L1D_load_hit 8021830
Core_0_L1D_load_miss 2747834
Core_0_L1D_load_MPKI 54.9567
Core_0_L1D_load_miss_rate 0.255146
Core_0_L1D_rfo_access 0
Core_0_L1D_rfo_hit 0
Core_0_L1D_rfo_miss 0
Core_0_L1D_rfo_MPKI 0
Core_0_L1D_rfo_miss_rate 0
Core_0_L1D_prefetch_access 0
Core_0_L1D_prefetch_hit 0
Core_0_L1D_prefetch_miss 0
Core_0_L1D_prefetch_MPKI 0
Core_0_L1D_prefetch_miss_rate 0
Core_0_L1D_writeback_access 6292317
Core_0_L1D_writeback_hit 5236183
Core_0_L1D_writeback_miss 1056134
Core_0_L1D_writeback_MPKI 21.1227
Core_0_L1D_writeback_miss_rate 0.167845
Core_0_L1D_prefetch_requested 0
Core_0_L1D_prefetch_issued 0
Core_0_L1D_prefetch_useful 0
Core_0_L1D_prefetch_useless 0
Core_0_L1D_prefetch_late 0
Core_0_L1D_prefetch_accuracy 0
Core_0_L1D_prefetch_coverage 0

Core_0_L2C_total_access 2938569
Core_0_L2C_total_hit 930547
Core_0_L2C_total_miss 2008022
Core_0_L2C_total_MPKI 40.1604
Core_0_L2C_total_miss_rate 0.683333
Core_0_L2C_demand_access 2194954
Core_0_L2C_demand_hit 186947
Core_0_L2C_demand_miss 2008007
Core_0_L2C_demand_MPKI 40.1601
Core_0_L2C_demand_miss_rate 0.914829
Core_0_L2C_load_access 1947311
Core_0_L2C_load_hit 165340
Core_0_L2C_load_miss 1781971
Core_0_L2C_load_MPKI 35.6394
Core_0_L2C_load_miss_rate 0.915093
Core_0_L2C_rfo_access 247643
Core_0_L2C_rfo_hit 21607
Core_0_L2C_rfo_miss 226036
Core_0_L2C_rfo_MPKI 4.52072
Core_0_L2C_rfo_miss_rate 0.912749
Core_0_L2C_prefetch_access 0
Core_0_L2C_prefetch_hit 0
Core_0_L2C_prefetch_miss 0
Core_0_L2C_prefetch_MPKI 0
Core_0_L2C_prefetch_miss_rate 0
Core_0_L2C_writeback_access 743615
Core_0_L2C_writeback_hit 743600
Core_0_L2C_writeback_miss 15
Core_0_L2C_writeback_MPKI 0.0003
Core_0_L2C_writeback_miss_rate 2.01717e-05
Core_0_L2C_prefetch_requested 0
Core_0_L2C_prefetch_issued 0
Core_0_L2C_prefetch_useful 0
Core_0_L2C_prefetch_useless 0
Core_0_L2C_prefetch_late 0
Core_0_L2C_prefetch_accuracy 0
Core_0_L2C_prefetch_coverage 0

Core_0_LLC_total_access 2709788
Core_0_LLC_total_hit 451764
Core_0_LLC_total_miss 2258024
Core_0_LLC_total_MPKI 45.1605
Core_0_LLC_total_miss_rate 0.833284
Core_0_LLC_demand_access 2008007
Core_0_LLC_demand_hit 256201
Core_0_LLC_demand_miss 1751806
Core_0_LLC_demand_MPKI 35.0361
Core_0_LLC_demand_miss_rate 0.87241
Core_0_LLC_load_access 1781971
Core_0_LLC_load_hit 223556
Core_0_LLC_load_miss 1558415
Core_0_LLC_load_MPKI 31.1683
Core_0_LLC_load_miss_rate 0.874546
Core_0_LLC_rfo_access 226036
Core_0_LLC_rfo_hit 32645
Core_0_LLC_rfo_miss 193391
Core_0_LLC_rfo_MPKI 3.86782
Core_0_LLC_rfo_miss_rate 0.855576
Core_0_LLC_prefetch_access 0
Core_0_LLC_prefetch_hit 0
Core_0_LLC_prefetch_miss 0
Core_0_LLC_prefetch_MPKI 0
Core_0_LLC_prefetch_miss_rate 0
Core_0_LLC_writeback_access 701781
Core_0_LLC_writeback_hit 195563
Core_0_LLC_writeback_miss 506218
Core_0_LLC_writeback_MPKI 10.1244
Core_0_LLC_writeback_miss_rate 0.721333
Core_0_LLC_prefetch_requested 0
Core_0_LLC_prefetch_issued 0
Core_0_LLC_prefetch_useful 0
Core_0_LLC_prefetch_useless 0
Core_0_LLC_prefetch_late 0
Core_0_LLC_prefetch_accuracy 0
Core_0_LLC_prefetch_coverage 0

[DRAM Statistics]
Channel_0_RQ_row_buffer_hit 12348
Channel_0_RQ_row_buffer_miss 1752582
Channel_0_WQ_row_buffer_hit 173007
Channel_0_WQ_row_buffer_miss 424285
Channel_0_WQ_full 101
Channel_0_dbus_congested 6261838
DRAM_total_RQ_row_buffer_hit 12348
DRAM_total_RQ_row_buffer_miss 1752582
DRAM_total_WQ_row_buffer_hit 173007
DRAM_total_WQ_row_buffer_miss 424285
DRAM_total_WQ_full 101
DRAM_total_dbus_congested 6261838
DRAM_avg_congested_cycle 6.88054

====== DRAM_RQ_TRAFFIC ========
DRAM_RQ_READ_TRAFFIC_BREAKDOWN:
data_demand_read.count = 1751803
data_demand_read.share = 99.24%

inst_demand_read.count = 3
inst_demand_read.share = 0.00%

cache_inst_prefetch.count = 0
cache_inst_prefetch.share = 0.00%

cache_data_prefetch.count = 0
cache_data_prefetch.share = 0.00%

stlb_data_demand.count = 13465
stlb_data_demand.share = 0.76%

stlb_inst_demand.count = 0
stlb_inst_demand.share = 0.00%

stlb_l1i_pref.count = 0
stlb_l1i_pref.share = 0.00%

stlb_l1d_pref.count = 0
stlb_l1d_pref.share = 0.00%

DRAM_RQ_READ_TRAFFIC_SUMMARY:
cache_demand.count = 1751806
cache_demand.share = 99.24%

cache_prefetch.count = 0
cache_prefetch.share = 0.00%

stlb_demand.count = 13465
stlb_demand.share = 0.76%

stlb_prefetch.count = 0
stlb_prefetch.share = 0.00%

DRAM_RQ_READ_TRAFFIC_DEBUG:
total_classified_read.count = 1765271
unclassified_read.count = 0
total_read_with_other.count = 1765271

classified_plus_unclassified_check.count = 1765271
dram_rq_read_total_observed.count = 1765271
dram_rq_read_total_observed.per_1K_instructions = 35.3054

STLB_MISS_PTW_DRAM_TOUCH_BREAKDOWN:
stlb_miss_total.count = 720160

stlb_miss_touch_dram.count = 13459
stlb_miss_touch_dram.share = 1.87%

stlb_miss_no_dram_touch.count = 706701
stlb_miss_no_dram_touch.share = 98.13%

STLB_MISS_PTW_DRAM_TOUCH_DEBUG:
stlb_miss_touch_plus_no_touch.count = 720160
stlb_miss_total_check.count = 720160

======STLB miss causes ========
Core_0_STLB_miss_cause_breakdown
Core_0_STLB_cause_Demand_Data_miss 720160
Core_0_STLB_cause_Demand_Data_miss_rate 0.523453
Core_0_STLB_cause_Demand_Instruction_miss 0
Core_0_STLB_cause_Demand_Instruction_miss_rate 0
Core_0_STLB_cause_L1D_Prefetch_miss 0
Core_0_STLB_cause_L1D_Prefetch_miss_rate 0
Core_0_STLB_cause_L1I_Prefetch_miss 0
Core_0_STLB_cause_L1I_Prefetch_miss_rate 0
Core_0_STLB_cause_Other_miss 0
Core_0_STLB_cause_Other_miss_rate 0
Core_0_STLB_Demand_miss 720160
Core_0_STLB_Demand_miss_rate 0.523453
Core_0_STLB_L1D_Prefetch_miss 0
Core_0_STLB_L1D_Prefetch_miss_rate 0
Core_0_STLB_Other_miss 0
Core_0_STLB_Other_miss_rate 0
