[VMEM] WARNING: physical memory size is smaller than virtual memory size.

*** ChampSim Multicore Out-of-Order Simulator ***
Warmup Instructions: 20000000
Simulation Instructions: 50000000
Number of CPUs: 1
Page size: 4096
STLB ideal mode: demand
Core 0: /data0/tzh/champsim_traces/SPEC06/429.mcf-22B.champsimtrace.xz
 L1D Berti prefetcher
Off-chip DRAM Size: 16 GiB Channels: 1 Width: 64-bit Data Rate: 3205 MT/s
Warmup halting CPU 0 at instruction 20000001 cycle 6208774 for remainder of phase
Warmup finished CPU 0 instructions: 20000001 cycles: 6208774 cumulative IPC: 3.221 (Simulation time: 00 hr 01 min 21 sec)
Warmup complete CPU 0 instructions: 20000001 cycles: 6208774 cumulative IPC: 3.221 (Simulation time: 00 hr 01 min 21 sec)
Simulation finished CPU 0 instructions: 50000004 cycles: 58402182 cumulative IPC: 0.8561 (Simulation time: 00 hr 10 min 33 sec)
Simulation complete CPU 0 instructions: 50000004 cycles: 58402182 cumulative IPC: 0.8561 (Simulation time: 00 hr 10 min 33 sec)

ChampSim completed all CPUs

=== Simulation ===
CPU 0 runs /data0/tzh/champsim_traces/SPEC06/429.mcf-22B.champsimtrace.xz

Region of Interest Statistics

CPU 0 cumulative IPC: 0.8561 instructions: 50000004 cycles: 58402182
CPU 0 Branch Prediction Accuracy: 98.75% MPKI: 1.081 Average ROB Occupancy at Mispredict: 130.7
Branch type MPKI
BRANCH_DIRECT_JUMP: 0
BRANCH_INDIRECT: 0
BRANCH_CONDITIONAL: 1.081
BRANCH_DIRECT_CALL: 0
BRANCH_INDIRECT_CALL: 0
BRANCH_RETURN: 0

cpu0->cpu0_STLB TOTAL        ACCESS:     251183 HIT:     234354 MISS:      16829 MSHR_MERGE:          0
cpu0->cpu0_STLB LOAD         ACCESS:     251183 HIT:     234354 MISS:      16829 MSHR_MERGE:          0
cpu0->cpu0_STLB RFO          ACCESS:          0 HIT:          0 MISS:          0 MSHR_MERGE:          0
cpu0->cpu0_STLB PREFETCH     ACCESS:          0 HIT:          0 MISS:          0 MSHR_MERGE:          0
cpu0->cpu0_STLB WRITE        ACCESS:          0 HIT:          0 MISS:          0 MSHR_MERGE:          0
cpu0->cpu0_STLB TRANSLATION  ACCESS:          0 HIT:          0 MISS:          0 MSHR_MERGE:          0
cpu0->cpu0_STLB PREFETCH REQUESTED:          0 ISSUED:          0 USEFUL:          0 USELESS:          0 LATE:          0
cpu0->cpu0_STLB AVERAGE MISS LATENCY: 485.2 cycles
cpu0->cpu0_L2C TOTAL        ACCESS:    5226302 HIT:    2601683 MISS:    2624619 MSHR_MERGE:     865806
cpu0->cpu0_L2C LOAD         ACCESS:     833225 HIT:     140189 MISS:     693036 MSHR_MERGE:      99624
cpu0->cpu0_L2C RFO          ACCESS:       2230 HIT:       2222 MISS:          8 MSHR_MERGE:          0
cpu0->cpu0_L2C PREFETCH     ACCESS:    3688444 HIT:    1768244 MISS:    1920200 MSHR_MERGE:     766182
cpu0->cpu0_L2C WRITE        ACCESS:     688236 HIT:     687700 MISS:        536 MSHR_MERGE:          0
cpu0->cpu0_L2C TRANSLATION  ACCESS:      14167 HIT:       3328 MISS:      10839 MSHR_MERGE:          0
cpu0->cpu0_L2C PREFETCH REQUESTED:    3388461 ISSUED:    3039756 USEFUL:     524781 USELESS:     383108 LATE:      99624
cpu0->cpu0_L2C AVERAGE MISS LATENCY: 413.9 cycles
cpu0->cpu0_L1I TOTAL        ACCESS:    7057013 HIT:    7057013 MISS:          0 MSHR_MERGE:          0
cpu0->cpu0_L1I LOAD         ACCESS:    7057013 HIT:    7057013 MISS:          0 MSHR_MERGE:          0
cpu0->cpu0_L1I RFO          ACCESS:          0 HIT:          0 MISS:          0 MSHR_MERGE:          0
cpu0->cpu0_L1I PREFETCH     ACCESS:          0 HIT:          0 MISS:          0 MSHR_MERGE:          0
cpu0->cpu0_L1I WRITE        ACCESS:          0 HIT:          0 MISS:          0 MSHR_MERGE:          0
cpu0->cpu0_L1I TRANSLATION  ACCESS:          0 HIT:          0 MISS:          0 MSHR_MERGE:          0
cpu0->cpu0_L1I PREFETCH REQUESTED:          0 ISSUED:          0 USEFUL:          0 USELESS:          0 LATE:          0
cpu0->cpu0_L1I AVERAGE MISS LATENCY: - cycles
cpu0->cpu0_L1D TOTAL        ACCESS:   15868727 HIT:   14084745 MISS:    1783982 MSHR_MERGE:     285669
cpu0->cpu0_L1D LOAD         ACCESS:    6280812 HIT:    5193923 MISS:    1086889 MSHR_MERGE:     253660
cpu0->cpu0_L1D RFO          ACCESS:          0 HIT:          0 MISS:          0 MSHR_MERGE:          0
cpu0->cpu0_L1D PREFETCH     ACCESS:     906299 HIT:     231094 MISS:     675205 MSHR_MERGE:      26521
cpu0->cpu0_L1D WRITE        ACCESS:    8646013 HIT:    8638292 MISS:       7721 MSHR_MERGE:       5488
cpu0->cpu0_L1D TRANSLATION  ACCESS:      35603 HIT:      21436 MISS:      14167 MSHR_MERGE:          0
cpu0->cpu0_L1D PREFETCH REQUESTED:     942337 ISSUED:     906292 USEFUL:     410290 USELESS:     238292 LATE:      21573
cpu0->cpu0_L1D AVERAGE MISS LATENCY: 347.6 cycles
cpu0->cpu0_ITLB TOTAL        ACCESS:    5661474 HIT:    5661474 MISS:          0 MSHR_MERGE:          0
cpu0->cpu0_ITLB LOAD         ACCESS:    5661474 HIT:    5661474 MISS:          0 MSHR_MERGE:          0
cpu0->cpu0_ITLB RFO          ACCESS:          0 HIT:          0 MISS:          0 MSHR_MERGE:          0
cpu0->cpu0_ITLB PREFETCH     ACCESS:          0 HIT:          0 MISS:          0 MSHR_MERGE:          0
cpu0->cpu0_ITLB WRITE        ACCESS:          0 HIT:          0 MISS:          0 MSHR_MERGE:          0
cpu0->cpu0_ITLB TRANSLATION  ACCESS:          0 HIT:          0 MISS:          0 MSHR_MERGE:          0
cpu0->cpu0_ITLB PREFETCH REQUESTED:          0 ISSUED:          0 USEFUL:          0 USELESS:          0 LATE:          0
cpu0->cpu0_ITLB AVERAGE MISS LATENCY: - cycles
cpu0->cpu0_DTLB TOTAL        ACCESS:   14190482 HIT:   13721171 MISS:     469311 MSHR_MERGE:     218128
cpu0->cpu0_DTLB LOAD         ACCESS:   14190482 HIT:   13721171 MISS:     469311 MSHR_MERGE:     218128
cpu0->cpu0_DTLB RFO          ACCESS:          0 HIT:          0 MISS:          0 MSHR_MERGE:          0
cpu0->cpu0_DTLB PREFETCH     ACCESS:          0 HIT:          0 MISS:          0 MSHR_MERGE:          0
cpu0->cpu0_DTLB WRITE        ACCESS:          0 HIT:          0 MISS:          0 MSHR_MERGE:          0
cpu0->cpu0_DTLB TRANSLATION  ACCESS:          0 HIT:          0 MISS:          0 MSHR_MERGE:          0
cpu0->cpu0_DTLB PREFETCH REQUESTED:          0 ISSUED:          0 USEFUL:          0 USELESS:          0 LATE:          0
cpu0->cpu0_DTLB AVERAGE MISS LATENCY: 37.58 cycles
cpu0->LLC TOTAL        ACCESS:    2420506 HIT:     186897 MISS:    2233609 MSHR_MERGE:          0
cpu0->LLC LOAD         ACCESS:     593412 HIT:      26682 MISS:     566730 MSHR_MERGE:          0
cpu0->LLC RFO          ACCESS:          8 HIT:          0 MISS:          8 MSHR_MERGE:          0
cpu0->LLC PREFETCH     ACCESS:    1154018 HIT:      31469 MISS:    1122549 MSHR_MERGE:          0
cpu0->LLC WRITE        ACCESS:     662229 HIT:     128516 MISS:     533713 MSHR_MERGE:          0
cpu0->LLC TRANSLATION  ACCESS:      10839 HIT:        230 MISS:      10609 MSHR_MERGE:          0
cpu0->LLC PREFETCH REQUESTED:          0 ISSUED:          0 USEFUL:          0 USELESS:          0 LATE:          0
cpu0->LLC AVERAGE MISS LATENCY: 219.4 cycles

DRAM Statistics

Channel 0 RQ ROW_BUFFER_HIT:      51627
  ROW_BUFFER_MISS:    1648227
  AVG DBUS CONGESTED CYCLE: 5.689
Channel 0 WQ ROW_BUFFER_HIT:      73003
  ROW_BUFFER_MISS:     557066
  FULL:          7
Channel 0 REFRESHES ISSUED:       4867

[ROI Statistics]
[System Configuration]
num_cpus 1
cpu_freq 4000
fetch_width 6
decode_width 6
dispatch_width 6
execute_width 6
lq_width 2
sq_width 2
retire_width 6
scheduler_size 128
branch_mispredict_penalty 15
rob_size 352
lq_size 128
sq_size 72
ifetch_buffer_size 64
decode_buffer_size 32
dispatch_buffer_size 32
register_file_size 288
decode_latency 1
dispatch_latency 1
schedule_latency 1
execute_latency 1
page_size 4096
block_size 64
core_0_itlb_set 16
core_0_itlb_way 4
core_0_itlb_rq_size 16
core_0_itlb_wq_size 16
core_0_itlb_pq_size 0
core_0_itlb_mshr_size 8
core_0_itlb_hit_latency 1
core_0_itlb_fill_latency 1
core_0_itlb_max_tag_check 2
core_0_itlb_max_fill 2
core_0_dtlb_set 16
core_0_dtlb_way 4
core_0_dtlb_rq_size 16
core_0_dtlb_wq_size 16
core_0_dtlb_pq_size 0
core_0_dtlb_mshr_size 8
core_0_dtlb_hit_latency 1
core_0_dtlb_fill_latency 1
core_0_dtlb_max_tag_check 2
core_0_dtlb_max_fill 2
core_0_stlb_set 128
core_0_stlb_way 12
core_0_stlb_rq_size 32
core_0_stlb_wq_size 32
core_0_stlb_pq_size 0
core_0_stlb_mshr_size 16
core_0_stlb_hit_latency 4
core_0_stlb_fill_latency 4
core_0_stlb_max_tag_check 1
core_0_stlb_max_fill 1
core_0_l1i_set 64
core_0_l1i_way 8
core_0_l1i_rq_size 64
core_0_l1i_wq_size 64
core_0_l1i_pq_size 32
core_0_l1i_mshr_size 8
core_0_l1i_hit_latency 2
core_0_l1i_fill_latency 2
core_0_l1i_max_tag_check 2
core_0_l1i_max_fill 2
core_0_l1d_set 64
core_0_l1d_way 12
core_0_l1d_rq_size 64
core_0_l1d_wq_size 64
core_0_l1d_pq_size 8
core_0_l1d_mshr_size 16
core_0_l1d_hit_latency 2
core_0_l1d_fill_latency 3
core_0_l1d_max_tag_check 2
core_0_l1d_max_fill 2
core_0_l2c_set 1024
core_0_l2c_way 8
core_0_l2c_rq_size 32
core_0_l2c_wq_size 32
core_0_l2c_pq_size 16
core_0_l2c_mshr_size 32
core_0_l2c_hit_latency 5
core_0_l2c_fill_latency 5
core_0_l2c_max_tag_check 1
core_0_l2c_max_fill 1
llc_set 2048
llc_way 16
llc_rq_size 32
llc_wq_size 32
llc_pq_size 32
llc_mshr_size 64
llc_hit_latency 10
llc_fill_latency 10
llc_max_tag_check 1
llc_max_fill 1
dram_channels 1
dram_ranks 1
dram_bankgroups 8
dram_banks 4
dram_rows 65536
dram_columns 1024
dram_channel_width 8
dram_rq_size 64
dram_wq_size 64
dram_size 17179869184
core_0_itlb_prefetcher no
core_0_dtlb_prefetcher no
core_0_stlb_prefetcher no
core_0_l1i_prefetcher next_line
core_0_l1d_prefetcher berti
core_0_l2c_prefetcher pythia
llc_prefetcher no
llc_replacement drrip

Core_0_instructions 50000004
Core_0_cycles 58402182
Core_0_IPC 0.856132
Core_0_branch_prediction_accuracy 98.7481
Core_0_branch_MPKI 1.0806
Core_0_average_ROB_occupancy_at_mispredict 130.656

Core_0_ITLB_total_access 5661474
Core_0_ITLB_total_hit 5661474
Core_0_ITLB_total_miss 0
Core_0_ITLB_total_MPKI 0
Core_0_ITLB_total_miss_rate 0
Core_0_ITLB_demand_access 5661474
Core_0_ITLB_demand_hit 5661474
Core_0_ITLB_demand_miss 0
Core_0_ITLB_demand_MPKI 0
Core_0_ITLB_demand_miss_rate 0
Core_0_ITLB_load_access 5661474
Core_0_ITLB_load_hit 5661474
Core_0_ITLB_load_miss 0
Core_0_ITLB_load_MPKI 0
Core_0_ITLB_load_miss_rate 0
Core_0_ITLB_rfo_access 0
Core_0_ITLB_rfo_hit 0
Core_0_ITLB_rfo_miss 0
Core_0_ITLB_rfo_MPKI 0
Core_0_ITLB_rfo_miss_rate 0
Core_0_ITLB_prefetch_access 0
Core_0_ITLB_prefetch_hit 0
Core_0_ITLB_prefetch_miss 0
Core_0_ITLB_prefetch_MPKI 0
Core_0_ITLB_prefetch_miss_rate 0
Core_0_ITLB_writeback_access 0
Core_0_ITLB_writeback_hit 0
Core_0_ITLB_writeback_miss 0
Core_0_ITLB_writeback_MPKI 0
Core_0_ITLB_writeback_miss_rate 0
Core_0_ITLB_prefetch_requested 0
Core_0_ITLB_prefetch_issued 0
Core_0_ITLB_prefetch_useful 0
Core_0_ITLB_prefetch_useless 0
Core_0_ITLB_prefetch_late 0
Core_0_ITLB_prefetch_accuracy 0
Core_0_ITLB_prefetch_coverage 0

Core_0_DTLB_total_access 14190482
Core_0_DTLB_total_hit 13721171
Core_0_DTLB_total_miss 469311
Core_0_DTLB_total_MPKI 9.38622
Core_0_DTLB_total_miss_rate 0.0330722
Core_0_DTLB_demand_access 14190482
Core_0_DTLB_demand_hit 13721171
Core_0_DTLB_demand_miss 469311
Core_0_DTLB_demand_MPKI 9.38622
Core_0_DTLB_demand_miss_rate 0.0330722
Core_0_DTLB_load_access 14190482
Core_0_DTLB_load_hit 13721171
Core_0_DTLB_load_miss 469311
Core_0_DTLB_load_MPKI 9.38622
Core_0_DTLB_load_miss_rate 0.0330722
Core_0_DTLB_rfo_access 0
Core_0_DTLB_rfo_hit 0
Core_0_DTLB_rfo_miss 0
Core_0_DTLB_rfo_MPKI 0
Core_0_DTLB_rfo_miss_rate 0
Core_0_DTLB_prefetch_access 0
Core_0_DTLB_prefetch_hit 0
Core_0_DTLB_prefetch_miss 0
Core_0_DTLB_prefetch_MPKI 0
Core_0_DTLB_prefetch_miss_rate 0
Core_0_DTLB_writeback_access 0
Core_0_DTLB_writeback_hit 0
Core_0_DTLB_writeback_miss 0
Core_0_DTLB_writeback_MPKI 0
Core_0_DTLB_writeback_miss_rate 0
Core_0_DTLB_prefetch_requested 0
Core_0_DTLB_prefetch_issued 0
Core_0_DTLB_prefetch_useful 0
Core_0_DTLB_prefetch_useless 0
Core_0_DTLB_prefetch_late 0
Core_0_DTLB_prefetch_accuracy 0
Core_0_DTLB_prefetch_coverage 0

Core_0_STLB_total_access 251183
Core_0_STLB_total_hit 234354
Core_0_STLB_total_miss 16829
Core_0_STLB_total_MPKI 0.33658
Core_0_STLB_total_miss_rate 0.066999
Core_0_STLB_demand_access 251183
Core_0_STLB_demand_hit 234354
Core_0_STLB_demand_miss 16829
Core_0_STLB_demand_MPKI 0.33658
Core_0_STLB_demand_miss_rate 0.066999
Core_0_STLB_load_access 251183
Core_0_STLB_load_hit 234354
Core_0_STLB_load_miss 16829
Core_0_STLB_load_MPKI 0.33658
Core_0_STLB_load_miss_rate 0.066999
Core_0_STLB_rfo_access 0
Core_0_STLB_rfo_hit 0
Core_0_STLB_rfo_miss 0
Core_0_STLB_rfo_MPKI 0
Core_0_STLB_rfo_miss_rate 0
Core_0_STLB_prefetch_access 0
Core_0_STLB_prefetch_hit 0
Core_0_STLB_prefetch_miss 0
Core_0_STLB_prefetch_MPKI 0
Core_0_STLB_prefetch_miss_rate 0
Core_0_STLB_writeback_access 0
Core_0_STLB_writeback_hit 0
Core_0_STLB_writeback_miss 0
Core_0_STLB_writeback_MPKI 0
Core_0_STLB_writeback_miss_rate 0
Core_0_STLB_prefetch_requested 0
Core_0_STLB_prefetch_issued 0
Core_0_STLB_prefetch_useful 0
Core_0_STLB_prefetch_useless 0
Core_0_STLB_prefetch_late 0
Core_0_STLB_prefetch_accuracy 0
Core_0_STLB_prefetch_coverage 0

Core_0_L1I_total_access 7057013
Core_0_L1I_total_hit 7057013
Core_0_L1I_total_miss 0
Core_0_L1I_total_MPKI 0
Core_0_L1I_total_miss_rate 0
Core_0_L1I_demand_access 7057013
Core_0_L1I_demand_hit 7057013
Core_0_L1I_demand_miss 0
Core_0_L1I_demand_MPKI 0
Core_0_L1I_demand_miss_rate 0
Core_0_L1I_load_access 7057013
Core_0_L1I_load_hit 7057013
Core_0_L1I_load_miss 0
Core_0_L1I_load_MPKI 0
Core_0_L1I_load_miss_rate 0
Core_0_L1I_rfo_access 0
Core_0_L1I_rfo_hit 0
Core_0_L1I_rfo_miss 0
Core_0_L1I_rfo_MPKI 0
Core_0_L1I_rfo_miss_rate 0
Core_0_L1I_prefetch_access 0
Core_0_L1I_prefetch_hit 0
Core_0_L1I_prefetch_miss 0
Core_0_L1I_prefetch_MPKI 0
Core_0_L1I_prefetch_miss_rate 0
Core_0_L1I_writeback_access 0
Core_0_L1I_writeback_hit 0
Core_0_L1I_writeback_miss 0
Core_0_L1I_writeback_MPKI 0
Core_0_L1I_writeback_miss_rate 0
Core_0_L1I_prefetch_requested 0
Core_0_L1I_prefetch_issued 0
Core_0_L1I_prefetch_useful 0
Core_0_L1I_prefetch_useless 0
Core_0_L1I_prefetch_late 0
Core_0_L1I_prefetch_accuracy 0
Core_0_L1I_prefetch_coverage 0

Core_0_L1D_total_access 15833124
Core_0_L1D_total_hit 14063309
Core_0_L1D_total_miss 1769815
Core_0_L1D_total_MPKI 35.3963
Core_0_L1D_total_miss_rate 0.111779
Core_0_L1D_demand_access 6280812
Core_0_L1D_demand_hit 5193923
Core_0_L1D_demand_miss 1086889
Core_0_L1D_demand_MPKI 21.7378
Core_0_L1D_demand_miss_rate 0.173049
Core_0_L1D_load_access 6280812
Core_0_L1D_load_hit 5193923
Core_0_L1D_load_miss 1086889
Core_0_L1D_load_MPKI 21.7378
Core_0_L1D_load_miss_rate 0.173049
Core_0_L1D_rfo_access 0
Core_0_L1D_rfo_hit 0
Core_0_L1D_rfo_miss 0
Core_0_L1D_rfo_MPKI 0
Core_0_L1D_rfo_miss_rate 0
Core_0_L1D_prefetch_access 906299
Core_0_L1D_prefetch_hit 231094
Core_0_L1D_prefetch_miss 675205
Core_0_L1D_prefetch_MPKI 13.5041
Core_0_L1D_prefetch_miss_rate 0.745014
Core_0_L1D_writeback_access 8646013
Core_0_L1D_writeback_hit 8638292
Core_0_L1D_writeback_miss 7721
Core_0_L1D_writeback_MPKI 0.15442
Core_0_L1D_writeback_miss_rate 0.000893013
Core_0_L1D_prefetch_requested 942337
Core_0_L1D_prefetch_issued 906292
Core_0_L1D_prefetch_useful 410290
Core_0_L1D_prefetch_useless 238292
Core_0_L1D_prefetch_late 21573
Core_0_L1D_prefetch_accuracy 0.452713
Core_0_L1D_prefetch_coverage 0.274042

Core_0_L2C_total_access 5212135
Core_0_L2C_total_hit 2598355
Core_0_L2C_total_miss 2613780
Core_0_L2C_total_MPKI 52.2756
Core_0_L2C_total_miss_rate 0.50148
Core_0_L2C_demand_access 835455
Core_0_L2C_demand_hit 142411
Core_0_L2C_demand_miss 693044
Core_0_L2C_demand_MPKI 13.8609
Core_0_L2C_demand_miss_rate 0.829541
Core_0_L2C_load_access 833225
Core_0_L2C_load_hit 140189
Core_0_L2C_load_miss 693036
Core_0_L2C_load_MPKI 13.8607
Core_0_L2C_load_miss_rate 0.831751
Core_0_L2C_rfo_access 2230
Core_0_L2C_rfo_hit 2222
Core_0_L2C_rfo_miss 8
Core_0_L2C_rfo_MPKI 0.00016
Core_0_L2C_rfo_miss_rate 0.00358744
Core_0_L2C_prefetch_access 3688444
Core_0_L2C_prefetch_hit 1768244
Core_0_L2C_prefetch_miss 1920200
Core_0_L2C_prefetch_MPKI 38.404
Core_0_L2C_prefetch_miss_rate 0.520599
Core_0_L2C_writeback_access 688236
Core_0_L2C_writeback_hit 687700
Core_0_L2C_writeback_miss 536
Core_0_L2C_writeback_MPKI 0.01072
Core_0_L2C_writeback_miss_rate 0.000778803
Core_0_L2C_prefetch_requested 3388461
Core_0_L2C_prefetch_issued 3039756
Core_0_L2C_prefetch_useful 524781
Core_0_L2C_prefetch_useless 383108
Core_0_L2C_prefetch_late 99624
Core_0_L2C_prefetch_accuracy 0.172639
Core_0_L2C_prefetch_coverage 0.430917

Core_0_LLC_total_access 2409667
Core_0_LLC_total_hit 186667
Core_0_LLC_total_miss 2223000
Core_0_LLC_total_MPKI 44.46
Core_0_LLC_total_miss_rate 0.922534
Core_0_LLC_demand_access 593420
Core_0_LLC_demand_hit 26682
Core_0_LLC_demand_miss 566738
Core_0_LLC_demand_MPKI 11.3348
Core_0_LLC_demand_miss_rate 0.955037
Core_0_LLC_load_access 593412
Core_0_LLC_load_hit 26682
Core_0_LLC_load_miss 566730
Core_0_LLC_load_MPKI 11.3346
Core_0_LLC_load_miss_rate 0.955036
Core_0_LLC_rfo_access 8
Core_0_LLC_rfo_hit 0
Core_0_LLC_rfo_miss 8
Core_0_LLC_rfo_MPKI 0.00016
Core_0_LLC_rfo_miss_rate 1
Core_0_LLC_prefetch_access 1154018
Core_0_LLC_prefetch_hit 31469
Core_0_LLC_prefetch_miss 1122549
Core_0_LLC_prefetch_MPKI 22.451
Core_0_LLC_prefetch_miss_rate 0.972731
Core_0_LLC_writeback_access 662229
Core_0_LLC_writeback_hit 128516
Core_0_LLC_writeback_miss 533713
Core_0_LLC_writeback_MPKI 10.6743
Core_0_LLC_writeback_miss_rate 0.805934
Core_0_LLC_prefetch_requested 0
Core_0_LLC_prefetch_issued 0
Core_0_LLC_prefetch_useful 0
Core_0_LLC_prefetch_useless 0
Core_0_LLC_prefetch_late 0
Core_0_LLC_prefetch_accuracy 0
Core_0_LLC_prefetch_coverage 0

[DRAM Statistics]
Channel_0_RQ_row_buffer_hit 51627
Channel_0_RQ_row_buffer_miss 1648227
Channel_0_WQ_row_buffer_hit 73003
Channel_0_WQ_row_buffer_miss 557066
Channel_0_WQ_full 7
Channel_0_dbus_congested 7035618
DRAM_total_RQ_row_buffer_hit 51627
DRAM_total_RQ_row_buffer_miss 1648227
DRAM_total_WQ_row_buffer_hit 73003
DRAM_total_WQ_row_buffer_miss 557066
DRAM_total_WQ_full 7
DRAM_total_dbus_congested 7035618
DRAM_avg_congested_cycle 5.68924

======STLB miss causes ========
Core_0_STLB_miss_cause_breakdown
Core_0_STLB_cause_Demand_Data_miss 0
Core_0_STLB_cause_Demand_Data_miss_rate 0
Core_0_STLB_cause_Demand_Instruction_miss 0
Core_0_STLB_cause_Demand_Instruction_miss_rate 0
Core_0_STLB_cause_L1D_Prefetch_miss 16829
Core_0_STLB_cause_L1D_Prefetch_miss_rate 0.066999
Core_0_STLB_cause_L1I_Prefetch_miss 0
Core_0_STLB_cause_L1I_Prefetch_miss_rate 0
Core_0_STLB_cause_Other_miss 0
Core_0_STLB_cause_Other_miss_rate 0
Core_0_STLB_Demand_miss 0
Core_0_STLB_Demand_miss_rate 0
Core_0_STLB_L1D_Prefetch_miss 16829
Core_0_STLB_L1D_Prefetch_miss_rate 0.066999
Core_0_STLB_Other_miss 0
Core_0_STLB_Other_miss_rate 0
