[VMEM] WARNING: physical memory size is smaller than virtual memory size.

*** ChampSim Multicore Out-of-Order Simulator ***
Warmup Instructions: 20000000
Simulation Instructions: 50000000
Number of CPUs: 1
Page size: 4096
STLB ideal mode: demand
Core 0: /data0/tzh/champsim_traces/SPEC06/473.astar-359B.champsimtrace.xz
 L1D Berti prefetcher
Off-chip DRAM Size: 16 GiB Channels: 1 Width: 64-bit Data Rate: 3205 MT/s
Warmup halting CPU 0 at instruction 20000005 cycle 4903535 for remainder of phase
Warmup finished CPU 0 instructions: 20000005 cycles: 4903535 cumulative IPC: 4.079 (Simulation time: 00 hr 01 min 12 sec)
Warmup complete CPU 0 instructions: 20000005 cycles: 4903535 cumulative IPC: 4.079 (Simulation time: 00 hr 01 min 12 sec)
Simulation finished CPU 0 instructions: 50000000 cycles: 205643769 cumulative IPC: 0.2431 (Simulation time: 00 hr 17 min 03 sec)
Simulation complete CPU 0 instructions: 50000000 cycles: 205643769 cumulative IPC: 0.2431 (Simulation time: 00 hr 17 min 03 sec)

ChampSim completed all CPUs

=== Simulation ===
CPU 0 runs /data0/tzh/champsim_traces/SPEC06/473.astar-359B.champsimtrace.xz

Region of Interest Statistics

CPU 0 cumulative IPC: 0.2431 instructions: 50000000 cycles: 205643769
CPU 0 Branch Prediction Accuracy: 93.2% MPKI: 13.43 Average ROB Occupancy at Mispredict: 44.98
Branch type MPKI
BRANCH_DIRECT_JUMP: 0
BRANCH_INDIRECT: 0
BRANCH_CONDITIONAL: 13.42
BRANCH_DIRECT_CALL: 0
BRANCH_INDIRECT_CALL: 0.00054
BRANCH_RETURN: 0

cpu0->cpu0_STLB TOTAL        ACCESS:    1675104 HIT:    1615669 MISS:      59435 MSHR_MERGE:          0
cpu0->cpu0_STLB LOAD         ACCESS:    1675104 HIT:    1615669 MISS:      59435 MSHR_MERGE:          0
cpu0->cpu0_STLB RFO          ACCESS:          0 HIT:          0 MISS:          0 MSHR_MERGE:          0
cpu0->cpu0_STLB PREFETCH     ACCESS:          0 HIT:          0 MISS:          0 MSHR_MERGE:          0
cpu0->cpu0_STLB WRITE        ACCESS:          0 HIT:          0 MISS:          0 MSHR_MERGE:          0
cpu0->cpu0_STLB TRANSLATION  ACCESS:          0 HIT:          0 MISS:          0 MSHR_MERGE:          0
cpu0->cpu0_STLB PREFETCH REQUESTED:          0 ISSUED:          0 USEFUL:          0 USELESS:          0 LATE:          0
cpu0->cpu0_STLB AVERAGE MISS LATENCY: 183.4 cycles
cpu0->cpu0_L2C TOTAL        ACCESS:    6527913 HIT:    3611207 MISS:    2916706 MSHR_MERGE:     290508
cpu0->cpu0_L2C LOAD         ACCESS:    1552542 HIT:     905497 MISS:     647045 MSHR_MERGE:       9386
cpu0->cpu0_L2C RFO          ACCESS:     764076 HIT:      47049 MISS:     717027 MSHR_MERGE:          0
cpu0->cpu0_L2C PREFETCH     ACCESS:    2979311 HIT:    1469871 MISS:    1509440 MSHR_MERGE:     281122
cpu0->cpu0_L2C WRITE        ACCESS:    1167188 HIT:    1167062 MISS:        126 MSHR_MERGE:          0
cpu0->cpu0_L2C TRANSLATION  ACCESS:      64796 HIT:      21728 MISS:      43068 MSHR_MERGE:          0
cpu0->cpu0_L2C PREFETCH REQUESTED:    2550752 ISSUED:    2504431 USEFUL:     364696 USELESS:     670911 LATE:       9386
cpu0->cpu0_L2C AVERAGE MISS LATENCY: 374.2 cycles
cpu0->cpu0_L1I TOTAL        ACCESS:     720679 HIT:     720672 MISS:          7 MSHR_MERGE:          0
cpu0->cpu0_L1I LOAD         ACCESS:     720679 HIT:     720672 MISS:          7 MSHR_MERGE:          0
cpu0->cpu0_L1I RFO          ACCESS:          0 HIT:          0 MISS:          0 MSHR_MERGE:          0
cpu0->cpu0_L1I PREFETCH     ACCESS:          0 HIT:          0 MISS:          0 MSHR_MERGE:          0
cpu0->cpu0_L1I WRITE        ACCESS:          0 HIT:          0 MISS:          0 MSHR_MERGE:          0
cpu0->cpu0_L1I TRANSLATION  ACCESS:          0 HIT:          0 MISS:          0 MSHR_MERGE:          0
cpu0->cpu0_L1I PREFETCH REQUESTED:          0 ISSUED:          0 USEFUL:          0 USELESS:          0 LATE:          0
cpu0->cpu0_L1I AVERAGE MISS LATENCY: 206.1 cycles
cpu0->cpu0_L1D TOTAL        ACCESS:   20825352 HIT:   17314147 MISS:    3511205 MSHR_MERGE:     654909
cpu0->cpu0_L1D LOAD         ACCESS:   13780991 HIT:   11598690 MISS:    2182301 MSHR_MERGE:     629766
cpu0->cpu0_L1D RFO          ACCESS:          0 HIT:          0 MISS:          0 MSHR_MERGE:          0
cpu0->cpu0_L1D PREFETCH     ACCESS:     593490 HIT:      93639 MISS:     499851 MSHR_MERGE:      24962
cpu0->cpu0_L1D WRITE        ACCESS:    6315148 HIT:    5550974 MISS:     764174 MSHR_MERGE:         98
cpu0->cpu0_L1D TRANSLATION  ACCESS:     135723 HIT:      70844 MISS:      64879 MSHR_MERGE:         83
cpu0->cpu0_L1D PREFETCH REQUESTED:     599831 ISSUED:     593496 USEFUL:     169687 USELESS:     305293 LATE:      13284
cpu0->cpu0_L1D AVERAGE MISS LATENCY: 229.5 cycles
cpu0->cpu0_ITLB TOTAL        ACCESS:     720596 HIT:     720596 MISS:          0 MSHR_MERGE:          0
cpu0->cpu0_ITLB LOAD         ACCESS:     720596 HIT:     720596 MISS:          0 MSHR_MERGE:          0
cpu0->cpu0_ITLB RFO          ACCESS:          0 HIT:          0 MISS:          0 MSHR_MERGE:          0
cpu0->cpu0_ITLB PREFETCH     ACCESS:          0 HIT:          0 MISS:          0 MSHR_MERGE:          0
cpu0->cpu0_ITLB WRITE        ACCESS:          0 HIT:          0 MISS:          0 MSHR_MERGE:          0
cpu0->cpu0_ITLB TRANSLATION  ACCESS:          0 HIT:          0 MISS:          0 MSHR_MERGE:          0
cpu0->cpu0_ITLB PREFETCH REQUESTED:          0 ISSUED:          0 USEFUL:          0 USELESS:          0 LATE:          0
cpu0->cpu0_ITLB AVERAGE MISS LATENCY: - cycles
cpu0->cpu0_DTLB TOTAL        ACCESS:   20132478 HIT:   17816447 MISS:    2316031 MSHR_MERGE:     640927
cpu0->cpu0_DTLB LOAD         ACCESS:   20132478 HIT:   17816447 MISS:    2316031 MSHR_MERGE:     640927
cpu0->cpu0_DTLB RFO          ACCESS:          0 HIT:          0 MISS:          0 MSHR_MERGE:          0
cpu0->cpu0_DTLB PREFETCH     ACCESS:          0 HIT:          0 MISS:          0 MSHR_MERGE:          0
cpu0->cpu0_DTLB WRITE        ACCESS:          0 HIT:          0 MISS:          0 MSHR_MERGE:          0
cpu0->cpu0_DTLB TRANSLATION  ACCESS:          0 HIT:          0 MISS:          0 MSHR_MERGE:          0
cpu0->cpu0_DTLB PREFETCH REQUESTED:          0 ISSUED:          0 USEFUL:          0 USELESS:          0 LATE:          0
cpu0->cpu0_DTLB AVERAGE MISS LATENCY: 11.55 cycles
cpu0->LLC TOTAL        ACCESS:    3739504 HIT:     590419 MISS:    3149085 MSHR_MERGE:          0
cpu0->LLC LOAD         ACCESS:     637659 HIT:      67475 MISS:     570184 MSHR_MERGE:          0
cpu0->LLC RFO          ACCESS:     717024 HIT:     115518 MISS:     601506 MSHR_MERGE:          0
cpu0->LLC PREFETCH     ACCESS:    1228316 HIT:      59074 MISS:    1169242 MSHR_MERGE:          0
cpu0->LLC WRITE        ACCESS:    1113437 HIT:     346084 MISS:     767353 MSHR_MERGE:          0
cpu0->LLC TRANSLATION  ACCESS:      43068 HIT:       2268 MISS:      40800 MSHR_MERGE:          0
cpu0->LLC PREFETCH REQUESTED:          0 ISSUED:          0 USEFUL:          0 USELESS:          0 LATE:          0
cpu0->LLC AVERAGE MISS LATENCY: 256.7 cycles

DRAM Statistics

Channel 0 RQ ROW_BUFFER_HIT:      64951
  ROW_BUFFER_MISS:    2316284
  AVG DBUS CONGESTED CYCLE: 12.15
Channel 0 WQ ROW_BUFFER_HIT:     227223
  ROW_BUFFER_MISS:     726432
  FULL:       2567
Channel 0 REFRESHES ISSUED:      17137

[ROI Statistics]
[System Configuration]
num_cpus 1
cpu_freq 4000
fetch_width 6
decode_width 6
dispatch_width 6
execute_width 6
lq_width 2
sq_width 2
retire_width 6
scheduler_size 128
branch_mispredict_penalty 15
rob_size 352
lq_size 128
sq_size 72
ifetch_buffer_size 64
decode_buffer_size 32
dispatch_buffer_size 32
register_file_size 288
decode_latency 1
dispatch_latency 1
schedule_latency 1
execute_latency 1
page_size 4096
block_size 64
core_0_itlb_set 16
core_0_itlb_way 4
core_0_itlb_rq_size 16
core_0_itlb_wq_size 16
core_0_itlb_pq_size 0
core_0_itlb_mshr_size 8
core_0_itlb_hit_latency 1
core_0_itlb_fill_latency 1
core_0_itlb_max_tag_check 2
core_0_itlb_max_fill 2
core_0_dtlb_set 16
core_0_dtlb_way 4
core_0_dtlb_rq_size 16
core_0_dtlb_wq_size 16
core_0_dtlb_pq_size 0
core_0_dtlb_mshr_size 8
core_0_dtlb_hit_latency 1
core_0_dtlb_fill_latency 1
core_0_dtlb_max_tag_check 2
core_0_dtlb_max_fill 2
core_0_stlb_set 128
core_0_stlb_way 12
core_0_stlb_rq_size 32
core_0_stlb_wq_size 32
core_0_stlb_pq_size 0
core_0_stlb_mshr_size 16
core_0_stlb_hit_latency 4
core_0_stlb_fill_latency 4
core_0_stlb_max_tag_check 1
core_0_stlb_max_fill 1
core_0_l1i_set 64
core_0_l1i_way 8
core_0_l1i_rq_size 64
core_0_l1i_wq_size 64
core_0_l1i_pq_size 32
core_0_l1i_mshr_size 8
core_0_l1i_hit_latency 2
core_0_l1i_fill_latency 2
core_0_l1i_max_tag_check 2
core_0_l1i_max_fill 2
core_0_l1d_set 64
core_0_l1d_way 12
core_0_l1d_rq_size 64
core_0_l1d_wq_size 64
core_0_l1d_pq_size 8
core_0_l1d_mshr_size 16
core_0_l1d_hit_latency 2
core_0_l1d_fill_latency 3
core_0_l1d_max_tag_check 2
core_0_l1d_max_fill 2
core_0_l2c_set 1024
core_0_l2c_way 8
core_0_l2c_rq_size 32
core_0_l2c_wq_size 32
core_0_l2c_pq_size 16
core_0_l2c_mshr_size 32
core_0_l2c_hit_latency 5
core_0_l2c_fill_latency 5
core_0_l2c_max_tag_check 1
core_0_l2c_max_fill 1
llc_set 2048
llc_way 16
llc_rq_size 32
llc_wq_size 32
llc_pq_size 32
llc_mshr_size 64
llc_hit_latency 10
llc_fill_latency 10
llc_max_tag_check 1
llc_max_fill 1
dram_channels 1
dram_ranks 1
dram_bankgroups 8
dram_banks 4
dram_rows 65536
dram_columns 1024
dram_channel_width 8
dram_rq_size 64
dram_wq_size 64
dram_size 17179869184
core_0_itlb_prefetcher no
core_0_dtlb_prefetcher no
core_0_stlb_prefetcher no
core_0_l1i_prefetcher next_line
core_0_l1d_prefetcher berti
core_0_l2c_prefetcher pythia
llc_prefetcher no
llc_replacement drrip

Core_0_instructions 50000000
Core_0_cycles 205643769
Core_0_IPC 0.243139
Core_0_branch_prediction_accuracy 93.1958
Core_0_branch_MPKI 13.4253
Core_0_average_ROB_occupancy_at_mispredict 44.9826

Core_0_ITLB_total_access 720596
Core_0_ITLB_total_hit 720596
Core_0_ITLB_total_miss 0
Core_0_ITLB_total_MPKI 0
Core_0_ITLB_total_miss_rate 0
Core_0_ITLB_demand_access 720596
Core_0_ITLB_demand_hit 720596
Core_0_ITLB_demand_miss 0
Core_0_ITLB_demand_MPKI 0
Core_0_ITLB_demand_miss_rate 0
Core_0_ITLB_load_access 720596
Core_0_ITLB_load_hit 720596
Core_0_ITLB_load_miss 0
Core_0_ITLB_load_MPKI 0
Core_0_ITLB_load_miss_rate 0
Core_0_ITLB_rfo_access 0
Core_0_ITLB_rfo_hit 0
Core_0_ITLB_rfo_miss 0
Core_0_ITLB_rfo_MPKI 0
Core_0_ITLB_rfo_miss_rate 0
Core_0_ITLB_prefetch_access 0
Core_0_ITLB_prefetch_hit 0
Core_0_ITLB_prefetch_miss 0
Core_0_ITLB_prefetch_MPKI 0
Core_0_ITLB_prefetch_miss_rate 0
Core_0_ITLB_writeback_access 0
Core_0_ITLB_writeback_hit 0
Core_0_ITLB_writeback_miss 0
Core_0_ITLB_writeback_MPKI 0
Core_0_ITLB_writeback_miss_rate 0
Core_0_ITLB_prefetch_requested 0
Core_0_ITLB_prefetch_issued 0
Core_0_ITLB_prefetch_useful 0
Core_0_ITLB_prefetch_useless 0
Core_0_ITLB_prefetch_late 0
Core_0_ITLB_prefetch_accuracy 0
Core_0_ITLB_prefetch_coverage 0

Core_0_DTLB_total_access 20132478
Core_0_DTLB_total_hit 17816447
Core_0_DTLB_total_miss 2316031
Core_0_DTLB_total_MPKI 46.3206
Core_0_DTLB_total_miss_rate 0.11504
Core_0_DTLB_demand_access 20132478
Core_0_DTLB_demand_hit 17816447
Core_0_DTLB_demand_miss 2316031
Core_0_DTLB_demand_MPKI 46.3206
Core_0_DTLB_demand_miss_rate 0.11504
Core_0_DTLB_load_access 20132478
Core_0_DTLB_load_hit 17816447
Core_0_DTLB_load_miss 2316031
Core_0_DTLB_load_MPKI 46.3206
Core_0_DTLB_load_miss_rate 0.11504
Core_0_DTLB_rfo_access 0
Core_0_DTLB_rfo_hit 0
Core_0_DTLB_rfo_miss 0
Core_0_DTLB_rfo_MPKI 0
Core_0_DTLB_rfo_miss_rate 0
Core_0_DTLB_prefetch_access 0
Core_0_DTLB_prefetch_hit 0
Core_0_DTLB_prefetch_miss 0
Core_0_DTLB_prefetch_MPKI 0
Core_0_DTLB_prefetch_miss_rate 0
Core_0_DTLB_writeback_access 0
Core_0_DTLB_writeback_hit 0
Core_0_DTLB_writeback_miss 0
Core_0_DTLB_writeback_MPKI 0
Core_0_DTLB_writeback_miss_rate 0
Core_0_DTLB_prefetch_requested 0
Core_0_DTLB_prefetch_issued 0
Core_0_DTLB_prefetch_useful 0
Core_0_DTLB_prefetch_useless 0
Core_0_DTLB_prefetch_late 0
Core_0_DTLB_prefetch_accuracy 0
Core_0_DTLB_prefetch_coverage 0

Core_0_STLB_total_access 1675104
Core_0_STLB_total_hit 1615669
Core_0_STLB_total_miss 59435
Core_0_STLB_total_MPKI 1.1887
Core_0_STLB_total_miss_rate 0.0354814
Core_0_STLB_demand_access 1675104
Core_0_STLB_demand_hit 1615669
Core_0_STLB_demand_miss 59435
Core_0_STLB_demand_MPKI 1.1887
Core_0_STLB_demand_miss_rate 0.0354814
Core_0_STLB_load_access 1675104
Core_0_STLB_load_hit 1615669
Core_0_STLB_load_miss 59435
Core_0_STLB_load_MPKI 1.1887
Core_0_STLB_load_miss_rate 0.0354814
Core_0_STLB_rfo_access 0
Core_0_STLB_rfo_hit 0
Core_0_STLB_rfo_miss 0
Core_0_STLB_rfo_MPKI 0
Core_0_STLB_rfo_miss_rate 0
Core_0_STLB_prefetch_access 0
Core_0_STLB_prefetch_hit 0
Core_0_STLB_prefetch_miss 0
Core_0_STLB_prefetch_MPKI 0
Core_0_STLB_prefetch_miss_rate 0
Core_0_STLB_writeback_access 0
Core_0_STLB_writeback_hit 0
Core_0_STLB_writeback_miss 0
Core_0_STLB_writeback_MPKI 0
Core_0_STLB_writeback_miss_rate 0
Core_0_STLB_prefetch_requested 0
Core_0_STLB_prefetch_issued 0
Core_0_STLB_prefetch_useful 0
Core_0_STLB_prefetch_useless 0
Core_0_STLB_prefetch_late 0
Core_0_STLB_prefetch_accuracy 0
Core_0_STLB_prefetch_coverage 0

Core_0_L1I_total_access 720679
Core_0_L1I_total_hit 720672
Core_0_L1I_total_miss 7
Core_0_L1I_total_MPKI 0.00014
Core_0_L1I_total_miss_rate 9.71306e-06
Core_0_L1I_demand_access 720679
Core_0_L1I_demand_hit 720672
Core_0_L1I_demand_miss 7
Core_0_L1I_demand_MPKI 0.00014
Core_0_L1I_demand_miss_rate 9.71306e-06
Core_0_L1I_load_access 720679
Core_0_L1I_load_hit 720672
Core_0_L1I_load_miss 7
Core_0_L1I_load_MPKI 0.00014
Core_0_L1I_load_miss_rate 9.71306e-06
Core_0_L1I_rfo_access 0
Core_0_L1I_rfo_hit 0
Core_0_L1I_rfo_miss 0
Core_0_L1I_rfo_MPKI 0
Core_0_L1I_rfo_miss_rate 0
Core_0_L1I_prefetch_access 0
Core_0_L1I_prefetch_hit 0
Core_0_L1I_prefetch_miss 0
Core_0_L1I_prefetch_MPKI 0
Core_0_L1I_prefetch_miss_rate 0
Core_0_L1I_writeback_access 0
Core_0_L1I_writeback_hit 0
Core_0_L1I_writeback_miss 0
Core_0_L1I_writeback_MPKI 0
Core_0_L1I_writeback_miss_rate 0
Core_0_L1I_prefetch_requested 0
Core_0_L1I_prefetch_issued 0
Core_0_L1I_prefetch_useful 0
Core_0_L1I_prefetch_useless 0
Core_0_L1I_prefetch_late 0
Core_0_L1I_prefetch_accuracy 0
Core_0_L1I_prefetch_coverage 0

Core_0_L1D_total_access 20689629
Core_0_L1D_total_hit 17243303
Core_0_L1D_total_miss 3446326
Core_0_L1D_total_MPKI 68.9265
Core_0_L1D_total_miss_rate 0.166573
Core_0_L1D_demand_access 13780991
Core_0_L1D_demand_hit 11598690
Core_0_L1D_demand_miss 2182301
Core_0_L1D_demand_MPKI 43.646
Core_0_L1D_demand_miss_rate 0.158356
Core_0_L1D_load_access 13780991
Core_0_L1D_load_hit 11598690
Core_0_L1D_load_miss 2182301
Core_0_L1D_load_MPKI 43.646
Core_0_L1D_load_miss_rate 0.158356
Core_0_L1D_rfo_access 0
Core_0_L1D_rfo_hit 0
Core_0_L1D_rfo_miss 0
Core_0_L1D_rfo_MPKI 0
Core_0_L1D_rfo_miss_rate 0
Core_0_L1D_prefetch_access 593490
Core_0_L1D_prefetch_hit 93639
Core_0_L1D_prefetch_miss 499851
Core_0_L1D_prefetch_MPKI 9.99702
Core_0_L1D_prefetch_miss_rate 0.842223
Core_0_L1D_writeback_access 6315148
Core_0_L1D_writeback_hit 5550974
Core_0_L1D_writeback_miss 764174
Core_0_L1D_writeback_MPKI 15.2835
Core_0_L1D_writeback_miss_rate 0.121007
Core_0_L1D_prefetch_requested 599831
Core_0_L1D_prefetch_issued 593496
Core_0_L1D_prefetch_useful 169687
Core_0_L1D_prefetch_useless 305293
Core_0_L1D_prefetch_late 13284
Core_0_L1D_prefetch_accuracy 0.285911
Core_0_L1D_prefetch_coverage 0.0721462

Core_0_L2C_total_access 6463117
Core_0_L2C_total_hit 3589479
Core_0_L2C_total_miss 2873638
Core_0_L2C_total_MPKI 57.4728
Core_0_L2C_total_miss_rate 0.444621
Core_0_L2C_demand_access 2316618
Core_0_L2C_demand_hit 952546
Core_0_L2C_demand_miss 1364072
Core_0_L2C_demand_MPKI 27.2814
Core_0_L2C_demand_miss_rate 0.58882
Core_0_L2C_load_access 1552542
Core_0_L2C_load_hit 905497
Core_0_L2C_load_miss 647045
Core_0_L2C_load_MPKI 12.9409
Core_0_L2C_load_miss_rate 0.416765
Core_0_L2C_rfo_access 764076
Core_0_L2C_rfo_hit 47049
Core_0_L2C_rfo_miss 717027
Core_0_L2C_rfo_MPKI 14.3405
Core_0_L2C_rfo_miss_rate 0.938424
Core_0_L2C_prefetch_access 2979311
Core_0_L2C_prefetch_hit 1469871
Core_0_L2C_prefetch_miss 1509440
Core_0_L2C_prefetch_MPKI 30.1888
Core_0_L2C_prefetch_miss_rate 0.506641
Core_0_L2C_writeback_access 1167188
Core_0_L2C_writeback_hit 1167062
Core_0_L2C_writeback_miss 126
Core_0_L2C_writeback_MPKI 0.00252
Core_0_L2C_writeback_miss_rate 0.000107952
Core_0_L2C_prefetch_requested 2550752
Core_0_L2C_prefetch_issued 2504431
Core_0_L2C_prefetch_useful 364696
Core_0_L2C_prefetch_useless 670911
Core_0_L2C_prefetch_late 9386
Core_0_L2C_prefetch_accuracy 0.14562
Core_0_L2C_prefetch_coverage 0.210957

Core_0_LLC_total_access 3696436
Core_0_LLC_total_hit 588151
Core_0_LLC_total_miss 3108285
Core_0_LLC_total_MPKI 62.1657
Core_0_LLC_total_miss_rate 0.840887
Core_0_LLC_demand_access 1354683
Core_0_LLC_demand_hit 182993
Core_0_LLC_demand_miss 1171690
Core_0_LLC_demand_MPKI 23.4338
Core_0_LLC_demand_miss_rate 0.864918
Core_0_LLC_load_access 637659
Core_0_LLC_load_hit 67475
Core_0_LLC_load_miss 570184
Core_0_LLC_load_MPKI 11.4037
Core_0_LLC_load_miss_rate 0.894183
Core_0_LLC_rfo_access 717024
Core_0_LLC_rfo_hit 115518
Core_0_LLC_rfo_miss 601506
Core_0_LLC_rfo_MPKI 12.0301
Core_0_LLC_rfo_miss_rate 0.838892
Core_0_LLC_prefetch_access 1228316
Core_0_LLC_prefetch_hit 59074
Core_0_LLC_prefetch_miss 1169242
Core_0_LLC_prefetch_MPKI 23.3848
Core_0_LLC_prefetch_miss_rate 0.951907
Core_0_LLC_writeback_access 1113437
Core_0_LLC_writeback_hit 346084
Core_0_LLC_writeback_miss 767353
Core_0_LLC_writeback_MPKI 15.3471
Core_0_LLC_writeback_miss_rate 0.689175
Core_0_LLC_prefetch_requested 0
Core_0_LLC_prefetch_issued 0
Core_0_LLC_prefetch_useful 0
Core_0_LLC_prefetch_useless 0
Core_0_LLC_prefetch_late 0
Core_0_LLC_prefetch_accuracy 0
Core_0_LLC_prefetch_coverage 0

[DRAM Statistics]
Channel_0_RQ_row_buffer_hit 64951
Channel_0_RQ_row_buffer_miss 2316284
Channel_0_WQ_row_buffer_hit 227223
Channel_0_WQ_row_buffer_miss 726432
Channel_0_WQ_full 2567
Channel_0_dbus_congested 11138315
DRAM_total_RQ_row_buffer_hit 64951
DRAM_total_RQ_row_buffer_miss 2316284
DRAM_total_WQ_row_buffer_hit 227223
DRAM_total_WQ_row_buffer_miss 726432
DRAM_total_WQ_full 2567
DRAM_total_dbus_congested 11138315
DRAM_avg_congested_cycle 12.1452

======STLB miss causes ========
Core_0_STLB_miss_cause_breakdown
Core_0_STLB_cause_Demand_Data_miss 0
Core_0_STLB_cause_Demand_Data_miss_rate 0
Core_0_STLB_cause_Demand_Instruction_miss 0
Core_0_STLB_cause_Demand_Instruction_miss_rate 0
Core_0_STLB_cause_L1D_Prefetch_miss 59435
Core_0_STLB_cause_L1D_Prefetch_miss_rate 0.0354814
Core_0_STLB_cause_L1I_Prefetch_miss 0
Core_0_STLB_cause_L1I_Prefetch_miss_rate 0
Core_0_STLB_cause_Other_miss 0
Core_0_STLB_cause_Other_miss_rate 0
Core_0_STLB_Demand_miss 0
Core_0_STLB_Demand_miss_rate 0
Core_0_STLB_L1D_Prefetch_miss 59435
Core_0_STLB_L1D_Prefetch_miss_rate 0.0354814
Core_0_STLB_Other_miss 0
Core_0_STLB_Other_miss_rate 0
