[VMEM] WARNING: physical memory size is smaller than virtual memory size.

*** ChampSim Multicore Out-of-Order Simulator ***
Warmup Instructions: 20000000
Simulation Instructions: 50000000
Number of CPUs: 1
Page size: 4096
STLB ideal mode: demand
Core 0: /data0/tzh/champsim_traces/SPEC17/605.mcf_s-1644B.champsimtrace.xz
 L1D Berti prefetcher
Off-chip DRAM Size: 16 GiB Channels: 1 Width: 64-bit Data Rate: 3205 MT/s
Warmup halting CPU 0 at instruction 20000000 cycle 8237647 for remainder of phase
Warmup finished CPU 0 instructions: 20000000 cycles: 8237647 cumulative IPC: 2.428 (Simulation time: 00 hr 01 min 43 sec)
Warmup complete CPU 0 instructions: 20000000 cycles: 8237647 cumulative IPC: 2.428 (Simulation time: 00 hr 01 min 43 sec)
Simulation finished CPU 0 instructions: 50000003 cycles: 179289071 cumulative IPC: 0.2789 (Simulation time: 00 hr 23 min 45 sec)
Simulation complete CPU 0 instructions: 50000003 cycles: 179289071 cumulative IPC: 0.2789 (Simulation time: 00 hr 23 min 45 sec)

ChampSim completed all CPUs

=== Simulation ===
CPU 0 runs /data0/tzh/champsim_traces/SPEC17/605.mcf_s-1644B.champsimtrace.xz

Region of Interest Statistics

CPU 0 cumulative IPC: 0.2789 instructions: 50000003 cycles: 179289071
CPU 0 Branch Prediction Accuracy: 95.08% MPKI: 6.109 Average ROB Occupancy at Mispredict: 95.05
Branch type MPKI
BRANCH_DIRECT_JUMP: 0
BRANCH_INDIRECT: 0
BRANCH_CONDITIONAL: 6.109
BRANCH_DIRECT_CALL: 0
BRANCH_INDIRECT_CALL: 0
BRANCH_RETURN: 0

cpu0->cpu0_STLB TOTAL        ACCESS:    1467742 HIT:    1467688 MISS:         54 MSHR_MERGE:          0
cpu0->cpu0_STLB LOAD         ACCESS:    1467742 HIT:    1467688 MISS:         54 MSHR_MERGE:          0
cpu0->cpu0_STLB RFO          ACCESS:          0 HIT:          0 MISS:          0 MSHR_MERGE:          0
cpu0->cpu0_STLB PREFETCH     ACCESS:          0 HIT:          0 MISS:          0 MSHR_MERGE:          0
cpu0->cpu0_STLB WRITE        ACCESS:          0 HIT:          0 MISS:          0 MSHR_MERGE:          0
cpu0->cpu0_STLB TRANSLATION  ACCESS:          0 HIT:          0 MISS:          0 MSHR_MERGE:          0
cpu0->cpu0_STLB PREFETCH REQUESTED:          0 ISSUED:          0 USEFUL:          0 USELESS:          0 LATE:          0
cpu0->cpu0_STLB AVERAGE MISS LATENCY: 817.4 cycles
cpu0->cpu0_L2C TOTAL        ACCESS:   15150235 HIT:    8466322 MISS:    6683913 MSHR_MERGE:     655684
cpu0->cpu0_L2C LOAD         ACCESS:    1054383 HIT:     361174 MISS:     693209 MSHR_MERGE:      23188
cpu0->cpu0_L2C RFO          ACCESS:    2186561 HIT:         57 MISS:    2186504 MSHR_MERGE:          0
cpu0->cpu0_L2C PREFETCH     ACCESS:    7403280 HIT:    3601129 MISS:    3802151 MSHR_MERGE:     632496
cpu0->cpu0_L2C WRITE        ACCESS:    4505953 HIT:    4503961 MISS:       1992 MSHR_MERGE:          0
cpu0->cpu0_L2C TRANSLATION  ACCESS:         58 HIT:          1 MISS:         57 MSHR_MERGE:          0
cpu0->cpu0_L2C PREFETCH REQUESTED:    5458912 ISSUED:    5424076 USEFUL:    1216289 USELESS:    1241060 LATE:      23188
cpu0->cpu0_L2C AVERAGE MISS LATENCY: 617.8 cycles
cpu0->cpu0_L1I TOTAL        ACCESS:    2903719 HIT:    2903719 MISS:          0 MSHR_MERGE:          0
cpu0->cpu0_L1I LOAD         ACCESS:    2903719 HIT:    2903719 MISS:          0 MSHR_MERGE:          0
cpu0->cpu0_L1I RFO          ACCESS:          0 HIT:          0 MISS:          0 MSHR_MERGE:          0
cpu0->cpu0_L1I PREFETCH     ACCESS:          0 HIT:          0 MISS:          0 MSHR_MERGE:          0
cpu0->cpu0_L1I WRITE        ACCESS:          0 HIT:          0 MISS:          0 MSHR_MERGE:          0
cpu0->cpu0_L1I TRANSLATION  ACCESS:          0 HIT:          0 MISS:          0 MSHR_MERGE:          0
cpu0->cpu0_L1I PREFETCH REQUESTED:          0 ISSUED:          0 USEFUL:          0 USELESS:          0 LATE:          0
cpu0->cpu0_L1I AVERAGE MISS LATENCY: - cycles
cpu0->cpu0_L1D TOTAL        ACCESS:   33055157 HIT:   19843956 MISS:   13211201 MSHR_MERGE:    7991001
cpu0->cpu0_L1D LOAD         ACCESS:   13512768 HIT:   12148475 MISS:    1364293 MSHR_MERGE:     309910
cpu0->cpu0_L1D RFO          ACCESS:          0 HIT:          0 MISS:          0 MSHR_MERGE:          0
cpu0->cpu0_L1D PREFETCH     ACCESS:    2050023 HIT:      39942 MISS:    2010081 MSHR_MERGE:      30883
cpu0->cpu0_L1D WRITE        ACCESS:   17492254 HIT:    7655485 MISS:    9836769 MSHR_MERGE:    7650208
cpu0->cpu0_L1D TRANSLATION  ACCESS:        112 HIT:         54 MISS:         58 MSHR_MERGE:          0
cpu0->cpu0_L1D PREFETCH REQUESTED:    2052416 ISSUED:    2050015 USEFUL:    1264914 USELESS:     714186 LATE:     113253
cpu0->cpu0_L1D AVERAGE MISS LATENCY: 560.1 cycles
cpu0->cpu0_ITLB TOTAL        ACCESS:    2887564 HIT:    2887564 MISS:          0 MSHR_MERGE:          0
cpu0->cpu0_ITLB LOAD         ACCESS:    2887564 HIT:    2887564 MISS:          0 MSHR_MERGE:          0
cpu0->cpu0_ITLB RFO          ACCESS:          0 HIT:          0 MISS:          0 MSHR_MERGE:          0
cpu0->cpu0_ITLB PREFETCH     ACCESS:          0 HIT:          0 MISS:          0 MSHR_MERGE:          0
cpu0->cpu0_ITLB WRITE        ACCESS:          0 HIT:          0 MISS:          0 MSHR_MERGE:          0
cpu0->cpu0_ITLB TRANSLATION  ACCESS:          0 HIT:          0 MISS:          0 MSHR_MERGE:          0
cpu0->cpu0_ITLB PREFETCH REQUESTED:          0 ISSUED:          0 USEFUL:          0 USELESS:          0 LATE:          0
cpu0->cpu0_ITLB AVERAGE MISS LATENCY: - cycles
cpu0->cpu0_DTLB TOTAL        ACCESS:   31299501 HIT:   29334542 MISS:    1964959 MSHR_MERGE:     497217
cpu0->cpu0_DTLB LOAD         ACCESS:   31299501 HIT:   29334542 MISS:    1964959 MSHR_MERGE:     497217
cpu0->cpu0_DTLB RFO          ACCESS:          0 HIT:          0 MISS:          0 MSHR_MERGE:          0
cpu0->cpu0_DTLB PREFETCH     ACCESS:          0 HIT:          0 MISS:          0 MSHR_MERGE:          0
cpu0->cpu0_DTLB WRITE        ACCESS:          0 HIT:          0 MISS:          0 MSHR_MERGE:          0
cpu0->cpu0_DTLB TRANSLATION  ACCESS:          0 HIT:          0 MISS:          0 MSHR_MERGE:          0
cpu0->cpu0_DTLB PREFETCH REQUESTED:          0 ISSUED:          0 USEFUL:          0 USELESS:          0 LATE:          0
cpu0->cpu0_DTLB AVERAGE MISS LATENCY: 5.041 cycles
cpu0->LLC TOTAL        ACCESS:   10297729 HIT:    5952884 MISS:    4344845 MSHR_MERGE:          0
cpu0->LLC LOAD         ACCESS:     670016 HIT:     532541 MISS:     137475 MSHR_MERGE:          0
cpu0->LLC RFO          ACCESS:    2186504 HIT:       4732 MISS:    2181772 MSHR_MERGE:          0
cpu0->LLC PREFETCH     ACCESS:    3169647 HIT:    1628930 MISS:    1540717 MSHR_MERGE:          0
cpu0->LLC WRITE        ACCESS:    4271505 HIT:    3786677 MISS:     484828 MSHR_MERGE:          0
cpu0->LLC TRANSLATION  ACCESS:         57 HIT:          4 MISS:         53 MSHR_MERGE:          0
cpu0->LLC PREFETCH REQUESTED:          0 ISSUED:          0 USEFUL:          0 USELESS:          0 LATE:          0
cpu0->LLC AVERAGE MISS LATENCY: 615.8 cycles

DRAM Statistics

Channel 0 RQ ROW_BUFFER_HIT:     311175
  ROW_BUFFER_MISS:    3547999
  AVG DBUS CONGESTED CYCLE: 7.601
Channel 0 WQ ROW_BUFFER_HIT:     448551
  ROW_BUFFER_MISS:    3133383
  FULL:        342
Channel 0 REFRESHES ISSUED:      14941

[ROI Statistics]
[System Configuration]
num_cpus 1
cpu_freq 4000
fetch_width 6
decode_width 6
dispatch_width 6
execute_width 6
lq_width 2
sq_width 2
retire_width 6
scheduler_size 128
branch_mispredict_penalty 15
rob_size 352
lq_size 128
sq_size 72
ifetch_buffer_size 64
decode_buffer_size 32
dispatch_buffer_size 32
register_file_size 288
decode_latency 1
dispatch_latency 1
schedule_latency 1
execute_latency 1
page_size 4096
block_size 64
core_0_itlb_set 16
core_0_itlb_way 4
core_0_itlb_rq_size 16
core_0_itlb_wq_size 16
core_0_itlb_pq_size 0
core_0_itlb_mshr_size 8
core_0_itlb_hit_latency 1
core_0_itlb_fill_latency 1
core_0_itlb_max_tag_check 2
core_0_itlb_max_fill 2
core_0_dtlb_set 16
core_0_dtlb_way 4
core_0_dtlb_rq_size 16
core_0_dtlb_wq_size 16
core_0_dtlb_pq_size 0
core_0_dtlb_mshr_size 8
core_0_dtlb_hit_latency 1
core_0_dtlb_fill_latency 1
core_0_dtlb_max_tag_check 2
core_0_dtlb_max_fill 2
core_0_stlb_set 128
core_0_stlb_way 12
core_0_stlb_rq_size 32
core_0_stlb_wq_size 32
core_0_stlb_pq_size 0
core_0_stlb_mshr_size 16
core_0_stlb_hit_latency 4
core_0_stlb_fill_latency 4
core_0_stlb_max_tag_check 1
core_0_stlb_max_fill 1
core_0_l1i_set 64
core_0_l1i_way 8
core_0_l1i_rq_size 64
core_0_l1i_wq_size 64
core_0_l1i_pq_size 32
core_0_l1i_mshr_size 8
core_0_l1i_hit_latency 2
core_0_l1i_fill_latency 2
core_0_l1i_max_tag_check 2
core_0_l1i_max_fill 2
core_0_l1d_set 64
core_0_l1d_way 12
core_0_l1d_rq_size 64
core_0_l1d_wq_size 64
core_0_l1d_pq_size 8
core_0_l1d_mshr_size 16
core_0_l1d_hit_latency 2
core_0_l1d_fill_latency 3
core_0_l1d_max_tag_check 2
core_0_l1d_max_fill 2
core_0_l2c_set 1024
core_0_l2c_way 8
core_0_l2c_rq_size 32
core_0_l2c_wq_size 32
core_0_l2c_pq_size 16
core_0_l2c_mshr_size 32
core_0_l2c_hit_latency 5
core_0_l2c_fill_latency 5
core_0_l2c_max_tag_check 1
core_0_l2c_max_fill 1
llc_set 2048
llc_way 16
llc_rq_size 32
llc_wq_size 32
llc_pq_size 32
llc_mshr_size 64
llc_hit_latency 10
llc_fill_latency 10
llc_max_tag_check 1
llc_max_fill 1
dram_channels 1
dram_ranks 1
dram_bankgroups 8
dram_banks 4
dram_rows 65536
dram_columns 1024
dram_channel_width 8
dram_rq_size 64
dram_wq_size 64
dram_size 17179869184
core_0_itlb_prefetcher no
core_0_dtlb_prefetcher no
core_0_stlb_prefetcher no
core_0_l1i_prefetcher next_line
core_0_l1d_prefetcher berti
core_0_l2c_prefetcher pythia
llc_prefetcher no
llc_replacement drrip

Core_0_instructions 50000003
Core_0_cycles 179289071
Core_0_IPC 0.278879
Core_0_branch_prediction_accuracy 95.0839
Core_0_branch_MPKI 6.10938
Core_0_average_ROB_occupancy_at_mispredict 95.046

Core_0_ITLB_total_access 2887564
Core_0_ITLB_total_hit 2887564
Core_0_ITLB_total_miss 0
Core_0_ITLB_total_MPKI 0
Core_0_ITLB_total_miss_rate 0
Core_0_ITLB_demand_access 2887564
Core_0_ITLB_demand_hit 2887564
Core_0_ITLB_demand_miss 0
Core_0_ITLB_demand_MPKI 0
Core_0_ITLB_demand_miss_rate 0
Core_0_ITLB_load_access 2887564
Core_0_ITLB_load_hit 2887564
Core_0_ITLB_load_miss 0
Core_0_ITLB_load_MPKI 0
Core_0_ITLB_load_miss_rate 0
Core_0_ITLB_rfo_access 0
Core_0_ITLB_rfo_hit 0
Core_0_ITLB_rfo_miss 0
Core_0_ITLB_rfo_MPKI 0
Core_0_ITLB_rfo_miss_rate 0
Core_0_ITLB_prefetch_access 0
Core_0_ITLB_prefetch_hit 0
Core_0_ITLB_prefetch_miss 0
Core_0_ITLB_prefetch_MPKI 0
Core_0_ITLB_prefetch_miss_rate 0
Core_0_ITLB_writeback_access 0
Core_0_ITLB_writeback_hit 0
Core_0_ITLB_writeback_miss 0
Core_0_ITLB_writeback_MPKI 0
Core_0_ITLB_writeback_miss_rate 0
Core_0_ITLB_prefetch_requested 0
Core_0_ITLB_prefetch_issued 0
Core_0_ITLB_prefetch_useful 0
Core_0_ITLB_prefetch_useless 0
Core_0_ITLB_prefetch_late 0
Core_0_ITLB_prefetch_accuracy 0
Core_0_ITLB_prefetch_coverage 0

Core_0_DTLB_total_access 31299501
Core_0_DTLB_total_hit 29334542
Core_0_DTLB_total_miss 1964959
Core_0_DTLB_total_MPKI 39.2992
Core_0_DTLB_total_miss_rate 0.0627792
Core_0_DTLB_demand_access 31299501
Core_0_DTLB_demand_hit 29334542
Core_0_DTLB_demand_miss 1964959
Core_0_DTLB_demand_MPKI 39.2992
Core_0_DTLB_demand_miss_rate 0.0627792
Core_0_DTLB_load_access 31299501
Core_0_DTLB_load_hit 29334542
Core_0_DTLB_load_miss 1964959
Core_0_DTLB_load_MPKI 39.2992
Core_0_DTLB_load_miss_rate 0.0627792
Core_0_DTLB_rfo_access 0
Core_0_DTLB_rfo_hit 0
Core_0_DTLB_rfo_miss 0
Core_0_DTLB_rfo_MPKI 0
Core_0_DTLB_rfo_miss_rate 0
Core_0_DTLB_prefetch_access 0
Core_0_DTLB_prefetch_hit 0
Core_0_DTLB_prefetch_miss 0
Core_0_DTLB_prefetch_MPKI 0
Core_0_DTLB_prefetch_miss_rate 0
Core_0_DTLB_writeback_access 0
Core_0_DTLB_writeback_hit 0
Core_0_DTLB_writeback_miss 0
Core_0_DTLB_writeback_MPKI 0
Core_0_DTLB_writeback_miss_rate 0
Core_0_DTLB_prefetch_requested 0
Core_0_DTLB_prefetch_issued 0
Core_0_DTLB_prefetch_useful 0
Core_0_DTLB_prefetch_useless 0
Core_0_DTLB_prefetch_late 0
Core_0_DTLB_prefetch_accuracy 0
Core_0_DTLB_prefetch_coverage 0

Core_0_STLB_total_access 1467742
Core_0_STLB_total_hit 1467688
Core_0_STLB_total_miss 54
Core_0_STLB_total_MPKI 0.00108
Core_0_STLB_total_miss_rate 3.67912e-05
Core_0_STLB_demand_access 1467742
Core_0_STLB_demand_hit 1467688
Core_0_STLB_demand_miss 54
Core_0_STLB_demand_MPKI 0.00108
Core_0_STLB_demand_miss_rate 3.67912e-05
Core_0_STLB_load_access 1467742
Core_0_STLB_load_hit 1467688
Core_0_STLB_load_miss 54
Core_0_STLB_load_MPKI 0.00108
Core_0_STLB_load_miss_rate 3.67912e-05
Core_0_STLB_rfo_access 0
Core_0_STLB_rfo_hit 0
Core_0_STLB_rfo_miss 0
Core_0_STLB_rfo_MPKI 0
Core_0_STLB_rfo_miss_rate 0
Core_0_STLB_prefetch_access 0
Core_0_STLB_prefetch_hit 0
Core_0_STLB_prefetch_miss 0
Core_0_STLB_prefetch_MPKI 0
Core_0_STLB_prefetch_miss_rate 0
Core_0_STLB_writeback_access 0
Core_0_STLB_writeback_hit 0
Core_0_STLB_writeback_miss 0
Core_0_STLB_writeback_MPKI 0
Core_0_STLB_writeback_miss_rate 0
Core_0_STLB_prefetch_requested 0
Core_0_STLB_prefetch_issued 0
Core_0_STLB_prefetch_useful 0
Core_0_STLB_prefetch_useless 0
Core_0_STLB_prefetch_late 0
Core_0_STLB_prefetch_accuracy 0
Core_0_STLB_prefetch_coverage 0

Core_0_L1I_total_access 2903719
Core_0_L1I_total_hit 2903719
Core_0_L1I_total_miss 0
Core_0_L1I_total_MPKI 0
Core_0_L1I_total_miss_rate 0
Core_0_L1I_demand_access 2903719
Core_0_L1I_demand_hit 2903719
Core_0_L1I_demand_miss 0
Core_0_L1I_demand_MPKI 0
Core_0_L1I_demand_miss_rate 0
Core_0_L1I_load_access 2903719
Core_0_L1I_load_hit 2903719
Core_0_L1I_load_miss 0
Core_0_L1I_load_MPKI 0
Core_0_L1I_load_miss_rate 0
Core_0_L1I_rfo_access 0
Core_0_L1I_rfo_hit 0
Core_0_L1I_rfo_miss 0
Core_0_L1I_rfo_MPKI 0
Core_0_L1I_rfo_miss_rate 0
Core_0_L1I_prefetch_access 0
Core_0_L1I_prefetch_hit 0
Core_0_L1I_prefetch_miss 0
Core_0_L1I_prefetch_MPKI 0
Core_0_L1I_prefetch_miss_rate 0
Core_0_L1I_writeback_access 0
Core_0_L1I_writeback_hit 0
Core_0_L1I_writeback_miss 0
Core_0_L1I_writeback_MPKI 0
Core_0_L1I_writeback_miss_rate 0
Core_0_L1I_prefetch_requested 0
Core_0_L1I_prefetch_issued 0
Core_0_L1I_prefetch_useful 0
Core_0_L1I_prefetch_useless 0
Core_0_L1I_prefetch_late 0
Core_0_L1I_prefetch_accuracy 0
Core_0_L1I_prefetch_coverage 0

Core_0_L1D_total_access 33055045
Core_0_L1D_total_hit 19843902
Core_0_L1D_total_miss 13211143
Core_0_L1D_total_MPKI 264.223
Core_0_L1D_total_miss_rate 0.399671
Core_0_L1D_demand_access 13512768
Core_0_L1D_demand_hit 12148475
Core_0_L1D_demand_miss 1364293
Core_0_L1D_demand_MPKI 27.2859
Core_0_L1D_demand_miss_rate 0.100963
Core_0_L1D_load_access 13512768
Core_0_L1D_load_hit 12148475
Core_0_L1D_load_miss 1364293
Core_0_L1D_load_MPKI 27.2859
Core_0_L1D_load_miss_rate 0.100963
Core_0_L1D_rfo_access 0
Core_0_L1D_rfo_hit 0
Core_0_L1D_rfo_miss 0
Core_0_L1D_rfo_MPKI 0
Core_0_L1D_rfo_miss_rate 0
Core_0_L1D_prefetch_access 2050023
Core_0_L1D_prefetch_hit 39942
Core_0_L1D_prefetch_miss 2010081
Core_0_L1D_prefetch_MPKI 40.2016
Core_0_L1D_prefetch_miss_rate 0.980516
Core_0_L1D_writeback_access 17492254
Core_0_L1D_writeback_hit 7655485
Core_0_L1D_writeback_miss 9836769
Core_0_L1D_writeback_MPKI 196.735
Core_0_L1D_writeback_miss_rate 0.56235
Core_0_L1D_prefetch_requested 2052416
Core_0_L1D_prefetch_issued 2050015
Core_0_L1D_prefetch_useful 1264914
Core_0_L1D_prefetch_useless 714186
Core_0_L1D_prefetch_late 113253
Core_0_L1D_prefetch_accuracy 0.617027
Core_0_L1D_prefetch_coverage 0.481101

Core_0_L2C_total_access 15150177
Core_0_L2C_total_hit 8466321
Core_0_L2C_total_miss 6683856
Core_0_L2C_total_MPKI 133.677
Core_0_L2C_total_miss_rate 0.441173
Core_0_L2C_demand_access 3240944
Core_0_L2C_demand_hit 361231
Core_0_L2C_demand_miss 2879713
Core_0_L2C_demand_MPKI 57.5943
Core_0_L2C_demand_miss_rate 0.888541
Core_0_L2C_load_access 1054383
Core_0_L2C_load_hit 361174
Core_0_L2C_load_miss 693209
Core_0_L2C_load_MPKI 13.8642
Core_0_L2C_load_miss_rate 0.657455
Core_0_L2C_rfo_access 2186561
Core_0_L2C_rfo_hit 57
Core_0_L2C_rfo_miss 2186504
Core_0_L2C_rfo_MPKI 43.7301
Core_0_L2C_rfo_miss_rate 0.999974
Core_0_L2C_prefetch_access 7403280
Core_0_L2C_prefetch_hit 3601129
Core_0_L2C_prefetch_miss 3802151
Core_0_L2C_prefetch_MPKI 76.043
Core_0_L2C_prefetch_miss_rate 0.513577
Core_0_L2C_writeback_access 4505953
Core_0_L2C_writeback_hit 4503961
Core_0_L2C_writeback_miss 1992
Core_0_L2C_writeback_MPKI 0.03984
Core_0_L2C_writeback_miss_rate 0.000442082
Core_0_L2C_prefetch_requested 5458912
Core_0_L2C_prefetch_issued 5424076
Core_0_L2C_prefetch_useful 1216289
Core_0_L2C_prefetch_useless 1241060
Core_0_L2C_prefetch_late 23188
Core_0_L2C_prefetch_accuracy 0.224239
Core_0_L2C_prefetch_coverage 0.296945

Core_0_LLC_total_access 10297672
Core_0_LLC_total_hit 5952880
Core_0_LLC_total_miss 4344792
Core_0_LLC_total_MPKI 86.8958
Core_0_LLC_total_miss_rate 0.42192
Core_0_LLC_demand_access 2856520
Core_0_LLC_demand_hit 537273
Core_0_LLC_demand_miss 2319247
Core_0_LLC_demand_MPKI 46.3849
Core_0_LLC_demand_miss_rate 0.811913
Core_0_LLC_load_access 670016
Core_0_LLC_load_hit 532541
Core_0_LLC_load_miss 137475
Core_0_LLC_load_MPKI 2.7495
Core_0_LLC_load_miss_rate 0.205182
Core_0_LLC_rfo_access 2186504
Core_0_LLC_rfo_hit 4732
Core_0_LLC_rfo_miss 2181772
Core_0_LLC_rfo_MPKI 43.6354
Core_0_LLC_rfo_miss_rate 0.997836
Core_0_LLC_prefetch_access 3169647
Core_0_LLC_prefetch_hit 1628930
Core_0_LLC_prefetch_miss 1540717
Core_0_LLC_prefetch_MPKI 30.8143
Core_0_LLC_prefetch_miss_rate 0.486085
Core_0_LLC_writeback_access 4271505
Core_0_LLC_writeback_hit 3786677
Core_0_LLC_writeback_miss 484828
Core_0_LLC_writeback_MPKI 9.69656
Core_0_LLC_writeback_miss_rate 0.113503
Core_0_LLC_prefetch_requested 0
Core_0_LLC_prefetch_issued 0
Core_0_LLC_prefetch_useful 0
Core_0_LLC_prefetch_useless 0
Core_0_LLC_prefetch_late 0
Core_0_LLC_prefetch_accuracy 0
Core_0_LLC_prefetch_coverage 0

[DRAM Statistics]
Channel_0_RQ_row_buffer_hit 311175
Channel_0_RQ_row_buffer_miss 3547999
Channel_0_WQ_row_buffer_hit 448551
Channel_0_WQ_row_buffer_miss 3133383
Channel_0_WQ_full 342
Channel_0_dbus_congested 29988734
DRAM_total_RQ_row_buffer_hit 311175
DRAM_total_RQ_row_buffer_miss 3547999
DRAM_total_WQ_row_buffer_hit 448551
DRAM_total_WQ_row_buffer_miss 3133383
DRAM_total_WQ_full 342
DRAM_total_dbus_congested 29988734
DRAM_avg_congested_cycle 7.60144

======STLB miss causes ========
Core_0_STLB_miss_cause_breakdown
Core_0_STLB_cause_Demand_Data_miss 0
Core_0_STLB_cause_Demand_Data_miss_rate 0
Core_0_STLB_cause_Demand_Instruction_miss 0
Core_0_STLB_cause_Demand_Instruction_miss_rate 0
Core_0_STLB_cause_L1D_Prefetch_miss 54
Core_0_STLB_cause_L1D_Prefetch_miss_rate 3.67912e-05
Core_0_STLB_cause_L1I_Prefetch_miss 0
Core_0_STLB_cause_L1I_Prefetch_miss_rate 0
Core_0_STLB_cause_Other_miss 0
Core_0_STLB_cause_Other_miss_rate 0
Core_0_STLB_Demand_miss 0
Core_0_STLB_Demand_miss_rate 0
Core_0_STLB_L1D_Prefetch_miss 54
Core_0_STLB_L1D_Prefetch_miss_rate 3.67912e-05
Core_0_STLB_Other_miss 0
Core_0_STLB_Other_miss_rate 0
