[VMEM] WARNING: physical memory size is smaller than virtual memory size.

*** ChampSim Multicore Out-of-Order Simulator ***
Warmup Instructions: 20000000
Simulation Instructions: 50000000
Number of CPUs: 1
Page size: 4096
STLB ideal mode: demand
Core 0: /data0/tzh/champsim_traces/SPEC17/605.mcf_s-472B.champsimtrace.xz
 L1D Berti prefetcher
Off-chip DRAM Size: 16 GiB Channels: 1 Width: 64-bit Data Rate: 3205 MT/s
Warmup halting CPU 0 at instruction 20000002 cycle 7148738 for remainder of phase
Warmup finished CPU 0 instructions: 20000002 cycles: 7148738 cumulative IPC: 2.798 (Simulation time: 00 hr 01 min 26 sec)
Warmup complete CPU 0 instructions: 20000002 cycles: 7148738 cumulative IPC: 2.798 (Simulation time: 00 hr 01 min 26 sec)
Simulation finished CPU 0 instructions: 50000002 cycles: 73657143 cumulative IPC: 0.6788 (Simulation time: 00 hr 11 min 41 sec)
Simulation complete CPU 0 instructions: 50000002 cycles: 73657143 cumulative IPC: 0.6788 (Simulation time: 00 hr 11 min 41 sec)

ChampSim completed all CPUs

=== Simulation ===
CPU 0 runs /data0/tzh/champsim_traces/SPEC17/605.mcf_s-472B.champsimtrace.xz

Region of Interest Statistics

CPU 0 cumulative IPC: 0.6788 instructions: 50000002 cycles: 73657143
CPU 0 Branch Prediction Accuracy: 99.02% MPKI: 1.13 Average ROB Occupancy at Mispredict: 177.8
Branch type MPKI
BRANCH_DIRECT_JUMP: 0
BRANCH_INDIRECT: 0
BRANCH_CONDITIONAL: 1.13
BRANCH_DIRECT_CALL: 0
BRANCH_INDIRECT_CALL: 0
BRANCH_RETURN: 0

cpu0->cpu0_STLB TOTAL        ACCESS:     136050 HIT:     129207 MISS:       6843 MSHR_MERGE:          0
cpu0->cpu0_STLB LOAD         ACCESS:     136050 HIT:     129207 MISS:       6843 MSHR_MERGE:          0
cpu0->cpu0_STLB RFO          ACCESS:          0 HIT:          0 MISS:          0 MSHR_MERGE:          0
cpu0->cpu0_STLB PREFETCH     ACCESS:          0 HIT:          0 MISS:          0 MSHR_MERGE:          0
cpu0->cpu0_STLB WRITE        ACCESS:          0 HIT:          0 MISS:          0 MSHR_MERGE:          0
cpu0->cpu0_STLB TRANSLATION  ACCESS:          0 HIT:          0 MISS:          0 MSHR_MERGE:          0
cpu0->cpu0_STLB PREFETCH REQUESTED:          0 ISSUED:          0 USEFUL:          0 USELESS:          0 LATE:          0
cpu0->cpu0_STLB AVERAGE MISS LATENCY: 273.9 cycles
cpu0->cpu0_L2C TOTAL        ACCESS:   10427995 HIT:    4330338 MISS:    6097657 MSHR_MERGE:    2318786
cpu0->cpu0_L2C LOAD         ACCESS:     938141 HIT:     408566 MISS:     529575 MSHR_MERGE:     167596
cpu0->cpu0_L2C RFO          ACCESS:     122489 HIT:      12630 MISS:     109859 MSHR_MERGE:        985
cpu0->cpu0_L2C PREFETCH     ACCESS:    9080376 HIT:    3627581 MISS:    5452795 MSHR_MERGE:    2150205
cpu0->cpu0_L2C WRITE        ACCESS:     282040 HIT:     280593 MISS:       1447 MSHR_MERGE:          0
cpu0->cpu0_L2C TRANSLATION  ACCESS:       4949 HIT:        968 MISS:       3981 MSHR_MERGE:          0
cpu0->cpu0_L2C PREFETCH REQUESTED:   10261265 ISSUED:    7261976 USEFUL:    1368429 USELESS:    1323116 LATE:     168581
cpu0->cpu0_L2C AVERAGE MISS LATENCY: 247.2 cycles
cpu0->cpu0_L1I TOTAL        ACCESS:    8294203 HIT:    8294203 MISS:          0 MSHR_MERGE:          0
cpu0->cpu0_L1I LOAD         ACCESS:    8294203 HIT:    8294203 MISS:          0 MSHR_MERGE:          0
cpu0->cpu0_L1I RFO          ACCESS:          0 HIT:          0 MISS:          0 MSHR_MERGE:          0
cpu0->cpu0_L1I PREFETCH     ACCESS:          0 HIT:          0 MISS:          0 MSHR_MERGE:          0
cpu0->cpu0_L1I WRITE        ACCESS:          0 HIT:          0 MISS:          0 MSHR_MERGE:          0
cpu0->cpu0_L1I TRANSLATION  ACCESS:          0 HIT:          0 MISS:          0 MSHR_MERGE:          0
cpu0->cpu0_L1I PREFETCH REQUESTED:          0 ISSUED:          0 USEFUL:          0 USELESS:          0 LATE:          0
cpu0->cpu0_L1I AVERAGE MISS LATENCY: - cycles
cpu0->cpu0_L1D TOTAL        ACCESS:   27245446 HIT:   23336763 MISS:    3908683 MSHR_MERGE:    1024691
cpu0->cpu0_L1D LOAD         ACCESS:   13000042 HIT:   11555591 MISS:    1444451 MSHR_MERGE:     506310
cpu0->cpu0_L1D RFO          ACCESS:          0 HIT:          0 MISS:          0 MSHR_MERGE:          0
cpu0->cpu0_L1D PREFETCH     ACCESS:    2117302 HIT:     209970 MISS:    1907332 MSHR_MERGE:      88932
cpu0->cpu0_L1D WRITE        ACCESS:   12114390 HIT:   11562439 MISS:     551951 MSHR_MERGE:     429449
cpu0->cpu0_L1D TRANSLATION  ACCESS:      13712 HIT:       8763 MISS:       4949 MSHR_MERGE:          0
cpu0->cpu0_L1D PREFETCH REQUESTED:    2128681 ISSUED:    2117294 USEFUL:    1490585 USELESS:     327705 LATE:     387420
cpu0->cpu0_L1D AVERAGE MISS LATENCY: 173.1 cycles
cpu0->cpu0_ITLB TOTAL        ACCESS:    7117741 HIT:    7117741 MISS:          0 MSHR_MERGE:          0
cpu0->cpu0_ITLB LOAD         ACCESS:    7117741 HIT:    7117741 MISS:          0 MSHR_MERGE:          0
cpu0->cpu0_ITLB RFO          ACCESS:          0 HIT:          0 MISS:          0 MSHR_MERGE:          0
cpu0->cpu0_ITLB PREFETCH     ACCESS:          0 HIT:          0 MISS:          0 MSHR_MERGE:          0
cpu0->cpu0_ITLB WRITE        ACCESS:          0 HIT:          0 MISS:          0 MSHR_MERGE:          0
cpu0->cpu0_ITLB TRANSLATION  ACCESS:          0 HIT:          0 MISS:          0 MSHR_MERGE:          0
cpu0->cpu0_ITLB PREFETCH REQUESTED:          0 ISSUED:          0 USEFUL:          0 USELESS:          0 LATE:          0
cpu0->cpu0_ITLB AVERAGE MISS LATENCY: - cycles
cpu0->cpu0_DTLB TOTAL        ACCESS:   25168713 HIT:   24990982 MISS:     177731 MSHR_MERGE:      41681
cpu0->cpu0_DTLB LOAD         ACCESS:   25168713 HIT:   24990982 MISS:     177731 MSHR_MERGE:      41681
cpu0->cpu0_DTLB RFO          ACCESS:          0 HIT:          0 MISS:          0 MSHR_MERGE:          0
cpu0->cpu0_DTLB PREFETCH     ACCESS:          0 HIT:          0 MISS:          0 MSHR_MERGE:          0
cpu0->cpu0_DTLB WRITE        ACCESS:          0 HIT:          0 MISS:          0 MSHR_MERGE:          0
cpu0->cpu0_DTLB TRANSLATION  ACCESS:          0 HIT:          0 MISS:          0 MSHR_MERGE:          0
cpu0->cpu0_DTLB PREFETCH REQUESTED:          0 ISSUED:          0 USEFUL:          0 USELESS:          0 LATE:          0
cpu0->cpu0_DTLB AVERAGE MISS LATENCY: 18.82 cycles
cpu0->LLC TOTAL        ACCESS:    4023018 HIT:     735068 MISS:    3287950 MSHR_MERGE:          0
cpu0->LLC LOAD         ACCESS:     361979 HIT:      85977 MISS:     276002 MSHR_MERGE:          0
cpu0->LLC RFO          ACCESS:     108874 HIT:        135 MISS:     108739 MSHR_MERGE:          0
cpu0->LLC PREFETCH     ACCESS:    3302590 HIT:     606835 MISS:    2695755 MSHR_MERGE:          0
cpu0->LLC WRITE        ACCESS:     245594 HIT:      42064 MISS:     203530 MSHR_MERGE:          0
cpu0->LLC TRANSLATION  ACCESS:       3981 HIT:         57 MISS:       3924 MSHR_MERGE:          0
cpu0->LLC PREFETCH REQUESTED:          0 ISSUED:          0 USEFUL:          0 USELESS:          0 LATE:          0
cpu0->LLC AVERAGE MISS LATENCY: 204.3 cycles

DRAM Statistics

Channel 0 RQ ROW_BUFFER_HIT:     394177
  ROW_BUFFER_MISS:    2690224
  AVG DBUS CONGESTED CYCLE: 4.173
Channel 0 WQ ROW_BUFFER_HIT:      29979
  ROW_BUFFER_MISS:     211811
  FULL:          0
Channel 0 REFRESHES ISSUED:       6138

[ROI Statistics]
[System Configuration]
num_cpus 1
cpu_freq 4000
fetch_width 6
decode_width 6
dispatch_width 6
execute_width 6
lq_width 2
sq_width 2
retire_width 6
scheduler_size 128
branch_mispredict_penalty 15
rob_size 352
lq_size 128
sq_size 72
ifetch_buffer_size 64
decode_buffer_size 32
dispatch_buffer_size 32
register_file_size 288
decode_latency 1
dispatch_latency 1
schedule_latency 1
execute_latency 1
page_size 4096
block_size 64
core_0_itlb_set 16
core_0_itlb_way 4
core_0_itlb_rq_size 16
core_0_itlb_wq_size 16
core_0_itlb_pq_size 0
core_0_itlb_mshr_size 8
core_0_itlb_hit_latency 1
core_0_itlb_fill_latency 1
core_0_itlb_max_tag_check 2
core_0_itlb_max_fill 2
core_0_dtlb_set 16
core_0_dtlb_way 4
core_0_dtlb_rq_size 16
core_0_dtlb_wq_size 16
core_0_dtlb_pq_size 0
core_0_dtlb_mshr_size 8
core_0_dtlb_hit_latency 1
core_0_dtlb_fill_latency 1
core_0_dtlb_max_tag_check 2
core_0_dtlb_max_fill 2
core_0_stlb_set 128
core_0_stlb_way 12
core_0_stlb_rq_size 32
core_0_stlb_wq_size 32
core_0_stlb_pq_size 0
core_0_stlb_mshr_size 16
core_0_stlb_hit_latency 4
core_0_stlb_fill_latency 4
core_0_stlb_max_tag_check 1
core_0_stlb_max_fill 1
core_0_l1i_set 64
core_0_l1i_way 8
core_0_l1i_rq_size 64
core_0_l1i_wq_size 64
core_0_l1i_pq_size 32
core_0_l1i_mshr_size 8
core_0_l1i_hit_latency 2
core_0_l1i_fill_latency 2
core_0_l1i_max_tag_check 2
core_0_l1i_max_fill 2
core_0_l1d_set 64
core_0_l1d_way 12
core_0_l1d_rq_size 64
core_0_l1d_wq_size 64
core_0_l1d_pq_size 8
core_0_l1d_mshr_size 16
core_0_l1d_hit_latency 2
core_0_l1d_fill_latency 3
core_0_l1d_max_tag_check 2
core_0_l1d_max_fill 2
core_0_l2c_set 1024
core_0_l2c_way 8
core_0_l2c_rq_size 32
core_0_l2c_wq_size 32
core_0_l2c_pq_size 16
core_0_l2c_mshr_size 32
core_0_l2c_hit_latency 5
core_0_l2c_fill_latency 5
core_0_l2c_max_tag_check 1
core_0_l2c_max_fill 1
llc_set 2048
llc_way 16
llc_rq_size 32
llc_wq_size 32
llc_pq_size 32
llc_mshr_size 64
llc_hit_latency 10
llc_fill_latency 10
llc_max_tag_check 1
llc_max_fill 1
dram_channels 1
dram_ranks 1
dram_bankgroups 8
dram_banks 4
dram_rows 65536
dram_columns 1024
dram_channel_width 8
dram_rq_size 64
dram_wq_size 64
dram_size 17179869184
core_0_itlb_prefetcher no
core_0_dtlb_prefetcher no
core_0_stlb_prefetcher no
core_0_l1i_prefetcher next_line
core_0_l1d_prefetcher berti
core_0_l2c_prefetcher pythia
llc_prefetcher no
llc_replacement drrip

Core_0_instructions 50000002
Core_0_cycles 73657143
Core_0_IPC 0.678821
Core_0_branch_prediction_accuracy 99.0173
Core_0_branch_MPKI 1.12992
Core_0_average_ROB_occupancy_at_mispredict 177.846

Core_0_ITLB_total_access 7117741
Core_0_ITLB_total_hit 7117741
Core_0_ITLB_total_miss 0
Core_0_ITLB_total_MPKI 0
Core_0_ITLB_total_miss_rate 0
Core_0_ITLB_demand_access 7117741
Core_0_ITLB_demand_hit 7117741
Core_0_ITLB_demand_miss 0
Core_0_ITLB_demand_MPKI 0
Core_0_ITLB_demand_miss_rate 0
Core_0_ITLB_load_access 7117741
Core_0_ITLB_load_hit 7117741
Core_0_ITLB_load_miss 0
Core_0_ITLB_load_MPKI 0
Core_0_ITLB_load_miss_rate 0
Core_0_ITLB_rfo_access 0
Core_0_ITLB_rfo_hit 0
Core_0_ITLB_rfo_miss 0
Core_0_ITLB_rfo_MPKI 0
Core_0_ITLB_rfo_miss_rate 0
Core_0_ITLB_prefetch_access 0
Core_0_ITLB_prefetch_hit 0
Core_0_ITLB_prefetch_miss 0
Core_0_ITLB_prefetch_MPKI 0
Core_0_ITLB_prefetch_miss_rate 0
Core_0_ITLB_writeback_access 0
Core_0_ITLB_writeback_hit 0
Core_0_ITLB_writeback_miss 0
Core_0_ITLB_writeback_MPKI 0
Core_0_ITLB_writeback_miss_rate 0
Core_0_ITLB_prefetch_requested 0
Core_0_ITLB_prefetch_issued 0
Core_0_ITLB_prefetch_useful 0
Core_0_ITLB_prefetch_useless 0
Core_0_ITLB_prefetch_late 0
Core_0_ITLB_prefetch_accuracy 0
Core_0_ITLB_prefetch_coverage 0

Core_0_DTLB_total_access 25168713
Core_0_DTLB_total_hit 24990982
Core_0_DTLB_total_miss 177731
Core_0_DTLB_total_MPKI 3.55462
Core_0_DTLB_total_miss_rate 0.00706158
Core_0_DTLB_demand_access 25168713
Core_0_DTLB_demand_hit 24990982
Core_0_DTLB_demand_miss 177731
Core_0_DTLB_demand_MPKI 3.55462
Core_0_DTLB_demand_miss_rate 0.00706158
Core_0_DTLB_load_access 25168713
Core_0_DTLB_load_hit 24990982
Core_0_DTLB_load_miss 177731
Core_0_DTLB_load_MPKI 3.55462
Core_0_DTLB_load_miss_rate 0.00706158
Core_0_DTLB_rfo_access 0
Core_0_DTLB_rfo_hit 0
Core_0_DTLB_rfo_miss 0
Core_0_DTLB_rfo_MPKI 0
Core_0_DTLB_rfo_miss_rate 0
Core_0_DTLB_prefetch_access 0
Core_0_DTLB_prefetch_hit 0
Core_0_DTLB_prefetch_miss 0
Core_0_DTLB_prefetch_MPKI 0
Core_0_DTLB_prefetch_miss_rate 0
Core_0_DTLB_writeback_access 0
Core_0_DTLB_writeback_hit 0
Core_0_DTLB_writeback_miss 0
Core_0_DTLB_writeback_MPKI 0
Core_0_DTLB_writeback_miss_rate 0
Core_0_DTLB_prefetch_requested 0
Core_0_DTLB_prefetch_issued 0
Core_0_DTLB_prefetch_useful 0
Core_0_DTLB_prefetch_useless 0
Core_0_DTLB_prefetch_late 0
Core_0_DTLB_prefetch_accuracy 0
Core_0_DTLB_prefetch_coverage 0

Core_0_STLB_total_access 136050
Core_0_STLB_total_hit 129207
Core_0_STLB_total_miss 6843
Core_0_STLB_total_MPKI 0.13686
Core_0_STLB_total_miss_rate 0.0502977
Core_0_STLB_demand_access 136050
Core_0_STLB_demand_hit 129207
Core_0_STLB_demand_miss 6843
Core_0_STLB_demand_MPKI 0.13686
Core_0_STLB_demand_miss_rate 0.0502977
Core_0_STLB_load_access 136050
Core_0_STLB_load_hit 129207
Core_0_STLB_load_miss 6843
Core_0_STLB_load_MPKI 0.13686
Core_0_STLB_load_miss_rate 0.0502977
Core_0_STLB_rfo_access 0
Core_0_STLB_rfo_hit 0
Core_0_STLB_rfo_miss 0
Core_0_STLB_rfo_MPKI 0
Core_0_STLB_rfo_miss_rate 0
Core_0_STLB_prefetch_access 0
Core_0_STLB_prefetch_hit 0
Core_0_STLB_prefetch_miss 0
Core_0_STLB_prefetch_MPKI 0
Core_0_STLB_prefetch_miss_rate 0
Core_0_STLB_writeback_access 0
Core_0_STLB_writeback_hit 0
Core_0_STLB_writeback_miss 0
Core_0_STLB_writeback_MPKI 0
Core_0_STLB_writeback_miss_rate 0
Core_0_STLB_prefetch_requested 0
Core_0_STLB_prefetch_issued 0
Core_0_STLB_prefetch_useful 0
Core_0_STLB_prefetch_useless 0
Core_0_STLB_prefetch_late 0
Core_0_STLB_prefetch_accuracy 0
Core_0_STLB_prefetch_coverage 0

Core_0_L1I_total_access 8294203
Core_0_L1I_total_hit 8294203
Core_0_L1I_total_miss 0
Core_0_L1I_total_MPKI 0
Core_0_L1I_total_miss_rate 0
Core_0_L1I_demand_access 8294203
Core_0_L1I_demand_hit 8294203
Core_0_L1I_demand_miss 0
Core_0_L1I_demand_MPKI 0
Core_0_L1I_demand_miss_rate 0
Core_0_L1I_load_access 8294203
Core_0_L1I_load_hit 8294203
Core_0_L1I_load_miss 0
Core_0_L1I_load_MPKI 0
Core_0_L1I_load_miss_rate 0
Core_0_L1I_rfo_access 0
Core_0_L1I_rfo_hit 0
Core_0_L1I_rfo_miss 0
Core_0_L1I_rfo_MPKI 0
Core_0_L1I_rfo_miss_rate 0
Core_0_L1I_prefetch_access 0
Core_0_L1I_prefetch_hit 0
Core_0_L1I_prefetch_miss 0
Core_0_L1I_prefetch_MPKI 0
Core_0_L1I_prefetch_miss_rate 0
Core_0_L1I_writeback_access 0
Core_0_L1I_writeback_hit 0
Core_0_L1I_writeback_miss 0
Core_0_L1I_writeback_MPKI 0
Core_0_L1I_writeback_miss_rate 0
Core_0_L1I_prefetch_requested 0
Core_0_L1I_prefetch_issued 0
Core_0_L1I_prefetch_useful 0
Core_0_L1I_prefetch_useless 0
Core_0_L1I_prefetch_late 0
Core_0_L1I_prefetch_accuracy 0
Core_0_L1I_prefetch_coverage 0

Core_0_L1D_total_access 27231734
Core_0_L1D_total_hit 23328000
Core_0_L1D_total_miss 3903734
Core_0_L1D_total_MPKI 78.0747
Core_0_L1D_total_miss_rate 0.143352
Core_0_L1D_demand_access 13000042
Core_0_L1D_demand_hit 11555591
Core_0_L1D_demand_miss 1444451
Core_0_L1D_demand_MPKI 28.889
Core_0_L1D_demand_miss_rate 0.111111
Core_0_L1D_load_access 13000042
Core_0_L1D_load_hit 11555591
Core_0_L1D_load_miss 1444451
Core_0_L1D_load_MPKI 28.889
Core_0_L1D_load_miss_rate 0.111111
Core_0_L1D_rfo_access 0
Core_0_L1D_rfo_hit 0
Core_0_L1D_rfo_miss 0
Core_0_L1D_rfo_MPKI 0
Core_0_L1D_rfo_miss_rate 0
Core_0_L1D_prefetch_access 2117302
Core_0_L1D_prefetch_hit 209970
Core_0_L1D_prefetch_miss 1907332
Core_0_L1D_prefetch_MPKI 38.1466
Core_0_L1D_prefetch_miss_rate 0.900831
Core_0_L1D_writeback_access 12114390
Core_0_L1D_writeback_hit 11562439
Core_0_L1D_writeback_miss 551951
Core_0_L1D_writeback_MPKI 11.039
Core_0_L1D_writeback_miss_rate 0.0455616
Core_0_L1D_prefetch_requested 2128681
Core_0_L1D_prefetch_issued 2117294
Core_0_L1D_prefetch_useful 1490585
Core_0_L1D_prefetch_useless 327705
Core_0_L1D_prefetch_late 387420
Core_0_L1D_prefetch_accuracy 0.704005
Core_0_L1D_prefetch_coverage 0.507859

Core_0_L2C_total_access 10423046
Core_0_L2C_total_hit 4329370
Core_0_L2C_total_miss 6093676
Core_0_L2C_total_MPKI 121.874
Core_0_L2C_total_miss_rate 0.584635
Core_0_L2C_demand_access 1060630
Core_0_L2C_demand_hit 421196
Core_0_L2C_demand_miss 639434
Core_0_L2C_demand_MPKI 12.7887
Core_0_L2C_demand_miss_rate 0.602881
Core_0_L2C_load_access 938141
Core_0_L2C_load_hit 408566
Core_0_L2C_load_miss 529575
Core_0_L2C_load_MPKI 10.5915
Core_0_L2C_load_miss_rate 0.564494
Core_0_L2C_rfo_access 122489
Core_0_L2C_rfo_hit 12630
Core_0_L2C_rfo_miss 109859
Core_0_L2C_rfo_MPKI 2.19718
Core_0_L2C_rfo_miss_rate 0.896889
Core_0_L2C_prefetch_access 9080376
Core_0_L2C_prefetch_hit 3627581
Core_0_L2C_prefetch_miss 5452795
Core_0_L2C_prefetch_MPKI 109.056
Core_0_L2C_prefetch_miss_rate 0.600503
Core_0_L2C_writeback_access 282040
Core_0_L2C_writeback_hit 280593
Core_0_L2C_writeback_miss 1447
Core_0_L2C_writeback_MPKI 0.02894
Core_0_L2C_writeback_miss_rate 0.00513048
Core_0_L2C_prefetch_requested 10261265
Core_0_L2C_prefetch_issued 7261976
Core_0_L2C_prefetch_useful 1368429
Core_0_L2C_prefetch_useless 1323116
Core_0_L2C_prefetch_late 168581
Core_0_L2C_prefetch_accuracy 0.188438
Core_0_L2C_prefetch_coverage 0.681535

Core_0_LLC_total_access 4019037
Core_0_LLC_total_hit 735011
Core_0_LLC_total_miss 3284026
Core_0_LLC_total_MPKI 65.6805
Core_0_LLC_total_miss_rate 0.817118
Core_0_LLC_demand_access 470853
Core_0_LLC_demand_hit 86112
Core_0_LLC_demand_miss 384741
Core_0_LLC_demand_MPKI 7.69482
Core_0_LLC_demand_miss_rate 0.817115
Core_0_LLC_load_access 361979
Core_0_LLC_load_hit 85977
Core_0_LLC_load_miss 276002
Core_0_LLC_load_MPKI 5.52004
Core_0_LLC_load_miss_rate 0.762481
Core_0_LLC_rfo_access 108874
Core_0_LLC_rfo_hit 135
Core_0_LLC_rfo_miss 108739
Core_0_LLC_rfo_MPKI 2.17478
Core_0_LLC_rfo_miss_rate 0.99876
Core_0_LLC_prefetch_access 3302590
Core_0_LLC_prefetch_hit 606835
Core_0_LLC_prefetch_miss 2695755
Core_0_LLC_prefetch_MPKI 53.9151
Core_0_LLC_prefetch_miss_rate 0.816255
Core_0_LLC_writeback_access 245594
Core_0_LLC_writeback_hit 42064
Core_0_LLC_writeback_miss 203530
Core_0_LLC_writeback_MPKI 4.0706
Core_0_LLC_writeback_miss_rate 0.828725
Core_0_LLC_prefetch_requested 0
Core_0_LLC_prefetch_issued 0
Core_0_LLC_prefetch_useful 0
Core_0_LLC_prefetch_useless 0
Core_0_LLC_prefetch_late 0
Core_0_LLC_prefetch_accuracy 0
Core_0_LLC_prefetch_coverage 0

[DRAM Statistics]
Channel_0_RQ_row_buffer_hit 394177
Channel_0_RQ_row_buffer_miss 2690224
Channel_0_WQ_row_buffer_hit 29979
Channel_0_WQ_row_buffer_miss 211811
Channel_0_WQ_full 0
Channel_0_dbus_congested 9071394
DRAM_total_RQ_row_buffer_hit 394177
DRAM_total_RQ_row_buffer_miss 2690224
DRAM_total_WQ_row_buffer_hit 29979
DRAM_total_WQ_row_buffer_miss 211811
DRAM_total_WQ_full 0
DRAM_total_dbus_congested 9071394
DRAM_avg_congested_cycle 4.17253

======STLB miss causes ========
Core_0_STLB_miss_cause_breakdown
Core_0_STLB_cause_Demand_Data_miss 0
Core_0_STLB_cause_Demand_Data_miss_rate 0
Core_0_STLB_cause_Demand_Instruction_miss 0
Core_0_STLB_cause_Demand_Instruction_miss_rate 0
Core_0_STLB_cause_L1D_Prefetch_miss 6843
Core_0_STLB_cause_L1D_Prefetch_miss_rate 0.0502977
Core_0_STLB_cause_L1I_Prefetch_miss 0
Core_0_STLB_cause_L1I_Prefetch_miss_rate 0
Core_0_STLB_cause_Other_miss 0
Core_0_STLB_cause_Other_miss_rate 0
Core_0_STLB_Demand_miss 0
Core_0_STLB_Demand_miss_rate 0
Core_0_STLB_L1D_Prefetch_miss 6843
Core_0_STLB_L1D_Prefetch_miss_rate 0.0502977
Core_0_STLB_Other_miss 0
Core_0_STLB_Other_miss_rate 0
