[VMEM] WARNING: physical memory size is smaller than virtual memory size.

*** ChampSim Multicore Out-of-Order Simulator ***
Warmup Instructions: 20000000
Simulation Instructions: 50000000
Number of CPUs: 1
Page size: 4096
STLB ideal mode: demand
Core 0: /data0/tzh/champsim_traces/SPEC17/620.omnetpp_s-141B.champsimtrace.xz
 L1D Berti prefetcher
Off-chip DRAM Size: 16 GiB Channels: 1 Width: 64-bit Data Rate: 3205 MT/s
Warmup halting CPU 0 at instruction 20000001 cycle 5005916 for remainder of phase
Warmup finished CPU 0 instructions: 20000001 cycles: 5005916 cumulative IPC: 3.995 (Simulation time: 00 hr 01 min 33 sec)
Warmup complete CPU 0 instructions: 20000001 cycles: 5005916 cumulative IPC: 3.995 (Simulation time: 00 hr 01 min 33 sec)
Simulation finished CPU 0 instructions: 50000000 cycles: 93262338 cumulative IPC: 0.5361 (Simulation time: 00 hr 11 min 37 sec)
Simulation complete CPU 0 instructions: 50000000 cycles: 93262338 cumulative IPC: 0.5361 (Simulation time: 00 hr 11 min 37 sec)

ChampSim completed all CPUs

=== Simulation ===
CPU 0 runs /data0/tzh/champsim_traces/SPEC17/620.omnetpp_s-141B.champsimtrace.xz

Region of Interest Statistics

CPU 0 cumulative IPC: 0.5361 instructions: 50000000 cycles: 93262338
CPU 0 Branch Prediction Accuracy: 95.7% MPKI: 9.03 Average ROB Occupancy at Mispredict: 75.3
Branch type MPKI
BRANCH_DIRECT_JUMP: 0.8235
BRANCH_INDIRECT: 0.3613
BRANCH_CONDITIONAL: 6.535
BRANCH_DIRECT_CALL: 0.00136
BRANCH_INDIRECT_CALL: 0.8598
BRANCH_RETURN: 0.4496

cpu0->cpu0_STLB TOTAL        ACCESS:    1151833 HIT:    1142715 MISS:       9118 MSHR_MERGE:          0
cpu0->cpu0_STLB LOAD         ACCESS:    1151833 HIT:    1142715 MISS:       9118 MSHR_MERGE:          0
cpu0->cpu0_STLB RFO          ACCESS:          0 HIT:          0 MISS:          0 MSHR_MERGE:          0
cpu0->cpu0_STLB PREFETCH     ACCESS:          0 HIT:          0 MISS:          0 MSHR_MERGE:          0
cpu0->cpu0_STLB WRITE        ACCESS:          0 HIT:          0 MISS:          0 MSHR_MERGE:          0
cpu0->cpu0_STLB TRANSLATION  ACCESS:          0 HIT:          0 MISS:          0 MSHR_MERGE:          0
cpu0->cpu0_STLB PREFETCH REQUESTED:          0 ISSUED:          0 USEFUL:          0 USELESS:          0 LATE:          0
cpu0->cpu0_STLB AVERAGE MISS LATENCY: 234.2 cycles
cpu0->cpu0_L2C TOTAL        ACCESS:    3151522 HIT:    1390421 MISS:    1761101 MSHR_MERGE:     292713
cpu0->cpu0_L2C LOAD         ACCESS:     761778 HIT:     302098 MISS:     459680 MSHR_MERGE:      15836
cpu0->cpu0_L2C RFO          ACCESS:     113486 HIT:      46150 MISS:      67336 MSHR_MERGE:       2595
cpu0->cpu0_L2C PREFETCH     ACCESS:    1800167 HIT:     575708 MISS:    1224459 MSHR_MERGE:     274282
cpu0->cpu0_L2C WRITE        ACCESS:     465533 HIT:     464426 MISS:       1107 MSHR_MERGE:          0
cpu0->cpu0_L2C TRANSLATION  ACCESS:      10558 HIT:       2039 MISS:       8519 MSHR_MERGE:          0
cpu0->cpu0_L2C PREFETCH REQUESTED:    1439067 ISSUED:    1433723 USEFUL:     221446 USELESS:     507981 LATE:      18431
cpu0->cpu0_L2C AVERAGE MISS LATENCY: 164.3 cycles
cpu0->cpu0_L1I TOTAL        ACCESS:    7268915 HIT:    7231661 MISS:      37254 MSHR_MERGE:       9197
cpu0->cpu0_L1I LOAD         ACCESS:    7268915 HIT:    7231661 MISS:      37254 MSHR_MERGE:       9197
cpu0->cpu0_L1I RFO          ACCESS:          0 HIT:          0 MISS:          0 MSHR_MERGE:          0
cpu0->cpu0_L1I PREFETCH     ACCESS:          0 HIT:          0 MISS:          0 MSHR_MERGE:          0
cpu0->cpu0_L1I WRITE        ACCESS:          0 HIT:          0 MISS:          0 MSHR_MERGE:          0
cpu0->cpu0_L1I TRANSLATION  ACCESS:          0 HIT:          0 MISS:          0 MSHR_MERGE:          0
cpu0->cpu0_L1I PREFETCH REQUESTED:          0 ISSUED:          0 USEFUL:          0 USELESS:          0 LATE:          0
cpu0->cpu0_L1I AVERAGE MISS LATENCY: 21.47 cycles
cpu0->cpu0_L1D TOTAL        ACCESS:   19533759 HIT:   17884966 MISS:    1648793 MSHR_MERGE:     424574
cpu0->cpu0_L1D LOAD         ACCESS:    9665015 HIT:    8719437 MISS:     945578 MSHR_MERGE:     211855
cpu0->cpu0_L1D RFO          ACCESS:          0 HIT:          0 MISS:          0 MSHR_MERGE:          0
cpu0->cpu0_L1D PREFETCH     ACCESS:    1002387 HIT:     621294 MISS:     381093 MSHR_MERGE:      14647
cpu0->cpu0_L1D WRITE        ACCESS:    8845042 HIT:    8533481 MISS:     311561 MSHR_MERGE:     198069
cpu0->cpu0_L1D TRANSLATION  ACCESS:      21315 HIT:      10754 MISS:      10561 MSHR_MERGE:          3
cpu0->cpu0_L1D PREFETCH REQUESTED:    1009209 ISSUED:    1002379 USEFUL:     110459 USELESS:     255885 LATE:      15447
cpu0->cpu0_L1D AVERAGE MISS LATENCY: 111.2 cycles
cpu0->cpu0_ITLB TOTAL        ACCESS:    6441731 HIT:    6286530 MISS:     155201 MSHR_MERGE:      76416
cpu0->cpu0_ITLB LOAD         ACCESS:    6441731 HIT:    6286530 MISS:     155201 MSHR_MERGE:      76416
cpu0->cpu0_ITLB RFO          ACCESS:          0 HIT:          0 MISS:          0 MSHR_MERGE:          0
cpu0->cpu0_ITLB PREFETCH     ACCESS:          0 HIT:          0 MISS:          0 MSHR_MERGE:          0
cpu0->cpu0_ITLB WRITE        ACCESS:          0 HIT:          0 MISS:          0 MSHR_MERGE:          0
cpu0->cpu0_ITLB TRANSLATION  ACCESS:          0 HIT:          0 MISS:          0 MSHR_MERGE:          0
cpu0->cpu0_ITLB PREFETCH REQUESTED:          0 ISSUED:          0 USEFUL:          0 USELESS:          0 LATE:          0
cpu0->cpu0_ITLB AVERAGE MISS LATENCY: 5.01 cycles
cpu0->cpu0_DTLB TOTAL        ACCESS:   18277221 HIT:   16993606 MISS:    1283615 MSHR_MERGE:     210567
cpu0->cpu0_DTLB LOAD         ACCESS:   18277221 HIT:   16993606 MISS:    1283615 MSHR_MERGE:     210567
cpu0->cpu0_DTLB RFO          ACCESS:          0 HIT:          0 MISS:          0 MSHR_MERGE:          0
cpu0->cpu0_DTLB PREFETCH     ACCESS:          0 HIT:          0 MISS:          0 MSHR_MERGE:          0
cpu0->cpu0_DTLB WRITE        ACCESS:          0 HIT:          0 MISS:          0 MSHR_MERGE:          0
cpu0->cpu0_DTLB TRANSLATION  ACCESS:          0 HIT:          0 MISS:          0 MSHR_MERGE:          0
cpu0->cpu0_DTLB PREFETCH REQUESTED:          0 ISSUED:          0 USEFUL:          0 USELESS:          0 LATE:          0
cpu0->cpu0_DTLB AVERAGE MISS LATENCY: 7.002 cycles
cpu0->LLC TOTAL        ACCESS:    1834705 HIT:     659459 MISS:    1175246 MSHR_MERGE:          0
cpu0->LLC LOAD         ACCESS:     443844 HIT:     124696 MISS:     319148 MSHR_MERGE:          0
cpu0->LLC RFO          ACCESS:      64741 HIT:      18130 MISS:      46611 MSHR_MERGE:          0
cpu0->LLC PREFETCH     ACCESS:     950177 HIT:     176610 MISS:     773567 MSHR_MERGE:          0
cpu0->LLC WRITE        ACCESS:     367424 HIT:     338526 MISS:      28898 MSHR_MERGE:          0
cpu0->LLC TRANSLATION  ACCESS:       8519 HIT:       1497 MISS:       7022 MSHR_MERGE:          0
cpu0->LLC PREFETCH REQUESTED:          0 ISSUED:          0 USEFUL:          0 USELESS:          0 LATE:          0
cpu0->LLC AVERAGE MISS LATENCY: 194.2 cycles

DRAM Statistics

Channel 0 RQ ROW_BUFFER_HIT:      22097
  ROW_BUFFER_MISS:    1124168
  AVG DBUS CONGESTED CYCLE: 11.24
Channel 0 WQ ROW_BUFFER_HIT:      75677
  ROW_BUFFER_MISS:     188078
  FULL:          0
Channel 0 REFRESHES ISSUED:       7772

[ROI Statistics]
[System Configuration]
num_cpus 1
cpu_freq 4000
fetch_width 6
decode_width 6
dispatch_width 6
execute_width 6
lq_width 2
sq_width 2
retire_width 6
scheduler_size 128
branch_mispredict_penalty 15
rob_size 352
lq_size 128
sq_size 72
ifetch_buffer_size 64
decode_buffer_size 32
dispatch_buffer_size 32
register_file_size 288
decode_latency 1
dispatch_latency 1
schedule_latency 1
execute_latency 1
page_size 4096
block_size 64
core_0_itlb_set 16
core_0_itlb_way 4
core_0_itlb_rq_size 16
core_0_itlb_wq_size 16
core_0_itlb_pq_size 0
core_0_itlb_mshr_size 8
core_0_itlb_hit_latency 1
core_0_itlb_fill_latency 1
core_0_itlb_max_tag_check 2
core_0_itlb_max_fill 2
core_0_dtlb_set 16
core_0_dtlb_way 4
core_0_dtlb_rq_size 16
core_0_dtlb_wq_size 16
core_0_dtlb_pq_size 0
core_0_dtlb_mshr_size 8
core_0_dtlb_hit_latency 1
core_0_dtlb_fill_latency 1
core_0_dtlb_max_tag_check 2
core_0_dtlb_max_fill 2
core_0_stlb_set 128
core_0_stlb_way 12
core_0_stlb_rq_size 32
core_0_stlb_wq_size 32
core_0_stlb_pq_size 0
core_0_stlb_mshr_size 16
core_0_stlb_hit_latency 4
core_0_stlb_fill_latency 4
core_0_stlb_max_tag_check 1
core_0_stlb_max_fill 1
core_0_l1i_set 64
core_0_l1i_way 8
core_0_l1i_rq_size 64
core_0_l1i_wq_size 64
core_0_l1i_pq_size 32
core_0_l1i_mshr_size 8
core_0_l1i_hit_latency 2
core_0_l1i_fill_latency 2
core_0_l1i_max_tag_check 2
core_0_l1i_max_fill 2
core_0_l1d_set 64
core_0_l1d_way 12
core_0_l1d_rq_size 64
core_0_l1d_wq_size 64
core_0_l1d_pq_size 8
core_0_l1d_mshr_size 16
core_0_l1d_hit_latency 2
core_0_l1d_fill_latency 3
core_0_l1d_max_tag_check 2
core_0_l1d_max_fill 2
core_0_l2c_set 1024
core_0_l2c_way 8
core_0_l2c_rq_size 32
core_0_l2c_wq_size 32
core_0_l2c_pq_size 16
core_0_l2c_mshr_size 32
core_0_l2c_hit_latency 5
core_0_l2c_fill_latency 5
core_0_l2c_max_tag_check 1
core_0_l2c_max_fill 1
llc_set 2048
llc_way 16
llc_rq_size 32
llc_wq_size 32
llc_pq_size 32
llc_mshr_size 64
llc_hit_latency 10
llc_fill_latency 10
llc_max_tag_check 1
llc_max_fill 1
dram_channels 1
dram_ranks 1
dram_bankgroups 8
dram_banks 4
dram_rows 65536
dram_columns 1024
dram_channel_width 8
dram_rq_size 64
dram_wq_size 64
dram_size 17179869184
core_0_itlb_prefetcher no
core_0_dtlb_prefetcher no
core_0_stlb_prefetcher no
core_0_l1i_prefetcher next_line
core_0_l1d_prefetcher berti
core_0_l2c_prefetcher pythia
llc_prefetcher no
llc_replacement drrip

Core_0_instructions 50000000
Core_0_cycles 93262338
Core_0_IPC 0.536122
Core_0_branch_prediction_accuracy 95.7046
Core_0_branch_MPKI 9.03012
Core_0_average_ROB_occupancy_at_mispredict 75.3018

Core_0_ITLB_total_access 6441731
Core_0_ITLB_total_hit 6286530
Core_0_ITLB_total_miss 155201
Core_0_ITLB_total_MPKI 3.10402
Core_0_ITLB_total_miss_rate 0.0240931
Core_0_ITLB_demand_access 6441731
Core_0_ITLB_demand_hit 6286530
Core_0_ITLB_demand_miss 155201
Core_0_ITLB_demand_MPKI 3.10402
Core_0_ITLB_demand_miss_rate 0.0240931
Core_0_ITLB_load_access 6441731
Core_0_ITLB_load_hit 6286530
Core_0_ITLB_load_miss 155201
Core_0_ITLB_load_MPKI 3.10402
Core_0_ITLB_load_miss_rate 0.0240931
Core_0_ITLB_rfo_access 0
Core_0_ITLB_rfo_hit 0
Core_0_ITLB_rfo_miss 0
Core_0_ITLB_rfo_MPKI 0
Core_0_ITLB_rfo_miss_rate 0
Core_0_ITLB_prefetch_access 0
Core_0_ITLB_prefetch_hit 0
Core_0_ITLB_prefetch_miss 0
Core_0_ITLB_prefetch_MPKI 0
Core_0_ITLB_prefetch_miss_rate 0
Core_0_ITLB_writeback_access 0
Core_0_ITLB_writeback_hit 0
Core_0_ITLB_writeback_miss 0
Core_0_ITLB_writeback_MPKI 0
Core_0_ITLB_writeback_miss_rate 0
Core_0_ITLB_prefetch_requested 0
Core_0_ITLB_prefetch_issued 0
Core_0_ITLB_prefetch_useful 0
Core_0_ITLB_prefetch_useless 0
Core_0_ITLB_prefetch_late 0
Core_0_ITLB_prefetch_accuracy 0
Core_0_ITLB_prefetch_coverage 0

Core_0_DTLB_total_access 18277221
Core_0_DTLB_total_hit 16993606
Core_0_DTLB_total_miss 1283615
Core_0_DTLB_total_MPKI 25.6723
Core_0_DTLB_total_miss_rate 0.0702303
Core_0_DTLB_demand_access 18277221
Core_0_DTLB_demand_hit 16993606
Core_0_DTLB_demand_miss 1283615
Core_0_DTLB_demand_MPKI 25.6723
Core_0_DTLB_demand_miss_rate 0.0702303
Core_0_DTLB_load_access 18277221
Core_0_DTLB_load_hit 16993606
Core_0_DTLB_load_miss 1283615
Core_0_DTLB_load_MPKI 25.6723
Core_0_DTLB_load_miss_rate 0.0702303
Core_0_DTLB_rfo_access 0
Core_0_DTLB_rfo_hit 0
Core_0_DTLB_rfo_miss 0
Core_0_DTLB_rfo_MPKI 0
Core_0_DTLB_rfo_miss_rate 0
Core_0_DTLB_prefetch_access 0
Core_0_DTLB_prefetch_hit 0
Core_0_DTLB_prefetch_miss 0
Core_0_DTLB_prefetch_MPKI 0
Core_0_DTLB_prefetch_miss_rate 0
Core_0_DTLB_writeback_access 0
Core_0_DTLB_writeback_hit 0
Core_0_DTLB_writeback_miss 0
Core_0_DTLB_writeback_MPKI 0
Core_0_DTLB_writeback_miss_rate 0
Core_0_DTLB_prefetch_requested 0
Core_0_DTLB_prefetch_issued 0
Core_0_DTLB_prefetch_useful 0
Core_0_DTLB_prefetch_useless 0
Core_0_DTLB_prefetch_late 0
Core_0_DTLB_prefetch_accuracy 0
Core_0_DTLB_prefetch_coverage 0

Core_0_STLB_total_access 1151833
Core_0_STLB_total_hit 1142715
Core_0_STLB_total_miss 9118
Core_0_STLB_total_MPKI 0.18236
Core_0_STLB_total_miss_rate 0.00791608
Core_0_STLB_demand_access 1151833
Core_0_STLB_demand_hit 1142715
Core_0_STLB_demand_miss 9118
Core_0_STLB_demand_MPKI 0.18236
Core_0_STLB_demand_miss_rate 0.00791608
Core_0_STLB_load_access 1151833
Core_0_STLB_load_hit 1142715
Core_0_STLB_load_miss 9118
Core_0_STLB_load_MPKI 0.18236
Core_0_STLB_load_miss_rate 0.00791608
Core_0_STLB_rfo_access 0
Core_0_STLB_rfo_hit 0
Core_0_STLB_rfo_miss 0
Core_0_STLB_rfo_MPKI 0
Core_0_STLB_rfo_miss_rate 0
Core_0_STLB_prefetch_access 0
Core_0_STLB_prefetch_hit 0
Core_0_STLB_prefetch_miss 0
Core_0_STLB_prefetch_MPKI 0
Core_0_STLB_prefetch_miss_rate 0
Core_0_STLB_writeback_access 0
Core_0_STLB_writeback_hit 0
Core_0_STLB_writeback_miss 0
Core_0_STLB_writeback_MPKI 0
Core_0_STLB_writeback_miss_rate 0
Core_0_STLB_prefetch_requested 0
Core_0_STLB_prefetch_issued 0
Core_0_STLB_prefetch_useful 0
Core_0_STLB_prefetch_useless 0
Core_0_STLB_prefetch_late 0
Core_0_STLB_prefetch_accuracy 0
Core_0_STLB_prefetch_coverage 0

Core_0_L1I_total_access 7268915
Core_0_L1I_total_hit 7231661
Core_0_L1I_total_miss 37254
Core_0_L1I_total_MPKI 0.74508
Core_0_L1I_total_miss_rate 0.00512511
Core_0_L1I_demand_access 7268915
Core_0_L1I_demand_hit 7231661
Core_0_L1I_demand_miss 37254
Core_0_L1I_demand_MPKI 0.74508
Core_0_L1I_demand_miss_rate 0.00512511
Core_0_L1I_load_access 7268915
Core_0_L1I_load_hit 7231661
Core_0_L1I_load_miss 37254
Core_0_L1I_load_MPKI 0.74508
Core_0_L1I_load_miss_rate 0.00512511
Core_0_L1I_rfo_access 0
Core_0_L1I_rfo_hit 0
Core_0_L1I_rfo_miss 0
Core_0_L1I_rfo_MPKI 0
Core_0_L1I_rfo_miss_rate 0
Core_0_L1I_prefetch_access 0
Core_0_L1I_prefetch_hit 0
Core_0_L1I_prefetch_miss 0
Core_0_L1I_prefetch_MPKI 0
Core_0_L1I_prefetch_miss_rate 0
Core_0_L1I_writeback_access 0
Core_0_L1I_writeback_hit 0
Core_0_L1I_writeback_miss 0
Core_0_L1I_writeback_MPKI 0
Core_0_L1I_writeback_miss_rate 0
Core_0_L1I_prefetch_requested 0
Core_0_L1I_prefetch_issued 0
Core_0_L1I_prefetch_useful 0
Core_0_L1I_prefetch_useless 0
Core_0_L1I_prefetch_late 0
Core_0_L1I_prefetch_accuracy 0
Core_0_L1I_prefetch_coverage 0

Core_0_L1D_total_access 19512444
Core_0_L1D_total_hit 17874212
Core_0_L1D_total_miss 1638232
Core_0_L1D_total_MPKI 32.7646
Core_0_L1D_total_miss_rate 0.0839583
Core_0_L1D_demand_access 9665015
Core_0_L1D_demand_hit 8719437
Core_0_L1D_demand_miss 945578
Core_0_L1D_demand_MPKI 18.9116
Core_0_L1D_demand_miss_rate 0.0978351
Core_0_L1D_load_access 9665015
Core_0_L1D_load_hit 8719437
Core_0_L1D_load_miss 945578
Core_0_L1D_load_MPKI 18.9116
Core_0_L1D_load_miss_rate 0.0978351
Core_0_L1D_rfo_access 0
Core_0_L1D_rfo_hit 0
Core_0_L1D_rfo_miss 0
Core_0_L1D_rfo_MPKI 0
Core_0_L1D_rfo_miss_rate 0
Core_0_L1D_prefetch_access 1002387
Core_0_L1D_prefetch_hit 621294
Core_0_L1D_prefetch_miss 381093
Core_0_L1D_prefetch_MPKI 7.62186
Core_0_L1D_prefetch_miss_rate 0.380185
Core_0_L1D_writeback_access 8845042
Core_0_L1D_writeback_hit 8533481
Core_0_L1D_writeback_miss 311561
Core_0_L1D_writeback_MPKI 6.23122
Core_0_L1D_writeback_miss_rate 0.0352244
Core_0_L1D_prefetch_requested 1009209
Core_0_L1D_prefetch_issued 1002379
Core_0_L1D_prefetch_useful 110459
Core_0_L1D_prefetch_useless 255885
Core_0_L1D_prefetch_late 15447
Core_0_L1D_prefetch_accuracy 0.110197
Core_0_L1D_prefetch_coverage 0.104598

Core_0_L2C_total_access 3140964
Core_0_L2C_total_hit 1388382
Core_0_L2C_total_miss 1752582
Core_0_L2C_total_MPKI 35.0516
Core_0_L2C_total_miss_rate 0.557976
Core_0_L2C_demand_access 875264
Core_0_L2C_demand_hit 348248
Core_0_L2C_demand_miss 527016
Core_0_L2C_demand_MPKI 10.5403
Core_0_L2C_demand_miss_rate 0.602122
Core_0_L2C_load_access 761778
Core_0_L2C_load_hit 302098
Core_0_L2C_load_miss 459680
Core_0_L2C_load_MPKI 9.1936
Core_0_L2C_load_miss_rate 0.60343
Core_0_L2C_rfo_access 113486
Core_0_L2C_rfo_hit 46150
Core_0_L2C_rfo_miss 67336
Core_0_L2C_rfo_MPKI 1.34672
Core_0_L2C_rfo_miss_rate 0.593342
Core_0_L2C_prefetch_access 1800167
Core_0_L2C_prefetch_hit 575708
Core_0_L2C_prefetch_miss 1224459
Core_0_L2C_prefetch_MPKI 24.4892
Core_0_L2C_prefetch_miss_rate 0.680192
Core_0_L2C_writeback_access 465533
Core_0_L2C_writeback_hit 464426
Core_0_L2C_writeback_miss 1107
Core_0_L2C_writeback_MPKI 0.02214
Core_0_L2C_writeback_miss_rate 0.00237792
Core_0_L2C_prefetch_requested 1439067
Core_0_L2C_prefetch_issued 1433723
Core_0_L2C_prefetch_useful 221446
Core_0_L2C_prefetch_useless 507981
Core_0_L2C_prefetch_late 18431
Core_0_L2C_prefetch_accuracy 0.154455
Core_0_L2C_prefetch_coverage 0.295868

Core_0_LLC_total_access 1826186
Core_0_LLC_total_hit 657962
Core_0_LLC_total_miss 1168224
Core_0_LLC_total_MPKI 23.3645
Core_0_LLC_total_miss_rate 0.639707
Core_0_LLC_demand_access 508585
Core_0_LLC_demand_hit 142826
Core_0_LLC_demand_miss 365759
Core_0_LLC_demand_MPKI 7.31518
Core_0_LLC_demand_miss_rate 0.71917
Core_0_LLC_load_access 443844
Core_0_LLC_load_hit 124696
Core_0_LLC_load_miss 319148
Core_0_LLC_load_MPKI 6.38296
Core_0_LLC_load_miss_rate 0.719054
Core_0_LLC_rfo_access 64741
Core_0_LLC_rfo_hit 18130
Core_0_LLC_rfo_miss 46611
Core_0_LLC_rfo_MPKI 0.93222
Core_0_LLC_rfo_miss_rate 0.719961
Core_0_LLC_prefetch_access 950177
Core_0_LLC_prefetch_hit 176610
Core_0_LLC_prefetch_miss 773567
Core_0_LLC_prefetch_MPKI 15.4713
Core_0_LLC_prefetch_miss_rate 0.814129
Core_0_LLC_writeback_access 367424
Core_0_LLC_writeback_hit 338526
Core_0_LLC_writeback_miss 28898
Core_0_LLC_writeback_MPKI 0.57796
Core_0_LLC_writeback_miss_rate 0.0786503
Core_0_LLC_prefetch_requested 0
Core_0_LLC_prefetch_issued 0
Core_0_LLC_prefetch_useful 0
Core_0_LLC_prefetch_useless 0
Core_0_LLC_prefetch_late 0
Core_0_LLC_prefetch_accuracy 0
Core_0_LLC_prefetch_coverage 0

[DRAM Statistics]
Channel_0_RQ_row_buffer_hit 22097
Channel_0_RQ_row_buffer_miss 1124168
Channel_0_WQ_row_buffer_hit 75677
Channel_0_WQ_row_buffer_miss 188078
Channel_0_WQ_full 0
Channel_0_dbus_congested 3586494
DRAM_total_RQ_row_buffer_hit 22097
DRAM_total_RQ_row_buffer_miss 1124168
DRAM_total_WQ_row_buffer_hit 75677
DRAM_total_WQ_row_buffer_miss 188078
DRAM_total_WQ_full 0
DRAM_total_dbus_congested 3586494
DRAM_avg_congested_cycle 11.2428

======STLB miss causes ========
Core_0_STLB_miss_cause_breakdown
Core_0_STLB_cause_Demand_Data_miss 0
Core_0_STLB_cause_Demand_Data_miss_rate 0
Core_0_STLB_cause_Demand_Instruction_miss 0
Core_0_STLB_cause_Demand_Instruction_miss_rate 0
Core_0_STLB_cause_L1D_Prefetch_miss 9118
Core_0_STLB_cause_L1D_Prefetch_miss_rate 0.00791608
Core_0_STLB_cause_L1I_Prefetch_miss 0
Core_0_STLB_cause_L1I_Prefetch_miss_rate 0
Core_0_STLB_cause_Other_miss 0
Core_0_STLB_cause_Other_miss_rate 0
Core_0_STLB_Demand_miss 0
Core_0_STLB_Demand_miss_rate 0
Core_0_STLB_L1D_Prefetch_miss 9118
Core_0_STLB_L1D_Prefetch_miss_rate 0.00791608
Core_0_STLB_Other_miss 0
Core_0_STLB_Other_miss_rate 0
