[VMEM] WARNING: physical memory size is smaller than virtual memory size.

*** ChampSim Multicore Out-of-Order Simulator ***
Warmup Instructions: 20000000
Simulation Instructions: 50000000
Number of CPUs: 1
Page size: 4096
STLB ideal mode: demand
Core 0: /data0/tzh/champsim_traces/SPEC17/623.xalancbmk_s-700B.champsimtrace.xz
 L1D Berti prefetcher
Off-chip DRAM Size: 16 GiB Channels: 1 Width: 64-bit Data Rate: 3205 MT/s
Warmup halting CPU 0 at instruction 20000003 cycle 4674758 for remainder of phase
Warmup finished CPU 0 instructions: 20000003 cycles: 4674758 cumulative IPC: 4.278 (Simulation time: 00 hr 01 min 10 sec)
Warmup complete CPU 0 instructions: 20000003 cycles: 4674758 cumulative IPC: 4.278 (Simulation time: 00 hr 01 min 10 sec)
Simulation finished CPU 0 instructions: 50000000 cycles: 47810610 cumulative IPC: 1.046 (Simulation time: 00 hr 08 min 16 sec)
Simulation complete CPU 0 instructions: 50000000 cycles: 47810610 cumulative IPC: 1.046 (Simulation time: 00 hr 08 min 16 sec)

ChampSim completed all CPUs

=== Simulation ===
CPU 0 runs /data0/tzh/champsim_traces/SPEC17/623.xalancbmk_s-700B.champsimtrace.xz

Region of Interest Statistics

CPU 0 cumulative IPC: 1.046 instructions: 50000000 cycles: 47810610
CPU 0 Branch Prediction Accuracy: 98.13% MPKI: 5.357 Average ROB Occupancy at Mispredict: 52.09
Branch type MPKI
BRANCH_DIRECT_JUMP: 0.1065
BRANCH_INDIRECT: 0.3358
BRANCH_CONDITIONAL: 3.177
BRANCH_DIRECT_CALL: 0.0036
BRANCH_INDIRECT_CALL: 0.3613
BRANCH_RETURN: 1.372

cpu0->cpu0_STLB TOTAL        ACCESS:    1467478 HIT:    1466877 MISS:        601 MSHR_MERGE:          0
cpu0->cpu0_STLB LOAD         ACCESS:    1467478 HIT:    1466877 MISS:        601 MSHR_MERGE:          0
cpu0->cpu0_STLB RFO          ACCESS:          0 HIT:          0 MISS:          0 MSHR_MERGE:          0
cpu0->cpu0_STLB PREFETCH     ACCESS:          0 HIT:          0 MISS:          0 MSHR_MERGE:          0
cpu0->cpu0_STLB WRITE        ACCESS:          0 HIT:          0 MISS:          0 MSHR_MERGE:          0
cpu0->cpu0_STLB TRANSLATION  ACCESS:          0 HIT:          0 MISS:          0 MSHR_MERGE:          0
cpu0->cpu0_STLB PREFETCH REQUESTED:          0 ISSUED:          0 USEFUL:          0 USELESS:          0 LATE:          0
cpu0->cpu0_STLB AVERAGE MISS LATENCY: 234.3 cycles
cpu0->cpu0_L2C TOTAL        ACCESS:    6925592 HIT:    5288926 MISS:    1636666 MSHR_MERGE:     314751
cpu0->cpu0_L2C LOAD         ACCESS:    2217610 HIT:    1717108 MISS:     500502 MSHR_MERGE:      19717
cpu0->cpu0_L2C RFO          ACCESS:      68789 HIT:      13662 MISS:      55127 MSHR_MERGE:        561
cpu0->cpu0_L2C PREFETCH     ACCESS:    4523802 HIT:    3443327 MISS:    1080475 MSHR_MERGE:     294473
cpu0->cpu0_L2C WRITE        ACCESS:     114792 HIT:     114790 MISS:          2 MSHR_MERGE:          0
cpu0->cpu0_L2C TRANSLATION  ACCESS:        599 HIT:         39 MISS:        560 MSHR_MERGE:          0
cpu0->cpu0_L2C PREFETCH REQUESTED:    3775078 ISSUED:    3745877 USEFUL:     159808 USELESS:     431655 LATE:      20278
cpu0->cpu0_L2C AVERAGE MISS LATENCY: 36.81 cycles
cpu0->cpu0_L1I TOTAL        ACCESS:    9129690 HIT:    8955087 MISS:     174603 MSHR_MERGE:      54103
cpu0->cpu0_L1I LOAD         ACCESS:    9129690 HIT:    8955087 MISS:     174603 MSHR_MERGE:      54103
cpu0->cpu0_L1I RFO          ACCESS:          0 HIT:          0 MISS:          0 MSHR_MERGE:          0
cpu0->cpu0_L1I PREFETCH     ACCESS:          0 HIT:          0 MISS:          0 MSHR_MERGE:          0
cpu0->cpu0_L1I WRITE        ACCESS:          0 HIT:          0 MISS:          0 MSHR_MERGE:          0
cpu0->cpu0_L1I TRANSLATION  ACCESS:          0 HIT:          0 MISS:          0 MSHR_MERGE:          0
cpu0->cpu0_L1I PREFETCH REQUESTED:          0 ISSUED:          0 USEFUL:          0 USELESS:          0 LATE:          0
cpu0->cpu0_L1I AVERAGE MISS LATENCY: 10.36 cycles
cpu0->cpu0_L1D TOTAL        ACCESS:   13840452 HIT:   10198081 MISS:    3642371 MSHR_MERGE:     697947
cpu0->cpu0_L1D LOAD         ACCESS:    9095578 HIT:    6561562 MISS:    2534016 MSHR_MERGE:     436906
cpu0->cpu0_L1D RFO          ACCESS:          0 HIT:          0 MISS:          0 MSHR_MERGE:          0
cpu0->cpu0_L1D PREFETCH     ACCESS:    1380321 HIT:     533783 MISS:     846538 MSHR_MERGE:      68613
cpu0->cpu0_L1D WRITE        ACCESS:    3363336 HIT:    3102121 MISS:     261215 MSHR_MERGE:     192425
cpu0->cpu0_L1D TRANSLATION  ACCESS:       1217 HIT:        615 MISS:        602 MSHR_MERGE:          3
cpu0->cpu0_L1D PREFETCH REQUESTED:    1417496 ISSUED:    1380321 USEFUL:     207999 USELESS:     569870 LATE:      19343
cpu0->cpu0_L1D AVERAGE MISS LATENCY: 17.64 cycles
cpu0->cpu0_ITLB TOTAL        ACCESS:    8491281 HIT:    8450697 MISS:      40584 MSHR_MERGE:      23258
cpu0->cpu0_ITLB LOAD         ACCESS:    8491281 HIT:    8450697 MISS:      40584 MSHR_MERGE:      23258
cpu0->cpu0_ITLB RFO          ACCESS:          0 HIT:          0 MISS:          0 MSHR_MERGE:          0
cpu0->cpu0_ITLB PREFETCH     ACCESS:          0 HIT:          0 MISS:          0 MSHR_MERGE:          0
cpu0->cpu0_ITLB WRITE        ACCESS:          0 HIT:          0 MISS:          0 MSHR_MERGE:          0
cpu0->cpu0_ITLB TRANSLATION  ACCESS:          0 HIT:          0 MISS:          0 MSHR_MERGE:          0
cpu0->cpu0_ITLB PREFETCH REQUESTED:          0 ISSUED:          0 USEFUL:          0 USELESS:          0 LATE:          0
cpu0->cpu0_ITLB AVERAGE MISS LATENCY: 5.03 cycles
cpu0->cpu0_DTLB TOTAL        ACCESS:   13223227 HIT:   11084739 MISS:    2138488 MSHR_MERGE:     688336
cpu0->cpu0_DTLB LOAD         ACCESS:   13223227 HIT:   11084739 MISS:    2138488 MSHR_MERGE:     688336
cpu0->cpu0_DTLB RFO          ACCESS:          0 HIT:          0 MISS:          0 MSHR_MERGE:          0
cpu0->cpu0_DTLB PREFETCH     ACCESS:          0 HIT:          0 MISS:          0 MSHR_MERGE:          0
cpu0->cpu0_DTLB WRITE        ACCESS:          0 HIT:          0 MISS:          0 MSHR_MERGE:          0
cpu0->cpu0_DTLB TRANSLATION  ACCESS:          0 HIT:          0 MISS:          0 MSHR_MERGE:          0
cpu0->cpu0_DTLB PREFETCH REQUESTED:          0 ISSUED:          0 USEFUL:          0 USELESS:          0 LATE:          0
cpu0->cpu0_DTLB AVERAGE MISS LATENCY: 5.098 cycles
cpu0->LLC TOTAL        ACCESS:    1404379 HIT:    1290683 MISS:     113696 MSHR_MERGE:          0
cpu0->LLC LOAD         ACCESS:     480785 HIT:     469643 MISS:      11142 MSHR_MERGE:          0
cpu0->LLC RFO          ACCESS:      54566 HIT:       3328 MISS:      51238 MSHR_MERGE:          0
cpu0->LLC PREFETCH     ACCESS:     786002 HIT:     739643 MISS:      46359 MSHR_MERGE:          0
cpu0->LLC WRITE        ACCESS:      82466 HIT:      77915 MISS:       4551 MSHR_MERGE:          0
cpu0->LLC TRANSLATION  ACCESS:        560 HIT:        154 MISS:        406 MSHR_MERGE:          0
cpu0->LLC PREFETCH REQUESTED:          0 ISSUED:          0 USEFUL:          0 USELESS:          0 LATE:          0
cpu0->LLC AVERAGE MISS LATENCY: 181 cycles

DRAM Statistics

Channel 0 RQ ROW_BUFFER_HIT:       2760
  ROW_BUFFER_MISS:     106381
  AVG DBUS CONGESTED CYCLE: 8.939
Channel 0 WQ ROW_BUFFER_HIT:       6542
  ROW_BUFFER_MISS:      63056
  FULL:          0
Channel 0 REFRESHES ISSUED:       3984

[ROI Statistics]
[System Configuration]
num_cpus 1
cpu_freq 4000
fetch_width 6
decode_width 6
dispatch_width 6
execute_width 6
lq_width 2
sq_width 2
retire_width 6
scheduler_size 128
branch_mispredict_penalty 15
rob_size 352
lq_size 128
sq_size 72
ifetch_buffer_size 64
decode_buffer_size 32
dispatch_buffer_size 32
register_file_size 288
decode_latency 1
dispatch_latency 1
schedule_latency 1
execute_latency 1
page_size 4096
block_size 64
core_0_itlb_set 16
core_0_itlb_way 4
core_0_itlb_rq_size 16
core_0_itlb_wq_size 16
core_0_itlb_pq_size 0
core_0_itlb_mshr_size 8
core_0_itlb_hit_latency 1
core_0_itlb_fill_latency 1
core_0_itlb_max_tag_check 2
core_0_itlb_max_fill 2
core_0_dtlb_set 16
core_0_dtlb_way 4
core_0_dtlb_rq_size 16
core_0_dtlb_wq_size 16
core_0_dtlb_pq_size 0
core_0_dtlb_mshr_size 8
core_0_dtlb_hit_latency 1
core_0_dtlb_fill_latency 1
core_0_dtlb_max_tag_check 2
core_0_dtlb_max_fill 2
core_0_stlb_set 128
core_0_stlb_way 12
core_0_stlb_rq_size 32
core_0_stlb_wq_size 32
core_0_stlb_pq_size 0
core_0_stlb_mshr_size 16
core_0_stlb_hit_latency 4
core_0_stlb_fill_latency 4
core_0_stlb_max_tag_check 1
core_0_stlb_max_fill 1
core_0_l1i_set 64
core_0_l1i_way 8
core_0_l1i_rq_size 64
core_0_l1i_wq_size 64
core_0_l1i_pq_size 32
core_0_l1i_mshr_size 8
core_0_l1i_hit_latency 2
core_0_l1i_fill_latency 2
core_0_l1i_max_tag_check 2
core_0_l1i_max_fill 2
core_0_l1d_set 64
core_0_l1d_way 12
core_0_l1d_rq_size 64
core_0_l1d_wq_size 64
core_0_l1d_pq_size 8
core_0_l1d_mshr_size 16
core_0_l1d_hit_latency 2
core_0_l1d_fill_latency 3
core_0_l1d_max_tag_check 2
core_0_l1d_max_fill 2
core_0_l2c_set 1024
core_0_l2c_way 8
core_0_l2c_rq_size 32
core_0_l2c_wq_size 32
core_0_l2c_pq_size 16
core_0_l2c_mshr_size 32
core_0_l2c_hit_latency 5
core_0_l2c_fill_latency 5
core_0_l2c_max_tag_check 1
core_0_l2c_max_fill 1
llc_set 2048
llc_way 16
llc_rq_size 32
llc_wq_size 32
llc_pq_size 32
llc_mshr_size 64
llc_hit_latency 10
llc_fill_latency 10
llc_max_tag_check 1
llc_max_fill 1
dram_channels 1
dram_ranks 1
dram_bankgroups 8
dram_banks 4
dram_rows 65536
dram_columns 1024
dram_channel_width 8
dram_rq_size 64
dram_wq_size 64
dram_size 17179869184
core_0_itlb_prefetcher no
core_0_dtlb_prefetcher no
core_0_stlb_prefetcher no
core_0_l1i_prefetcher next_line
core_0_l1d_prefetcher berti
core_0_l2c_prefetcher pythia
llc_prefetcher no
llc_replacement drrip

Core_0_instructions 50000000
Core_0_cycles 47810610
Core_0_IPC 1.04579
Core_0_branch_prediction_accuracy 98.1291
Core_0_branch_MPKI 5.35658
Core_0_average_ROB_occupancy_at_mispredict 52.0927

Core_0_ITLB_total_access 8491281
Core_0_ITLB_total_hit 8450697
Core_0_ITLB_total_miss 40584
Core_0_ITLB_total_MPKI 0.81168
Core_0_ITLB_total_miss_rate 0.00477949
Core_0_ITLB_demand_access 8491281
Core_0_ITLB_demand_hit 8450697
Core_0_ITLB_demand_miss 40584
Core_0_ITLB_demand_MPKI 0.81168
Core_0_ITLB_demand_miss_rate 0.00477949
Core_0_ITLB_load_access 8491281
Core_0_ITLB_load_hit 8450697
Core_0_ITLB_load_miss 40584
Core_0_ITLB_load_MPKI 0.81168
Core_0_ITLB_load_miss_rate 0.00477949
Core_0_ITLB_rfo_access 0
Core_0_ITLB_rfo_hit 0
Core_0_ITLB_rfo_miss 0
Core_0_ITLB_rfo_MPKI 0
Core_0_ITLB_rfo_miss_rate 0
Core_0_ITLB_prefetch_access 0
Core_0_ITLB_prefetch_hit 0
Core_0_ITLB_prefetch_miss 0
Core_0_ITLB_prefetch_MPKI 0
Core_0_ITLB_prefetch_miss_rate 0
Core_0_ITLB_writeback_access 0
Core_0_ITLB_writeback_hit 0
Core_0_ITLB_writeback_miss 0
Core_0_ITLB_writeback_MPKI 0
Core_0_ITLB_writeback_miss_rate 0
Core_0_ITLB_prefetch_requested 0
Core_0_ITLB_prefetch_issued 0
Core_0_ITLB_prefetch_useful 0
Core_0_ITLB_prefetch_useless 0
Core_0_ITLB_prefetch_late 0
Core_0_ITLB_prefetch_accuracy 0
Core_0_ITLB_prefetch_coverage 0

Core_0_DTLB_total_access 13223227
Core_0_DTLB_total_hit 11084739
Core_0_DTLB_total_miss 2138488
Core_0_DTLB_total_MPKI 42.7698
Core_0_DTLB_total_miss_rate 0.161722
Core_0_DTLB_demand_access 13223227
Core_0_DTLB_demand_hit 11084739
Core_0_DTLB_demand_miss 2138488
Core_0_DTLB_demand_MPKI 42.7698
Core_0_DTLB_demand_miss_rate 0.161722
Core_0_DTLB_load_access 13223227
Core_0_DTLB_load_hit 11084739
Core_0_DTLB_load_miss 2138488
Core_0_DTLB_load_MPKI 42.7698
Core_0_DTLB_load_miss_rate 0.161722
Core_0_DTLB_rfo_access 0
Core_0_DTLB_rfo_hit 0
Core_0_DTLB_rfo_miss 0
Core_0_DTLB_rfo_MPKI 0
Core_0_DTLB_rfo_miss_rate 0
Core_0_DTLB_prefetch_access 0
Core_0_DTLB_prefetch_hit 0
Core_0_DTLB_prefetch_miss 0
Core_0_DTLB_prefetch_MPKI 0
Core_0_DTLB_prefetch_miss_rate 0
Core_0_DTLB_writeback_access 0
Core_0_DTLB_writeback_hit 0
Core_0_DTLB_writeback_miss 0
Core_0_DTLB_writeback_MPKI 0
Core_0_DTLB_writeback_miss_rate 0
Core_0_DTLB_prefetch_requested 0
Core_0_DTLB_prefetch_issued 0
Core_0_DTLB_prefetch_useful 0
Core_0_DTLB_prefetch_useless 0
Core_0_DTLB_prefetch_late 0
Core_0_DTLB_prefetch_accuracy 0
Core_0_DTLB_prefetch_coverage 0

Core_0_STLB_total_access 1467478
Core_0_STLB_total_hit 1466877
Core_0_STLB_total_miss 601
Core_0_STLB_total_MPKI 0.01202
Core_0_STLB_total_miss_rate 0.000409546
Core_0_STLB_demand_access 1467478
Core_0_STLB_demand_hit 1466877
Core_0_STLB_demand_miss 601
Core_0_STLB_demand_MPKI 0.01202
Core_0_STLB_demand_miss_rate 0.000409546
Core_0_STLB_load_access 1467478
Core_0_STLB_load_hit 1466877
Core_0_STLB_load_miss 601
Core_0_STLB_load_MPKI 0.01202
Core_0_STLB_load_miss_rate 0.000409546
Core_0_STLB_rfo_access 0
Core_0_STLB_rfo_hit 0
Core_0_STLB_rfo_miss 0
Core_0_STLB_rfo_MPKI 0
Core_0_STLB_rfo_miss_rate 0
Core_0_STLB_prefetch_access 0
Core_0_STLB_prefetch_hit 0
Core_0_STLB_prefetch_miss 0
Core_0_STLB_prefetch_MPKI 0
Core_0_STLB_prefetch_miss_rate 0
Core_0_STLB_writeback_access 0
Core_0_STLB_writeback_hit 0
Core_0_STLB_writeback_miss 0
Core_0_STLB_writeback_MPKI 0
Core_0_STLB_writeback_miss_rate 0
Core_0_STLB_prefetch_requested 0
Core_0_STLB_prefetch_issued 0
Core_0_STLB_prefetch_useful 0
Core_0_STLB_prefetch_useless 0
Core_0_STLB_prefetch_late 0
Core_0_STLB_prefetch_accuracy 0
Core_0_STLB_prefetch_coverage 0

Core_0_L1I_total_access 9129690
Core_0_L1I_total_hit 8955087
Core_0_L1I_total_miss 174603
Core_0_L1I_total_MPKI 3.49206
Core_0_L1I_total_miss_rate 0.0191247
Core_0_L1I_demand_access 9129690
Core_0_L1I_demand_hit 8955087
Core_0_L1I_demand_miss 174603
Core_0_L1I_demand_MPKI 3.49206
Core_0_L1I_demand_miss_rate 0.0191247
Core_0_L1I_load_access 9129690
Core_0_L1I_load_hit 8955087
Core_0_L1I_load_miss 174603
Core_0_L1I_load_MPKI 3.49206
Core_0_L1I_load_miss_rate 0.0191247
Core_0_L1I_rfo_access 0
Core_0_L1I_rfo_hit 0
Core_0_L1I_rfo_miss 0
Core_0_L1I_rfo_MPKI 0
Core_0_L1I_rfo_miss_rate 0
Core_0_L1I_prefetch_access 0
Core_0_L1I_prefetch_hit 0
Core_0_L1I_prefetch_miss 0
Core_0_L1I_prefetch_MPKI 0
Core_0_L1I_prefetch_miss_rate 0
Core_0_L1I_writeback_access 0
Core_0_L1I_writeback_hit 0
Core_0_L1I_writeback_miss 0
Core_0_L1I_writeback_MPKI 0
Core_0_L1I_writeback_miss_rate 0
Core_0_L1I_prefetch_requested 0
Core_0_L1I_prefetch_issued 0
Core_0_L1I_prefetch_useful 0
Core_0_L1I_prefetch_useless 0
Core_0_L1I_prefetch_late 0
Core_0_L1I_prefetch_accuracy 0
Core_0_L1I_prefetch_coverage 0

Core_0_L1D_total_access 13839235
Core_0_L1D_total_hit 10197466
Core_0_L1D_total_miss 3641769
Core_0_L1D_total_MPKI 72.8354
Core_0_L1D_total_miss_rate 0.263148
Core_0_L1D_demand_access 9095578
Core_0_L1D_demand_hit 6561562
Core_0_L1D_demand_miss 2534016
Core_0_L1D_demand_MPKI 50.6803
Core_0_L1D_demand_miss_rate 0.278599
Core_0_L1D_load_access 9095578
Core_0_L1D_load_hit 6561562
Core_0_L1D_load_miss 2534016
Core_0_L1D_load_MPKI 50.6803
Core_0_L1D_load_miss_rate 0.278599
Core_0_L1D_rfo_access 0
Core_0_L1D_rfo_hit 0
Core_0_L1D_rfo_miss 0
Core_0_L1D_rfo_MPKI 0
Core_0_L1D_rfo_miss_rate 0
Core_0_L1D_prefetch_access 1380321
Core_0_L1D_prefetch_hit 533783
Core_0_L1D_prefetch_miss 846538
Core_0_L1D_prefetch_MPKI 16.9308
Core_0_L1D_prefetch_miss_rate 0.613291
Core_0_L1D_writeback_access 3363336
Core_0_L1D_writeback_hit 3102121
Core_0_L1D_writeback_miss 261215
Core_0_L1D_writeback_MPKI 5.2243
Core_0_L1D_writeback_miss_rate 0.0776654
Core_0_L1D_prefetch_requested 1417496
Core_0_L1D_prefetch_issued 1380321
Core_0_L1D_prefetch_useful 207999
Core_0_L1D_prefetch_useless 569870
Core_0_L1D_prefetch_late 19343
Core_0_L1D_prefetch_accuracy 0.150689
Core_0_L1D_prefetch_coverage 0.0758563

Core_0_L2C_total_access 6924993
Core_0_L2C_total_hit 5288887
Core_0_L2C_total_miss 1636106
Core_0_L2C_total_MPKI 32.7221
Core_0_L2C_total_miss_rate 0.236261
Core_0_L2C_demand_access 2286399
Core_0_L2C_demand_hit 1730770
Core_0_L2C_demand_miss 555629
Core_0_L2C_demand_MPKI 11.1126
Core_0_L2C_demand_miss_rate 0.243015
Core_0_L2C_load_access 2217610
Core_0_L2C_load_hit 1717108
Core_0_L2C_load_miss 500502
Core_0_L2C_load_MPKI 10.01
Core_0_L2C_load_miss_rate 0.225694
Core_0_L2C_rfo_access 68789
Core_0_L2C_rfo_hit 13662
Core_0_L2C_rfo_miss 55127
Core_0_L2C_rfo_MPKI 1.10254
Core_0_L2C_rfo_miss_rate 0.801393
Core_0_L2C_prefetch_access 4523802
Core_0_L2C_prefetch_hit 3443327
Core_0_L2C_prefetch_miss 1080475
Core_0_L2C_prefetch_MPKI 21.6095
Core_0_L2C_prefetch_miss_rate 0.238842
Core_0_L2C_writeback_access 114792
Core_0_L2C_writeback_hit 114790
Core_0_L2C_writeback_miss 2
Core_0_L2C_writeback_MPKI 4e-05
Core_0_L2C_writeback_miss_rate 1.74228e-05
Core_0_L2C_prefetch_requested 3775078
Core_0_L2C_prefetch_issued 3745877
Core_0_L2C_prefetch_useful 159808
Core_0_L2C_prefetch_useless 431655
Core_0_L2C_prefetch_late 20278
Core_0_L2C_prefetch_accuracy 0.0426624
Core_0_L2C_prefetch_coverage 0.223371

Core_0_LLC_total_access 1403819
Core_0_LLC_total_hit 1290529
Core_0_LLC_total_miss 113290
Core_0_LLC_total_MPKI 2.2658
Core_0_LLC_total_miss_rate 0.0807013
Core_0_LLC_demand_access 535351
Core_0_LLC_demand_hit 472971
Core_0_LLC_demand_miss 62380
Core_0_LLC_demand_MPKI 1.2476
Core_0_LLC_demand_miss_rate 0.116522
Core_0_LLC_load_access 480785
Core_0_LLC_load_hit 469643
Core_0_LLC_load_miss 11142
Core_0_LLC_load_MPKI 0.22284
Core_0_LLC_load_miss_rate 0.0231746
Core_0_LLC_rfo_access 54566
Core_0_LLC_rfo_hit 3328
Core_0_LLC_rfo_miss 51238
Core_0_LLC_rfo_MPKI 1.02476
Core_0_LLC_rfo_miss_rate 0.93901
Core_0_LLC_prefetch_access 786002
Core_0_LLC_prefetch_hit 739643
Core_0_LLC_prefetch_miss 46359
Core_0_LLC_prefetch_MPKI 0.92718
Core_0_LLC_prefetch_miss_rate 0.0589808
Core_0_LLC_writeback_access 82466
Core_0_LLC_writeback_hit 77915
Core_0_LLC_writeback_miss 4551
Core_0_LLC_writeback_MPKI 0.09102
Core_0_LLC_writeback_miss_rate 0.0551864
Core_0_LLC_prefetch_requested 0
Core_0_LLC_prefetch_issued 0
Core_0_LLC_prefetch_useful 0
Core_0_LLC_prefetch_useless 0
Core_0_LLC_prefetch_late 0
Core_0_LLC_prefetch_accuracy 0
Core_0_LLC_prefetch_coverage 0

[DRAM Statistics]
Channel_0_RQ_row_buffer_hit 2760
Channel_0_RQ_row_buffer_miss 106381
Channel_0_WQ_row_buffer_hit 6542
Channel_0_WQ_row_buffer_miss 63056
Channel_0_WQ_full 0
Channel_0_dbus_congested 407483
DRAM_total_RQ_row_buffer_hit 2760
DRAM_total_RQ_row_buffer_miss 106381
DRAM_total_WQ_row_buffer_hit 6542
DRAM_total_WQ_row_buffer_miss 63056
DRAM_total_WQ_full 0
DRAM_total_dbus_congested 407483
DRAM_avg_congested_cycle 8.93933

======STLB miss causes ========
Core_0_STLB_miss_cause_breakdown
Core_0_STLB_cause_Demand_Data_miss 0
Core_0_STLB_cause_Demand_Data_miss_rate 0
Core_0_STLB_cause_Demand_Instruction_miss 0
Core_0_STLB_cause_Demand_Instruction_miss_rate 0
Core_0_STLB_cause_L1D_Prefetch_miss 601
Core_0_STLB_cause_L1D_Prefetch_miss_rate 0.000409546
Core_0_STLB_cause_L1I_Prefetch_miss 0
Core_0_STLB_cause_L1I_Prefetch_miss_rate 0
Core_0_STLB_cause_Other_miss 0
Core_0_STLB_cause_Other_miss_rate 0
Core_0_STLB_Demand_miss 0
Core_0_STLB_Demand_miss_rate 0
Core_0_STLB_L1D_Prefetch_miss 601
Core_0_STLB_L1D_Prefetch_miss_rate 0.000409546
Core_0_STLB_Other_miss 0
Core_0_STLB_Other_miss_rate 0
