[VMEM] WARNING: physical memory size is smaller than virtual memory size.

*** ChampSim Multicore Out-of-Order Simulator ***
Warmup Instructions: 20000000
Simulation Instructions: 50000000
Number of CPUs: 1
Page size: 4096
STLB ideal mode: demand
Core 0: /data0/tzh/champsim_traces/GAP/gap.pr.twitter-10B.champsimtrace.xz
 L1D Berti prefetcher
Off-chip DRAM Size: 16 GiB Channels: 1 Width: 64-bit Data Rate: 3205 MT/s
Warmup halting CPU 0 at instruction 20000002 cycle 4828255 for remainder of phase
Warmup finished CPU 0 instructions: 20000002 cycles: 4828255 cumulative IPC: 4.142 (Simulation time: 00 hr 02 min 00 sec)
Warmup complete CPU 0 instructions: 20000002 cycles: 4828255 cumulative IPC: 4.142 (Simulation time: 00 hr 02 min 00 sec)
Simulation CPU 0 warning: IPC 0.034191 < 0.05
Simulation CPU 0 warning: IPC 0.035598 < 0.05
Simulation CPU 0 warning: IPC 0.033842 < 0.05
Simulation CPU 0 warning: IPC 0.033682 < 0.05
Simulation CPU 0 warning: IPC 0.032198 < 0.05
Simulation CPU 0 warning: IPC 0.034255 < 0.05
Simulation CPU 0 warning: IPC 0.034897 < 0.05
Simulation CPU 0 warning: IPC 0.036041 < 0.05
Simulation CPU 0 warning: IPC 0.033155 < 0.05
Simulation CPU 0 warning: IPC 0.033154 < 0.05
Simulation CPU 0 warning: IPC 0.034682 < 0.05
Simulation CPU 0 warning: IPC 0.036692 < 0.05
Simulation CPU 0 warning: IPC 0.032966 < 0.05
Simulation CPU 0 warning: IPC 0.032554 < 0.05
Simulation CPU 0 warning: IPC 0.034444 < 0.05
Simulation CPU 0 warning: IPC 0.03411 < 0.05
Simulation CPU 0 warning: IPC 0.041205 < 0.05
Simulation CPU 0 warning: IPC 0.038539 < 0.05
Simulation CPU 0 warning: IPC 0.039309 < 0.05
Simulation CPU 0 warning: IPC 0.0372 < 0.05
Simulation CPU 0 warning: IPC 0.039918 < 0.05
Simulation CPU 0 warning: IPC 0.04565 < 0.05
Simulation CPU 0 warning: IPC 0.044284 < 0.05
Simulation CPU 0 warning: IPC 0.04462 < 0.05
Simulation CPU 0 warning: IPC 0.042415 < 0.05
Simulation CPU 0 warning: IPC 0.040615 < 0.05
Simulation CPU 0 warning: IPC 0.035435 < 0.05
Simulation CPU 0 warning: IPC 0.034454 < 0.05
Simulation CPU 0 warning: IPC 0.03403 < 0.05
Simulation CPU 0 warning: IPC 0.034584 < 0.05
Simulation CPU 0 warning: IPC 0.035047 < 0.05
Simulation CPU 0 warning: IPC 0.034822 < 0.05
Simulation CPU 0 warning: IPC 0.036301 < 0.05
Simulation CPU 0 warning: IPC 0.037283 < 0.05
Simulation CPU 0 warning: IPC 0.038681 < 0.05
Simulation CPU 0 warning: IPC 0.037493 < 0.05
Simulation CPU 0 warning: IPC 0.036963 < 0.05
Simulation CPU 0 warning: IPC 0.033342 < 0.05
Simulation CPU 0 warning: IPC 0.034923 < 0.05
Simulation CPU 0 warning: IPC 0.036416 < 0.05
Simulation CPU 0 warning: IPC 0.038534 < 0.05
Simulation CPU 0 warning: IPC 0.037819 < 0.05
Simulation CPU 0 warning: IPC 0.037708 < 0.05
Simulation CPU 0 warning: IPC 0.034098 < 0.05
Simulation CPU 0 warning: IPC 0.036368 < 0.05
Simulation CPU 0 warning: IPC 0.036402 < 0.05
Simulation CPU 0 warning: IPC 0.036046 < 0.05
Simulation CPU 0 warning: IPC 0.032893 < 0.05
Simulation CPU 0 warning: IPC 0.033908 < 0.05
Simulation CPU 0 warning: IPC 0.033042 < 0.05
Simulation CPU 0 warning: IPC 0.036403 < 0.05
Simulation CPU 0 warning: IPC 0.03746 < 0.05
Simulation CPU 0 warning: IPC 0.041238 < 0.05
Simulation CPU 0 warning: IPC 0.03517 < 0.05
Simulation CPU 0 warning: IPC 0.038094 < 0.05
Simulation CPU 0 warning: IPC 0.038118 < 0.05
Simulation CPU 0 warning: IPC 0.03468 < 0.05
Simulation CPU 0 warning: IPC 0.033423 < 0.05
Simulation CPU 0 warning: IPC 0.037706 < 0.05
Simulation CPU 0 warning: IPC 0.038221 < 0.05
Simulation CPU 0 warning: IPC 0.037004 < 0.05
Simulation CPU 0 warning: IPC 0.038759 < 0.05
Simulation CPU 0 warning: IPC 0.037787 < 0.05
Simulation CPU 0 warning: IPC 0.039754 < 0.05
Simulation CPU 0 warning: IPC 0.037586 < 0.05
Simulation CPU 0 warning: IPC 0.036559 < 0.05
Simulation CPU 0 warning: IPC 0.035593 < 0.05
Simulation CPU 0 warning: IPC 0.037638 < 0.05
Simulation CPU 0 warning: IPC 0.038759 < 0.05
Simulation CPU 0 warning: IPC 0.03234 < 0.05
Simulation CPU 0 warning: IPC 0.030649 < 0.05
Simulation CPU 0 warning: IPC 0.029394 < 0.05
Simulation CPU 0 warning: IPC 0.033987 < 0.05
Simulation CPU 0 warning: IPC 0.032808 < 0.05
Simulation CPU 0 warning: IPC 0.039205 < 0.05
Simulation CPU 0 warning: IPC 0.028265 < 0.05
Simulation CPU 0 warning: IPC 0.031679 < 0.05
Simulation CPU 0 warning: IPC 0.031948 < 0.05
Simulation CPU 0 warning: IPC 0.03255 < 0.05
Simulation CPU 0 warning: IPC 0.028699 < 0.05
Simulation CPU 0 warning: IPC 0.029261 < 0.05
Simulation CPU 0 warning: IPC 0.031259 < 0.05
Simulation CPU 0 warning: IPC 0.035483 < 0.05
Simulation CPU 0 warning: IPC 0.038892 < 0.05
Simulation CPU 0 warning: IPC 0.036662 < 0.05
Simulation CPU 0 warning: IPC 0.02873 < 0.05
Simulation CPU 0 warning: IPC 0.033422 < 0.05
Simulation CPU 0 warning: IPC 0.03251 < 0.05
Simulation CPU 0 warning: IPC 0.031646 < 0.05
Simulation CPU 0 warning: IPC 0.03059 < 0.05
Simulation CPU 0 warning: IPC 0.034232 < 0.05
Simulation CPU 0 warning: IPC 0.038298 < 0.05
Simulation CPU 0 warning: IPC 0.041999 < 0.05
Simulation CPU 0 warning: IPC 0.033637 < 0.05
Simulation CPU 0 warning: IPC 0.028929 < 0.05
Simulation CPU 0 warning: IPC 0.028482 < 0.05
Simulation CPU 0 warning: IPC 0.031075 < 0.05
Simulation CPU 0 warning: IPC 0.029813 < 0.05
Simulation CPU 0 warning: IPC 0.029496 < 0.05
Simulation CPU 0 warning: IPC 0.030598 < 0.05
Simulation CPU 0 warning: IPC 0.030072 < 0.05
Simulation CPU 0 warning: IPC 0.038141 < 0.05
Simulation CPU 0 warning: IPC 0.039668 < 0.05
Simulation CPU 0 warning: IPC 0.036258 < 0.05
Simulation CPU 0 warning: IPC 0.037795 < 0.05
Simulation CPU 0 warning: IPC 0.042982 < 0.05
Simulation CPU 0 warning: IPC 0.041472 < 0.05
Simulation CPU 0 warning: IPC 0.042082 < 0.05
Simulation CPU 0 warning: IPC 0.040098 < 0.05
Simulation CPU 0 warning: IPC 0.037002 < 0.05
Simulation CPU 0 warning: IPC 0.036137 < 0.05
Simulation CPU 0 warning: IPC 0.033616 < 0.05
Simulation CPU 0 warning: IPC 0.035284 < 0.05
Simulation CPU 0 warning: IPC 0.035725 < 0.05
Simulation CPU 0 warning: IPC 0.034684 < 0.05
Simulation CPU 0 warning: IPC 0.033815 < 0.05
Simulation CPU 0 warning: IPC 0.031763 < 0.05
Simulation CPU 0 warning: IPC 0.032793 < 0.05
Simulation CPU 0 warning: IPC 0.033679 < 0.05
Simulation CPU 0 warning: IPC 0.03932 < 0.05
Simulation CPU 0 warning: IPC 0.036473 < 0.05
Simulation CPU 0 warning: IPC 0.036555 < 0.05
Simulation CPU 0 warning: IPC 0.036438 < 0.05
Simulation CPU 0 warning: IPC 0.035157 < 0.05
Simulation CPU 0 warning: IPC 0.035031 < 0.05
Simulation CPU 0 warning: IPC 0.035037 < 0.05
Simulation CPU 0 warning: IPC 0.034553 < 0.05
Simulation CPU 0 warning: IPC 0.034301 < 0.05
Simulation CPU 0 warning: IPC 0.034508 < 0.05
Simulation CPU 0 warning: IPC 0.033647 < 0.05
Simulation CPU 0 warning: IPC 0.033943 < 0.05
Simulation CPU 0 warning: IPC 0.033204 < 0.05
Simulation CPU 0 warning: IPC 0.034727 < 0.05
Simulation CPU 0 warning: IPC 0.032083 < 0.05
Simulation CPU 0 warning: IPC 0.033089 < 0.05
Simulation CPU 0 warning: IPC 0.036275 < 0.05
Simulation CPU 0 warning: IPC 0.033634 < 0.05
Simulation CPU 0 warning: IPC 0.035096 < 0.05
Simulation CPU 0 warning: IPC 0.033738 < 0.05
Simulation CPU 0 warning: IPC 0.031483 < 0.05
Simulation CPU 0 warning: IPC 0.032515 < 0.05
Simulation finished CPU 0 instructions: 50000003 cycles: 1413705963 cumulative IPC: 0.03537 (Simulation time: 02 hr 01 min 23 sec)
Simulation complete CPU 0 instructions: 50000003 cycles: 1413705963 cumulative IPC: 0.03537 (Simulation time: 02 hr 01 min 23 sec)

ChampSim completed all CPUs

=== Simulation ===
CPU 0 runs /data0/tzh/champsim_traces/GAP/gap.pr.twitter-10B.champsimtrace.xz

Region of Interest Statistics

CPU 0 cumulative IPC: 0.03537 instructions: 50000003 cycles: 1413705963
CPU 0 Branch Prediction Accuracy: 96.91% MPKI: 5.64 Average ROB Occupancy at Mispredict: 283
Branch type MPKI
BRANCH_DIRECT_JUMP: 0
BRANCH_INDIRECT: 0
BRANCH_CONDITIONAL: 5.64
BRANCH_DIRECT_CALL: 0
BRANCH_INDIRECT_CALL: 0
BRANCH_RETURN: 0

cpu0->cpu0_STLB TOTAL        ACCESS:    7633784 HIT:    7574464 MISS:      59320 MSHR_MERGE:          0
cpu0->cpu0_STLB LOAD         ACCESS:    7633784 HIT:    7574464 MISS:      59320 MSHR_MERGE:          0
cpu0->cpu0_STLB RFO          ACCESS:          0 HIT:          0 MISS:          0 MSHR_MERGE:          0
cpu0->cpu0_STLB PREFETCH     ACCESS:          0 HIT:          0 MISS:          0 MSHR_MERGE:          0
cpu0->cpu0_STLB WRITE        ACCESS:          0 HIT:          0 MISS:          0 MSHR_MERGE:          0
cpu0->cpu0_STLB TRANSLATION  ACCESS:          0 HIT:          0 MISS:          0 MSHR_MERGE:          0
cpu0->cpu0_STLB PREFETCH REQUESTED:          0 ISSUED:          0 USEFUL:          0 USELESS:          0 LATE:          0
cpu0->cpu0_STLB AVERAGE MISS LATENCY: 231.6 cycles
cpu0->cpu0_L2C TOTAL        ACCESS:   20964358 HIT:    5331589 MISS:   15632769 MSHR_MERGE:     857854
cpu0->cpu0_L2C LOAD         ACCESS:    7546533 HIT:    1063921 MISS:    6482612 MSHR_MERGE:      91385
cpu0->cpu0_L2C RFO          ACCESS:      20129 HIT:      15252 MISS:       4877 MSHR_MERGE:          3
cpu0->cpu0_L2C PREFETCH     ACCESS:   13277681 HIT:    4192690 MISS:    9084991 MSHR_MERGE:     766466
cpu0->cpu0_L2C WRITE        ACCESS:      43931 HIT:      43203 MISS:        728 MSHR_MERGE:          0
cpu0->cpu0_L2C TRANSLATION  ACCESS:      76084 HIT:      16523 MISS:      59561 MSHR_MERGE:          0
cpu0->cpu0_L2C PREFETCH REQUESTED:   12274998 ISSUED:   12263933 USEFUL:     889532 USELESS:    7081655 LATE:      91388
cpu0->cpu0_L2C AVERAGE MISS LATENCY: 188.3 cycles
cpu0->cpu0_L1I TOTAL        ACCESS:    5448817 HIT:    5448817 MISS:          0 MSHR_MERGE:          0
cpu0->cpu0_L1I LOAD         ACCESS:    5448817 HIT:    5448817 MISS:          0 MSHR_MERGE:          0
cpu0->cpu0_L1I RFO          ACCESS:          0 HIT:          0 MISS:          0 MSHR_MERGE:          0
cpu0->cpu0_L1I PREFETCH     ACCESS:          0 HIT:          0 MISS:          0 MSHR_MERGE:          0
cpu0->cpu0_L1I WRITE        ACCESS:          0 HIT:          0 MISS:          0 MSHR_MERGE:          0
cpu0->cpu0_L1I TRANSLATION  ACCESS:          0 HIT:          0 MISS:          0 MSHR_MERGE:          0
cpu0->cpu0_L1I PREFETCH REQUESTED:          0 ISSUED:          0 USEFUL:          0 USELESS:          0 LATE:          0
cpu0->cpu0_L1I AVERAGE MISS LATENCY: - cycles
cpu0->cpu0_L1D TOTAL        ACCESS:   20980458 HIT:   12267688 MISS:    8712770 MSHR_MERGE:      56292
cpu0->cpu0_L1D LOAD         ACCESS:   18838834 HIT:   11241691 MISS:    7597143 MSHR_MERGE:      50610
cpu0->cpu0_L1D RFO          ACCESS:          0 HIT:          0 MISS:          0 MSHR_MERGE:          0
cpu0->cpu0_L1D PREFETCH     ACCESS:    1149089 HIT:     131852 MISS:    1017237 MSHR_MERGE:       3505
cpu0->cpu0_L1D WRITE        ACCESS:     845642 HIT:     823381 MISS:      22261 MSHR_MERGE:       2132
cpu0->cpu0_L1D TRANSLATION  ACCESS:     146893 HIT:      70764 MISS:      76129 MSHR_MERGE:         45
cpu0->cpu0_L1D PREFETCH REQUESTED:    1149089 ISSUED:    1149089 USEFUL:     597927 USELESS:     415672 LATE:      24598
cpu0->cpu0_L1D AVERAGE MISS LATENCY: 169.9 cycles
cpu0->cpu0_ITLB TOTAL        ACCESS:    5448816 HIT:    5448816 MISS:          0 MSHR_MERGE:          0
cpu0->cpu0_ITLB LOAD         ACCESS:    5448816 HIT:    5448816 MISS:          0 MSHR_MERGE:          0
cpu0->cpu0_ITLB RFO          ACCESS:          0 HIT:          0 MISS:          0 MSHR_MERGE:          0
cpu0->cpu0_ITLB PREFETCH     ACCESS:          0 HIT:          0 MISS:          0 MSHR_MERGE:          0
cpu0->cpu0_ITLB WRITE        ACCESS:          0 HIT:          0 MISS:          0 MSHR_MERGE:          0
cpu0->cpu0_ITLB TRANSLATION  ACCESS:          0 HIT:          0 MISS:          0 MSHR_MERGE:          0
cpu0->cpu0_ITLB PREFETCH REQUESTED:          0 ISSUED:          0 USEFUL:          0 USELESS:          0 LATE:          0
cpu0->cpu0_ITLB AVERAGE MISS LATENCY: - cycles
cpu0->cpu0_DTLB TOTAL        ACCESS:   20827171 HIT:   13173896 MISS:    7653275 MSHR_MERGE:      19490
cpu0->cpu0_DTLB LOAD         ACCESS:   20827171 HIT:   13173896 MISS:    7653275 MSHR_MERGE:      19490
cpu0->cpu0_DTLB RFO          ACCESS:          0 HIT:          0 MISS:          0 MSHR_MERGE:          0
cpu0->cpu0_DTLB PREFETCH     ACCESS:          0 HIT:          0 MISS:          0 MSHR_MERGE:          0
cpu0->cpu0_DTLB WRITE        ACCESS:          0 HIT:          0 MISS:          0 MSHR_MERGE:          0
cpu0->cpu0_DTLB TRANSLATION  ACCESS:          0 HIT:          0 MISS:          0 MSHR_MERGE:          0
cpu0->cpu0_DTLB PREFETCH REQUESTED:          0 ISSUED:          0 USEFUL:          0 USELESS:          0 LATE:          0
cpu0->cpu0_DTLB AVERAGE MISS LATENCY: 6.81 cycles
cpu0->LLC TOTAL        ACCESS:   14810161 HIT:    1297123 MISS:   13513038 MSHR_MERGE:          0
cpu0->LLC LOAD         ACCESS:    6391227 HIT:     616484 MISS:    5774743 MSHR_MERGE:          0
cpu0->LLC RFO          ACCESS:       4874 HIT:       1479 MISS:       3395 MSHR_MERGE:          0
cpu0->LLC PREFETCH     ACCESS:    8318525 HIT:     657975 MISS:    7660550 MSHR_MERGE:          0
cpu0->LLC WRITE        ACCESS:      35974 HIT:       8912 MISS:      27062 MSHR_MERGE:          0
cpu0->LLC TRANSLATION  ACCESS:      59561 HIT:      12273 MISS:      47288 MSHR_MERGE:          0
cpu0->LLC PREFETCH REQUESTED:          0 ISSUED:          0 USEFUL:          0 USELESS:          0 LATE:          0
cpu0->LLC AVERAGE MISS LATENCY: 191.7 cycles

DRAM Statistics

Channel 0 RQ ROW_BUFFER_HIT:     260468
  ROW_BUFFER_MISS:   13225478
  AVG DBUS CONGESTED CYCLE: 5.578
Channel 0 WQ ROW_BUFFER_HIT:      13610
  ROW_BUFFER_MISS:      21858
  FULL:          0
Channel 0 REFRESHES ISSUED:     117809

[ROI Statistics]
[System Configuration]
num_cpus 1
cpu_freq 4000
fetch_width 6
decode_width 6
dispatch_width 6
execute_width 6
lq_width 2
sq_width 2
retire_width 6
scheduler_size 128
branch_mispredict_penalty 15
rob_size 352
lq_size 128
sq_size 72
ifetch_buffer_size 64
decode_buffer_size 32
dispatch_buffer_size 32
register_file_size 288
decode_latency 1
dispatch_latency 1
schedule_latency 1
execute_latency 1
page_size 4096
block_size 64
core_0_itlb_set 16
core_0_itlb_way 4
core_0_itlb_rq_size 16
core_0_itlb_wq_size 16
core_0_itlb_pq_size 0
core_0_itlb_mshr_size 8
core_0_itlb_hit_latency 1
core_0_itlb_fill_latency 1
core_0_itlb_max_tag_check 2
core_0_itlb_max_fill 2
core_0_dtlb_set 16
core_0_dtlb_way 4
core_0_dtlb_rq_size 16
core_0_dtlb_wq_size 16
core_0_dtlb_pq_size 0
core_0_dtlb_mshr_size 8
core_0_dtlb_hit_latency 1
core_0_dtlb_fill_latency 1
core_0_dtlb_max_tag_check 2
core_0_dtlb_max_fill 2
core_0_stlb_set 128
core_0_stlb_way 12
core_0_stlb_rq_size 32
core_0_stlb_wq_size 32
core_0_stlb_pq_size 0
core_0_stlb_mshr_size 16
core_0_stlb_hit_latency 4
core_0_stlb_fill_latency 4
core_0_stlb_max_tag_check 1
core_0_stlb_max_fill 1
core_0_l1i_set 64
core_0_l1i_way 8
core_0_l1i_rq_size 64
core_0_l1i_wq_size 64
core_0_l1i_pq_size 32
core_0_l1i_mshr_size 8
core_0_l1i_hit_latency 2
core_0_l1i_fill_latency 2
core_0_l1i_max_tag_check 2
core_0_l1i_max_fill 2
core_0_l1d_set 64
core_0_l1d_way 12
core_0_l1d_rq_size 64
core_0_l1d_wq_size 64
core_0_l1d_pq_size 8
core_0_l1d_mshr_size 16
core_0_l1d_hit_latency 2
core_0_l1d_fill_latency 3
core_0_l1d_max_tag_check 2
core_0_l1d_max_fill 2
core_0_l2c_set 1024
core_0_l2c_way 8
core_0_l2c_rq_size 32
core_0_l2c_wq_size 32
core_0_l2c_pq_size 16
core_0_l2c_mshr_size 32
core_0_l2c_hit_latency 5
core_0_l2c_fill_latency 5
core_0_l2c_max_tag_check 1
core_0_l2c_max_fill 1
llc_set 2048
llc_way 16
llc_rq_size 32
llc_wq_size 32
llc_pq_size 32
llc_mshr_size 64
llc_hit_latency 10
llc_fill_latency 10
llc_max_tag_check 1
llc_max_fill 1
dram_channels 1
dram_ranks 1
dram_bankgroups 8
dram_banks 4
dram_rows 65536
dram_columns 1024
dram_channel_width 8
dram_rq_size 64
dram_wq_size 64
dram_size 17179869184
core_0_itlb_prefetcher no
core_0_dtlb_prefetcher no
core_0_stlb_prefetcher no
core_0_l1i_prefetcher next_line
core_0_l1d_prefetcher berti
core_0_l2c_prefetcher pythia
llc_prefetcher no
llc_replacement drrip

Core_0_instructions 50000003
Core_0_cycles 1413705963
Core_0_IPC 0.035368
Core_0_branch_prediction_accuracy 96.9106
Core_0_branch_MPKI 5.64014
Core_0_average_ROB_occupancy_at_mispredict 282.972

Core_0_ITLB_total_access 5448816
Core_0_ITLB_total_hit 5448816
Core_0_ITLB_total_miss 0
Core_0_ITLB_total_MPKI 0
Core_0_ITLB_total_miss_rate 0
Core_0_ITLB_demand_access 5448816
Core_0_ITLB_demand_hit 5448816
Core_0_ITLB_demand_miss 0
Core_0_ITLB_demand_MPKI 0
Core_0_ITLB_demand_miss_rate 0
Core_0_ITLB_load_access 5448816
Core_0_ITLB_load_hit 5448816
Core_0_ITLB_load_miss 0
Core_0_ITLB_load_MPKI 0
Core_0_ITLB_load_miss_rate 0
Core_0_ITLB_rfo_access 0
Core_0_ITLB_rfo_hit 0
Core_0_ITLB_rfo_miss 0
Core_0_ITLB_rfo_MPKI 0
Core_0_ITLB_rfo_miss_rate 0
Core_0_ITLB_prefetch_access 0
Core_0_ITLB_prefetch_hit 0
Core_0_ITLB_prefetch_miss 0
Core_0_ITLB_prefetch_MPKI 0
Core_0_ITLB_prefetch_miss_rate 0
Core_0_ITLB_writeback_access 0
Core_0_ITLB_writeback_hit 0
Core_0_ITLB_writeback_miss 0
Core_0_ITLB_writeback_MPKI 0
Core_0_ITLB_writeback_miss_rate 0
Core_0_ITLB_prefetch_requested 0
Core_0_ITLB_prefetch_issued 0
Core_0_ITLB_prefetch_useful 0
Core_0_ITLB_prefetch_useless 0
Core_0_ITLB_prefetch_late 0
Core_0_ITLB_prefetch_accuracy 0
Core_0_ITLB_prefetch_coverage 0

Core_0_DTLB_total_access 20827171
Core_0_DTLB_total_hit 13173896
Core_0_DTLB_total_miss 7653275
Core_0_DTLB_total_MPKI 153.065
Core_0_DTLB_total_miss_rate 0.367466
Core_0_DTLB_demand_access 20827171
Core_0_DTLB_demand_hit 13173896
Core_0_DTLB_demand_miss 7653275
Core_0_DTLB_demand_MPKI 153.065
Core_0_DTLB_demand_miss_rate 0.367466
Core_0_DTLB_load_access 20827171
Core_0_DTLB_load_hit 13173896
Core_0_DTLB_load_miss 7653275
Core_0_DTLB_load_MPKI 153.065
Core_0_DTLB_load_miss_rate 0.367466
Core_0_DTLB_rfo_access 0
Core_0_DTLB_rfo_hit 0
Core_0_DTLB_rfo_miss 0
Core_0_DTLB_rfo_MPKI 0
Core_0_DTLB_rfo_miss_rate 0
Core_0_DTLB_prefetch_access 0
Core_0_DTLB_prefetch_hit 0
Core_0_DTLB_prefetch_miss 0
Core_0_DTLB_prefetch_MPKI 0
Core_0_DTLB_prefetch_miss_rate 0
Core_0_DTLB_writeback_access 0
Core_0_DTLB_writeback_hit 0
Core_0_DTLB_writeback_miss 0
Core_0_DTLB_writeback_MPKI 0
Core_0_DTLB_writeback_miss_rate 0
Core_0_DTLB_prefetch_requested 0
Core_0_DTLB_prefetch_issued 0
Core_0_DTLB_prefetch_useful 0
Core_0_DTLB_prefetch_useless 0
Core_0_DTLB_prefetch_late 0
Core_0_DTLB_prefetch_accuracy 0
Core_0_DTLB_prefetch_coverage 0

Core_0_STLB_total_access 7633784
Core_0_STLB_total_hit 7574464
Core_0_STLB_total_miss 59320
Core_0_STLB_total_MPKI 1.1864
Core_0_STLB_total_miss_rate 0.00777072
Core_0_STLB_demand_access 7633784
Core_0_STLB_demand_hit 7574464
Core_0_STLB_demand_miss 59320
Core_0_STLB_demand_MPKI 1.1864
Core_0_STLB_demand_miss_rate 0.00777072
Core_0_STLB_load_access 7633784
Core_0_STLB_load_hit 7574464
Core_0_STLB_load_miss 59320
Core_0_STLB_load_MPKI 1.1864
Core_0_STLB_load_miss_rate 0.00777072
Core_0_STLB_rfo_access 0
Core_0_STLB_rfo_hit 0
Core_0_STLB_rfo_miss 0
Core_0_STLB_rfo_MPKI 0
Core_0_STLB_rfo_miss_rate 0
Core_0_STLB_prefetch_access 0
Core_0_STLB_prefetch_hit 0
Core_0_STLB_prefetch_miss 0
Core_0_STLB_prefetch_MPKI 0
Core_0_STLB_prefetch_miss_rate 0
Core_0_STLB_writeback_access 0
Core_0_STLB_writeback_hit 0
Core_0_STLB_writeback_miss 0
Core_0_STLB_writeback_MPKI 0
Core_0_STLB_writeback_miss_rate 0
Core_0_STLB_prefetch_requested 0
Core_0_STLB_prefetch_issued 0
Core_0_STLB_prefetch_useful 0
Core_0_STLB_prefetch_useless 0
Core_0_STLB_prefetch_late 0
Core_0_STLB_prefetch_accuracy 0
Core_0_STLB_prefetch_coverage 0

Core_0_L1I_total_access 5448817
Core_0_L1I_total_hit 5448817
Core_0_L1I_total_miss 0
Core_0_L1I_total_MPKI 0
Core_0_L1I_total_miss_rate 0
Core_0_L1I_demand_access 5448817
Core_0_L1I_demand_hit 5448817
Core_0_L1I_demand_miss 0
Core_0_L1I_demand_MPKI 0
Core_0_L1I_demand_miss_rate 0
Core_0_L1I_load_access 5448817
Core_0_L1I_load_hit 5448817
Core_0_L1I_load_miss 0
Core_0_L1I_load_MPKI 0
Core_0_L1I_load_miss_rate 0
Core_0_L1I_rfo_access 0
Core_0_L1I_rfo_hit 0
Core_0_L1I_rfo_miss 0
Core_0_L1I_rfo_MPKI 0
Core_0_L1I_rfo_miss_rate 0
Core_0_L1I_prefetch_access 0
Core_0_L1I_prefetch_hit 0
Core_0_L1I_prefetch_miss 0
Core_0_L1I_prefetch_MPKI 0
Core_0_L1I_prefetch_miss_rate 0
Core_0_L1I_writeback_access 0
Core_0_L1I_writeback_hit 0
Core_0_L1I_writeback_miss 0
Core_0_L1I_writeback_MPKI 0
Core_0_L1I_writeback_miss_rate 0
Core_0_L1I_prefetch_requested 0
Core_0_L1I_prefetch_issued 0
Core_0_L1I_prefetch_useful 0
Core_0_L1I_prefetch_useless 0
Core_0_L1I_prefetch_late 0
Core_0_L1I_prefetch_accuracy 0
Core_0_L1I_prefetch_coverage 0

Core_0_L1D_total_access 20833565
Core_0_L1D_total_hit 12196924
Core_0_L1D_total_miss 8636641
Core_0_L1D_total_MPKI 172.733
Core_0_L1D_total_miss_rate 0.414554
Core_0_L1D_demand_access 18838834
Core_0_L1D_demand_hit 11241691
Core_0_L1D_demand_miss 7597143
Core_0_L1D_demand_MPKI 151.943
Core_0_L1D_demand_miss_rate 0.40327
Core_0_L1D_load_access 18838834
Core_0_L1D_load_hit 11241691
Core_0_L1D_load_miss 7597143
Core_0_L1D_load_MPKI 151.943
Core_0_L1D_load_miss_rate 0.40327
Core_0_L1D_rfo_access 0
Core_0_L1D_rfo_hit 0
Core_0_L1D_rfo_miss 0
Core_0_L1D_rfo_MPKI 0
Core_0_L1D_rfo_miss_rate 0
Core_0_L1D_prefetch_access 1149089
Core_0_L1D_prefetch_hit 131852
Core_0_L1D_prefetch_miss 1017237
Core_0_L1D_prefetch_MPKI 20.3447
Core_0_L1D_prefetch_miss_rate 0.885255
Core_0_L1D_writeback_access 845642
Core_0_L1D_writeback_hit 823381
Core_0_L1D_writeback_miss 22261
Core_0_L1D_writeback_MPKI 0.44522
Core_0_L1D_writeback_miss_rate 0.0263244
Core_0_L1D_prefetch_requested 1149089
Core_0_L1D_prefetch_issued 1149089
Core_0_L1D_prefetch_useful 597927
Core_0_L1D_prefetch_useless 415672
Core_0_L1D_prefetch_late 24598
Core_0_L1D_prefetch_accuracy 0.520349
Core_0_L1D_prefetch_coverage 0.0729618

Core_0_L2C_total_access 20888274
Core_0_L2C_total_hit 5315066
Core_0_L2C_total_miss 15573208
Core_0_L2C_total_MPKI 311.464
Core_0_L2C_total_miss_rate 0.745548
Core_0_L2C_demand_access 7566662
Core_0_L2C_demand_hit 1079173
Core_0_L2C_demand_miss 6487489
Core_0_L2C_demand_MPKI 129.75
Core_0_L2C_demand_miss_rate 0.857378
Core_0_L2C_load_access 7546533
Core_0_L2C_load_hit 1063921
Core_0_L2C_load_miss 6482612
Core_0_L2C_load_MPKI 129.652
Core_0_L2C_load_miss_rate 0.859019
Core_0_L2C_rfo_access 20129
Core_0_L2C_rfo_hit 15252
Core_0_L2C_rfo_miss 4877
Core_0_L2C_rfo_MPKI 0.09754
Core_0_L2C_rfo_miss_rate 0.242287
Core_0_L2C_prefetch_access 13277681
Core_0_L2C_prefetch_hit 4192690
Core_0_L2C_prefetch_miss 9084991
Core_0_L2C_prefetch_MPKI 181.7
Core_0_L2C_prefetch_miss_rate 0.68423
Core_0_L2C_writeback_access 43931
Core_0_L2C_writeback_hit 43203
Core_0_L2C_writeback_miss 728
Core_0_L2C_writeback_MPKI 0.01456
Core_0_L2C_writeback_miss_rate 0.0165714
Core_0_L2C_prefetch_requested 12274998
Core_0_L2C_prefetch_issued 12263933
Core_0_L2C_prefetch_useful 889532
Core_0_L2C_prefetch_useless 7081655
Core_0_L2C_prefetch_late 91388
Core_0_L2C_prefetch_accuracy 0.0725324
Core_0_L2C_prefetch_coverage 0.120581

Core_0_LLC_total_access 14750600
Core_0_LLC_total_hit 1284850
Core_0_LLC_total_miss 13465750
Core_0_LLC_total_MPKI 269.315
Core_0_LLC_total_miss_rate 0.912895
Core_0_LLC_demand_access 6396101
Core_0_LLC_demand_hit 617963
Core_0_LLC_demand_miss 5778138
Core_0_LLC_demand_MPKI 115.563
Core_0_LLC_demand_miss_rate 0.903384
Core_0_LLC_load_access 6391227
Core_0_LLC_load_hit 616484
Core_0_LLC_load_miss 5774743
Core_0_LLC_load_MPKI 115.495
Core_0_LLC_load_miss_rate 0.903542
Core_0_LLC_rfo_access 4874
Core_0_LLC_rfo_hit 1479
Core_0_LLC_rfo_miss 3395
Core_0_LLC_rfo_MPKI 0.0679
Core_0_LLC_rfo_miss_rate 0.696553
Core_0_LLC_prefetch_access 8318525
Core_0_LLC_prefetch_hit 657975
Core_0_LLC_prefetch_miss 7660550
Core_0_LLC_prefetch_MPKI 153.211
Core_0_LLC_prefetch_miss_rate 0.920902
Core_0_LLC_writeback_access 35974
Core_0_LLC_writeback_hit 8912
Core_0_LLC_writeback_miss 27062
Core_0_LLC_writeback_MPKI 0.54124
Core_0_LLC_writeback_miss_rate 0.752266
Core_0_LLC_prefetch_requested 0
Core_0_LLC_prefetch_issued 0
Core_0_LLC_prefetch_useful 0
Core_0_LLC_prefetch_useless 0
Core_0_LLC_prefetch_late 0
Core_0_LLC_prefetch_accuracy 0
Core_0_LLC_prefetch_coverage 0

[DRAM Statistics]
Channel_0_RQ_row_buffer_hit 260468
Channel_0_RQ_row_buffer_miss 13225478
Channel_0_WQ_row_buffer_hit 13610
Channel_0_WQ_row_buffer_miss 21858
Channel_0_WQ_full 0
Channel_0_dbus_congested 14416136
DRAM_total_RQ_row_buffer_hit 260468
DRAM_total_RQ_row_buffer_miss 13225478
DRAM_total_WQ_row_buffer_hit 13610
DRAM_total_WQ_row_buffer_miss 21858
DRAM_total_WQ_full 0
DRAM_total_dbus_congested 14416136
DRAM_avg_congested_cycle 5.57819

======STLB miss causes ========
Core_0_STLB_miss_cause_breakdown
Core_0_STLB_cause_Demand_Data_miss 0
Core_0_STLB_cause_Demand_Data_miss_rate 0
Core_0_STLB_cause_Demand_Instruction_miss 0
Core_0_STLB_cause_Demand_Instruction_miss_rate 0
Core_0_STLB_cause_L1D_Prefetch_miss 59320
Core_0_STLB_cause_L1D_Prefetch_miss_rate 0.00777072
Core_0_STLB_cause_L1I_Prefetch_miss 0
Core_0_STLB_cause_L1I_Prefetch_miss_rate 0
Core_0_STLB_cause_Other_miss 0
Core_0_STLB_cause_Other_miss_rate 0
Core_0_STLB_Demand_miss 0
Core_0_STLB_Demand_miss_rate 0
Core_0_STLB_L1D_Prefetch_miss 59320
Core_0_STLB_L1D_Prefetch_miss_rate 0.00777072
Core_0_STLB_Other_miss 0
Core_0_STLB_Other_miss_rate 0
