[VMEM] WARNING: physical memory size is smaller than virtual memory size.

*** ChampSim Multicore Out-of-Order Simulator ***
Warmup Instructions: 20000000
Simulation Instructions: 50000000
Number of CPUs: 1
Page size: 4096
STLB ideal mode: demand
Core 0: /data0/tzh/champsim_traces/Ligra/ligra_BellmanFord.com-lj.ungraph.gcc_6.3.0_O3.drop_33750M.length_250M.champsimtrace.xz
 L1D Berti prefetcher
Off-chip DRAM Size: 16 GiB Channels: 1 Width: 64-bit Data Rate: 3205 MT/s
Warmup halting CPU 0 at instruction 20000000 cycle 4153497 for remainder of phase
Warmup finished CPU 0 instructions: 20000000 cycles: 4153497 cumulative IPC: 4.815 (Simulation time: 00 hr 00 min 58 sec)
Warmup complete CPU 0 instructions: 20000000 cycles: 4153497 cumulative IPC: 4.815 (Simulation time: 00 hr 00 min 58 sec)
Simulation finished CPU 0 instructions: 50000001 cycles: 96776299 cumulative IPC: 0.5167 (Simulation time: 00 hr 09 min 07 sec)
Simulation complete CPU 0 instructions: 50000001 cycles: 96776299 cumulative IPC: 0.5167 (Simulation time: 00 hr 09 min 07 sec)

ChampSim completed all CPUs

=== Simulation ===
CPU 0 runs /data0/tzh/champsim_traces/Ligra/ligra_BellmanFord.com-lj.ungraph.gcc_6.3.0_O3.drop_33750M.length_250M.champsimtrace.xz

Region of Interest Statistics

CPU 0 cumulative IPC: 0.5167 instructions: 50000001 cycles: 96776299
CPU 0 Branch Prediction Accuracy: 93.04% MPKI: 9.926 Average ROB Occupancy at Mispredict: 51.74
Branch type MPKI
BRANCH_DIRECT_JUMP: 0.4477
BRANCH_INDIRECT: 0
BRANCH_CONDITIONAL: 9.478
BRANCH_DIRECT_CALL: 0
BRANCH_INDIRECT_CALL: 0
BRANCH_RETURN: 0

cpu0->cpu0_STLB TOTAL        ACCESS:    1004931 HIT:     995168 MISS:       9763 MSHR_MERGE:          0
cpu0->cpu0_STLB LOAD         ACCESS:    1004931 HIT:     995168 MISS:       9763 MSHR_MERGE:          0
cpu0->cpu0_STLB RFO          ACCESS:          0 HIT:          0 MISS:          0 MSHR_MERGE:          0
cpu0->cpu0_STLB PREFETCH     ACCESS:          0 HIT:          0 MISS:          0 MSHR_MERGE:          0
cpu0->cpu0_STLB WRITE        ACCESS:          0 HIT:          0 MISS:          0 MSHR_MERGE:          0
cpu0->cpu0_STLB TRANSLATION  ACCESS:          0 HIT:          0 MISS:          0 MSHR_MERGE:          0
cpu0->cpu0_STLB PREFETCH REQUESTED:          0 ISSUED:          0 USEFUL:          0 USELESS:          0 LATE:          0
cpu0->cpu0_STLB AVERAGE MISS LATENCY: 299.5 cycles
cpu0->cpu0_L2C TOTAL        ACCESS:    6672684 HIT:    2780700 MISS:    3891984 MSHR_MERGE:     920087
cpu0->cpu0_L2C LOAD         ACCESS:    1333380 HIT:     318177 MISS:    1015203 MSHR_MERGE:      30761
cpu0->cpu0_L2C RFO          ACCESS:      39831 HIT:       3473 MISS:      36358 MSHR_MERGE:          0
cpu0->cpu0_L2C PREFETCH     ACCESS:    5157852 HIT:    2323523 MISS:    2834329 MSHR_MERGE:     889326
cpu0->cpu0_L2C WRITE        ACCESS:     134355 HIT:     134331 MISS:         24 MSHR_MERGE:          0
cpu0->cpu0_L2C TRANSLATION  ACCESS:       7266 HIT:       1196 MISS:       6070 MSHR_MERGE:          0
cpu0->cpu0_L2C PREFETCH REQUESTED:    4584346 ISSUED:    4494709 USEFUL:     611286 USELESS:    1172648 LATE:      30761
cpu0->cpu0_L2C AVERAGE MISS LATENCY: 209.5 cycles
cpu0->cpu0_L1I TOTAL        ACCESS:    1002272 HIT:    1002270 MISS:          2 MSHR_MERGE:          0
cpu0->cpu0_L1I LOAD         ACCESS:    1002272 HIT:    1002270 MISS:          2 MSHR_MERGE:          0
cpu0->cpu0_L1I RFO          ACCESS:          0 HIT:          0 MISS:          0 MSHR_MERGE:          0
cpu0->cpu0_L1I PREFETCH     ACCESS:          0 HIT:          0 MISS:          0 MSHR_MERGE:          0
cpu0->cpu0_L1I WRITE        ACCESS:          0 HIT:          0 MISS:          0 MSHR_MERGE:          0
cpu0->cpu0_L1I TRANSLATION  ACCESS:          0 HIT:          0 MISS:          0 MSHR_MERGE:          0
cpu0->cpu0_L1I PREFETCH REQUESTED:          0 ISSUED:          0 USEFUL:          0 USELESS:          0 LATE:          0
cpu0->cpu0_L1I AVERAGE MISS LATENCY: 196 cycles
cpu0->cpu0_L1D TOTAL        ACCESS:   12908300 HIT:   10240519 MISS:    2667781 MSHR_MERGE:     624164
cpu0->cpu0_L1D LOAD         ACCESS:   11871410 HIT:    9936415 MISS:    1934995 MSHR_MERGE:     601618
cpu0->cpu0_L1D RFO          ACCESS:          0 HIT:          0 MISS:          0 MSHR_MERGE:          0
cpu0->cpu0_L1D PREFETCH     ACCESS:     789256 HIT:     116390 MISS:     672866 MSHR_MERGE:       9723
cpu0->cpu0_L1D WRITE        ACCESS:     228077 HIT:     175426 MISS:      52651 MSHR_MERGE:      12820
cpu0->cpu0_L1D TRANSLATION  ACCESS:      19557 HIT:      12288 MISS:       7269 MSHR_MERGE:          3
cpu0->cpu0_L1D PREFETCH REQUESTED:     789875 ISSUED:     789250 USEFUL:     410441 USELESS:     252726 LATE:      30210
cpu0->cpu0_L1D AVERAGE MISS LATENCY: 169 cycles
cpu0->cpu0_ITLB TOTAL        ACCESS:    1002269 HIT:    1002269 MISS:          0 MSHR_MERGE:          0
cpu0->cpu0_ITLB LOAD         ACCESS:    1002269 HIT:    1002269 MISS:          0 MSHR_MERGE:          0
cpu0->cpu0_ITLB RFO          ACCESS:          0 HIT:          0 MISS:          0 MSHR_MERGE:          0
cpu0->cpu0_ITLB PREFETCH     ACCESS:          0 HIT:          0 MISS:          0 MSHR_MERGE:          0
cpu0->cpu0_ITLB WRITE        ACCESS:          0 HIT:          0 MISS:          0 MSHR_MERGE:          0
cpu0->cpu0_ITLB TRANSLATION  ACCESS:          0 HIT:          0 MISS:          0 MSHR_MERGE:          0
cpu0->cpu0_ITLB PREFETCH REQUESTED:          0 ISSUED:          0 USEFUL:          0 USELESS:          0 LATE:          0
cpu0->cpu0_ITLB AVERAGE MISS LATENCY: - cycles
cpu0->cpu0_DTLB TOTAL        ACCESS:   12670389 HIT:   11562883 MISS:    1107506 MSHR_MERGE:     102575
cpu0->cpu0_DTLB LOAD         ACCESS:   12670389 HIT:   11562883 MISS:    1107506 MSHR_MERGE:     102575
cpu0->cpu0_DTLB RFO          ACCESS:          0 HIT:          0 MISS:          0 MSHR_MERGE:          0
cpu0->cpu0_DTLB PREFETCH     ACCESS:          0 HIT:          0 MISS:          0 MSHR_MERGE:          0
cpu0->cpu0_DTLB WRITE        ACCESS:          0 HIT:          0 MISS:          0 MSHR_MERGE:          0
cpu0->cpu0_DTLB TRANSLATION  ACCESS:          0 HIT:          0 MISS:          0 MSHR_MERGE:          0
cpu0->cpu0_DTLB PREFETCH REQUESTED:          0 ISSUED:          0 USEFUL:          0 USELESS:          0 LATE:          0
cpu0->cpu0_DTLB AVERAGE MISS LATENCY: 7.921 cycles
cpu0->LLC TOTAL        ACCESS:    3096116 HIT:     600163 MISS:    2495953 MSHR_MERGE:          0
cpu0->LLC LOAD         ACCESS:     984442 HIT:     246944 MISS:     737498 MSHR_MERGE:          0
cpu0->LLC RFO          ACCESS:      36358 HIT:       2912 MISS:      33446 MSHR_MERGE:          0
cpu0->LLC PREFETCH     ACCESS:    1945003 HIT:     317451 MISS:    1627552 MSHR_MERGE:          0
cpu0->LLC WRITE        ACCESS:     124243 HIT:      32409 MISS:      91834 MSHR_MERGE:          0
cpu0->LLC TRANSLATION  ACCESS:       6070 HIT:        447 MISS:       5623 MSHR_MERGE:          0
cpu0->LLC PREFETCH REQUESTED:          0 ISSUED:          0 USEFUL:          0 USELESS:          0 LATE:          0
cpu0->LLC AVERAGE MISS LATENCY: 231.2 cycles

DRAM Statistics

Channel 0 RQ ROW_BUFFER_HIT:      29078
  ROW_BUFFER_MISS:    2374927
  AVG DBUS CONGESTED CYCLE: 5.367
Channel 0 WQ ROW_BUFFER_HIT:      34820
  ROW_BUFFER_MISS:      74128
  FULL:          0
Channel 0 REFRESHES ISSUED:       8064

[ROI Statistics]
[System Configuration]
num_cpus 1
cpu_freq 4000
fetch_width 6
decode_width 6
dispatch_width 6
execute_width 6
lq_width 2
sq_width 2
retire_width 6
scheduler_size 128
branch_mispredict_penalty 15
rob_size 352
lq_size 128
sq_size 72
ifetch_buffer_size 64
decode_buffer_size 32
dispatch_buffer_size 32
register_file_size 288
decode_latency 1
dispatch_latency 1
schedule_latency 1
execute_latency 1
page_size 4096
block_size 64
core_0_itlb_set 16
core_0_itlb_way 4
core_0_itlb_rq_size 16
core_0_itlb_wq_size 16
core_0_itlb_pq_size 0
core_0_itlb_mshr_size 8
core_0_itlb_hit_latency 1
core_0_itlb_fill_latency 1
core_0_itlb_max_tag_check 2
core_0_itlb_max_fill 2
core_0_dtlb_set 16
core_0_dtlb_way 4
core_0_dtlb_rq_size 16
core_0_dtlb_wq_size 16
core_0_dtlb_pq_size 0
core_0_dtlb_mshr_size 8
core_0_dtlb_hit_latency 1
core_0_dtlb_fill_latency 1
core_0_dtlb_max_tag_check 2
core_0_dtlb_max_fill 2
core_0_stlb_set 128
core_0_stlb_way 12
core_0_stlb_rq_size 32
core_0_stlb_wq_size 32
core_0_stlb_pq_size 0
core_0_stlb_mshr_size 16
core_0_stlb_hit_latency 4
core_0_stlb_fill_latency 4
core_0_stlb_max_tag_check 1
core_0_stlb_max_fill 1
core_0_l1i_set 64
core_0_l1i_way 8
core_0_l1i_rq_size 64
core_0_l1i_wq_size 64
core_0_l1i_pq_size 32
core_0_l1i_mshr_size 8
core_0_l1i_hit_latency 2
core_0_l1i_fill_latency 2
core_0_l1i_max_tag_check 2
core_0_l1i_max_fill 2
core_0_l1d_set 64
core_0_l1d_way 12
core_0_l1d_rq_size 64
core_0_l1d_wq_size 64
core_0_l1d_pq_size 8
core_0_l1d_mshr_size 16
core_0_l1d_hit_latency 2
core_0_l1d_fill_latency 3
core_0_l1d_max_tag_check 2
core_0_l1d_max_fill 2
core_0_l2c_set 1024
core_0_l2c_way 8
core_0_l2c_rq_size 32
core_0_l2c_wq_size 32
core_0_l2c_pq_size 16
core_0_l2c_mshr_size 32
core_0_l2c_hit_latency 5
core_0_l2c_fill_latency 5
core_0_l2c_max_tag_check 1
core_0_l2c_max_fill 1
llc_set 2048
llc_way 16
llc_rq_size 32
llc_wq_size 32
llc_pq_size 32
llc_mshr_size 64
llc_hit_latency 10
llc_fill_latency 10
llc_max_tag_check 1
llc_max_fill 1
dram_channels 1
dram_ranks 1
dram_bankgroups 8
dram_banks 4
dram_rows 65536
dram_columns 1024
dram_channel_width 8
dram_rq_size 64
dram_wq_size 64
dram_size 17179869184
core_0_itlb_prefetcher no
core_0_dtlb_prefetcher no
core_0_stlb_prefetcher no
core_0_l1i_prefetcher next_line
core_0_l1d_prefetcher berti
core_0_l2c_prefetcher pythia
llc_prefetcher no
llc_replacement drrip

Core_0_instructions 50000001
Core_0_cycles 96776299
Core_0_IPC 0.516655
Core_0_branch_prediction_accuracy 93.0446
Core_0_branch_MPKI 9.92622
Core_0_average_ROB_occupancy_at_mispredict 51.7385

Core_0_ITLB_total_access 1002269
Core_0_ITLB_total_hit 1002269
Core_0_ITLB_total_miss 0
Core_0_ITLB_total_MPKI 0
Core_0_ITLB_total_miss_rate 0
Core_0_ITLB_demand_access 1002269
Core_0_ITLB_demand_hit 1002269
Core_0_ITLB_demand_miss 0
Core_0_ITLB_demand_MPKI 0
Core_0_ITLB_demand_miss_rate 0
Core_0_ITLB_load_access 1002269
Core_0_ITLB_load_hit 1002269
Core_0_ITLB_load_miss 0
Core_0_ITLB_load_MPKI 0
Core_0_ITLB_load_miss_rate 0
Core_0_ITLB_rfo_access 0
Core_0_ITLB_rfo_hit 0
Core_0_ITLB_rfo_miss 0
Core_0_ITLB_rfo_MPKI 0
Core_0_ITLB_rfo_miss_rate 0
Core_0_ITLB_prefetch_access 0
Core_0_ITLB_prefetch_hit 0
Core_0_ITLB_prefetch_miss 0
Core_0_ITLB_prefetch_MPKI 0
Core_0_ITLB_prefetch_miss_rate 0
Core_0_ITLB_writeback_access 0
Core_0_ITLB_writeback_hit 0
Core_0_ITLB_writeback_miss 0
Core_0_ITLB_writeback_MPKI 0
Core_0_ITLB_writeback_miss_rate 0
Core_0_ITLB_prefetch_requested 0
Core_0_ITLB_prefetch_issued 0
Core_0_ITLB_prefetch_useful 0
Core_0_ITLB_prefetch_useless 0
Core_0_ITLB_prefetch_late 0
Core_0_ITLB_prefetch_accuracy 0
Core_0_ITLB_prefetch_coverage 0

Core_0_DTLB_total_access 12670389
Core_0_DTLB_total_hit 11562883
Core_0_DTLB_total_miss 1107506
Core_0_DTLB_total_MPKI 22.1501
Core_0_DTLB_total_miss_rate 0.087409
Core_0_DTLB_demand_access 12670389
Core_0_DTLB_demand_hit 11562883
Core_0_DTLB_demand_miss 1107506
Core_0_DTLB_demand_MPKI 22.1501
Core_0_DTLB_demand_miss_rate 0.087409
Core_0_DTLB_load_access 12670389
Core_0_DTLB_load_hit 11562883
Core_0_DTLB_load_miss 1107506
Core_0_DTLB_load_MPKI 22.1501
Core_0_DTLB_load_miss_rate 0.087409
Core_0_DTLB_rfo_access 0
Core_0_DTLB_rfo_hit 0
Core_0_DTLB_rfo_miss 0
Core_0_DTLB_rfo_MPKI 0
Core_0_DTLB_rfo_miss_rate 0
Core_0_DTLB_prefetch_access 0
Core_0_DTLB_prefetch_hit 0
Core_0_DTLB_prefetch_miss 0
Core_0_DTLB_prefetch_MPKI 0
Core_0_DTLB_prefetch_miss_rate 0
Core_0_DTLB_writeback_access 0
Core_0_DTLB_writeback_hit 0
Core_0_DTLB_writeback_miss 0
Core_0_DTLB_writeback_MPKI 0
Core_0_DTLB_writeback_miss_rate 0
Core_0_DTLB_prefetch_requested 0
Core_0_DTLB_prefetch_issued 0
Core_0_DTLB_prefetch_useful 0
Core_0_DTLB_prefetch_useless 0
Core_0_DTLB_prefetch_late 0
Core_0_DTLB_prefetch_accuracy 0
Core_0_DTLB_prefetch_coverage 0

Core_0_STLB_total_access 1004931
Core_0_STLB_total_hit 995168
Core_0_STLB_total_miss 9763
Core_0_STLB_total_MPKI 0.19526
Core_0_STLB_total_miss_rate 0.00971509
Core_0_STLB_demand_access 1004931
Core_0_STLB_demand_hit 995168
Core_0_STLB_demand_miss 9763
Core_0_STLB_demand_MPKI 0.19526
Core_0_STLB_demand_miss_rate 0.00971509
Core_0_STLB_load_access 1004931
Core_0_STLB_load_hit 995168
Core_0_STLB_load_miss 9763
Core_0_STLB_load_MPKI 0.19526
Core_0_STLB_load_miss_rate 0.00971509
Core_0_STLB_rfo_access 0
Core_0_STLB_rfo_hit 0
Core_0_STLB_rfo_miss 0
Core_0_STLB_rfo_MPKI 0
Core_0_STLB_rfo_miss_rate 0
Core_0_STLB_prefetch_access 0
Core_0_STLB_prefetch_hit 0
Core_0_STLB_prefetch_miss 0
Core_0_STLB_prefetch_MPKI 0
Core_0_STLB_prefetch_miss_rate 0
Core_0_STLB_writeback_access 0
Core_0_STLB_writeback_hit 0
Core_0_STLB_writeback_miss 0
Core_0_STLB_writeback_MPKI 0
Core_0_STLB_writeback_miss_rate 0
Core_0_STLB_prefetch_requested 0
Core_0_STLB_prefetch_issued 0
Core_0_STLB_prefetch_useful 0
Core_0_STLB_prefetch_useless 0
Core_0_STLB_prefetch_late 0
Core_0_STLB_prefetch_accuracy 0
Core_0_STLB_prefetch_coverage 0

Core_0_L1I_total_access 1002272
Core_0_L1I_total_hit 1002270
Core_0_L1I_total_miss 2
Core_0_L1I_total_MPKI 4e-05
Core_0_L1I_total_miss_rate 1.99547e-06
Core_0_L1I_demand_access 1002272
Core_0_L1I_demand_hit 1002270
Core_0_L1I_demand_miss 2
Core_0_L1I_demand_MPKI 4e-05
Core_0_L1I_demand_miss_rate 1.99547e-06
Core_0_L1I_load_access 1002272
Core_0_L1I_load_hit 1002270
Core_0_L1I_load_miss 2
Core_0_L1I_load_MPKI 4e-05
Core_0_L1I_load_miss_rate 1.99547e-06
Core_0_L1I_rfo_access 0
Core_0_L1I_rfo_hit 0
Core_0_L1I_rfo_miss 0
Core_0_L1I_rfo_MPKI 0
Core_0_L1I_rfo_miss_rate 0
Core_0_L1I_prefetch_access 0
Core_0_L1I_prefetch_hit 0
Core_0_L1I_prefetch_miss 0
Core_0_L1I_prefetch_MPKI 0
Core_0_L1I_prefetch_miss_rate 0
Core_0_L1I_writeback_access 0
Core_0_L1I_writeback_hit 0
Core_0_L1I_writeback_miss 0
Core_0_L1I_writeback_MPKI 0
Core_0_L1I_writeback_miss_rate 0
Core_0_L1I_prefetch_requested 0
Core_0_L1I_prefetch_issued 0
Core_0_L1I_prefetch_useful 0
Core_0_L1I_prefetch_useless 0
Core_0_L1I_prefetch_late 0
Core_0_L1I_prefetch_accuracy 0
Core_0_L1I_prefetch_coverage 0

Core_0_L1D_total_access 12888743
Core_0_L1D_total_hit 10228231
Core_0_L1D_total_miss 2660512
Core_0_L1D_total_MPKI 53.2102
Core_0_L1D_total_miss_rate 0.206421
Core_0_L1D_demand_access 11871410
Core_0_L1D_demand_hit 9936415
Core_0_L1D_demand_miss 1934995
Core_0_L1D_demand_MPKI 38.6999
Core_0_L1D_demand_miss_rate 0.162996
Core_0_L1D_load_access 11871410
Core_0_L1D_load_hit 9936415
Core_0_L1D_load_miss 1934995
Core_0_L1D_load_MPKI 38.6999
Core_0_L1D_load_miss_rate 0.162996
Core_0_L1D_rfo_access 0
Core_0_L1D_rfo_hit 0
Core_0_L1D_rfo_miss 0
Core_0_L1D_rfo_MPKI 0
Core_0_L1D_rfo_miss_rate 0
Core_0_L1D_prefetch_access 789256
Core_0_L1D_prefetch_hit 116390
Core_0_L1D_prefetch_miss 672866
Core_0_L1D_prefetch_MPKI 13.4573
Core_0_L1D_prefetch_miss_rate 0.852532
Core_0_L1D_writeback_access 228077
Core_0_L1D_writeback_hit 175426
Core_0_L1D_writeback_miss 52651
Core_0_L1D_writeback_MPKI 1.05302
Core_0_L1D_writeback_miss_rate 0.230847
Core_0_L1D_prefetch_requested 789875
Core_0_L1D_prefetch_issued 789250
Core_0_L1D_prefetch_useful 410441
Core_0_L1D_prefetch_useless 252726
Core_0_L1D_prefetch_late 30210
Core_0_L1D_prefetch_accuracy 0.520039
Core_0_L1D_prefetch_coverage 0.174996

Core_0_L2C_total_access 6665418
Core_0_L2C_total_hit 2779504
Core_0_L2C_total_miss 3885914
Core_0_L2C_total_MPKI 77.7183
Core_0_L2C_total_miss_rate 0.582996
Core_0_L2C_demand_access 1373211
Core_0_L2C_demand_hit 321650
Core_0_L2C_demand_miss 1051561
Core_0_L2C_demand_MPKI 21.0312
Core_0_L2C_demand_miss_rate 0.765768
Core_0_L2C_load_access 1333380
Core_0_L2C_load_hit 318177
Core_0_L2C_load_miss 1015203
Core_0_L2C_load_MPKI 20.3041
Core_0_L2C_load_miss_rate 0.761376
Core_0_L2C_rfo_access 39831
Core_0_L2C_rfo_hit 3473
Core_0_L2C_rfo_miss 36358
Core_0_L2C_rfo_MPKI 0.72716
Core_0_L2C_rfo_miss_rate 0.912807
Core_0_L2C_prefetch_access 5157852
Core_0_L2C_prefetch_hit 2323523
Core_0_L2C_prefetch_miss 2834329
Core_0_L2C_prefetch_MPKI 56.6866
Core_0_L2C_prefetch_miss_rate 0.549517
Core_0_L2C_writeback_access 134355
Core_0_L2C_writeback_hit 134331
Core_0_L2C_writeback_miss 24
Core_0_L2C_writeback_MPKI 0.00048
Core_0_L2C_writeback_miss_rate 0.000178631
Core_0_L2C_prefetch_requested 4584346
Core_0_L2C_prefetch_issued 4494709
Core_0_L2C_prefetch_useful 611286
Core_0_L2C_prefetch_useless 1172648
Core_0_L2C_prefetch_late 30761
Core_0_L2C_prefetch_accuracy 0.136001
Core_0_L2C_prefetch_coverage 0.367614

Core_0_LLC_total_access 3090046
Core_0_LLC_total_hit 599716
Core_0_LLC_total_miss 2490330
Core_0_LLC_total_MPKI 49.8066
Core_0_LLC_total_miss_rate 0.80592
Core_0_LLC_demand_access 1020800
Core_0_LLC_demand_hit 249856
Core_0_LLC_demand_miss 770944
Core_0_LLC_demand_MPKI 15.4189
Core_0_LLC_demand_miss_rate 0.755235
Core_0_LLC_load_access 984442
Core_0_LLC_load_hit 246944
Core_0_LLC_load_miss 737498
Core_0_LLC_load_MPKI 14.75
Core_0_LLC_load_miss_rate 0.749153
Core_0_LLC_rfo_access 36358
Core_0_LLC_rfo_hit 2912
Core_0_LLC_rfo_miss 33446
Core_0_LLC_rfo_MPKI 0.66892
Core_0_LLC_rfo_miss_rate 0.919908
Core_0_LLC_prefetch_access 1945003
Core_0_LLC_prefetch_hit 317451
Core_0_LLC_prefetch_miss 1627552
Core_0_LLC_prefetch_MPKI 32.551
Core_0_LLC_prefetch_miss_rate 0.836786
Core_0_LLC_writeback_access 124243
Core_0_LLC_writeback_hit 32409
Core_0_LLC_writeback_miss 91834
Core_0_LLC_writeback_MPKI 1.83668
Core_0_LLC_writeback_miss_rate 0.739148
Core_0_LLC_prefetch_requested 0
Core_0_LLC_prefetch_issued 0
Core_0_LLC_prefetch_useful 0
Core_0_LLC_prefetch_useless 0
Core_0_LLC_prefetch_late 0
Core_0_LLC_prefetch_accuracy 0
Core_0_LLC_prefetch_coverage 0

[DRAM Statistics]
Channel_0_RQ_row_buffer_hit 29078
Channel_0_RQ_row_buffer_miss 2374927
Channel_0_WQ_row_buffer_hit 34820
Channel_0_WQ_row_buffer_miss 74128
Channel_0_WQ_full 0
Channel_0_dbus_congested 5341754
DRAM_total_RQ_row_buffer_hit 29078
DRAM_total_RQ_row_buffer_miss 2374927
DRAM_total_WQ_row_buffer_hit 34820
DRAM_total_WQ_row_buffer_miss 74128
DRAM_total_WQ_full 0
DRAM_total_dbus_congested 5341754
DRAM_avg_congested_cycle 5.36679

======STLB miss causes ========
Core_0_STLB_miss_cause_breakdown
Core_0_STLB_cause_Demand_Data_miss 0
Core_0_STLB_cause_Demand_Data_miss_rate 0
Core_0_STLB_cause_Demand_Instruction_miss 0
Core_0_STLB_cause_Demand_Instruction_miss_rate 0
Core_0_STLB_cause_L1D_Prefetch_miss 9763
Core_0_STLB_cause_L1D_Prefetch_miss_rate 0.00971509
Core_0_STLB_cause_L1I_Prefetch_miss 0
Core_0_STLB_cause_L1I_Prefetch_miss_rate 0
Core_0_STLB_cause_Other_miss 0
Core_0_STLB_cause_Other_miss_rate 0
Core_0_STLB_Demand_miss 0
Core_0_STLB_Demand_miss_rate 0
Core_0_STLB_L1D_Prefetch_miss 9763
Core_0_STLB_L1D_Prefetch_miss_rate 0.00971509
Core_0_STLB_Other_miss 0
Core_0_STLB_Other_miss_rate 0
