[VMEM] WARNING: physical memory size is smaller than virtual memory size.

*** ChampSim Multicore Out-of-Order Simulator ***
Warmup Instructions: 20000000
Simulation Instructions: 50000000
Number of CPUs: 1
Page size: 4096
STLB ideal mode: demand
Core 0: /data0/tzh/champsim_traces/Ligra/ligra_PageRank.com-lj.ungraph.gcc_6.3.0_O3.drop_21750M.length_250M.champsimtrace.xz
 L1D Berti prefetcher
Off-chip DRAM Size: 16 GiB Channels: 1 Width: 64-bit Data Rate: 3205 MT/s
Warmup halting CPU 0 at instruction 20000002 cycle 4529379 for remainder of phase
Warmup finished CPU 0 instructions: 20000002 cycles: 4529379 cumulative IPC: 4.416 (Simulation time: 00 hr 01 min 36 sec)
Warmup complete CPU 0 instructions: 20000002 cycles: 4529379 cumulative IPC: 4.416 (Simulation time: 00 hr 01 min 36 sec)
Simulation finished CPU 0 instructions: 50000004 cycles: 88932446 cumulative IPC: 0.5622 (Simulation time: 00 hr 12 min 37 sec)
Simulation complete CPU 0 instructions: 50000004 cycles: 88932446 cumulative IPC: 0.5622 (Simulation time: 00 hr 12 min 37 sec)

ChampSim completed all CPUs

=== Simulation ===
CPU 0 runs /data0/tzh/champsim_traces/Ligra/ligra_PageRank.com-lj.ungraph.gcc_6.3.0_O3.drop_21750M.length_250M.champsimtrace.xz

Region of Interest Statistics

CPU 0 cumulative IPC: 0.5622 instructions: 50000004 cycles: 88932446
CPU 0 Branch Prediction Accuracy: 96.45% MPKI: 3.954 Average ROB Occupancy at Mispredict: 240.3
Branch type MPKI
BRANCH_DIRECT_JUMP: 0
BRANCH_INDIRECT: 0
BRANCH_CONDITIONAL: 3.954
BRANCH_DIRECT_CALL: 0
BRANCH_INDIRECT_CALL: 0
BRANCH_RETURN: 0

cpu0->cpu0_STLB TOTAL        ACCESS:    4004460 HIT:    3992810 MISS:      11650 MSHR_MERGE:          0
cpu0->cpu0_STLB LOAD         ACCESS:    4004460 HIT:    3992810 MISS:      11650 MSHR_MERGE:          0
cpu0->cpu0_STLB RFO          ACCESS:          0 HIT:          0 MISS:          0 MSHR_MERGE:          0
cpu0->cpu0_STLB PREFETCH     ACCESS:          0 HIT:          0 MISS:          0 MSHR_MERGE:          0
cpu0->cpu0_STLB WRITE        ACCESS:          0 HIT:          0 MISS:          0 MSHR_MERGE:          0
cpu0->cpu0_STLB TRANSLATION  ACCESS:          0 HIT:          0 MISS:          0 MSHR_MERGE:          0
cpu0->cpu0_STLB PREFETCH REQUESTED:          0 ISSUED:          0 USEFUL:          0 USELESS:          0 LATE:          0
cpu0->cpu0_STLB AVERAGE MISS LATENCY: 369.3 cycles
cpu0->cpu0_L2C TOTAL        ACCESS:    9678957 HIT:    2835132 MISS:    6843825 MSHR_MERGE:     222906
cpu0->cpu0_L2C LOAD         ACCESS:    3881011 HIT:     862455 MISS:    3018556 MSHR_MERGE:      36424
cpu0->cpu0_L2C RFO          ACCESS:         17 HIT:         17 MISS:          0 MSHR_MERGE:          0
cpu0->cpu0_L2C PREFETCH     ACCESS:    5761646 HIT:    1946308 MISS:    3815338 MSHR_MERGE:     186482
cpu0->cpu0_L2C WRITE        ACCESS:      24735 HIT:      24712 MISS:         23 MSHR_MERGE:          0
cpu0->cpu0_L2C TRANSLATION  ACCESS:      11548 HIT:       1640 MISS:       9908 MSHR_MERGE:          0
cpu0->cpu0_L2C PREFETCH REQUESTED:    5353978 ISSUED:    5289501 USEFUL:     536928 USELESS:    2908881 LATE:      36424
cpu0->cpu0_L2C AVERAGE MISS LATENCY: 230.8 cycles
cpu0->cpu0_L1I TOTAL        ACCESS:    1856926 HIT:    1856926 MISS:          0 MSHR_MERGE:          0
cpu0->cpu0_L1I LOAD         ACCESS:    1856926 HIT:    1856926 MISS:          0 MSHR_MERGE:          0
cpu0->cpu0_L1I RFO          ACCESS:          0 HIT:          0 MISS:          0 MSHR_MERGE:          0
cpu0->cpu0_L1I PREFETCH     ACCESS:          0 HIT:          0 MISS:          0 MSHR_MERGE:          0
cpu0->cpu0_L1I WRITE        ACCESS:          0 HIT:          0 MISS:          0 MSHR_MERGE:          0
cpu0->cpu0_L1I TRANSLATION  ACCESS:          0 HIT:          0 MISS:          0 MSHR_MERGE:          0
cpu0->cpu0_L1I PREFETCH REQUESTED:          0 ISSUED:          0 USEFUL:          0 USELESS:          0 LATE:          0
cpu0->cpu0_L1I AVERAGE MISS LATENCY: - cycles
cpu0->cpu0_L1D TOTAL        ACCESS:   14890752 HIT:   10391427 MISS:    4499325 MSHR_MERGE:     134604
cpu0->cpu0_L1D LOAD         ACCESS:   11515034 HIT:    7504310 MISS:    4010724 MSHR_MERGE:     129713
cpu0->cpu0_L1D RFO          ACCESS:          0 HIT:          0 MISS:          0 MSHR_MERGE:          0
cpu0->cpu0_L1D PREFETCH     ACCESS:     893563 HIT:     416549 MISS:     477014 MSHR_MERGE:       4869
cpu0->cpu0_L1D WRITE        ACCESS:    2458859 HIT:    2458833 MISS:         26 MSHR_MERGE:          9
cpu0->cpu0_L1D TRANSLATION  ACCESS:      23296 HIT:      11735 MISS:      11561 MSHR_MERGE:         13
cpu0->cpu0_L1D PREFETCH REQUESTED:     910516 ISSUED:     893562 USEFUL:     198301 USELESS:     273875 LATE:       3423
cpu0->cpu0_L1D AVERAGE MISS LATENCY: 190 cycles
cpu0->cpu0_ITLB TOTAL        ACCESS:    1787051 HIT:    1787051 MISS:          0 MSHR_MERGE:          0
cpu0->cpu0_ITLB LOAD         ACCESS:    1787051 HIT:    1787051 MISS:          0 MSHR_MERGE:          0
cpu0->cpu0_ITLB RFO          ACCESS:          0 HIT:          0 MISS:          0 MSHR_MERGE:          0
cpu0->cpu0_ITLB PREFETCH     ACCESS:          0 HIT:          0 MISS:          0 MSHR_MERGE:          0
cpu0->cpu0_ITLB WRITE        ACCESS:          0 HIT:          0 MISS:          0 MSHR_MERGE:          0
cpu0->cpu0_ITLB TRANSLATION  ACCESS:          0 HIT:          0 MISS:          0 MSHR_MERGE:          0
cpu0->cpu0_ITLB PREFETCH REQUESTED:          0 ISSUED:          0 USEFUL:          0 USELESS:          0 LATE:          0
cpu0->cpu0_ITLB AVERAGE MISS LATENCY: - cycles
cpu0->cpu0_DTLB TOTAL        ACCESS:   14705429 HIT:   10465832 MISS:    4239597 MSHR_MERGE:     235135
cpu0->cpu0_DTLB LOAD         ACCESS:   14705429 HIT:   10465832 MISS:    4239597 MSHR_MERGE:     235135
cpu0->cpu0_DTLB RFO          ACCESS:          0 HIT:          0 MISS:          0 MSHR_MERGE:          0
cpu0->cpu0_DTLB PREFETCH     ACCESS:          0 HIT:          0 MISS:          0 MSHR_MERGE:          0
cpu0->cpu0_DTLB WRITE        ACCESS:          0 HIT:          0 MISS:          0 MSHR_MERGE:          0
cpu0->cpu0_DTLB TRANSLATION  ACCESS:          0 HIT:          0 MISS:          0 MSHR_MERGE:          0
cpu0->cpu0_DTLB PREFETCH REQUESTED:          0 ISSUED:          0 USEFUL:          0 USELESS:          0 LATE:          0
cpu0->cpu0_DTLB AVERAGE MISS LATENCY: 6.11 cycles
cpu0->LLC TOTAL        ACCESS:    6645605 HIT:    2018971 MISS:    4626634 MSHR_MERGE:          0
cpu0->LLC LOAD         ACCESS:    2982132 HIT:     940239 MISS:    2041893 MSHR_MERGE:          0
cpu0->LLC RFO          ACCESS:          0 HIT:          0 MISS:          0 MSHR_MERGE:          0
cpu0->LLC PREFETCH     ACCESS:    3628856 HIT:    1073267 MISS:    2555589 MSHR_MERGE:          0
cpu0->LLC WRITE        ACCESS:      24709 HIT:       4912 MISS:      19797 MSHR_MERGE:          0
cpu0->LLC TRANSLATION  ACCESS:       9908 HIT:        553 MISS:       9355 MSHR_MERGE:          0
cpu0->LLC PREFETCH REQUESTED:          0 ISSUED:          0 USEFUL:          0 USELESS:          0 LATE:          0
cpu0->LLC AVERAGE MISS LATENCY: 310.7 cycles

DRAM Statistics

Channel 0 RQ ROW_BUFFER_HIT:       9317
  ROW_BUFFER_MISS:    4597518
  AVG DBUS CONGESTED CYCLE: 3.091
Channel 0 WQ ROW_BUFFER_HIT:       1783
  ROW_BUFFER_MISS:      22391
  FULL:          0
Channel 0 REFRESHES ISSUED:       7411

[ROI Statistics]
[System Configuration]
num_cpus 1
cpu_freq 4000
fetch_width 6
decode_width 6
dispatch_width 6
execute_width 6
lq_width 2
sq_width 2
retire_width 6
scheduler_size 128
branch_mispredict_penalty 15
rob_size 352
lq_size 128
sq_size 72
ifetch_buffer_size 64
decode_buffer_size 32
dispatch_buffer_size 32
register_file_size 288
decode_latency 1
dispatch_latency 1
schedule_latency 1
execute_latency 1
page_size 4096
block_size 64
core_0_itlb_set 16
core_0_itlb_way 4
core_0_itlb_rq_size 16
core_0_itlb_wq_size 16
core_0_itlb_pq_size 0
core_0_itlb_mshr_size 8
core_0_itlb_hit_latency 1
core_0_itlb_fill_latency 1
core_0_itlb_max_tag_check 2
core_0_itlb_max_fill 2
core_0_dtlb_set 16
core_0_dtlb_way 4
core_0_dtlb_rq_size 16
core_0_dtlb_wq_size 16
core_0_dtlb_pq_size 0
core_0_dtlb_mshr_size 8
core_0_dtlb_hit_latency 1
core_0_dtlb_fill_latency 1
core_0_dtlb_max_tag_check 2
core_0_dtlb_max_fill 2
core_0_stlb_set 128
core_0_stlb_way 12
core_0_stlb_rq_size 32
core_0_stlb_wq_size 32
core_0_stlb_pq_size 0
core_0_stlb_mshr_size 16
core_0_stlb_hit_latency 4
core_0_stlb_fill_latency 4
core_0_stlb_max_tag_check 1
core_0_stlb_max_fill 1
core_0_l1i_set 64
core_0_l1i_way 8
core_0_l1i_rq_size 64
core_0_l1i_wq_size 64
core_0_l1i_pq_size 32
core_0_l1i_mshr_size 8
core_0_l1i_hit_latency 2
core_0_l1i_fill_latency 2
core_0_l1i_max_tag_check 2
core_0_l1i_max_fill 2
core_0_l1d_set 64
core_0_l1d_way 12
core_0_l1d_rq_size 64
core_0_l1d_wq_size 64
core_0_l1d_pq_size 8
core_0_l1d_mshr_size 16
core_0_l1d_hit_latency 2
core_0_l1d_fill_latency 3
core_0_l1d_max_tag_check 2
core_0_l1d_max_fill 2
core_0_l2c_set 1024
core_0_l2c_way 8
core_0_l2c_rq_size 32
core_0_l2c_wq_size 32
core_0_l2c_pq_size 16
core_0_l2c_mshr_size 32
core_0_l2c_hit_latency 5
core_0_l2c_fill_latency 5
core_0_l2c_max_tag_check 1
core_0_l2c_max_fill 1
llc_set 2048
llc_way 16
llc_rq_size 32
llc_wq_size 32
llc_pq_size 32
llc_mshr_size 64
llc_hit_latency 10
llc_fill_latency 10
llc_max_tag_check 1
llc_max_fill 1
dram_channels 1
dram_ranks 1
dram_bankgroups 8
dram_banks 4
dram_rows 65536
dram_columns 1024
dram_channel_width 8
dram_rq_size 64
dram_wq_size 64
dram_size 17179869184
core_0_itlb_prefetcher no
core_0_dtlb_prefetcher no
core_0_stlb_prefetcher no
core_0_l1i_prefetcher next_line
core_0_l1d_prefetcher berti
core_0_l2c_prefetcher pythia
llc_prefetcher no
llc_replacement drrip

Core_0_instructions 50000004
Core_0_cycles 88932446
Core_0_IPC 0.562225
Core_0_branch_prediction_accuracy 96.4475
Core_0_branch_MPKI 3.95398
Core_0_average_ROB_occupancy_at_mispredict 240.297

Core_0_ITLB_total_access 1787051
Core_0_ITLB_total_hit 1787051
Core_0_ITLB_total_miss 0
Core_0_ITLB_total_MPKI 0
Core_0_ITLB_total_miss_rate 0
Core_0_ITLB_demand_access 1787051
Core_0_ITLB_demand_hit 1787051
Core_0_ITLB_demand_miss 0
Core_0_ITLB_demand_MPKI 0
Core_0_ITLB_demand_miss_rate 0
Core_0_ITLB_load_access 1787051
Core_0_ITLB_load_hit 1787051
Core_0_ITLB_load_miss 0
Core_0_ITLB_load_MPKI 0
Core_0_ITLB_load_miss_rate 0
Core_0_ITLB_rfo_access 0
Core_0_ITLB_rfo_hit 0
Core_0_ITLB_rfo_miss 0
Core_0_ITLB_rfo_MPKI 0
Core_0_ITLB_rfo_miss_rate 0
Core_0_ITLB_prefetch_access 0
Core_0_ITLB_prefetch_hit 0
Core_0_ITLB_prefetch_miss 0
Core_0_ITLB_prefetch_MPKI 0
Core_0_ITLB_prefetch_miss_rate 0
Core_0_ITLB_writeback_access 0
Core_0_ITLB_writeback_hit 0
Core_0_ITLB_writeback_miss 0
Core_0_ITLB_writeback_MPKI 0
Core_0_ITLB_writeback_miss_rate 0
Core_0_ITLB_prefetch_requested 0
Core_0_ITLB_prefetch_issued 0
Core_0_ITLB_prefetch_useful 0
Core_0_ITLB_prefetch_useless 0
Core_0_ITLB_prefetch_late 0
Core_0_ITLB_prefetch_accuracy 0
Core_0_ITLB_prefetch_coverage 0

Core_0_DTLB_total_access 14705429
Core_0_DTLB_total_hit 10465832
Core_0_DTLB_total_miss 4239597
Core_0_DTLB_total_MPKI 84.7919
Core_0_DTLB_total_miss_rate 0.288301
Core_0_DTLB_demand_access 14705429
Core_0_DTLB_demand_hit 10465832
Core_0_DTLB_demand_miss 4239597
Core_0_DTLB_demand_MPKI 84.7919
Core_0_DTLB_demand_miss_rate 0.288301
Core_0_DTLB_load_access 14705429
Core_0_DTLB_load_hit 10465832
Core_0_DTLB_load_miss 4239597
Core_0_DTLB_load_MPKI 84.7919
Core_0_DTLB_load_miss_rate 0.288301
Core_0_DTLB_rfo_access 0
Core_0_DTLB_rfo_hit 0
Core_0_DTLB_rfo_miss 0
Core_0_DTLB_rfo_MPKI 0
Core_0_DTLB_rfo_miss_rate 0
Core_0_DTLB_prefetch_access 0
Core_0_DTLB_prefetch_hit 0
Core_0_DTLB_prefetch_miss 0
Core_0_DTLB_prefetch_MPKI 0
Core_0_DTLB_prefetch_miss_rate 0
Core_0_DTLB_writeback_access 0
Core_0_DTLB_writeback_hit 0
Core_0_DTLB_writeback_miss 0
Core_0_DTLB_writeback_MPKI 0
Core_0_DTLB_writeback_miss_rate 0
Core_0_DTLB_prefetch_requested 0
Core_0_DTLB_prefetch_issued 0
Core_0_DTLB_prefetch_useful 0
Core_0_DTLB_prefetch_useless 0
Core_0_DTLB_prefetch_late 0
Core_0_DTLB_prefetch_accuracy 0
Core_0_DTLB_prefetch_coverage 0

Core_0_STLB_total_access 4004460
Core_0_STLB_total_hit 3992810
Core_0_STLB_total_miss 11650
Core_0_STLB_total_MPKI 0.233
Core_0_STLB_total_miss_rate 0.00290926
Core_0_STLB_demand_access 4004460
Core_0_STLB_demand_hit 3992810
Core_0_STLB_demand_miss 11650
Core_0_STLB_demand_MPKI 0.233
Core_0_STLB_demand_miss_rate 0.00290926
Core_0_STLB_load_access 4004460
Core_0_STLB_load_hit 3992810
Core_0_STLB_load_miss 11650
Core_0_STLB_load_MPKI 0.233
Core_0_STLB_load_miss_rate 0.00290926
Core_0_STLB_rfo_access 0
Core_0_STLB_rfo_hit 0
Core_0_STLB_rfo_miss 0
Core_0_STLB_rfo_MPKI 0
Core_0_STLB_rfo_miss_rate 0
Core_0_STLB_prefetch_access 0
Core_0_STLB_prefetch_hit 0
Core_0_STLB_prefetch_miss 0
Core_0_STLB_prefetch_MPKI 0
Core_0_STLB_prefetch_miss_rate 0
Core_0_STLB_writeback_access 0
Core_0_STLB_writeback_hit 0
Core_0_STLB_writeback_miss 0
Core_0_STLB_writeback_MPKI 0
Core_0_STLB_writeback_miss_rate 0
Core_0_STLB_prefetch_requested 0
Core_0_STLB_prefetch_issued 0
Core_0_STLB_prefetch_useful 0
Core_0_STLB_prefetch_useless 0
Core_0_STLB_prefetch_late 0
Core_0_STLB_prefetch_accuracy 0
Core_0_STLB_prefetch_coverage 0

Core_0_L1I_total_access 1856926
Core_0_L1I_total_hit 1856926
Core_0_L1I_total_miss 0
Core_0_L1I_total_MPKI 0
Core_0_L1I_total_miss_rate 0
Core_0_L1I_demand_access 1856926
Core_0_L1I_demand_hit 1856926
Core_0_L1I_demand_miss 0
Core_0_L1I_demand_MPKI 0
Core_0_L1I_demand_miss_rate 0
Core_0_L1I_load_access 1856926
Core_0_L1I_load_hit 1856926
Core_0_L1I_load_miss 0
Core_0_L1I_load_MPKI 0
Core_0_L1I_load_miss_rate 0
Core_0_L1I_rfo_access 0
Core_0_L1I_rfo_hit 0
Core_0_L1I_rfo_miss 0
Core_0_L1I_rfo_MPKI 0
Core_0_L1I_rfo_miss_rate 0
Core_0_L1I_prefetch_access 0
Core_0_L1I_prefetch_hit 0
Core_0_L1I_prefetch_miss 0
Core_0_L1I_prefetch_MPKI 0
Core_0_L1I_prefetch_miss_rate 0
Core_0_L1I_writeback_access 0
Core_0_L1I_writeback_hit 0
Core_0_L1I_writeback_miss 0
Core_0_L1I_writeback_MPKI 0
Core_0_L1I_writeback_miss_rate 0
Core_0_L1I_prefetch_requested 0
Core_0_L1I_prefetch_issued 0
Core_0_L1I_prefetch_useful 0
Core_0_L1I_prefetch_useless 0
Core_0_L1I_prefetch_late 0
Core_0_L1I_prefetch_accuracy 0
Core_0_L1I_prefetch_coverage 0

Core_0_L1D_total_access 14867456
Core_0_L1D_total_hit 10379692
Core_0_L1D_total_miss 4487764
Core_0_L1D_total_MPKI 89.7553
Core_0_L1D_total_miss_rate 0.301852
Core_0_L1D_demand_access 11515034
Core_0_L1D_demand_hit 7504310
Core_0_L1D_demand_miss 4010724
Core_0_L1D_demand_MPKI 80.2145
Core_0_L1D_demand_miss_rate 0.348303
Core_0_L1D_load_access 11515034
Core_0_L1D_load_hit 7504310
Core_0_L1D_load_miss 4010724
Core_0_L1D_load_MPKI 80.2145
Core_0_L1D_load_miss_rate 0.348303
Core_0_L1D_rfo_access 0
Core_0_L1D_rfo_hit 0
Core_0_L1D_rfo_miss 0
Core_0_L1D_rfo_MPKI 0
Core_0_L1D_rfo_miss_rate 0
Core_0_L1D_prefetch_access 893563
Core_0_L1D_prefetch_hit 416549
Core_0_L1D_prefetch_miss 477014
Core_0_L1D_prefetch_MPKI 9.54028
Core_0_L1D_prefetch_miss_rate 0.533834
Core_0_L1D_writeback_access 2458859
Core_0_L1D_writeback_hit 2458833
Core_0_L1D_writeback_miss 26
Core_0_L1D_writeback_MPKI 0.00052
Core_0_L1D_writeback_miss_rate 1.0574e-05
Core_0_L1D_prefetch_requested 910516
Core_0_L1D_prefetch_issued 893562
Core_0_L1D_prefetch_useful 198301
Core_0_L1D_prefetch_useless 273875
Core_0_L1D_prefetch_late 3423
Core_0_L1D_prefetch_accuracy 0.221922
Core_0_L1D_prefetch_coverage 0.0471133

Core_0_L2C_total_access 9667409
Core_0_L2C_total_hit 2833492
Core_0_L2C_total_miss 6833917
Core_0_L2C_total_MPKI 136.678
Core_0_L2C_total_miss_rate 0.706903
Core_0_L2C_demand_access 3881028
Core_0_L2C_demand_hit 862472
Core_0_L2C_demand_miss 3018556
Core_0_L2C_demand_MPKI 60.3711
Core_0_L2C_demand_miss_rate 0.777772
Core_0_L2C_load_access 3881011
Core_0_L2C_load_hit 862455
Core_0_L2C_load_miss 3018556
Core_0_L2C_load_MPKI 60.3711
Core_0_L2C_load_miss_rate 0.777776
Core_0_L2C_rfo_access 17
Core_0_L2C_rfo_hit 17
Core_0_L2C_rfo_miss 0
Core_0_L2C_rfo_MPKI 0
Core_0_L2C_rfo_miss_rate 0
Core_0_L2C_prefetch_access 5761646
Core_0_L2C_prefetch_hit 1946308
Core_0_L2C_prefetch_miss 3815338
Core_0_L2C_prefetch_MPKI 76.3068
Core_0_L2C_prefetch_miss_rate 0.662196
Core_0_L2C_writeback_access 24735
Core_0_L2C_writeback_hit 24712
Core_0_L2C_writeback_miss 23
Core_0_L2C_writeback_MPKI 0.00046
Core_0_L2C_writeback_miss_rate 0.000929856
Core_0_L2C_prefetch_requested 5353978
Core_0_L2C_prefetch_issued 5289501
Core_0_L2C_prefetch_useful 536928
Core_0_L2C_prefetch_useless 2908881
Core_0_L2C_prefetch_late 36424
Core_0_L2C_prefetch_accuracy 0.101508
Core_0_L2C_prefetch_coverage 0.151014

Core_0_LLC_total_access 6635697
Core_0_LLC_total_hit 2018418
Core_0_LLC_total_miss 4617279
Core_0_LLC_total_MPKI 92.3456
Core_0_LLC_total_miss_rate 0.695824
Core_0_LLC_demand_access 2982132
Core_0_LLC_demand_hit 940239
Core_0_LLC_demand_miss 2041893
Core_0_LLC_demand_MPKI 40.8379
Core_0_LLC_demand_miss_rate 0.684709
Core_0_LLC_load_access 2982132
Core_0_LLC_load_hit 940239
Core_0_LLC_load_miss 2041893
Core_0_LLC_load_MPKI 40.8379
Core_0_LLC_load_miss_rate 0.684709
Core_0_LLC_rfo_access 0
Core_0_LLC_rfo_hit 0
Core_0_LLC_rfo_miss 0
Core_0_LLC_rfo_MPKI 0
Core_0_LLC_rfo_miss_rate 0
Core_0_LLC_prefetch_access 3628856
Core_0_LLC_prefetch_hit 1073267
Core_0_LLC_prefetch_miss 2555589
Core_0_LLC_prefetch_MPKI 51.1118
Core_0_LLC_prefetch_miss_rate 0.704241
Core_0_LLC_writeback_access 24709
Core_0_LLC_writeback_hit 4912
Core_0_LLC_writeback_miss 19797
Core_0_LLC_writeback_MPKI 0.39594
Core_0_LLC_writeback_miss_rate 0.801206
Core_0_LLC_prefetch_requested 0
Core_0_LLC_prefetch_issued 0
Core_0_LLC_prefetch_useful 0
Core_0_LLC_prefetch_useless 0
Core_0_LLC_prefetch_late 0
Core_0_LLC_prefetch_accuracy 0
Core_0_LLC_prefetch_coverage 0

[DRAM Statistics]
Channel_0_RQ_row_buffer_hit 9317
Channel_0_RQ_row_buffer_miss 4597518
Channel_0_WQ_row_buffer_hit 1783
Channel_0_WQ_row_buffer_miss 22391
Channel_0_WQ_full 0
Channel_0_dbus_congested 9795505
DRAM_total_RQ_row_buffer_hit 9317
DRAM_total_RQ_row_buffer_miss 4597518
DRAM_total_WQ_row_buffer_hit 1783
DRAM_total_WQ_row_buffer_miss 22391
DRAM_total_WQ_full 0
DRAM_total_dbus_congested 9795505
DRAM_avg_congested_cycle 3.09084

======STLB miss causes ========
Core_0_STLB_miss_cause_breakdown
Core_0_STLB_cause_Demand_Data_miss 0
Core_0_STLB_cause_Demand_Data_miss_rate 0
Core_0_STLB_cause_Demand_Instruction_miss 0
Core_0_STLB_cause_Demand_Instruction_miss_rate 0
Core_0_STLB_cause_L1D_Prefetch_miss 11650
Core_0_STLB_cause_L1D_Prefetch_miss_rate 0.00290926
Core_0_STLB_cause_L1I_Prefetch_miss 0
Core_0_STLB_cause_L1I_Prefetch_miss_rate 0
Core_0_STLB_cause_Other_miss 0
Core_0_STLB_cause_Other_miss_rate 0
Core_0_STLB_Demand_miss 0
Core_0_STLB_Demand_miss_rate 0
Core_0_STLB_L1D_Prefetch_miss 11650
Core_0_STLB_L1D_Prefetch_miss_rate 0.00290926
Core_0_STLB_Other_miss 0
Core_0_STLB_Other_miss_rate 0
