[VMEM] WARNING: physical memory size is smaller than virtual memory size.

*** ChampSim Multicore Out-of-Order Simulator ***
Warmup Instructions: 20000000
Simulation Instructions: 50000000
Number of CPUs: 1
Page size: 4096
STLB ideal mode: l1pref
Core 0: /data0/tzh/champsim_traces/SPEC06/400.perlbench-50B.champsimtrace.xz
 L1D Berti prefetcher
Off-chip DRAM Size: 4 GiB Channels: 1 Width: 64-bit Data Rate: 3205 MT/s
Warmup halting CPU 0 at instruction 20000000 cycle 4477705 for remainder of phase
Warmup finished CPU 0 instructions: 20000000 cycles: 4477705 cumulative IPC: 4.467 (Simulation time: 00 hr 00 min 49 sec)
Warmup complete CPU 0 instructions: 20000000 cycles: 4477705 cumulative IPC: 4.467 (Simulation time: 00 hr 00 min 49 sec)
Simulation finished CPU 0 instructions: 50000003 cycles: 24795096 cumulative IPC: 2.017 (Simulation time: 00 hr 04 min 00 sec)
Simulation complete CPU 0 instructions: 50000003 cycles: 24795096 cumulative IPC: 2.017 (Simulation time: 00 hr 04 min 00 sec)

ChampSim completed all CPUs

=== Simulation ===
CPU 0 runs /data0/tzh/champsim_traces/SPEC06/400.perlbench-50B.champsimtrace.xz

Region of Interest Statistics

CPU 0 cumulative IPC: 2.017 instructions: 50000003 cycles: 24795096
CPU 0 Branch Prediction Accuracy: 96.65% MPKI: 7.264 Average ROB Occupancy at Mispredict: 69.58
Branch type MPKI
BRANCH_DIRECT_JUMP: 0.0055
BRANCH_INDIRECT: 0.2123
BRANCH_CONDITIONAL: 7.025
BRANCH_DIRECT_CALL: 0.01516
BRANCH_INDIRECT_CALL: 0.00484
BRANCH_RETURN: 0.00158

cpu0->cpu0_STLB TOTAL        ACCESS:       4403 HIT:       3999 MISS:        404 MSHR_MERGE:          0
cpu0->cpu0_STLB LOAD         ACCESS:       4403 HIT:       3999 MISS:        404 MSHR_MERGE:          0
cpu0->cpu0_STLB RFO          ACCESS:          0 HIT:          0 MISS:          0 MSHR_MERGE:          0
cpu0->cpu0_STLB PREFETCH     ACCESS:          0 HIT:          0 MISS:          0 MSHR_MERGE:          0
cpu0->cpu0_STLB WRITE        ACCESS:          0 HIT:          0 MISS:          0 MSHR_MERGE:          0
cpu0->cpu0_STLB TRANSLATION  ACCESS:          0 HIT:          0 MISS:          0 MSHR_MERGE:          0
cpu0->cpu0_STLB PREFETCH REQUESTED:          0 ISSUED:          0 USEFUL:          0 USELESS:          0 LATE:          0
cpu0->cpu0_STLB AVERAGE MISS LATENCY: 273.9 cycles
cpu0->cpu0_L2C TOTAL        ACCESS:      28526 HIT:      15725 MISS:      12801 MSHR_MERGE:       4035
cpu0->cpu0_L2C LOAD         ACCESS:       3511 HIT:       1659 MISS:       1852 MSHR_MERGE:        105
cpu0->cpu0_L2C RFO          ACCESS:        370 HIT:        204 MISS:        166 MSHR_MERGE:          2
cpu0->cpu0_L2C PREFETCH     ACCESS:      23580 HIT:      12931 MISS:      10649 MSHR_MERGE:       3928
cpu0->cpu0_L2C WRITE        ACCESS:        751 HIT:        749 MISS:          2 MSHR_MERGE:          0
cpu0->cpu0_L2C TRANSLATION  ACCESS:        314 HIT:        182 MISS:        132 MSHR_MERGE:          0
cpu0->cpu0_L2C PREFETCH REQUESTED:      20498 ISSUED:      20475 USEFUL:       3032 USELESS:        898 LATE:        107
cpu0->cpu0_L2C AVERAGE MISS LATENCY: 192.9 cycles
cpu0->cpu0_L1I TOTAL        ACCESS:     571664 HIT:     571500 MISS:        164 MSHR_MERGE:         19
cpu0->cpu0_L1I LOAD         ACCESS:     571664 HIT:     571500 MISS:        164 MSHR_MERGE:         19
cpu0->cpu0_L1I RFO          ACCESS:          0 HIT:          0 MISS:          0 MSHR_MERGE:          0
cpu0->cpu0_L1I PREFETCH     ACCESS:          0 HIT:          0 MISS:          0 MSHR_MERGE:          0
cpu0->cpu0_L1I WRITE        ACCESS:          0 HIT:          0 MISS:          0 MSHR_MERGE:          0
cpu0->cpu0_L1I TRANSLATION  ACCESS:          0 HIT:          0 MISS:          0 MSHR_MERGE:          0
cpu0->cpu0_L1I PREFETCH REQUESTED:          0 ISSUED:          0 USEFUL:          0 USELESS:          0 LATE:          0
cpu0->cpu0_L1I AVERAGE MISS LATENCY: 185.2 cycles
cpu0->cpu0_L1D TOTAL        ACCESS:   13747264 HIT:   13738648 MISS:       8616 MSHR_MERGE:       1461
cpu0->cpu0_L1D LOAD         ACCESS:    7420719 HIT:    7416613 MISS:       4106 MSHR_MERGE:        740
cpu0->cpu0_L1D RFO          ACCESS:          0 HIT:          0 MISS:          0 MSHR_MERGE:          0
cpu0->cpu0_L1D PREFETCH     ACCESS:      11305 HIT:       8171 MISS:       3134 MSHR_MERGE:         29
cpu0->cpu0_L1D WRITE        ACCESS:    6314431 HIT:    6313369 MISS:       1062 MSHR_MERGE:        692
cpu0->cpu0_L1D TRANSLATION  ACCESS:        809 HIT:        495 MISS:        314 MSHR_MERGE:          0
cpu0->cpu0_L1D PREFETCH REQUESTED:      11305 ISSUED:      11305 USEFUL:       1689 USELESS:       1394 LATE:         80
cpu0->cpu0_L1D AVERAGE MISS LATENCY: 104.2 cycles
cpu0->cpu0_ITLB TOTAL        ACCESS:     520310 HIT:     520306 MISS:          4 MSHR_MERGE:          3
cpu0->cpu0_ITLB LOAD         ACCESS:     520310 HIT:     520306 MISS:          4 MSHR_MERGE:          3
cpu0->cpu0_ITLB RFO          ACCESS:          0 HIT:          0 MISS:          0 MSHR_MERGE:          0
cpu0->cpu0_ITLB PREFETCH     ACCESS:          0 HIT:          0 MISS:          0 MSHR_MERGE:          0
cpu0->cpu0_ITLB WRITE        ACCESS:          0 HIT:          0 MISS:          0 MSHR_MERGE:          0
cpu0->cpu0_ITLB TRANSLATION  ACCESS:          0 HIT:          0 MISS:          0 MSHR_MERGE:          0
cpu0->cpu0_ITLB PREFETCH REQUESTED:          0 ISSUED:          0 USEFUL:          0 USELESS:          0 LATE:          0
cpu0->cpu0_ITLB AVERAGE MISS LATENCY: 225 cycles
cpu0->cpu0_DTLB TOTAL        ACCESS:   12866083 HIT:   12860134 MISS:       5949 MSHR_MERGE:       1547
cpu0->cpu0_DTLB LOAD         ACCESS:   12866083 HIT:   12860134 MISS:       5949 MSHR_MERGE:       1547
cpu0->cpu0_DTLB RFO          ACCESS:          0 HIT:          0 MISS:          0 MSHR_MERGE:          0
cpu0->cpu0_DTLB PREFETCH     ACCESS:          0 HIT:          0 MISS:          0 MSHR_MERGE:          0
cpu0->cpu0_DTLB WRITE        ACCESS:          0 HIT:          0 MISS:          0 MSHR_MERGE:          0
cpu0->cpu0_DTLB TRANSLATION  ACCESS:          0 HIT:          0 MISS:          0 MSHR_MERGE:          0
cpu0->cpu0_DTLB PREFETCH REQUESTED:          0 ISSUED:          0 USEFUL:          0 USELESS:          0 LATE:          0
cpu0->cpu0_DTLB AVERAGE MISS LATENCY: 30.18 cycles
cpu0->LLC TOTAL        ACCESS:       8920 HIT:        203 MISS:       8717 MSHR_MERGE:          0
cpu0->LLC LOAD         ACCESS:       1747 HIT:         12 MISS:       1735 MSHR_MERGE:          0
cpu0->LLC RFO          ACCESS:        164 HIT:          3 MISS:        161 MSHR_MERGE:          0
cpu0->LLC PREFETCH     ACCESS:       6721 HIT:         24 MISS:       6697 MSHR_MERGE:          0
cpu0->LLC WRITE        ACCESS:        156 HIT:        156 MISS:          0 MSHR_MERGE:          0
cpu0->LLC TRANSLATION  ACCESS:        132 HIT:          8 MISS:        124 MSHR_MERGE:          0
cpu0->LLC PREFETCH REQUESTED:          0 ISSUED:          0 USEFUL:          0 USELESS:          0 LATE:          0
cpu0->LLC AVERAGE MISS LATENCY: 183.6 cycles

DRAM Statistics

Channel 0 RQ ROW_BUFFER_HIT:        171
  ROW_BUFFER_MISS:       8546
  AVG DBUS CONGESTED CYCLE: 2.853
Channel 0 WQ ROW_BUFFER_HIT:          0
  ROW_BUFFER_MISS:          0
  FULL:          0
Channel 0 REFRESHES ISSUED:       2066

[ROI Statistics]
[System Configuration]
num_cpus 1
cpu_freq 4000
fetch_width 6
decode_width 6
dispatch_width 6
execute_width 6
lq_width 2
sq_width 2
retire_width 6
scheduler_size 160
branch_mispredict_penalty 1
rob_size 352
lq_size 240
sq_size 112
ifetch_buffer_size 64
decode_buffer_size 32
dispatch_buffer_size 32
register_file_size 288
decode_latency 1
dispatch_latency 1
schedule_latency 0
execute_latency 0
page_size 4096
block_size 64
core_0_itlb_set 16
core_0_itlb_way 4
core_0_itlb_rq_size 16
core_0_itlb_wq_size 16
core_0_itlb_pq_size 0
core_0_itlb_mshr_size 8
core_0_itlb_hit_latency 1
core_0_itlb_fill_latency 1
core_0_itlb_max_tag_check 2
core_0_itlb_max_fill 2
core_0_dtlb_set 16
core_0_dtlb_way 4
core_0_dtlb_rq_size 16
core_0_dtlb_wq_size 16
core_0_dtlb_pq_size 0
core_0_dtlb_mshr_size 8
core_0_dtlb_hit_latency 1
core_0_dtlb_fill_latency 1
core_0_dtlb_max_tag_check 2
core_0_dtlb_max_fill 2
core_0_stlb_set 128
core_0_stlb_way 12
core_0_stlb_rq_size 32
core_0_stlb_wq_size 32
core_0_stlb_pq_size 0
core_0_stlb_mshr_size 16
core_0_stlb_hit_latency 4
core_0_stlb_fill_latency 4
core_0_stlb_max_tag_check 1
core_0_stlb_max_fill 1
core_0_l1i_set 64
core_0_l1i_way 8
core_0_l1i_rq_size 64
core_0_l1i_wq_size 64
core_0_l1i_pq_size 32
core_0_l1i_mshr_size 8
core_0_l1i_hit_latency 2
core_0_l1i_fill_latency 2
core_0_l1i_max_tag_check 2
core_0_l1i_max_fill 2
core_0_l1d_set 64
core_0_l1d_way 12
core_0_l1d_rq_size 64
core_0_l1d_wq_size 64
core_0_l1d_pq_size 8
core_0_l1d_mshr_size 16
core_0_l1d_hit_latency 2
core_0_l1d_fill_latency 3
core_0_l1d_max_tag_check 2
core_0_l1d_max_fill 2
core_0_l2c_set 1024
core_0_l2c_way 8
core_0_l2c_rq_size 32
core_0_l2c_wq_size 32
core_0_l2c_pq_size 16
core_0_l2c_mshr_size 32
core_0_l2c_hit_latency 5
core_0_l2c_fill_latency 5
core_0_l2c_max_tag_check 1
core_0_l2c_max_fill 1
llc_set 2048
llc_way 16
llc_rq_size 32
llc_wq_size 32
llc_pq_size 32
llc_mshr_size 64
llc_hit_latency 10
llc_fill_latency 10
llc_max_tag_check 1
llc_max_fill 1
dram_channels 1
dram_ranks 1
dram_bankgroups 8
dram_banks 4
dram_rows 16384
dram_columns 1024
dram_channel_width 8
dram_rq_size 64
dram_wq_size 64
dram_size 4294967296
core_0_itlb_prefetcher no
core_0_dtlb_prefetcher no
core_0_stlb_prefetcher no
core_0_l1i_prefetcher next_line
core_0_l1d_prefetcher berti
core_0_l2c_prefetcher pythia
llc_prefetcher no
llc_replacement drrip

Core_0_instructions 50000003
Core_0_cycles 24795096
Core_0_IPC 2.01653
Core_0_branch_prediction_accuracy 96.647
Core_0_branch_MPKI 7.26436
Core_0_average_ROB_occupancy_at_mispredict 69.5751

Core_0_ITLB_total_access 520310
Core_0_ITLB_total_hit 520306
Core_0_ITLB_total_miss 4
Core_0_ITLB_total_MPKI 8e-05
Core_0_ITLB_total_miss_rate 7.68772e-06
Core_0_ITLB_demand_access 520310
Core_0_ITLB_demand_hit 520306
Core_0_ITLB_demand_miss 4
Core_0_ITLB_demand_MPKI 8e-05
Core_0_ITLB_demand_miss_rate 7.68772e-06
Core_0_ITLB_load_access 520310
Core_0_ITLB_load_hit 520306
Core_0_ITLB_load_miss 4
Core_0_ITLB_load_MPKI 8e-05
Core_0_ITLB_load_miss_rate 7.68772e-06
Core_0_ITLB_rfo_access 0
Core_0_ITLB_rfo_hit 0
Core_0_ITLB_rfo_miss 0
Core_0_ITLB_rfo_MPKI 0
Core_0_ITLB_rfo_miss_rate 0
Core_0_ITLB_prefetch_access 0
Core_0_ITLB_prefetch_hit 0
Core_0_ITLB_prefetch_miss 0
Core_0_ITLB_prefetch_MPKI 0
Core_0_ITLB_prefetch_miss_rate 0
Core_0_ITLB_writeback_access 0
Core_0_ITLB_writeback_hit 0
Core_0_ITLB_writeback_miss 0
Core_0_ITLB_writeback_MPKI 0
Core_0_ITLB_writeback_miss_rate 0
Core_0_ITLB_prefetch_requested 0
Core_0_ITLB_prefetch_issued 0
Core_0_ITLB_prefetch_useful 0
Core_0_ITLB_prefetch_useless 0
Core_0_ITLB_prefetch_late 0
Core_0_ITLB_prefetch_accuracy 0
Core_0_ITLB_prefetch_coverage 0

Core_0_DTLB_total_access 12866083
Core_0_DTLB_total_hit 12860134
Core_0_DTLB_total_miss 5949
Core_0_DTLB_total_MPKI 0.11898
Core_0_DTLB_total_miss_rate 0.000462378
Core_0_DTLB_demand_access 12866083
Core_0_DTLB_demand_hit 12860134
Core_0_DTLB_demand_miss 5949
Core_0_DTLB_demand_MPKI 0.11898
Core_0_DTLB_demand_miss_rate 0.000462378
Core_0_DTLB_load_access 12866083
Core_0_DTLB_load_hit 12860134
Core_0_DTLB_load_miss 5949
Core_0_DTLB_load_MPKI 0.11898
Core_0_DTLB_load_miss_rate 0.000462378
Core_0_DTLB_rfo_access 0
Core_0_DTLB_rfo_hit 0
Core_0_DTLB_rfo_miss 0
Core_0_DTLB_rfo_MPKI 0
Core_0_DTLB_rfo_miss_rate 0
Core_0_DTLB_prefetch_access 0
Core_0_DTLB_prefetch_hit 0
Core_0_DTLB_prefetch_miss 0
Core_0_DTLB_prefetch_MPKI 0
Core_0_DTLB_prefetch_miss_rate 0
Core_0_DTLB_writeback_access 0
Core_0_DTLB_writeback_hit 0
Core_0_DTLB_writeback_miss 0
Core_0_DTLB_writeback_MPKI 0
Core_0_DTLB_writeback_miss_rate 0
Core_0_DTLB_prefetch_requested 0
Core_0_DTLB_prefetch_issued 0
Core_0_DTLB_prefetch_useful 0
Core_0_DTLB_prefetch_useless 0
Core_0_DTLB_prefetch_late 0
Core_0_DTLB_prefetch_accuracy 0
Core_0_DTLB_prefetch_coverage 0

Core_0_STLB_total_access 4403
Core_0_STLB_total_hit 3999
Core_0_STLB_total_miss 404
Core_0_STLB_total_MPKI 0.00808
Core_0_STLB_total_miss_rate 0.0917556
Core_0_STLB_demand_access 4403
Core_0_STLB_demand_hit 3999
Core_0_STLB_demand_miss 404
Core_0_STLB_demand_MPKI 0.00808
Core_0_STLB_demand_miss_rate 0.0917556
Core_0_STLB_load_access 4403
Core_0_STLB_load_hit 3999
Core_0_STLB_load_miss 404
Core_0_STLB_load_MPKI 0.00808
Core_0_STLB_load_miss_rate 0.0917556
Core_0_STLB_rfo_access 0
Core_0_STLB_rfo_hit 0
Core_0_STLB_rfo_miss 0
Core_0_STLB_rfo_MPKI 0
Core_0_STLB_rfo_miss_rate 0
Core_0_STLB_prefetch_access 0
Core_0_STLB_prefetch_hit 0
Core_0_STLB_prefetch_miss 0
Core_0_STLB_prefetch_MPKI 0
Core_0_STLB_prefetch_miss_rate 0
Core_0_STLB_writeback_access 0
Core_0_STLB_writeback_hit 0
Core_0_STLB_writeback_miss 0
Core_0_STLB_writeback_MPKI 0
Core_0_STLB_writeback_miss_rate 0
Core_0_STLB_prefetch_requested 0
Core_0_STLB_prefetch_issued 0
Core_0_STLB_prefetch_useful 0
Core_0_STLB_prefetch_useless 0
Core_0_STLB_prefetch_late 0
Core_0_STLB_prefetch_accuracy 0
Core_0_STLB_prefetch_coverage 0

Core_0_L1I_total_access 571664
Core_0_L1I_total_hit 571500
Core_0_L1I_total_miss 164
Core_0_L1I_total_MPKI 0.00328
Core_0_L1I_total_miss_rate 0.000286882
Core_0_L1I_demand_access 571664
Core_0_L1I_demand_hit 571500
Core_0_L1I_demand_miss 164
Core_0_L1I_demand_MPKI 0.00328
Core_0_L1I_demand_miss_rate 0.000286882
Core_0_L1I_load_access 571664
Core_0_L1I_load_hit 571500
Core_0_L1I_load_miss 164
Core_0_L1I_load_MPKI 0.00328
Core_0_L1I_load_miss_rate 0.000286882
Core_0_L1I_rfo_access 0
Core_0_L1I_rfo_hit 0
Core_0_L1I_rfo_miss 0
Core_0_L1I_rfo_MPKI 0
Core_0_L1I_rfo_miss_rate 0
Core_0_L1I_prefetch_access 0
Core_0_L1I_prefetch_hit 0
Core_0_L1I_prefetch_miss 0
Core_0_L1I_prefetch_MPKI 0
Core_0_L1I_prefetch_miss_rate 0
Core_0_L1I_writeback_access 0
Core_0_L1I_writeback_hit 0
Core_0_L1I_writeback_miss 0
Core_0_L1I_writeback_MPKI 0
Core_0_L1I_writeback_miss_rate 0
Core_0_L1I_prefetch_requested 0
Core_0_L1I_prefetch_issued 0
Core_0_L1I_prefetch_useful 0
Core_0_L1I_prefetch_useless 0
Core_0_L1I_prefetch_late 0
Core_0_L1I_prefetch_accuracy 0
Core_0_L1I_prefetch_coverage 0

Core_0_L1D_total_access 13746455
Core_0_L1D_total_hit 13738153
Core_0_L1D_total_miss 8302
Core_0_L1D_total_MPKI 0.16604
Core_0_L1D_total_miss_rate 0.000603938
Core_0_L1D_demand_access 7420719
Core_0_L1D_demand_hit 7416613
Core_0_L1D_demand_miss 4106
Core_0_L1D_demand_MPKI 0.08212
Core_0_L1D_demand_miss_rate 0.000553316
Core_0_L1D_load_access 7420719
Core_0_L1D_load_hit 7416613
Core_0_L1D_load_miss 4106
Core_0_L1D_load_MPKI 0.08212
Core_0_L1D_load_miss_rate 0.000553316
Core_0_L1D_rfo_access 0
Core_0_L1D_rfo_hit 0
Core_0_L1D_rfo_miss 0
Core_0_L1D_rfo_MPKI 0
Core_0_L1D_rfo_miss_rate 0
Core_0_L1D_prefetch_access 11305
Core_0_L1D_prefetch_hit 8171
Core_0_L1D_prefetch_miss 3134
Core_0_L1D_prefetch_MPKI 0.06268
Core_0_L1D_prefetch_miss_rate 0.277222
Core_0_L1D_writeback_access 6314431
Core_0_L1D_writeback_hit 6313369
Core_0_L1D_writeback_miss 1062
Core_0_L1D_writeback_MPKI 0.02124
Core_0_L1D_writeback_miss_rate 0.000168186
Core_0_L1D_prefetch_requested 11305
Core_0_L1D_prefetch_issued 11305
Core_0_L1D_prefetch_useful 1689
Core_0_L1D_prefetch_useless 1394
Core_0_L1D_prefetch_late 80
Core_0_L1D_prefetch_accuracy 0.149403
Core_0_L1D_prefetch_coverage 0.291458

Core_0_L2C_total_access 28212
Core_0_L2C_total_hit 15543
Core_0_L2C_total_miss 12669
Core_0_L2C_total_MPKI 0.25338
Core_0_L2C_total_miss_rate 0.449064
Core_0_L2C_demand_access 3881
Core_0_L2C_demand_hit 1863
Core_0_L2C_demand_miss 2018
Core_0_L2C_demand_MPKI 0.04036
Core_0_L2C_demand_miss_rate 0.519969
Core_0_L2C_load_access 3511
Core_0_L2C_load_hit 1659
Core_0_L2C_load_miss 1852
Core_0_L2C_load_MPKI 0.03704
Core_0_L2C_load_miss_rate 0.527485
Core_0_L2C_rfo_access 370
Core_0_L2C_rfo_hit 204
Core_0_L2C_rfo_miss 166
Core_0_L2C_rfo_MPKI 0.00332
Core_0_L2C_rfo_miss_rate 0.448649
Core_0_L2C_prefetch_access 23580
Core_0_L2C_prefetch_hit 12931
Core_0_L2C_prefetch_miss 10649
Core_0_L2C_prefetch_MPKI 0.21298
Core_0_L2C_prefetch_miss_rate 0.451612
Core_0_L2C_writeback_access 751
Core_0_L2C_writeback_hit 749
Core_0_L2C_writeback_miss 2
Core_0_L2C_writeback_MPKI 4e-05
Core_0_L2C_writeback_miss_rate 0.00266312
Core_0_L2C_prefetch_requested 20498
Core_0_L2C_prefetch_issued 20475
Core_0_L2C_prefetch_useful 3032
Core_0_L2C_prefetch_useless 898
Core_0_L2C_prefetch_late 107
Core_0_L2C_prefetch_accuracy 0.148083
Core_0_L2C_prefetch_coverage 0.600396

Core_0_LLC_total_access 8788
Core_0_LLC_total_hit 195
Core_0_LLC_total_miss 8593
Core_0_LLC_total_MPKI 0.17186
Core_0_LLC_total_miss_rate 0.977811
Core_0_LLC_demand_access 1911
Core_0_LLC_demand_hit 15
Core_0_LLC_demand_miss 1896
Core_0_LLC_demand_MPKI 0.03792
Core_0_LLC_demand_miss_rate 0.992151
Core_0_LLC_load_access 1747
Core_0_LLC_load_hit 12
Core_0_LLC_load_miss 1735
Core_0_LLC_load_MPKI 0.0347
Core_0_LLC_load_miss_rate 0.993131
Core_0_LLC_rfo_access 164
Core_0_LLC_rfo_hit 3
Core_0_LLC_rfo_miss 161
Core_0_LLC_rfo_MPKI 0.00322
Core_0_LLC_rfo_miss_rate 0.981707
Core_0_LLC_prefetch_access 6721
Core_0_LLC_prefetch_hit 24
Core_0_LLC_prefetch_miss 6697
Core_0_LLC_prefetch_MPKI 0.13394
Core_0_LLC_prefetch_miss_rate 0.996429
Core_0_LLC_writeback_access 156
Core_0_LLC_writeback_hit 156
Core_0_LLC_writeback_miss 0
Core_0_LLC_writeback_MPKI 0
Core_0_LLC_writeback_miss_rate 0
Core_0_LLC_prefetch_requested 0
Core_0_LLC_prefetch_issued 0
Core_0_LLC_prefetch_useful 0
Core_0_LLC_prefetch_useless 0
Core_0_LLC_prefetch_late 0
Core_0_LLC_prefetch_accuracy 0
Core_0_LLC_prefetch_coverage 0

[DRAM Statistics]
Channel_0_RQ_row_buffer_hit 171
Channel_0_RQ_row_buffer_miss 8546
Channel_0_WQ_row_buffer_hit 0
Channel_0_WQ_row_buffer_miss 0
Channel_0_WQ_full 0
Channel_0_dbus_congested 12563
DRAM_total_RQ_row_buffer_hit 171
DRAM_total_RQ_row_buffer_miss 8546
DRAM_total_WQ_row_buffer_hit 0
DRAM_total_WQ_row_buffer_miss 0
DRAM_total_WQ_full 0
DRAM_total_dbus_congested 12563
DRAM_avg_congested_cycle 2.85258

======STLB miss causes ========
Core_0_STLB_miss_cause_breakdown
Core_0_STLB_cause_Demand_Data_miss 403
Core_0_STLB_cause_Demand_Data_miss_rate 0.0915285
Core_0_STLB_cause_Demand_Instruction_miss 1
Core_0_STLB_cause_Demand_Instruction_miss_rate 0.000227118
Core_0_STLB_cause_L1D_Prefetch_miss 0
Core_0_STLB_cause_L1D_Prefetch_miss_rate 0
Core_0_STLB_cause_L1I_Prefetch_miss 0
Core_0_STLB_cause_L1I_Prefetch_miss_rate 0
Core_0_STLB_cause_Other_miss 0
Core_0_STLB_cause_Other_miss_rate 0
Core_0_STLB_Demand_miss 404
Core_0_STLB_Demand_miss_rate 0.0917556
Core_0_STLB_L1D_Prefetch_miss 0
Core_0_STLB_L1D_Prefetch_miss_rate 0
Core_0_STLB_Other_miss 0
Core_0_STLB_Other_miss_rate 0
