[VMEM] WARNING: physical memory size is smaller than virtual memory size.

*** ChampSim Multicore Out-of-Order Simulator ***
Warmup Instructions: 20000000
Simulation Instructions: 50000000
Number of CPUs: 1
Page size: 4096
STLB ideal mode: l1pref
Core 0: /data0/tzh/champsim_traces/SPEC06/401.bzip2-226B.champsimtrace.xz
 L1D Berti prefetcher
Off-chip DRAM Size: 4 GiB Channels: 1 Width: 64-bit Data Rate: 3205 MT/s
Warmup halting CPU 0 at instruction 20000004 cycle 4359182 for remainder of phase
Warmup finished CPU 0 instructions: 20000004 cycles: 4359182 cumulative IPC: 4.588 (Simulation time: 00 hr 00 min 59 sec)
Warmup complete CPU 0 instructions: 20000004 cycles: 4359182 cumulative IPC: 4.588 (Simulation time: 00 hr 00 min 59 sec)
Simulation finished CPU 0 instructions: 50000004 cycles: 23052046 cumulative IPC: 2.169 (Simulation time: 00 hr 04 min 34 sec)
Simulation complete CPU 0 instructions: 50000004 cycles: 23052046 cumulative IPC: 2.169 (Simulation time: 00 hr 04 min 34 sec)

ChampSim completed all CPUs

=== Simulation ===
CPU 0 runs /data0/tzh/champsim_traces/SPEC06/401.bzip2-226B.champsimtrace.xz

Region of Interest Statistics

CPU 0 cumulative IPC: 2.169 instructions: 50000004 cycles: 23052046
CPU 0 Branch Prediction Accuracy: 93.29% MPKI: 7.865 Average ROB Occupancy at Mispredict: 41.02
Branch type MPKI
BRANCH_DIRECT_JUMP: 0.0003
BRANCH_INDIRECT: 0
BRANCH_CONDITIONAL: 7.864
BRANCH_DIRECT_CALL: 6e-05
BRANCH_INDIRECT_CALL: 0
BRANCH_RETURN: 6e-05

cpu0->cpu0_STLB TOTAL        ACCESS:     725668 HIT:     724596 MISS:       1072 MSHR_MERGE:          0
cpu0->cpu0_STLB LOAD         ACCESS:     725668 HIT:     724596 MISS:       1072 MSHR_MERGE:          0
cpu0->cpu0_STLB RFO          ACCESS:          0 HIT:          0 MISS:          0 MSHR_MERGE:          0
cpu0->cpu0_STLB PREFETCH     ACCESS:          0 HIT:          0 MISS:          0 MSHR_MERGE:          0
cpu0->cpu0_STLB WRITE        ACCESS:          0 HIT:          0 MISS:          0 MSHR_MERGE:          0
cpu0->cpu0_STLB TRANSLATION  ACCESS:          0 HIT:          0 MISS:          0 MSHR_MERGE:          0
cpu0->cpu0_STLB PREFETCH REQUESTED:          0 ISSUED:          0 USEFUL:          0 USELESS:          0 LATE:          0
cpu0->cpu0_STLB AVERAGE MISS LATENCY: 298.2 cycles
cpu0->cpu0_L2C TOTAL        ACCESS:    2319738 HIT:    1819385 MISS:     500353 MSHR_MERGE:      40360
cpu0->cpu0_L2C LOAD         ACCESS:     461033 HIT:     369548 MISS:      91485 MSHR_MERGE:       1876
cpu0->cpu0_L2C RFO          ACCESS:     270034 HIT:     150790 MISS:     119244 MSHR_MERGE:          0
cpu0->cpu0_L2C PREFETCH     ACCESS:    1162300 HIT:     873228 MISS:     289072 MSHR_MERGE:      38484
cpu0->cpu0_L2C WRITE        ACCESS:     425834 HIT:     425582 MISS:        252 MSHR_MERGE:          0
cpu0->cpu0_L2C TRANSLATION  ACCESS:        537 HIT:        237 MISS:        300 MSHR_MERGE:          0
cpu0->cpu0_L2C PREFETCH REQUESTED:    1336301 ISSUED:     975357 USEFUL:      77002 USELESS:     128002 LATE:       1876
cpu0->cpu0_L2C AVERAGE MISS LATENCY: 158.9 cycles
cpu0->cpu0_L1I TOTAL        ACCESS:    3398920 HIT:    3398832 MISS:         88 MSHR_MERGE:         15
cpu0->cpu0_L1I LOAD         ACCESS:    3398920 HIT:    3398832 MISS:         88 MSHR_MERGE:         15
cpu0->cpu0_L1I RFO          ACCESS:          0 HIT:          0 MISS:          0 MSHR_MERGE:          0
cpu0->cpu0_L1I PREFETCH     ACCESS:          0 HIT:          0 MISS:          0 MSHR_MERGE:          0
cpu0->cpu0_L1I WRITE        ACCESS:          0 HIT:          0 MISS:          0 MSHR_MERGE:          0
cpu0->cpu0_L1I TRANSLATION  ACCESS:          0 HIT:          0 MISS:          0 MSHR_MERGE:          0
cpu0->cpu0_L1I PREFETCH REQUESTED:          0 ISSUED:          0 USEFUL:          0 USELESS:          0 LATE:          0
cpu0->cpu0_L1I AVERAGE MISS LATENCY: 241.8 cycles
cpu0->cpu0_L1D TOTAL        ACCESS:   14198214 HIT:   12463592 MISS:    1734622 MSHR_MERGE:     816010
cpu0->cpu0_L1D LOAD         ACCESS:    8241025 HIT:    7643596 MISS:     597429 MSHR_MERGE:     136420
cpu0->cpu0_L1D RFO          ACCESS:          0 HIT:          0 MISS:          0 MSHR_MERGE:          0
cpu0->cpu0_L1D PREFETCH     ACCESS:     440715 HIT:     240656 MISS:     200059 MSHR_MERGE:      13082
cpu0->cpu0_L1D WRITE        ACCESS:    5514330 HIT:    4577743 MISS:     936587 MSHR_MERGE:     666498
cpu0->cpu0_L1D TRANSLATION  ACCESS:       2144 HIT:       1597 MISS:        547 MSHR_MERGE:         10
cpu0->cpu0_L1D PREFETCH REQUESTED:     676487 ISSUED:     440707 USEFUL:      56735 USELESS:     130043 LATE:       5949
cpu0->cpu0_L1D AVERAGE MISS LATENCY: 54.7 cycles
cpu0->cpu0_ITLB TOTAL        ACCESS:    2732161 HIT:    2732161 MISS:          0 MSHR_MERGE:          0
cpu0->cpu0_ITLB LOAD         ACCESS:    2732161 HIT:    2732161 MISS:          0 MSHR_MERGE:          0
cpu0->cpu0_ITLB RFO          ACCESS:          0 HIT:          0 MISS:          0 MSHR_MERGE:          0
cpu0->cpu0_ITLB PREFETCH     ACCESS:          0 HIT:          0 MISS:          0 MSHR_MERGE:          0
cpu0->cpu0_ITLB WRITE        ACCESS:          0 HIT:          0 MISS:          0 MSHR_MERGE:          0
cpu0->cpu0_ITLB TRANSLATION  ACCESS:          0 HIT:          0 MISS:          0 MSHR_MERGE:          0
cpu0->cpu0_ITLB PREFETCH REQUESTED:          0 ISSUED:          0 USEFUL:          0 USELESS:          0 LATE:          0
cpu0->cpu0_ITLB AVERAGE MISS LATENCY: - cycles
cpu0->cpu0_DTLB TOTAL        ACCESS:   13477792 HIT:   12651057 MISS:     826735 MSHR_MERGE:     101067
cpu0->cpu0_DTLB LOAD         ACCESS:   13477792 HIT:   12651057 MISS:     826735 MSHR_MERGE:     101067
cpu0->cpu0_DTLB RFO          ACCESS:          0 HIT:          0 MISS:          0 MSHR_MERGE:          0
cpu0->cpu0_DTLB PREFETCH     ACCESS:          0 HIT:          0 MISS:          0 MSHR_MERGE:          0
cpu0->cpu0_DTLB WRITE        ACCESS:          0 HIT:          0 MISS:          0 MSHR_MERGE:          0
cpu0->cpu0_DTLB TRANSLATION  ACCESS:          0 HIT:          0 MISS:          0 MSHR_MERGE:          0
cpu0->cpu0_DTLB PREFETCH REQUESTED:          0 ISSUED:          0 USEFUL:          0 USELESS:          0 LATE:          0
cpu0->cpu0_DTLB AVERAGE MISS LATENCY: 5.451 cycles
cpu0->LLC TOTAL        ACCESS:     613584 HIT:     412649 MISS:     200935 MSHR_MERGE:          0
cpu0->LLC LOAD         ACCESS:      89608 HIT:      73839 MISS:      15769 MSHR_MERGE:          0
cpu0->LLC RFO          ACCESS:     119244 HIT:      36260 MISS:      82984 MSHR_MERGE:          0
cpu0->LLC PREFETCH     ACCESS:     250587 HIT:     199675 MISS:      50912 MSHR_MERGE:          0
cpu0->LLC WRITE        ACCESS:     153845 HIT:     102833 MISS:      51012 MSHR_MERGE:          0
cpu0->LLC TRANSLATION  ACCESS:        300 HIT:         42 MISS:        258 MSHR_MERGE:          0
cpu0->LLC PREFETCH REQUESTED:          0 ISSUED:          0 USEFUL:          0 USELESS:          0 LATE:          0
cpu0->LLC AVERAGE MISS LATENCY: 204.1 cycles

DRAM Statistics

Channel 0 RQ ROW_BUFFER_HIT:       8077
  ROW_BUFFER_MISS:     141656
  AVG DBUS CONGESTED CYCLE: 8.942
Channel 0 WQ ROW_BUFFER_HIT:      13563
  ROW_BUFFER_MISS:      76490
  FULL:          0
Channel 0 REFRESHES ISSUED:       1921

[ROI Statistics]
[System Configuration]
num_cpus 1
cpu_freq 4000
fetch_width 6
decode_width 6
dispatch_width 6
execute_width 6
lq_width 2
sq_width 2
retire_width 6
scheduler_size 160
branch_mispredict_penalty 1
rob_size 352
lq_size 240
sq_size 112
ifetch_buffer_size 64
decode_buffer_size 32
dispatch_buffer_size 32
register_file_size 288
decode_latency 1
dispatch_latency 1
schedule_latency 0
execute_latency 0
page_size 4096
block_size 64
core_0_itlb_set 16
core_0_itlb_way 4
core_0_itlb_rq_size 16
core_0_itlb_wq_size 16
core_0_itlb_pq_size 0
core_0_itlb_mshr_size 8
core_0_itlb_hit_latency 1
core_0_itlb_fill_latency 1
core_0_itlb_max_tag_check 2
core_0_itlb_max_fill 2
core_0_dtlb_set 16
core_0_dtlb_way 4
core_0_dtlb_rq_size 16
core_0_dtlb_wq_size 16
core_0_dtlb_pq_size 0
core_0_dtlb_mshr_size 8
core_0_dtlb_hit_latency 1
core_0_dtlb_fill_latency 1
core_0_dtlb_max_tag_check 2
core_0_dtlb_max_fill 2
core_0_stlb_set 128
core_0_stlb_way 12
core_0_stlb_rq_size 32
core_0_stlb_wq_size 32
core_0_stlb_pq_size 0
core_0_stlb_mshr_size 16
core_0_stlb_hit_latency 4
core_0_stlb_fill_latency 4
core_0_stlb_max_tag_check 1
core_0_stlb_max_fill 1
core_0_l1i_set 64
core_0_l1i_way 8
core_0_l1i_rq_size 64
core_0_l1i_wq_size 64
core_0_l1i_pq_size 32
core_0_l1i_mshr_size 8
core_0_l1i_hit_latency 2
core_0_l1i_fill_latency 2
core_0_l1i_max_tag_check 2
core_0_l1i_max_fill 2
core_0_l1d_set 64
core_0_l1d_way 12
core_0_l1d_rq_size 64
core_0_l1d_wq_size 64
core_0_l1d_pq_size 8
core_0_l1d_mshr_size 16
core_0_l1d_hit_latency 2
core_0_l1d_fill_latency 3
core_0_l1d_max_tag_check 2
core_0_l1d_max_fill 2
core_0_l2c_set 1024
core_0_l2c_way 8
core_0_l2c_rq_size 32
core_0_l2c_wq_size 32
core_0_l2c_pq_size 16
core_0_l2c_mshr_size 32
core_0_l2c_hit_latency 5
core_0_l2c_fill_latency 5
core_0_l2c_max_tag_check 1
core_0_l2c_max_fill 1
llc_set 2048
llc_way 16
llc_rq_size 32
llc_wq_size 32
llc_pq_size 32
llc_mshr_size 64
llc_hit_latency 10
llc_fill_latency 10
llc_max_tag_check 1
llc_max_fill 1
dram_channels 1
dram_ranks 1
dram_bankgroups 8
dram_banks 4
dram_rows 16384
dram_columns 1024
dram_channel_width 8
dram_rq_size 64
dram_wq_size 64
dram_size 4294967296
core_0_itlb_prefetcher no
core_0_dtlb_prefetcher no
core_0_stlb_prefetcher no
core_0_l1i_prefetcher next_line
core_0_l1d_prefetcher berti
core_0_l2c_prefetcher pythia
llc_prefetcher no
llc_replacement drrip

Core_0_instructions 50000004
Core_0_cycles 23052046
Core_0_IPC 2.16901
Core_0_branch_prediction_accuracy 93.2939
Core_0_branch_MPKI 7.8649
Core_0_average_ROB_occupancy_at_mispredict 41.0182

Core_0_ITLB_total_access 2732161
Core_0_ITLB_total_hit 2732161
Core_0_ITLB_total_miss 0
Core_0_ITLB_total_MPKI 0
Core_0_ITLB_total_miss_rate 0
Core_0_ITLB_demand_access 2732161
Core_0_ITLB_demand_hit 2732161
Core_0_ITLB_demand_miss 0
Core_0_ITLB_demand_MPKI 0
Core_0_ITLB_demand_miss_rate 0
Core_0_ITLB_load_access 2732161
Core_0_ITLB_load_hit 2732161
Core_0_ITLB_load_miss 0
Core_0_ITLB_load_MPKI 0
Core_0_ITLB_load_miss_rate 0
Core_0_ITLB_rfo_access 0
Core_0_ITLB_rfo_hit 0
Core_0_ITLB_rfo_miss 0
Core_0_ITLB_rfo_MPKI 0
Core_0_ITLB_rfo_miss_rate 0
Core_0_ITLB_prefetch_access 0
Core_0_ITLB_prefetch_hit 0
Core_0_ITLB_prefetch_miss 0
Core_0_ITLB_prefetch_MPKI 0
Core_0_ITLB_prefetch_miss_rate 0
Core_0_ITLB_writeback_access 0
Core_0_ITLB_writeback_hit 0
Core_0_ITLB_writeback_miss 0
Core_0_ITLB_writeback_MPKI 0
Core_0_ITLB_writeback_miss_rate 0
Core_0_ITLB_prefetch_requested 0
Core_0_ITLB_prefetch_issued 0
Core_0_ITLB_prefetch_useful 0
Core_0_ITLB_prefetch_useless 0
Core_0_ITLB_prefetch_late 0
Core_0_ITLB_prefetch_accuracy 0
Core_0_ITLB_prefetch_coverage 0

Core_0_DTLB_total_access 13477792
Core_0_DTLB_total_hit 12651057
Core_0_DTLB_total_miss 826735
Core_0_DTLB_total_MPKI 16.5347
Core_0_DTLB_total_miss_rate 0.0613405
Core_0_DTLB_demand_access 13477792
Core_0_DTLB_demand_hit 12651057
Core_0_DTLB_demand_miss 826735
Core_0_DTLB_demand_MPKI 16.5347
Core_0_DTLB_demand_miss_rate 0.0613405
Core_0_DTLB_load_access 13477792
Core_0_DTLB_load_hit 12651057
Core_0_DTLB_load_miss 826735
Core_0_DTLB_load_MPKI 16.5347
Core_0_DTLB_load_miss_rate 0.0613405
Core_0_DTLB_rfo_access 0
Core_0_DTLB_rfo_hit 0
Core_0_DTLB_rfo_miss 0
Core_0_DTLB_rfo_MPKI 0
Core_0_DTLB_rfo_miss_rate 0
Core_0_DTLB_prefetch_access 0
Core_0_DTLB_prefetch_hit 0
Core_0_DTLB_prefetch_miss 0
Core_0_DTLB_prefetch_MPKI 0
Core_0_DTLB_prefetch_miss_rate 0
Core_0_DTLB_writeback_access 0
Core_0_DTLB_writeback_hit 0
Core_0_DTLB_writeback_miss 0
Core_0_DTLB_writeback_MPKI 0
Core_0_DTLB_writeback_miss_rate 0
Core_0_DTLB_prefetch_requested 0
Core_0_DTLB_prefetch_issued 0
Core_0_DTLB_prefetch_useful 0
Core_0_DTLB_prefetch_useless 0
Core_0_DTLB_prefetch_late 0
Core_0_DTLB_prefetch_accuracy 0
Core_0_DTLB_prefetch_coverage 0

Core_0_STLB_total_access 725668
Core_0_STLB_total_hit 724596
Core_0_STLB_total_miss 1072
Core_0_STLB_total_MPKI 0.02144
Core_0_STLB_total_miss_rate 0.00147726
Core_0_STLB_demand_access 725668
Core_0_STLB_demand_hit 724596
Core_0_STLB_demand_miss 1072
Core_0_STLB_demand_MPKI 0.02144
Core_0_STLB_demand_miss_rate 0.00147726
Core_0_STLB_load_access 725668
Core_0_STLB_load_hit 724596
Core_0_STLB_load_miss 1072
Core_0_STLB_load_MPKI 0.02144
Core_0_STLB_load_miss_rate 0.00147726
Core_0_STLB_rfo_access 0
Core_0_STLB_rfo_hit 0
Core_0_STLB_rfo_miss 0
Core_0_STLB_rfo_MPKI 0
Core_0_STLB_rfo_miss_rate 0
Core_0_STLB_prefetch_access 0
Core_0_STLB_prefetch_hit 0
Core_0_STLB_prefetch_miss 0
Core_0_STLB_prefetch_MPKI 0
Core_0_STLB_prefetch_miss_rate 0
Core_0_STLB_writeback_access 0
Core_0_STLB_writeback_hit 0
Core_0_STLB_writeback_miss 0
Core_0_STLB_writeback_MPKI 0
Core_0_STLB_writeback_miss_rate 0
Core_0_STLB_prefetch_requested 0
Core_0_STLB_prefetch_issued 0
Core_0_STLB_prefetch_useful 0
Core_0_STLB_prefetch_useless 0
Core_0_STLB_prefetch_late 0
Core_0_STLB_prefetch_accuracy 0
Core_0_STLB_prefetch_coverage 0

Core_0_L1I_total_access 3398920
Core_0_L1I_total_hit 3398832
Core_0_L1I_total_miss 88
Core_0_L1I_total_MPKI 0.00176
Core_0_L1I_total_miss_rate 2.58906e-05
Core_0_L1I_demand_access 3398920
Core_0_L1I_demand_hit 3398832
Core_0_L1I_demand_miss 88
Core_0_L1I_demand_MPKI 0.00176
Core_0_L1I_demand_miss_rate 2.58906e-05
Core_0_L1I_load_access 3398920
Core_0_L1I_load_hit 3398832
Core_0_L1I_load_miss 88
Core_0_L1I_load_MPKI 0.00176
Core_0_L1I_load_miss_rate 2.58906e-05
Core_0_L1I_rfo_access 0
Core_0_L1I_rfo_hit 0
Core_0_L1I_rfo_miss 0
Core_0_L1I_rfo_MPKI 0
Core_0_L1I_rfo_miss_rate 0
Core_0_L1I_prefetch_access 0
Core_0_L1I_prefetch_hit 0
Core_0_L1I_prefetch_miss 0
Core_0_L1I_prefetch_MPKI 0
Core_0_L1I_prefetch_miss_rate 0
Core_0_L1I_writeback_access 0
Core_0_L1I_writeback_hit 0
Core_0_L1I_writeback_miss 0
Core_0_L1I_writeback_MPKI 0
Core_0_L1I_writeback_miss_rate 0
Core_0_L1I_prefetch_requested 0
Core_0_L1I_prefetch_issued 0
Core_0_L1I_prefetch_useful 0
Core_0_L1I_prefetch_useless 0
Core_0_L1I_prefetch_late 0
Core_0_L1I_prefetch_accuracy 0
Core_0_L1I_prefetch_coverage 0

Core_0_L1D_total_access 14196070
Core_0_L1D_total_hit 12461995
Core_0_L1D_total_miss 1734075
Core_0_L1D_total_MPKI 34.6815
Core_0_L1D_total_miss_rate 0.122152
Core_0_L1D_demand_access 8241025
Core_0_L1D_demand_hit 7643596
Core_0_L1D_demand_miss 597429
Core_0_L1D_demand_MPKI 11.9486
Core_0_L1D_demand_miss_rate 0.0724945
Core_0_L1D_load_access 8241025
Core_0_L1D_load_hit 7643596
Core_0_L1D_load_miss 597429
Core_0_L1D_load_MPKI 11.9486
Core_0_L1D_load_miss_rate 0.0724945
Core_0_L1D_rfo_access 0
Core_0_L1D_rfo_hit 0
Core_0_L1D_rfo_miss 0
Core_0_L1D_rfo_MPKI 0
Core_0_L1D_rfo_miss_rate 0
Core_0_L1D_prefetch_access 440715
Core_0_L1D_prefetch_hit 240656
Core_0_L1D_prefetch_miss 200059
Core_0_L1D_prefetch_MPKI 4.00118
Core_0_L1D_prefetch_miss_rate 0.453942
Core_0_L1D_writeback_access 5514330
Core_0_L1D_writeback_hit 4577743
Core_0_L1D_writeback_miss 936587
Core_0_L1D_writeback_MPKI 18.7317
Core_0_L1D_writeback_miss_rate 0.169846
Core_0_L1D_prefetch_requested 676487
Core_0_L1D_prefetch_issued 440707
Core_0_L1D_prefetch_useful 56735
Core_0_L1D_prefetch_useless 130043
Core_0_L1D_prefetch_late 5949
Core_0_L1D_prefetch_accuracy 0.128736
Core_0_L1D_prefetch_coverage 0.086729

Core_0_L2C_total_access 2319201
Core_0_L2C_total_hit 1819148
Core_0_L2C_total_miss 500053
Core_0_L2C_total_MPKI 10.0011
Core_0_L2C_total_miss_rate 0.215614
Core_0_L2C_demand_access 731067
Core_0_L2C_demand_hit 520338
Core_0_L2C_demand_miss 210729
Core_0_L2C_demand_MPKI 4.21458
Core_0_L2C_demand_miss_rate 0.288249
Core_0_L2C_load_access 461033
Core_0_L2C_load_hit 369548
Core_0_L2C_load_miss 91485
Core_0_L2C_load_MPKI 1.8297
Core_0_L2C_load_miss_rate 0.198435
Core_0_L2C_rfo_access 270034
Core_0_L2C_rfo_hit 150790
Core_0_L2C_rfo_miss 119244
Core_0_L2C_rfo_MPKI 2.38488
Core_0_L2C_rfo_miss_rate 0.441589
Core_0_L2C_prefetch_access 1162300
Core_0_L2C_prefetch_hit 873228
Core_0_L2C_prefetch_miss 289072
Core_0_L2C_prefetch_MPKI 5.78144
Core_0_L2C_prefetch_miss_rate 0.248707
Core_0_L2C_writeback_access 425834
Core_0_L2C_writeback_hit 425582
Core_0_L2C_writeback_miss 252
Core_0_L2C_writeback_MPKI 0.00504
Core_0_L2C_writeback_miss_rate 0.00059178
Core_0_L2C_prefetch_requested 1336301
Core_0_L2C_prefetch_issued 975357
Core_0_L2C_prefetch_useful 77002
Core_0_L2C_prefetch_useless 128002
Core_0_L2C_prefetch_late 1876
Core_0_L2C_prefetch_accuracy 0.0789475
Core_0_L2C_prefetch_coverage 0.267618

Core_0_LLC_total_access 613284
Core_0_LLC_total_hit 412607
Core_0_LLC_total_miss 200677
Core_0_LLC_total_MPKI 4.01354
Core_0_LLC_total_miss_rate 0.327217
Core_0_LLC_demand_access 208852
Core_0_LLC_demand_hit 110099
Core_0_LLC_demand_miss 98753
Core_0_LLC_demand_MPKI 1.97506
Core_0_LLC_demand_miss_rate 0.472837
Core_0_LLC_load_access 89608
Core_0_LLC_load_hit 73839
Core_0_LLC_load_miss 15769
Core_0_LLC_load_MPKI 0.31538
Core_0_LLC_load_miss_rate 0.175978
Core_0_LLC_rfo_access 119244
Core_0_LLC_rfo_hit 36260
Core_0_LLC_rfo_miss 82984
Core_0_LLC_rfo_MPKI 1.65968
Core_0_LLC_rfo_miss_rate 0.695918
Core_0_LLC_prefetch_access 250587
Core_0_LLC_prefetch_hit 199675
Core_0_LLC_prefetch_miss 50912
Core_0_LLC_prefetch_MPKI 1.01824
Core_0_LLC_prefetch_miss_rate 0.203171
Core_0_LLC_writeback_access 153845
Core_0_LLC_writeback_hit 102833
Core_0_LLC_writeback_miss 51012
Core_0_LLC_writeback_MPKI 1.02024
Core_0_LLC_writeback_miss_rate 0.33158
Core_0_LLC_prefetch_requested 0
Core_0_LLC_prefetch_issued 0
Core_0_LLC_prefetch_useful 0
Core_0_LLC_prefetch_useless 0
Core_0_LLC_prefetch_late 0
Core_0_LLC_prefetch_accuracy 0
Core_0_LLC_prefetch_coverage 0

[DRAM Statistics]
Channel_0_RQ_row_buffer_hit 8077
Channel_0_RQ_row_buffer_miss 141656
Channel_0_WQ_row_buffer_hit 13563
Channel_0_WQ_row_buffer_miss 76490
Channel_0_WQ_full 0
Channel_0_dbus_congested 653924
DRAM_total_RQ_row_buffer_hit 8077
DRAM_total_RQ_row_buffer_miss 141656
DRAM_total_WQ_row_buffer_hit 13563
DRAM_total_WQ_row_buffer_miss 76490
DRAM_total_WQ_full 0
DRAM_total_dbus_congested 653924
DRAM_avg_congested_cycle 8.94208

======STLB miss causes ========
Core_0_STLB_miss_cause_breakdown
Core_0_STLB_cause_Demand_Data_miss 1072
Core_0_STLB_cause_Demand_Data_miss_rate 0.00147726
Core_0_STLB_cause_Demand_Instruction_miss 0
Core_0_STLB_cause_Demand_Instruction_miss_rate 0
Core_0_STLB_cause_L1D_Prefetch_miss 0
Core_0_STLB_cause_L1D_Prefetch_miss_rate 0
Core_0_STLB_cause_L1I_Prefetch_miss 0
Core_0_STLB_cause_L1I_Prefetch_miss_rate 0
Core_0_STLB_cause_Other_miss 0
Core_0_STLB_cause_Other_miss_rate 0
Core_0_STLB_Demand_miss 1072
Core_0_STLB_Demand_miss_rate 0.00147726
Core_0_STLB_L1D_Prefetch_miss 0
Core_0_STLB_L1D_Prefetch_miss_rate 0
Core_0_STLB_Other_miss 0
Core_0_STLB_Other_miss_rate 0
