[VMEM] WARNING: physical memory size is smaller than virtual memory size.

*** ChampSim Multicore Out-of-Order Simulator ***
Warmup Instructions: 20000000
Simulation Instructions: 50000000
Number of CPUs: 1
Page size: 4096
STLB ideal mode: l1pref
Core 0: /data0/tzh/champsim_traces/SPEC06/401.bzip2-7B.champsimtrace.xz
 L1D Berti prefetcher
Off-chip DRAM Size: 4 GiB Channels: 1 Width: 64-bit Data Rate: 3205 MT/s
Warmup halting CPU 0 at instruction 20000003 cycle 4221914 for remainder of phase
Warmup finished CPU 0 instructions: 20000003 cycles: 4221914 cumulative IPC: 4.737 (Simulation time: 00 hr 00 min 54 sec)
Warmup complete CPU 0 instructions: 20000003 cycles: 4221914 cumulative IPC: 4.737 (Simulation time: 00 hr 00 min 54 sec)
Simulation finished CPU 0 instructions: 50000003 cycles: 23211632 cumulative IPC: 2.154 (Simulation time: 00 hr 04 min 11 sec)
Simulation complete CPU 0 instructions: 50000003 cycles: 23211632 cumulative IPC: 2.154 (Simulation time: 00 hr 04 min 11 sec)

ChampSim completed all CPUs

=== Simulation ===
CPU 0 runs /data0/tzh/champsim_traces/SPEC06/401.bzip2-7B.champsimtrace.xz

Region of Interest Statistics

CPU 0 cumulative IPC: 2.154 instructions: 50000003 cycles: 23211632
CPU 0 Branch Prediction Accuracy: 92.47% MPKI: 11.31 Average ROB Occupancy at Mispredict: 35.31
Branch type MPKI
BRANCH_DIRECT_JUMP: 0
BRANCH_INDIRECT: 0
BRANCH_CONDITIONAL: 11.31
BRANCH_DIRECT_CALL: 0
BRANCH_INDIRECT_CALL: 0
BRANCH_RETURN: 0

cpu0->cpu0_STLB TOTAL        ACCESS:     118783 HIT:     118617 MISS:        166 MSHR_MERGE:          0
cpu0->cpu0_STLB LOAD         ACCESS:     118783 HIT:     118617 MISS:        166 MSHR_MERGE:          0
cpu0->cpu0_STLB RFO          ACCESS:          0 HIT:          0 MISS:          0 MSHR_MERGE:          0
cpu0->cpu0_STLB PREFETCH     ACCESS:          0 HIT:          0 MISS:          0 MSHR_MERGE:          0
cpu0->cpu0_STLB WRITE        ACCESS:          0 HIT:          0 MISS:          0 MSHR_MERGE:          0
cpu0->cpu0_STLB TRANSLATION  ACCESS:          0 HIT:          0 MISS:          0 MSHR_MERGE:          0
cpu0->cpu0_STLB PREFETCH REQUESTED:          0 ISSUED:          0 USEFUL:          0 USELESS:          0 LATE:          0
cpu0->cpu0_STLB AVERAGE MISS LATENCY: 239.2 cycles
cpu0->cpu0_L2C TOTAL        ACCESS:    3127060 HIT:    2786266 MISS:     340794 MSHR_MERGE:      35057
cpu0->cpu0_L2C LOAD         ACCESS:     401764 HIT:     358044 MISS:      43720 MSHR_MERGE:       3210
cpu0->cpu0_L2C RFO          ACCESS:     143824 HIT:      18942 MISS:     124882 MSHR_MERGE:          0
cpu0->cpu0_L2C PREFETCH     ACCESS:    2389368 HIT:    2217371 MISS:     171997 MSHR_MERGE:      31847
cpu0->cpu0_L2C WRITE        ACCESS:     191958 HIT:     191842 MISS:        116 MSHR_MERGE:          0
cpu0->cpu0_L2C TRANSLATION  ACCESS:        146 HIT:         67 MISS:         79 MSHR_MERGE:          0
cpu0->cpu0_L2C PREFETCH REQUESTED:    2384330 ISSUED:    2021182 USEFUL:      69923 USELESS:      41062 LATE:       3210
cpu0->cpu0_L2C AVERAGE MISS LATENCY: 49.47 cycles
cpu0->cpu0_L1I TOTAL        ACCESS:     406999 HIT:     406999 MISS:          0 MSHR_MERGE:          0
cpu0->cpu0_L1I LOAD         ACCESS:     406999 HIT:     406999 MISS:          0 MSHR_MERGE:          0
cpu0->cpu0_L1I RFO          ACCESS:          0 HIT:          0 MISS:          0 MSHR_MERGE:          0
cpu0->cpu0_L1I PREFETCH     ACCESS:          0 HIT:          0 MISS:          0 MSHR_MERGE:          0
cpu0->cpu0_L1I WRITE        ACCESS:          0 HIT:          0 MISS:          0 MSHR_MERGE:          0
cpu0->cpu0_L1I TRANSLATION  ACCESS:          0 HIT:          0 MISS:          0 MSHR_MERGE:          0
cpu0->cpu0_L1I PREFETCH REQUESTED:          0 ISSUED:          0 USEFUL:          0 USELESS:          0 LATE:          0
cpu0->cpu0_L1I AVERAGE MISS LATENCY: - cycles
cpu0->cpu0_L1D TOTAL        ACCESS:   15977610 HIT:   14846471 MISS:    1131139 MSHR_MERGE:     217220
cpu0->cpu0_L1D LOAD         ACCESS:   10289287 HIT:    9781741 MISS:     507546 MSHR_MERGE:     105782
cpu0->cpu0_L1D RFO          ACCESS:          0 HIT:          0 MISS:          0 MSHR_MERGE:          0
cpu0->cpu0_L1D PREFETCH     ACCESS:     589072 HIT:     188644 MISS:     400428 MSHR_MERGE:      32250
cpu0->cpu0_L1D WRITE        ACCESS:    5098920 HIT:    4875902 MISS:     223018 MSHR_MERGE:      79187
cpu0->cpu0_L1D TRANSLATION  ACCESS:        331 HIT:        184 MISS:        147 MSHR_MERGE:          1
cpu0->cpu0_L1D PREFETCH REQUESTED:     645520 ISSUED:     589064 USEFUL:     256880 USELESS:     111240 LATE:      29372
cpu0->cpu0_L1D AVERAGE MISS LATENCY: 23.57 cycles
cpu0->cpu0_ITLB TOTAL        ACCESS:     376348 HIT:     376348 MISS:          0 MSHR_MERGE:          0
cpu0->cpu0_ITLB LOAD         ACCESS:     376348 HIT:     376348 MISS:          0 MSHR_MERGE:          0
cpu0->cpu0_ITLB RFO          ACCESS:          0 HIT:          0 MISS:          0 MSHR_MERGE:          0
cpu0->cpu0_ITLB PREFETCH     ACCESS:          0 HIT:          0 MISS:          0 MSHR_MERGE:          0
cpu0->cpu0_ITLB WRITE        ACCESS:          0 HIT:          0 MISS:          0 MSHR_MERGE:          0
cpu0->cpu0_ITLB TRANSLATION  ACCESS:          0 HIT:          0 MISS:          0 MSHR_MERGE:          0
cpu0->cpu0_ITLB PREFETCH REQUESTED:          0 ISSUED:          0 USEFUL:          0 USELESS:          0 LATE:          0
cpu0->cpu0_ITLB AVERAGE MISS LATENCY: - cycles
cpu0->cpu0_DTLB TOTAL        ACCESS:   14810957 HIT:   14654748 MISS:     156209 MSHR_MERGE:      37426
cpu0->cpu0_DTLB LOAD         ACCESS:   14810957 HIT:   14654748 MISS:     156209 MSHR_MERGE:      37426
cpu0->cpu0_DTLB RFO          ACCESS:          0 HIT:          0 MISS:          0 MSHR_MERGE:          0
cpu0->cpu0_DTLB PREFETCH     ACCESS:          0 HIT:          0 MISS:          0 MSHR_MERGE:          0
cpu0->cpu0_DTLB WRITE        ACCESS:          0 HIT:          0 MISS:          0 MSHR_MERGE:          0
cpu0->cpu0_DTLB TRANSLATION  ACCESS:          0 HIT:          0 MISS:          0 MSHR_MERGE:          0
cpu0->cpu0_DTLB PREFETCH REQUESTED:          0 ISSUED:          0 USEFUL:          0 USELESS:          0 LATE:          0
cpu0->cpu0_DTLB AVERAGE MISS LATENCY: 5.341 cycles
cpu0->LLC TOTAL        ACCESS:     447653 HIT:     407607 MISS:      40046 MSHR_MERGE:          0
cpu0->LLC LOAD         ACCESS:      40510 HIT:      38608 MISS:       1902 MSHR_MERGE:          0
cpu0->LLC RFO          ACCESS:     124881 HIT:     107772 MISS:      17109 MSHR_MERGE:          0
cpu0->LLC PREFETCH     ACCESS:     140148 HIT:     128767 MISS:      11381 MSHR_MERGE:          0
cpu0->LLC WRITE        ACCESS:     142035 HIT:     132402 MISS:       9633 MSHR_MERGE:          0
cpu0->LLC TRANSLATION  ACCESS:         79 HIT:         58 MISS:         21 MSHR_MERGE:          0
cpu0->LLC PREFETCH REQUESTED:          0 ISSUED:          0 USEFUL:          0 USELESS:          0 LATE:          0
cpu0->LLC AVERAGE MISS LATENCY: 203 cycles

DRAM Statistics

Channel 0 RQ ROW_BUFFER_HIT:       2068
  ROW_BUFFER_MISS:      28063
  AVG DBUS CONGESTED CYCLE: 9.131
Channel 0 WQ ROW_BUFFER_HIT:       3118
  ROW_BUFFER_MISS:      17915
  FULL:         61
Channel 0 REFRESHES ISSUED:       1935

[ROI Statistics]
[System Configuration]
num_cpus 1
cpu_freq 4000
fetch_width 6
decode_width 6
dispatch_width 6
execute_width 6
lq_width 2
sq_width 2
retire_width 6
scheduler_size 160
branch_mispredict_penalty 1
rob_size 352
lq_size 240
sq_size 112
ifetch_buffer_size 64
decode_buffer_size 32
dispatch_buffer_size 32
register_file_size 288
decode_latency 1
dispatch_latency 1
schedule_latency 0
execute_latency 0
page_size 4096
block_size 64
core_0_itlb_set 16
core_0_itlb_way 4
core_0_itlb_rq_size 16
core_0_itlb_wq_size 16
core_0_itlb_pq_size 0
core_0_itlb_mshr_size 8
core_0_itlb_hit_latency 1
core_0_itlb_fill_latency 1
core_0_itlb_max_tag_check 2
core_0_itlb_max_fill 2
core_0_dtlb_set 16
core_0_dtlb_way 4
core_0_dtlb_rq_size 16
core_0_dtlb_wq_size 16
core_0_dtlb_pq_size 0
core_0_dtlb_mshr_size 8
core_0_dtlb_hit_latency 1
core_0_dtlb_fill_latency 1
core_0_dtlb_max_tag_check 2
core_0_dtlb_max_fill 2
core_0_stlb_set 128
core_0_stlb_way 12
core_0_stlb_rq_size 32
core_0_stlb_wq_size 32
core_0_stlb_pq_size 0
core_0_stlb_mshr_size 16
core_0_stlb_hit_latency 4
core_0_stlb_fill_latency 4
core_0_stlb_max_tag_check 1
core_0_stlb_max_fill 1
core_0_l1i_set 64
core_0_l1i_way 8
core_0_l1i_rq_size 64
core_0_l1i_wq_size 64
core_0_l1i_pq_size 32
core_0_l1i_mshr_size 8
core_0_l1i_hit_latency 2
core_0_l1i_fill_latency 2
core_0_l1i_max_tag_check 2
core_0_l1i_max_fill 2
core_0_l1d_set 64
core_0_l1d_way 12
core_0_l1d_rq_size 64
core_0_l1d_wq_size 64
core_0_l1d_pq_size 8
core_0_l1d_mshr_size 16
core_0_l1d_hit_latency 2
core_0_l1d_fill_latency 3
core_0_l1d_max_tag_check 2
core_0_l1d_max_fill 2
core_0_l2c_set 1024
core_0_l2c_way 8
core_0_l2c_rq_size 32
core_0_l2c_wq_size 32
core_0_l2c_pq_size 16
core_0_l2c_mshr_size 32
core_0_l2c_hit_latency 5
core_0_l2c_fill_latency 5
core_0_l2c_max_tag_check 1
core_0_l2c_max_fill 1
llc_set 2048
llc_way 16
llc_rq_size 32
llc_wq_size 32
llc_pq_size 32
llc_mshr_size 64
llc_hit_latency 10
llc_fill_latency 10
llc_max_tag_check 1
llc_max_fill 1
dram_channels 1
dram_ranks 1
dram_bankgroups 8
dram_banks 4
dram_rows 16384
dram_columns 1024
dram_channel_width 8
dram_rq_size 64
dram_wq_size 64
dram_size 4294967296
core_0_itlb_prefetcher no
core_0_dtlb_prefetcher no
core_0_stlb_prefetcher no
core_0_l1i_prefetcher next_line
core_0_l1d_prefetcher berti
core_0_l2c_prefetcher pythia
llc_prefetcher no
llc_replacement drrip

Core_0_instructions 50000003
Core_0_cycles 23211632
Core_0_IPC 2.15409
Core_0_branch_prediction_accuracy 92.4684
Core_0_branch_MPKI 11.3138
Core_0_average_ROB_occupancy_at_mispredict 35.3135

Core_0_ITLB_total_access 376348
Core_0_ITLB_total_hit 376348
Core_0_ITLB_total_miss 0
Core_0_ITLB_total_MPKI 0
Core_0_ITLB_total_miss_rate 0
Core_0_ITLB_demand_access 376348
Core_0_ITLB_demand_hit 376348
Core_0_ITLB_demand_miss 0
Core_0_ITLB_demand_MPKI 0
Core_0_ITLB_demand_miss_rate 0
Core_0_ITLB_load_access 376348
Core_0_ITLB_load_hit 376348
Core_0_ITLB_load_miss 0
Core_0_ITLB_load_MPKI 0
Core_0_ITLB_load_miss_rate 0
Core_0_ITLB_rfo_access 0
Core_0_ITLB_rfo_hit 0
Core_0_ITLB_rfo_miss 0
Core_0_ITLB_rfo_MPKI 0
Core_0_ITLB_rfo_miss_rate 0
Core_0_ITLB_prefetch_access 0
Core_0_ITLB_prefetch_hit 0
Core_0_ITLB_prefetch_miss 0
Core_0_ITLB_prefetch_MPKI 0
Core_0_ITLB_prefetch_miss_rate 0
Core_0_ITLB_writeback_access 0
Core_0_ITLB_writeback_hit 0
Core_0_ITLB_writeback_miss 0
Core_0_ITLB_writeback_MPKI 0
Core_0_ITLB_writeback_miss_rate 0
Core_0_ITLB_prefetch_requested 0
Core_0_ITLB_prefetch_issued 0
Core_0_ITLB_prefetch_useful 0
Core_0_ITLB_prefetch_useless 0
Core_0_ITLB_prefetch_late 0
Core_0_ITLB_prefetch_accuracy 0
Core_0_ITLB_prefetch_coverage 0

Core_0_DTLB_total_access 14810957
Core_0_DTLB_total_hit 14654748
Core_0_DTLB_total_miss 156209
Core_0_DTLB_total_MPKI 3.12418
Core_0_DTLB_total_miss_rate 0.0105469
Core_0_DTLB_demand_access 14810957
Core_0_DTLB_demand_hit 14654748
Core_0_DTLB_demand_miss 156209
Core_0_DTLB_demand_MPKI 3.12418
Core_0_DTLB_demand_miss_rate 0.0105469
Core_0_DTLB_load_access 14810957
Core_0_DTLB_load_hit 14654748
Core_0_DTLB_load_miss 156209
Core_0_DTLB_load_MPKI 3.12418
Core_0_DTLB_load_miss_rate 0.0105469
Core_0_DTLB_rfo_access 0
Core_0_DTLB_rfo_hit 0
Core_0_DTLB_rfo_miss 0
Core_0_DTLB_rfo_MPKI 0
Core_0_DTLB_rfo_miss_rate 0
Core_0_DTLB_prefetch_access 0
Core_0_DTLB_prefetch_hit 0
Core_0_DTLB_prefetch_miss 0
Core_0_DTLB_prefetch_MPKI 0
Core_0_DTLB_prefetch_miss_rate 0
Core_0_DTLB_writeback_access 0
Core_0_DTLB_writeback_hit 0
Core_0_DTLB_writeback_miss 0
Core_0_DTLB_writeback_MPKI 0
Core_0_DTLB_writeback_miss_rate 0
Core_0_DTLB_prefetch_requested 0
Core_0_DTLB_prefetch_issued 0
Core_0_DTLB_prefetch_useful 0
Core_0_DTLB_prefetch_useless 0
Core_0_DTLB_prefetch_late 0
Core_0_DTLB_prefetch_accuracy 0
Core_0_DTLB_prefetch_coverage 0

Core_0_STLB_total_access 118783
Core_0_STLB_total_hit 118617
Core_0_STLB_total_miss 166
Core_0_STLB_total_MPKI 0.00332
Core_0_STLB_total_miss_rate 0.00139751
Core_0_STLB_demand_access 118783
Core_0_STLB_demand_hit 118617
Core_0_STLB_demand_miss 166
Core_0_STLB_demand_MPKI 0.00332
Core_0_STLB_demand_miss_rate 0.00139751
Core_0_STLB_load_access 118783
Core_0_STLB_load_hit 118617
Core_0_STLB_load_miss 166
Core_0_STLB_load_MPKI 0.00332
Core_0_STLB_load_miss_rate 0.00139751
Core_0_STLB_rfo_access 0
Core_0_STLB_rfo_hit 0
Core_0_STLB_rfo_miss 0
Core_0_STLB_rfo_MPKI 0
Core_0_STLB_rfo_miss_rate 0
Core_0_STLB_prefetch_access 0
Core_0_STLB_prefetch_hit 0
Core_0_STLB_prefetch_miss 0
Core_0_STLB_prefetch_MPKI 0
Core_0_STLB_prefetch_miss_rate 0
Core_0_STLB_writeback_access 0
Core_0_STLB_writeback_hit 0
Core_0_STLB_writeback_miss 0
Core_0_STLB_writeback_MPKI 0
Core_0_STLB_writeback_miss_rate 0
Core_0_STLB_prefetch_requested 0
Core_0_STLB_prefetch_issued 0
Core_0_STLB_prefetch_useful 0
Core_0_STLB_prefetch_useless 0
Core_0_STLB_prefetch_late 0
Core_0_STLB_prefetch_accuracy 0
Core_0_STLB_prefetch_coverage 0

Core_0_L1I_total_access 406999
Core_0_L1I_total_hit 406999
Core_0_L1I_total_miss 0
Core_0_L1I_total_MPKI 0
Core_0_L1I_total_miss_rate 0
Core_0_L1I_demand_access 406999
Core_0_L1I_demand_hit 406999
Core_0_L1I_demand_miss 0
Core_0_L1I_demand_MPKI 0
Core_0_L1I_demand_miss_rate 0
Core_0_L1I_load_access 406999
Core_0_L1I_load_hit 406999
Core_0_L1I_load_miss 0
Core_0_L1I_load_MPKI 0
Core_0_L1I_load_miss_rate 0
Core_0_L1I_rfo_access 0
Core_0_L1I_rfo_hit 0
Core_0_L1I_rfo_miss 0
Core_0_L1I_rfo_MPKI 0
Core_0_L1I_rfo_miss_rate 0
Core_0_L1I_prefetch_access 0
Core_0_L1I_prefetch_hit 0
Core_0_L1I_prefetch_miss 0
Core_0_L1I_prefetch_MPKI 0
Core_0_L1I_prefetch_miss_rate 0
Core_0_L1I_writeback_access 0
Core_0_L1I_writeback_hit 0
Core_0_L1I_writeback_miss 0
Core_0_L1I_writeback_MPKI 0
Core_0_L1I_writeback_miss_rate 0
Core_0_L1I_prefetch_requested 0
Core_0_L1I_prefetch_issued 0
Core_0_L1I_prefetch_useful 0
Core_0_L1I_prefetch_useless 0
Core_0_L1I_prefetch_late 0
Core_0_L1I_prefetch_accuracy 0
Core_0_L1I_prefetch_coverage 0

Core_0_L1D_total_access 15977279
Core_0_L1D_total_hit 14846287
Core_0_L1D_total_miss 1130992
Core_0_L1D_total_MPKI 22.6198
Core_0_L1D_total_miss_rate 0.0707875
Core_0_L1D_demand_access 10289287
Core_0_L1D_demand_hit 9781741
Core_0_L1D_demand_miss 507546
Core_0_L1D_demand_MPKI 10.1509
Core_0_L1D_demand_miss_rate 0.0493276
Core_0_L1D_load_access 10289287
Core_0_L1D_load_hit 9781741
Core_0_L1D_load_miss 507546
Core_0_L1D_load_MPKI 10.1509
Core_0_L1D_load_miss_rate 0.0493276
Core_0_L1D_rfo_access 0
Core_0_L1D_rfo_hit 0
Core_0_L1D_rfo_miss 0
Core_0_L1D_rfo_MPKI 0
Core_0_L1D_rfo_miss_rate 0
Core_0_L1D_prefetch_access 589072
Core_0_L1D_prefetch_hit 188644
Core_0_L1D_prefetch_miss 400428
Core_0_L1D_prefetch_MPKI 8.00856
Core_0_L1D_prefetch_miss_rate 0.679761
Core_0_L1D_writeback_access 5098920
Core_0_L1D_writeback_hit 4875902
Core_0_L1D_writeback_miss 223018
Core_0_L1D_writeback_MPKI 4.46036
Core_0_L1D_writeback_miss_rate 0.0437383
Core_0_L1D_prefetch_requested 645520
Core_0_L1D_prefetch_issued 589064
Core_0_L1D_prefetch_useful 256880
Core_0_L1D_prefetch_useless 111240
Core_0_L1D_prefetch_late 29372
Core_0_L1D_prefetch_accuracy 0.436082
Core_0_L1D_prefetch_coverage 0.336043

Core_0_L2C_total_access 3126914
Core_0_L2C_total_hit 2786199
Core_0_L2C_total_miss 340715
Core_0_L2C_total_MPKI 6.8143
Core_0_L2C_total_miss_rate 0.108962
Core_0_L2C_demand_access 545588
Core_0_L2C_demand_hit 376986
Core_0_L2C_demand_miss 168602
Core_0_L2C_demand_MPKI 3.37204
Core_0_L2C_demand_miss_rate 0.309028
Core_0_L2C_load_access 401764
Core_0_L2C_load_hit 358044
Core_0_L2C_load_miss 43720
Core_0_L2C_load_MPKI 0.8744
Core_0_L2C_load_miss_rate 0.10882
Core_0_L2C_rfo_access 143824
Core_0_L2C_rfo_hit 18942
Core_0_L2C_rfo_miss 124882
Core_0_L2C_rfo_MPKI 2.49764
Core_0_L2C_rfo_miss_rate 0.868297
Core_0_L2C_prefetch_access 2389368
Core_0_L2C_prefetch_hit 2217371
Core_0_L2C_prefetch_miss 171997
Core_0_L2C_prefetch_MPKI 3.43994
Core_0_L2C_prefetch_miss_rate 0.0719843
Core_0_L2C_writeback_access 191958
Core_0_L2C_writeback_hit 191842
Core_0_L2C_writeback_miss 116
Core_0_L2C_writeback_MPKI 0.00232
Core_0_L2C_writeback_miss_rate 0.000604299
Core_0_L2C_prefetch_requested 2384330
Core_0_L2C_prefetch_issued 2021182
Core_0_L2C_prefetch_useful 69923
Core_0_L2C_prefetch_useless 41062
Core_0_L2C_prefetch_late 3210
Core_0_L2C_prefetch_accuracy 0.0345951
Core_0_L2C_prefetch_coverage 0.293147

Core_0_LLC_total_access 447574
Core_0_LLC_total_hit 407549
Core_0_LLC_total_miss 40025
Core_0_LLC_total_MPKI 0.8005
Core_0_LLC_total_miss_rate 0.0894266
Core_0_LLC_demand_access 165391
Core_0_LLC_demand_hit 146380
Core_0_LLC_demand_miss 19011
Core_0_LLC_demand_MPKI 0.38022
Core_0_LLC_demand_miss_rate 0.114946
Core_0_LLC_load_access 40510
Core_0_LLC_load_hit 38608
Core_0_LLC_load_miss 1902
Core_0_LLC_load_MPKI 0.03804
Core_0_LLC_load_miss_rate 0.0469514
Core_0_LLC_rfo_access 124881
Core_0_LLC_rfo_hit 107772
Core_0_LLC_rfo_miss 17109
Core_0_LLC_rfo_MPKI 0.34218
Core_0_LLC_rfo_miss_rate 0.137002
Core_0_LLC_prefetch_access 140148
Core_0_LLC_prefetch_hit 128767
Core_0_LLC_prefetch_miss 11381
Core_0_LLC_prefetch_MPKI 0.22762
Core_0_LLC_prefetch_miss_rate 0.081207
Core_0_LLC_writeback_access 142035
Core_0_LLC_writeback_hit 132402
Core_0_LLC_writeback_miss 9633
Core_0_LLC_writeback_MPKI 0.19266
Core_0_LLC_writeback_miss_rate 0.0678213
Core_0_LLC_prefetch_requested 0
Core_0_LLC_prefetch_issued 0
Core_0_LLC_prefetch_useful 0
Core_0_LLC_prefetch_useless 0
Core_0_LLC_prefetch_late 0
Core_0_LLC_prefetch_accuracy 0
Core_0_LLC_prefetch_coverage 0

[DRAM Statistics]
Channel_0_RQ_row_buffer_hit 2068
Channel_0_RQ_row_buffer_miss 28063
Channel_0_WQ_row_buffer_hit 3118
Channel_0_WQ_row_buffer_miss 17915
Channel_0_WQ_full 61
Channel_0_dbus_congested 142923
DRAM_total_RQ_row_buffer_hit 2068
DRAM_total_RQ_row_buffer_miss 28063
DRAM_total_WQ_row_buffer_hit 3118
DRAM_total_WQ_row_buffer_miss 17915
DRAM_total_WQ_full 61
DRAM_total_dbus_congested 142923
DRAM_avg_congested_cycle 9.13073

======STLB miss causes ========
Core_0_STLB_miss_cause_breakdown
Core_0_STLB_cause_Demand_Data_miss 166
Core_0_STLB_cause_Demand_Data_miss_rate 0.00139751
Core_0_STLB_cause_Demand_Instruction_miss 0
Core_0_STLB_cause_Demand_Instruction_miss_rate 0
Core_0_STLB_cause_L1D_Prefetch_miss 0
Core_0_STLB_cause_L1D_Prefetch_miss_rate 0
Core_0_STLB_cause_L1I_Prefetch_miss 0
Core_0_STLB_cause_L1I_Prefetch_miss_rate 0
Core_0_STLB_cause_Other_miss 0
Core_0_STLB_cause_Other_miss_rate 0
Core_0_STLB_Demand_miss 166
Core_0_STLB_Demand_miss_rate 0.00139751
Core_0_STLB_L1D_Prefetch_miss 0
Core_0_STLB_L1D_Prefetch_miss_rate 0
Core_0_STLB_Other_miss 0
Core_0_STLB_Other_miss_rate 0
