[VMEM] WARNING: physical memory size is smaller than virtual memory size.

*** ChampSim Multicore Out-of-Order Simulator ***
Warmup Instructions: 20000000
Simulation Instructions: 50000000
Number of CPUs: 1
Page size: 4096
STLB ideal mode: l1pref
Core 0: /data0/tzh/champsim_traces/SPEC06/403.gcc-17B.champsimtrace.xz
 L1D Berti prefetcher
Off-chip DRAM Size: 4 GiB Channels: 1 Width: 64-bit Data Rate: 3205 MT/s
Warmup halting CPU 0 at instruction 20000001 cycle 5560469 for remainder of phase
Warmup finished CPU 0 instructions: 20000001 cycles: 5560469 cumulative IPC: 3.597 (Simulation time: 00 hr 01 min 06 sec)
Warmup complete CPU 0 instructions: 20000001 cycles: 5560469 cumulative IPC: 3.597 (Simulation time: 00 hr 01 min 06 sec)
Simulation finished CPU 0 instructions: 50000004 cycles: 80437750 cumulative IPC: 0.6216 (Simulation time: 00 hr 10 min 09 sec)
Simulation complete CPU 0 instructions: 50000004 cycles: 80437750 cumulative IPC: 0.6216 (Simulation time: 00 hr 10 min 09 sec)

ChampSim completed all CPUs

=== Simulation ===
CPU 0 runs /data0/tzh/champsim_traces/SPEC06/403.gcc-17B.champsimtrace.xz

Region of Interest Statistics

CPU 0 cumulative IPC: 0.6216 instructions: 50000004 cycles: 80437750
CPU 0 Branch Prediction Accuracy: 95.57% MPKI: 9.606 Average ROB Occupancy at Mispredict: 61.45
Branch type MPKI
BRANCH_DIRECT_JUMP: 0.07566
BRANCH_INDIRECT: 0.5459
BRANCH_CONDITIONAL: 8.94
BRANCH_DIRECT_CALL: 0.0364
BRANCH_INDIRECT_CALL: 0.00216
BRANCH_RETURN: 0.00592

cpu0->cpu0_STLB TOTAL        ACCESS:     721644 HIT:     680382 MISS:      41262 MSHR_MERGE:          0
cpu0->cpu0_STLB LOAD         ACCESS:     721644 HIT:     680382 MISS:      41262 MSHR_MERGE:          0
cpu0->cpu0_STLB RFO          ACCESS:          0 HIT:          0 MISS:          0 MSHR_MERGE:          0
cpu0->cpu0_STLB PREFETCH     ACCESS:          0 HIT:          0 MISS:          0 MSHR_MERGE:          0
cpu0->cpu0_STLB WRITE        ACCESS:          0 HIT:          0 MISS:          0 MSHR_MERGE:          0
cpu0->cpu0_STLB TRANSLATION  ACCESS:          0 HIT:          0 MISS:          0 MSHR_MERGE:          0
cpu0->cpu0_STLB PREFETCH REQUESTED:          0 ISSUED:          0 USEFUL:          0 USELESS:          0 LATE:          0
cpu0->cpu0_STLB AVERAGE MISS LATENCY: 159.6 cycles
cpu0->cpu0_L2C TOTAL        ACCESS:    4236456 HIT:    2476038 MISS:    1760418 MSHR_MERGE:      75098
cpu0->cpu0_L2C LOAD         ACCESS:     652092 HIT:     484702 MISS:     167390 MSHR_MERGE:       3458
cpu0->cpu0_L2C RFO          ACCESS:     941864 HIT:      11485 MISS:     930379 MSHR_MERGE:       1548
cpu0->cpu0_L2C PREFETCH     ACCESS:    1630272 HIT:     979761 MISS:     650511 MSHR_MERGE:      70092
cpu0->cpu0_L2C WRITE        ACCESS:     997853 HIT:     997410 MISS:        443 MSHR_MERGE:          0
cpu0->cpu0_L2C TRANSLATION  ACCESS:      14375 HIT:       2680 MISS:      11695 MSHR_MERGE:          0
cpu0->cpu0_L2C PREFETCH REQUESTED:    1363380 ISSUED:    1306619 USEFUL:     209896 USELESS:     274737 LATE:       5006
cpu0->cpu0_L2C AVERAGE MISS LATENCY: 542.4 cycles
cpu0->cpu0_L1I TOTAL        ACCESS:    3612577 HIT:    3612087 MISS:        490 MSHR_MERGE:         49
cpu0->cpu0_L1I LOAD         ACCESS:    3612577 HIT:    3612087 MISS:        490 MSHR_MERGE:         49
cpu0->cpu0_L1I RFO          ACCESS:          0 HIT:          0 MISS:          0 MSHR_MERGE:          0
cpu0->cpu0_L1I PREFETCH     ACCESS:          0 HIT:          0 MISS:          0 MSHR_MERGE:          0
cpu0->cpu0_L1I WRITE        ACCESS:          0 HIT:          0 MISS:          0 MSHR_MERGE:          0
cpu0->cpu0_L1I TRANSLATION  ACCESS:          0 HIT:          0 MISS:          0 MSHR_MERGE:          0
cpu0->cpu0_L1I PREFETCH REQUESTED:          0 ISSUED:          0 USEFUL:          0 USELESS:          0 LATE:          0
cpu0->cpu0_L1I AVERAGE MISS LATENCY: 232.3 cycles
cpu0->cpu0_L1D TOTAL        ACCESS:   19547895 HIT:   10931307 MISS:    8616588 MSHR_MERGE:    6685020
cpu0->cpu0_L1D LOAD         ACCESS:    6993304 HIT:    6169677 MISS:     823627 MSHR_MERGE:     171975
cpu0->cpu0_L1D RFO          ACCESS:          0 HIT:          0 MISS:          0 MSHR_MERGE:          0
cpu0->cpu0_L1D PREFETCH     ACCESS:     506327 HIT:     168370 MISS:     337957 MSHR_MERGE:      14285
cpu0->cpu0_L1D WRITE        ACCESS:   11965510 HIT:    4525071 MISS:    7440439 MSHR_MERGE:    6498570
cpu0->cpu0_L1D TRANSLATION  ACCESS:      82754 HIT:      68189 MISS:      14565 MSHR_MERGE:        190
cpu0->cpu0_L1D PREFETCH REQUESTED:     506375 ISSUED:     506319 USEFUL:     143329 USELESS:     180352 LATE:      18290
cpu0->cpu0_L1D AVERAGE MISS LATENCY: 379.6 cycles
cpu0->cpu0_ITLB TOTAL        ACCESS:    3554219 HIT:    3554171 MISS:         48 MSHR_MERGE:         16
cpu0->cpu0_ITLB LOAD         ACCESS:    3554219 HIT:    3554171 MISS:         48 MSHR_MERGE:         16
cpu0->cpu0_ITLB RFO          ACCESS:          0 HIT:          0 MISS:          0 MSHR_MERGE:          0
cpu0->cpu0_ITLB PREFETCH     ACCESS:          0 HIT:          0 MISS:          0 MSHR_MERGE:          0
cpu0->cpu0_ITLB WRITE        ACCESS:          0 HIT:          0 MISS:          0 MSHR_MERGE:          0
cpu0->cpu0_ITLB TRANSLATION  ACCESS:          0 HIT:          0 MISS:          0 MSHR_MERGE:          0
cpu0->cpu0_ITLB PREFETCH REQUESTED:          0 ISSUED:          0 USEFUL:          0 USELESS:          0 LATE:          0
cpu0->cpu0_ITLB AVERAGE MISS LATENCY: 291.3 cycles
cpu0->cpu0_DTLB TOTAL        ACCESS:   18796229 HIT:   17730601 MISS:    1065628 MSHR_MERGE:     344016
cpu0->cpu0_DTLB LOAD         ACCESS:   18796229 HIT:   17730601 MISS:    1065628 MSHR_MERGE:     344016
cpu0->cpu0_DTLB RFO          ACCESS:          0 HIT:          0 MISS:          0 MSHR_MERGE:          0
cpu0->cpu0_DTLB PREFETCH     ACCESS:          0 HIT:          0 MISS:          0 MSHR_MERGE:          0
cpu0->cpu0_DTLB WRITE        ACCESS:          0 HIT:          0 MISS:          0 MSHR_MERGE:          0
cpu0->cpu0_DTLB TRANSLATION  ACCESS:          0 HIT:          0 MISS:          0 MSHR_MERGE:          0
cpu0->cpu0_DTLB PREFETCH REQUESTED:          0 ISSUED:          0 USEFUL:          0 USELESS:          0 LATE:          0
cpu0->cpu0_DTLB AVERAGE MISS LATENCY: 14.18 cycles
cpu0->LLC TOTAL        ACCESS:    2670322 HIT:     363535 MISS:    2306787 MSHR_MERGE:          0
cpu0->LLC LOAD         ACCESS:     163932 HIT:      55687 MISS:     108245 MSHR_MERGE:          0
cpu0->LLC RFO          ACCESS:     928831 HIT:        479 MISS:     928352 MSHR_MERGE:          0
cpu0->LLC PREFETCH     ACCESS:     580419 HIT:     123229 MISS:     457190 MSHR_MERGE:          0
cpu0->LLC WRITE        ACCESS:     985445 HIT:     181711 MISS:     803734 MSHR_MERGE:          0
cpu0->LLC TRANSLATION  ACCESS:      11695 HIT:       2429 MISS:       9266 MSHR_MERGE:          0
cpu0->LLC PREFETCH REQUESTED:          0 ISSUED:          0 USEFUL:          0 USELESS:          0 LATE:          0
cpu0->LLC AVERAGE MISS LATENCY: 319 cycles

DRAM Statistics

Channel 0 RQ ROW_BUFFER_HIT:     136618
  ROW_BUFFER_MISS:    1366430
  AVG DBUS CONGESTED CYCLE: 7.241
Channel 0 WQ ROW_BUFFER_HIT:      89858
  ROW_BUFFER_MISS:     887164
  FULL:          0
Channel 0 REFRESHES ISSUED:       6703

[ROI Statistics]
[System Configuration]
num_cpus 1
cpu_freq 4000
fetch_width 6
decode_width 6
dispatch_width 6
execute_width 6
lq_width 2
sq_width 2
retire_width 6
scheduler_size 160
branch_mispredict_penalty 1
rob_size 352
lq_size 240
sq_size 112
ifetch_buffer_size 64
decode_buffer_size 32
dispatch_buffer_size 32
register_file_size 288
decode_latency 1
dispatch_latency 1
schedule_latency 0
execute_latency 0
page_size 4096
block_size 64
core_0_itlb_set 16
core_0_itlb_way 4
core_0_itlb_rq_size 16
core_0_itlb_wq_size 16
core_0_itlb_pq_size 0
core_0_itlb_mshr_size 8
core_0_itlb_hit_latency 1
core_0_itlb_fill_latency 1
core_0_itlb_max_tag_check 2
core_0_itlb_max_fill 2
core_0_dtlb_set 16
core_0_dtlb_way 4
core_0_dtlb_rq_size 16
core_0_dtlb_wq_size 16
core_0_dtlb_pq_size 0
core_0_dtlb_mshr_size 8
core_0_dtlb_hit_latency 1
core_0_dtlb_fill_latency 1
core_0_dtlb_max_tag_check 2
core_0_dtlb_max_fill 2
core_0_stlb_set 128
core_0_stlb_way 12
core_0_stlb_rq_size 32
core_0_stlb_wq_size 32
core_0_stlb_pq_size 0
core_0_stlb_mshr_size 16
core_0_stlb_hit_latency 4
core_0_stlb_fill_latency 4
core_0_stlb_max_tag_check 1
core_0_stlb_max_fill 1
core_0_l1i_set 64
core_0_l1i_way 8
core_0_l1i_rq_size 64
core_0_l1i_wq_size 64
core_0_l1i_pq_size 32
core_0_l1i_mshr_size 8
core_0_l1i_hit_latency 2
core_0_l1i_fill_latency 2
core_0_l1i_max_tag_check 2
core_0_l1i_max_fill 2
core_0_l1d_set 64
core_0_l1d_way 12
core_0_l1d_rq_size 64
core_0_l1d_wq_size 64
core_0_l1d_pq_size 8
core_0_l1d_mshr_size 16
core_0_l1d_hit_latency 2
core_0_l1d_fill_latency 3
core_0_l1d_max_tag_check 2
core_0_l1d_max_fill 2
core_0_l2c_set 1024
core_0_l2c_way 8
core_0_l2c_rq_size 32
core_0_l2c_wq_size 32
core_0_l2c_pq_size 16
core_0_l2c_mshr_size 32
core_0_l2c_hit_latency 5
core_0_l2c_fill_latency 5
core_0_l2c_max_tag_check 1
core_0_l2c_max_fill 1
llc_set 2048
llc_way 16
llc_rq_size 32
llc_wq_size 32
llc_pq_size 32
llc_mshr_size 64
llc_hit_latency 10
llc_fill_latency 10
llc_max_tag_check 1
llc_max_fill 1
dram_channels 1
dram_ranks 1
dram_bankgroups 8
dram_banks 4
dram_rows 16384
dram_columns 1024
dram_channel_width 8
dram_rq_size 64
dram_wq_size 64
dram_size 4294967296
core_0_itlb_prefetcher no
core_0_dtlb_prefetcher no
core_0_stlb_prefetcher no
core_0_l1i_prefetcher next_line
core_0_l1d_prefetcher berti
core_0_l2c_prefetcher pythia
llc_prefetcher no
llc_replacement drrip

Core_0_instructions 50000004
Core_0_cycles 80437750
Core_0_IPC 0.621599
Core_0_branch_prediction_accuracy 95.5692
Core_0_branch_MPKI 9.60648
Core_0_average_ROB_occupancy_at_mispredict 61.4487

Core_0_ITLB_total_access 3554219
Core_0_ITLB_total_hit 3554171
Core_0_ITLB_total_miss 48
Core_0_ITLB_total_MPKI 0.00096
Core_0_ITLB_total_miss_rate 1.35051e-05
Core_0_ITLB_demand_access 3554219
Core_0_ITLB_demand_hit 3554171
Core_0_ITLB_demand_miss 48
Core_0_ITLB_demand_MPKI 0.00096
Core_0_ITLB_demand_miss_rate 1.35051e-05
Core_0_ITLB_load_access 3554219
Core_0_ITLB_load_hit 3554171
Core_0_ITLB_load_miss 48
Core_0_ITLB_load_MPKI 0.00096
Core_0_ITLB_load_miss_rate 1.35051e-05
Core_0_ITLB_rfo_access 0
Core_0_ITLB_rfo_hit 0
Core_0_ITLB_rfo_miss 0
Core_0_ITLB_rfo_MPKI 0
Core_0_ITLB_rfo_miss_rate 0
Core_0_ITLB_prefetch_access 0
Core_0_ITLB_prefetch_hit 0
Core_0_ITLB_prefetch_miss 0
Core_0_ITLB_prefetch_MPKI 0
Core_0_ITLB_prefetch_miss_rate 0
Core_0_ITLB_writeback_access 0
Core_0_ITLB_writeback_hit 0
Core_0_ITLB_writeback_miss 0
Core_0_ITLB_writeback_MPKI 0
Core_0_ITLB_writeback_miss_rate 0
Core_0_ITLB_prefetch_requested 0
Core_0_ITLB_prefetch_issued 0
Core_0_ITLB_prefetch_useful 0
Core_0_ITLB_prefetch_useless 0
Core_0_ITLB_prefetch_late 0
Core_0_ITLB_prefetch_accuracy 0
Core_0_ITLB_prefetch_coverage 0

Core_0_DTLB_total_access 18796229
Core_0_DTLB_total_hit 17730601
Core_0_DTLB_total_miss 1065628
Core_0_DTLB_total_MPKI 21.3126
Core_0_DTLB_total_miss_rate 0.0566937
Core_0_DTLB_demand_access 18796229
Core_0_DTLB_demand_hit 17730601
Core_0_DTLB_demand_miss 1065628
Core_0_DTLB_demand_MPKI 21.3126
Core_0_DTLB_demand_miss_rate 0.0566937
Core_0_DTLB_load_access 18796229
Core_0_DTLB_load_hit 17730601
Core_0_DTLB_load_miss 1065628
Core_0_DTLB_load_MPKI 21.3126
Core_0_DTLB_load_miss_rate 0.0566937
Core_0_DTLB_rfo_access 0
Core_0_DTLB_rfo_hit 0
Core_0_DTLB_rfo_miss 0
Core_0_DTLB_rfo_MPKI 0
Core_0_DTLB_rfo_miss_rate 0
Core_0_DTLB_prefetch_access 0
Core_0_DTLB_prefetch_hit 0
Core_0_DTLB_prefetch_miss 0
Core_0_DTLB_prefetch_MPKI 0
Core_0_DTLB_prefetch_miss_rate 0
Core_0_DTLB_writeback_access 0
Core_0_DTLB_writeback_hit 0
Core_0_DTLB_writeback_miss 0
Core_0_DTLB_writeback_MPKI 0
Core_0_DTLB_writeback_miss_rate 0
Core_0_DTLB_prefetch_requested 0
Core_0_DTLB_prefetch_issued 0
Core_0_DTLB_prefetch_useful 0
Core_0_DTLB_prefetch_useless 0
Core_0_DTLB_prefetch_late 0
Core_0_DTLB_prefetch_accuracy 0
Core_0_DTLB_prefetch_coverage 0

Core_0_STLB_total_access 721644
Core_0_STLB_total_hit 680382
Core_0_STLB_total_miss 41262
Core_0_STLB_total_MPKI 0.82524
Core_0_STLB_total_miss_rate 0.0571778
Core_0_STLB_demand_access 721644
Core_0_STLB_demand_hit 680382
Core_0_STLB_demand_miss 41262
Core_0_STLB_demand_MPKI 0.82524
Core_0_STLB_demand_miss_rate 0.0571778
Core_0_STLB_load_access 721644
Core_0_STLB_load_hit 680382
Core_0_STLB_load_miss 41262
Core_0_STLB_load_MPKI 0.82524
Core_0_STLB_load_miss_rate 0.0571778
Core_0_STLB_rfo_access 0
Core_0_STLB_rfo_hit 0
Core_0_STLB_rfo_miss 0
Core_0_STLB_rfo_MPKI 0
Core_0_STLB_rfo_miss_rate 0
Core_0_STLB_prefetch_access 0
Core_0_STLB_prefetch_hit 0
Core_0_STLB_prefetch_miss 0
Core_0_STLB_prefetch_MPKI 0
Core_0_STLB_prefetch_miss_rate 0
Core_0_STLB_writeback_access 0
Core_0_STLB_writeback_hit 0
Core_0_STLB_writeback_miss 0
Core_0_STLB_writeback_MPKI 0
Core_0_STLB_writeback_miss_rate 0
Core_0_STLB_prefetch_requested 0
Core_0_STLB_prefetch_issued 0
Core_0_STLB_prefetch_useful 0
Core_0_STLB_prefetch_useless 0
Core_0_STLB_prefetch_late 0
Core_0_STLB_prefetch_accuracy 0
Core_0_STLB_prefetch_coverage 0

Core_0_L1I_total_access 3612577
Core_0_L1I_total_hit 3612087
Core_0_L1I_total_miss 490
Core_0_L1I_total_MPKI 0.0098
Core_0_L1I_total_miss_rate 0.000135637
Core_0_L1I_demand_access 3612577
Core_0_L1I_demand_hit 3612087
Core_0_L1I_demand_miss 490
Core_0_L1I_demand_MPKI 0.0098
Core_0_L1I_demand_miss_rate 0.000135637
Core_0_L1I_load_access 3612577
Core_0_L1I_load_hit 3612087
Core_0_L1I_load_miss 490
Core_0_L1I_load_MPKI 0.0098
Core_0_L1I_load_miss_rate 0.000135637
Core_0_L1I_rfo_access 0
Core_0_L1I_rfo_hit 0
Core_0_L1I_rfo_miss 0
Core_0_L1I_rfo_MPKI 0
Core_0_L1I_rfo_miss_rate 0
Core_0_L1I_prefetch_access 0
Core_0_L1I_prefetch_hit 0
Core_0_L1I_prefetch_miss 0
Core_0_L1I_prefetch_MPKI 0
Core_0_L1I_prefetch_miss_rate 0
Core_0_L1I_writeback_access 0
Core_0_L1I_writeback_hit 0
Core_0_L1I_writeback_miss 0
Core_0_L1I_writeback_MPKI 0
Core_0_L1I_writeback_miss_rate 0
Core_0_L1I_prefetch_requested 0
Core_0_L1I_prefetch_issued 0
Core_0_L1I_prefetch_useful 0
Core_0_L1I_prefetch_useless 0
Core_0_L1I_prefetch_late 0
Core_0_L1I_prefetch_accuracy 0
Core_0_L1I_prefetch_coverage 0

Core_0_L1D_total_access 19465141
Core_0_L1D_total_hit 10863118
Core_0_L1D_total_miss 8602023
Core_0_L1D_total_MPKI 172.04
Core_0_L1D_total_miss_rate 0.441919
Core_0_L1D_demand_access 6993304
Core_0_L1D_demand_hit 6169677
Core_0_L1D_demand_miss 823627
Core_0_L1D_demand_MPKI 16.4725
Core_0_L1D_demand_miss_rate 0.117774
Core_0_L1D_load_access 6993304
Core_0_L1D_load_hit 6169677
Core_0_L1D_load_miss 823627
Core_0_L1D_load_MPKI 16.4725
Core_0_L1D_load_miss_rate 0.117774
Core_0_L1D_rfo_access 0
Core_0_L1D_rfo_hit 0
Core_0_L1D_rfo_miss 0
Core_0_L1D_rfo_MPKI 0
Core_0_L1D_rfo_miss_rate 0
Core_0_L1D_prefetch_access 506327
Core_0_L1D_prefetch_hit 168370
Core_0_L1D_prefetch_miss 337957
Core_0_L1D_prefetch_MPKI 6.75914
Core_0_L1D_prefetch_miss_rate 0.667468
Core_0_L1D_writeback_access 11965510
Core_0_L1D_writeback_hit 4525071
Core_0_L1D_writeback_miss 7440439
Core_0_L1D_writeback_MPKI 148.809
Core_0_L1D_writeback_miss_rate 0.621824
Core_0_L1D_prefetch_requested 506375
Core_0_L1D_prefetch_issued 506319
Core_0_L1D_prefetch_useful 143329
Core_0_L1D_prefetch_useless 180352
Core_0_L1D_prefetch_late 18290
Core_0_L1D_prefetch_accuracy 0.28308
Core_0_L1D_prefetch_coverage 0.148227

Core_0_L2C_total_access 4222081
Core_0_L2C_total_hit 2473358
Core_0_L2C_total_miss 1748723
Core_0_L2C_total_MPKI 34.9745
Core_0_L2C_total_miss_rate 0.414185
Core_0_L2C_demand_access 1593956
Core_0_L2C_demand_hit 496187
Core_0_L2C_demand_miss 1097769
Core_0_L2C_demand_MPKI 21.9554
Core_0_L2C_demand_miss_rate 0.688707
Core_0_L2C_load_access 652092
Core_0_L2C_load_hit 484702
Core_0_L2C_load_miss 167390
Core_0_L2C_load_MPKI 3.3478
Core_0_L2C_load_miss_rate 0.256697
Core_0_L2C_rfo_access 941864
Core_0_L2C_rfo_hit 11485
Core_0_L2C_rfo_miss 930379
Core_0_L2C_rfo_MPKI 18.6076
Core_0_L2C_rfo_miss_rate 0.987806
Core_0_L2C_prefetch_access 1630272
Core_0_L2C_prefetch_hit 979761
Core_0_L2C_prefetch_miss 650511
Core_0_L2C_prefetch_MPKI 13.0102
Core_0_L2C_prefetch_miss_rate 0.39902
Core_0_L2C_writeback_access 997853
Core_0_L2C_writeback_hit 997410
Core_0_L2C_writeback_miss 443
Core_0_L2C_writeback_MPKI 0.00886
Core_0_L2C_writeback_miss_rate 0.000443953
Core_0_L2C_prefetch_requested 1363380
Core_0_L2C_prefetch_issued 1306619
Core_0_L2C_prefetch_useful 209896
Core_0_L2C_prefetch_useless 274737
Core_0_L2C_prefetch_late 5006
Core_0_L2C_prefetch_accuracy 0.160641
Core_0_L2C_prefetch_coverage 0.160512

Core_0_LLC_total_access 2658627
Core_0_LLC_total_hit 361106
Core_0_LLC_total_miss 2297521
Core_0_LLC_total_MPKI 45.9504
Core_0_LLC_total_miss_rate 0.864176
Core_0_LLC_demand_access 1092763
Core_0_LLC_demand_hit 56166
Core_0_LLC_demand_miss 1036597
Core_0_LLC_demand_MPKI 20.7319
Core_0_LLC_demand_miss_rate 0.948602
Core_0_LLC_load_access 163932
Core_0_LLC_load_hit 55687
Core_0_LLC_load_miss 108245
Core_0_LLC_load_MPKI 2.1649
Core_0_LLC_load_miss_rate 0.660304
Core_0_LLC_rfo_access 928831
Core_0_LLC_rfo_hit 479
Core_0_LLC_rfo_miss 928352
Core_0_LLC_rfo_MPKI 18.567
Core_0_LLC_rfo_miss_rate 0.999484
Core_0_LLC_prefetch_access 580419
Core_0_LLC_prefetch_hit 123229
Core_0_LLC_prefetch_miss 457190
Core_0_LLC_prefetch_MPKI 9.1438
Core_0_LLC_prefetch_miss_rate 0.78769
Core_0_LLC_writeback_access 985445
Core_0_LLC_writeback_hit 181711
Core_0_LLC_writeback_miss 803734
Core_0_LLC_writeback_MPKI 16.0747
Core_0_LLC_writeback_miss_rate 0.815605
Core_0_LLC_prefetch_requested 0
Core_0_LLC_prefetch_issued 0
Core_0_LLC_prefetch_useful 0
Core_0_LLC_prefetch_useless 0
Core_0_LLC_prefetch_late 0
Core_0_LLC_prefetch_accuracy 0
Core_0_LLC_prefetch_coverage 0

[DRAM Statistics]
Channel_0_RQ_row_buffer_hit 136618
Channel_0_RQ_row_buffer_miss 1366430
Channel_0_WQ_row_buffer_hit 89858
Channel_0_WQ_row_buffer_miss 887164
Channel_0_WQ_full 0
Channel_0_dbus_congested 8485819
DRAM_total_RQ_row_buffer_hit 136618
DRAM_total_RQ_row_buffer_miss 1366430
DRAM_total_WQ_row_buffer_hit 89858
DRAM_total_WQ_row_buffer_miss 887164
DRAM_total_WQ_full 0
DRAM_total_dbus_congested 8485819
DRAM_avg_congested_cycle 7.24063

======STLB miss causes ========
Core_0_STLB_miss_cause_breakdown
Core_0_STLB_cause_Demand_Data_miss 41230
Core_0_STLB_cause_Demand_Data_miss_rate 0.0571334
Core_0_STLB_cause_Demand_Instruction_miss 32
Core_0_STLB_cause_Demand_Instruction_miss_rate 4.43432e-05
Core_0_STLB_cause_L1D_Prefetch_miss 0
Core_0_STLB_cause_L1D_Prefetch_miss_rate 0
Core_0_STLB_cause_L1I_Prefetch_miss 0
Core_0_STLB_cause_L1I_Prefetch_miss_rate 0
Core_0_STLB_cause_Other_miss 0
Core_0_STLB_cause_Other_miss_rate 0
Core_0_STLB_Demand_miss 41262
Core_0_STLB_Demand_miss_rate 0.0571778
Core_0_STLB_L1D_Prefetch_miss 0
Core_0_STLB_L1D_Prefetch_miss_rate 0
Core_0_STLB_Other_miss 0
Core_0_STLB_Other_miss_rate 0
