[VMEM] WARNING: physical memory size is smaller than virtual memory size.

*** ChampSim Multicore Out-of-Order Simulator ***
Warmup Instructions: 20000000
Simulation Instructions: 50000000
Number of CPUs: 1
Page size: 4096
STLB ideal mode: l1pref
Core 0: /data0/tzh/champsim_traces/SPEC06/403.gcc-16B.champsimtrace.xz
 L1D Berti prefetcher
Off-chip DRAM Size: 4 GiB Channels: 1 Width: 64-bit Data Rate: 3205 MT/s
Warmup halting CPU 0 at instruction 20000000 cycle 8156303 for remainder of phase
Warmup finished CPU 0 instructions: 20000000 cycles: 8156303 cumulative IPC: 2.452 (Simulation time: 00 hr 01 min 01 sec)
Warmup complete CPU 0 instructions: 20000000 cycles: 8156303 cumulative IPC: 2.452 (Simulation time: 00 hr 01 min 01 sec)
Simulation finished CPU 0 instructions: 50000000 cycles: 21761308 cumulative IPC: 2.298 (Simulation time: 00 hr 03 min 48 sec)
Simulation complete CPU 0 instructions: 50000000 cycles: 21761308 cumulative IPC: 2.298 (Simulation time: 00 hr 03 min 48 sec)

ChampSim completed all CPUs

=== Simulation ===
CPU 0 runs /data0/tzh/champsim_traces/SPEC06/403.gcc-16B.champsimtrace.xz

Region of Interest Statistics

CPU 0 cumulative IPC: 2.298 instructions: 50000000 cycles: 21761308
CPU 0 Branch Prediction Accuracy: 99.66% MPKI: 0.663 Average ROB Occupancy at Mispredict: 52.38
Branch type MPKI
BRANCH_DIRECT_JUMP: 0.0086
BRANCH_INDIRECT: 0.02318
BRANCH_CONDITIONAL: 0.6311
BRANCH_DIRECT_CALL: 2e-05
BRANCH_INDIRECT_CALL: 8e-05
BRANCH_RETURN: 2e-05

cpu0->cpu0_STLB TOTAL        ACCESS:      55272 HIT:      54831 MISS:        441 MSHR_MERGE:          0
cpu0->cpu0_STLB LOAD         ACCESS:      55272 HIT:      54831 MISS:        441 MSHR_MERGE:          0
cpu0->cpu0_STLB RFO          ACCESS:          0 HIT:          0 MISS:          0 MSHR_MERGE:          0
cpu0->cpu0_STLB PREFETCH     ACCESS:          0 HIT:          0 MISS:          0 MSHR_MERGE:          0
cpu0->cpu0_STLB WRITE        ACCESS:          0 HIT:          0 MISS:          0 MSHR_MERGE:          0
cpu0->cpu0_STLB TRANSLATION  ACCESS:          0 HIT:          0 MISS:          0 MSHR_MERGE:          0
cpu0->cpu0_STLB PREFETCH REQUESTED:          0 ISSUED:          0 USEFUL:          0 USELESS:          0 LATE:          0
cpu0->cpu0_STLB AVERAGE MISS LATENCY: 278.8 cycles
cpu0->cpu0_L2C TOTAL        ACCESS:    5061977 HIT:    3101187 MISS:    1960790 MSHR_MERGE:       8667
cpu0->cpu0_L2C LOAD         ACCESS:      23298 HIT:       8561 MISS:      14737 MSHR_MERGE:        136
cpu0->cpu0_L2C RFO          ACCESS:    2474731 HIT:     574660 MISS:    1900071 MSHR_MERGE:          6
cpu0->cpu0_L2C PREFETCH     ACCESS:      77900 HIT:      32239 MISS:      45661 MSHR_MERGE:       8525
cpu0->cpu0_L2C WRITE        ACCESS:    2485727 HIT:    2485727 MISS:          0 MSHR_MERGE:          0
cpu0->cpu0_L2C TRANSLATION  ACCESS:        321 HIT:          0 MISS:        321 MSHR_MERGE:          0
cpu0->cpu0_L2C PREFETCH REQUESTED:      60938 ISSUED:      59960 USEFUL:       7807 USELESS:      18752 LATE:        142
cpu0->cpu0_L2C AVERAGE MISS LATENCY: 15.75 cycles
cpu0->cpu0_L1I TOTAL        ACCESS:    8126431 HIT:    8126431 MISS:          0 MSHR_MERGE:          0
cpu0->cpu0_L1I LOAD         ACCESS:    8126431 HIT:    8126431 MISS:          0 MSHR_MERGE:          0
cpu0->cpu0_L1I RFO          ACCESS:          0 HIT:          0 MISS:          0 MSHR_MERGE:          0
cpu0->cpu0_L1I PREFETCH     ACCESS:          0 HIT:          0 MISS:          0 MSHR_MERGE:          0
cpu0->cpu0_L1I WRITE        ACCESS:          0 HIT:          0 MISS:          0 MSHR_MERGE:          0
cpu0->cpu0_L1I TRANSLATION  ACCESS:          0 HIT:          0 MISS:          0 MSHR_MERGE:          0
cpu0->cpu0_L1I PREFETCH REQUESTED:          0 ISSUED:          0 USEFUL:          0 USELESS:          0 LATE:          0
cpu0->cpu0_L1I AVERAGE MISS LATENCY: - cycles
cpu0->cpu0_L1D TOTAL        ACCESS:   20449982 HIT:     630005 MISS:   19819977 MSHR_MERGE:   17303687
cpu0->cpu0_L1D LOAD         ACCESS:     327399 HIT:     294836 MISS:      32563 MSHR_MERGE:       9265
cpu0->cpu0_L1D RFO          ACCESS:          0 HIT:          0 MISS:          0 MSHR_MERGE:          0
cpu0->cpu0_L1D PREFETCH     ACCESS:      22057 HIT:       2927 MISS:      19130 MSHR_MERGE:       1190
cpu0->cpu0_L1D WRITE        ACCESS:   20099642 HIT:     331679 MISS:   19767963 MSHR_MERGE:   17293232
cpu0->cpu0_L1D TRANSLATION  ACCESS:        884 HIT:        563 MISS:        321 MSHR_MERGE:          0
cpu0->cpu0_L1D PREFETCH REQUESTED:      22065 ISSUED:      22057 USEFUL:       9534 USELESS:       8406 LATE:        458
cpu0->cpu0_L1D AVERAGE MISS LATENCY: 20.85 cycles
cpu0->cpu0_ITLB TOTAL        ACCESS:    8125492 HIT:    8125490 MISS:          2 MSHR_MERGE:          1
cpu0->cpu0_ITLB LOAD         ACCESS:    8125492 HIT:    8125490 MISS:          2 MSHR_MERGE:          1
cpu0->cpu0_ITLB RFO          ACCESS:          0 HIT:          0 MISS:          0 MSHR_MERGE:          0
cpu0->cpu0_ITLB PREFETCH     ACCESS:          0 HIT:          0 MISS:          0 MSHR_MERGE:          0
cpu0->cpu0_ITLB WRITE        ACCESS:          0 HIT:          0 MISS:          0 MSHR_MERGE:          0
cpu0->cpu0_ITLB TRANSLATION  ACCESS:          0 HIT:          0 MISS:          0 MSHR_MERGE:          0
cpu0->cpu0_ITLB PREFETCH REQUESTED:          0 ISSUED:          0 USEFUL:          0 USELESS:          0 LATE:          0
cpu0->cpu0_ITLB AVERAGE MISS LATENCY: 5 cycles
cpu0->cpu0_DTLB TOTAL        ACCESS:   20395139 HIT:   20140056 MISS:     255083 MSHR_MERGE:     199812
cpu0->cpu0_DTLB LOAD         ACCESS:   20395139 HIT:   20140056 MISS:     255083 MSHR_MERGE:     199812
cpu0->cpu0_DTLB RFO          ACCESS:          0 HIT:          0 MISS:          0 MSHR_MERGE:          0
cpu0->cpu0_DTLB PREFETCH     ACCESS:          0 HIT:          0 MISS:          0 MSHR_MERGE:          0
cpu0->cpu0_DTLB WRITE        ACCESS:          0 HIT:          0 MISS:          0 MSHR_MERGE:          0
cpu0->cpu0_DTLB TRANSLATION  ACCESS:          0 HIT:          0 MISS:          0 MSHR_MERGE:          0
cpu0->cpu0_DTLB PREFETCH REQUESTED:          0 ISSUED:          0 USEFUL:          0 USELESS:          0 LATE:          0
cpu0->cpu0_DTLB AVERAGE MISS LATENCY: 7.232 cycles
cpu0->LLC TOTAL        ACCESS:    3859343 HIT:    3845009 MISS:      14334 MSHR_MERGE:          0
cpu0->LLC LOAD         ACCESS:      14599 HIT:      12545 MISS:       2054 MSHR_MERGE:          0
cpu0->LLC RFO          ACCESS:    1900063 HIT:    1899208 MISS:        855 MSHR_MERGE:          0
cpu0->LLC PREFETCH     ACCESS:      37136 HIT:      25913 MISS:      11223 MSHR_MERGE:          0
cpu0->LLC WRITE        ACCESS:    1907224 HIT:    1907171 MISS:         53 MSHR_MERGE:          0
cpu0->LLC TRANSLATION  ACCESS:        321 HIT:        172 MISS:        149 MSHR_MERGE:          0
cpu0->LLC PREFETCH REQUESTED:          0 ISSUED:          0 USEFUL:          0 USELESS:          0 LATE:          0
cpu0->LLC AVERAGE MISS LATENCY: 168.4 cycles

DRAM Statistics

Channel 0 RQ ROW_BUFFER_HIT:        375
  ROW_BUFFER_MISS:      13906
  AVG DBUS CONGESTED CYCLE: 6.758
Channel 0 WQ ROW_BUFFER_HIT:        153
  ROW_BUFFER_MISS:        593
  FULL:          0
Channel 0 REFRESHES ISSUED:       1814

[ROI Statistics]
[System Configuration]
num_cpus 1
cpu_freq 4000
fetch_width 6
decode_width 6
dispatch_width 6
execute_width 6
lq_width 2
sq_width 2
retire_width 6
scheduler_size 160
branch_mispredict_penalty 1
rob_size 352
lq_size 240
sq_size 112
ifetch_buffer_size 64
decode_buffer_size 32
dispatch_buffer_size 32
register_file_size 288
decode_latency 1
dispatch_latency 1
schedule_latency 0
execute_latency 0
page_size 4096
block_size 64
core_0_itlb_set 16
core_0_itlb_way 4
core_0_itlb_rq_size 16
core_0_itlb_wq_size 16
core_0_itlb_pq_size 0
core_0_itlb_mshr_size 8
core_0_itlb_hit_latency 1
core_0_itlb_fill_latency 1
core_0_itlb_max_tag_check 2
core_0_itlb_max_fill 2
core_0_dtlb_set 16
core_0_dtlb_way 4
core_0_dtlb_rq_size 16
core_0_dtlb_wq_size 16
core_0_dtlb_pq_size 0
core_0_dtlb_mshr_size 8
core_0_dtlb_hit_latency 1
core_0_dtlb_fill_latency 1
core_0_dtlb_max_tag_check 2
core_0_dtlb_max_fill 2
core_0_stlb_set 128
core_0_stlb_way 12
core_0_stlb_rq_size 32
core_0_stlb_wq_size 32
core_0_stlb_pq_size 0
core_0_stlb_mshr_size 16
core_0_stlb_hit_latency 4
core_0_stlb_fill_latency 4
core_0_stlb_max_tag_check 1
core_0_stlb_max_fill 1
core_0_l1i_set 64
core_0_l1i_way 8
core_0_l1i_rq_size 64
core_0_l1i_wq_size 64
core_0_l1i_pq_size 32
core_0_l1i_mshr_size 8
core_0_l1i_hit_latency 2
core_0_l1i_fill_latency 2
core_0_l1i_max_tag_check 2
core_0_l1i_max_fill 2
core_0_l1d_set 64
core_0_l1d_way 12
core_0_l1d_rq_size 64
core_0_l1d_wq_size 64
core_0_l1d_pq_size 8
core_0_l1d_mshr_size 16
core_0_l1d_hit_latency 2
core_0_l1d_fill_latency 3
core_0_l1d_max_tag_check 2
core_0_l1d_max_fill 2
core_0_l2c_set 1024
core_0_l2c_way 8
core_0_l2c_rq_size 32
core_0_l2c_wq_size 32
core_0_l2c_pq_size 16
core_0_l2c_mshr_size 32
core_0_l2c_hit_latency 5
core_0_l2c_fill_latency 5
core_0_l2c_max_tag_check 1
core_0_l2c_max_fill 1
llc_set 2048
llc_way 16
llc_rq_size 32
llc_wq_size 32
llc_pq_size 32
llc_mshr_size 64
llc_hit_latency 10
llc_fill_latency 10
llc_max_tag_check 1
llc_max_fill 1
dram_channels 1
dram_ranks 1
dram_bankgroups 8
dram_banks 4
dram_rows 16384
dram_columns 1024
dram_channel_width 8
dram_rq_size 64
dram_wq_size 64
dram_size 4294967296
core_0_itlb_prefetcher no
core_0_dtlb_prefetcher no
core_0_stlb_prefetcher no
core_0_l1i_prefetcher next_line
core_0_l1d_prefetcher berti
core_0_l2c_prefetcher pythia
llc_prefetcher no
llc_replacement drrip

Core_0_instructions 50000000
Core_0_cycles 21761308
Core_0_IPC 2.29766
Core_0_branch_prediction_accuracy 99.6622
Core_0_branch_MPKI 0.66296
Core_0_average_ROB_occupancy_at_mispredict 52.3845

Core_0_ITLB_total_access 8125492
Core_0_ITLB_total_hit 8125490
Core_0_ITLB_total_miss 2
Core_0_ITLB_total_MPKI 4e-05
Core_0_ITLB_total_miss_rate 2.46139e-07
Core_0_ITLB_demand_access 8125492
Core_0_ITLB_demand_hit 8125490
Core_0_ITLB_demand_miss 2
Core_0_ITLB_demand_MPKI 4e-05
Core_0_ITLB_demand_miss_rate 2.46139e-07
Core_0_ITLB_load_access 8125492
Core_0_ITLB_load_hit 8125490
Core_0_ITLB_load_miss 2
Core_0_ITLB_load_MPKI 4e-05
Core_0_ITLB_load_miss_rate 2.46139e-07
Core_0_ITLB_rfo_access 0
Core_0_ITLB_rfo_hit 0
Core_0_ITLB_rfo_miss 0
Core_0_ITLB_rfo_MPKI 0
Core_0_ITLB_rfo_miss_rate 0
Core_0_ITLB_prefetch_access 0
Core_0_ITLB_prefetch_hit 0
Core_0_ITLB_prefetch_miss 0
Core_0_ITLB_prefetch_MPKI 0
Core_0_ITLB_prefetch_miss_rate 0
Core_0_ITLB_writeback_access 0
Core_0_ITLB_writeback_hit 0
Core_0_ITLB_writeback_miss 0
Core_0_ITLB_writeback_MPKI 0
Core_0_ITLB_writeback_miss_rate 0
Core_0_ITLB_prefetch_requested 0
Core_0_ITLB_prefetch_issued 0
Core_0_ITLB_prefetch_useful 0
Core_0_ITLB_prefetch_useless 0
Core_0_ITLB_prefetch_late 0
Core_0_ITLB_prefetch_accuracy 0
Core_0_ITLB_prefetch_coverage 0

Core_0_DTLB_total_access 20395139
Core_0_DTLB_total_hit 20140056
Core_0_DTLB_total_miss 255083
Core_0_DTLB_total_MPKI 5.10166
Core_0_DTLB_total_miss_rate 0.012507
Core_0_DTLB_demand_access 20395139
Core_0_DTLB_demand_hit 20140056
Core_0_DTLB_demand_miss 255083
Core_0_DTLB_demand_MPKI 5.10166
Core_0_DTLB_demand_miss_rate 0.012507
Core_0_DTLB_load_access 20395139
Core_0_DTLB_load_hit 20140056
Core_0_DTLB_load_miss 255083
Core_0_DTLB_load_MPKI 5.10166
Core_0_DTLB_load_miss_rate 0.012507
Core_0_DTLB_rfo_access 0
Core_0_DTLB_rfo_hit 0
Core_0_DTLB_rfo_miss 0
Core_0_DTLB_rfo_MPKI 0
Core_0_DTLB_rfo_miss_rate 0
Core_0_DTLB_prefetch_access 0
Core_0_DTLB_prefetch_hit 0
Core_0_DTLB_prefetch_miss 0
Core_0_DTLB_prefetch_MPKI 0
Core_0_DTLB_prefetch_miss_rate 0
Core_0_DTLB_writeback_access 0
Core_0_DTLB_writeback_hit 0
Core_0_DTLB_writeback_miss 0
Core_0_DTLB_writeback_MPKI 0
Core_0_DTLB_writeback_miss_rate 0
Core_0_DTLB_prefetch_requested 0
Core_0_DTLB_prefetch_issued 0
Core_0_DTLB_prefetch_useful 0
Core_0_DTLB_prefetch_useless 0
Core_0_DTLB_prefetch_late 0
Core_0_DTLB_prefetch_accuracy 0
Core_0_DTLB_prefetch_coverage 0

Core_0_STLB_total_access 55272
Core_0_STLB_total_hit 54831
Core_0_STLB_total_miss 441
Core_0_STLB_total_MPKI 0.00882
Core_0_STLB_total_miss_rate 0.00797872
Core_0_STLB_demand_access 55272
Core_0_STLB_demand_hit 54831
Core_0_STLB_demand_miss 441
Core_0_STLB_demand_MPKI 0.00882
Core_0_STLB_demand_miss_rate 0.00797872
Core_0_STLB_load_access 55272
Core_0_STLB_load_hit 54831
Core_0_STLB_load_miss 441
Core_0_STLB_load_MPKI 0.00882
Core_0_STLB_load_miss_rate 0.00797872
Core_0_STLB_rfo_access 0
Core_0_STLB_rfo_hit 0
Core_0_STLB_rfo_miss 0
Core_0_STLB_rfo_MPKI 0
Core_0_STLB_rfo_miss_rate 0
Core_0_STLB_prefetch_access 0
Core_0_STLB_prefetch_hit 0
Core_0_STLB_prefetch_miss 0
Core_0_STLB_prefetch_MPKI 0
Core_0_STLB_prefetch_miss_rate 0
Core_0_STLB_writeback_access 0
Core_0_STLB_writeback_hit 0
Core_0_STLB_writeback_miss 0
Core_0_STLB_writeback_MPKI 0
Core_0_STLB_writeback_miss_rate 0
Core_0_STLB_prefetch_requested 0
Core_0_STLB_prefetch_issued 0
Core_0_STLB_prefetch_useful 0
Core_0_STLB_prefetch_useless 0
Core_0_STLB_prefetch_late 0
Core_0_STLB_prefetch_accuracy 0
Core_0_STLB_prefetch_coverage 0

Core_0_L1I_total_access 8126431
Core_0_L1I_total_hit 8126431
Core_0_L1I_total_miss 0
Core_0_L1I_total_MPKI 0
Core_0_L1I_total_miss_rate 0
Core_0_L1I_demand_access 8126431
Core_0_L1I_demand_hit 8126431
Core_0_L1I_demand_miss 0
Core_0_L1I_demand_MPKI 0
Core_0_L1I_demand_miss_rate 0
Core_0_L1I_load_access 8126431
Core_0_L1I_load_hit 8126431
Core_0_L1I_load_miss 0
Core_0_L1I_load_MPKI 0
Core_0_L1I_load_miss_rate 0
Core_0_L1I_rfo_access 0
Core_0_L1I_rfo_hit 0
Core_0_L1I_rfo_miss 0
Core_0_L1I_rfo_MPKI 0
Core_0_L1I_rfo_miss_rate 0
Core_0_L1I_prefetch_access 0
Core_0_L1I_prefetch_hit 0
Core_0_L1I_prefetch_miss 0
Core_0_L1I_prefetch_MPKI 0
Core_0_L1I_prefetch_miss_rate 0
Core_0_L1I_writeback_access 0
Core_0_L1I_writeback_hit 0
Core_0_L1I_writeback_miss 0
Core_0_L1I_writeback_MPKI 0
Core_0_L1I_writeback_miss_rate 0
Core_0_L1I_prefetch_requested 0
Core_0_L1I_prefetch_issued 0
Core_0_L1I_prefetch_useful 0
Core_0_L1I_prefetch_useless 0
Core_0_L1I_prefetch_late 0
Core_0_L1I_prefetch_accuracy 0
Core_0_L1I_prefetch_coverage 0

Core_0_L1D_total_access 20449098
Core_0_L1D_total_hit 629442
Core_0_L1D_total_miss 19819656
Core_0_L1D_total_MPKI 396.393
Core_0_L1D_total_miss_rate 0.969219
Core_0_L1D_demand_access 327399
Core_0_L1D_demand_hit 294836
Core_0_L1D_demand_miss 32563
Core_0_L1D_demand_MPKI 0.65126
Core_0_L1D_demand_miss_rate 0.0994597
Core_0_L1D_load_access 327399
Core_0_L1D_load_hit 294836
Core_0_L1D_load_miss 32563
Core_0_L1D_load_MPKI 0.65126
Core_0_L1D_load_miss_rate 0.0994597
Core_0_L1D_rfo_access 0
Core_0_L1D_rfo_hit 0
Core_0_L1D_rfo_miss 0
Core_0_L1D_rfo_MPKI 0
Core_0_L1D_rfo_miss_rate 0
Core_0_L1D_prefetch_access 22057
Core_0_L1D_prefetch_hit 2927
Core_0_L1D_prefetch_miss 19130
Core_0_L1D_prefetch_MPKI 0.3826
Core_0_L1D_prefetch_miss_rate 0.867298
Core_0_L1D_writeback_access 20099642
Core_0_L1D_writeback_hit 331679
Core_0_L1D_writeback_miss 19767963
Core_0_L1D_writeback_MPKI 395.359
Core_0_L1D_writeback_miss_rate 0.983498
Core_0_L1D_prefetch_requested 22065
Core_0_L1D_prefetch_issued 22057
Core_0_L1D_prefetch_useful 9534
Core_0_L1D_prefetch_useless 8406
Core_0_L1D_prefetch_late 458
Core_0_L1D_prefetch_accuracy 0.432244
Core_0_L1D_prefetch_coverage 0.226477

Core_0_L2C_total_access 5061656
Core_0_L2C_total_hit 3101187
Core_0_L2C_total_miss 1960469
Core_0_L2C_total_MPKI 39.2094
Core_0_L2C_total_miss_rate 0.387318
Core_0_L2C_demand_access 2498029
Core_0_L2C_demand_hit 583221
Core_0_L2C_demand_miss 1914808
Core_0_L2C_demand_MPKI 38.2962
Core_0_L2C_demand_miss_rate 0.766528
Core_0_L2C_load_access 23298
Core_0_L2C_load_hit 8561
Core_0_L2C_load_miss 14737
Core_0_L2C_load_MPKI 0.29474
Core_0_L2C_load_miss_rate 0.632544
Core_0_L2C_rfo_access 2474731
Core_0_L2C_rfo_hit 574660
Core_0_L2C_rfo_miss 1900071
Core_0_L2C_rfo_MPKI 38.0014
Core_0_L2C_rfo_miss_rate 0.767789
Core_0_L2C_prefetch_access 77900
Core_0_L2C_prefetch_hit 32239
Core_0_L2C_prefetch_miss 45661
Core_0_L2C_prefetch_MPKI 0.91322
Core_0_L2C_prefetch_miss_rate 0.586149
Core_0_L2C_writeback_access 2485727
Core_0_L2C_writeback_hit 2485727
Core_0_L2C_writeback_miss 0
Core_0_L2C_writeback_MPKI 0
Core_0_L2C_writeback_miss_rate 0
Core_0_L2C_prefetch_requested 60938
Core_0_L2C_prefetch_issued 59960
Core_0_L2C_prefetch_useful 7807
Core_0_L2C_prefetch_useless 18752
Core_0_L2C_prefetch_late 142
Core_0_L2C_prefetch_accuracy 0.130203
Core_0_L2C_prefetch_coverage 0.00406062

Core_0_LLC_total_access 3859022
Core_0_LLC_total_hit 3844837
Core_0_LLC_total_miss 14185
Core_0_LLC_total_MPKI 0.2837
Core_0_LLC_total_miss_rate 0.0036758
Core_0_LLC_demand_access 1914662
Core_0_LLC_demand_hit 1911753
Core_0_LLC_demand_miss 2909
Core_0_LLC_demand_MPKI 0.05818
Core_0_LLC_demand_miss_rate 0.00151933
Core_0_LLC_load_access 14599
Core_0_LLC_load_hit 12545
Core_0_LLC_load_miss 2054
Core_0_LLC_load_MPKI 0.04108
Core_0_LLC_load_miss_rate 0.140695
Core_0_LLC_rfo_access 1900063
Core_0_LLC_rfo_hit 1899208
Core_0_LLC_rfo_miss 855
Core_0_LLC_rfo_MPKI 0.0171
Core_0_LLC_rfo_miss_rate 0.000449985
Core_0_LLC_prefetch_access 37136
Core_0_LLC_prefetch_hit 25913
Core_0_LLC_prefetch_miss 11223
Core_0_LLC_prefetch_MPKI 0.22446
Core_0_LLC_prefetch_miss_rate 0.302213
Core_0_LLC_writeback_access 1907224
Core_0_LLC_writeback_hit 1907171
Core_0_LLC_writeback_miss 53
Core_0_LLC_writeback_MPKI 0.00106
Core_0_LLC_writeback_miss_rate 2.77891e-05
Core_0_LLC_prefetch_requested 0
Core_0_LLC_prefetch_issued 0
Core_0_LLC_prefetch_useful 0
Core_0_LLC_prefetch_useless 0
Core_0_LLC_prefetch_late 0
Core_0_LLC_prefetch_accuracy 0
Core_0_LLC_prefetch_coverage 0

[DRAM Statistics]
Channel_0_RQ_row_buffer_hit 375
Channel_0_RQ_row_buffer_miss 13906
Channel_0_WQ_row_buffer_hit 153
Channel_0_WQ_row_buffer_miss 593
Channel_0_WQ_full 0
Channel_0_dbus_congested 25317
DRAM_total_RQ_row_buffer_hit 375
DRAM_total_RQ_row_buffer_miss 13906
DRAM_total_WQ_row_buffer_hit 153
DRAM_total_WQ_row_buffer_miss 593
DRAM_total_WQ_full 0
DRAM_total_dbus_congested 25317
DRAM_avg_congested_cycle 6.75763

======STLB miss causes ========
Core_0_STLB_miss_cause_breakdown
Core_0_STLB_cause_Demand_Data_miss 441
Core_0_STLB_cause_Demand_Data_miss_rate 0.00797872
Core_0_STLB_cause_Demand_Instruction_miss 0
Core_0_STLB_cause_Demand_Instruction_miss_rate 0
Core_0_STLB_cause_L1D_Prefetch_miss 0
Core_0_STLB_cause_L1D_Prefetch_miss_rate 0
Core_0_STLB_cause_L1I_Prefetch_miss 0
Core_0_STLB_cause_L1I_Prefetch_miss_rate 0
Core_0_STLB_cause_Other_miss 0
Core_0_STLB_cause_Other_miss_rate 0
Core_0_STLB_Demand_miss 441
Core_0_STLB_Demand_miss_rate 0.00797872
Core_0_STLB_L1D_Prefetch_miss 0
Core_0_STLB_L1D_Prefetch_miss_rate 0
Core_0_STLB_Other_miss 0
Core_0_STLB_Other_miss_rate 0
