[VMEM] WARNING: physical memory size is smaller than virtual memory size.

*** ChampSim Multicore Out-of-Order Simulator ***
Warmup Instructions: 20000000
Simulation Instructions: 50000000
Number of CPUs: 1
Page size: 4096
STLB ideal mode: l1pref
Core 0: /data0/tzh/champsim_traces/SPEC06/410.bwaves-1963B.champsimtrace.xz
 L1D Berti prefetcher
Off-chip DRAM Size: 4 GiB Channels: 1 Width: 64-bit Data Rate: 3205 MT/s
Warmup halting CPU 0 at instruction 20000004 cycle 5147102 for remainder of phase
Warmup finished CPU 0 instructions: 20000004 cycles: 5147102 cumulative IPC: 3.886 (Simulation time: 00 hr 01 min 14 sec)
Warmup complete CPU 0 instructions: 20000004 cycles: 5147102 cumulative IPC: 3.886 (Simulation time: 00 hr 01 min 14 sec)
Simulation finished CPU 0 instructions: 50000005 cycles: 21758092 cumulative IPC: 2.298 (Simulation time: 00 hr 04 min 58 sec)
Simulation complete CPU 0 instructions: 50000005 cycles: 21758092 cumulative IPC: 2.298 (Simulation time: 00 hr 04 min 58 sec)

ChampSim completed all CPUs

=== Simulation ===
CPU 0 runs /data0/tzh/champsim_traces/SPEC06/410.bwaves-1963B.champsimtrace.xz

Region of Interest Statistics

CPU 0 cumulative IPC: 2.298 instructions: 50000005 cycles: 21758092
CPU 0 Branch Prediction Accuracy: 83.76% MPKI: 4.529 Average ROB Occupancy at Mispredict: 208
Branch type MPKI
BRANCH_DIRECT_JUMP: 0
BRANCH_INDIRECT: 0
BRANCH_CONDITIONAL: 4.529
BRANCH_DIRECT_CALL: 0
BRANCH_INDIRECT_CALL: 0
BRANCH_RETURN: 0

cpu0->cpu0_STLB TOTAL        ACCESS:      37942 HIT:      24665 MISS:      13277 MSHR_MERGE:          0
cpu0->cpu0_STLB LOAD         ACCESS:      37942 HIT:      24665 MISS:      13277 MSHR_MERGE:          0
cpu0->cpu0_STLB RFO          ACCESS:          0 HIT:          0 MISS:          0 MSHR_MERGE:          0
cpu0->cpu0_STLB PREFETCH     ACCESS:          0 HIT:          0 MISS:          0 MSHR_MERGE:          0
cpu0->cpu0_STLB WRITE        ACCESS:          0 HIT:          0 MISS:          0 MSHR_MERGE:          0
cpu0->cpu0_STLB TRANSLATION  ACCESS:          0 HIT:          0 MISS:          0 MSHR_MERGE:          0
cpu0->cpu0_STLB PREFETCH REQUESTED:          0 ISSUED:          0 USEFUL:          0 USELESS:          0 LATE:          0
cpu0->cpu0_STLB AVERAGE MISS LATENCY: 244.3 cycles
cpu0->cpu0_L2C TOTAL        ACCESS:    4733959 HIT:    3073350 MISS:    1660609 MSHR_MERGE:     740812
cpu0->cpu0_L2C LOAD         ACCESS:     177790 HIT:     143859 MISS:      33931 MSHR_MERGE:      12361
cpu0->cpu0_L2C RFO          ACCESS:      23527 HIT:          0 MISS:      23527 MSHR_MERGE:          0
cpu0->cpu0_L2C PREFETCH     ACCESS:    4506709 HIT:    2905357 MISS:    1601352 MSHR_MERGE:     728451
cpu0->cpu0_L2C WRITE        ACCESS:      23519 HIT:      23519 MISS:          0 MSHR_MERGE:          0
cpu0->cpu0_L2C TRANSLATION  ACCESS:       2414 HIT:        615 MISS:       1799 MSHR_MERGE:          0
cpu0->cpu0_L2C PREFETCH REQUESTED:    4879617 ISSUED:    3740231 USEFUL:     816285 USELESS:      36669 LATE:      12361
cpu0->cpu0_L2C AVERAGE MISS LATENCY: 253.1 cycles
cpu0->cpu0_L1I TOTAL        ACCESS:     721973 HIT:     721973 MISS:          0 MSHR_MERGE:          0
cpu0->cpu0_L1I LOAD         ACCESS:     721973 HIT:     721973 MISS:          0 MSHR_MERGE:          0
cpu0->cpu0_L1I RFO          ACCESS:          0 HIT:          0 MISS:          0 MSHR_MERGE:          0
cpu0->cpu0_L1I PREFETCH     ACCESS:          0 HIT:          0 MISS:          0 MSHR_MERGE:          0
cpu0->cpu0_L1I WRITE        ACCESS:          0 HIT:          0 MISS:          0 MSHR_MERGE:          0
cpu0->cpu0_L1I TRANSLATION  ACCESS:          0 HIT:          0 MISS:          0 MSHR_MERGE:          0
cpu0->cpu0_L1I PREFETCH REQUESTED:          0 ISSUED:          0 USEFUL:          0 USELESS:          0 LATE:          0
cpu0->cpu0_L1I AVERAGE MISS LATENCY: - cycles
cpu0->cpu0_L1D TOTAL        ACCESS:   19432404 HIT:   18344803 MISS:    1087601 MSHR_MERGE:     117400
cpu0->cpu0_L1D LOAD         ACCESS:   14798334 HIT:   14606816 MISS:     191518 MSHR_MERGE:      13728
cpu0->cpu0_L1D RFO          ACCESS:          0 HIT:          0 MISS:          0 MSHR_MERGE:          0
cpu0->cpu0_L1D PREFETCH     ACCESS:     863786 HIT:      91188 MISS:     772598 MSHR_MERGE:       6128
cpu0->cpu0_L1D WRITE        ACCESS:    3743703 HIT:    3622632 MISS:     121071 MSHR_MERGE:      97544
cpu0->cpu0_L1D TRANSLATION  ACCESS:      26581 HIT:      24167 MISS:       2414 MSHR_MERGE:          0
cpu0->cpu0_L1D PREFETCH REQUESTED:     977353 ISSUED:     863781 USEFUL:     763289 USELESS:       3162 LATE:       4700
cpu0->cpu0_L1D AVERAGE MISS LATENCY: 82.88 cycles
cpu0->cpu0_ITLB TOTAL        ACCESS:     531398 HIT:     531398 MISS:          0 MSHR_MERGE:          0
cpu0->cpu0_ITLB LOAD         ACCESS:     531398 HIT:     531398 MISS:          0 MSHR_MERGE:          0
cpu0->cpu0_ITLB RFO          ACCESS:          0 HIT:          0 MISS:          0 MSHR_MERGE:          0
cpu0->cpu0_ITLB PREFETCH     ACCESS:          0 HIT:          0 MISS:          0 MSHR_MERGE:          0
cpu0->cpu0_ITLB WRITE        ACCESS:          0 HIT:          0 MISS:          0 MSHR_MERGE:          0
cpu0->cpu0_ITLB TRANSLATION  ACCESS:          0 HIT:          0 MISS:          0 MSHR_MERGE:          0
cpu0->cpu0_ITLB PREFETCH REQUESTED:          0 ISSUED:          0 USEFUL:          0 USELESS:          0 LATE:          0
cpu0->cpu0_ITLB AVERAGE MISS LATENCY: - cycles
cpu0->cpu0_DTLB TOTAL        ACCESS:   18227430 HIT:   18174142 MISS:      53288 MSHR_MERGE:      15346
cpu0->cpu0_DTLB LOAD         ACCESS:   18227430 HIT:   18174142 MISS:      53288 MSHR_MERGE:      15346
cpu0->cpu0_DTLB RFO          ACCESS:          0 HIT:          0 MISS:          0 MSHR_MERGE:          0
cpu0->cpu0_DTLB PREFETCH     ACCESS:          0 HIT:          0 MISS:          0 MSHR_MERGE:          0
cpu0->cpu0_DTLB WRITE        ACCESS:          0 HIT:          0 MISS:          0 MSHR_MERGE:          0
cpu0->cpu0_DTLB TRANSLATION  ACCESS:          0 HIT:          0 MISS:          0 MSHR_MERGE:          0
cpu0->cpu0_DTLB PREFETCH REQUESTED:          0 ISSUED:          0 USEFUL:          0 USELESS:          0 LATE:          0
cpu0->cpu0_DTLB AVERAGE MISS LATENCY: 90.84 cycles
cpu0->LLC TOTAL        ACCESS:     943340 HIT:       5777 MISS:     937563 MSHR_MERGE:          0
cpu0->LLC LOAD         ACCESS:      21570 HIT:         10 MISS:      21560 MSHR_MERGE:          0
cpu0->LLC RFO          ACCESS:      23527 HIT:          0 MISS:      23527 MSHR_MERGE:          0
cpu0->LLC PREFETCH     ACCESS:     872901 HIT:       2143 MISS:     870758 MSHR_MERGE:          0
cpu0->LLC WRITE        ACCESS:      23543 HIT:       3613 MISS:      19930 MSHR_MERGE:          0
cpu0->LLC TRANSLATION  ACCESS:       1799 HIT:         11 MISS:       1788 MSHR_MERGE:          0
cpu0->LLC PREFETCH REQUESTED:          0 ISSUED:          0 USEFUL:          0 USELESS:          0 LATE:          0
cpu0->LLC AVERAGE MISS LATENCY: 176.4 cycles

DRAM Statistics

Channel 0 RQ ROW_BUFFER_HIT:        146
  ROW_BUFFER_MISS:     917487
  AVG DBUS CONGESTED CYCLE: 3.703
Channel 0 WQ ROW_BUFFER_HIT:       4611
  ROW_BUFFER_MISS:      13883
  FULL:          0
Channel 0 REFRESHES ISSUED:       1814

[ROI Statistics]
[System Configuration]
num_cpus 1
cpu_freq 4000
fetch_width 6
decode_width 6
dispatch_width 6
execute_width 6
lq_width 2
sq_width 2
retire_width 6
scheduler_size 160
branch_mispredict_penalty 1
rob_size 352
lq_size 240
sq_size 112
ifetch_buffer_size 64
decode_buffer_size 32
dispatch_buffer_size 32
register_file_size 288
decode_latency 1
dispatch_latency 1
schedule_latency 0
execute_latency 0
page_size 4096
block_size 64
core_0_itlb_set 16
core_0_itlb_way 4
core_0_itlb_rq_size 16
core_0_itlb_wq_size 16
core_0_itlb_pq_size 0
core_0_itlb_mshr_size 8
core_0_itlb_hit_latency 1
core_0_itlb_fill_latency 1
core_0_itlb_max_tag_check 2
core_0_itlb_max_fill 2
core_0_dtlb_set 16
core_0_dtlb_way 4
core_0_dtlb_rq_size 16
core_0_dtlb_wq_size 16
core_0_dtlb_pq_size 0
core_0_dtlb_mshr_size 8
core_0_dtlb_hit_latency 1
core_0_dtlb_fill_latency 1
core_0_dtlb_max_tag_check 2
core_0_dtlb_max_fill 2
core_0_stlb_set 128
core_0_stlb_way 12
core_0_stlb_rq_size 32
core_0_stlb_wq_size 32
core_0_stlb_pq_size 0
core_0_stlb_mshr_size 16
core_0_stlb_hit_latency 4
core_0_stlb_fill_latency 4
core_0_stlb_max_tag_check 1
core_0_stlb_max_fill 1
core_0_l1i_set 64
core_0_l1i_way 8
core_0_l1i_rq_size 64
core_0_l1i_wq_size 64
core_0_l1i_pq_size 32
core_0_l1i_mshr_size 8
core_0_l1i_hit_latency 2
core_0_l1i_fill_latency 2
core_0_l1i_max_tag_check 2
core_0_l1i_max_fill 2
core_0_l1d_set 64
core_0_l1d_way 12
core_0_l1d_rq_size 64
core_0_l1d_wq_size 64
core_0_l1d_pq_size 8
core_0_l1d_mshr_size 16
core_0_l1d_hit_latency 2
core_0_l1d_fill_latency 3
core_0_l1d_max_tag_check 2
core_0_l1d_max_fill 2
core_0_l2c_set 1024
core_0_l2c_way 8
core_0_l2c_rq_size 32
core_0_l2c_wq_size 32
core_0_l2c_pq_size 16
core_0_l2c_mshr_size 32
core_0_l2c_hit_latency 5
core_0_l2c_fill_latency 5
core_0_l2c_max_tag_check 1
core_0_l2c_max_fill 1
llc_set 2048
llc_way 16
llc_rq_size 32
llc_wq_size 32
llc_pq_size 32
llc_mshr_size 64
llc_hit_latency 10
llc_fill_latency 10
llc_max_tag_check 1
llc_max_fill 1
dram_channels 1
dram_ranks 1
dram_bankgroups 8
dram_banks 4
dram_rows 16384
dram_columns 1024
dram_channel_width 8
dram_rq_size 64
dram_wq_size 64
dram_size 4294967296
core_0_itlb_prefetcher no
core_0_dtlb_prefetcher no
core_0_stlb_prefetcher no
core_0_l1i_prefetcher next_line
core_0_l1d_prefetcher berti
core_0_l2c_prefetcher pythia
llc_prefetcher no
llc_replacement drrip

Core_0_instructions 50000005
Core_0_cycles 21758092
Core_0_IPC 2.298
Core_0_branch_prediction_accuracy 83.7552
Core_0_branch_MPKI 4.52892
Core_0_average_ROB_occupancy_at_mispredict 208.036

Core_0_ITLB_total_access 531398
Core_0_ITLB_total_hit 531398
Core_0_ITLB_total_miss 0
Core_0_ITLB_total_MPKI 0
Core_0_ITLB_total_miss_rate 0
Core_0_ITLB_demand_access 531398
Core_0_ITLB_demand_hit 531398
Core_0_ITLB_demand_miss 0
Core_0_ITLB_demand_MPKI 0
Core_0_ITLB_demand_miss_rate 0
Core_0_ITLB_load_access 531398
Core_0_ITLB_load_hit 531398
Core_0_ITLB_load_miss 0
Core_0_ITLB_load_MPKI 0
Core_0_ITLB_load_miss_rate 0
Core_0_ITLB_rfo_access 0
Core_0_ITLB_rfo_hit 0
Core_0_ITLB_rfo_miss 0
Core_0_ITLB_rfo_MPKI 0
Core_0_ITLB_rfo_miss_rate 0
Core_0_ITLB_prefetch_access 0
Core_0_ITLB_prefetch_hit 0
Core_0_ITLB_prefetch_miss 0
Core_0_ITLB_prefetch_MPKI 0
Core_0_ITLB_prefetch_miss_rate 0
Core_0_ITLB_writeback_access 0
Core_0_ITLB_writeback_hit 0
Core_0_ITLB_writeback_miss 0
Core_0_ITLB_writeback_MPKI 0
Core_0_ITLB_writeback_miss_rate 0
Core_0_ITLB_prefetch_requested 0
Core_0_ITLB_prefetch_issued 0
Core_0_ITLB_prefetch_useful 0
Core_0_ITLB_prefetch_useless 0
Core_0_ITLB_prefetch_late 0
Core_0_ITLB_prefetch_accuracy 0
Core_0_ITLB_prefetch_coverage 0

Core_0_DTLB_total_access 18227430
Core_0_DTLB_total_hit 18174142
Core_0_DTLB_total_miss 53288
Core_0_DTLB_total_MPKI 1.06576
Core_0_DTLB_total_miss_rate 0.00292351
Core_0_DTLB_demand_access 18227430
Core_0_DTLB_demand_hit 18174142
Core_0_DTLB_demand_miss 53288
Core_0_DTLB_demand_MPKI 1.06576
Core_0_DTLB_demand_miss_rate 0.00292351
Core_0_DTLB_load_access 18227430
Core_0_DTLB_load_hit 18174142
Core_0_DTLB_load_miss 53288
Core_0_DTLB_load_MPKI 1.06576
Core_0_DTLB_load_miss_rate 0.00292351
Core_0_DTLB_rfo_access 0
Core_0_DTLB_rfo_hit 0
Core_0_DTLB_rfo_miss 0
Core_0_DTLB_rfo_MPKI 0
Core_0_DTLB_rfo_miss_rate 0
Core_0_DTLB_prefetch_access 0
Core_0_DTLB_prefetch_hit 0
Core_0_DTLB_prefetch_miss 0
Core_0_DTLB_prefetch_MPKI 0
Core_0_DTLB_prefetch_miss_rate 0
Core_0_DTLB_writeback_access 0
Core_0_DTLB_writeback_hit 0
Core_0_DTLB_writeback_miss 0
Core_0_DTLB_writeback_MPKI 0
Core_0_DTLB_writeback_miss_rate 0
Core_0_DTLB_prefetch_requested 0
Core_0_DTLB_prefetch_issued 0
Core_0_DTLB_prefetch_useful 0
Core_0_DTLB_prefetch_useless 0
Core_0_DTLB_prefetch_late 0
Core_0_DTLB_prefetch_accuracy 0
Core_0_DTLB_prefetch_coverage 0

Core_0_STLB_total_access 37942
Core_0_STLB_total_hit 24665
Core_0_STLB_total_miss 13277
Core_0_STLB_total_MPKI 0.26554
Core_0_STLB_total_miss_rate 0.349929
Core_0_STLB_demand_access 37942
Core_0_STLB_demand_hit 24665
Core_0_STLB_demand_miss 13277
Core_0_STLB_demand_MPKI 0.26554
Core_0_STLB_demand_miss_rate 0.349929
Core_0_STLB_load_access 37942
Core_0_STLB_load_hit 24665
Core_0_STLB_load_miss 13277
Core_0_STLB_load_MPKI 0.26554
Core_0_STLB_load_miss_rate 0.349929
Core_0_STLB_rfo_access 0
Core_0_STLB_rfo_hit 0
Core_0_STLB_rfo_miss 0
Core_0_STLB_rfo_MPKI 0
Core_0_STLB_rfo_miss_rate 0
Core_0_STLB_prefetch_access 0
Core_0_STLB_prefetch_hit 0
Core_0_STLB_prefetch_miss 0
Core_0_STLB_prefetch_MPKI 0
Core_0_STLB_prefetch_miss_rate 0
Core_0_STLB_writeback_access 0
Core_0_STLB_writeback_hit 0
Core_0_STLB_writeback_miss 0
Core_0_STLB_writeback_MPKI 0
Core_0_STLB_writeback_miss_rate 0
Core_0_STLB_prefetch_requested 0
Core_0_STLB_prefetch_issued 0
Core_0_STLB_prefetch_useful 0
Core_0_STLB_prefetch_useless 0
Core_0_STLB_prefetch_late 0
Core_0_STLB_prefetch_accuracy 0
Core_0_STLB_prefetch_coverage 0

Core_0_L1I_total_access 721973
Core_0_L1I_total_hit 721973
Core_0_L1I_total_miss 0
Core_0_L1I_total_MPKI 0
Core_0_L1I_total_miss_rate 0
Core_0_L1I_demand_access 721973
Core_0_L1I_demand_hit 721973
Core_0_L1I_demand_miss 0
Core_0_L1I_demand_MPKI 0
Core_0_L1I_demand_miss_rate 0
Core_0_L1I_load_access 721973
Core_0_L1I_load_hit 721973
Core_0_L1I_load_miss 0
Core_0_L1I_load_MPKI 0
Core_0_L1I_load_miss_rate 0
Core_0_L1I_rfo_access 0
Core_0_L1I_rfo_hit 0
Core_0_L1I_rfo_miss 0
Core_0_L1I_rfo_MPKI 0
Core_0_L1I_rfo_miss_rate 0
Core_0_L1I_prefetch_access 0
Core_0_L1I_prefetch_hit 0
Core_0_L1I_prefetch_miss 0
Core_0_L1I_prefetch_MPKI 0
Core_0_L1I_prefetch_miss_rate 0
Core_0_L1I_writeback_access 0
Core_0_L1I_writeback_hit 0
Core_0_L1I_writeback_miss 0
Core_0_L1I_writeback_MPKI 0
Core_0_L1I_writeback_miss_rate 0
Core_0_L1I_prefetch_requested 0
Core_0_L1I_prefetch_issued 0
Core_0_L1I_prefetch_useful 0
Core_0_L1I_prefetch_useless 0
Core_0_L1I_prefetch_late 0
Core_0_L1I_prefetch_accuracy 0
Core_0_L1I_prefetch_coverage 0

Core_0_L1D_total_access 19405823
Core_0_L1D_total_hit 18320636
Core_0_L1D_total_miss 1085187
Core_0_L1D_total_MPKI 21.7037
Core_0_L1D_total_miss_rate 0.0559207
Core_0_L1D_demand_access 14798334
Core_0_L1D_demand_hit 14606816
Core_0_L1D_demand_miss 191518
Core_0_L1D_demand_MPKI 3.83036
Core_0_L1D_demand_miss_rate 0.0129419
Core_0_L1D_load_access 14798334
Core_0_L1D_load_hit 14606816
Core_0_L1D_load_miss 191518
Core_0_L1D_load_MPKI 3.83036
Core_0_L1D_load_miss_rate 0.0129419
Core_0_L1D_rfo_access 0
Core_0_L1D_rfo_hit 0
Core_0_L1D_rfo_miss 0
Core_0_L1D_rfo_MPKI 0
Core_0_L1D_rfo_miss_rate 0
Core_0_L1D_prefetch_access 863786
Core_0_L1D_prefetch_hit 91188
Core_0_L1D_prefetch_miss 772598
Core_0_L1D_prefetch_MPKI 15.452
Core_0_L1D_prefetch_miss_rate 0.894432
Core_0_L1D_writeback_access 3743703
Core_0_L1D_writeback_hit 3622632
Core_0_L1D_writeback_miss 121071
Core_0_L1D_writeback_MPKI 2.42142
Core_0_L1D_writeback_miss_rate 0.0323399
Core_0_L1D_prefetch_requested 977353
Core_0_L1D_prefetch_issued 863781
Core_0_L1D_prefetch_useful 763289
Core_0_L1D_prefetch_useless 3162
Core_0_L1D_prefetch_late 4700
Core_0_L1D_prefetch_accuracy 0.88366
Core_0_L1D_prefetch_coverage 0.799417

Core_0_L2C_total_access 4731545
Core_0_L2C_total_hit 3072735
Core_0_L2C_total_miss 1658810
Core_0_L2C_total_MPKI 33.1762
Core_0_L2C_total_miss_rate 0.350585
Core_0_L2C_demand_access 201317
Core_0_L2C_demand_hit 143859
Core_0_L2C_demand_miss 57458
Core_0_L2C_demand_MPKI 1.14916
Core_0_L2C_demand_miss_rate 0.285411
Core_0_L2C_load_access 177790
Core_0_L2C_load_hit 143859
Core_0_L2C_load_miss 33931
Core_0_L2C_load_MPKI 0.67862
Core_0_L2C_load_miss_rate 0.190849
Core_0_L2C_rfo_access 23527
Core_0_L2C_rfo_hit 0
Core_0_L2C_rfo_miss 23527
Core_0_L2C_rfo_MPKI 0.47054
Core_0_L2C_rfo_miss_rate 1
Core_0_L2C_prefetch_access 4506709
Core_0_L2C_prefetch_hit 2905357
Core_0_L2C_prefetch_miss 1601352
Core_0_L2C_prefetch_MPKI 32.027
Core_0_L2C_prefetch_miss_rate 0.355326
Core_0_L2C_writeback_access 23519
Core_0_L2C_writeback_hit 23519
Core_0_L2C_writeback_miss 0
Core_0_L2C_writeback_MPKI 0
Core_0_L2C_writeback_miss_rate 0
Core_0_L2C_prefetch_requested 4879617
Core_0_L2C_prefetch_issued 3740231
Core_0_L2C_prefetch_useful 816285
Core_0_L2C_prefetch_useless 36669
Core_0_L2C_prefetch_late 12361
Core_0_L2C_prefetch_accuracy 0.218245
Core_0_L2C_prefetch_coverage 0.934239

Core_0_LLC_total_access 941541
Core_0_LLC_total_hit 5766
Core_0_LLC_total_miss 935775
Core_0_LLC_total_MPKI 18.7155
Core_0_LLC_total_miss_rate 0.993876
Core_0_LLC_demand_access 45097
Core_0_LLC_demand_hit 10
Core_0_LLC_demand_miss 45087
Core_0_LLC_demand_MPKI 0.90174
Core_0_LLC_demand_miss_rate 0.999778
Core_0_LLC_load_access 21570
Core_0_LLC_load_hit 10
Core_0_LLC_load_miss 21560
Core_0_LLC_load_MPKI 0.4312
Core_0_LLC_load_miss_rate 0.999536
Core_0_LLC_rfo_access 23527
Core_0_LLC_rfo_hit 0
Core_0_LLC_rfo_miss 23527
Core_0_LLC_rfo_MPKI 0.47054
Core_0_LLC_rfo_miss_rate 1
Core_0_LLC_prefetch_access 872901
Core_0_LLC_prefetch_hit 2143
Core_0_LLC_prefetch_miss 870758
Core_0_LLC_prefetch_MPKI 17.4152
Core_0_LLC_prefetch_miss_rate 0.997545
Core_0_LLC_writeback_access 23543
Core_0_LLC_writeback_hit 3613
Core_0_LLC_writeback_miss 19930
Core_0_LLC_writeback_MPKI 0.3986
Core_0_LLC_writeback_miss_rate 0.846536
Core_0_LLC_prefetch_requested 0
Core_0_LLC_prefetch_issued 0
Core_0_LLC_prefetch_useful 0
Core_0_LLC_prefetch_useless 0
Core_0_LLC_prefetch_late 0
Core_0_LLC_prefetch_accuracy 0
Core_0_LLC_prefetch_coverage 0

[DRAM Statistics]
Channel_0_RQ_row_buffer_hit 146
Channel_0_RQ_row_buffer_miss 917487
Channel_0_WQ_row_buffer_hit 4611
Channel_0_WQ_row_buffer_miss 13883
Channel_0_WQ_full 0
Channel_0_dbus_congested 1877445
DRAM_total_RQ_row_buffer_hit 146
DRAM_total_RQ_row_buffer_miss 917487
DRAM_total_WQ_row_buffer_hit 4611
DRAM_total_WQ_row_buffer_miss 13883
DRAM_total_WQ_full 0
DRAM_total_dbus_congested 1877445
DRAM_avg_congested_cycle 3.70308

======STLB miss causes ========
Core_0_STLB_miss_cause_breakdown
Core_0_STLB_cause_Demand_Data_miss 13277
Core_0_STLB_cause_Demand_Data_miss_rate 0.349929
Core_0_STLB_cause_Demand_Instruction_miss 0
Core_0_STLB_cause_Demand_Instruction_miss_rate 0
Core_0_STLB_cause_L1D_Prefetch_miss 0
Core_0_STLB_cause_L1D_Prefetch_miss_rate 0
Core_0_STLB_cause_L1I_Prefetch_miss 0
Core_0_STLB_cause_L1I_Prefetch_miss_rate 0
Core_0_STLB_cause_Other_miss 0
Core_0_STLB_cause_Other_miss_rate 0
Core_0_STLB_Demand_miss 13277
Core_0_STLB_Demand_miss_rate 0.349929
Core_0_STLB_L1D_Prefetch_miss 0
Core_0_STLB_L1D_Prefetch_miss_rate 0
Core_0_STLB_Other_miss 0
Core_0_STLB_Other_miss_rate 0
