[VMEM] WARNING: physical memory size is smaller than virtual memory size.

*** ChampSim Multicore Out-of-Order Simulator ***
Warmup Instructions: 20000000
Simulation Instructions: 50000000
Number of CPUs: 1
Page size: 4096
STLB ideal mode: l1pref
Core 0: /data0/tzh/champsim_traces/SPEC06/437.leslie3d-265B.champsimtrace.xz
 L1D Berti prefetcher
Off-chip DRAM Size: 4 GiB Channels: 1 Width: 64-bit Data Rate: 3205 MT/s
Warmup halting CPU 0 at instruction 20000000 cycle 4401383 for remainder of phase
Warmup finished CPU 0 instructions: 20000000 cycles: 4401383 cumulative IPC: 4.544 (Simulation time: 00 hr 00 min 56 sec)
Warmup complete CPU 0 instructions: 20000000 cycles: 4401383 cumulative IPC: 4.544 (Simulation time: 00 hr 00 min 56 sec)
Simulation finished CPU 0 instructions: 50000005 cycles: 15416231 cumulative IPC: 3.243 (Simulation time: 00 hr 04 min 16 sec)
Simulation complete CPU 0 instructions: 50000005 cycles: 15416231 cumulative IPC: 3.243 (Simulation time: 00 hr 04 min 16 sec)

ChampSim completed all CPUs

=== Simulation ===
CPU 0 runs /data0/tzh/champsim_traces/SPEC06/437.leslie3d-265B.champsimtrace.xz

Region of Interest Statistics

CPU 0 cumulative IPC: 3.243 instructions: 50000005 cycles: 15416231
CPU 0 Branch Prediction Accuracy: 99.09% MPKI: 0.2409 Average ROB Occupancy at Mispredict: 314.7
Branch type MPKI
BRANCH_DIRECT_JUMP: 0
BRANCH_INDIRECT: 0
BRANCH_CONDITIONAL: 0.2409
BRANCH_DIRECT_CALL: 0
BRANCH_INDIRECT_CALL: 0
BRANCH_RETURN: 0

cpu0->cpu0_STLB TOTAL        ACCESS:      13472 HIT:      11479 MISS:       1993 MSHR_MERGE:          0
cpu0->cpu0_STLB LOAD         ACCESS:      13472 HIT:      11479 MISS:       1993 MSHR_MERGE:          0
cpu0->cpu0_STLB RFO          ACCESS:          0 HIT:          0 MISS:          0 MSHR_MERGE:          0
cpu0->cpu0_STLB PREFETCH     ACCESS:          0 HIT:          0 MISS:          0 MSHR_MERGE:          0
cpu0->cpu0_STLB WRITE        ACCESS:          0 HIT:          0 MISS:          0 MSHR_MERGE:          0
cpu0->cpu0_STLB TRANSLATION  ACCESS:          0 HIT:          0 MISS:          0 MSHR_MERGE:          0
cpu0->cpu0_STLB PREFETCH REQUESTED:          0 ISSUED:          0 USEFUL:          0 USELESS:          0 LATE:          0
cpu0->cpu0_STLB AVERAGE MISS LATENCY: 159 cycles
cpu0->cpu0_L2C TOTAL        ACCESS:    2847279 HIT:    2339896 MISS:     507383 MSHR_MERGE:     223084
cpu0->cpu0_L2C LOAD         ACCESS:      66136 HIT:      64501 MISS:       1635 MSHR_MERGE:        831
cpu0->cpu0_L2C RFO          ACCESS:      95790 HIT:      50574 MISS:      45216 MSHR_MERGE:          0
cpu0->cpu0_L2C PREFETCH     ACCESS:    2534176 HIT:    2074108 MISS:     460068 MSHR_MERGE:     222253
cpu0->cpu0_L2C WRITE        ACCESS:     149202 HIT:     149193 MISS:          9 MSHR_MERGE:          0
cpu0->cpu0_L2C TRANSLATION  ACCESS:       1975 HIT:       1520 MISS:        455 MSHR_MERGE:          0
cpu0->cpu0_L2C PREFETCH REQUESTED:    2267685 ISSUED:    2166488 USEFUL:     216339 USELESS:      15227 LATE:        831
cpu0->cpu0_L2C AVERAGE MISS LATENCY: 202.1 cycles
cpu0->cpu0_L1I TOTAL        ACCESS:    7322021 HIT:    7322021 MISS:          0 MSHR_MERGE:          0
cpu0->cpu0_L1I LOAD         ACCESS:    7322021 HIT:    7322021 MISS:          0 MSHR_MERGE:          0
cpu0->cpu0_L1I RFO          ACCESS:          0 HIT:          0 MISS:          0 MSHR_MERGE:          0
cpu0->cpu0_L1I PREFETCH     ACCESS:          0 HIT:          0 MISS:          0 MSHR_MERGE:          0
cpu0->cpu0_L1I WRITE        ACCESS:          0 HIT:          0 MISS:          0 MSHR_MERGE:          0
cpu0->cpu0_L1I TRANSLATION  ACCESS:          0 HIT:          0 MISS:          0 MSHR_MERGE:          0
cpu0->cpu0_L1I PREFETCH REQUESTED:          0 ISSUED:          0 USEFUL:          0 USELESS:          0 LATE:          0
cpu0->cpu0_L1I AVERAGE MISS LATENCY: - cycles
cpu0->cpu0_L1D TOTAL        ACCESS:   14608506 HIT:   13677684 MISS:     930822 MSHR_MERGE:     399208
cpu0->cpu0_L1D LOAD         ACCESS:   11950727 HIT:   11846779 MISS:     103948 MSHR_MERGE:      37812
cpu0->cpu0_L1D RFO          ACCESS:          0 HIT:          0 MISS:          0 MSHR_MERGE:          0
cpu0->cpu0_L1D PREFETCH     ACCESS:     573089 HIT:     203163 MISS:     369926 MSHR_MERGE:       2235
cpu0->cpu0_L1D WRITE        ACCESS:    2080702 HIT:    1625730 MISS:     454972 MSHR_MERGE:     359160
cpu0->cpu0_L1D TRANSLATION  ACCESS:       3988 HIT:       2012 MISS:       1976 MSHR_MERGE:          1
cpu0->cpu0_L1D PREFETCH REQUESTED:     587320 ISSUED:     573081 USEFUL:     319075 USELESS:      48572 LATE:       7652
cpu0->cpu0_L1D AVERAGE MISS LATENCY: 66.51 cycles
cpu0->cpu0_ITLB TOTAL        ACCESS:    6235715 HIT:    6235715 MISS:          0 MSHR_MERGE:          0
cpu0->cpu0_ITLB LOAD         ACCESS:    6235715 HIT:    6235715 MISS:          0 MSHR_MERGE:          0
cpu0->cpu0_ITLB RFO          ACCESS:          0 HIT:          0 MISS:          0 MSHR_MERGE:          0
cpu0->cpu0_ITLB PREFETCH     ACCESS:          0 HIT:          0 MISS:          0 MSHR_MERGE:          0
cpu0->cpu0_ITLB WRITE        ACCESS:          0 HIT:          0 MISS:          0 MSHR_MERGE:          0
cpu0->cpu0_ITLB TRANSLATION  ACCESS:          0 HIT:          0 MISS:          0 MSHR_MERGE:          0
cpu0->cpu0_ITLB PREFETCH REQUESTED:          0 ISSUED:          0 USEFUL:          0 USELESS:          0 LATE:          0
cpu0->cpu0_ITLB AVERAGE MISS LATENCY: - cycles
cpu0->cpu0_DTLB TOTAL        ACCESS:   13803048 HIT:   13772211 MISS:      30837 MSHR_MERGE:      17365
cpu0->cpu0_DTLB LOAD         ACCESS:   13803048 HIT:   13772211 MISS:      30837 MSHR_MERGE:      17365
cpu0->cpu0_DTLB RFO          ACCESS:          0 HIT:          0 MISS:          0 MSHR_MERGE:          0
cpu0->cpu0_DTLB PREFETCH     ACCESS:          0 HIT:          0 MISS:          0 MSHR_MERGE:          0
cpu0->cpu0_DTLB WRITE        ACCESS:          0 HIT:          0 MISS:          0 MSHR_MERGE:          0
cpu0->cpu0_DTLB TRANSLATION  ACCESS:          0 HIT:          0 MISS:          0 MSHR_MERGE:          0
cpu0->cpu0_DTLB PREFETCH REQUESTED:          0 ISSUED:          0 USEFUL:          0 USELESS:          0 LATE:          0
cpu0->cpu0_DTLB AVERAGE MISS LATENCY: 28.67 cycles
cpu0->LLC TOTAL        ACCESS:     329514 HIT:      25978 MISS:     303536 MSHR_MERGE:          0
cpu0->LLC LOAD         ACCESS:        804 HIT:         73 MISS:        731 MSHR_MERGE:          0
cpu0->LLC RFO          ACCESS:      45216 HIT:          1 MISS:      45215 MSHR_MERGE:          0
cpu0->LLC PREFETCH     ACCESS:     237815 HIT:      18645 MISS:     219170 MSHR_MERGE:          0
cpu0->LLC WRITE        ACCESS:      45224 HIT:       7244 MISS:      37980 MSHR_MERGE:          0
cpu0->LLC TRANSLATION  ACCESS:        455 HIT:         15 MISS:        440 MSHR_MERGE:          0
cpu0->LLC PREFETCH REQUESTED:          0 ISSUED:          0 USEFUL:          0 USELESS:          0 LATE:          0
cpu0->LLC AVERAGE MISS LATENCY: 107.7 cycles

DRAM Statistics

Channel 0 RQ ROW_BUFFER_HIT:        216
  ROW_BUFFER_MISS:     265337
  AVG DBUS CONGESTED CYCLE: 6.019
Channel 0 WQ ROW_BUFFER_HIT:       4240
  ROW_BUFFER_MISS:      36233
  FULL:          0
Channel 0 REFRESHES ISSUED:       1285

[ROI Statistics]
[System Configuration]
num_cpus 1
cpu_freq 4000
fetch_width 6
decode_width 6
dispatch_width 6
execute_width 6
lq_width 2
sq_width 2
retire_width 6
scheduler_size 160
branch_mispredict_penalty 1
rob_size 352
lq_size 240
sq_size 112
ifetch_buffer_size 64
decode_buffer_size 32
dispatch_buffer_size 32
register_file_size 288
decode_latency 1
dispatch_latency 1
schedule_latency 0
execute_latency 0
page_size 4096
block_size 64
core_0_itlb_set 16
core_0_itlb_way 4
core_0_itlb_rq_size 16
core_0_itlb_wq_size 16
core_0_itlb_pq_size 0
core_0_itlb_mshr_size 8
core_0_itlb_hit_latency 1
core_0_itlb_fill_latency 1
core_0_itlb_max_tag_check 2
core_0_itlb_max_fill 2
core_0_dtlb_set 16
core_0_dtlb_way 4
core_0_dtlb_rq_size 16
core_0_dtlb_wq_size 16
core_0_dtlb_pq_size 0
core_0_dtlb_mshr_size 8
core_0_dtlb_hit_latency 1
core_0_dtlb_fill_latency 1
core_0_dtlb_max_tag_check 2
core_0_dtlb_max_fill 2
core_0_stlb_set 128
core_0_stlb_way 12
core_0_stlb_rq_size 32
core_0_stlb_wq_size 32
core_0_stlb_pq_size 0
core_0_stlb_mshr_size 16
core_0_stlb_hit_latency 4
core_0_stlb_fill_latency 4
core_0_stlb_max_tag_check 1
core_0_stlb_max_fill 1
core_0_l1i_set 64
core_0_l1i_way 8
core_0_l1i_rq_size 64
core_0_l1i_wq_size 64
core_0_l1i_pq_size 32
core_0_l1i_mshr_size 8
core_0_l1i_hit_latency 2
core_0_l1i_fill_latency 2
core_0_l1i_max_tag_check 2
core_0_l1i_max_fill 2
core_0_l1d_set 64
core_0_l1d_way 12
core_0_l1d_rq_size 64
core_0_l1d_wq_size 64
core_0_l1d_pq_size 8
core_0_l1d_mshr_size 16
core_0_l1d_hit_latency 2
core_0_l1d_fill_latency 3
core_0_l1d_max_tag_check 2
core_0_l1d_max_fill 2
core_0_l2c_set 1024
core_0_l2c_way 8
core_0_l2c_rq_size 32
core_0_l2c_wq_size 32
core_0_l2c_pq_size 16
core_0_l2c_mshr_size 32
core_0_l2c_hit_latency 5
core_0_l2c_fill_latency 5
core_0_l2c_max_tag_check 1
core_0_l2c_max_fill 1
llc_set 2048
llc_way 16
llc_rq_size 32
llc_wq_size 32
llc_pq_size 32
llc_mshr_size 64
llc_hit_latency 10
llc_fill_latency 10
llc_max_tag_check 1
llc_max_fill 1
dram_channels 1
dram_ranks 1
dram_bankgroups 8
dram_banks 4
dram_rows 16384
dram_columns 1024
dram_channel_width 8
dram_rq_size 64
dram_wq_size 64
dram_size 4294967296
core_0_itlb_prefetcher no
core_0_dtlb_prefetcher no
core_0_stlb_prefetcher no
core_0_l1i_prefetcher next_line
core_0_l1d_prefetcher berti
core_0_l2c_prefetcher pythia
llc_prefetcher no
llc_replacement drrip

Core_0_instructions 50000005
Core_0_cycles 15416231
Core_0_IPC 3.24334
Core_0_branch_prediction_accuracy 99.0945
Core_0_branch_MPKI 0.24094
Core_0_average_ROB_occupancy_at_mispredict 314.706

Core_0_ITLB_total_access 6235715
Core_0_ITLB_total_hit 6235715
Core_0_ITLB_total_miss 0
Core_0_ITLB_total_MPKI 0
Core_0_ITLB_total_miss_rate 0
Core_0_ITLB_demand_access 6235715
Core_0_ITLB_demand_hit 6235715
Core_0_ITLB_demand_miss 0
Core_0_ITLB_demand_MPKI 0
Core_0_ITLB_demand_miss_rate 0
Core_0_ITLB_load_access 6235715
Core_0_ITLB_load_hit 6235715
Core_0_ITLB_load_miss 0
Core_0_ITLB_load_MPKI 0
Core_0_ITLB_load_miss_rate 0
Core_0_ITLB_rfo_access 0
Core_0_ITLB_rfo_hit 0
Core_0_ITLB_rfo_miss 0
Core_0_ITLB_rfo_MPKI 0
Core_0_ITLB_rfo_miss_rate 0
Core_0_ITLB_prefetch_access 0
Core_0_ITLB_prefetch_hit 0
Core_0_ITLB_prefetch_miss 0
Core_0_ITLB_prefetch_MPKI 0
Core_0_ITLB_prefetch_miss_rate 0
Core_0_ITLB_writeback_access 0
Core_0_ITLB_writeback_hit 0
Core_0_ITLB_writeback_miss 0
Core_0_ITLB_writeback_MPKI 0
Core_0_ITLB_writeback_miss_rate 0
Core_0_ITLB_prefetch_requested 0
Core_0_ITLB_prefetch_issued 0
Core_0_ITLB_prefetch_useful 0
Core_0_ITLB_prefetch_useless 0
Core_0_ITLB_prefetch_late 0
Core_0_ITLB_prefetch_accuracy 0
Core_0_ITLB_prefetch_coverage 0

Core_0_DTLB_total_access 13803048
Core_0_DTLB_total_hit 13772211
Core_0_DTLB_total_miss 30837
Core_0_DTLB_total_MPKI 0.61674
Core_0_DTLB_total_miss_rate 0.00223407
Core_0_DTLB_demand_access 13803048
Core_0_DTLB_demand_hit 13772211
Core_0_DTLB_demand_miss 30837
Core_0_DTLB_demand_MPKI 0.61674
Core_0_DTLB_demand_miss_rate 0.00223407
Core_0_DTLB_load_access 13803048
Core_0_DTLB_load_hit 13772211
Core_0_DTLB_load_miss 30837
Core_0_DTLB_load_MPKI 0.61674
Core_0_DTLB_load_miss_rate 0.00223407
Core_0_DTLB_rfo_access 0
Core_0_DTLB_rfo_hit 0
Core_0_DTLB_rfo_miss 0
Core_0_DTLB_rfo_MPKI 0
Core_0_DTLB_rfo_miss_rate 0
Core_0_DTLB_prefetch_access 0
Core_0_DTLB_prefetch_hit 0
Core_0_DTLB_prefetch_miss 0
Core_0_DTLB_prefetch_MPKI 0
Core_0_DTLB_prefetch_miss_rate 0
Core_0_DTLB_writeback_access 0
Core_0_DTLB_writeback_hit 0
Core_0_DTLB_writeback_miss 0
Core_0_DTLB_writeback_MPKI 0
Core_0_DTLB_writeback_miss_rate 0
Core_0_DTLB_prefetch_requested 0
Core_0_DTLB_prefetch_issued 0
Core_0_DTLB_prefetch_useful 0
Core_0_DTLB_prefetch_useless 0
Core_0_DTLB_prefetch_late 0
Core_0_DTLB_prefetch_accuracy 0
Core_0_DTLB_prefetch_coverage 0

Core_0_STLB_total_access 13472
Core_0_STLB_total_hit 11479
Core_0_STLB_total_miss 1993
Core_0_STLB_total_MPKI 0.03986
Core_0_STLB_total_miss_rate 0.147936
Core_0_STLB_demand_access 13472
Core_0_STLB_demand_hit 11479
Core_0_STLB_demand_miss 1993
Core_0_STLB_demand_MPKI 0.03986
Core_0_STLB_demand_miss_rate 0.147936
Core_0_STLB_load_access 13472
Core_0_STLB_load_hit 11479
Core_0_STLB_load_miss 1993
Core_0_STLB_load_MPKI 0.03986
Core_0_STLB_load_miss_rate 0.147936
Core_0_STLB_rfo_access 0
Core_0_STLB_rfo_hit 0
Core_0_STLB_rfo_miss 0
Core_0_STLB_rfo_MPKI 0
Core_0_STLB_rfo_miss_rate 0
Core_0_STLB_prefetch_access 0
Core_0_STLB_prefetch_hit 0
Core_0_STLB_prefetch_miss 0
Core_0_STLB_prefetch_MPKI 0
Core_0_STLB_prefetch_miss_rate 0
Core_0_STLB_writeback_access 0
Core_0_STLB_writeback_hit 0
Core_0_STLB_writeback_miss 0
Core_0_STLB_writeback_MPKI 0
Core_0_STLB_writeback_miss_rate 0
Core_0_STLB_prefetch_requested 0
Core_0_STLB_prefetch_issued 0
Core_0_STLB_prefetch_useful 0
Core_0_STLB_prefetch_useless 0
Core_0_STLB_prefetch_late 0
Core_0_STLB_prefetch_accuracy 0
Core_0_STLB_prefetch_coverage 0

Core_0_L1I_total_access 7322021
Core_0_L1I_total_hit 7322021
Core_0_L1I_total_miss 0
Core_0_L1I_total_MPKI 0
Core_0_L1I_total_miss_rate 0
Core_0_L1I_demand_access 7322021
Core_0_L1I_demand_hit 7322021
Core_0_L1I_demand_miss 0
Core_0_L1I_demand_MPKI 0
Core_0_L1I_demand_miss_rate 0
Core_0_L1I_load_access 7322021
Core_0_L1I_load_hit 7322021
Core_0_L1I_load_miss 0
Core_0_L1I_load_MPKI 0
Core_0_L1I_load_miss_rate 0
Core_0_L1I_rfo_access 0
Core_0_L1I_rfo_hit 0
Core_0_L1I_rfo_miss 0
Core_0_L1I_rfo_MPKI 0
Core_0_L1I_rfo_miss_rate 0
Core_0_L1I_prefetch_access 0
Core_0_L1I_prefetch_hit 0
Core_0_L1I_prefetch_miss 0
Core_0_L1I_prefetch_MPKI 0
Core_0_L1I_prefetch_miss_rate 0
Core_0_L1I_writeback_access 0
Core_0_L1I_writeback_hit 0
Core_0_L1I_writeback_miss 0
Core_0_L1I_writeback_MPKI 0
Core_0_L1I_writeback_miss_rate 0
Core_0_L1I_prefetch_requested 0
Core_0_L1I_prefetch_issued 0
Core_0_L1I_prefetch_useful 0
Core_0_L1I_prefetch_useless 0
Core_0_L1I_prefetch_late 0
Core_0_L1I_prefetch_accuracy 0
Core_0_L1I_prefetch_coverage 0

Core_0_L1D_total_access 14604518
Core_0_L1D_total_hit 13675672
Core_0_L1D_total_miss 928846
Core_0_L1D_total_MPKI 18.5769
Core_0_L1D_total_miss_rate 0.0635999
Core_0_L1D_demand_access 11950727
Core_0_L1D_demand_hit 11846779
Core_0_L1D_demand_miss 103948
Core_0_L1D_demand_MPKI 2.07896
Core_0_L1D_demand_miss_rate 0.00869805
Core_0_L1D_load_access 11950727
Core_0_L1D_load_hit 11846779
Core_0_L1D_load_miss 103948
Core_0_L1D_load_MPKI 2.07896
Core_0_L1D_load_miss_rate 0.00869805
Core_0_L1D_rfo_access 0
Core_0_L1D_rfo_hit 0
Core_0_L1D_rfo_miss 0
Core_0_L1D_rfo_MPKI 0
Core_0_L1D_rfo_miss_rate 0
Core_0_L1D_prefetch_access 573089
Core_0_L1D_prefetch_hit 203163
Core_0_L1D_prefetch_miss 369926
Core_0_L1D_prefetch_MPKI 7.39852
Core_0_L1D_prefetch_miss_rate 0.645495
Core_0_L1D_writeback_access 2080702
Core_0_L1D_writeback_hit 1625730
Core_0_L1D_writeback_miss 454972
Core_0_L1D_writeback_MPKI 9.09944
Core_0_L1D_writeback_miss_rate 0.218663
Core_0_L1D_prefetch_requested 587320
Core_0_L1D_prefetch_issued 573081
Core_0_L1D_prefetch_useful 319075
Core_0_L1D_prefetch_useless 48572
Core_0_L1D_prefetch_late 7652
Core_0_L1D_prefetch_accuracy 0.556771
Core_0_L1D_prefetch_coverage 0.754273

Core_0_L2C_total_access 2845304
Core_0_L2C_total_hit 2338376
Core_0_L2C_total_miss 506928
Core_0_L2C_total_MPKI 10.1386
Core_0_L2C_total_miss_rate 0.178163
Core_0_L2C_demand_access 161926
Core_0_L2C_demand_hit 115075
Core_0_L2C_demand_miss 46851
Core_0_L2C_demand_MPKI 0.93702
Core_0_L2C_demand_miss_rate 0.289336
Core_0_L2C_load_access 66136
Core_0_L2C_load_hit 64501
Core_0_L2C_load_miss 1635
Core_0_L2C_load_MPKI 0.0327
Core_0_L2C_load_miss_rate 0.0247218
Core_0_L2C_rfo_access 95790
Core_0_L2C_rfo_hit 50574
Core_0_L2C_rfo_miss 45216
Core_0_L2C_rfo_MPKI 0.90432
Core_0_L2C_rfo_miss_rate 0.472033
Core_0_L2C_prefetch_access 2534176
Core_0_L2C_prefetch_hit 2074108
Core_0_L2C_prefetch_miss 460068
Core_0_L2C_prefetch_MPKI 9.20136
Core_0_L2C_prefetch_miss_rate 0.181545
Core_0_L2C_writeback_access 149202
Core_0_L2C_writeback_hit 149193
Core_0_L2C_writeback_miss 9
Core_0_L2C_writeback_MPKI 0.00018
Core_0_L2C_writeback_miss_rate 6.03209e-05
Core_0_L2C_prefetch_requested 2267685
Core_0_L2C_prefetch_issued 2166488
Core_0_L2C_prefetch_useful 216339
Core_0_L2C_prefetch_useless 15227
Core_0_L2C_prefetch_late 831
Core_0_L2C_prefetch_accuracy 0.099857
Core_0_L2C_prefetch_coverage 0.821988

Core_0_LLC_total_access 329059
Core_0_LLC_total_hit 25963
Core_0_LLC_total_miss 303096
Core_0_LLC_total_MPKI 6.06192
Core_0_LLC_total_miss_rate 0.921099
Core_0_LLC_demand_access 46020
Core_0_LLC_demand_hit 74
Core_0_LLC_demand_miss 45946
Core_0_LLC_demand_MPKI 0.91892
Core_0_LLC_demand_miss_rate 0.998392
Core_0_LLC_load_access 804
Core_0_LLC_load_hit 73
Core_0_LLC_load_miss 731
Core_0_LLC_load_MPKI 0.01462
Core_0_LLC_load_miss_rate 0.909204
Core_0_LLC_rfo_access 45216
Core_0_LLC_rfo_hit 1
Core_0_LLC_rfo_miss 45215
Core_0_LLC_rfo_MPKI 0.9043
Core_0_LLC_rfo_miss_rate 0.999978
Core_0_LLC_prefetch_access 237815
Core_0_LLC_prefetch_hit 18645
Core_0_LLC_prefetch_miss 219170
Core_0_LLC_prefetch_MPKI 4.3834
Core_0_LLC_prefetch_miss_rate 0.921599
Core_0_LLC_writeback_access 45224
Core_0_LLC_writeback_hit 7244
Core_0_LLC_writeback_miss 37980
Core_0_LLC_writeback_MPKI 0.7596
Core_0_LLC_writeback_miss_rate 0.83982
Core_0_LLC_prefetch_requested 0
Core_0_LLC_prefetch_issued 0
Core_0_LLC_prefetch_useful 0
Core_0_LLC_prefetch_useless 0
Core_0_LLC_prefetch_late 0
Core_0_LLC_prefetch_accuracy 0
Core_0_LLC_prefetch_coverage 0

[DRAM Statistics]
Channel_0_RQ_row_buffer_hit 216
Channel_0_RQ_row_buffer_miss 265337
Channel_0_WQ_row_buffer_hit 4240
Channel_0_WQ_row_buffer_miss 36233
Channel_0_WQ_full 0
Channel_0_dbus_congested 346485
DRAM_total_RQ_row_buffer_hit 216
DRAM_total_RQ_row_buffer_miss 265337
DRAM_total_WQ_row_buffer_hit 4240
DRAM_total_WQ_row_buffer_miss 36233
DRAM_total_WQ_full 0
DRAM_total_dbus_congested 346485
DRAM_avg_congested_cycle 6.01932

======STLB miss causes ========
Core_0_STLB_miss_cause_breakdown
Core_0_STLB_cause_Demand_Data_miss 1993
Core_0_STLB_cause_Demand_Data_miss_rate 0.147936
Core_0_STLB_cause_Demand_Instruction_miss 0
Core_0_STLB_cause_Demand_Instruction_miss_rate 0
Core_0_STLB_cause_L1D_Prefetch_miss 0
Core_0_STLB_cause_L1D_Prefetch_miss_rate 0
Core_0_STLB_cause_L1I_Prefetch_miss 0
Core_0_STLB_cause_L1I_Prefetch_miss_rate 0
Core_0_STLB_cause_Other_miss 0
Core_0_STLB_cause_Other_miss_rate 0
Core_0_STLB_Demand_miss 1993
Core_0_STLB_Demand_miss_rate 0.147936
Core_0_STLB_L1D_Prefetch_miss 0
Core_0_STLB_L1D_Prefetch_miss_rate 0
Core_0_STLB_Other_miss 0
Core_0_STLB_Other_miss_rate 0
