[VMEM] WARNING: physical memory size is smaller than virtual memory size.

*** ChampSim Multicore Out-of-Order Simulator ***
Warmup Instructions: 20000000
Simulation Instructions: 50000000
Number of CPUs: 1
Page size: 4096
STLB ideal mode: l1pref
Core 0: /data0/tzh/champsim_traces/SPEC06/437.leslie3d-271B.champsimtrace.xz
 L1D Berti prefetcher
Off-chip DRAM Size: 4 GiB Channels: 1 Width: 64-bit Data Rate: 3205 MT/s
Warmup halting CPU 0 at instruction 20000004 cycle 4135659 for remainder of phase
Warmup finished CPU 0 instructions: 20000004 cycles: 4135659 cumulative IPC: 4.836 (Simulation time: 00 hr 00 min 51 sec)
Warmup complete CPU 0 instructions: 20000004 cycles: 4135659 cumulative IPC: 4.836 (Simulation time: 00 hr 00 min 51 sec)
Simulation finished CPU 0 instructions: 50000004 cycles: 14063574 cumulative IPC: 3.555 (Simulation time: 00 hr 03 min 46 sec)
Simulation complete CPU 0 instructions: 50000004 cycles: 14063574 cumulative IPC: 3.555 (Simulation time: 00 hr 03 min 46 sec)

ChampSim completed all CPUs

=== Simulation ===
CPU 0 runs /data0/tzh/champsim_traces/SPEC06/437.leslie3d-271B.champsimtrace.xz

Region of Interest Statistics

CPU 0 cumulative IPC: 3.555 instructions: 50000004 cycles: 14063574
CPU 0 Branch Prediction Accuracy: 99.19% MPKI: 0.185 Average ROB Occupancy at Mispredict: 348.7
Branch type MPKI
BRANCH_DIRECT_JUMP: 0.00012
BRANCH_INDIRECT: 0
BRANCH_CONDITIONAL: 0.1849
BRANCH_DIRECT_CALL: 0
BRANCH_INDIRECT_CALL: 0
BRANCH_RETURN: 0

cpu0->cpu0_STLB TOTAL        ACCESS:       5556 HIT:        214 MISS:       5342 MSHR_MERGE:          0
cpu0->cpu0_STLB LOAD         ACCESS:       5556 HIT:        214 MISS:       5342 MSHR_MERGE:          0
cpu0->cpu0_STLB RFO          ACCESS:          0 HIT:          0 MISS:          0 MSHR_MERGE:          0
cpu0->cpu0_STLB PREFETCH     ACCESS:          0 HIT:          0 MISS:          0 MSHR_MERGE:          0
cpu0->cpu0_STLB WRITE        ACCESS:          0 HIT:          0 MISS:          0 MSHR_MERGE:          0
cpu0->cpu0_STLB TRANSLATION  ACCESS:          0 HIT:          0 MISS:          0 MSHR_MERGE:          0
cpu0->cpu0_STLB PREFETCH REQUESTED:          0 ISSUED:          0 USEFUL:          0 USELESS:          0 LATE:          0
cpu0->cpu0_STLB AVERAGE MISS LATENCY: 207.8 cycles
cpu0->cpu0_L2C TOTAL        ACCESS:    1514342 HIT:     599986 MISS:     914356 MSHR_MERGE:     568951
cpu0->cpu0_L2C LOAD         ACCESS:       4950 HIT:       1523 MISS:       3427 MSHR_MERGE:        124
cpu0->cpu0_L2C RFO          ACCESS:     144175 HIT:          0 MISS:     144175 MSHR_MERGE:          0
cpu0->cpu0_L2C PREFETCH     ACCESS:    1220222 HIT:     454174 MISS:     766048 MSHR_MERGE:     568827
cpu0->cpu0_L2C WRITE        ACCESS:     144289 HIT:     144289 MISS:          0 MSHR_MERGE:          0
cpu0->cpu0_L2C TRANSLATION  ACCESS:        706 HIT:          0 MISS:        706 MSHR_MERGE:          0
cpu0->cpu0_L2C PREFETCH REQUESTED:    1025184 ISSUED:    1025177 USEFUL:     149136 USELESS:      37581 LATE:        124
cpu0->cpu0_L2C AVERAGE MISS LATENCY: 311.8 cycles
cpu0->cpu0_L1I TOTAL        ACCESS:    6951401 HIT:    6951389 MISS:         12 MSHR_MERGE:          3
cpu0->cpu0_L1I LOAD         ACCESS:    6951401 HIT:    6951389 MISS:         12 MSHR_MERGE:          3
cpu0->cpu0_L1I RFO          ACCESS:          0 HIT:          0 MISS:          0 MSHR_MERGE:          0
cpu0->cpu0_L1I PREFETCH     ACCESS:          0 HIT:          0 MISS:          0 MSHR_MERGE:          0
cpu0->cpu0_L1I WRITE        ACCESS:          0 HIT:          0 MISS:          0 MSHR_MERGE:          0
cpu0->cpu0_L1I TRANSLATION  ACCESS:          0 HIT:          0 MISS:          0 MSHR_MERGE:          0
cpu0->cpu0_L1I PREFETCH REQUESTED:          0 ISSUED:          0 USEFUL:          0 USELESS:          0 LATE:          0
cpu0->cpu0_L1I AVERAGE MISS LATENCY: 375.3 cycles
cpu0->cpu0_L1D TOTAL        ACCESS:   12021537 HIT:   10681120 MISS:    1340417 MSHR_MERGE:     995546
cpu0->cpu0_L1D LOAD         ACCESS:   10705736 HIT:   10667749 MISS:      37987 MSHR_MERGE:      33046
cpu0->cpu0_L1D RFO          ACCESS:          0 HIT:          0 MISS:          0 MSHR_MERGE:          0
cpu0->cpu0_L1D PREFETCH     ACCESS:     197471 HIT:       1989 MISS:     195482 MSHR_MERGE:        433
cpu0->cpu0_L1D WRITE        ACCESS:    1107636 HIT:       1394 MISS:    1106242 MSHR_MERGE:     962067
cpu0->cpu0_L1D TRANSLATION  ACCESS:      10694 HIT:       9988 MISS:        706 MSHR_MERGE:          0
cpu0->cpu0_L1D PREFETCH REQUESTED:     197464 ISSUED:     197464 USEFUL:     194726 USELESS:        316 LATE:       5928
cpu0->cpu0_L1D AVERAGE MISS LATENCY: 311.9 cycles
cpu0->cpu0_ITLB TOTAL        ACCESS:    6216728 HIT:    6216728 MISS:          0 MSHR_MERGE:          0
cpu0->cpu0_ITLB LOAD         ACCESS:    6216728 HIT:    6216728 MISS:          0 MSHR_MERGE:          0
cpu0->cpu0_ITLB RFO          ACCESS:          0 HIT:          0 MISS:          0 MSHR_MERGE:          0
cpu0->cpu0_ITLB PREFETCH     ACCESS:          0 HIT:          0 MISS:          0 MSHR_MERGE:          0
cpu0->cpu0_ITLB WRITE        ACCESS:          0 HIT:          0 MISS:          0 MSHR_MERGE:          0
cpu0->cpu0_ITLB TRANSLATION  ACCESS:          0 HIT:          0 MISS:          0 MSHR_MERGE:          0
cpu0->cpu0_ITLB PREFETCH REQUESTED:          0 ISSUED:          0 USEFUL:          0 USELESS:          0 LATE:          0
cpu0->cpu0_ITLB AVERAGE MISS LATENCY: - cycles
cpu0->cpu0_DTLB TOTAL        ACCESS:   11043942 HIT:   10996009 MISS:      47933 MSHR_MERGE:      42377
cpu0->cpu0_DTLB LOAD         ACCESS:   11043942 HIT:   10996009 MISS:      47933 MSHR_MERGE:      42377
cpu0->cpu0_DTLB RFO          ACCESS:          0 HIT:          0 MISS:          0 MSHR_MERGE:          0
cpu0->cpu0_DTLB PREFETCH     ACCESS:          0 HIT:          0 MISS:          0 MSHR_MERGE:          0
cpu0->cpu0_DTLB WRITE        ACCESS:          0 HIT:          0 MISS:          0 MSHR_MERGE:          0
cpu0->cpu0_DTLB TRANSLATION  ACCESS:          0 HIT:          0 MISS:          0 MSHR_MERGE:          0
cpu0->cpu0_DTLB PREFETCH REQUESTED:          0 ISSUED:          0 USEFUL:          0 USELESS:          0 LATE:          0
cpu0->cpu0_DTLB AVERAGE MISS LATENCY: 205.8 cycles
cpu0->LLC TOTAL        ACCESS:     490731 HIT:      78461 MISS:     412270 MSHR_MERGE:          0
cpu0->LLC LOAD         ACCESS:       3303 HIT:          4 MISS:       3299 MSHR_MERGE:          0
cpu0->LLC RFO          ACCESS:     144175 HIT:          0 MISS:     144175 MSHR_MERGE:          0
cpu0->LLC PREFETCH     ACCESS:     197221 HIT:        391 MISS:     196830 MSHR_MERGE:          0
cpu0->LLC WRITE        ACCESS:     145326 HIT:      78065 MISS:      67261 MSHR_MERGE:          0
cpu0->LLC TRANSLATION  ACCESS:        706 HIT:          1 MISS:        705 MSHR_MERGE:          0
cpu0->LLC PREFETCH REQUESTED:          0 ISSUED:          0 USEFUL:          0 USELESS:          0 LATE:          0
cpu0->LLC AVERAGE MISS LATENCY: 206.4 cycles

DRAM Statistics

Channel 0 RQ ROW_BUFFER_HIT:       7815
  ROW_BUFFER_MISS:     337181
  AVG DBUS CONGESTED CYCLE: 6.793
Channel 0 WQ ROW_BUFFER_HIT:      18907
  ROW_BUFFER_MISS:     121774
  FULL:          0
Channel 0 REFRESHES ISSUED:       1172

[ROI Statistics]
[System Configuration]
num_cpus 1
cpu_freq 4000
fetch_width 6
decode_width 6
dispatch_width 6
execute_width 6
lq_width 2
sq_width 2
retire_width 6
scheduler_size 160
branch_mispredict_penalty 1
rob_size 352
lq_size 240
sq_size 112
ifetch_buffer_size 64
decode_buffer_size 32
dispatch_buffer_size 32
register_file_size 288
decode_latency 1
dispatch_latency 1
schedule_latency 0
execute_latency 0
page_size 4096
block_size 64
core_0_itlb_set 16
core_0_itlb_way 4
core_0_itlb_rq_size 16
core_0_itlb_wq_size 16
core_0_itlb_pq_size 0
core_0_itlb_mshr_size 8
core_0_itlb_hit_latency 1
core_0_itlb_fill_latency 1
core_0_itlb_max_tag_check 2
core_0_itlb_max_fill 2
core_0_dtlb_set 16
core_0_dtlb_way 4
core_0_dtlb_rq_size 16
core_0_dtlb_wq_size 16
core_0_dtlb_pq_size 0
core_0_dtlb_mshr_size 8
core_0_dtlb_hit_latency 1
core_0_dtlb_fill_latency 1
core_0_dtlb_max_tag_check 2
core_0_dtlb_max_fill 2
core_0_stlb_set 128
core_0_stlb_way 12
core_0_stlb_rq_size 32
core_0_stlb_wq_size 32
core_0_stlb_pq_size 0
core_0_stlb_mshr_size 16
core_0_stlb_hit_latency 4
core_0_stlb_fill_latency 4
core_0_stlb_max_tag_check 1
core_0_stlb_max_fill 1
core_0_l1i_set 64
core_0_l1i_way 8
core_0_l1i_rq_size 64
core_0_l1i_wq_size 64
core_0_l1i_pq_size 32
core_0_l1i_mshr_size 8
core_0_l1i_hit_latency 2
core_0_l1i_fill_latency 2
core_0_l1i_max_tag_check 2
core_0_l1i_max_fill 2
core_0_l1d_set 64
core_0_l1d_way 12
core_0_l1d_rq_size 64
core_0_l1d_wq_size 64
core_0_l1d_pq_size 8
core_0_l1d_mshr_size 16
core_0_l1d_hit_latency 2
core_0_l1d_fill_latency 3
core_0_l1d_max_tag_check 2
core_0_l1d_max_fill 2
core_0_l2c_set 1024
core_0_l2c_way 8
core_0_l2c_rq_size 32
core_0_l2c_wq_size 32
core_0_l2c_pq_size 16
core_0_l2c_mshr_size 32
core_0_l2c_hit_latency 5
core_0_l2c_fill_latency 5
core_0_l2c_max_tag_check 1
core_0_l2c_max_fill 1
llc_set 2048
llc_way 16
llc_rq_size 32
llc_wq_size 32
llc_pq_size 32
llc_mshr_size 64
llc_hit_latency 10
llc_fill_latency 10
llc_max_tag_check 1
llc_max_fill 1
dram_channels 1
dram_ranks 1
dram_bankgroups 8
dram_banks 4
dram_rows 16384
dram_columns 1024
dram_channel_width 8
dram_rq_size 64
dram_wq_size 64
dram_size 4294967296
core_0_itlb_prefetcher no
core_0_dtlb_prefetcher no
core_0_stlb_prefetcher no
core_0_l1i_prefetcher next_line
core_0_l1d_prefetcher berti
core_0_l2c_prefetcher pythia
llc_prefetcher no
llc_replacement drrip

Core_0_instructions 50000004
Core_0_cycles 14063574
Core_0_IPC 3.55528
Core_0_branch_prediction_accuracy 99.1916
Core_0_branch_MPKI 0.18502
Core_0_average_ROB_occupancy_at_mispredict 348.744

Core_0_ITLB_total_access 6216728
Core_0_ITLB_total_hit 6216728
Core_0_ITLB_total_miss 0
Core_0_ITLB_total_MPKI 0
Core_0_ITLB_total_miss_rate 0
Core_0_ITLB_demand_access 6216728
Core_0_ITLB_demand_hit 6216728
Core_0_ITLB_demand_miss 0
Core_0_ITLB_demand_MPKI 0
Core_0_ITLB_demand_miss_rate 0
Core_0_ITLB_load_access 6216728
Core_0_ITLB_load_hit 6216728
Core_0_ITLB_load_miss 0
Core_0_ITLB_load_MPKI 0
Core_0_ITLB_load_miss_rate 0
Core_0_ITLB_rfo_access 0
Core_0_ITLB_rfo_hit 0
Core_0_ITLB_rfo_miss 0
Core_0_ITLB_rfo_MPKI 0
Core_0_ITLB_rfo_miss_rate 0
Core_0_ITLB_prefetch_access 0
Core_0_ITLB_prefetch_hit 0
Core_0_ITLB_prefetch_miss 0
Core_0_ITLB_prefetch_MPKI 0
Core_0_ITLB_prefetch_miss_rate 0
Core_0_ITLB_writeback_access 0
Core_0_ITLB_writeback_hit 0
Core_0_ITLB_writeback_miss 0
Core_0_ITLB_writeback_MPKI 0
Core_0_ITLB_writeback_miss_rate 0
Core_0_ITLB_prefetch_requested 0
Core_0_ITLB_prefetch_issued 0
Core_0_ITLB_prefetch_useful 0
Core_0_ITLB_prefetch_useless 0
Core_0_ITLB_prefetch_late 0
Core_0_ITLB_prefetch_accuracy 0
Core_0_ITLB_prefetch_coverage 0

Core_0_DTLB_total_access 11043942
Core_0_DTLB_total_hit 10996009
Core_0_DTLB_total_miss 47933
Core_0_DTLB_total_MPKI 0.95866
Core_0_DTLB_total_miss_rate 0.00434021
Core_0_DTLB_demand_access 11043942
Core_0_DTLB_demand_hit 10996009
Core_0_DTLB_demand_miss 47933
Core_0_DTLB_demand_MPKI 0.95866
Core_0_DTLB_demand_miss_rate 0.00434021
Core_0_DTLB_load_access 11043942
Core_0_DTLB_load_hit 10996009
Core_0_DTLB_load_miss 47933
Core_0_DTLB_load_MPKI 0.95866
Core_0_DTLB_load_miss_rate 0.00434021
Core_0_DTLB_rfo_access 0
Core_0_DTLB_rfo_hit 0
Core_0_DTLB_rfo_miss 0
Core_0_DTLB_rfo_MPKI 0
Core_0_DTLB_rfo_miss_rate 0
Core_0_DTLB_prefetch_access 0
Core_0_DTLB_prefetch_hit 0
Core_0_DTLB_prefetch_miss 0
Core_0_DTLB_prefetch_MPKI 0
Core_0_DTLB_prefetch_miss_rate 0
Core_0_DTLB_writeback_access 0
Core_0_DTLB_writeback_hit 0
Core_0_DTLB_writeback_miss 0
Core_0_DTLB_writeback_MPKI 0
Core_0_DTLB_writeback_miss_rate 0
Core_0_DTLB_prefetch_requested 0
Core_0_DTLB_prefetch_issued 0
Core_0_DTLB_prefetch_useful 0
Core_0_DTLB_prefetch_useless 0
Core_0_DTLB_prefetch_late 0
Core_0_DTLB_prefetch_accuracy 0
Core_0_DTLB_prefetch_coverage 0

Core_0_STLB_total_access 5556
Core_0_STLB_total_hit 214
Core_0_STLB_total_miss 5342
Core_0_STLB_total_MPKI 0.10684
Core_0_STLB_total_miss_rate 0.961483
Core_0_STLB_demand_access 5556
Core_0_STLB_demand_hit 214
Core_0_STLB_demand_miss 5342
Core_0_STLB_demand_MPKI 0.10684
Core_0_STLB_demand_miss_rate 0.961483
Core_0_STLB_load_access 5556
Core_0_STLB_load_hit 214
Core_0_STLB_load_miss 5342
Core_0_STLB_load_MPKI 0.10684
Core_0_STLB_load_miss_rate 0.961483
Core_0_STLB_rfo_access 0
Core_0_STLB_rfo_hit 0
Core_0_STLB_rfo_miss 0
Core_0_STLB_rfo_MPKI 0
Core_0_STLB_rfo_miss_rate 0
Core_0_STLB_prefetch_access 0
Core_0_STLB_prefetch_hit 0
Core_0_STLB_prefetch_miss 0
Core_0_STLB_prefetch_MPKI 0
Core_0_STLB_prefetch_miss_rate 0
Core_0_STLB_writeback_access 0
Core_0_STLB_writeback_hit 0
Core_0_STLB_writeback_miss 0
Core_0_STLB_writeback_MPKI 0
Core_0_STLB_writeback_miss_rate 0
Core_0_STLB_prefetch_requested 0
Core_0_STLB_prefetch_issued 0
Core_0_STLB_prefetch_useful 0
Core_0_STLB_prefetch_useless 0
Core_0_STLB_prefetch_late 0
Core_0_STLB_prefetch_accuracy 0
Core_0_STLB_prefetch_coverage 0

Core_0_L1I_total_access 6951401
Core_0_L1I_total_hit 6951389
Core_0_L1I_total_miss 12
Core_0_L1I_total_MPKI 0.00024
Core_0_L1I_total_miss_rate 1.72627e-06
Core_0_L1I_demand_access 6951401
Core_0_L1I_demand_hit 6951389
Core_0_L1I_demand_miss 12
Core_0_L1I_demand_MPKI 0.00024
Core_0_L1I_demand_miss_rate 1.72627e-06
Core_0_L1I_load_access 6951401
Core_0_L1I_load_hit 6951389
Core_0_L1I_load_miss 12
Core_0_L1I_load_MPKI 0.00024
Core_0_L1I_load_miss_rate 1.72627e-06
Core_0_L1I_rfo_access 0
Core_0_L1I_rfo_hit 0
Core_0_L1I_rfo_miss 0
Core_0_L1I_rfo_MPKI 0
Core_0_L1I_rfo_miss_rate 0
Core_0_L1I_prefetch_access 0
Core_0_L1I_prefetch_hit 0
Core_0_L1I_prefetch_miss 0
Core_0_L1I_prefetch_MPKI 0
Core_0_L1I_prefetch_miss_rate 0
Core_0_L1I_writeback_access 0
Core_0_L1I_writeback_hit 0
Core_0_L1I_writeback_miss 0
Core_0_L1I_writeback_MPKI 0
Core_0_L1I_writeback_miss_rate 0
Core_0_L1I_prefetch_requested 0
Core_0_L1I_prefetch_issued 0
Core_0_L1I_prefetch_useful 0
Core_0_L1I_prefetch_useless 0
Core_0_L1I_prefetch_late 0
Core_0_L1I_prefetch_accuracy 0
Core_0_L1I_prefetch_coverage 0

Core_0_L1D_total_access 12010843
Core_0_L1D_total_hit 10671132
Core_0_L1D_total_miss 1339711
Core_0_L1D_total_MPKI 26.7942
Core_0_L1D_total_miss_rate 0.111542
Core_0_L1D_demand_access 10705736
Core_0_L1D_demand_hit 10667749
Core_0_L1D_demand_miss 37987
Core_0_L1D_demand_MPKI 0.75974
Core_0_L1D_demand_miss_rate 0.00354828
Core_0_L1D_load_access 10705736
Core_0_L1D_load_hit 10667749
Core_0_L1D_load_miss 37987
Core_0_L1D_load_MPKI 0.75974
Core_0_L1D_load_miss_rate 0.00354828
Core_0_L1D_rfo_access 0
Core_0_L1D_rfo_hit 0
Core_0_L1D_rfo_miss 0
Core_0_L1D_rfo_MPKI 0
Core_0_L1D_rfo_miss_rate 0
Core_0_L1D_prefetch_access 197471
Core_0_L1D_prefetch_hit 1989
Core_0_L1D_prefetch_miss 195482
Core_0_L1D_prefetch_MPKI 3.90964
Core_0_L1D_prefetch_miss_rate 0.989928
Core_0_L1D_writeback_access 1107636
Core_0_L1D_writeback_hit 1394
Core_0_L1D_writeback_miss 1106242
Core_0_L1D_writeback_MPKI 22.1248
Core_0_L1D_writeback_miss_rate 0.998741
Core_0_L1D_prefetch_requested 197464
Core_0_L1D_prefetch_issued 197464
Core_0_L1D_prefetch_useful 194726
Core_0_L1D_prefetch_useless 316
Core_0_L1D_prefetch_late 5928
Core_0_L1D_prefetch_accuracy 0.986134
Core_0_L1D_prefetch_coverage 0.836765

Core_0_L2C_total_access 1513636
Core_0_L2C_total_hit 599986
Core_0_L2C_total_miss 913650
Core_0_L2C_total_MPKI 18.273
Core_0_L2C_total_miss_rate 0.603613
Core_0_L2C_demand_access 149125
Core_0_L2C_demand_hit 1523
Core_0_L2C_demand_miss 147602
Core_0_L2C_demand_MPKI 2.95204
Core_0_L2C_demand_miss_rate 0.989787
Core_0_L2C_load_access 4950
Core_0_L2C_load_hit 1523
Core_0_L2C_load_miss 3427
Core_0_L2C_load_MPKI 0.06854
Core_0_L2C_load_miss_rate 0.692323
Core_0_L2C_rfo_access 144175
Core_0_L2C_rfo_hit 0
Core_0_L2C_rfo_miss 144175
Core_0_L2C_rfo_MPKI 2.8835
Core_0_L2C_rfo_miss_rate 1
Core_0_L2C_prefetch_access 1220222
Core_0_L2C_prefetch_hit 454174
Core_0_L2C_prefetch_miss 766048
Core_0_L2C_prefetch_MPKI 15.321
Core_0_L2C_prefetch_miss_rate 0.627794
Core_0_L2C_writeback_access 144289
Core_0_L2C_writeback_hit 144289
Core_0_L2C_writeback_miss 0
Core_0_L2C_writeback_MPKI 0
Core_0_L2C_writeback_miss_rate 0
Core_0_L2C_prefetch_requested 1025184
Core_0_L2C_prefetch_issued 1025177
Core_0_L2C_prefetch_useful 149136
Core_0_L2C_prefetch_useless 37581
Core_0_L2C_prefetch_late 124
Core_0_L2C_prefetch_accuracy 0.145473
Core_0_L2C_prefetch_coverage 0.502585

Core_0_LLC_total_access 490025
Core_0_LLC_total_hit 78460
Core_0_LLC_total_miss 411565
Core_0_LLC_total_MPKI 8.2313
Core_0_LLC_total_miss_rate 0.839886
Core_0_LLC_demand_access 147478
Core_0_LLC_demand_hit 4
Core_0_LLC_demand_miss 147474
Core_0_LLC_demand_MPKI 2.94948
Core_0_LLC_demand_miss_rate 0.999973
Core_0_LLC_load_access 3303
Core_0_LLC_load_hit 4
Core_0_LLC_load_miss 3299
Core_0_LLC_load_MPKI 0.06598
Core_0_LLC_load_miss_rate 0.998789
Core_0_LLC_rfo_access 144175
Core_0_LLC_rfo_hit 0
Core_0_LLC_rfo_miss 144175
Core_0_LLC_rfo_MPKI 2.8835
Core_0_LLC_rfo_miss_rate 1
Core_0_LLC_prefetch_access 197221
Core_0_LLC_prefetch_hit 391
Core_0_LLC_prefetch_miss 196830
Core_0_LLC_prefetch_MPKI 3.9366
Core_0_LLC_prefetch_miss_rate 0.998017
Core_0_LLC_writeback_access 145326
Core_0_LLC_writeback_hit 78065
Core_0_LLC_writeback_miss 67261
Core_0_LLC_writeback_MPKI 1.34522
Core_0_LLC_writeback_miss_rate 0.462828
Core_0_LLC_prefetch_requested 0
Core_0_LLC_prefetch_issued 0
Core_0_LLC_prefetch_useful 0
Core_0_LLC_prefetch_useless 0
Core_0_LLC_prefetch_late 0
Core_0_LLC_prefetch_accuracy 0
Core_0_LLC_prefetch_coverage 0

[DRAM Statistics]
Channel_0_RQ_row_buffer_hit 7815
Channel_0_RQ_row_buffer_miss 337181
Channel_0_WQ_row_buffer_hit 18907
Channel_0_WQ_row_buffer_miss 121774
Channel_0_WQ_full 0
Channel_0_dbus_congested 1282716
DRAM_total_RQ_row_buffer_hit 7815
DRAM_total_RQ_row_buffer_miss 337181
DRAM_total_WQ_row_buffer_hit 18907
DRAM_total_WQ_row_buffer_miss 121774
DRAM_total_WQ_full 0
DRAM_total_dbus_congested 1282716
DRAM_avg_congested_cycle 6.79267

======STLB miss causes ========
Core_0_STLB_miss_cause_breakdown
Core_0_STLB_cause_Demand_Data_miss 5342
Core_0_STLB_cause_Demand_Data_miss_rate 0.961483
Core_0_STLB_cause_Demand_Instruction_miss 0
Core_0_STLB_cause_Demand_Instruction_miss_rate 0
Core_0_STLB_cause_L1D_Prefetch_miss 0
Core_0_STLB_cause_L1D_Prefetch_miss_rate 0
Core_0_STLB_cause_L1I_Prefetch_miss 0
Core_0_STLB_cause_L1I_Prefetch_miss_rate 0
Core_0_STLB_cause_Other_miss 0
Core_0_STLB_cause_Other_miss_rate 0
Core_0_STLB_Demand_miss 5342
Core_0_STLB_Demand_miss_rate 0.961483
Core_0_STLB_L1D_Prefetch_miss 0
Core_0_STLB_L1D_Prefetch_miss_rate 0
Core_0_STLB_Other_miss 0
Core_0_STLB_Other_miss_rate 0
