[VMEM] WARNING: physical memory size is smaller than virtual memory size.

*** ChampSim Multicore Out-of-Order Simulator ***
Warmup Instructions: 20000000
Simulation Instructions: 50000000
Number of CPUs: 1
Page size: 4096
STLB ideal mode: l1pref
Core 0: /data0/tzh/champsim_traces/SPEC06/473.astar-359B.champsimtrace.xz
 L1D Berti prefetcher
Off-chip DRAM Size: 4 GiB Channels: 1 Width: 64-bit Data Rate: 3205 MT/s
Warmup halting CPU 0 at instruction 20000005 cycle 6347890 for remainder of phase
Warmup finished CPU 0 instructions: 20000005 cycles: 6347890 cumulative IPC: 3.151 (Simulation time: 00 hr 01 min 29 sec)
Warmup complete CPU 0 instructions: 20000005 cycles: 6347890 cumulative IPC: 3.151 (Simulation time: 00 hr 01 min 29 sec)
Simulation finished CPU 0 instructions: 50000004 cycles: 214377782 cumulative IPC: 0.2332 (Simulation time: 00 hr 20 min 08 sec)
Simulation complete CPU 0 instructions: 50000004 cycles: 214377782 cumulative IPC: 0.2332 (Simulation time: 00 hr 20 min 08 sec)

ChampSim completed all CPUs

=== Simulation ===
CPU 0 runs /data0/tzh/champsim_traces/SPEC06/473.astar-359B.champsimtrace.xz

Region of Interest Statistics

CPU 0 cumulative IPC: 0.2332 instructions: 50000004 cycles: 214377782
CPU 0 Branch Prediction Accuracy: 91.73% MPKI: 16.32 Average ROB Occupancy at Mispredict: 35.24
Branch type MPKI
BRANCH_DIRECT_JUMP: 0
BRANCH_INDIRECT: 0
BRANCH_CONDITIONAL: 16.32
BRANCH_DIRECT_CALL: 0
BRANCH_INDIRECT_CALL: 0.00054
BRANCH_RETURN: 0

cpu0->cpu0_STLB TOTAL        ACCESS:    1674184 HIT:     878214 MISS:     795970 MSHR_MERGE:          0
cpu0->cpu0_STLB LOAD         ACCESS:    1674184 HIT:     878214 MISS:     795970 MSHR_MERGE:          0
cpu0->cpu0_STLB RFO          ACCESS:          0 HIT:          0 MISS:          0 MSHR_MERGE:          0
cpu0->cpu0_STLB PREFETCH     ACCESS:          0 HIT:          0 MISS:          0 MSHR_MERGE:          0
cpu0->cpu0_STLB WRITE        ACCESS:          0 HIT:          0 MISS:          0 MSHR_MERGE:          0
cpu0->cpu0_STLB TRANSLATION  ACCESS:          0 HIT:          0 MISS:          0 MSHR_MERGE:          0
cpu0->cpu0_STLB PREFETCH REQUESTED:          0 ISSUED:          0 USEFUL:          0 USELESS:          0 LATE:          0
cpu0->cpu0_STLB AVERAGE MISS LATENCY: 176.2 cycles
cpu0->cpu0_L2C TOTAL        ACCESS:    6990826 HIT:    3906021 MISS:    3084805 MSHR_MERGE:     280901
cpu0->cpu0_L2C LOAD         ACCESS:    1613619 HIT:     956033 MISS:     657586 MSHR_MERGE:      10909
cpu0->cpu0_L2C RFO          ACCESS:     765430 HIT:      47807 MISS:     717623 MSHR_MERGE:          0
cpu0->cpu0_L2C PREFETCH     ACCESS:    3003278 HIT:    1495410 MISS:    1507868 MSHR_MERGE:     269992
cpu0->cpu0_L2C WRITE        ACCESS:    1167768 HIT:    1167701 MISS:         67 MSHR_MERGE:          0
cpu0->cpu0_L2C TRANSLATION  ACCESS:     440731 HIT:     239070 MISS:     201661 MSHR_MERGE:          0
cpu0->cpu0_L2C PREFETCH REQUESTED:    2585091 ISSUED:    2560376 USEFUL:     370286 USELESS:     674610 LATE:      10909
cpu0->cpu0_L2C AVERAGE MISS LATENCY: 332.8 cycles
cpu0->cpu0_L1I TOTAL        ACCESS:     686880 HIT:     686873 MISS:          7 MSHR_MERGE:          0
cpu0->cpu0_L1I LOAD         ACCESS:     686880 HIT:     686873 MISS:          7 MSHR_MERGE:          0
cpu0->cpu0_L1I RFO          ACCESS:          0 HIT:          0 MISS:          0 MSHR_MERGE:          0
cpu0->cpu0_L1I PREFETCH     ACCESS:          0 HIT:          0 MISS:          0 MSHR_MERGE:          0
cpu0->cpu0_L1I WRITE        ACCESS:          0 HIT:          0 MISS:          0 MSHR_MERGE:          0
cpu0->cpu0_L1I TRANSLATION  ACCESS:          0 HIT:          0 MISS:          0 MSHR_MERGE:          0
cpu0->cpu0_L1I PREFETCH REQUESTED:          0 ISSUED:          0 USEFUL:          0 USELESS:          0 LATE:          0
cpu0->cpu0_L1I AVERAGE MISS LATENCY: 259.7 cycles
cpu0->cpu0_L1D TOTAL        ACCESS:   22506957 HIT:   18568384 MISS:    3938573 MSHR_MERGE:     675893
cpu0->cpu0_L1D LOAD         ACCESS:   14140751 HIT:   11963539 MISS:    2177212 MSHR_MERGE:     563598
cpu0->cpu0_L1D RFO          ACCESS:          0 HIT:          0 MISS:          0 MSHR_MERGE:          0
cpu0->cpu0_L1D PREFETCH     ACCESS:     573299 HIT:     107570 MISS:     465729 MSHR_MERGE:      22824
cpu0->cpu0_L1D WRITE        ACCESS:    6315590 HIT:    5550054 MISS:     765536 MSHR_MERGE:        106
cpu0->cpu0_L1D TRANSLATION  ACCESS:    1477317 HIT:     947221 MISS:     530096 MSHR_MERGE:      89365
cpu0->cpu0_L1D PREFETCH REQUESTED:     602424 ISSUED:     573306 USEFUL:     131358 USELESS:     311642 LATE:       6235
cpu0->cpu0_L1D AVERAGE MISS LATENCY: 194.9 cycles
cpu0->cpu0_ITLB TOTAL        ACCESS:     686878 HIT:     686878 MISS:          0 MSHR_MERGE:          0
cpu0->cpu0_ITLB LOAD         ACCESS:     686878 HIT:     686878 MISS:          0 MSHR_MERGE:          0
cpu0->cpu0_ITLB RFO          ACCESS:          0 HIT:          0 MISS:          0 MSHR_MERGE:          0
cpu0->cpu0_ITLB PREFETCH     ACCESS:          0 HIT:          0 MISS:          0 MSHR_MERGE:          0
cpu0->cpu0_ITLB WRITE        ACCESS:          0 HIT:          0 MISS:          0 MSHR_MERGE:          0
cpu0->cpu0_ITLB TRANSLATION  ACCESS:          0 HIT:          0 MISS:          0 MSHR_MERGE:          0
cpu0->cpu0_ITLB PREFETCH REQUESTED:          0 ISSUED:          0 USEFUL:          0 USELESS:          0 LATE:          0
cpu0->cpu0_ITLB AVERAGE MISS LATENCY: - cycles
cpu0->cpu0_DTLB TOTAL        ACCESS:   20400329 HIT:   18082326 MISS:    2318003 MSHR_MERGE:     643819
cpu0->cpu0_DTLB LOAD         ACCESS:   20400329 HIT:   18082326 MISS:    2318003 MSHR_MERGE:     643819
cpu0->cpu0_DTLB RFO          ACCESS:          0 HIT:          0 MISS:          0 MSHR_MERGE:          0
cpu0->cpu0_DTLB PREFETCH     ACCESS:          0 HIT:          0 MISS:          0 MSHR_MERGE:          0
cpu0->cpu0_DTLB WRITE        ACCESS:          0 HIT:          0 MISS:          0 MSHR_MERGE:          0
cpu0->cpu0_DTLB TRANSLATION  ACCESS:          0 HIT:          0 MISS:          0 MSHR_MERGE:          0
cpu0->cpu0_DTLB PREFETCH REQUESTED:          0 ISSUED:          0 USEFUL:          0 USELESS:          0 LATE:          0
cpu0->cpu0_DTLB AVERAGE MISS LATENCY: 89.26 cycles
cpu0->LLC TOTAL        ACCESS:    3918721 HIT:     681864 MISS:    3236857 MSHR_MERGE:          0
cpu0->LLC LOAD         ACCESS:     646677 HIT:      63525 MISS:     583152 MSHR_MERGE:          0
cpu0->LLC RFO          ACCESS:     717623 HIT:      98922 MISS:     618701 MSHR_MERGE:          0
cpu0->LLC PREFETCH     ACCESS:    1237876 HIT:      59086 MISS:    1178790 MSHR_MERGE:          0
cpu0->LLC WRITE        ACCESS:    1114884 HIT:     332759 MISS:     782125 MSHR_MERGE:          0
cpu0->LLC TRANSLATION  ACCESS:     201661 HIT:     127572 MISS:      74089 MSHR_MERGE:          0
cpu0->LLC PREFETCH REQUESTED:          0 ISSUED:          0 USEFUL:          0 USELESS:          0 LATE:          0
cpu0->LLC AVERAGE MISS LATENCY: 244.8 cycles

DRAM Statistics

Channel 0 RQ ROW_BUFFER_HIT:      64836
  ROW_BUFFER_MISS:    2389323
  AVG DBUS CONGESTED CYCLE: 8.687
Channel 0 WQ ROW_BUFFER_HIT:     225737
  ROW_BUFFER_MISS:     753936
  FULL:       1259
Channel 0 REFRESHES ISSUED:      17865

[ROI Statistics]
[System Configuration]
num_cpus 1
cpu_freq 4000
fetch_width 6
decode_width 6
dispatch_width 6
execute_width 6
lq_width 2
sq_width 2
retire_width 6
scheduler_size 160
branch_mispredict_penalty 1
rob_size 352
lq_size 240
sq_size 112
ifetch_buffer_size 64
decode_buffer_size 32
dispatch_buffer_size 32
register_file_size 288
decode_latency 1
dispatch_latency 1
schedule_latency 0
execute_latency 0
page_size 4096
block_size 64
core_0_itlb_set 16
core_0_itlb_way 4
core_0_itlb_rq_size 16
core_0_itlb_wq_size 16
core_0_itlb_pq_size 0
core_0_itlb_mshr_size 8
core_0_itlb_hit_latency 1
core_0_itlb_fill_latency 1
core_0_itlb_max_tag_check 2
core_0_itlb_max_fill 2
core_0_dtlb_set 16
core_0_dtlb_way 4
core_0_dtlb_rq_size 16
core_0_dtlb_wq_size 16
core_0_dtlb_pq_size 0
core_0_dtlb_mshr_size 8
core_0_dtlb_hit_latency 1
core_0_dtlb_fill_latency 1
core_0_dtlb_max_tag_check 2
core_0_dtlb_max_fill 2
core_0_stlb_set 128
core_0_stlb_way 12
core_0_stlb_rq_size 32
core_0_stlb_wq_size 32
core_0_stlb_pq_size 0
core_0_stlb_mshr_size 16
core_0_stlb_hit_latency 4
core_0_stlb_fill_latency 4
core_0_stlb_max_tag_check 1
core_0_stlb_max_fill 1
core_0_l1i_set 64
core_0_l1i_way 8
core_0_l1i_rq_size 64
core_0_l1i_wq_size 64
core_0_l1i_pq_size 32
core_0_l1i_mshr_size 8
core_0_l1i_hit_latency 2
core_0_l1i_fill_latency 2
core_0_l1i_max_tag_check 2
core_0_l1i_max_fill 2
core_0_l1d_set 64
core_0_l1d_way 12
core_0_l1d_rq_size 64
core_0_l1d_wq_size 64
core_0_l1d_pq_size 8
core_0_l1d_mshr_size 16
core_0_l1d_hit_latency 2
core_0_l1d_fill_latency 3
core_0_l1d_max_tag_check 2
core_0_l1d_max_fill 2
core_0_l2c_set 1024
core_0_l2c_way 8
core_0_l2c_rq_size 32
core_0_l2c_wq_size 32
core_0_l2c_pq_size 16
core_0_l2c_mshr_size 32
core_0_l2c_hit_latency 5
core_0_l2c_fill_latency 5
core_0_l2c_max_tag_check 1
core_0_l2c_max_fill 1
llc_set 2048
llc_way 16
llc_rq_size 32
llc_wq_size 32
llc_pq_size 32
llc_mshr_size 64
llc_hit_latency 10
llc_fill_latency 10
llc_max_tag_check 1
llc_max_fill 1
dram_channels 1
dram_ranks 1
dram_bankgroups 8
dram_banks 4
dram_rows 16384
dram_columns 1024
dram_channel_width 8
dram_rq_size 64
dram_wq_size 64
dram_size 4294967296
core_0_itlb_prefetcher no
core_0_dtlb_prefetcher no
core_0_stlb_prefetcher no
core_0_l1i_prefetcher next_line
core_0_l1d_prefetcher berti
core_0_l2c_prefetcher pythia
llc_prefetcher no
llc_replacement drrip

Core_0_instructions 50000004
Core_0_cycles 214377782
Core_0_IPC 0.233233
Core_0_branch_prediction_accuracy 91.7283
Core_0_branch_MPKI 16.3208
Core_0_average_ROB_occupancy_at_mispredict 35.2439

Core_0_ITLB_total_access 686878
Core_0_ITLB_total_hit 686878
Core_0_ITLB_total_miss 0
Core_0_ITLB_total_MPKI 0
Core_0_ITLB_total_miss_rate 0
Core_0_ITLB_demand_access 686878
Core_0_ITLB_demand_hit 686878
Core_0_ITLB_demand_miss 0
Core_0_ITLB_demand_MPKI 0
Core_0_ITLB_demand_miss_rate 0
Core_0_ITLB_load_access 686878
Core_0_ITLB_load_hit 686878
Core_0_ITLB_load_miss 0
Core_0_ITLB_load_MPKI 0
Core_0_ITLB_load_miss_rate 0
Core_0_ITLB_rfo_access 0
Core_0_ITLB_rfo_hit 0
Core_0_ITLB_rfo_miss 0
Core_0_ITLB_rfo_MPKI 0
Core_0_ITLB_rfo_miss_rate 0
Core_0_ITLB_prefetch_access 0
Core_0_ITLB_prefetch_hit 0
Core_0_ITLB_prefetch_miss 0
Core_0_ITLB_prefetch_MPKI 0
Core_0_ITLB_prefetch_miss_rate 0
Core_0_ITLB_writeback_access 0
Core_0_ITLB_writeback_hit 0
Core_0_ITLB_writeback_miss 0
Core_0_ITLB_writeback_MPKI 0
Core_0_ITLB_writeback_miss_rate 0
Core_0_ITLB_prefetch_requested 0
Core_0_ITLB_prefetch_issued 0
Core_0_ITLB_prefetch_useful 0
Core_0_ITLB_prefetch_useless 0
Core_0_ITLB_prefetch_late 0
Core_0_ITLB_prefetch_accuracy 0
Core_0_ITLB_prefetch_coverage 0

Core_0_DTLB_total_access 20400329
Core_0_DTLB_total_hit 18082326
Core_0_DTLB_total_miss 2318003
Core_0_DTLB_total_MPKI 46.3601
Core_0_DTLB_total_miss_rate 0.113626
Core_0_DTLB_demand_access 20400329
Core_0_DTLB_demand_hit 18082326
Core_0_DTLB_demand_miss 2318003
Core_0_DTLB_demand_MPKI 46.3601
Core_0_DTLB_demand_miss_rate 0.113626
Core_0_DTLB_load_access 20400329
Core_0_DTLB_load_hit 18082326
Core_0_DTLB_load_miss 2318003
Core_0_DTLB_load_MPKI 46.3601
Core_0_DTLB_load_miss_rate 0.113626
Core_0_DTLB_rfo_access 0
Core_0_DTLB_rfo_hit 0
Core_0_DTLB_rfo_miss 0
Core_0_DTLB_rfo_MPKI 0
Core_0_DTLB_rfo_miss_rate 0
Core_0_DTLB_prefetch_access 0
Core_0_DTLB_prefetch_hit 0
Core_0_DTLB_prefetch_miss 0
Core_0_DTLB_prefetch_MPKI 0
Core_0_DTLB_prefetch_miss_rate 0
Core_0_DTLB_writeback_access 0
Core_0_DTLB_writeback_hit 0
Core_0_DTLB_writeback_miss 0
Core_0_DTLB_writeback_MPKI 0
Core_0_DTLB_writeback_miss_rate 0
Core_0_DTLB_prefetch_requested 0
Core_0_DTLB_prefetch_issued 0
Core_0_DTLB_prefetch_useful 0
Core_0_DTLB_prefetch_useless 0
Core_0_DTLB_prefetch_late 0
Core_0_DTLB_prefetch_accuracy 0
Core_0_DTLB_prefetch_coverage 0

Core_0_STLB_total_access 1674184
Core_0_STLB_total_hit 878214
Core_0_STLB_total_miss 795970
Core_0_STLB_total_MPKI 15.9194
Core_0_STLB_total_miss_rate 0.475438
Core_0_STLB_demand_access 1674184
Core_0_STLB_demand_hit 878214
Core_0_STLB_demand_miss 795970
Core_0_STLB_demand_MPKI 15.9194
Core_0_STLB_demand_miss_rate 0.475438
Core_0_STLB_load_access 1674184
Core_0_STLB_load_hit 878214
Core_0_STLB_load_miss 795970
Core_0_STLB_load_MPKI 15.9194
Core_0_STLB_load_miss_rate 0.475438
Core_0_STLB_rfo_access 0
Core_0_STLB_rfo_hit 0
Core_0_STLB_rfo_miss 0
Core_0_STLB_rfo_MPKI 0
Core_0_STLB_rfo_miss_rate 0
Core_0_STLB_prefetch_access 0
Core_0_STLB_prefetch_hit 0
Core_0_STLB_prefetch_miss 0
Core_0_STLB_prefetch_MPKI 0
Core_0_STLB_prefetch_miss_rate 0
Core_0_STLB_writeback_access 0
Core_0_STLB_writeback_hit 0
Core_0_STLB_writeback_miss 0
Core_0_STLB_writeback_MPKI 0
Core_0_STLB_writeback_miss_rate 0
Core_0_STLB_prefetch_requested 0
Core_0_STLB_prefetch_issued 0
Core_0_STLB_prefetch_useful 0
Core_0_STLB_prefetch_useless 0
Core_0_STLB_prefetch_late 0
Core_0_STLB_prefetch_accuracy 0
Core_0_STLB_prefetch_coverage 0

Core_0_L1I_total_access 686880
Core_0_L1I_total_hit 686873
Core_0_L1I_total_miss 7
Core_0_L1I_total_MPKI 0.00014
Core_0_L1I_total_miss_rate 1.0191e-05
Core_0_L1I_demand_access 686880
Core_0_L1I_demand_hit 686873
Core_0_L1I_demand_miss 7
Core_0_L1I_demand_MPKI 0.00014
Core_0_L1I_demand_miss_rate 1.0191e-05
Core_0_L1I_load_access 686880
Core_0_L1I_load_hit 686873
Core_0_L1I_load_miss 7
Core_0_L1I_load_MPKI 0.00014
Core_0_L1I_load_miss_rate 1.0191e-05
Core_0_L1I_rfo_access 0
Core_0_L1I_rfo_hit 0
Core_0_L1I_rfo_miss 0
Core_0_L1I_rfo_MPKI 0
Core_0_L1I_rfo_miss_rate 0
Core_0_L1I_prefetch_access 0
Core_0_L1I_prefetch_hit 0
Core_0_L1I_prefetch_miss 0
Core_0_L1I_prefetch_MPKI 0
Core_0_L1I_prefetch_miss_rate 0
Core_0_L1I_writeback_access 0
Core_0_L1I_writeback_hit 0
Core_0_L1I_writeback_miss 0
Core_0_L1I_writeback_MPKI 0
Core_0_L1I_writeback_miss_rate 0
Core_0_L1I_prefetch_requested 0
Core_0_L1I_prefetch_issued 0
Core_0_L1I_prefetch_useful 0
Core_0_L1I_prefetch_useless 0
Core_0_L1I_prefetch_late 0
Core_0_L1I_prefetch_accuracy 0
Core_0_L1I_prefetch_coverage 0

Core_0_L1D_total_access 21029640
Core_0_L1D_total_hit 17621163
Core_0_L1D_total_miss 3408477
Core_0_L1D_total_MPKI 68.1695
Core_0_L1D_total_miss_rate 0.16208
Core_0_L1D_demand_access 14140751
Core_0_L1D_demand_hit 11963539
Core_0_L1D_demand_miss 2177212
Core_0_L1D_demand_MPKI 43.5442
Core_0_L1D_demand_miss_rate 0.153967
Core_0_L1D_load_access 14140751
Core_0_L1D_load_hit 11963539
Core_0_L1D_load_miss 2177212
Core_0_L1D_load_MPKI 43.5442
Core_0_L1D_load_miss_rate 0.153967
Core_0_L1D_rfo_access 0
Core_0_L1D_rfo_hit 0
Core_0_L1D_rfo_miss 0
Core_0_L1D_rfo_MPKI 0
Core_0_L1D_rfo_miss_rate 0
Core_0_L1D_prefetch_access 573299
Core_0_L1D_prefetch_hit 107570
Core_0_L1D_prefetch_miss 465729
Core_0_L1D_prefetch_MPKI 9.31458
Core_0_L1D_prefetch_miss_rate 0.812367
Core_0_L1D_writeback_access 6315590
Core_0_L1D_writeback_hit 5550054
Core_0_L1D_writeback_miss 765536
Core_0_L1D_writeback_MPKI 15.3107
Core_0_L1D_writeback_miss_rate 0.121214
Core_0_L1D_prefetch_requested 602424
Core_0_L1D_prefetch_issued 573306
Core_0_L1D_prefetch_useful 131358
Core_0_L1D_prefetch_useless 311642
Core_0_L1D_prefetch_late 6235
Core_0_L1D_prefetch_accuracy 0.229124
Core_0_L1D_prefetch_coverage 0.0569002

Core_0_L2C_total_access 6550095
Core_0_L2C_total_hit 3666951
Core_0_L2C_total_miss 2883144
Core_0_L2C_total_MPKI 57.6629
Core_0_L2C_total_miss_rate 0.440168
Core_0_L2C_demand_access 2379049
Core_0_L2C_demand_hit 1003840
Core_0_L2C_demand_miss 1375209
Core_0_L2C_demand_MPKI 27.5042
Core_0_L2C_demand_miss_rate 0.57805
Core_0_L2C_load_access 1613619
Core_0_L2C_load_hit 956033
Core_0_L2C_load_miss 657586
Core_0_L2C_load_MPKI 13.1517
Core_0_L2C_load_miss_rate 0.407522
Core_0_L2C_rfo_access 765430
Core_0_L2C_rfo_hit 47807
Core_0_L2C_rfo_miss 717623
Core_0_L2C_rfo_MPKI 14.3525
Core_0_L2C_rfo_miss_rate 0.937542
Core_0_L2C_prefetch_access 3003278
Core_0_L2C_prefetch_hit 1495410
Core_0_L2C_prefetch_miss 1507868
Core_0_L2C_prefetch_MPKI 30.1574
Core_0_L2C_prefetch_miss_rate 0.502074
Core_0_L2C_writeback_access 1167768
Core_0_L2C_writeback_hit 1167701
Core_0_L2C_writeback_miss 67
Core_0_L2C_writeback_MPKI 0.00134
Core_0_L2C_writeback_miss_rate 5.73744e-05
Core_0_L2C_prefetch_requested 2585091
Core_0_L2C_prefetch_issued 2560376
Core_0_L2C_prefetch_useful 370286
Core_0_L2C_prefetch_useless 674610
Core_0_L2C_prefetch_late 10909
Core_0_L2C_prefetch_accuracy 0.144622
Core_0_L2C_prefetch_coverage 0.212138

Core_0_LLC_total_access 3717060
Core_0_LLC_total_hit 554292
Core_0_LLC_total_miss 3162768
Core_0_LLC_total_MPKI 63.2554
Core_0_LLC_total_miss_rate 0.850879
Core_0_LLC_demand_access 1364300
Core_0_LLC_demand_hit 162447
Core_0_LLC_demand_miss 1201853
Core_0_LLC_demand_MPKI 24.0371
Core_0_LLC_demand_miss_rate 0.88093
Core_0_LLC_load_access 646677
Core_0_LLC_load_hit 63525
Core_0_LLC_load_miss 583152
Core_0_LLC_load_MPKI 11.663
Core_0_LLC_load_miss_rate 0.901767
Core_0_LLC_rfo_access 717623
Core_0_LLC_rfo_hit 98922
Core_0_LLC_rfo_miss 618701
Core_0_LLC_rfo_MPKI 12.374
Core_0_LLC_rfo_miss_rate 0.862153
Core_0_LLC_prefetch_access 1237876
Core_0_LLC_prefetch_hit 59086
Core_0_LLC_prefetch_miss 1178790
Core_0_LLC_prefetch_MPKI 23.5758
Core_0_LLC_prefetch_miss_rate 0.952268
Core_0_LLC_writeback_access 1114884
Core_0_LLC_writeback_hit 332759
Core_0_LLC_writeback_miss 782125
Core_0_LLC_writeback_MPKI 15.6425
Core_0_LLC_writeback_miss_rate 0.70153
Core_0_LLC_prefetch_requested 0
Core_0_LLC_prefetch_issued 0
Core_0_LLC_prefetch_useful 0
Core_0_LLC_prefetch_useless 0
Core_0_LLC_prefetch_late 0
Core_0_LLC_prefetch_accuracy 0
Core_0_LLC_prefetch_coverage 0

[DRAM Statistics]
Channel_0_RQ_row_buffer_hit 64836
Channel_0_RQ_row_buffer_miss 2389323
Channel_0_WQ_row_buffer_hit 225737
Channel_0_WQ_row_buffer_miss 753936
Channel_0_WQ_full 1259
Channel_0_dbus_congested 10717828
DRAM_total_RQ_row_buffer_hit 64836
DRAM_total_RQ_row_buffer_miss 2389323
DRAM_total_WQ_row_buffer_hit 225737
DRAM_total_WQ_row_buffer_miss 753936
DRAM_total_WQ_full 1259
DRAM_total_dbus_congested 10717828
DRAM_avg_congested_cycle 8.68673

======STLB miss causes ========
Core_0_STLB_miss_cause_breakdown
Core_0_STLB_cause_Demand_Data_miss 795970
Core_0_STLB_cause_Demand_Data_miss_rate 0.475438
Core_0_STLB_cause_Demand_Instruction_miss 0
Core_0_STLB_cause_Demand_Instruction_miss_rate 0
Core_0_STLB_cause_L1D_Prefetch_miss 0
Core_0_STLB_cause_L1D_Prefetch_miss_rate 0
Core_0_STLB_cause_L1I_Prefetch_miss 0
Core_0_STLB_cause_L1I_Prefetch_miss_rate 0
Core_0_STLB_cause_Other_miss 0
Core_0_STLB_cause_Other_miss_rate 0
Core_0_STLB_Demand_miss 795970
Core_0_STLB_Demand_miss_rate 0.475438
Core_0_STLB_L1D_Prefetch_miss 0
Core_0_STLB_L1D_Prefetch_miss_rate 0
Core_0_STLB_Other_miss 0
Core_0_STLB_Other_miss_rate 0
