[VMEM] WARNING: physical memory size is smaller than virtual memory size.

*** ChampSim Multicore Out-of-Order Simulator ***
Warmup Instructions: 20000000
Simulation Instructions: 50000000
Number of CPUs: 1
Page size: 4096
STLB ideal mode: l1pref
Core 0: /data0/tzh/champsim_traces/SPEC17/603.bwaves_s-2609B.champsimtrace.xz
 L1D Berti prefetcher
Off-chip DRAM Size: 4 GiB Channels: 1 Width: 64-bit Data Rate: 3205 MT/s
Warmup halting CPU 0 at instruction 20000004 cycle 4243951 for remainder of phase
Warmup finished CPU 0 instructions: 20000004 cycles: 4243951 cumulative IPC: 4.713 (Simulation time: 00 hr 01 min 04 sec)
Warmup complete CPU 0 instructions: 20000004 cycles: 4243951 cumulative IPC: 4.713 (Simulation time: 00 hr 01 min 04 sec)
Simulation finished CPU 0 instructions: 50000003 cycles: 19419487 cumulative IPC: 2.575 (Simulation time: 00 hr 04 min 50 sec)
Simulation complete CPU 0 instructions: 50000003 cycles: 19419487 cumulative IPC: 2.575 (Simulation time: 00 hr 04 min 50 sec)

ChampSim completed all CPUs

=== Simulation ===
CPU 0 runs /data0/tzh/champsim_traces/SPEC17/603.bwaves_s-2609B.champsimtrace.xz

Region of Interest Statistics

CPU 0 cumulative IPC: 2.575 instructions: 50000003 cycles: 19419487
CPU 0 Branch Prediction Accuracy: 81.23% MPKI: 4.685 Average ROB Occupancy at Mispredict: 254
Branch type MPKI
BRANCH_DIRECT_JUMP: 0
BRANCH_INDIRECT: 0
BRANCH_CONDITIONAL: 4.685
BRANCH_DIRECT_CALL: 0
BRANCH_INDIRECT_CALL: 0
BRANCH_RETURN: 0

cpu0->cpu0_STLB TOTAL        ACCESS:      30012 HIT:      15911 MISS:      14101 MSHR_MERGE:          0
cpu0->cpu0_STLB LOAD         ACCESS:      30012 HIT:      15911 MISS:      14101 MSHR_MERGE:          0
cpu0->cpu0_STLB RFO          ACCESS:          0 HIT:          0 MISS:          0 MSHR_MERGE:          0
cpu0->cpu0_STLB PREFETCH     ACCESS:          0 HIT:          0 MISS:          0 MSHR_MERGE:          0
cpu0->cpu0_STLB WRITE        ACCESS:          0 HIT:          0 MISS:          0 MSHR_MERGE:          0
cpu0->cpu0_STLB TRANSLATION  ACCESS:          0 HIT:          0 MISS:          0 MSHR_MERGE:          0
cpu0->cpu0_STLB PREFETCH REQUESTED:          0 ISSUED:          0 USEFUL:          0 USELESS:          0 LATE:          0
cpu0->cpu0_STLB AVERAGE MISS LATENCY: 243.6 cycles
cpu0->cpu0_L2C TOTAL        ACCESS:    4142699 HIT:    2432636 MISS:    1710063 MSHR_MERGE:     757677
cpu0->cpu0_L2C LOAD         ACCESS:     337158 HIT:     293714 MISS:      43444 MSHR_MERGE:      15333
cpu0->cpu0_L2C RFO          ACCESS:      24362 HIT:          0 MISS:      24362 MSHR_MERGE:          0
cpu0->cpu0_L2C PREFETCH     ACCESS:    3752497 HIT:    2112171 MISS:    1640326 MSHR_MERGE:     742344
cpu0->cpu0_L2C WRITE        ACCESS:      24724 HIT:      24724 MISS:          0 MSHR_MERGE:          0
cpu0->cpu0_L2C TRANSLATION  ACCESS:       3958 HIT:       2027 MISS:       1931 MSHR_MERGE:          0
cpu0->cpu0_L2C PREFETCH REQUESTED:    5038628 ISSUED:    3114041 USEFUL:     787703 USELESS:      78115 LATE:      15333
cpu0->cpu0_L2C AVERAGE MISS LATENCY: 247.7 cycles
cpu0->cpu0_L1I TOTAL        ACCESS:     282699 HIT:     282699 MISS:          0 MSHR_MERGE:          0
cpu0->cpu0_L1I LOAD         ACCESS:     282699 HIT:     282699 MISS:          0 MSHR_MERGE:          0
cpu0->cpu0_L1I RFO          ACCESS:          0 HIT:          0 MISS:          0 MSHR_MERGE:          0
cpu0->cpu0_L1I PREFETCH     ACCESS:          0 HIT:          0 MISS:          0 MSHR_MERGE:          0
cpu0->cpu0_L1I WRITE        ACCESS:          0 HIT:          0 MISS:          0 MSHR_MERGE:          0
cpu0->cpu0_L1I TRANSLATION  ACCESS:          0 HIT:          0 MISS:          0 MSHR_MERGE:          0
cpu0->cpu0_L1I PREFETCH REQUESTED:          0 ISSUED:          0 USEFUL:          0 USELESS:          0 LATE:          0
cpu0->cpu0_L1I AVERAGE MISS LATENCY: - cycles
cpu0->cpu0_L1D TOTAL        ACCESS:   15522817 HIT:   14368164 MISS:    1154653 MSHR_MERGE:     150736
cpu0->cpu0_L1D LOAD         ACCESS:   11969971 HIT:   11615424 MISS:     354547 MSHR_MERGE:      17390
cpu0->cpu0_L1D RFO          ACCESS:          0 HIT:          0 MISS:          0 MSHR_MERGE:          0
cpu0->cpu0_L1D PREFETCH     ACCESS:     707917 HIT:      62138 MISS:     645779 MSHR_MERGE:       7339
cpu0->cpu0_L1D WRITE        ACCESS:    2816699 HIT:    2666330 MISS:     150369 MSHR_MERGE:     126007
cpu0->cpu0_L1D TRANSLATION  ACCESS:      28230 HIT:      24272 MISS:       3958 MSHR_MERGE:          0
cpu0->cpu0_L1D PREFETCH REQUESTED:     972579 ISSUED:     707909 USEFUL:     638060 USELESS:        364 LATE:       9350
cpu0->cpu0_L1D AVERAGE MISS LATENCY: 56.35 cycles
cpu0->cpu0_ITLB TOTAL        ACCESS:     241758 HIT:     241758 MISS:          0 MSHR_MERGE:          0
cpu0->cpu0_ITLB LOAD         ACCESS:     241758 HIT:     241758 MISS:          0 MSHR_MERGE:          0
cpu0->cpu0_ITLB RFO          ACCESS:          0 HIT:          0 MISS:          0 MSHR_MERGE:          0
cpu0->cpu0_ITLB PREFETCH     ACCESS:          0 HIT:          0 MISS:          0 MSHR_MERGE:          0
cpu0->cpu0_ITLB WRITE        ACCESS:          0 HIT:          0 MISS:          0 MSHR_MERGE:          0
cpu0->cpu0_ITLB TRANSLATION  ACCESS:          0 HIT:          0 MISS:          0 MSHR_MERGE:          0
cpu0->cpu0_ITLB PREFETCH REQUESTED:          0 ISSUED:          0 USEFUL:          0 USELESS:          0 LATE:          0
cpu0->cpu0_ITLB AVERAGE MISS LATENCY: - cycles
cpu0->cpu0_DTLB TOTAL        ACCESS:   14737124 HIT:   14693387 MISS:      43737 MSHR_MERGE:      13725
cpu0->cpu0_DTLB LOAD         ACCESS:   14737124 HIT:   14693387 MISS:      43737 MSHR_MERGE:      13725
cpu0->cpu0_DTLB RFO          ACCESS:          0 HIT:          0 MISS:          0 MSHR_MERGE:          0
cpu0->cpu0_DTLB PREFETCH     ACCESS:          0 HIT:          0 MISS:          0 MSHR_MERGE:          0
cpu0->cpu0_DTLB WRITE        ACCESS:          0 HIT:          0 MISS:          0 MSHR_MERGE:          0
cpu0->cpu0_DTLB TRANSLATION  ACCESS:          0 HIT:          0 MISS:          0 MSHR_MERGE:          0
cpu0->cpu0_DTLB PREFETCH REQUESTED:          0 ISSUED:          0 USEFUL:          0 USELESS:          0 LATE:          0
cpu0->cpu0_DTLB AVERAGE MISS LATENCY: 120 cycles
cpu0->LLC TOTAL        ACCESS:     976703 HIT:       5710 MISS:     970993 MSHR_MERGE:          0
cpu0->LLC LOAD         ACCESS:      28111 HIT:         39 MISS:      28072 MSHR_MERGE:          0
cpu0->LLC RFO          ACCESS:      24362 HIT:          0 MISS:      24362 MSHR_MERGE:          0
cpu0->LLC PREFETCH     ACCESS:     897982 HIT:       1916 MISS:     896066 MSHR_MERGE:          0
cpu0->LLC WRITE        ACCESS:      24317 HIT:       3745 MISS:      20572 MSHR_MERGE:          0
cpu0->LLC TRANSLATION  ACCESS:       1931 HIT:         10 MISS:       1921 MSHR_MERGE:          0
cpu0->LLC PREFETCH REQUESTED:          0 ISSUED:          0 USEFUL:          0 USELESS:          0 LATE:          0
cpu0->LLC AVERAGE MISS LATENCY: 185 cycles

DRAM Statistics

Channel 0 RQ ROW_BUFFER_HIT:        139
  ROW_BUFFER_MISS:     950278
  AVG DBUS CONGESTED CYCLE: 3.399
Channel 0 WQ ROW_BUFFER_HIT:       2749
  ROW_BUFFER_MISS:      11834
  FULL:          0
Channel 0 REFRESHES ISSUED:       1618

[ROI Statistics]
[System Configuration]
num_cpus 1
cpu_freq 4000
fetch_width 6
decode_width 6
dispatch_width 6
execute_width 6
lq_width 2
sq_width 2
retire_width 6
scheduler_size 160
branch_mispredict_penalty 1
rob_size 352
lq_size 240
sq_size 112
ifetch_buffer_size 64
decode_buffer_size 32
dispatch_buffer_size 32
register_file_size 288
decode_latency 1
dispatch_latency 1
schedule_latency 0
execute_latency 0
page_size 4096
block_size 64
core_0_itlb_set 16
core_0_itlb_way 4
core_0_itlb_rq_size 16
core_0_itlb_wq_size 16
core_0_itlb_pq_size 0
core_0_itlb_mshr_size 8
core_0_itlb_hit_latency 1
core_0_itlb_fill_latency 1
core_0_itlb_max_tag_check 2
core_0_itlb_max_fill 2
core_0_dtlb_set 16
core_0_dtlb_way 4
core_0_dtlb_rq_size 16
core_0_dtlb_wq_size 16
core_0_dtlb_pq_size 0
core_0_dtlb_mshr_size 8
core_0_dtlb_hit_latency 1
core_0_dtlb_fill_latency 1
core_0_dtlb_max_tag_check 2
core_0_dtlb_max_fill 2
core_0_stlb_set 128
core_0_stlb_way 12
core_0_stlb_rq_size 32
core_0_stlb_wq_size 32
core_0_stlb_pq_size 0
core_0_stlb_mshr_size 16
core_0_stlb_hit_latency 4
core_0_stlb_fill_latency 4
core_0_stlb_max_tag_check 1
core_0_stlb_max_fill 1
core_0_l1i_set 64
core_0_l1i_way 8
core_0_l1i_rq_size 64
core_0_l1i_wq_size 64
core_0_l1i_pq_size 32
core_0_l1i_mshr_size 8
core_0_l1i_hit_latency 2
core_0_l1i_fill_latency 2
core_0_l1i_max_tag_check 2
core_0_l1i_max_fill 2
core_0_l1d_set 64
core_0_l1d_way 12
core_0_l1d_rq_size 64
core_0_l1d_wq_size 64
core_0_l1d_pq_size 8
core_0_l1d_mshr_size 16
core_0_l1d_hit_latency 2
core_0_l1d_fill_latency 3
core_0_l1d_max_tag_check 2
core_0_l1d_max_fill 2
core_0_l2c_set 1024
core_0_l2c_way 8
core_0_l2c_rq_size 32
core_0_l2c_wq_size 32
core_0_l2c_pq_size 16
core_0_l2c_mshr_size 32
core_0_l2c_hit_latency 5
core_0_l2c_fill_latency 5
core_0_l2c_max_tag_check 1
core_0_l2c_max_fill 1
llc_set 2048
llc_way 16
llc_rq_size 32
llc_wq_size 32
llc_pq_size 32
llc_mshr_size 64
llc_hit_latency 10
llc_fill_latency 10
llc_max_tag_check 1
llc_max_fill 1
dram_channels 1
dram_ranks 1
dram_bankgroups 8
dram_banks 4
dram_rows 16384
dram_columns 1024
dram_channel_width 8
dram_rq_size 64
dram_wq_size 64
dram_size 4294967296
core_0_itlb_prefetcher no
core_0_dtlb_prefetcher no
core_0_stlb_prefetcher no
core_0_l1i_prefetcher next_line
core_0_l1d_prefetcher berti
core_0_l2c_prefetcher pythia
llc_prefetcher no
llc_replacement drrip

Core_0_instructions 50000003
Core_0_cycles 19419487
Core_0_IPC 2.57473
Core_0_branch_prediction_accuracy 81.2319
Core_0_branch_MPKI 4.68478
Core_0_average_ROB_occupancy_at_mispredict 254.026

Core_0_ITLB_total_access 241758
Core_0_ITLB_total_hit 241758
Core_0_ITLB_total_miss 0
Core_0_ITLB_total_MPKI 0
Core_0_ITLB_total_miss_rate 0
Core_0_ITLB_demand_access 241758
Core_0_ITLB_demand_hit 241758
Core_0_ITLB_demand_miss 0
Core_0_ITLB_demand_MPKI 0
Core_0_ITLB_demand_miss_rate 0
Core_0_ITLB_load_access 241758
Core_0_ITLB_load_hit 241758
Core_0_ITLB_load_miss 0
Core_0_ITLB_load_MPKI 0
Core_0_ITLB_load_miss_rate 0
Core_0_ITLB_rfo_access 0
Core_0_ITLB_rfo_hit 0
Core_0_ITLB_rfo_miss 0
Core_0_ITLB_rfo_MPKI 0
Core_0_ITLB_rfo_miss_rate 0
Core_0_ITLB_prefetch_access 0
Core_0_ITLB_prefetch_hit 0
Core_0_ITLB_prefetch_miss 0
Core_0_ITLB_prefetch_MPKI 0
Core_0_ITLB_prefetch_miss_rate 0
Core_0_ITLB_writeback_access 0
Core_0_ITLB_writeback_hit 0
Core_0_ITLB_writeback_miss 0
Core_0_ITLB_writeback_MPKI 0
Core_0_ITLB_writeback_miss_rate 0
Core_0_ITLB_prefetch_requested 0
Core_0_ITLB_prefetch_issued 0
Core_0_ITLB_prefetch_useful 0
Core_0_ITLB_prefetch_useless 0
Core_0_ITLB_prefetch_late 0
Core_0_ITLB_prefetch_accuracy 0
Core_0_ITLB_prefetch_coverage 0

Core_0_DTLB_total_access 14737124
Core_0_DTLB_total_hit 14693387
Core_0_DTLB_total_miss 43737
Core_0_DTLB_total_MPKI 0.87474
Core_0_DTLB_total_miss_rate 0.00296781
Core_0_DTLB_demand_access 14737124
Core_0_DTLB_demand_hit 14693387
Core_0_DTLB_demand_miss 43737
Core_0_DTLB_demand_MPKI 0.87474
Core_0_DTLB_demand_miss_rate 0.00296781
Core_0_DTLB_load_access 14737124
Core_0_DTLB_load_hit 14693387
Core_0_DTLB_load_miss 43737
Core_0_DTLB_load_MPKI 0.87474
Core_0_DTLB_load_miss_rate 0.00296781
Core_0_DTLB_rfo_access 0
Core_0_DTLB_rfo_hit 0
Core_0_DTLB_rfo_miss 0
Core_0_DTLB_rfo_MPKI 0
Core_0_DTLB_rfo_miss_rate 0
Core_0_DTLB_prefetch_access 0
Core_0_DTLB_prefetch_hit 0
Core_0_DTLB_prefetch_miss 0
Core_0_DTLB_prefetch_MPKI 0
Core_0_DTLB_prefetch_miss_rate 0
Core_0_DTLB_writeback_access 0
Core_0_DTLB_writeback_hit 0
Core_0_DTLB_writeback_miss 0
Core_0_DTLB_writeback_MPKI 0
Core_0_DTLB_writeback_miss_rate 0
Core_0_DTLB_prefetch_requested 0
Core_0_DTLB_prefetch_issued 0
Core_0_DTLB_prefetch_useful 0
Core_0_DTLB_prefetch_useless 0
Core_0_DTLB_prefetch_late 0
Core_0_DTLB_prefetch_accuracy 0
Core_0_DTLB_prefetch_coverage 0

Core_0_STLB_total_access 30012
Core_0_STLB_total_hit 15911
Core_0_STLB_total_miss 14101
Core_0_STLB_total_MPKI 0.28202
Core_0_STLB_total_miss_rate 0.469845
Core_0_STLB_demand_access 30012
Core_0_STLB_demand_hit 15911
Core_0_STLB_demand_miss 14101
Core_0_STLB_demand_MPKI 0.28202
Core_0_STLB_demand_miss_rate 0.469845
Core_0_STLB_load_access 30012
Core_0_STLB_load_hit 15911
Core_0_STLB_load_miss 14101
Core_0_STLB_load_MPKI 0.28202
Core_0_STLB_load_miss_rate 0.469845
Core_0_STLB_rfo_access 0
Core_0_STLB_rfo_hit 0
Core_0_STLB_rfo_miss 0
Core_0_STLB_rfo_MPKI 0
Core_0_STLB_rfo_miss_rate 0
Core_0_STLB_prefetch_access 0
Core_0_STLB_prefetch_hit 0
Core_0_STLB_prefetch_miss 0
Core_0_STLB_prefetch_MPKI 0
Core_0_STLB_prefetch_miss_rate 0
Core_0_STLB_writeback_access 0
Core_0_STLB_writeback_hit 0
Core_0_STLB_writeback_miss 0
Core_0_STLB_writeback_MPKI 0
Core_0_STLB_writeback_miss_rate 0
Core_0_STLB_prefetch_requested 0
Core_0_STLB_prefetch_issued 0
Core_0_STLB_prefetch_useful 0
Core_0_STLB_prefetch_useless 0
Core_0_STLB_prefetch_late 0
Core_0_STLB_prefetch_accuracy 0
Core_0_STLB_prefetch_coverage 0

Core_0_L1I_total_access 282699
Core_0_L1I_total_hit 282699
Core_0_L1I_total_miss 0
Core_0_L1I_total_MPKI 0
Core_0_L1I_total_miss_rate 0
Core_0_L1I_demand_access 282699
Core_0_L1I_demand_hit 282699
Core_0_L1I_demand_miss 0
Core_0_L1I_demand_MPKI 0
Core_0_L1I_demand_miss_rate 0
Core_0_L1I_load_access 282699
Core_0_L1I_load_hit 282699
Core_0_L1I_load_miss 0
Core_0_L1I_load_MPKI 0
Core_0_L1I_load_miss_rate 0
Core_0_L1I_rfo_access 0
Core_0_L1I_rfo_hit 0
Core_0_L1I_rfo_miss 0
Core_0_L1I_rfo_MPKI 0
Core_0_L1I_rfo_miss_rate 0
Core_0_L1I_prefetch_access 0
Core_0_L1I_prefetch_hit 0
Core_0_L1I_prefetch_miss 0
Core_0_L1I_prefetch_MPKI 0
Core_0_L1I_prefetch_miss_rate 0
Core_0_L1I_writeback_access 0
Core_0_L1I_writeback_hit 0
Core_0_L1I_writeback_miss 0
Core_0_L1I_writeback_MPKI 0
Core_0_L1I_writeback_miss_rate 0
Core_0_L1I_prefetch_requested 0
Core_0_L1I_prefetch_issued 0
Core_0_L1I_prefetch_useful 0
Core_0_L1I_prefetch_useless 0
Core_0_L1I_prefetch_late 0
Core_0_L1I_prefetch_accuracy 0
Core_0_L1I_prefetch_coverage 0

Core_0_L1D_total_access 15494587
Core_0_L1D_total_hit 14343892
Core_0_L1D_total_miss 1150695
Core_0_L1D_total_MPKI 23.0139
Core_0_L1D_total_miss_rate 0.0742643
Core_0_L1D_demand_access 11969971
Core_0_L1D_demand_hit 11615424
Core_0_L1D_demand_miss 354547
Core_0_L1D_demand_MPKI 7.09094
Core_0_L1D_demand_miss_rate 0.0296197
Core_0_L1D_load_access 11969971
Core_0_L1D_load_hit 11615424
Core_0_L1D_load_miss 354547
Core_0_L1D_load_MPKI 7.09094
Core_0_L1D_load_miss_rate 0.0296197
Core_0_L1D_rfo_access 0
Core_0_L1D_rfo_hit 0
Core_0_L1D_rfo_miss 0
Core_0_L1D_rfo_MPKI 0
Core_0_L1D_rfo_miss_rate 0
Core_0_L1D_prefetch_access 707917
Core_0_L1D_prefetch_hit 62138
Core_0_L1D_prefetch_miss 645779
Core_0_L1D_prefetch_MPKI 12.9156
Core_0_L1D_prefetch_miss_rate 0.912224
Core_0_L1D_writeback_access 2816699
Core_0_L1D_writeback_hit 2666330
Core_0_L1D_writeback_miss 150369
Core_0_L1D_writeback_MPKI 3.00738
Core_0_L1D_writeback_miss_rate 0.0533848
Core_0_L1D_prefetch_requested 972579
Core_0_L1D_prefetch_issued 707909
Core_0_L1D_prefetch_useful 638060
Core_0_L1D_prefetch_useless 364
Core_0_L1D_prefetch_late 9350
Core_0_L1D_prefetch_accuracy 0.901331
Core_0_L1D_prefetch_coverage 0.642812

Core_0_L2C_total_access 4138741
Core_0_L2C_total_hit 2430609
Core_0_L2C_total_miss 1708132
Core_0_L2C_total_MPKI 34.1626
Core_0_L2C_total_miss_rate 0.412718
Core_0_L2C_demand_access 361520
Core_0_L2C_demand_hit 293714
Core_0_L2C_demand_miss 67806
Core_0_L2C_demand_MPKI 1.35612
Core_0_L2C_demand_miss_rate 0.187558
Core_0_L2C_load_access 337158
Core_0_L2C_load_hit 293714
Core_0_L2C_load_miss 43444
Core_0_L2C_load_MPKI 0.86888
Core_0_L2C_load_miss_rate 0.128854
Core_0_L2C_rfo_access 24362
Core_0_L2C_rfo_hit 0
Core_0_L2C_rfo_miss 24362
Core_0_L2C_rfo_MPKI 0.48724
Core_0_L2C_rfo_miss_rate 1
Core_0_L2C_prefetch_access 3752497
Core_0_L2C_prefetch_hit 2112171
Core_0_L2C_prefetch_miss 1640326
Core_0_L2C_prefetch_MPKI 32.8065
Core_0_L2C_prefetch_miss_rate 0.437129
Core_0_L2C_writeback_access 24724
Core_0_L2C_writeback_hit 24724
Core_0_L2C_writeback_miss 0
Core_0_L2C_writeback_MPKI 0
Core_0_L2C_writeback_miss_rate 0
Core_0_L2C_prefetch_requested 5038628
Core_0_L2C_prefetch_issued 3114041
Core_0_L2C_prefetch_useful 787703
Core_0_L2C_prefetch_useless 78115
Core_0_L2C_prefetch_late 15333
Core_0_L2C_prefetch_accuracy 0.252952
Core_0_L2C_prefetch_coverage 0.920742

Core_0_LLC_total_access 974772
Core_0_LLC_total_hit 5700
Core_0_LLC_total_miss 969072
Core_0_LLC_total_MPKI 19.3814
Core_0_LLC_total_miss_rate 0.994152
Core_0_LLC_demand_access 52473
Core_0_LLC_demand_hit 39
Core_0_LLC_demand_miss 52434
Core_0_LLC_demand_MPKI 1.04868
Core_0_LLC_demand_miss_rate 0.999257
Core_0_LLC_load_access 28111
Core_0_LLC_load_hit 39
Core_0_LLC_load_miss 28072
Core_0_LLC_load_MPKI 0.56144
Core_0_LLC_load_miss_rate 0.998613
Core_0_LLC_rfo_access 24362
Core_0_LLC_rfo_hit 0
Core_0_LLC_rfo_miss 24362
Core_0_LLC_rfo_MPKI 0.48724
Core_0_LLC_rfo_miss_rate 1
Core_0_LLC_prefetch_access 897982
Core_0_LLC_prefetch_hit 1916
Core_0_LLC_prefetch_miss 896066
Core_0_LLC_prefetch_MPKI 17.9213
Core_0_LLC_prefetch_miss_rate 0.997866
Core_0_LLC_writeback_access 24317
Core_0_LLC_writeback_hit 3745
Core_0_LLC_writeback_miss 20572
Core_0_LLC_writeback_MPKI 0.41144
Core_0_LLC_writeback_miss_rate 0.845993
Core_0_LLC_prefetch_requested 0
Core_0_LLC_prefetch_issued 0
Core_0_LLC_prefetch_useful 0
Core_0_LLC_prefetch_useless 0
Core_0_LLC_prefetch_late 0
Core_0_LLC_prefetch_accuracy 0
Core_0_LLC_prefetch_coverage 0

[DRAM Statistics]
Channel_0_RQ_row_buffer_hit 139
Channel_0_RQ_row_buffer_miss 950278
Channel_0_WQ_row_buffer_hit 2749
Channel_0_WQ_row_buffer_miss 11834
Channel_0_WQ_full 0
Channel_0_dbus_congested 2036275
DRAM_total_RQ_row_buffer_hit 139
DRAM_total_RQ_row_buffer_miss 950278
DRAM_total_WQ_row_buffer_hit 2749
DRAM_total_WQ_row_buffer_miss 11834
DRAM_total_WQ_full 0
DRAM_total_dbus_congested 2036275
DRAM_avg_congested_cycle 3.3991

======STLB miss causes ========
Core_0_STLB_miss_cause_breakdown
Core_0_STLB_cause_Demand_Data_miss 14101
Core_0_STLB_cause_Demand_Data_miss_rate 0.469845
Core_0_STLB_cause_Demand_Instruction_miss 0
Core_0_STLB_cause_Demand_Instruction_miss_rate 0
Core_0_STLB_cause_L1D_Prefetch_miss 0
Core_0_STLB_cause_L1D_Prefetch_miss_rate 0
Core_0_STLB_cause_L1I_Prefetch_miss 0
Core_0_STLB_cause_L1I_Prefetch_miss_rate 0
Core_0_STLB_cause_Other_miss 0
Core_0_STLB_cause_Other_miss_rate 0
Core_0_STLB_Demand_miss 14101
Core_0_STLB_Demand_miss_rate 0.469845
Core_0_STLB_L1D_Prefetch_miss 0
Core_0_STLB_L1D_Prefetch_miss_rate 0
Core_0_STLB_Other_miss 0
Core_0_STLB_Other_miss_rate 0
