[VMEM] WARNING: physical memory size is smaller than virtual memory size.

*** ChampSim Multicore Out-of-Order Simulator ***
Warmup Instructions: 20000000
Simulation Instructions: 50000000
Number of CPUs: 1
Page size: 4096
STLB ideal mode: l1pref
Core 0: /data0/tzh/champsim_traces/SPEC17/605.mcf_s-472B.champsimtrace.xz
 L1D Berti prefetcher
Off-chip DRAM Size: 4 GiB Channels: 1 Width: 64-bit Data Rate: 3205 MT/s
Warmup halting CPU 0 at instruction 20000002 cycle 7703020 for remainder of phase
Warmup finished CPU 0 instructions: 20000002 cycles: 7703020 cumulative IPC: 2.596 (Simulation time: 00 hr 01 min 44 sec)
Warmup complete CPU 0 instructions: 20000002 cycles: 7703020 cumulative IPC: 2.596 (Simulation time: 00 hr 01 min 44 sec)
Simulation finished CPU 0 instructions: 50000002 cycles: 72815853 cumulative IPC: 0.6867 (Simulation time: 00 hr 11 min 28 sec)
Simulation complete CPU 0 instructions: 50000002 cycles: 72815853 cumulative IPC: 0.6867 (Simulation time: 00 hr 11 min 28 sec)

ChampSim completed all CPUs

=== Simulation ===
CPU 0 runs /data0/tzh/champsim_traces/SPEC17/605.mcf_s-472B.champsimtrace.xz

Region of Interest Statistics

CPU 0 cumulative IPC: 0.6867 instructions: 50000002 cycles: 72815853
CPU 0 Branch Prediction Accuracy: 98.57% MPKI: 1.649 Average ROB Occupancy at Mispredict: 219.7
Branch type MPKI
BRANCH_DIRECT_JUMP: 0
BRANCH_INDIRECT: 0
BRANCH_CONDITIONAL: 1.649
BRANCH_DIRECT_CALL: 0
BRANCH_INDIRECT_CALL: 0
BRANCH_RETURN: 0

cpu0->cpu0_STLB TOTAL        ACCESS:     137531 HIT:     117300 MISS:      20231 MSHR_MERGE:          0
cpu0->cpu0_STLB LOAD         ACCESS:     137531 HIT:     117300 MISS:      20231 MSHR_MERGE:          0
cpu0->cpu0_STLB RFO          ACCESS:          0 HIT:          0 MISS:          0 MSHR_MERGE:          0
cpu0->cpu0_STLB PREFETCH     ACCESS:          0 HIT:          0 MISS:          0 MSHR_MERGE:          0
cpu0->cpu0_STLB WRITE        ACCESS:          0 HIT:          0 MISS:          0 MSHR_MERGE:          0
cpu0->cpu0_STLB TRANSLATION  ACCESS:          0 HIT:          0 MISS:          0 MSHR_MERGE:          0
cpu0->cpu0_STLB PREFETCH REQUESTED:          0 ISSUED:          0 USEFUL:          0 USELESS:          0 LATE:          0
cpu0->cpu0_STLB AVERAGE MISS LATENCY: 191.3 cycles
cpu0->cpu0_L2C TOTAL        ACCESS:   10230409 HIT:    4168435 MISS:    6061974 MSHR_MERGE:    2274607
cpu0->cpu0_L2C LOAD         ACCESS:     966850 HIT:     406106 MISS:     560744 MSHR_MERGE:     167611
cpu0->cpu0_L2C RFO          ACCESS:     122617 HIT:      12729 MISS:     109888 MSHR_MERGE:       1012
cpu0->cpu0_L2C PREFETCH     ACCESS:    8849573 HIT:    3466892 MISS:    5382681 MSHR_MERGE:    2105984
cpu0->cpu0_L2C WRITE        ACCESS:     282246 HIT:     280575 MISS:       1671 MSHR_MERGE:          0
cpu0->cpu0_L2C TRANSLATION  ACCESS:       9123 HIT:       2133 MISS:       6990 MSHR_MERGE:          0
cpu0->cpu0_L2C PREFETCH REQUESTED:    9780414 ISSUED:    7059486 USEFUL:    1345881 USELESS:    1316513 LATE:     168623
cpu0->cpu0_L2C AVERAGE MISS LATENCY: 231 cycles
cpu0->cpu0_L1I TOTAL        ACCESS:    7674878 HIT:    7674878 MISS:          0 MSHR_MERGE:          0
cpu0->cpu0_L1I LOAD         ACCESS:    7674878 HIT:    7674878 MISS:          0 MSHR_MERGE:          0
cpu0->cpu0_L1I RFO          ACCESS:          0 HIT:          0 MISS:          0 MSHR_MERGE:          0
cpu0->cpu0_L1I PREFETCH     ACCESS:          0 HIT:          0 MISS:          0 MSHR_MERGE:          0
cpu0->cpu0_L1I WRITE        ACCESS:          0 HIT:          0 MISS:          0 MSHR_MERGE:          0
cpu0->cpu0_L1I TRANSLATION  ACCESS:          0 HIT:          0 MISS:          0 MSHR_MERGE:          0
cpu0->cpu0_L1I PREFETCH REQUESTED:          0 ISSUED:          0 USEFUL:          0 USELESS:          0 LATE:          0
cpu0->cpu0_L1I AVERAGE MISS LATENCY: - cycles
cpu0->cpu0_L1D TOTAL        ACCESS:   27282784 HIT:   23356081 MISS:    3926703 MSHR_MERGE:    1038028
cpu0->cpu0_L1D LOAD         ACCESS:   13065734 HIT:   11592272 MISS:    1473462 MSHR_MERGE:     506612
cpu0->cpu0_L1D RFO          ACCESS:          0 HIT:          0 MISS:          0 MSHR_MERGE:          0
cpu0->cpu0_L1D PREFETCH     ACCESS:    2107909 HIT:     211198 MISS:    1896711 MSHR_MERGE:     106632
cpu0->cpu0_L1D WRITE        ACCESS:   12068651 HIT:   11521260 MISS:     547391 MSHR_MERGE:     424768
cpu0->cpu0_L1D TRANSLATION  ACCESS:      40490 HIT:      31351 MISS:       9139 MSHR_MERGE:         16
cpu0->cpu0_L1D PREFETCH REQUESTED:    2129688 ISSUED:    2107909 USEFUL:    1462057 USELESS:     327956 LATE:     375267
cpu0->cpu0_L1D AVERAGE MISS LATENCY: 163 cycles
cpu0->cpu0_ITLB TOTAL        ACCESS:    6349849 HIT:    6349849 MISS:          0 MSHR_MERGE:          0
cpu0->cpu0_ITLB LOAD         ACCESS:    6349849 HIT:    6349849 MISS:          0 MSHR_MERGE:          0
cpu0->cpu0_ITLB RFO          ACCESS:          0 HIT:          0 MISS:          0 MSHR_MERGE:          0
cpu0->cpu0_ITLB PREFETCH     ACCESS:          0 HIT:          0 MISS:          0 MSHR_MERGE:          0
cpu0->cpu0_ITLB WRITE        ACCESS:          0 HIT:          0 MISS:          0 MSHR_MERGE:          0
cpu0->cpu0_ITLB TRANSLATION  ACCESS:          0 HIT:          0 MISS:          0 MSHR_MERGE:          0
cpu0->cpu0_ITLB PREFETCH REQUESTED:          0 ISSUED:          0 USEFUL:          0 USELESS:          0 LATE:          0
cpu0->cpu0_ITLB AVERAGE MISS LATENCY: - cycles
cpu0->cpu0_DTLB TOTAL        ACCESS:   25020599 HIT:   24809221 MISS:     211378 MSHR_MERGE:      73847
cpu0->cpu0_DTLB LOAD         ACCESS:   25020599 HIT:   24809221 MISS:     211378 MSHR_MERGE:      73847
cpu0->cpu0_DTLB RFO          ACCESS:          0 HIT:          0 MISS:          0 MSHR_MERGE:          0
cpu0->cpu0_DTLB PREFETCH     ACCESS:          0 HIT:          0 MISS:          0 MSHR_MERGE:          0
cpu0->cpu0_DTLB WRITE        ACCESS:          0 HIT:          0 MISS:          0 MSHR_MERGE:          0
cpu0->cpu0_DTLB TRANSLATION  ACCESS:          0 HIT:          0 MISS:          0 MSHR_MERGE:          0
cpu0->cpu0_DTLB PREFETCH REQUESTED:          0 ISSUED:          0 USEFUL:          0 USELESS:          0 LATE:          0
cpu0->cpu0_DTLB AVERAGE MISS LATENCY: 33.28 cycles
cpu0->LLC TOTAL        ACCESS:    4031280 HIT:     732735 MISS:    3298545 MSHR_MERGE:          0
cpu0->LLC LOAD         ACCESS:     393133 HIT:      97289 MISS:     295844 MSHR_MERGE:          0
cpu0->LLC RFO          ACCESS:     108876 HIT:        122 MISS:     108754 MSHR_MERGE:          0
cpu0->LLC PREFETCH     ACCESS:    3276697 HIT:     593003 MISS:    2683694 MSHR_MERGE:          0
cpu0->LLC WRITE        ACCESS:     245584 HIT:      41825 MISS:     203759 MSHR_MERGE:          0
cpu0->LLC TRANSLATION  ACCESS:       6990 HIT:        496 MISS:       6494 MSHR_MERGE:          0
cpu0->LLC PREFETCH REQUESTED:          0 ISSUED:          0 USEFUL:          0 USELESS:          0 LATE:          0
cpu0->LLC AVERAGE MISS LATENCY: 194.8 cycles

DRAM Statistics

Channel 0 RQ ROW_BUFFER_HIT:     396315
  ROW_BUFFER_MISS:    2698439
  AVG DBUS CONGESTED CYCLE: 4.309
Channel 0 WQ ROW_BUFFER_HIT:      31591
  ROW_BUFFER_MISS:     209959
  FULL:          0
Channel 0 REFRESHES ISSUED:       6068

[ROI Statistics]
[System Configuration]
num_cpus 1
cpu_freq 4000
fetch_width 6
decode_width 6
dispatch_width 6
execute_width 6
lq_width 2
sq_width 2
retire_width 6
scheduler_size 160
branch_mispredict_penalty 1
rob_size 352
lq_size 240
sq_size 112
ifetch_buffer_size 64
decode_buffer_size 32
dispatch_buffer_size 32
register_file_size 288
decode_latency 1
dispatch_latency 1
schedule_latency 0
execute_latency 0
page_size 4096
block_size 64
core_0_itlb_set 16
core_0_itlb_way 4
core_0_itlb_rq_size 16
core_0_itlb_wq_size 16
core_0_itlb_pq_size 0
core_0_itlb_mshr_size 8
core_0_itlb_hit_latency 1
core_0_itlb_fill_latency 1
core_0_itlb_max_tag_check 2
core_0_itlb_max_fill 2
core_0_dtlb_set 16
core_0_dtlb_way 4
core_0_dtlb_rq_size 16
core_0_dtlb_wq_size 16
core_0_dtlb_pq_size 0
core_0_dtlb_mshr_size 8
core_0_dtlb_hit_latency 1
core_0_dtlb_fill_latency 1
core_0_dtlb_max_tag_check 2
core_0_dtlb_max_fill 2
core_0_stlb_set 128
core_0_stlb_way 12
core_0_stlb_rq_size 32
core_0_stlb_wq_size 32
core_0_stlb_pq_size 0
core_0_stlb_mshr_size 16
core_0_stlb_hit_latency 4
core_0_stlb_fill_latency 4
core_0_stlb_max_tag_check 1
core_0_stlb_max_fill 1
core_0_l1i_set 64
core_0_l1i_way 8
core_0_l1i_rq_size 64
core_0_l1i_wq_size 64
core_0_l1i_pq_size 32
core_0_l1i_mshr_size 8
core_0_l1i_hit_latency 2
core_0_l1i_fill_latency 2
core_0_l1i_max_tag_check 2
core_0_l1i_max_fill 2
core_0_l1d_set 64
core_0_l1d_way 12
core_0_l1d_rq_size 64
core_0_l1d_wq_size 64
core_0_l1d_pq_size 8
core_0_l1d_mshr_size 16
core_0_l1d_hit_latency 2
core_0_l1d_fill_latency 3
core_0_l1d_max_tag_check 2
core_0_l1d_max_fill 2
core_0_l2c_set 1024
core_0_l2c_way 8
core_0_l2c_rq_size 32
core_0_l2c_wq_size 32
core_0_l2c_pq_size 16
core_0_l2c_mshr_size 32
core_0_l2c_hit_latency 5
core_0_l2c_fill_latency 5
core_0_l2c_max_tag_check 1
core_0_l2c_max_fill 1
llc_set 2048
llc_way 16
llc_rq_size 32
llc_wq_size 32
llc_pq_size 32
llc_mshr_size 64
llc_hit_latency 10
llc_fill_latency 10
llc_max_tag_check 1
llc_max_fill 1
dram_channels 1
dram_ranks 1
dram_bankgroups 8
dram_banks 4
dram_rows 16384
dram_columns 1024
dram_channel_width 8
dram_rq_size 64
dram_wq_size 64
dram_size 4294967296
core_0_itlb_prefetcher no
core_0_dtlb_prefetcher no
core_0_stlb_prefetcher no
core_0_l1i_prefetcher next_line
core_0_l1d_prefetcher berti
core_0_l2c_prefetcher pythia
llc_prefetcher no
llc_replacement drrip

Core_0_instructions 50000002
Core_0_cycles 72815853
Core_0_IPC 0.686664
Core_0_branch_prediction_accuracy 98.5658
Core_0_branch_MPKI 1.649
Core_0_average_ROB_occupancy_at_mispredict 219.698

Core_0_ITLB_total_access 6349849
Core_0_ITLB_total_hit 6349849
Core_0_ITLB_total_miss 0
Core_0_ITLB_total_MPKI 0
Core_0_ITLB_total_miss_rate 0
Core_0_ITLB_demand_access 6349849
Core_0_ITLB_demand_hit 6349849
Core_0_ITLB_demand_miss 0
Core_0_ITLB_demand_MPKI 0
Core_0_ITLB_demand_miss_rate 0
Core_0_ITLB_load_access 6349849
Core_0_ITLB_load_hit 6349849
Core_0_ITLB_load_miss 0
Core_0_ITLB_load_MPKI 0
Core_0_ITLB_load_miss_rate 0
Core_0_ITLB_rfo_access 0
Core_0_ITLB_rfo_hit 0
Core_0_ITLB_rfo_miss 0
Core_0_ITLB_rfo_MPKI 0
Core_0_ITLB_rfo_miss_rate 0
Core_0_ITLB_prefetch_access 0
Core_0_ITLB_prefetch_hit 0
Core_0_ITLB_prefetch_miss 0
Core_0_ITLB_prefetch_MPKI 0
Core_0_ITLB_prefetch_miss_rate 0
Core_0_ITLB_writeback_access 0
Core_0_ITLB_writeback_hit 0
Core_0_ITLB_writeback_miss 0
Core_0_ITLB_writeback_MPKI 0
Core_0_ITLB_writeback_miss_rate 0
Core_0_ITLB_prefetch_requested 0
Core_0_ITLB_prefetch_issued 0
Core_0_ITLB_prefetch_useful 0
Core_0_ITLB_prefetch_useless 0
Core_0_ITLB_prefetch_late 0
Core_0_ITLB_prefetch_accuracy 0
Core_0_ITLB_prefetch_coverage 0

Core_0_DTLB_total_access 25020599
Core_0_DTLB_total_hit 24809221
Core_0_DTLB_total_miss 211378
Core_0_DTLB_total_MPKI 4.22756
Core_0_DTLB_total_miss_rate 0.00844816
Core_0_DTLB_demand_access 25020599
Core_0_DTLB_demand_hit 24809221
Core_0_DTLB_demand_miss 211378
Core_0_DTLB_demand_MPKI 4.22756
Core_0_DTLB_demand_miss_rate 0.00844816
Core_0_DTLB_load_access 25020599
Core_0_DTLB_load_hit 24809221
Core_0_DTLB_load_miss 211378
Core_0_DTLB_load_MPKI 4.22756
Core_0_DTLB_load_miss_rate 0.00844816
Core_0_DTLB_rfo_access 0
Core_0_DTLB_rfo_hit 0
Core_0_DTLB_rfo_miss 0
Core_0_DTLB_rfo_MPKI 0
Core_0_DTLB_rfo_miss_rate 0
Core_0_DTLB_prefetch_access 0
Core_0_DTLB_prefetch_hit 0
Core_0_DTLB_prefetch_miss 0
Core_0_DTLB_prefetch_MPKI 0
Core_0_DTLB_prefetch_miss_rate 0
Core_0_DTLB_writeback_access 0
Core_0_DTLB_writeback_hit 0
Core_0_DTLB_writeback_miss 0
Core_0_DTLB_writeback_MPKI 0
Core_0_DTLB_writeback_miss_rate 0
Core_0_DTLB_prefetch_requested 0
Core_0_DTLB_prefetch_issued 0
Core_0_DTLB_prefetch_useful 0
Core_0_DTLB_prefetch_useless 0
Core_0_DTLB_prefetch_late 0
Core_0_DTLB_prefetch_accuracy 0
Core_0_DTLB_prefetch_coverage 0

Core_0_STLB_total_access 137531
Core_0_STLB_total_hit 117300
Core_0_STLB_total_miss 20231
Core_0_STLB_total_MPKI 0.40462
Core_0_STLB_total_miss_rate 0.147101
Core_0_STLB_demand_access 137531
Core_0_STLB_demand_hit 117300
Core_0_STLB_demand_miss 20231
Core_0_STLB_demand_MPKI 0.40462
Core_0_STLB_demand_miss_rate 0.147101
Core_0_STLB_load_access 137531
Core_0_STLB_load_hit 117300
Core_0_STLB_load_miss 20231
Core_0_STLB_load_MPKI 0.40462
Core_0_STLB_load_miss_rate 0.147101
Core_0_STLB_rfo_access 0
Core_0_STLB_rfo_hit 0
Core_0_STLB_rfo_miss 0
Core_0_STLB_rfo_MPKI 0
Core_0_STLB_rfo_miss_rate 0
Core_0_STLB_prefetch_access 0
Core_0_STLB_prefetch_hit 0
Core_0_STLB_prefetch_miss 0
Core_0_STLB_prefetch_MPKI 0
Core_0_STLB_prefetch_miss_rate 0
Core_0_STLB_writeback_access 0
Core_0_STLB_writeback_hit 0
Core_0_STLB_writeback_miss 0
Core_0_STLB_writeback_MPKI 0
Core_0_STLB_writeback_miss_rate 0
Core_0_STLB_prefetch_requested 0
Core_0_STLB_prefetch_issued 0
Core_0_STLB_prefetch_useful 0
Core_0_STLB_prefetch_useless 0
Core_0_STLB_prefetch_late 0
Core_0_STLB_prefetch_accuracy 0
Core_0_STLB_prefetch_coverage 0

Core_0_L1I_total_access 7674878
Core_0_L1I_total_hit 7674878
Core_0_L1I_total_miss 0
Core_0_L1I_total_MPKI 0
Core_0_L1I_total_miss_rate 0
Core_0_L1I_demand_access 7674878
Core_0_L1I_demand_hit 7674878
Core_0_L1I_demand_miss 0
Core_0_L1I_demand_MPKI 0
Core_0_L1I_demand_miss_rate 0
Core_0_L1I_load_access 7674878
Core_0_L1I_load_hit 7674878
Core_0_L1I_load_miss 0
Core_0_L1I_load_MPKI 0
Core_0_L1I_load_miss_rate 0
Core_0_L1I_rfo_access 0
Core_0_L1I_rfo_hit 0
Core_0_L1I_rfo_miss 0
Core_0_L1I_rfo_MPKI 0
Core_0_L1I_rfo_miss_rate 0
Core_0_L1I_prefetch_access 0
Core_0_L1I_prefetch_hit 0
Core_0_L1I_prefetch_miss 0
Core_0_L1I_prefetch_MPKI 0
Core_0_L1I_prefetch_miss_rate 0
Core_0_L1I_writeback_access 0
Core_0_L1I_writeback_hit 0
Core_0_L1I_writeback_miss 0
Core_0_L1I_writeback_MPKI 0
Core_0_L1I_writeback_miss_rate 0
Core_0_L1I_prefetch_requested 0
Core_0_L1I_prefetch_issued 0
Core_0_L1I_prefetch_useful 0
Core_0_L1I_prefetch_useless 0
Core_0_L1I_prefetch_late 0
Core_0_L1I_prefetch_accuracy 0
Core_0_L1I_prefetch_coverage 0

Core_0_L1D_total_access 27242294
Core_0_L1D_total_hit 23324730
Core_0_L1D_total_miss 3917564
Core_0_L1D_total_MPKI 78.3513
Core_0_L1D_total_miss_rate 0.143804
Core_0_L1D_demand_access 13065734
Core_0_L1D_demand_hit 11592272
Core_0_L1D_demand_miss 1473462
Core_0_L1D_demand_MPKI 29.4692
Core_0_L1D_demand_miss_rate 0.112773
Core_0_L1D_load_access 13065734
Core_0_L1D_load_hit 11592272
Core_0_L1D_load_miss 1473462
Core_0_L1D_load_MPKI 29.4692
Core_0_L1D_load_miss_rate 0.112773
Core_0_L1D_rfo_access 0
Core_0_L1D_rfo_hit 0
Core_0_L1D_rfo_miss 0
Core_0_L1D_rfo_MPKI 0
Core_0_L1D_rfo_miss_rate 0
Core_0_L1D_prefetch_access 2107909
Core_0_L1D_prefetch_hit 211198
Core_0_L1D_prefetch_miss 1896711
Core_0_L1D_prefetch_MPKI 37.9342
Core_0_L1D_prefetch_miss_rate 0.899807
Core_0_L1D_writeback_access 12068651
Core_0_L1D_writeback_hit 11521260
Core_0_L1D_writeback_miss 547391
Core_0_L1D_writeback_MPKI 10.9478
Core_0_L1D_writeback_miss_rate 0.0453564
Core_0_L1D_prefetch_requested 2129688
Core_0_L1D_prefetch_issued 2107909
Core_0_L1D_prefetch_useful 1462057
Core_0_L1D_prefetch_useless 327956
Core_0_L1D_prefetch_late 375267
Core_0_L1D_prefetch_accuracy 0.693605
Core_0_L1D_prefetch_coverage 0.498057

Core_0_L2C_total_access 10221286
Core_0_L2C_total_hit 4166302
Core_0_L2C_total_miss 6054984
Core_0_L2C_total_MPKI 121.1
Core_0_L2C_total_miss_rate 0.59239
Core_0_L2C_demand_access 1089467
Core_0_L2C_demand_hit 418835
Core_0_L2C_demand_miss 670632
Core_0_L2C_demand_MPKI 13.4126
Core_0_L2C_demand_miss_rate 0.61556
Core_0_L2C_load_access 966850
Core_0_L2C_load_hit 406106
Core_0_L2C_load_miss 560744
Core_0_L2C_load_MPKI 11.2149
Core_0_L2C_load_miss_rate 0.57997
Core_0_L2C_rfo_access 122617
Core_0_L2C_rfo_hit 12729
Core_0_L2C_rfo_miss 109888
Core_0_L2C_rfo_MPKI 2.19776
Core_0_L2C_rfo_miss_rate 0.896189
Core_0_L2C_prefetch_access 8849573
Core_0_L2C_prefetch_hit 3466892
Core_0_L2C_prefetch_miss 5382681
Core_0_L2C_prefetch_MPKI 107.654
Core_0_L2C_prefetch_miss_rate 0.608242
Core_0_L2C_writeback_access 282246
Core_0_L2C_writeback_hit 280575
Core_0_L2C_writeback_miss 1671
Core_0_L2C_writeback_MPKI 0.03342
Core_0_L2C_writeback_miss_rate 0.00592037
Core_0_L2C_prefetch_requested 9780414
Core_0_L2C_prefetch_issued 7059486
Core_0_L2C_prefetch_useful 1345881
Core_0_L2C_prefetch_useless 1316513
Core_0_L2C_prefetch_late 168623
Core_0_L2C_prefetch_accuracy 0.190649
Core_0_L2C_prefetch_coverage 0.66743

Core_0_LLC_total_access 4024290
Core_0_LLC_total_hit 732239
Core_0_LLC_total_miss 3292051
Core_0_LLC_total_MPKI 65.841
Core_0_LLC_total_miss_rate 0.818045
Core_0_LLC_demand_access 502009
Core_0_LLC_demand_hit 97411
Core_0_LLC_demand_miss 404598
Core_0_LLC_demand_MPKI 8.09196
Core_0_LLC_demand_miss_rate 0.805958
Core_0_LLC_load_access 393133
Core_0_LLC_load_hit 97289
Core_0_LLC_load_miss 295844
Core_0_LLC_load_MPKI 5.91688
Core_0_LLC_load_miss_rate 0.752529
Core_0_LLC_rfo_access 108876
Core_0_LLC_rfo_hit 122
Core_0_LLC_rfo_miss 108754
Core_0_LLC_rfo_MPKI 2.17508
Core_0_LLC_rfo_miss_rate 0.998879
Core_0_LLC_prefetch_access 3276697
Core_0_LLC_prefetch_hit 593003
Core_0_LLC_prefetch_miss 2683694
Core_0_LLC_prefetch_MPKI 53.6739
Core_0_LLC_prefetch_miss_rate 0.819024
Core_0_LLC_writeback_access 245584
Core_0_LLC_writeback_hit 41825
Core_0_LLC_writeback_miss 203759
Core_0_LLC_writeback_MPKI 4.07518
Core_0_LLC_writeback_miss_rate 0.829692
Core_0_LLC_prefetch_requested 0
Core_0_LLC_prefetch_issued 0
Core_0_LLC_prefetch_useful 0
Core_0_LLC_prefetch_useless 0
Core_0_LLC_prefetch_late 0
Core_0_LLC_prefetch_accuracy 0
Core_0_LLC_prefetch_coverage 0

[DRAM Statistics]
Channel_0_RQ_row_buffer_hit 396315
Channel_0_RQ_row_buffer_miss 2698439
Channel_0_WQ_row_buffer_hit 31591
Channel_0_WQ_row_buffer_miss 209959
Channel_0_WQ_full 0
Channel_0_dbus_congested 9115588
DRAM_total_RQ_row_buffer_hit 396315
DRAM_total_RQ_row_buffer_miss 2698439
DRAM_total_WQ_row_buffer_hit 31591
DRAM_total_WQ_row_buffer_miss 209959
DRAM_total_WQ_full 0
DRAM_total_dbus_congested 9115588
DRAM_avg_congested_cycle 4.3095

======STLB miss causes ========
Core_0_STLB_miss_cause_breakdown
Core_0_STLB_cause_Demand_Data_miss 20231
Core_0_STLB_cause_Demand_Data_miss_rate 0.147101
Core_0_STLB_cause_Demand_Instruction_miss 0
Core_0_STLB_cause_Demand_Instruction_miss_rate 0
Core_0_STLB_cause_L1D_Prefetch_miss 0
Core_0_STLB_cause_L1D_Prefetch_miss_rate 0
Core_0_STLB_cause_L1I_Prefetch_miss 0
Core_0_STLB_cause_L1I_Prefetch_miss_rate 0
Core_0_STLB_cause_Other_miss 0
Core_0_STLB_cause_Other_miss_rate 0
Core_0_STLB_Demand_miss 20231
Core_0_STLB_Demand_miss_rate 0.147101
Core_0_STLB_L1D_Prefetch_miss 0
Core_0_STLB_L1D_Prefetch_miss_rate 0
Core_0_STLB_Other_miss 0
Core_0_STLB_Other_miss_rate 0
