[VMEM] WARNING: physical memory size is smaller than virtual memory size.

*** ChampSim Multicore Out-of-Order Simulator ***
Warmup Instructions: 20000000
Simulation Instructions: 50000000
Number of CPUs: 1
Page size: 4096
STLB ideal mode: l1pref
Core 0: /data0/tzh/champsim_traces/SPEC17/607.cactuBSSN_s-2421B.champsimtrace.xz
 L1D Berti prefetcher
Off-chip DRAM Size: 4 GiB Channels: 1 Width: 64-bit Data Rate: 3205 MT/s
Warmup halting CPU 0 at instruction 20000002 cycle 5401182 for remainder of phase
Warmup finished CPU 0 instructions: 20000002 cycles: 5401182 cumulative IPC: 3.703 (Simulation time: 00 hr 01 min 26 sec)
Warmup complete CPU 0 instructions: 20000002 cycles: 5401182 cumulative IPC: 3.703 (Simulation time: 00 hr 01 min 26 sec)
Simulation finished CPU 0 instructions: 50000004 cycles: 20571298 cumulative IPC: 2.431 (Simulation time: 00 hr 06 min 25 sec)
Simulation complete CPU 0 instructions: 50000004 cycles: 20571298 cumulative IPC: 2.431 (Simulation time: 00 hr 06 min 25 sec)

ChampSim completed all CPUs

=== Simulation ===
CPU 0 runs /data0/tzh/champsim_traces/SPEC17/607.cactuBSSN_s-2421B.champsimtrace.xz

Region of Interest Statistics

CPU 0 cumulative IPC: 2.431 instructions: 50000004 cycles: 20571298
CPU 0 Branch Prediction Accuracy: 92.11% MPKI: 0.5244 Average ROB Occupancy at Mispredict: 143.4
Branch type MPKI
BRANCH_DIRECT_JUMP: 0.00058
BRANCH_INDIRECT: 0.0016
BRANCH_CONDITIONAL: 0.2684
BRANCH_DIRECT_CALL: 0.0124
BRANCH_INDIRECT_CALL: 6e-05
BRANCH_RETURN: 0.2413

cpu0->cpu0_STLB TOTAL        ACCESS:    2651907 HIT:    2648079 MISS:       3828 MSHR_MERGE:          0
cpu0->cpu0_STLB LOAD         ACCESS:    2651907 HIT:    2648079 MISS:       3828 MSHR_MERGE:          0
cpu0->cpu0_STLB RFO          ACCESS:          0 HIT:          0 MISS:          0 MSHR_MERGE:          0
cpu0->cpu0_STLB PREFETCH     ACCESS:          0 HIT:          0 MISS:          0 MSHR_MERGE:          0
cpu0->cpu0_STLB WRITE        ACCESS:          0 HIT:          0 MISS:          0 MSHR_MERGE:          0
cpu0->cpu0_STLB TRANSLATION  ACCESS:          0 HIT:          0 MISS:          0 MSHR_MERGE:          0
cpu0->cpu0_STLB PREFETCH REQUESTED:          0 ISSUED:          0 USEFUL:          0 USELESS:          0 LATE:          0
cpu0->cpu0_STLB AVERAGE MISS LATENCY: 299 cycles
cpu0->cpu0_L2C TOTAL        ACCESS:    9901055 HIT:    9322770 MISS:     578285 MSHR_MERGE:       7426
cpu0->cpu0_L2C LOAD         ACCESS:    4448925 HIT:    4358303 MISS:      90622 MSHR_MERGE:        172
cpu0->cpu0_L2C RFO          ACCESS:     327481 HIT:     297237 MISS:      30244 MSHR_MERGE:          0
cpu0->cpu0_L2C PREFETCH     ACCESS:    4738920 HIT:    4286377 MISS:     452543 MSHR_MERGE:       7254
cpu0->cpu0_L2C WRITE        ACCESS:     380187 HIT:     380158 MISS:         29 MSHR_MERGE:          0
cpu0->cpu0_L2C TRANSLATION  ACCESS:       5542 HIT:        695 MISS:       4847 MSHR_MERGE:          0
cpu0->cpu0_L2C PREFETCH REQUESTED:    5217715 ISSUED:    4060727 USEFUL:     348143 USELESS:      64055 LATE:        172
cpu0->cpu0_L2C AVERAGE MISS LATENCY: 76.97 cycles
cpu0->cpu0_L1I TOTAL        ACCESS:    8503877 HIT:    7859659 MISS:     644218 MSHR_MERGE:     244193
cpu0->cpu0_L1I LOAD         ACCESS:    8503877 HIT:    7859659 MISS:     644218 MSHR_MERGE:     244193
cpu0->cpu0_L1I RFO          ACCESS:          0 HIT:          0 MISS:          0 MSHR_MERGE:          0
cpu0->cpu0_L1I PREFETCH     ACCESS:          0 HIT:          0 MISS:          0 MSHR_MERGE:          0
cpu0->cpu0_L1I WRITE        ACCESS:          0 HIT:          0 MISS:          0 MSHR_MERGE:          0
cpu0->cpu0_L1I TRANSLATION  ACCESS:          0 HIT:          0 MISS:          0 MSHR_MERGE:          0
cpu0->cpu0_L1I PREFETCH REQUESTED:          0 ISSUED:          0 USEFUL:          0 USELESS:          0 LATE:          0
cpu0->cpu0_L1I AVERAGE MISS LATENCY: 7.706 cycles
cpu0->cpu0_L1D TOTAL        ACCESS:   16952387 HIT:   11605641 MISS:    5346746 MSHR_MERGE:     284050
cpu0->cpu0_L1D LOAD         ACCESS:   10692670 HIT:    6502049 MISS:    4190621 MSHR_MERGE:     139371
cpu0->cpu0_L1D RFO          ACCESS:          0 HIT:          0 MISS:          0 MSHR_MERGE:          0
cpu0->cpu0_L1D PREFETCH     ACCESS:    1726010 HIT:     963972 MISS:     762038 MSHR_MERGE:      83821
cpu0->cpu0_L1D WRITE        ACCESS:    4524146 HIT:    4135688 MISS:     388458 MSHR_MERGE:      60771
cpu0->cpu0_L1D TRANSLATION  ACCESS:       9561 HIT:       3932 MISS:       5629 MSHR_MERGE:         87
cpu0->cpu0_L1D PREFETCH REQUESTED:    2501654 ISSUED:    1726002 USEFUL:     189039 USELESS:     489155 LATE:      44151
cpu0->cpu0_L1D AVERAGE MISS LATENCY: 11.23 cycles
cpu0->cpu0_ITLB TOTAL        ACCESS:    6183573 HIT:    6183481 MISS:         92 MSHR_MERGE:         42
cpu0->cpu0_ITLB LOAD         ACCESS:    6183573 HIT:    6183481 MISS:         92 MSHR_MERGE:         42
cpu0->cpu0_ITLB RFO          ACCESS:          0 HIT:          0 MISS:          0 MSHR_MERGE:          0
cpu0->cpu0_ITLB PREFETCH     ACCESS:          0 HIT:          0 MISS:          0 MSHR_MERGE:          0
cpu0->cpu0_ITLB WRITE        ACCESS:          0 HIT:          0 MISS:          0 MSHR_MERGE:          0
cpu0->cpu0_ITLB TRANSLATION  ACCESS:          0 HIT:          0 MISS:          0 MSHR_MERGE:          0
cpu0->cpu0_ITLB PREFETCH REQUESTED:          0 ISSUED:          0 USEFUL:          0 USELESS:          0 LATE:          0
cpu0->cpu0_ITLB AVERAGE MISS LATENCY: 347.1 cycles
cpu0->cpu0_DTLB TOTAL        ACCESS:   15662624 HIT:   12568969 MISS:    3093655 MSHR_MERGE:     441798
cpu0->cpu0_DTLB LOAD         ACCESS:   15662624 HIT:   12568969 MISS:    3093655 MSHR_MERGE:     441798
cpu0->cpu0_DTLB RFO          ACCESS:          0 HIT:          0 MISS:          0 MSHR_MERGE:          0
cpu0->cpu0_DTLB PREFETCH     ACCESS:          0 HIT:          0 MISS:          0 MSHR_MERGE:          0
cpu0->cpu0_DTLB WRITE        ACCESS:          0 HIT:          0 MISS:          0 MSHR_MERGE:          0
cpu0->cpu0_DTLB TRANSLATION  ACCESS:          0 HIT:          0 MISS:          0 MSHR_MERGE:          0
cpu0->cpu0_DTLB PREFETCH REQUESTED:          0 ISSUED:          0 USEFUL:          0 USELESS:          0 LATE:          0
cpu0->cpu0_DTLB AVERAGE MISS LATENCY: 5.496 cycles
cpu0->LLC TOTAL        ACCESS:     616339 HIT:     351144 MISS:     265195 MSHR_MERGE:          0
cpu0->LLC LOAD         ACCESS:      90447 HIT:      79008 MISS:      11439 MSHR_MERGE:          0
cpu0->LLC RFO          ACCESS:      30186 HIT:      10919 MISS:      19267 MSHR_MERGE:          0
cpu0->LLC PREFETCH     ACCESS:     445289 HIT:     216369 MISS:     228920 MSHR_MERGE:          0
cpu0->LLC WRITE        ACCESS:      45570 HIT:      41245 MISS:       4325 MSHR_MERGE:          0
cpu0->LLC TRANSLATION  ACCESS:       4847 HIT:       3603 MISS:       1244 MSHR_MERGE:          0
cpu0->LLC PREFETCH REQUESTED:          0 ISSUED:          0 USEFUL:          0 USELESS:          0 LATE:          0
cpu0->LLC AVERAGE MISS LATENCY: 214.8 cycles

DRAM Statistics

Channel 0 RQ ROW_BUFFER_HIT:       1565
  ROW_BUFFER_MISS:     259304
  AVG DBUS CONGESTED CYCLE: 7.124
Channel 0 WQ ROW_BUFFER_HIT:       5794
  ROW_BUFFER_MISS:      30442
  FULL:          0
Channel 0 REFRESHES ISSUED:       1714

[ROI Statistics]
[System Configuration]
num_cpus 1
cpu_freq 4000
fetch_width 6
decode_width 6
dispatch_width 6
execute_width 6
lq_width 2
sq_width 2
retire_width 6
scheduler_size 160
branch_mispredict_penalty 1
rob_size 352
lq_size 240
sq_size 112
ifetch_buffer_size 64
decode_buffer_size 32
dispatch_buffer_size 32
register_file_size 288
decode_latency 1
dispatch_latency 1
schedule_latency 0
execute_latency 0
page_size 4096
block_size 64
core_0_itlb_set 16
core_0_itlb_way 4
core_0_itlb_rq_size 16
core_0_itlb_wq_size 16
core_0_itlb_pq_size 0
core_0_itlb_mshr_size 8
core_0_itlb_hit_latency 1
core_0_itlb_fill_latency 1
core_0_itlb_max_tag_check 2
core_0_itlb_max_fill 2
core_0_dtlb_set 16
core_0_dtlb_way 4
core_0_dtlb_rq_size 16
core_0_dtlb_wq_size 16
core_0_dtlb_pq_size 0
core_0_dtlb_mshr_size 8
core_0_dtlb_hit_latency 1
core_0_dtlb_fill_latency 1
core_0_dtlb_max_tag_check 2
core_0_dtlb_max_fill 2
core_0_stlb_set 128
core_0_stlb_way 12
core_0_stlb_rq_size 32
core_0_stlb_wq_size 32
core_0_stlb_pq_size 0
core_0_stlb_mshr_size 16
core_0_stlb_hit_latency 4
core_0_stlb_fill_latency 4
core_0_stlb_max_tag_check 1
core_0_stlb_max_fill 1
core_0_l1i_set 64
core_0_l1i_way 8
core_0_l1i_rq_size 64
core_0_l1i_wq_size 64
core_0_l1i_pq_size 32
core_0_l1i_mshr_size 8
core_0_l1i_hit_latency 2
core_0_l1i_fill_latency 2
core_0_l1i_max_tag_check 2
core_0_l1i_max_fill 2
core_0_l1d_set 64
core_0_l1d_way 12
core_0_l1d_rq_size 64
core_0_l1d_wq_size 64
core_0_l1d_pq_size 8
core_0_l1d_mshr_size 16
core_0_l1d_hit_latency 2
core_0_l1d_fill_latency 3
core_0_l1d_max_tag_check 2
core_0_l1d_max_fill 2
core_0_l2c_set 1024
core_0_l2c_way 8
core_0_l2c_rq_size 32
core_0_l2c_wq_size 32
core_0_l2c_pq_size 16
core_0_l2c_mshr_size 32
core_0_l2c_hit_latency 5
core_0_l2c_fill_latency 5
core_0_l2c_max_tag_check 1
core_0_l2c_max_fill 1
llc_set 2048
llc_way 16
llc_rq_size 32
llc_wq_size 32
llc_pq_size 32
llc_mshr_size 64
llc_hit_latency 10
llc_fill_latency 10
llc_max_tag_check 1
llc_max_fill 1
dram_channels 1
dram_ranks 1
dram_bankgroups 8
dram_banks 4
dram_rows 16384
dram_columns 1024
dram_channel_width 8
dram_rq_size 64
dram_wq_size 64
dram_size 4294967296
core_0_itlb_prefetcher no
core_0_dtlb_prefetcher no
core_0_stlb_prefetcher no
core_0_l1i_prefetcher next_line
core_0_l1d_prefetcher berti
core_0_l2c_prefetcher pythia
llc_prefetcher no
llc_replacement drrip

Core_0_instructions 50000004
Core_0_cycles 20571298
Core_0_IPC 2.43057
Core_0_branch_prediction_accuracy 92.1106
Core_0_branch_MPKI 0.52438
Core_0_average_ROB_occupancy_at_mispredict 143.384

Core_0_ITLB_total_access 6183573
Core_0_ITLB_total_hit 6183481
Core_0_ITLB_total_miss 92
Core_0_ITLB_total_MPKI 0.00184
Core_0_ITLB_total_miss_rate 1.48781e-05
Core_0_ITLB_demand_access 6183573
Core_0_ITLB_demand_hit 6183481
Core_0_ITLB_demand_miss 92
Core_0_ITLB_demand_MPKI 0.00184
Core_0_ITLB_demand_miss_rate 1.48781e-05
Core_0_ITLB_load_access 6183573
Core_0_ITLB_load_hit 6183481
Core_0_ITLB_load_miss 92
Core_0_ITLB_load_MPKI 0.00184
Core_0_ITLB_load_miss_rate 1.48781e-05
Core_0_ITLB_rfo_access 0
Core_0_ITLB_rfo_hit 0
Core_0_ITLB_rfo_miss 0
Core_0_ITLB_rfo_MPKI 0
Core_0_ITLB_rfo_miss_rate 0
Core_0_ITLB_prefetch_access 0
Core_0_ITLB_prefetch_hit 0
Core_0_ITLB_prefetch_miss 0
Core_0_ITLB_prefetch_MPKI 0
Core_0_ITLB_prefetch_miss_rate 0
Core_0_ITLB_writeback_access 0
Core_0_ITLB_writeback_hit 0
Core_0_ITLB_writeback_miss 0
Core_0_ITLB_writeback_MPKI 0
Core_0_ITLB_writeback_miss_rate 0
Core_0_ITLB_prefetch_requested 0
Core_0_ITLB_prefetch_issued 0
Core_0_ITLB_prefetch_useful 0
Core_0_ITLB_prefetch_useless 0
Core_0_ITLB_prefetch_late 0
Core_0_ITLB_prefetch_accuracy 0
Core_0_ITLB_prefetch_coverage 0

Core_0_DTLB_total_access 15662624
Core_0_DTLB_total_hit 12568969
Core_0_DTLB_total_miss 3093655
Core_0_DTLB_total_MPKI 61.8731
Core_0_DTLB_total_miss_rate 0.197518
Core_0_DTLB_demand_access 15662624
Core_0_DTLB_demand_hit 12568969
Core_0_DTLB_demand_miss 3093655
Core_0_DTLB_demand_MPKI 61.8731
Core_0_DTLB_demand_miss_rate 0.197518
Core_0_DTLB_load_access 15662624
Core_0_DTLB_load_hit 12568969
Core_0_DTLB_load_miss 3093655
Core_0_DTLB_load_MPKI 61.8731
Core_0_DTLB_load_miss_rate 0.197518
Core_0_DTLB_rfo_access 0
Core_0_DTLB_rfo_hit 0
Core_0_DTLB_rfo_miss 0
Core_0_DTLB_rfo_MPKI 0
Core_0_DTLB_rfo_miss_rate 0
Core_0_DTLB_prefetch_access 0
Core_0_DTLB_prefetch_hit 0
Core_0_DTLB_prefetch_miss 0
Core_0_DTLB_prefetch_MPKI 0
Core_0_DTLB_prefetch_miss_rate 0
Core_0_DTLB_writeback_access 0
Core_0_DTLB_writeback_hit 0
Core_0_DTLB_writeback_miss 0
Core_0_DTLB_writeback_MPKI 0
Core_0_DTLB_writeback_miss_rate 0
Core_0_DTLB_prefetch_requested 0
Core_0_DTLB_prefetch_issued 0
Core_0_DTLB_prefetch_useful 0
Core_0_DTLB_prefetch_useless 0
Core_0_DTLB_prefetch_late 0
Core_0_DTLB_prefetch_accuracy 0
Core_0_DTLB_prefetch_coverage 0

Core_0_STLB_total_access 2651907
Core_0_STLB_total_hit 2648079
Core_0_STLB_total_miss 3828
Core_0_STLB_total_MPKI 0.07656
Core_0_STLB_total_miss_rate 0.00144349
Core_0_STLB_demand_access 2651907
Core_0_STLB_demand_hit 2648079
Core_0_STLB_demand_miss 3828
Core_0_STLB_demand_MPKI 0.07656
Core_0_STLB_demand_miss_rate 0.00144349
Core_0_STLB_load_access 2651907
Core_0_STLB_load_hit 2648079
Core_0_STLB_load_miss 3828
Core_0_STLB_load_MPKI 0.07656
Core_0_STLB_load_miss_rate 0.00144349
Core_0_STLB_rfo_access 0
Core_0_STLB_rfo_hit 0
Core_0_STLB_rfo_miss 0
Core_0_STLB_rfo_MPKI 0
Core_0_STLB_rfo_miss_rate 0
Core_0_STLB_prefetch_access 0
Core_0_STLB_prefetch_hit 0
Core_0_STLB_prefetch_miss 0
Core_0_STLB_prefetch_MPKI 0
Core_0_STLB_prefetch_miss_rate 0
Core_0_STLB_writeback_access 0
Core_0_STLB_writeback_hit 0
Core_0_STLB_writeback_miss 0
Core_0_STLB_writeback_MPKI 0
Core_0_STLB_writeback_miss_rate 0
Core_0_STLB_prefetch_requested 0
Core_0_STLB_prefetch_issued 0
Core_0_STLB_prefetch_useful 0
Core_0_STLB_prefetch_useless 0
Core_0_STLB_prefetch_late 0
Core_0_STLB_prefetch_accuracy 0
Core_0_STLB_prefetch_coverage 0

Core_0_L1I_total_access 8503877
Core_0_L1I_total_hit 7859659
Core_0_L1I_total_miss 644218
Core_0_L1I_total_MPKI 12.8844
Core_0_L1I_total_miss_rate 0.0757558
Core_0_L1I_demand_access 8503877
Core_0_L1I_demand_hit 7859659
Core_0_L1I_demand_miss 644218
Core_0_L1I_demand_MPKI 12.8844
Core_0_L1I_demand_miss_rate 0.0757558
Core_0_L1I_load_access 8503877
Core_0_L1I_load_hit 7859659
Core_0_L1I_load_miss 644218
Core_0_L1I_load_MPKI 12.8844
Core_0_L1I_load_miss_rate 0.0757558
Core_0_L1I_rfo_access 0
Core_0_L1I_rfo_hit 0
Core_0_L1I_rfo_miss 0
Core_0_L1I_rfo_MPKI 0
Core_0_L1I_rfo_miss_rate 0
Core_0_L1I_prefetch_access 0
Core_0_L1I_prefetch_hit 0
Core_0_L1I_prefetch_miss 0
Core_0_L1I_prefetch_MPKI 0
Core_0_L1I_prefetch_miss_rate 0
Core_0_L1I_writeback_access 0
Core_0_L1I_writeback_hit 0
Core_0_L1I_writeback_miss 0
Core_0_L1I_writeback_MPKI 0
Core_0_L1I_writeback_miss_rate 0
Core_0_L1I_prefetch_requested 0
Core_0_L1I_prefetch_issued 0
Core_0_L1I_prefetch_useful 0
Core_0_L1I_prefetch_useless 0
Core_0_L1I_prefetch_late 0
Core_0_L1I_prefetch_accuracy 0
Core_0_L1I_prefetch_coverage 0

Core_0_L1D_total_access 16942826
Core_0_L1D_total_hit 11601709
Core_0_L1D_total_miss 5341117
Core_0_L1D_total_MPKI 106.822
Core_0_L1D_total_miss_rate 0.315244
Core_0_L1D_demand_access 10692670
Core_0_L1D_demand_hit 6502049
Core_0_L1D_demand_miss 4190621
Core_0_L1D_demand_MPKI 83.8124
Core_0_L1D_demand_miss_rate 0.391915
Core_0_L1D_load_access 10692670
Core_0_L1D_load_hit 6502049
Core_0_L1D_load_miss 4190621
Core_0_L1D_load_MPKI 83.8124
Core_0_L1D_load_miss_rate 0.391915
Core_0_L1D_rfo_access 0
Core_0_L1D_rfo_hit 0
Core_0_L1D_rfo_miss 0
Core_0_L1D_rfo_MPKI 0
Core_0_L1D_rfo_miss_rate 0
Core_0_L1D_prefetch_access 1726010
Core_0_L1D_prefetch_hit 963972
Core_0_L1D_prefetch_miss 762038
Core_0_L1D_prefetch_MPKI 15.2408
Core_0_L1D_prefetch_miss_rate 0.441503
Core_0_L1D_writeback_access 4524146
Core_0_L1D_writeback_hit 4135688
Core_0_L1D_writeback_miss 388458
Core_0_L1D_writeback_MPKI 7.76916
Core_0_L1D_writeback_miss_rate 0.0858633
Core_0_L1D_prefetch_requested 2501654
Core_0_L1D_prefetch_issued 1726002
Core_0_L1D_prefetch_useful 189039
Core_0_L1D_prefetch_useless 489155
Core_0_L1D_prefetch_late 44151
Core_0_L1D_prefetch_accuracy 0.109524
Core_0_L1D_prefetch_coverage 0.0431629

Core_0_L2C_total_access 9895513
Core_0_L2C_total_hit 9322075
Core_0_L2C_total_miss 573438
Core_0_L2C_total_MPKI 11.4688
Core_0_L2C_total_miss_rate 0.0579493
Core_0_L2C_demand_access 4776406
Core_0_L2C_demand_hit 4655540
Core_0_L2C_demand_miss 120866
Core_0_L2C_demand_MPKI 2.41732
Core_0_L2C_demand_miss_rate 0.0253048
Core_0_L2C_load_access 4448925
Core_0_L2C_load_hit 4358303
Core_0_L2C_load_miss 90622
Core_0_L2C_load_MPKI 1.81244
Core_0_L2C_load_miss_rate 0.0203694
Core_0_L2C_rfo_access 327481
Core_0_L2C_rfo_hit 297237
Core_0_L2C_rfo_miss 30244
Core_0_L2C_rfo_MPKI 0.60488
Core_0_L2C_rfo_miss_rate 0.0923534
Core_0_L2C_prefetch_access 4738920
Core_0_L2C_prefetch_hit 4286377
Core_0_L2C_prefetch_miss 452543
Core_0_L2C_prefetch_MPKI 9.05086
Core_0_L2C_prefetch_miss_rate 0.095495
Core_0_L2C_writeback_access 380187
Core_0_L2C_writeback_hit 380158
Core_0_L2C_writeback_miss 29
Core_0_L2C_writeback_MPKI 0.00058
Core_0_L2C_writeback_miss_rate 7.62783e-05
Core_0_L2C_prefetch_requested 5217715
Core_0_L2C_prefetch_issued 4060727
Core_0_L2C_prefetch_useful 348143
Core_0_L2C_prefetch_useless 64055
Core_0_L2C_prefetch_late 172
Core_0_L2C_prefetch_accuracy 0.0857342
Core_0_L2C_prefetch_coverage 0.742295

Core_0_LLC_total_access 611492
Core_0_LLC_total_hit 347541
Core_0_LLC_total_miss 263951
Core_0_LLC_total_MPKI 5.27902
Core_0_LLC_total_miss_rate 0.431651
Core_0_LLC_demand_access 120633
Core_0_LLC_demand_hit 89927
Core_0_LLC_demand_miss 30706
Core_0_LLC_demand_MPKI 0.61412
Core_0_LLC_demand_miss_rate 0.254541
Core_0_LLC_load_access 90447
Core_0_LLC_load_hit 79008
Core_0_LLC_load_miss 11439
Core_0_LLC_load_MPKI 0.22878
Core_0_LLC_load_miss_rate 0.126472
Core_0_LLC_rfo_access 30186
Core_0_LLC_rfo_hit 10919
Core_0_LLC_rfo_miss 19267
Core_0_LLC_rfo_MPKI 0.38534
Core_0_LLC_rfo_miss_rate 0.638276
Core_0_LLC_prefetch_access 445289
Core_0_LLC_prefetch_hit 216369
Core_0_LLC_prefetch_miss 228920
Core_0_LLC_prefetch_MPKI 4.5784
Core_0_LLC_prefetch_miss_rate 0.514093
Core_0_LLC_writeback_access 45570
Core_0_LLC_writeback_hit 41245
Core_0_LLC_writeback_miss 4325
Core_0_LLC_writeback_MPKI 0.0865
Core_0_LLC_writeback_miss_rate 0.0949089
Core_0_LLC_prefetch_requested 0
Core_0_LLC_prefetch_issued 0
Core_0_LLC_prefetch_useful 0
Core_0_LLC_prefetch_useless 0
Core_0_LLC_prefetch_late 0
Core_0_LLC_prefetch_accuracy 0
Core_0_LLC_prefetch_coverage 0

[DRAM Statistics]
Channel_0_RQ_row_buffer_hit 1565
Channel_0_RQ_row_buffer_miss 259304
Channel_0_WQ_row_buffer_hit 5794
Channel_0_WQ_row_buffer_miss 30442
Channel_0_WQ_full 0
Channel_0_dbus_congested 497399
DRAM_total_RQ_row_buffer_hit 1565
DRAM_total_RQ_row_buffer_miss 259304
DRAM_total_WQ_row_buffer_hit 5794
DRAM_total_WQ_row_buffer_miss 30442
DRAM_total_WQ_full 0
DRAM_total_dbus_congested 497399
DRAM_avg_congested_cycle 7.12391

======STLB miss causes ========
Core_0_STLB_miss_cause_breakdown
Core_0_STLB_cause_Demand_Data_miss 3778
Core_0_STLB_cause_Demand_Data_miss_rate 0.00142464
Core_0_STLB_cause_Demand_Instruction_miss 50
Core_0_STLB_cause_Demand_Instruction_miss_rate 1.88544e-05
Core_0_STLB_cause_L1D_Prefetch_miss 0
Core_0_STLB_cause_L1D_Prefetch_miss_rate 0
Core_0_STLB_cause_L1I_Prefetch_miss 0
Core_0_STLB_cause_L1I_Prefetch_miss_rate 0
Core_0_STLB_cause_Other_miss 0
Core_0_STLB_cause_Other_miss_rate 0
Core_0_STLB_Demand_miss 3828
Core_0_STLB_Demand_miss_rate 0.00144349
Core_0_STLB_L1D_Prefetch_miss 0
Core_0_STLB_L1D_Prefetch_miss_rate 0
Core_0_STLB_Other_miss 0
Core_0_STLB_Other_miss_rate 0
