[VMEM] WARNING: physical memory size is smaller than virtual memory size.

*** ChampSim Multicore Out-of-Order Simulator ***
Warmup Instructions: 20000000
Simulation Instructions: 50000000
Number of CPUs: 1
Page size: 4096
STLB ideal mode: l1pref
Core 0: /data0/tzh/champsim_traces/SPEC17/621.wrf_s-6673B.champsimtrace.xz
 L1D Berti prefetcher
Off-chip DRAM Size: 4 GiB Channels: 1 Width: 64-bit Data Rate: 3205 MT/s
Warmup halting CPU 0 at instruction 20000001 cycle 4391978 for remainder of phase
Warmup finished CPU 0 instructions: 20000001 cycles: 4391978 cumulative IPC: 4.554 (Simulation time: 00 hr 01 min 00 sec)
Warmup complete CPU 0 instructions: 20000001 cycles: 4391978 cumulative IPC: 4.554 (Simulation time: 00 hr 01 min 00 sec)
Simulation finished CPU 0 instructions: 50000002 cycles: 32392677 cumulative IPC: 1.544 (Simulation time: 00 hr 05 min 58 sec)
Simulation complete CPU 0 instructions: 50000002 cycles: 32392677 cumulative IPC: 1.544 (Simulation time: 00 hr 05 min 58 sec)

ChampSim completed all CPUs

=== Simulation ===
CPU 0 runs /data0/tzh/champsim_traces/SPEC17/621.wrf_s-6673B.champsimtrace.xz

Region of Interest Statistics

CPU 0 cumulative IPC: 1.544 instructions: 50000002 cycles: 32392677
CPU 0 Branch Prediction Accuracy: 97.54% MPKI: 1.458 Average ROB Occupancy at Mispredict: 245.3
Branch type MPKI
BRANCH_DIRECT_JUMP: 0.00082
BRANCH_INDIRECT: 0
BRANCH_CONDITIONAL: 1.445
BRANCH_DIRECT_CALL: 0.00646
BRANCH_INDIRECT_CALL: 0
BRANCH_RETURN: 0.0058

cpu0->cpu0_STLB TOTAL        ACCESS:      88382 HIT:      76347 MISS:      12035 MSHR_MERGE:          0
cpu0->cpu0_STLB LOAD         ACCESS:      88382 HIT:      76347 MISS:      12035 MSHR_MERGE:          0
cpu0->cpu0_STLB RFO          ACCESS:          0 HIT:          0 MISS:          0 MSHR_MERGE:          0
cpu0->cpu0_STLB PREFETCH     ACCESS:          0 HIT:          0 MISS:          0 MSHR_MERGE:          0
cpu0->cpu0_STLB WRITE        ACCESS:          0 HIT:          0 MISS:          0 MSHR_MERGE:          0
cpu0->cpu0_STLB TRANSLATION  ACCESS:          0 HIT:          0 MISS:          0 MSHR_MERGE:          0
cpu0->cpu0_STLB PREFETCH REQUESTED:          0 ISSUED:          0 USEFUL:          0 USELESS:          0 LATE:          0
cpu0->cpu0_STLB AVERAGE MISS LATENCY: 189.1 cycles
cpu0->cpu0_L2C TOTAL        ACCESS:    6797649 HIT:    3657783 MISS:    3139866 MSHR_MERGE:    1931035
cpu0->cpu0_L2C LOAD         ACCESS:     314792 HIT:     203893 MISS:     110899 MSHR_MERGE:      46439
cpu0->cpu0_L2C RFO          ACCESS:     256060 HIT:      71158 MISS:     184902 MSHR_MERGE:       1326
cpu0->cpu0_L2C PREFETCH     ACCESS:    5657328 HIT:    2815625 MISS:    2841703 MSHR_MERGE:    1883270
cpu0->cpu0_L2C WRITE        ACCESS:     565317 HIT:     565289 MISS:         28 MSHR_MERGE:          0
cpu0->cpu0_L2C TRANSLATION  ACCESS:       4152 HIT:       1818 MISS:       2334 MSHR_MERGE:          0
cpu0->cpu0_L2C PREFETCH REQUESTED:    6011394 ISSUED:    4742553 USEFUL:     680888 USELESS:     209655 LATE:      47765
cpu0->cpu0_L2C AVERAGE MISS LATENCY: 449.8 cycles
cpu0->cpu0_L1I TOTAL        ACCESS:    3604680 HIT:    3601000 MISS:       3680 MSHR_MERGE:       1292
cpu0->cpu0_L1I LOAD         ACCESS:    3604680 HIT:    3601000 MISS:       3680 MSHR_MERGE:       1292
cpu0->cpu0_L1I RFO          ACCESS:          0 HIT:          0 MISS:          0 MSHR_MERGE:          0
cpu0->cpu0_L1I PREFETCH     ACCESS:          0 HIT:          0 MISS:          0 MSHR_MERGE:          0
cpu0->cpu0_L1I WRITE        ACCESS:          0 HIT:          0 MISS:          0 MSHR_MERGE:          0
cpu0->cpu0_L1I TRANSLATION  ACCESS:          0 HIT:          0 MISS:          0 MSHR_MERGE:          0
cpu0->cpu0_L1I PREFETCH REQUESTED:          0 ISSUED:          0 USEFUL:          0 USELESS:          0 LATE:          0
cpu0->cpu0_L1I AVERAGE MISS LATENCY: 297.1 cycles
cpu0->cpu0_L1D TOTAL        ACCESS:   12537272 HIT:    9830819 MISS:    2706453 MSHR_MERGE:    1219048
cpu0->cpu0_L1D LOAD         ACCESS:    7887806 HIT:    7266222 MISS:     621584 MSHR_MERGE:     309179
cpu0->cpu0_L1D RFO          ACCESS:          0 HIT:          0 MISS:          0 MSHR_MERGE:          0
cpu0->cpu0_L1D PREFETCH     ACCESS:    1106801 HIT:     155336 MISS:     951465 MSHR_MERGE:      36693
cpu0->cpu0_L1D WRITE        ACCESS:    3518682 HIT:    2389589 MISS:    1129093 MSHR_MERGE:     873017
cpu0->cpu0_L1D TRANSLATION  ACCESS:      23983 HIT:      19672 MISS:       4311 MSHR_MERGE:        159
cpu0->cpu0_L1D PREFETCH REQUESTED:    1244192 ISSUED:    1106793 USEFUL:     876258 USELESS:      38488 LATE:     101435
cpu0->cpu0_L1D AVERAGE MISS LATENCY: 239.2 cycles
cpu0->cpu0_ITLB TOTAL        ACCESS:    3092928 HIT:    3092706 MISS:        222 MSHR_MERGE:        139
cpu0->cpu0_ITLB LOAD         ACCESS:    3092928 HIT:    3092706 MISS:        222 MSHR_MERGE:        139
cpu0->cpu0_ITLB RFO          ACCESS:          0 HIT:          0 MISS:          0 MSHR_MERGE:          0
cpu0->cpu0_ITLB PREFETCH     ACCESS:          0 HIT:          0 MISS:          0 MSHR_MERGE:          0
cpu0->cpu0_ITLB WRITE        ACCESS:          0 HIT:          0 MISS:          0 MSHR_MERGE:          0
cpu0->cpu0_ITLB TRANSLATION  ACCESS:          0 HIT:          0 MISS:          0 MSHR_MERGE:          0
cpu0->cpu0_ITLB PREFETCH REQUESTED:          0 ISSUED:          0 USEFUL:          0 USELESS:          0 LATE:          0
cpu0->cpu0_ITLB AVERAGE MISS LATENCY: 383.9 cycles
cpu0->cpu0_DTLB TOTAL        ACCESS:   11760814 HIT:   11607865 MISS:     152949 MSHR_MERGE:      64650
cpu0->cpu0_DTLB LOAD         ACCESS:   11760814 HIT:   11607865 MISS:     152949 MSHR_MERGE:      64650
cpu0->cpu0_DTLB RFO          ACCESS:          0 HIT:          0 MISS:          0 MSHR_MERGE:          0
cpu0->cpu0_DTLB PREFETCH     ACCESS:          0 HIT:          0 MISS:          0 MSHR_MERGE:          0
cpu0->cpu0_DTLB WRITE        ACCESS:          0 HIT:          0 MISS:          0 MSHR_MERGE:          0
cpu0->cpu0_DTLB TRANSLATION  ACCESS:          0 HIT:          0 MISS:          0 MSHR_MERGE:          0
cpu0->cpu0_DTLB PREFETCH REQUESTED:          0 ISSUED:          0 USEFUL:          0 USELESS:          0 LATE:          0
cpu0->cpu0_DTLB AVERAGE MISS LATENCY: 30.6 cycles
cpu0->LLC TOTAL        ACCESS:    1655202 HIT:     259501 MISS:    1395701 MSHR_MERGE:          0
cpu0->LLC LOAD         ACCESS:      64460 HIT:      15780 MISS:      48680 MSHR_MERGE:          0
cpu0->LLC RFO          ACCESS:     183576 HIT:       6473 MISS:     177103 MSHR_MERGE:          0
cpu0->LLC PREFETCH     ACCESS:     958433 HIT:     120166 MISS:     838267 MSHR_MERGE:          0
cpu0->LLC WRITE        ACCESS:     446399 HIT:     117051 MISS:     329348 MSHR_MERGE:          0
cpu0->LLC TRANSLATION  ACCESS:       2334 HIT:         31 MISS:       2303 MSHR_MERGE:          0
cpu0->LLC PREFETCH REQUESTED:          0 ISSUED:          0 USEFUL:          0 USELESS:          0 LATE:          0
cpu0->LLC AVERAGE MISS LATENCY: 212.1 cycles

DRAM Statistics

Channel 0 RQ ROW_BUFFER_HIT:      61661
  ROW_BUFFER_MISS:    1004250
  AVG DBUS CONGESTED CYCLE: 5.936
Channel 0 WQ ROW_BUFFER_HIT:      34266
  ROW_BUFFER_MISS:     351141
  FULL:       8740
Channel 0 REFRESHES ISSUED:       2700

[ROI Statistics]
[System Configuration]
num_cpus 1
cpu_freq 4000
fetch_width 6
decode_width 6
dispatch_width 6
execute_width 6
lq_width 2
sq_width 2
retire_width 6
scheduler_size 160
branch_mispredict_penalty 1
rob_size 352
lq_size 240
sq_size 112
ifetch_buffer_size 64
decode_buffer_size 32
dispatch_buffer_size 32
register_file_size 288
decode_latency 1
dispatch_latency 1
schedule_latency 0
execute_latency 0
page_size 4096
block_size 64
core_0_itlb_set 16
core_0_itlb_way 4
core_0_itlb_rq_size 16
core_0_itlb_wq_size 16
core_0_itlb_pq_size 0
core_0_itlb_mshr_size 8
core_0_itlb_hit_latency 1
core_0_itlb_fill_latency 1
core_0_itlb_max_tag_check 2
core_0_itlb_max_fill 2
core_0_dtlb_set 16
core_0_dtlb_way 4
core_0_dtlb_rq_size 16
core_0_dtlb_wq_size 16
core_0_dtlb_pq_size 0
core_0_dtlb_mshr_size 8
core_0_dtlb_hit_latency 1
core_0_dtlb_fill_latency 1
core_0_dtlb_max_tag_check 2
core_0_dtlb_max_fill 2
core_0_stlb_set 128
core_0_stlb_way 12
core_0_stlb_rq_size 32
core_0_stlb_wq_size 32
core_0_stlb_pq_size 0
core_0_stlb_mshr_size 16
core_0_stlb_hit_latency 4
core_0_stlb_fill_latency 4
core_0_stlb_max_tag_check 1
core_0_stlb_max_fill 1
core_0_l1i_set 64
core_0_l1i_way 8
core_0_l1i_rq_size 64
core_0_l1i_wq_size 64
core_0_l1i_pq_size 32
core_0_l1i_mshr_size 8
core_0_l1i_hit_latency 2
core_0_l1i_fill_latency 2
core_0_l1i_max_tag_check 2
core_0_l1i_max_fill 2
core_0_l1d_set 64
core_0_l1d_way 12
core_0_l1d_rq_size 64
core_0_l1d_wq_size 64
core_0_l1d_pq_size 8
core_0_l1d_mshr_size 16
core_0_l1d_hit_latency 2
core_0_l1d_fill_latency 3
core_0_l1d_max_tag_check 2
core_0_l1d_max_fill 2
core_0_l2c_set 1024
core_0_l2c_way 8
core_0_l2c_rq_size 32
core_0_l2c_wq_size 32
core_0_l2c_pq_size 16
core_0_l2c_mshr_size 32
core_0_l2c_hit_latency 5
core_0_l2c_fill_latency 5
core_0_l2c_max_tag_check 1
core_0_l2c_max_fill 1
llc_set 2048
llc_way 16
llc_rq_size 32
llc_wq_size 32
llc_pq_size 32
llc_mshr_size 64
llc_hit_latency 10
llc_fill_latency 10
llc_max_tag_check 1
llc_max_fill 1
dram_channels 1
dram_ranks 1
dram_bankgroups 8
dram_banks 4
dram_rows 16384
dram_columns 1024
dram_channel_width 8
dram_rq_size 64
dram_wq_size 64
dram_size 4294967296
core_0_itlb_prefetcher no
core_0_dtlb_prefetcher no
core_0_stlb_prefetcher no
core_0_l1i_prefetcher next_line
core_0_l1d_prefetcher berti
core_0_l2c_prefetcher pythia
llc_prefetcher no
llc_replacement drrip

Core_0_instructions 50000002
Core_0_cycles 32392677
Core_0_IPC 1.54356
Core_0_branch_prediction_accuracy 97.5425
Core_0_branch_MPKI 1.45784
Core_0_average_ROB_occupancy_at_mispredict 245.294

Core_0_ITLB_total_access 3092928
Core_0_ITLB_total_hit 3092706
Core_0_ITLB_total_miss 222
Core_0_ITLB_total_MPKI 0.00444
Core_0_ITLB_total_miss_rate 7.17766e-05
Core_0_ITLB_demand_access 3092928
Core_0_ITLB_demand_hit 3092706
Core_0_ITLB_demand_miss 222
Core_0_ITLB_demand_MPKI 0.00444
Core_0_ITLB_demand_miss_rate 7.17766e-05
Core_0_ITLB_load_access 3092928
Core_0_ITLB_load_hit 3092706
Core_0_ITLB_load_miss 222
Core_0_ITLB_load_MPKI 0.00444
Core_0_ITLB_load_miss_rate 7.17766e-05
Core_0_ITLB_rfo_access 0
Core_0_ITLB_rfo_hit 0
Core_0_ITLB_rfo_miss 0
Core_0_ITLB_rfo_MPKI 0
Core_0_ITLB_rfo_miss_rate 0
Core_0_ITLB_prefetch_access 0
Core_0_ITLB_prefetch_hit 0
Core_0_ITLB_prefetch_miss 0
Core_0_ITLB_prefetch_MPKI 0
Core_0_ITLB_prefetch_miss_rate 0
Core_0_ITLB_writeback_access 0
Core_0_ITLB_writeback_hit 0
Core_0_ITLB_writeback_miss 0
Core_0_ITLB_writeback_MPKI 0
Core_0_ITLB_writeback_miss_rate 0
Core_0_ITLB_prefetch_requested 0
Core_0_ITLB_prefetch_issued 0
Core_0_ITLB_prefetch_useful 0
Core_0_ITLB_prefetch_useless 0
Core_0_ITLB_prefetch_late 0
Core_0_ITLB_prefetch_accuracy 0
Core_0_ITLB_prefetch_coverage 0

Core_0_DTLB_total_access 11760814
Core_0_DTLB_total_hit 11607865
Core_0_DTLB_total_miss 152949
Core_0_DTLB_total_MPKI 3.05898
Core_0_DTLB_total_miss_rate 0.013005
Core_0_DTLB_demand_access 11760814
Core_0_DTLB_demand_hit 11607865
Core_0_DTLB_demand_miss 152949
Core_0_DTLB_demand_MPKI 3.05898
Core_0_DTLB_demand_miss_rate 0.013005
Core_0_DTLB_load_access 11760814
Core_0_DTLB_load_hit 11607865
Core_0_DTLB_load_miss 152949
Core_0_DTLB_load_MPKI 3.05898
Core_0_DTLB_load_miss_rate 0.013005
Core_0_DTLB_rfo_access 0
Core_0_DTLB_rfo_hit 0
Core_0_DTLB_rfo_miss 0
Core_0_DTLB_rfo_MPKI 0
Core_0_DTLB_rfo_miss_rate 0
Core_0_DTLB_prefetch_access 0
Core_0_DTLB_prefetch_hit 0
Core_0_DTLB_prefetch_miss 0
Core_0_DTLB_prefetch_MPKI 0
Core_0_DTLB_prefetch_miss_rate 0
Core_0_DTLB_writeback_access 0
Core_0_DTLB_writeback_hit 0
Core_0_DTLB_writeback_miss 0
Core_0_DTLB_writeback_MPKI 0
Core_0_DTLB_writeback_miss_rate 0
Core_0_DTLB_prefetch_requested 0
Core_0_DTLB_prefetch_issued 0
Core_0_DTLB_prefetch_useful 0
Core_0_DTLB_prefetch_useless 0
Core_0_DTLB_prefetch_late 0
Core_0_DTLB_prefetch_accuracy 0
Core_0_DTLB_prefetch_coverage 0

Core_0_STLB_total_access 88382
Core_0_STLB_total_hit 76347
Core_0_STLB_total_miss 12035
Core_0_STLB_total_MPKI 0.2407
Core_0_STLB_total_miss_rate 0.13617
Core_0_STLB_demand_access 88382
Core_0_STLB_demand_hit 76347
Core_0_STLB_demand_miss 12035
Core_0_STLB_demand_MPKI 0.2407
Core_0_STLB_demand_miss_rate 0.13617
Core_0_STLB_load_access 88382
Core_0_STLB_load_hit 76347
Core_0_STLB_load_miss 12035
Core_0_STLB_load_MPKI 0.2407
Core_0_STLB_load_miss_rate 0.13617
Core_0_STLB_rfo_access 0
Core_0_STLB_rfo_hit 0
Core_0_STLB_rfo_miss 0
Core_0_STLB_rfo_MPKI 0
Core_0_STLB_rfo_miss_rate 0
Core_0_STLB_prefetch_access 0
Core_0_STLB_prefetch_hit 0
Core_0_STLB_prefetch_miss 0
Core_0_STLB_prefetch_MPKI 0
Core_0_STLB_prefetch_miss_rate 0
Core_0_STLB_writeback_access 0
Core_0_STLB_writeback_hit 0
Core_0_STLB_writeback_miss 0
Core_0_STLB_writeback_MPKI 0
Core_0_STLB_writeback_miss_rate 0
Core_0_STLB_prefetch_requested 0
Core_0_STLB_prefetch_issued 0
Core_0_STLB_prefetch_useful 0
Core_0_STLB_prefetch_useless 0
Core_0_STLB_prefetch_late 0
Core_0_STLB_prefetch_accuracy 0
Core_0_STLB_prefetch_coverage 0

Core_0_L1I_total_access 3604680
Core_0_L1I_total_hit 3601000
Core_0_L1I_total_miss 3680
Core_0_L1I_total_MPKI 0.0736
Core_0_L1I_total_miss_rate 0.0010209
Core_0_L1I_demand_access 3604680
Core_0_L1I_demand_hit 3601000
Core_0_L1I_demand_miss 3680
Core_0_L1I_demand_MPKI 0.0736
Core_0_L1I_demand_miss_rate 0.0010209
Core_0_L1I_load_access 3604680
Core_0_L1I_load_hit 3601000
Core_0_L1I_load_miss 3680
Core_0_L1I_load_MPKI 0.0736
Core_0_L1I_load_miss_rate 0.0010209
Core_0_L1I_rfo_access 0
Core_0_L1I_rfo_hit 0
Core_0_L1I_rfo_miss 0
Core_0_L1I_rfo_MPKI 0
Core_0_L1I_rfo_miss_rate 0
Core_0_L1I_prefetch_access 0
Core_0_L1I_prefetch_hit 0
Core_0_L1I_prefetch_miss 0
Core_0_L1I_prefetch_MPKI 0
Core_0_L1I_prefetch_miss_rate 0
Core_0_L1I_writeback_access 0
Core_0_L1I_writeback_hit 0
Core_0_L1I_writeback_miss 0
Core_0_L1I_writeback_MPKI 0
Core_0_L1I_writeback_miss_rate 0
Core_0_L1I_prefetch_requested 0
Core_0_L1I_prefetch_issued 0
Core_0_L1I_prefetch_useful 0
Core_0_L1I_prefetch_useless 0
Core_0_L1I_prefetch_late 0
Core_0_L1I_prefetch_accuracy 0
Core_0_L1I_prefetch_coverage 0

Core_0_L1D_total_access 12513289
Core_0_L1D_total_hit 9811147
Core_0_L1D_total_miss 2702142
Core_0_L1D_total_MPKI 54.0428
Core_0_L1D_total_miss_rate 0.215942
Core_0_L1D_demand_access 7887806
Core_0_L1D_demand_hit 7266222
Core_0_L1D_demand_miss 621584
Core_0_L1D_demand_MPKI 12.4317
Core_0_L1D_demand_miss_rate 0.0788032
Core_0_L1D_load_access 7887806
Core_0_L1D_load_hit 7266222
Core_0_L1D_load_miss 621584
Core_0_L1D_load_MPKI 12.4317
Core_0_L1D_load_miss_rate 0.0788032
Core_0_L1D_rfo_access 0
Core_0_L1D_rfo_hit 0
Core_0_L1D_rfo_miss 0
Core_0_L1D_rfo_MPKI 0
Core_0_L1D_rfo_miss_rate 0
Core_0_L1D_prefetch_access 1106801
Core_0_L1D_prefetch_hit 155336
Core_0_L1D_prefetch_miss 951465
Core_0_L1D_prefetch_MPKI 19.0293
Core_0_L1D_prefetch_miss_rate 0.859653
Core_0_L1D_writeback_access 3518682
Core_0_L1D_writeback_hit 2389589
Core_0_L1D_writeback_miss 1129093
Core_0_L1D_writeback_MPKI 22.5819
Core_0_L1D_writeback_miss_rate 0.320885
Core_0_L1D_prefetch_requested 1244192
Core_0_L1D_prefetch_issued 1106793
Core_0_L1D_prefetch_useful 876258
Core_0_L1D_prefetch_useless 38488
Core_0_L1D_prefetch_late 101435
Core_0_L1D_prefetch_accuracy 0.791709
Core_0_L1D_prefetch_coverage 0.585014

Core_0_L2C_total_access 6793497
Core_0_L2C_total_hit 3655965
Core_0_L2C_total_miss 3137532
Core_0_L2C_total_MPKI 62.7506
Core_0_L2C_total_miss_rate 0.461843
Core_0_L2C_demand_access 570852
Core_0_L2C_demand_hit 275051
Core_0_L2C_demand_miss 295801
Core_0_L2C_demand_MPKI 5.91602
Core_0_L2C_demand_miss_rate 0.518175
Core_0_L2C_load_access 314792
Core_0_L2C_load_hit 203893
Core_0_L2C_load_miss 110899
Core_0_L2C_load_MPKI 2.21798
Core_0_L2C_load_miss_rate 0.352293
Core_0_L2C_rfo_access 256060
Core_0_L2C_rfo_hit 71158
Core_0_L2C_rfo_miss 184902
Core_0_L2C_rfo_MPKI 3.69804
Core_0_L2C_rfo_miss_rate 0.722104
Core_0_L2C_prefetch_access 5657328
Core_0_L2C_prefetch_hit 2815625
Core_0_L2C_prefetch_miss 2841703
Core_0_L2C_prefetch_MPKI 56.8341
Core_0_L2C_prefetch_miss_rate 0.502305
Core_0_L2C_writeback_access 565317
Core_0_L2C_writeback_hit 565289
Core_0_L2C_writeback_miss 28
Core_0_L2C_writeback_MPKI 0.00056
Core_0_L2C_writeback_miss_rate 4.95297e-05
Core_0_L2C_prefetch_requested 6011394
Core_0_L2C_prefetch_issued 4742553
Core_0_L2C_prefetch_useful 680888
Core_0_L2C_prefetch_useless 209655
Core_0_L2C_prefetch_late 47765
Core_0_L2C_prefetch_accuracy 0.14357
Core_0_L2C_prefetch_coverage 0.697139

Core_0_LLC_total_access 1652868
Core_0_LLC_total_hit 259470
Core_0_LLC_total_miss 1393398
Core_0_LLC_total_MPKI 27.868
Core_0_LLC_total_miss_rate 0.843018
Core_0_LLC_demand_access 248036
Core_0_LLC_demand_hit 22253
Core_0_LLC_demand_miss 225783
Core_0_LLC_demand_MPKI 4.51566
Core_0_LLC_demand_miss_rate 0.910283
Core_0_LLC_load_access 64460
Core_0_LLC_load_hit 15780
Core_0_LLC_load_miss 48680
Core_0_LLC_load_MPKI 0.9736
Core_0_LLC_load_miss_rate 0.755197
Core_0_LLC_rfo_access 183576
Core_0_LLC_rfo_hit 6473
Core_0_LLC_rfo_miss 177103
Core_0_LLC_rfo_MPKI 3.54206
Core_0_LLC_rfo_miss_rate 0.964739
Core_0_LLC_prefetch_access 958433
Core_0_LLC_prefetch_hit 120166
Core_0_LLC_prefetch_miss 838267
Core_0_LLC_prefetch_MPKI 16.7653
Core_0_LLC_prefetch_miss_rate 0.874622
Core_0_LLC_writeback_access 446399
Core_0_LLC_writeback_hit 117051
Core_0_LLC_writeback_miss 329348
Core_0_LLC_writeback_MPKI 6.58696
Core_0_LLC_writeback_miss_rate 0.737788
Core_0_LLC_prefetch_requested 0
Core_0_LLC_prefetch_issued 0
Core_0_LLC_prefetch_useful 0
Core_0_LLC_prefetch_useless 0
Core_0_LLC_prefetch_late 0
Core_0_LLC_prefetch_accuracy 0
Core_0_LLC_prefetch_coverage 0

[DRAM Statistics]
Channel_0_RQ_row_buffer_hit 61661
Channel_0_RQ_row_buffer_miss 1004250
Channel_0_WQ_row_buffer_hit 34266
Channel_0_WQ_row_buffer_miss 351141
Channel_0_WQ_full 8740
Channel_0_dbus_congested 4351078
DRAM_total_RQ_row_buffer_hit 61661
DRAM_total_RQ_row_buffer_miss 1004250
DRAM_total_WQ_row_buffer_hit 34266
DRAM_total_WQ_row_buffer_miss 351141
DRAM_total_WQ_full 8740
DRAM_total_dbus_congested 4351078
DRAM_avg_congested_cycle 5.93598

======STLB miss causes ========
Core_0_STLB_miss_cause_breakdown
Core_0_STLB_cause_Demand_Data_miss 11952
Core_0_STLB_cause_Demand_Data_miss_rate 0.135231
Core_0_STLB_cause_Demand_Instruction_miss 83
Core_0_STLB_cause_Demand_Instruction_miss_rate 0.000939105
Core_0_STLB_cause_L1D_Prefetch_miss 0
Core_0_STLB_cause_L1D_Prefetch_miss_rate 0
Core_0_STLB_cause_L1I_Prefetch_miss 0
Core_0_STLB_cause_L1I_Prefetch_miss_rate 0
Core_0_STLB_cause_Other_miss 0
Core_0_STLB_cause_Other_miss_rate 0
Core_0_STLB_Demand_miss 12035
Core_0_STLB_Demand_miss_rate 0.13617
Core_0_STLB_L1D_Prefetch_miss 0
Core_0_STLB_L1D_Prefetch_miss_rate 0
Core_0_STLB_Other_miss 0
Core_0_STLB_Other_miss_rate 0
