[VMEM] WARNING: physical memory size is smaller than virtual memory size.

*** ChampSim Multicore Out-of-Order Simulator ***
Warmup Instructions: 20000000
Simulation Instructions: 50000000
Number of CPUs: 1
Page size: 4096
STLB ideal mode: l1pref
Core 0: /data0/tzh/champsim_traces/SPEC17/638.imagick_s-824B.champsimtrace.xz
 L1D Berti prefetcher
Off-chip DRAM Size: 4 GiB Channels: 1 Width: 64-bit Data Rate: 3205 MT/s
Warmup halting CPU 0 at instruction 20000000 cycle 4014582 for remainder of phase
Warmup finished CPU 0 instructions: 20000000 cycles: 4014582 cumulative IPC: 4.982 (Simulation time: 00 hr 00 min 44 sec)
Warmup complete CPU 0 instructions: 20000000 cycles: 4014582 cumulative IPC: 4.982 (Simulation time: 00 hr 00 min 44 sec)
Simulation finished CPU 0 instructions: 50000001 cycles: 27553369 cumulative IPC: 1.815 (Simulation time: 00 hr 05 min 31 sec)
Simulation complete CPU 0 instructions: 50000001 cycles: 27553369 cumulative IPC: 1.815 (Simulation time: 00 hr 05 min 31 sec)

ChampSim completed all CPUs

=== Simulation ===
CPU 0 runs /data0/tzh/champsim_traces/SPEC17/638.imagick_s-824B.champsimtrace.xz

Region of Interest Statistics

CPU 0 cumulative IPC: 1.815 instructions: 50000001 cycles: 27553369
CPU 0 Branch Prediction Accuracy: 99.83% MPKI: 0.2798 Average ROB Occupancy at Mispredict: 256.2
Branch type MPKI
BRANCH_DIRECT_JUMP: 0
BRANCH_INDIRECT: 2e-05
BRANCH_CONDITIONAL: 0.2798
BRANCH_DIRECT_CALL: 0
BRANCH_INDIRECT_CALL: 0
BRANCH_RETURN: 0

cpu0->cpu0_STLB TOTAL        ACCESS:        167 HIT:          1 MISS:        166 MSHR_MERGE:          0
cpu0->cpu0_STLB LOAD         ACCESS:        167 HIT:          1 MISS:        166 MSHR_MERGE:          0
cpu0->cpu0_STLB RFO          ACCESS:          0 HIT:          0 MISS:          0 MSHR_MERGE:          0
cpu0->cpu0_STLB PREFETCH     ACCESS:          0 HIT:          0 MISS:          0 MSHR_MERGE:          0
cpu0->cpu0_STLB WRITE        ACCESS:          0 HIT:          0 MISS:          0 MSHR_MERGE:          0
cpu0->cpu0_STLB TRANSLATION  ACCESS:          0 HIT:          0 MISS:          0 MSHR_MERGE:          0
cpu0->cpu0_STLB PREFETCH REQUESTED:          0 ISSUED:          0 USEFUL:          0 USELESS:          0 LATE:          0
cpu0->cpu0_STLB AVERAGE MISS LATENCY: 231.2 cycles
cpu0->cpu0_L2C TOTAL        ACCESS:      76261 HIT:      65420 MISS:      10841 MSHR_MERGE:        168
cpu0->cpu0_L2C LOAD         ACCESS:        232 HIT:         66 MISS:        166 MSHR_MERGE:          0
cpu0->cpu0_L2C RFO          ACCESS:         27 HIT:         27 MISS:          0 MSHR_MERGE:          0
cpu0->cpu0_L2C PREFETCH     ACCESS:      65304 HIT:      54650 MISS:      10654 MSHR_MERGE:        168
cpu0->cpu0_L2C WRITE        ACCESS:      10677 HIT:      10677 MISS:          0 MSHR_MERGE:          0
cpu0->cpu0_L2C TRANSLATION  ACCESS:         21 HIT:          0 MISS:         21 MSHR_MERGE:          0
cpu0->cpu0_L2C PREFETCH REQUESTED:      54817 ISSUED:      54817 USEFUL:      10299 USELESS:         35 LATE:          0
cpu0->cpu0_L2C AVERAGE MISS LATENCY: 156.8 cycles
cpu0->cpu0_L1I TOTAL        ACCESS:   11270965 HIT:   11270965 MISS:          0 MSHR_MERGE:          0
cpu0->cpu0_L1I LOAD         ACCESS:   11270965 HIT:   11270965 MISS:          0 MSHR_MERGE:          0
cpu0->cpu0_L1I RFO          ACCESS:          0 HIT:          0 MISS:          0 MSHR_MERGE:          0
cpu0->cpu0_L1I PREFETCH     ACCESS:          0 HIT:          0 MISS:          0 MSHR_MERGE:          0
cpu0->cpu0_L1I WRITE        ACCESS:          0 HIT:          0 MISS:          0 MSHR_MERGE:          0
cpu0->cpu0_L1I TRANSLATION  ACCESS:          0 HIT:          0 MISS:          0 MSHR_MERGE:          0
cpu0->cpu0_L1I PREFETCH REQUESTED:          0 ISSUED:          0 USEFUL:          0 USELESS:          0 LATE:          0
cpu0->cpu0_L1I AVERAGE MISS LATENCY: - cycles
cpu0->cpu0_L1D TOTAL        ACCESS:    9607816 HIT:    9596797 MISS:      11019 MSHR_MERGE:        252
cpu0->cpu0_L1D LOAD         ACCESS:    7093590 HIT:    7093175 MISS:        415 MSHR_MERGE:        183
cpu0->cpu0_L1D RFO          ACCESS:          0 HIT:          0 MISS:          0 MSHR_MERGE:          0
cpu0->cpu0_L1D PREFETCH     ACCESS:      10562 HIT:         75 MISS:      10487 MSHR_MERGE:          0
cpu0->cpu0_L1D WRITE        ACCESS:    2503332 HIT:    2503236 MISS:         96 MSHR_MERGE:         69
cpu0->cpu0_L1D TRANSLATION  ACCESS:        332 HIT:        311 MISS:         21 MSHR_MERGE:          0
cpu0->cpu0_L1D PREFETCH REQUESTED:      10562 ISSUED:      10562 USEFUL:      10480 USELESS:          7 LATE:          0
cpu0->cpu0_L1D AVERAGE MISS LATENCY: 113.4 cycles
cpu0->cpu0_ITLB TOTAL        ACCESS:   10289032 HIT:   10289032 MISS:          0 MSHR_MERGE:          0
cpu0->cpu0_ITLB LOAD         ACCESS:   10289032 HIT:   10289032 MISS:          0 MSHR_MERGE:          0
cpu0->cpu0_ITLB RFO          ACCESS:          0 HIT:          0 MISS:          0 MSHR_MERGE:          0
cpu0->cpu0_ITLB PREFETCH     ACCESS:          0 HIT:          0 MISS:          0 MSHR_MERGE:          0
cpu0->cpu0_ITLB WRITE        ACCESS:          0 HIT:          0 MISS:          0 MSHR_MERGE:          0
cpu0->cpu0_ITLB TRANSLATION  ACCESS:          0 HIT:          0 MISS:          0 MSHR_MERGE:          0
cpu0->cpu0_ITLB PREFETCH REQUESTED:          0 ISSUED:          0 USEFUL:          0 USELESS:          0 LATE:          0
cpu0->cpu0_ITLB AVERAGE MISS LATENCY: - cycles
cpu0->cpu0_DTLB TOTAL        ACCESS:    9520845 HIT:    9520502 MISS:        343 MSHR_MERGE:        176
cpu0->cpu0_DTLB LOAD         ACCESS:    9520845 HIT:    9520502 MISS:        343 MSHR_MERGE:        176
cpu0->cpu0_DTLB RFO          ACCESS:          0 HIT:          0 MISS:          0 MSHR_MERGE:          0
cpu0->cpu0_DTLB PREFETCH     ACCESS:          0 HIT:          0 MISS:          0 MSHR_MERGE:          0
cpu0->cpu0_DTLB WRITE        ACCESS:          0 HIT:          0 MISS:          0 MSHR_MERGE:          0
cpu0->cpu0_DTLB TRANSLATION  ACCESS:          0 HIT:          0 MISS:          0 MSHR_MERGE:          0
cpu0->cpu0_DTLB PREFETCH REQUESTED:          0 ISSUED:          0 USEFUL:          0 USELESS:          0 LATE:          0
cpu0->cpu0_DTLB AVERAGE MISS LATENCY: 235.8 cycles
cpu0->LLC TOTAL        ACCESS:      17253 HIT:       6581 MISS:      10672 MSHR_MERGE:          0
cpu0->LLC LOAD         ACCESS:        166 HIT:          0 MISS:        166 MSHR_MERGE:          0
cpu0->LLC RFO          ACCESS:          0 HIT:          0 MISS:          0 MSHR_MERGE:          0
cpu0->LLC PREFETCH     ACCESS:      10486 HIT:          1 MISS:      10485 MSHR_MERGE:          0
cpu0->LLC WRITE        ACCESS:       6580 HIT:       6580 MISS:          0 MSHR_MERGE:          0
cpu0->LLC TRANSLATION  ACCESS:         21 HIT:          0 MISS:         21 MSHR_MERGE:          0
cpu0->LLC PREFETCH REQUESTED:          0 ISSUED:          0 USEFUL:          0 USELESS:          0 LATE:          0
cpu0->LLC AVERAGE MISS LATENCY: 140.8 cycles

DRAM Statistics

Channel 0 RQ ROW_BUFFER_HIT:          0
  ROW_BUFFER_MISS:      10672
  AVG DBUS CONGESTED CYCLE: 2.977
Channel 0 WQ ROW_BUFFER_HIT:          0
  ROW_BUFFER_MISS:          0
  FULL:          0
Channel 0 REFRESHES ISSUED:       2296

[ROI Statistics]
[System Configuration]
num_cpus 1
cpu_freq 4000
fetch_width 6
decode_width 6
dispatch_width 6
execute_width 6
lq_width 2
sq_width 2
retire_width 6
scheduler_size 160
branch_mispredict_penalty 1
rob_size 352
lq_size 240
sq_size 112
ifetch_buffer_size 64
decode_buffer_size 32
dispatch_buffer_size 32
register_file_size 288
decode_latency 1
dispatch_latency 1
schedule_latency 0
execute_latency 0
page_size 4096
block_size 64
core_0_itlb_set 16
core_0_itlb_way 4
core_0_itlb_rq_size 16
core_0_itlb_wq_size 16
core_0_itlb_pq_size 0
core_0_itlb_mshr_size 8
core_0_itlb_hit_latency 1
core_0_itlb_fill_latency 1
core_0_itlb_max_tag_check 2
core_0_itlb_max_fill 2
core_0_dtlb_set 16
core_0_dtlb_way 4
core_0_dtlb_rq_size 16
core_0_dtlb_wq_size 16
core_0_dtlb_pq_size 0
core_0_dtlb_mshr_size 8
core_0_dtlb_hit_latency 1
core_0_dtlb_fill_latency 1
core_0_dtlb_max_tag_check 2
core_0_dtlb_max_fill 2
core_0_stlb_set 128
core_0_stlb_way 12
core_0_stlb_rq_size 32
core_0_stlb_wq_size 32
core_0_stlb_pq_size 0
core_0_stlb_mshr_size 16
core_0_stlb_hit_latency 4
core_0_stlb_fill_latency 4
core_0_stlb_max_tag_check 1
core_0_stlb_max_fill 1
core_0_l1i_set 64
core_0_l1i_way 8
core_0_l1i_rq_size 64
core_0_l1i_wq_size 64
core_0_l1i_pq_size 32
core_0_l1i_mshr_size 8
core_0_l1i_hit_latency 2
core_0_l1i_fill_latency 2
core_0_l1i_max_tag_check 2
core_0_l1i_max_fill 2
core_0_l1d_set 64
core_0_l1d_way 12
core_0_l1d_rq_size 64
core_0_l1d_wq_size 64
core_0_l1d_pq_size 8
core_0_l1d_mshr_size 16
core_0_l1d_hit_latency 2
core_0_l1d_fill_latency 3
core_0_l1d_max_tag_check 2
core_0_l1d_max_fill 2
core_0_l2c_set 1024
core_0_l2c_way 8
core_0_l2c_rq_size 32
core_0_l2c_wq_size 32
core_0_l2c_pq_size 16
core_0_l2c_mshr_size 32
core_0_l2c_hit_latency 5
core_0_l2c_fill_latency 5
core_0_l2c_max_tag_check 1
core_0_l2c_max_fill 1
llc_set 2048
llc_way 16
llc_rq_size 32
llc_wq_size 32
llc_pq_size 32
llc_mshr_size 64
llc_hit_latency 10
llc_fill_latency 10
llc_max_tag_check 1
llc_max_fill 1
dram_channels 1
dram_ranks 1
dram_bankgroups 8
dram_banks 4
dram_rows 16384
dram_columns 1024
dram_channel_width 8
dram_rq_size 64
dram_wq_size 64
dram_size 4294967296
core_0_itlb_prefetcher no
core_0_dtlb_prefetcher no
core_0_stlb_prefetcher no
core_0_l1i_prefetcher next_line
core_0_l1d_prefetcher berti
core_0_l2c_prefetcher pythia
llc_prefetcher no
llc_replacement drrip

Core_0_instructions 50000001
Core_0_cycles 27553369
Core_0_IPC 1.81466
Core_0_branch_prediction_accuracy 99.8266
Core_0_branch_MPKI 0.27982
Core_0_average_ROB_occupancy_at_mispredict 256.211

Core_0_ITLB_total_access 10289032
Core_0_ITLB_total_hit 10289032
Core_0_ITLB_total_miss 0
Core_0_ITLB_total_MPKI 0
Core_0_ITLB_total_miss_rate 0
Core_0_ITLB_demand_access 10289032
Core_0_ITLB_demand_hit 10289032
Core_0_ITLB_demand_miss 0
Core_0_ITLB_demand_MPKI 0
Core_0_ITLB_demand_miss_rate 0
Core_0_ITLB_load_access 10289032
Core_0_ITLB_load_hit 10289032
Core_0_ITLB_load_miss 0
Core_0_ITLB_load_MPKI 0
Core_0_ITLB_load_miss_rate 0
Core_0_ITLB_rfo_access 0
Core_0_ITLB_rfo_hit 0
Core_0_ITLB_rfo_miss 0
Core_0_ITLB_rfo_MPKI 0
Core_0_ITLB_rfo_miss_rate 0
Core_0_ITLB_prefetch_access 0
Core_0_ITLB_prefetch_hit 0
Core_0_ITLB_prefetch_miss 0
Core_0_ITLB_prefetch_MPKI 0
Core_0_ITLB_prefetch_miss_rate 0
Core_0_ITLB_writeback_access 0
Core_0_ITLB_writeback_hit 0
Core_0_ITLB_writeback_miss 0
Core_0_ITLB_writeback_MPKI 0
Core_0_ITLB_writeback_miss_rate 0
Core_0_ITLB_prefetch_requested 0
Core_0_ITLB_prefetch_issued 0
Core_0_ITLB_prefetch_useful 0
Core_0_ITLB_prefetch_useless 0
Core_0_ITLB_prefetch_late 0
Core_0_ITLB_prefetch_accuracy 0
Core_0_ITLB_prefetch_coverage 0

Core_0_DTLB_total_access 9520845
Core_0_DTLB_total_hit 9520502
Core_0_DTLB_total_miss 343
Core_0_DTLB_total_MPKI 0.00686
Core_0_DTLB_total_miss_rate 3.60262e-05
Core_0_DTLB_demand_access 9520845
Core_0_DTLB_demand_hit 9520502
Core_0_DTLB_demand_miss 343
Core_0_DTLB_demand_MPKI 0.00686
Core_0_DTLB_demand_miss_rate 3.60262e-05
Core_0_DTLB_load_access 9520845
Core_0_DTLB_load_hit 9520502
Core_0_DTLB_load_miss 343
Core_0_DTLB_load_MPKI 0.00686
Core_0_DTLB_load_miss_rate 3.60262e-05
Core_0_DTLB_rfo_access 0
Core_0_DTLB_rfo_hit 0
Core_0_DTLB_rfo_miss 0
Core_0_DTLB_rfo_MPKI 0
Core_0_DTLB_rfo_miss_rate 0
Core_0_DTLB_prefetch_access 0
Core_0_DTLB_prefetch_hit 0
Core_0_DTLB_prefetch_miss 0
Core_0_DTLB_prefetch_MPKI 0
Core_0_DTLB_prefetch_miss_rate 0
Core_0_DTLB_writeback_access 0
Core_0_DTLB_writeback_hit 0
Core_0_DTLB_writeback_miss 0
Core_0_DTLB_writeback_MPKI 0
Core_0_DTLB_writeback_miss_rate 0
Core_0_DTLB_prefetch_requested 0
Core_0_DTLB_prefetch_issued 0
Core_0_DTLB_prefetch_useful 0
Core_0_DTLB_prefetch_useless 0
Core_0_DTLB_prefetch_late 0
Core_0_DTLB_prefetch_accuracy 0
Core_0_DTLB_prefetch_coverage 0

Core_0_STLB_total_access 167
Core_0_STLB_total_hit 1
Core_0_STLB_total_miss 166
Core_0_STLB_total_MPKI 0.00332
Core_0_STLB_total_miss_rate 0.994012
Core_0_STLB_demand_access 167
Core_0_STLB_demand_hit 1
Core_0_STLB_demand_miss 166
Core_0_STLB_demand_MPKI 0.00332
Core_0_STLB_demand_miss_rate 0.994012
Core_0_STLB_load_access 167
Core_0_STLB_load_hit 1
Core_0_STLB_load_miss 166
Core_0_STLB_load_MPKI 0.00332
Core_0_STLB_load_miss_rate 0.994012
Core_0_STLB_rfo_access 0
Core_0_STLB_rfo_hit 0
Core_0_STLB_rfo_miss 0
Core_0_STLB_rfo_MPKI 0
Core_0_STLB_rfo_miss_rate 0
Core_0_STLB_prefetch_access 0
Core_0_STLB_prefetch_hit 0
Core_0_STLB_prefetch_miss 0
Core_0_STLB_prefetch_MPKI 0
Core_0_STLB_prefetch_miss_rate 0
Core_0_STLB_writeback_access 0
Core_0_STLB_writeback_hit 0
Core_0_STLB_writeback_miss 0
Core_0_STLB_writeback_MPKI 0
Core_0_STLB_writeback_miss_rate 0
Core_0_STLB_prefetch_requested 0
Core_0_STLB_prefetch_issued 0
Core_0_STLB_prefetch_useful 0
Core_0_STLB_prefetch_useless 0
Core_0_STLB_prefetch_late 0
Core_0_STLB_prefetch_accuracy 0
Core_0_STLB_prefetch_coverage 0

Core_0_L1I_total_access 11270965
Core_0_L1I_total_hit 11270965
Core_0_L1I_total_miss 0
Core_0_L1I_total_MPKI 0
Core_0_L1I_total_miss_rate 0
Core_0_L1I_demand_access 11270965
Core_0_L1I_demand_hit 11270965
Core_0_L1I_demand_miss 0
Core_0_L1I_demand_MPKI 0
Core_0_L1I_demand_miss_rate 0
Core_0_L1I_load_access 11270965
Core_0_L1I_load_hit 11270965
Core_0_L1I_load_miss 0
Core_0_L1I_load_MPKI 0
Core_0_L1I_load_miss_rate 0
Core_0_L1I_rfo_access 0
Core_0_L1I_rfo_hit 0
Core_0_L1I_rfo_miss 0
Core_0_L1I_rfo_MPKI 0
Core_0_L1I_rfo_miss_rate 0
Core_0_L1I_prefetch_access 0
Core_0_L1I_prefetch_hit 0
Core_0_L1I_prefetch_miss 0
Core_0_L1I_prefetch_MPKI 0
Core_0_L1I_prefetch_miss_rate 0
Core_0_L1I_writeback_access 0
Core_0_L1I_writeback_hit 0
Core_0_L1I_writeback_miss 0
Core_0_L1I_writeback_MPKI 0
Core_0_L1I_writeback_miss_rate 0
Core_0_L1I_prefetch_requested 0
Core_0_L1I_prefetch_issued 0
Core_0_L1I_prefetch_useful 0
Core_0_L1I_prefetch_useless 0
Core_0_L1I_prefetch_late 0
Core_0_L1I_prefetch_accuracy 0
Core_0_L1I_prefetch_coverage 0

Core_0_L1D_total_access 9607484
Core_0_L1D_total_hit 9596486
Core_0_L1D_total_miss 10998
Core_0_L1D_total_MPKI 0.21996
Core_0_L1D_total_miss_rate 0.00114473
Core_0_L1D_demand_access 7093590
Core_0_L1D_demand_hit 7093175
Core_0_L1D_demand_miss 415
Core_0_L1D_demand_MPKI 0.0083
Core_0_L1D_demand_miss_rate 5.85035e-05
Core_0_L1D_load_access 7093590
Core_0_L1D_load_hit 7093175
Core_0_L1D_load_miss 415
Core_0_L1D_load_MPKI 0.0083
Core_0_L1D_load_miss_rate 5.85035e-05
Core_0_L1D_rfo_access 0
Core_0_L1D_rfo_hit 0
Core_0_L1D_rfo_miss 0
Core_0_L1D_rfo_MPKI 0
Core_0_L1D_rfo_miss_rate 0
Core_0_L1D_prefetch_access 10562
Core_0_L1D_prefetch_hit 75
Core_0_L1D_prefetch_miss 10487
Core_0_L1D_prefetch_MPKI 0.20974
Core_0_L1D_prefetch_miss_rate 0.992899
Core_0_L1D_writeback_access 2503332
Core_0_L1D_writeback_hit 2503236
Core_0_L1D_writeback_miss 96
Core_0_L1D_writeback_MPKI 0.00192
Core_0_L1D_writeback_miss_rate 3.83489e-05
Core_0_L1D_prefetch_requested 10562
Core_0_L1D_prefetch_issued 10562
Core_0_L1D_prefetch_useful 10480
Core_0_L1D_prefetch_useless 7
Core_0_L1D_prefetch_late 0
Core_0_L1D_prefetch_accuracy 0.992236
Core_0_L1D_prefetch_coverage 0.961909

Core_0_L2C_total_access 76240
Core_0_L2C_total_hit 65420
Core_0_L2C_total_miss 10820
Core_0_L2C_total_MPKI 0.2164
Core_0_L2C_total_miss_rate 0.14192
Core_0_L2C_demand_access 259
Core_0_L2C_demand_hit 93
Core_0_L2C_demand_miss 166
Core_0_L2C_demand_MPKI 0.00332
Core_0_L2C_demand_miss_rate 0.640927
Core_0_L2C_load_access 232
Core_0_L2C_load_hit 66
Core_0_L2C_load_miss 166
Core_0_L2C_load_MPKI 0.00332
Core_0_L2C_load_miss_rate 0.715517
Core_0_L2C_rfo_access 27
Core_0_L2C_rfo_hit 27
Core_0_L2C_rfo_miss 0
Core_0_L2C_rfo_MPKI 0
Core_0_L2C_rfo_miss_rate 0
Core_0_L2C_prefetch_access 65304
Core_0_L2C_prefetch_hit 54650
Core_0_L2C_prefetch_miss 10654
Core_0_L2C_prefetch_MPKI 0.21308
Core_0_L2C_prefetch_miss_rate 0.163145
Core_0_L2C_writeback_access 10677
Core_0_L2C_writeback_hit 10677
Core_0_L2C_writeback_miss 0
Core_0_L2C_writeback_MPKI 0
Core_0_L2C_writeback_miss_rate 0
Core_0_L2C_prefetch_requested 54817
Core_0_L2C_prefetch_issued 54817
Core_0_L2C_prefetch_useful 10299
Core_0_L2C_prefetch_useless 35
Core_0_L2C_prefetch_late 0
Core_0_L2C_prefetch_accuracy 0.18788
Core_0_L2C_prefetch_coverage 0.984138

Core_0_LLC_total_access 17232
Core_0_LLC_total_hit 6581
Core_0_LLC_total_miss 10651
Core_0_LLC_total_MPKI 0.21302
Core_0_LLC_total_miss_rate 0.618094
Core_0_LLC_demand_access 166
Core_0_LLC_demand_hit 0
Core_0_LLC_demand_miss 166
Core_0_LLC_demand_MPKI 0.00332
Core_0_LLC_demand_miss_rate 1
Core_0_LLC_load_access 166
Core_0_LLC_load_hit 0
Core_0_LLC_load_miss 166
Core_0_LLC_load_MPKI 0.00332
Core_0_LLC_load_miss_rate 1
Core_0_LLC_rfo_access 0
Core_0_LLC_rfo_hit 0
Core_0_LLC_rfo_miss 0
Core_0_LLC_rfo_MPKI 0
Core_0_LLC_rfo_miss_rate 0
Core_0_LLC_prefetch_access 10486
Core_0_LLC_prefetch_hit 1
Core_0_LLC_prefetch_miss 10485
Core_0_LLC_prefetch_MPKI 0.2097
Core_0_LLC_prefetch_miss_rate 0.999905
Core_0_LLC_writeback_access 6580
Core_0_LLC_writeback_hit 6580
Core_0_LLC_writeback_miss 0
Core_0_LLC_writeback_MPKI 0
Core_0_LLC_writeback_miss_rate 0
Core_0_LLC_prefetch_requested 0
Core_0_LLC_prefetch_issued 0
Core_0_LLC_prefetch_useful 0
Core_0_LLC_prefetch_useless 0
Core_0_LLC_prefetch_late 0
Core_0_LLC_prefetch_accuracy 0
Core_0_LLC_prefetch_coverage 0

[DRAM Statistics]
Channel_0_RQ_row_buffer_hit 0
Channel_0_RQ_row_buffer_miss 10672
Channel_0_WQ_row_buffer_hit 0
Channel_0_WQ_row_buffer_miss 0
Channel_0_WQ_full 0
Channel_0_dbus_congested 3510
DRAM_total_RQ_row_buffer_hit 0
DRAM_total_RQ_row_buffer_miss 10672
DRAM_total_WQ_row_buffer_hit 0
DRAM_total_WQ_row_buffer_miss 0
DRAM_total_WQ_full 0
DRAM_total_dbus_congested 3510
DRAM_avg_congested_cycle 2.97664

======STLB miss causes ========
Core_0_STLB_miss_cause_breakdown
Core_0_STLB_cause_Demand_Data_miss 166
Core_0_STLB_cause_Demand_Data_miss_rate 0.994012
Core_0_STLB_cause_Demand_Instruction_miss 0
Core_0_STLB_cause_Demand_Instruction_miss_rate 0
Core_0_STLB_cause_L1D_Prefetch_miss 0
Core_0_STLB_cause_L1D_Prefetch_miss_rate 0
Core_0_STLB_cause_L1I_Prefetch_miss 0
Core_0_STLB_cause_L1I_Prefetch_miss_rate 0
Core_0_STLB_cause_Other_miss 0
Core_0_STLB_cause_Other_miss_rate 0
Core_0_STLB_Demand_miss 166
Core_0_STLB_Demand_miss_rate 0.994012
Core_0_STLB_L1D_Prefetch_miss 0
Core_0_STLB_L1D_Prefetch_miss_rate 0
Core_0_STLB_Other_miss 0
Core_0_STLB_Other_miss_rate 0
