[VMEM] WARNING: physical memory size is smaller than virtual memory size.

*** ChampSim Multicore Out-of-Order Simulator ***
Warmup Instructions: 20000000
Simulation Instructions: 50000000
Number of CPUs: 1
Page size: 4096
STLB ideal mode: l1pref
Core 0: /data0/tzh/champsim_traces/SPEC17/641.leela_s-1083B.champsimtrace.xz
 L1D Berti prefetcher
Off-chip DRAM Size: 4 GiB Channels: 1 Width: 64-bit Data Rate: 3205 MT/s
Warmup halting CPU 0 at instruction 20000004 cycle 4330193 for remainder of phase
Warmup finished CPU 0 instructions: 20000004 cycles: 4330193 cumulative IPC: 4.619 (Simulation time: 00 hr 00 min 48 sec)
Warmup complete CPU 0 instructions: 20000004 cycles: 4330193 cumulative IPC: 4.619 (Simulation time: 00 hr 00 min 48 sec)
Simulation finished CPU 0 instructions: 50000001 cycles: 30517353 cumulative IPC: 1.638 (Simulation time: 00 hr 04 min 08 sec)
Simulation complete CPU 0 instructions: 50000001 cycles: 30517353 cumulative IPC: 1.638 (Simulation time: 00 hr 04 min 08 sec)

ChampSim completed all CPUs

=== Simulation ===
CPU 0 runs /data0/tzh/champsim_traces/SPEC17/641.leela_s-1083B.champsimtrace.xz

Region of Interest Statistics

CPU 0 cumulative IPC: 1.638 instructions: 50000001 cycles: 30517353
CPU 0 Branch Prediction Accuracy: 89.11% MPKI: 18.31 Average ROB Occupancy at Mispredict: 27.84
Branch type MPKI
BRANCH_DIRECT_JUMP: 0.08876
BRANCH_INDIRECT: 0.00048
BRANCH_CONDITIONAL: 18.19
BRANCH_DIRECT_CALL: 0.00018
BRANCH_INDIRECT_CALL: 0
BRANCH_RETURN: 0.03592

cpu0->cpu0_STLB TOTAL        ACCESS:      24178 HIT:      24064 MISS:        114 MSHR_MERGE:          0
cpu0->cpu0_STLB LOAD         ACCESS:      24178 HIT:      24064 MISS:        114 MSHR_MERGE:          0
cpu0->cpu0_STLB RFO          ACCESS:          0 HIT:          0 MISS:          0 MSHR_MERGE:          0
cpu0->cpu0_STLB PREFETCH     ACCESS:          0 HIT:          0 MISS:          0 MSHR_MERGE:          0
cpu0->cpu0_STLB WRITE        ACCESS:          0 HIT:          0 MISS:          0 MSHR_MERGE:          0
cpu0->cpu0_STLB TRANSLATION  ACCESS:          0 HIT:          0 MISS:          0 MSHR_MERGE:          0
cpu0->cpu0_STLB PREFETCH REQUESTED:          0 ISSUED:          0 USEFUL:          0 USELESS:          0 LATE:          0
cpu0->cpu0_STLB AVERAGE MISS LATENCY: 240.5 cycles
cpu0->cpu0_L2C TOTAL        ACCESS:     427912 HIT:     409697 MISS:      18215 MSHR_MERGE:       3555
cpu0->cpu0_L2C LOAD         ACCESS:      67601 HIT:      65238 MISS:       2363 MSHR_MERGE:         67
cpu0->cpu0_L2C RFO          ACCESS:      14691 HIT:      14604 MISS:         87 MSHR_MERGE:          0
cpu0->cpu0_L2C PREFETCH     ACCESS:     315321 HIT:     299668 MISS:      15653 MSHR_MERGE:       3488
cpu0->cpu0_L2C WRITE        ACCESS:      30188 HIT:      30151 MISS:         37 MSHR_MERGE:          0
cpu0->cpu0_L2C TRANSLATION  ACCESS:        111 HIT:         36 MISS:         75 MSHR_MERGE:          0
cpu0->cpu0_L2C PREFETCH REQUESTED:     243584 ISSUED:     241675 USEFUL:       4667 USELESS:       5199 LATE:         67
cpu0->cpu0_L2C AVERAGE MISS LATENCY: 47.87 cycles
cpu0->cpu0_L1I TOTAL        ACCESS:      64302 HIT:      64273 MISS:         29 MSHR_MERGE:         16
cpu0->cpu0_L1I LOAD         ACCESS:      64302 HIT:      64273 MISS:         29 MSHR_MERGE:         16
cpu0->cpu0_L1I RFO          ACCESS:          0 HIT:          0 MISS:          0 MSHR_MERGE:          0
cpu0->cpu0_L1I PREFETCH     ACCESS:          0 HIT:          0 MISS:          0 MSHR_MERGE:          0
cpu0->cpu0_L1I WRITE        ACCESS:          0 HIT:          0 MISS:          0 MSHR_MERGE:          0
cpu0->cpu0_L1I TRANSLATION  ACCESS:          0 HIT:          0 MISS:          0 MSHR_MERGE:          0
cpu0->cpu0_L1I PREFETCH REQUESTED:          0 ISSUED:          0 USEFUL:          0 USELESS:          0 LATE:          0
cpu0->cpu0_L1I AVERAGE MISS LATENCY: 129.3 cycles
cpu0->cpu0_L1D TOTAL        ACCESS:   14540389 HIT:   14347408 MISS:     192981 MSHR_MERGE:      36945
cpu0->cpu0_L1D LOAD         ACCESS:    8790562 HIT:    8714710 MISS:      75852 MSHR_MERGE:       8264
cpu0->cpu0_L1D RFO          ACCESS:          0 HIT:          0 MISS:          0 MSHR_MERGE:          0
cpu0->cpu0_L1D PREFETCH     ACCESS:     134485 HIT:      59167 MISS:      75318 MSHR_MERGE:       1672
cpu0->cpu0_L1D WRITE        ACCESS:    5615114 HIT:    5573414 MISS:      41700 MSHR_MERGE:      27009
cpu0->cpu0_L1D TRANSLATION  ACCESS:        228 HIT:        117 MISS:        111 MSHR_MERGE:          0
cpu0->cpu0_L1D PREFETCH REQUESTED:     144362 ISSUED:     134485 USEFUL:      48687 USELESS:      24951 LATE:       3669
cpu0->cpu0_L1D AVERAGE MISS LATENCY: 9.646 cycles
cpu0->cpu0_ITLB TOTAL        ACCESS:      64007 HIT:      64007 MISS:          0 MSHR_MERGE:          0
cpu0->cpu0_ITLB LOAD         ACCESS:      64007 HIT:      64007 MISS:          0 MSHR_MERGE:          0
cpu0->cpu0_ITLB RFO          ACCESS:          0 HIT:          0 MISS:          0 MSHR_MERGE:          0
cpu0->cpu0_ITLB PREFETCH     ACCESS:          0 HIT:          0 MISS:          0 MSHR_MERGE:          0
cpu0->cpu0_ITLB WRITE        ACCESS:          0 HIT:          0 MISS:          0 MSHR_MERGE:          0
cpu0->cpu0_ITLB TRANSLATION  ACCESS:          0 HIT:          0 MISS:          0 MSHR_MERGE:          0
cpu0->cpu0_ITLB PREFETCH REQUESTED:          0 ISSUED:          0 USEFUL:          0 USELESS:          0 LATE:          0
cpu0->cpu0_ITLB AVERAGE MISS LATENCY: - cycles
cpu0->cpu0_DTLB TOTAL        ACCESS:   13740500 HIT:   13713194 MISS:      27306 MSHR_MERGE:       3128
cpu0->cpu0_DTLB LOAD         ACCESS:   13740500 HIT:   13713194 MISS:      27306 MSHR_MERGE:       3128
cpu0->cpu0_DTLB RFO          ACCESS:          0 HIT:          0 MISS:          0 MSHR_MERGE:          0
cpu0->cpu0_DTLB PREFETCH     ACCESS:          0 HIT:          0 MISS:          0 MSHR_MERGE:          0
cpu0->cpu0_DTLB WRITE        ACCESS:          0 HIT:          0 MISS:          0 MSHR_MERGE:          0
cpu0->cpu0_DTLB TRANSLATION  ACCESS:          0 HIT:          0 MISS:          0 MSHR_MERGE:          0
cpu0->cpu0_DTLB PREFETCH REQUESTED:          0 ISSUED:          0 USEFUL:          0 USELESS:          0 LATE:          0
cpu0->cpu0_DTLB AVERAGE MISS LATENCY: 6.139 cycles
cpu0->LLC TOTAL        ACCESS:      15883 HIT:      10730 MISS:       5153 MSHR_MERGE:          0
cpu0->LLC LOAD         ACCESS:       2296 HIT:       1869 MISS:        427 MSHR_MERGE:          0
cpu0->LLC RFO          ACCESS:         87 HIT:         43 MISS:         44 MSHR_MERGE:          0
cpu0->LLC PREFETCH     ACCESS:      12165 HIT:       7517 MISS:       4648 MSHR_MERGE:          0
cpu0->LLC WRITE        ACCESS:       1260 HIT:       1260 MISS:          0 MSHR_MERGE:          0
cpu0->LLC TRANSLATION  ACCESS:         75 HIT:         41 MISS:         34 MSHR_MERGE:          0
cpu0->LLC PREFETCH REQUESTED:          0 ISSUED:          0 USEFUL:          0 USELESS:          0 LATE:          0
cpu0->LLC AVERAGE MISS LATENCY: 154.6 cycles

DRAM Statistics

Channel 0 RQ ROW_BUFFER_HIT:        299
  ROW_BUFFER_MISS:       4854
  AVG DBUS CONGESTED CYCLE: 2.601
Channel 0 WQ ROW_BUFFER_HIT:          0
  ROW_BUFFER_MISS:          0
  FULL:          0
Channel 0 REFRESHES ISSUED:       2543

[ROI Statistics]
[System Configuration]
num_cpus 1
cpu_freq 4000
fetch_width 6
decode_width 6
dispatch_width 6
execute_width 6
lq_width 2
sq_width 2
retire_width 6
scheduler_size 160
branch_mispredict_penalty 1
rob_size 352
lq_size 240
sq_size 112
ifetch_buffer_size 64
decode_buffer_size 32
dispatch_buffer_size 32
register_file_size 288
decode_latency 1
dispatch_latency 1
schedule_latency 0
execute_latency 0
page_size 4096
block_size 64
core_0_itlb_set 16
core_0_itlb_way 4
core_0_itlb_rq_size 16
core_0_itlb_wq_size 16
core_0_itlb_pq_size 0
core_0_itlb_mshr_size 8
core_0_itlb_hit_latency 1
core_0_itlb_fill_latency 1
core_0_itlb_max_tag_check 2
core_0_itlb_max_fill 2
core_0_dtlb_set 16
core_0_dtlb_way 4
core_0_dtlb_rq_size 16
core_0_dtlb_wq_size 16
core_0_dtlb_pq_size 0
core_0_dtlb_mshr_size 8
core_0_dtlb_hit_latency 1
core_0_dtlb_fill_latency 1
core_0_dtlb_max_tag_check 2
core_0_dtlb_max_fill 2
core_0_stlb_set 128
core_0_stlb_way 12
core_0_stlb_rq_size 32
core_0_stlb_wq_size 32
core_0_stlb_pq_size 0
core_0_stlb_mshr_size 16
core_0_stlb_hit_latency 4
core_0_stlb_fill_latency 4
core_0_stlb_max_tag_check 1
core_0_stlb_max_fill 1
core_0_l1i_set 64
core_0_l1i_way 8
core_0_l1i_rq_size 64
core_0_l1i_wq_size 64
core_0_l1i_pq_size 32
core_0_l1i_mshr_size 8
core_0_l1i_hit_latency 2
core_0_l1i_fill_latency 2
core_0_l1i_max_tag_check 2
core_0_l1i_max_fill 2
core_0_l1d_set 64
core_0_l1d_way 12
core_0_l1d_rq_size 64
core_0_l1d_wq_size 64
core_0_l1d_pq_size 8
core_0_l1d_mshr_size 16
core_0_l1d_hit_latency 2
core_0_l1d_fill_latency 3
core_0_l1d_max_tag_check 2
core_0_l1d_max_fill 2
core_0_l2c_set 1024
core_0_l2c_way 8
core_0_l2c_rq_size 32
core_0_l2c_wq_size 32
core_0_l2c_pq_size 16
core_0_l2c_mshr_size 32
core_0_l2c_hit_latency 5
core_0_l2c_fill_latency 5
core_0_l2c_max_tag_check 1
core_0_l2c_max_fill 1
llc_set 2048
llc_way 16
llc_rq_size 32
llc_wq_size 32
llc_pq_size 32
llc_mshr_size 64
llc_hit_latency 10
llc_fill_latency 10
llc_max_tag_check 1
llc_max_fill 1
dram_channels 1
dram_ranks 1
dram_bankgroups 8
dram_banks 4
dram_rows 16384
dram_columns 1024
dram_channel_width 8
dram_rq_size 64
dram_wq_size 64
dram_size 4294967296
core_0_itlb_prefetcher no
core_0_dtlb_prefetcher no
core_0_stlb_prefetcher no
core_0_l1i_prefetcher next_line
core_0_l1d_prefetcher berti
core_0_l2c_prefetcher pythia
llc_prefetcher no
llc_replacement drrip

Core_0_instructions 50000001
Core_0_cycles 30517353
Core_0_IPC 1.63841
Core_0_branch_prediction_accuracy 89.1054
Core_0_branch_MPKI 18.3127
Core_0_average_ROB_occupancy_at_mispredict 27.835

Core_0_ITLB_total_access 64007
Core_0_ITLB_total_hit 64007
Core_0_ITLB_total_miss 0
Core_0_ITLB_total_MPKI 0
Core_0_ITLB_total_miss_rate 0
Core_0_ITLB_demand_access 64007
Core_0_ITLB_demand_hit 64007
Core_0_ITLB_demand_miss 0
Core_0_ITLB_demand_MPKI 0
Core_0_ITLB_demand_miss_rate 0
Core_0_ITLB_load_access 64007
Core_0_ITLB_load_hit 64007
Core_0_ITLB_load_miss 0
Core_0_ITLB_load_MPKI 0
Core_0_ITLB_load_miss_rate 0
Core_0_ITLB_rfo_access 0
Core_0_ITLB_rfo_hit 0
Core_0_ITLB_rfo_miss 0
Core_0_ITLB_rfo_MPKI 0
Core_0_ITLB_rfo_miss_rate 0
Core_0_ITLB_prefetch_access 0
Core_0_ITLB_prefetch_hit 0
Core_0_ITLB_prefetch_miss 0
Core_0_ITLB_prefetch_MPKI 0
Core_0_ITLB_prefetch_miss_rate 0
Core_0_ITLB_writeback_access 0
Core_0_ITLB_writeback_hit 0
Core_0_ITLB_writeback_miss 0
Core_0_ITLB_writeback_MPKI 0
Core_0_ITLB_writeback_miss_rate 0
Core_0_ITLB_prefetch_requested 0
Core_0_ITLB_prefetch_issued 0
Core_0_ITLB_prefetch_useful 0
Core_0_ITLB_prefetch_useless 0
Core_0_ITLB_prefetch_late 0
Core_0_ITLB_prefetch_accuracy 0
Core_0_ITLB_prefetch_coverage 0

Core_0_DTLB_total_access 13740500
Core_0_DTLB_total_hit 13713194
Core_0_DTLB_total_miss 27306
Core_0_DTLB_total_MPKI 0.54612
Core_0_DTLB_total_miss_rate 0.00198726
Core_0_DTLB_demand_access 13740500
Core_0_DTLB_demand_hit 13713194
Core_0_DTLB_demand_miss 27306
Core_0_DTLB_demand_MPKI 0.54612
Core_0_DTLB_demand_miss_rate 0.00198726
Core_0_DTLB_load_access 13740500
Core_0_DTLB_load_hit 13713194
Core_0_DTLB_load_miss 27306
Core_0_DTLB_load_MPKI 0.54612
Core_0_DTLB_load_miss_rate 0.00198726
Core_0_DTLB_rfo_access 0
Core_0_DTLB_rfo_hit 0
Core_0_DTLB_rfo_miss 0
Core_0_DTLB_rfo_MPKI 0
Core_0_DTLB_rfo_miss_rate 0
Core_0_DTLB_prefetch_access 0
Core_0_DTLB_prefetch_hit 0
Core_0_DTLB_prefetch_miss 0
Core_0_DTLB_prefetch_MPKI 0
Core_0_DTLB_prefetch_miss_rate 0
Core_0_DTLB_writeback_access 0
Core_0_DTLB_writeback_hit 0
Core_0_DTLB_writeback_miss 0
Core_0_DTLB_writeback_MPKI 0
Core_0_DTLB_writeback_miss_rate 0
Core_0_DTLB_prefetch_requested 0
Core_0_DTLB_prefetch_issued 0
Core_0_DTLB_prefetch_useful 0
Core_0_DTLB_prefetch_useless 0
Core_0_DTLB_prefetch_late 0
Core_0_DTLB_prefetch_accuracy 0
Core_0_DTLB_prefetch_coverage 0

Core_0_STLB_total_access 24178
Core_0_STLB_total_hit 24064
Core_0_STLB_total_miss 114
Core_0_STLB_total_MPKI 0.00228
Core_0_STLB_total_miss_rate 0.00471503
Core_0_STLB_demand_access 24178
Core_0_STLB_demand_hit 24064
Core_0_STLB_demand_miss 114
Core_0_STLB_demand_MPKI 0.00228
Core_0_STLB_demand_miss_rate 0.00471503
Core_0_STLB_load_access 24178
Core_0_STLB_load_hit 24064
Core_0_STLB_load_miss 114
Core_0_STLB_load_MPKI 0.00228
Core_0_STLB_load_miss_rate 0.00471503
Core_0_STLB_rfo_access 0
Core_0_STLB_rfo_hit 0
Core_0_STLB_rfo_miss 0
Core_0_STLB_rfo_MPKI 0
Core_0_STLB_rfo_miss_rate 0
Core_0_STLB_prefetch_access 0
Core_0_STLB_prefetch_hit 0
Core_0_STLB_prefetch_miss 0
Core_0_STLB_prefetch_MPKI 0
Core_0_STLB_prefetch_miss_rate 0
Core_0_STLB_writeback_access 0
Core_0_STLB_writeback_hit 0
Core_0_STLB_writeback_miss 0
Core_0_STLB_writeback_MPKI 0
Core_0_STLB_writeback_miss_rate 0
Core_0_STLB_prefetch_requested 0
Core_0_STLB_prefetch_issued 0
Core_0_STLB_prefetch_useful 0
Core_0_STLB_prefetch_useless 0
Core_0_STLB_prefetch_late 0
Core_0_STLB_prefetch_accuracy 0
Core_0_STLB_prefetch_coverage 0

Core_0_L1I_total_access 64302
Core_0_L1I_total_hit 64273
Core_0_L1I_total_miss 29
Core_0_L1I_total_MPKI 0.00058
Core_0_L1I_total_miss_rate 0.000450997
Core_0_L1I_demand_access 64302
Core_0_L1I_demand_hit 64273
Core_0_L1I_demand_miss 29
Core_0_L1I_demand_MPKI 0.00058
Core_0_L1I_demand_miss_rate 0.000450997
Core_0_L1I_load_access 64302
Core_0_L1I_load_hit 64273
Core_0_L1I_load_miss 29
Core_0_L1I_load_MPKI 0.00058
Core_0_L1I_load_miss_rate 0.000450997
Core_0_L1I_rfo_access 0
Core_0_L1I_rfo_hit 0
Core_0_L1I_rfo_miss 0
Core_0_L1I_rfo_MPKI 0
Core_0_L1I_rfo_miss_rate 0
Core_0_L1I_prefetch_access 0
Core_0_L1I_prefetch_hit 0
Core_0_L1I_prefetch_miss 0
Core_0_L1I_prefetch_MPKI 0
Core_0_L1I_prefetch_miss_rate 0
Core_0_L1I_writeback_access 0
Core_0_L1I_writeback_hit 0
Core_0_L1I_writeback_miss 0
Core_0_L1I_writeback_MPKI 0
Core_0_L1I_writeback_miss_rate 0
Core_0_L1I_prefetch_requested 0
Core_0_L1I_prefetch_issued 0
Core_0_L1I_prefetch_useful 0
Core_0_L1I_prefetch_useless 0
Core_0_L1I_prefetch_late 0
Core_0_L1I_prefetch_accuracy 0
Core_0_L1I_prefetch_coverage 0

Core_0_L1D_total_access 14540161
Core_0_L1D_total_hit 14347291
Core_0_L1D_total_miss 192870
Core_0_L1D_total_MPKI 3.8574
Core_0_L1D_total_miss_rate 0.0132646
Core_0_L1D_demand_access 8790562
Core_0_L1D_demand_hit 8714710
Core_0_L1D_demand_miss 75852
Core_0_L1D_demand_MPKI 1.51704
Core_0_L1D_demand_miss_rate 0.0086288
Core_0_L1D_load_access 8790562
Core_0_L1D_load_hit 8714710
Core_0_L1D_load_miss 75852
Core_0_L1D_load_MPKI 1.51704
Core_0_L1D_load_miss_rate 0.0086288
Core_0_L1D_rfo_access 0
Core_0_L1D_rfo_hit 0
Core_0_L1D_rfo_miss 0
Core_0_L1D_rfo_MPKI 0
Core_0_L1D_rfo_miss_rate 0
Core_0_L1D_prefetch_access 134485
Core_0_L1D_prefetch_hit 59167
Core_0_L1D_prefetch_miss 75318
Core_0_L1D_prefetch_MPKI 1.50636
Core_0_L1D_prefetch_miss_rate 0.560048
Core_0_L1D_writeback_access 5615114
Core_0_L1D_writeback_hit 5573414
Core_0_L1D_writeback_miss 41700
Core_0_L1D_writeback_MPKI 0.834
Core_0_L1D_writeback_miss_rate 0.00742639
Core_0_L1D_prefetch_requested 144362
Core_0_L1D_prefetch_issued 134485
Core_0_L1D_prefetch_useful 48687
Core_0_L1D_prefetch_useless 24951
Core_0_L1D_prefetch_late 3669
Core_0_L1D_prefetch_accuracy 0.362026
Core_0_L1D_prefetch_coverage 0.390938

Core_0_L2C_total_access 427801
Core_0_L2C_total_hit 409661
Core_0_L2C_total_miss 18140
Core_0_L2C_total_MPKI 0.3628
Core_0_L2C_total_miss_rate 0.0424029
Core_0_L2C_demand_access 82292
Core_0_L2C_demand_hit 79842
Core_0_L2C_demand_miss 2450
Core_0_L2C_demand_MPKI 0.049
Core_0_L2C_demand_miss_rate 0.029772
Core_0_L2C_load_access 67601
Core_0_L2C_load_hit 65238
Core_0_L2C_load_miss 2363
Core_0_L2C_load_MPKI 0.04726
Core_0_L2C_load_miss_rate 0.0349551
Core_0_L2C_rfo_access 14691
Core_0_L2C_rfo_hit 14604
Core_0_L2C_rfo_miss 87
Core_0_L2C_rfo_MPKI 0.00174
Core_0_L2C_rfo_miss_rate 0.00592199
Core_0_L2C_prefetch_access 315321
Core_0_L2C_prefetch_hit 299668
Core_0_L2C_prefetch_miss 15653
Core_0_L2C_prefetch_MPKI 0.31306
Core_0_L2C_prefetch_miss_rate 0.0496415
Core_0_L2C_writeback_access 30188
Core_0_L2C_writeback_hit 30151
Core_0_L2C_writeback_miss 37
Core_0_L2C_writeback_MPKI 0.00074
Core_0_L2C_writeback_miss_rate 0.00122565
Core_0_L2C_prefetch_requested 243584
Core_0_L2C_prefetch_issued 241675
Core_0_L2C_prefetch_useful 4667
Core_0_L2C_prefetch_useless 5199
Core_0_L2C_prefetch_late 67
Core_0_L2C_prefetch_accuracy 0.0193111
Core_0_L2C_prefetch_coverage 0.655754

Core_0_LLC_total_access 15808
Core_0_LLC_total_hit 10689
Core_0_LLC_total_miss 5119
Core_0_LLC_total_MPKI 0.10238
Core_0_LLC_total_miss_rate 0.323823
Core_0_LLC_demand_access 2383
Core_0_LLC_demand_hit 1912
Core_0_LLC_demand_miss 471
Core_0_LLC_demand_MPKI 0.00942
Core_0_LLC_demand_miss_rate 0.19765
Core_0_LLC_load_access 2296
Core_0_LLC_load_hit 1869
Core_0_LLC_load_miss 427
Core_0_LLC_load_MPKI 0.00854
Core_0_LLC_load_miss_rate 0.185976
Core_0_LLC_rfo_access 87
Core_0_LLC_rfo_hit 43
Core_0_LLC_rfo_miss 44
Core_0_LLC_rfo_MPKI 0.00088
Core_0_LLC_rfo_miss_rate 0.505747
Core_0_LLC_prefetch_access 12165
Core_0_LLC_prefetch_hit 7517
Core_0_LLC_prefetch_miss 4648
Core_0_LLC_prefetch_MPKI 0.09296
Core_0_LLC_prefetch_miss_rate 0.38208
Core_0_LLC_writeback_access 1260
Core_0_LLC_writeback_hit 1260
Core_0_LLC_writeback_miss 0
Core_0_LLC_writeback_MPKI 0
Core_0_LLC_writeback_miss_rate 0
Core_0_LLC_prefetch_requested 0
Core_0_LLC_prefetch_issued 0
Core_0_LLC_prefetch_useful 0
Core_0_LLC_prefetch_useless 0
Core_0_LLC_prefetch_late 0
Core_0_LLC_prefetch_accuracy 0
Core_0_LLC_prefetch_coverage 0

[DRAM Statistics]
Channel_0_RQ_row_buffer_hit 299
Channel_0_RQ_row_buffer_miss 4854
Channel_0_WQ_row_buffer_hit 0
Channel_0_WQ_row_buffer_miss 0
Channel_0_WQ_full 0
Channel_0_dbus_congested 3615
DRAM_total_RQ_row_buffer_hit 299
DRAM_total_RQ_row_buffer_miss 4854
DRAM_total_WQ_row_buffer_hit 0
DRAM_total_WQ_row_buffer_miss 0
DRAM_total_WQ_full 0
DRAM_total_dbus_congested 3615
DRAM_avg_congested_cycle 2.60111

======STLB miss causes ========
Core_0_STLB_miss_cause_breakdown
Core_0_STLB_cause_Demand_Data_miss 114
Core_0_STLB_cause_Demand_Data_miss_rate 0.00471503
Core_0_STLB_cause_Demand_Instruction_miss 0
Core_0_STLB_cause_Demand_Instruction_miss_rate 0
Core_0_STLB_cause_L1D_Prefetch_miss 0
Core_0_STLB_cause_L1D_Prefetch_miss_rate 0
Core_0_STLB_cause_L1I_Prefetch_miss 0
Core_0_STLB_cause_L1I_Prefetch_miss_rate 0
Core_0_STLB_cause_Other_miss 0
Core_0_STLB_cause_Other_miss_rate 0
Core_0_STLB_Demand_miss 114
Core_0_STLB_Demand_miss_rate 0.00471503
Core_0_STLB_L1D_Prefetch_miss 0
Core_0_STLB_L1D_Prefetch_miss_rate 0
Core_0_STLB_Other_miss 0
Core_0_STLB_Other_miss_rate 0
