[VMEM] WARNING: physical memory size is smaller than virtual memory size.

*** ChampSim Multicore Out-of-Order Simulator ***
Warmup Instructions: 20000000
Simulation Instructions: 50000000
Number of CPUs: 1
Page size: 4096
STLB ideal mode: l1pref
Core 0: /data0/tzh/champsim_traces/SPEC17/654.roms_s-294B.champsimtrace.xz
 L1D Berti prefetcher
Off-chip DRAM Size: 4 GiB Channels: 1 Width: 64-bit Data Rate: 3205 MT/s
Warmup halting CPU 0 at instruction 20000002 cycle 4367237 for remainder of phase
Warmup finished CPU 0 instructions: 20000002 cycles: 4367237 cumulative IPC: 4.58 (Simulation time: 00 hr 01 min 00 sec)
Warmup complete CPU 0 instructions: 20000002 cycles: 4367237 cumulative IPC: 4.58 (Simulation time: 00 hr 01 min 00 sec)
Simulation finished CPU 0 instructions: 50000003 cycles: 17717716 cumulative IPC: 2.822 (Simulation time: 00 hr 04 min 41 sec)
Simulation complete CPU 0 instructions: 50000003 cycles: 17717716 cumulative IPC: 2.822 (Simulation time: 00 hr 04 min 41 sec)

ChampSim completed all CPUs

=== Simulation ===
CPU 0 runs /data0/tzh/champsim_traces/SPEC17/654.roms_s-294B.champsimtrace.xz

Region of Interest Statistics

CPU 0 cumulative IPC: 2.822 instructions: 50000003 cycles: 17717716
CPU 0 Branch Prediction Accuracy: 99.93% MPKI: 0.03674 Average ROB Occupancy at Mispredict: 322.5
Branch type MPKI
BRANCH_DIRECT_JUMP: 0
BRANCH_INDIRECT: 0
BRANCH_CONDITIONAL: 0.03674
BRANCH_DIRECT_CALL: 0
BRANCH_INDIRECT_CALL: 0
BRANCH_RETURN: 0

cpu0->cpu0_STLB TOTAL        ACCESS:      19922 HIT:      10352 MISS:       9570 MSHR_MERGE:          0
cpu0->cpu0_STLB LOAD         ACCESS:      19922 HIT:      10352 MISS:       9570 MSHR_MERGE:          0
cpu0->cpu0_STLB RFO          ACCESS:          0 HIT:          0 MISS:          0 MSHR_MERGE:          0
cpu0->cpu0_STLB PREFETCH     ACCESS:          0 HIT:          0 MISS:          0 MSHR_MERGE:          0
cpu0->cpu0_STLB WRITE        ACCESS:          0 HIT:          0 MISS:          0 MSHR_MERGE:          0
cpu0->cpu0_STLB TRANSLATION  ACCESS:          0 HIT:          0 MISS:          0 MSHR_MERGE:          0
cpu0->cpu0_STLB PREFETCH REQUESTED:          0 ISSUED:          0 USEFUL:          0 USELESS:          0 LATE:          0
cpu0->cpu0_STLB AVERAGE MISS LATENCY: 352.8 cycles
cpu0->cpu0_L2C TOTAL        ACCESS:    3804492 HIT:    2468731 MISS:    1335761 MSHR_MERGE:     615426
cpu0->cpu0_L2C LOAD         ACCESS:      25091 HIT:       8561 MISS:      16530 MSHR_MERGE:        744
cpu0->cpu0_L2C RFO          ACCESS:       5167 HIT:        554 MISS:       4613 MSHR_MERGE:          2
cpu0->cpu0_L2C PREFETCH     ACCESS:    3749303 HIT:    2449894 MISS:    1299409 MSHR_MERGE:     614680
cpu0->cpu0_L2C WRITE        ACCESS:      11842 HIT:       9537 MISS:       2305 MSHR_MERGE:          0
cpu0->cpu0_L2C TRANSLATION  ACCESS:      13089 HIT:        185 MISS:      12904 MSHR_MERGE:          0
cpu0->cpu0_L2C PREFETCH REQUESTED:    3125049 ISSUED:    3114781 USEFUL:     566523 USELESS:      96786 LATE:        746
cpu0->cpu0_L2C AVERAGE MISS LATENCY: 169.9 cycles
cpu0->cpu0_L1I TOTAL        ACCESS:    9210454 HIT:    9210454 MISS:          0 MSHR_MERGE:          0
cpu0->cpu0_L1I LOAD         ACCESS:    9210454 HIT:    9210454 MISS:          0 MSHR_MERGE:          0
cpu0->cpu0_L1I RFO          ACCESS:          0 HIT:          0 MISS:          0 MSHR_MERGE:          0
cpu0->cpu0_L1I PREFETCH     ACCESS:          0 HIT:          0 MISS:          0 MSHR_MERGE:          0
cpu0->cpu0_L1I WRITE        ACCESS:          0 HIT:          0 MISS:          0 MSHR_MERGE:          0
cpu0->cpu0_L1I TRANSLATION  ACCESS:          0 HIT:          0 MISS:          0 MSHR_MERGE:          0
cpu0->cpu0_L1I PREFETCH REQUESTED:          0 ISSUED:          0 USEFUL:          0 USELESS:          0 LATE:          0
cpu0->cpu0_L1I AVERAGE MISS LATENCY: - cycles
cpu0->cpu0_L1D TOTAL        ACCESS:   14706297 HIT:   13925456 MISS:     780841 MSHR_MERGE:     102961
cpu0->cpu0_L1D LOAD         ACCESS:   12175123 HIT:   12076287 MISS:      98836 MSHR_MERGE:      73745
cpu0->cpu0_L1D RFO          ACCESS:          0 HIT:          0 MISS:          0 MSHR_MERGE:          0
cpu0->cpu0_L1D PREFETCH     ACCESS:     803924 HIT:     165167 MISS:     638757 MSHR_MERGE:       4224
cpu0->cpu0_L1D WRITE        ACCESS:    1699870 HIT:    1669761 MISS:      30109 MSHR_MERGE:      24942
cpu0->cpu0_L1D TRANSLATION  ACCESS:      27380 HIT:      14241 MISS:      13139 MSHR_MERGE:         50
cpu0->cpu0_L1D PREFETCH REQUESTED:     803927 ISSUED:     803919 USEFUL:     621708 USELESS:      12813 LATE:      13492
cpu0->cpu0_L1D AVERAGE MISS LATENCY: 136.6 cycles
cpu0->cpu0_ITLB TOTAL        ACCESS:    7528001 HIT:    7528001 MISS:          0 MSHR_MERGE:          0
cpu0->cpu0_ITLB LOAD         ACCESS:    7528001 HIT:    7528001 MISS:          0 MSHR_MERGE:          0
cpu0->cpu0_ITLB RFO          ACCESS:          0 HIT:          0 MISS:          0 MSHR_MERGE:          0
cpu0->cpu0_ITLB PREFETCH     ACCESS:          0 HIT:          0 MISS:          0 MSHR_MERGE:          0
cpu0->cpu0_ITLB WRITE        ACCESS:          0 HIT:          0 MISS:          0 MSHR_MERGE:          0
cpu0->cpu0_ITLB TRANSLATION  ACCESS:          0 HIT:          0 MISS:          0 MSHR_MERGE:          0
cpu0->cpu0_ITLB PREFETCH REQUESTED:          0 ISSUED:          0 USEFUL:          0 USELESS:          0 LATE:          0
cpu0->cpu0_ITLB AVERAGE MISS LATENCY: - cycles
cpu0->cpu0_DTLB TOTAL        ACCESS:   14329914 HIT:   14285301 MISS:      44613 MSHR_MERGE:      24691
cpu0->cpu0_DTLB LOAD         ACCESS:   14329914 HIT:   14285301 MISS:      44613 MSHR_MERGE:      24691
cpu0->cpu0_DTLB RFO          ACCESS:          0 HIT:          0 MISS:          0 MSHR_MERGE:          0
cpu0->cpu0_DTLB PREFETCH     ACCESS:          0 HIT:          0 MISS:          0 MSHR_MERGE:          0
cpu0->cpu0_DTLB WRITE        ACCESS:          0 HIT:          0 MISS:          0 MSHR_MERGE:          0
cpu0->cpu0_DTLB TRANSLATION  ACCESS:          0 HIT:          0 MISS:          0 MSHR_MERGE:          0
cpu0->cpu0_DTLB PREFETCH REQUESTED:          0 ISSUED:          0 USEFUL:          0 USELESS:          0 LATE:          0
cpu0->cpu0_DTLB AVERAGE MISS LATENCY: 175 cycles
cpu0->LLC TOTAL        ACCESS:     724379 HIT:     101931 MISS:     622448 MSHR_MERGE:          0
cpu0->LLC LOAD         ACCESS:      15786 HIT:       1862 MISS:      13924 MSHR_MERGE:          0
cpu0->LLC RFO          ACCESS:       4611 HIT:        135 MISS:       4476 MSHR_MERGE:          0
cpu0->LLC PREFETCH     ACCESS:     684729 HIT:      87455 MISS:     597274 MSHR_MERGE:          0
cpu0->LLC WRITE        ACCESS:       6349 HIT:       4706 MISS:       1643 MSHR_MERGE:          0
cpu0->LLC TRANSLATION  ACCESS:      12904 HIT:       7773 MISS:       5131 MSHR_MERGE:          0
cpu0->LLC PREFETCH REQUESTED:          0 ISSUED:          0 USEFUL:          0 USELESS:          0 LATE:          0
cpu0->LLC AVERAGE MISS LATENCY: 221.8 cycles

DRAM Statistics

Channel 0 RQ ROW_BUFFER_HIT:        672
  ROW_BUFFER_MISS:     620130
  AVG DBUS CONGESTED CYCLE: 2.861
Channel 0 WQ ROW_BUFFER_HIT:        285
  ROW_BUFFER_MISS:       4771
  FULL:          0
Channel 0 REFRESHES ISSUED:       1477

[ROI Statistics]
[System Configuration]
num_cpus 1
cpu_freq 4000
fetch_width 6
decode_width 6
dispatch_width 6
execute_width 6
lq_width 2
sq_width 2
retire_width 6
scheduler_size 160
branch_mispredict_penalty 1
rob_size 352
lq_size 240
sq_size 112
ifetch_buffer_size 64
decode_buffer_size 32
dispatch_buffer_size 32
register_file_size 288
decode_latency 1
dispatch_latency 1
schedule_latency 0
execute_latency 0
page_size 4096
block_size 64
core_0_itlb_set 16
core_0_itlb_way 4
core_0_itlb_rq_size 16
core_0_itlb_wq_size 16
core_0_itlb_pq_size 0
core_0_itlb_mshr_size 8
core_0_itlb_hit_latency 1
core_0_itlb_fill_latency 1
core_0_itlb_max_tag_check 2
core_0_itlb_max_fill 2
core_0_dtlb_set 16
core_0_dtlb_way 4
core_0_dtlb_rq_size 16
core_0_dtlb_wq_size 16
core_0_dtlb_pq_size 0
core_0_dtlb_mshr_size 8
core_0_dtlb_hit_latency 1
core_0_dtlb_fill_latency 1
core_0_dtlb_max_tag_check 2
core_0_dtlb_max_fill 2
core_0_stlb_set 128
core_0_stlb_way 12
core_0_stlb_rq_size 32
core_0_stlb_wq_size 32
core_0_stlb_pq_size 0
core_0_stlb_mshr_size 16
core_0_stlb_hit_latency 4
core_0_stlb_fill_latency 4
core_0_stlb_max_tag_check 1
core_0_stlb_max_fill 1
core_0_l1i_set 64
core_0_l1i_way 8
core_0_l1i_rq_size 64
core_0_l1i_wq_size 64
core_0_l1i_pq_size 32
core_0_l1i_mshr_size 8
core_0_l1i_hit_latency 2
core_0_l1i_fill_latency 2
core_0_l1i_max_tag_check 2
core_0_l1i_max_fill 2
core_0_l1d_set 64
core_0_l1d_way 12
core_0_l1d_rq_size 64
core_0_l1d_wq_size 64
core_0_l1d_pq_size 8
core_0_l1d_mshr_size 16
core_0_l1d_hit_latency 2
core_0_l1d_fill_latency 3
core_0_l1d_max_tag_check 2
core_0_l1d_max_fill 2
core_0_l2c_set 1024
core_0_l2c_way 8
core_0_l2c_rq_size 32
core_0_l2c_wq_size 32
core_0_l2c_pq_size 16
core_0_l2c_mshr_size 32
core_0_l2c_hit_latency 5
core_0_l2c_fill_latency 5
core_0_l2c_max_tag_check 1
core_0_l2c_max_fill 1
llc_set 2048
llc_way 16
llc_rq_size 32
llc_wq_size 32
llc_pq_size 32
llc_mshr_size 64
llc_hit_latency 10
llc_fill_latency 10
llc_max_tag_check 1
llc_max_fill 1
dram_channels 1
dram_ranks 1
dram_bankgroups 8
dram_banks 4
dram_rows 16384
dram_columns 1024
dram_channel_width 8
dram_rq_size 64
dram_wq_size 64
dram_size 4294967296
core_0_itlb_prefetcher no
core_0_dtlb_prefetcher no
core_0_stlb_prefetcher no
core_0_l1i_prefetcher next_line
core_0_l1d_prefetcher berti
core_0_l2c_prefetcher pythia
llc_prefetcher no
llc_replacement drrip

Core_0_instructions 50000003
Core_0_cycles 17717716
Core_0_IPC 2.82203
Core_0_branch_prediction_accuracy 99.9268
Core_0_branch_MPKI 0.03674
Core_0_average_ROB_occupancy_at_mispredict 322.469

Core_0_ITLB_total_access 7528001
Core_0_ITLB_total_hit 7528001
Core_0_ITLB_total_miss 0
Core_0_ITLB_total_MPKI 0
Core_0_ITLB_total_miss_rate 0
Core_0_ITLB_demand_access 7528001
Core_0_ITLB_demand_hit 7528001
Core_0_ITLB_demand_miss 0
Core_0_ITLB_demand_MPKI 0
Core_0_ITLB_demand_miss_rate 0
Core_0_ITLB_load_access 7528001
Core_0_ITLB_load_hit 7528001
Core_0_ITLB_load_miss 0
Core_0_ITLB_load_MPKI 0
Core_0_ITLB_load_miss_rate 0
Core_0_ITLB_rfo_access 0
Core_0_ITLB_rfo_hit 0
Core_0_ITLB_rfo_miss 0
Core_0_ITLB_rfo_MPKI 0
Core_0_ITLB_rfo_miss_rate 0
Core_0_ITLB_prefetch_access 0
Core_0_ITLB_prefetch_hit 0
Core_0_ITLB_prefetch_miss 0
Core_0_ITLB_prefetch_MPKI 0
Core_0_ITLB_prefetch_miss_rate 0
Core_0_ITLB_writeback_access 0
Core_0_ITLB_writeback_hit 0
Core_0_ITLB_writeback_miss 0
Core_0_ITLB_writeback_MPKI 0
Core_0_ITLB_writeback_miss_rate 0
Core_0_ITLB_prefetch_requested 0
Core_0_ITLB_prefetch_issued 0
Core_0_ITLB_prefetch_useful 0
Core_0_ITLB_prefetch_useless 0
Core_0_ITLB_prefetch_late 0
Core_0_ITLB_prefetch_accuracy 0
Core_0_ITLB_prefetch_coverage 0

Core_0_DTLB_total_access 14329914
Core_0_DTLB_total_hit 14285301
Core_0_DTLB_total_miss 44613
Core_0_DTLB_total_MPKI 0.89226
Core_0_DTLB_total_miss_rate 0.00311328
Core_0_DTLB_demand_access 14329914
Core_0_DTLB_demand_hit 14285301
Core_0_DTLB_demand_miss 44613
Core_0_DTLB_demand_MPKI 0.89226
Core_0_DTLB_demand_miss_rate 0.00311328
Core_0_DTLB_load_access 14329914
Core_0_DTLB_load_hit 14285301
Core_0_DTLB_load_miss 44613
Core_0_DTLB_load_MPKI 0.89226
Core_0_DTLB_load_miss_rate 0.00311328
Core_0_DTLB_rfo_access 0
Core_0_DTLB_rfo_hit 0
Core_0_DTLB_rfo_miss 0
Core_0_DTLB_rfo_MPKI 0
Core_0_DTLB_rfo_miss_rate 0
Core_0_DTLB_prefetch_access 0
Core_0_DTLB_prefetch_hit 0
Core_0_DTLB_prefetch_miss 0
Core_0_DTLB_prefetch_MPKI 0
Core_0_DTLB_prefetch_miss_rate 0
Core_0_DTLB_writeback_access 0
Core_0_DTLB_writeback_hit 0
Core_0_DTLB_writeback_miss 0
Core_0_DTLB_writeback_MPKI 0
Core_0_DTLB_writeback_miss_rate 0
Core_0_DTLB_prefetch_requested 0
Core_0_DTLB_prefetch_issued 0
Core_0_DTLB_prefetch_useful 0
Core_0_DTLB_prefetch_useless 0
Core_0_DTLB_prefetch_late 0
Core_0_DTLB_prefetch_accuracy 0
Core_0_DTLB_prefetch_coverage 0

Core_0_STLB_total_access 19922
Core_0_STLB_total_hit 10352
Core_0_STLB_total_miss 9570
Core_0_STLB_total_MPKI 0.1914
Core_0_STLB_total_miss_rate 0.480373
Core_0_STLB_demand_access 19922
Core_0_STLB_demand_hit 10352
Core_0_STLB_demand_miss 9570
Core_0_STLB_demand_MPKI 0.1914
Core_0_STLB_demand_miss_rate 0.480373
Core_0_STLB_load_access 19922
Core_0_STLB_load_hit 10352
Core_0_STLB_load_miss 9570
Core_0_STLB_load_MPKI 0.1914
Core_0_STLB_load_miss_rate 0.480373
Core_0_STLB_rfo_access 0
Core_0_STLB_rfo_hit 0
Core_0_STLB_rfo_miss 0
Core_0_STLB_rfo_MPKI 0
Core_0_STLB_rfo_miss_rate 0
Core_0_STLB_prefetch_access 0
Core_0_STLB_prefetch_hit 0
Core_0_STLB_prefetch_miss 0
Core_0_STLB_prefetch_MPKI 0
Core_0_STLB_prefetch_miss_rate 0
Core_0_STLB_writeback_access 0
Core_0_STLB_writeback_hit 0
Core_0_STLB_writeback_miss 0
Core_0_STLB_writeback_MPKI 0
Core_0_STLB_writeback_miss_rate 0
Core_0_STLB_prefetch_requested 0
Core_0_STLB_prefetch_issued 0
Core_0_STLB_prefetch_useful 0
Core_0_STLB_prefetch_useless 0
Core_0_STLB_prefetch_late 0
Core_0_STLB_prefetch_accuracy 0
Core_0_STLB_prefetch_coverage 0

Core_0_L1I_total_access 9210454
Core_0_L1I_total_hit 9210454
Core_0_L1I_total_miss 0
Core_0_L1I_total_MPKI 0
Core_0_L1I_total_miss_rate 0
Core_0_L1I_demand_access 9210454
Core_0_L1I_demand_hit 9210454
Core_0_L1I_demand_miss 0
Core_0_L1I_demand_MPKI 0
Core_0_L1I_demand_miss_rate 0
Core_0_L1I_load_access 9210454
Core_0_L1I_load_hit 9210454
Core_0_L1I_load_miss 0
Core_0_L1I_load_MPKI 0
Core_0_L1I_load_miss_rate 0
Core_0_L1I_rfo_access 0
Core_0_L1I_rfo_hit 0
Core_0_L1I_rfo_miss 0
Core_0_L1I_rfo_MPKI 0
Core_0_L1I_rfo_miss_rate 0
Core_0_L1I_prefetch_access 0
Core_0_L1I_prefetch_hit 0
Core_0_L1I_prefetch_miss 0
Core_0_L1I_prefetch_MPKI 0
Core_0_L1I_prefetch_miss_rate 0
Core_0_L1I_writeback_access 0
Core_0_L1I_writeback_hit 0
Core_0_L1I_writeback_miss 0
Core_0_L1I_writeback_MPKI 0
Core_0_L1I_writeback_miss_rate 0
Core_0_L1I_prefetch_requested 0
Core_0_L1I_prefetch_issued 0
Core_0_L1I_prefetch_useful 0
Core_0_L1I_prefetch_useless 0
Core_0_L1I_prefetch_late 0
Core_0_L1I_prefetch_accuracy 0
Core_0_L1I_prefetch_coverage 0

Core_0_L1D_total_access 14678917
Core_0_L1D_total_hit 13911215
Core_0_L1D_total_miss 767702
Core_0_L1D_total_MPKI 15.354
Core_0_L1D_total_miss_rate 0.0522996
Core_0_L1D_demand_access 12175123
Core_0_L1D_demand_hit 12076287
Core_0_L1D_demand_miss 98836
Core_0_L1D_demand_MPKI 1.97672
Core_0_L1D_demand_miss_rate 0.00811786
Core_0_L1D_load_access 12175123
Core_0_L1D_load_hit 12076287
Core_0_L1D_load_miss 98836
Core_0_L1D_load_MPKI 1.97672
Core_0_L1D_load_miss_rate 0.00811786
Core_0_L1D_rfo_access 0
Core_0_L1D_rfo_hit 0
Core_0_L1D_rfo_miss 0
Core_0_L1D_rfo_MPKI 0
Core_0_L1D_rfo_miss_rate 0
Core_0_L1D_prefetch_access 803924
Core_0_L1D_prefetch_hit 165167
Core_0_L1D_prefetch_miss 638757
Core_0_L1D_prefetch_MPKI 12.7751
Core_0_L1D_prefetch_miss_rate 0.794549
Core_0_L1D_writeback_access 1699870
Core_0_L1D_writeback_hit 1669761
Core_0_L1D_writeback_miss 30109
Core_0_L1D_writeback_MPKI 0.60218
Core_0_L1D_writeback_miss_rate 0.0177125
Core_0_L1D_prefetch_requested 803927
Core_0_L1D_prefetch_issued 803919
Core_0_L1D_prefetch_useful 621708
Core_0_L1D_prefetch_useless 12813
Core_0_L1D_prefetch_late 13492
Core_0_L1D_prefetch_accuracy 0.773347
Core_0_L1D_prefetch_coverage 0.862831

Core_0_L2C_total_access 3791403
Core_0_L2C_total_hit 2468546
Core_0_L2C_total_miss 1322857
Core_0_L2C_total_MPKI 26.4571
Core_0_L2C_total_miss_rate 0.34891
Core_0_L2C_demand_access 30258
Core_0_L2C_demand_hit 9115
Core_0_L2C_demand_miss 21143
Core_0_L2C_demand_MPKI 0.42286
Core_0_L2C_demand_miss_rate 0.698757
Core_0_L2C_load_access 25091
Core_0_L2C_load_hit 8561
Core_0_L2C_load_miss 16530
Core_0_L2C_load_MPKI 0.3306
Core_0_L2C_load_miss_rate 0.658802
Core_0_L2C_rfo_access 5167
Core_0_L2C_rfo_hit 554
Core_0_L2C_rfo_miss 4613
Core_0_L2C_rfo_MPKI 0.09226
Core_0_L2C_rfo_miss_rate 0.892781
Core_0_L2C_prefetch_access 3749303
Core_0_L2C_prefetch_hit 2449894
Core_0_L2C_prefetch_miss 1299409
Core_0_L2C_prefetch_MPKI 25.9882
Core_0_L2C_prefetch_miss_rate 0.346573
Core_0_L2C_writeback_access 11842
Core_0_L2C_writeback_hit 9537
Core_0_L2C_writeback_miss 2305
Core_0_L2C_writeback_MPKI 0.0461
Core_0_L2C_writeback_miss_rate 0.194646
Core_0_L2C_prefetch_requested 3125049
Core_0_L2C_prefetch_issued 3114781
Core_0_L2C_prefetch_useful 566523
Core_0_L2C_prefetch_useless 96786
Core_0_L2C_prefetch_late 746
Core_0_L2C_prefetch_accuracy 0.181882
Core_0_L2C_prefetch_coverage 0.964022

Core_0_LLC_total_access 711475
Core_0_LLC_total_hit 94158
Core_0_LLC_total_miss 617317
Core_0_LLC_total_MPKI 12.3463
Core_0_LLC_total_miss_rate 0.867658
Core_0_LLC_demand_access 20397
Core_0_LLC_demand_hit 1997
Core_0_LLC_demand_miss 18400
Core_0_LLC_demand_MPKI 0.368
Core_0_LLC_demand_miss_rate 0.902093
Core_0_LLC_load_access 15786
Core_0_LLC_load_hit 1862
Core_0_LLC_load_miss 13924
Core_0_LLC_load_MPKI 0.27848
Core_0_LLC_load_miss_rate 0.882047
Core_0_LLC_rfo_access 4611
Core_0_LLC_rfo_hit 135
Core_0_LLC_rfo_miss 4476
Core_0_LLC_rfo_MPKI 0.08952
Core_0_LLC_rfo_miss_rate 0.970722
Core_0_LLC_prefetch_access 684729
Core_0_LLC_prefetch_hit 87455
Core_0_LLC_prefetch_miss 597274
Core_0_LLC_prefetch_MPKI 11.9455
Core_0_LLC_prefetch_miss_rate 0.872278
Core_0_LLC_writeback_access 6349
Core_0_LLC_writeback_hit 4706
Core_0_LLC_writeback_miss 1643
Core_0_LLC_writeback_MPKI 0.03286
Core_0_LLC_writeback_miss_rate 0.258781
Core_0_LLC_prefetch_requested 0
Core_0_LLC_prefetch_issued 0
Core_0_LLC_prefetch_useful 0
Core_0_LLC_prefetch_useless 0
Core_0_LLC_prefetch_late 0
Core_0_LLC_prefetch_accuracy 0
Core_0_LLC_prefetch_coverage 0

[DRAM Statistics]
Channel_0_RQ_row_buffer_hit 672
Channel_0_RQ_row_buffer_miss 620130
Channel_0_WQ_row_buffer_hit 285
Channel_0_WQ_row_buffer_miss 4771
Channel_0_WQ_full 0
Channel_0_dbus_congested 723864
DRAM_total_RQ_row_buffer_hit 672
DRAM_total_RQ_row_buffer_miss 620130
DRAM_total_WQ_row_buffer_hit 285
DRAM_total_WQ_row_buffer_miss 4771
DRAM_total_WQ_full 0
DRAM_total_dbus_congested 723864
DRAM_avg_congested_cycle 2.86146

======STLB miss causes ========
Core_0_STLB_miss_cause_breakdown
Core_0_STLB_cause_Demand_Data_miss 9570
Core_0_STLB_cause_Demand_Data_miss_rate 0.480373
Core_0_STLB_cause_Demand_Instruction_miss 0
Core_0_STLB_cause_Demand_Instruction_miss_rate 0
Core_0_STLB_cause_L1D_Prefetch_miss 0
Core_0_STLB_cause_L1D_Prefetch_miss_rate 0
Core_0_STLB_cause_L1I_Prefetch_miss 0
Core_0_STLB_cause_L1I_Prefetch_miss_rate 0
Core_0_STLB_cause_Other_miss 0
Core_0_STLB_cause_Other_miss_rate 0
Core_0_STLB_Demand_miss 9570
Core_0_STLB_Demand_miss_rate 0.480373
Core_0_STLB_L1D_Prefetch_miss 0
Core_0_STLB_L1D_Prefetch_miss_rate 0
Core_0_STLB_Other_miss 0
Core_0_STLB_Other_miss_rate 0
