[VMEM] WARNING: physical memory size is smaller than virtual memory size.

*** ChampSim Multicore Out-of-Order Simulator ***
Warmup Instructions: 20000000
Simulation Instructions: 50000000
Number of CPUs: 1
Page size: 4096
STLB ideal mode: l1pref
Core 0: /data0/tzh/champsim_traces/GAP/gap.cc.web-10B.champsimtrace.xz
 L1D Berti prefetcher
Off-chip DRAM Size: 4 GiB Channels: 1 Width: 64-bit Data Rate: 3205 MT/s
Warmup halting CPU 0 at instruction 20000000 cycle 6333137 for remainder of phase
Warmup finished CPU 0 instructions: 20000000 cycles: 6333137 cumulative IPC: 3.158 (Simulation time: 00 hr 01 min 21 sec)
Warmup complete CPU 0 instructions: 20000000 cycles: 6333137 cumulative IPC: 3.158 (Simulation time: 00 hr 01 min 21 sec)
Simulation finished CPU 0 instructions: 50000001 cycles: 45468340 cumulative IPC: 1.1 (Simulation time: 00 hr 07 min 19 sec)
Simulation complete CPU 0 instructions: 50000001 cycles: 45468340 cumulative IPC: 1.1 (Simulation time: 00 hr 07 min 19 sec)

ChampSim completed all CPUs

=== Simulation ===
CPU 0 runs /data0/tzh/champsim_traces/GAP/gap.cc.web-10B.champsimtrace.xz

Region of Interest Statistics

CPU 0 cumulative IPC: 1.1 instructions: 50000001 cycles: 45468340
CPU 0 Branch Prediction Accuracy: 98.07% MPKI: 3.118 Average ROB Occupancy at Mispredict: 73.01
Branch type MPKI
BRANCH_DIRECT_JUMP: 0
BRANCH_INDIRECT: 0
BRANCH_CONDITIONAL: 3.118
BRANCH_DIRECT_CALL: 0
BRANCH_INDIRECT_CALL: 0
BRANCH_RETURN: 0

cpu0->cpu0_STLB TOTAL        ACCESS:      54014 HIT:      34318 MISS:      19696 MSHR_MERGE:          0
cpu0->cpu0_STLB LOAD         ACCESS:      54014 HIT:      34318 MISS:      19696 MSHR_MERGE:          0
cpu0->cpu0_STLB RFO          ACCESS:          0 HIT:          0 MISS:          0 MSHR_MERGE:          0
cpu0->cpu0_STLB PREFETCH     ACCESS:          0 HIT:          0 MISS:          0 MSHR_MERGE:          0
cpu0->cpu0_STLB WRITE        ACCESS:          0 HIT:          0 MISS:          0 MSHR_MERGE:          0
cpu0->cpu0_STLB TRANSLATION  ACCESS:          0 HIT:          0 MISS:          0 MSHR_MERGE:          0
cpu0->cpu0_STLB PREFETCH REQUESTED:          0 ISSUED:          0 USEFUL:          0 USELESS:          0 LATE:          0
cpu0->cpu0_STLB AVERAGE MISS LATENCY: 297.9 cycles
cpu0->cpu0_L2C TOTAL        ACCESS:    7205237 HIT:    2699982 MISS:    4505255 MSHR_MERGE:    2246074
cpu0->cpu0_L2C LOAD         ACCESS:     566549 HIT:     209745 MISS:     356804 MSHR_MERGE:     131098
cpu0->cpu0_L2C RFO          ACCESS:          0 HIT:          0 MISS:          0 MSHR_MERGE:          0
cpu0->cpu0_L2C PREFETCH     ACCESS:    6513427 HIT:    2372276 MISS:    4141151 MSHR_MERGE:    2114976
cpu0->cpu0_L2C WRITE        ACCESS:     116974 HIT:     116899 MISS:         75 MSHR_MERGE:          0
cpu0->cpu0_L2C TRANSLATION  ACCESS:       8287 HIT:       1062 MISS:       7225 MSHR_MERGE:          0
cpu0->cpu0_L2C PREFETCH REQUESTED:    5724425 ISSUED:    5228693 USEFUL:     821394 USELESS:     857057 LATE:     131098
cpu0->cpu0_L2C AVERAGE MISS LATENCY: 221.2 cycles
cpu0->cpu0_L1I TOTAL        ACCESS:    4566459 HIT:    4566459 MISS:          0 MSHR_MERGE:          0
cpu0->cpu0_L1I LOAD         ACCESS:    4566459 HIT:    4566459 MISS:          0 MSHR_MERGE:          0
cpu0->cpu0_L1I RFO          ACCESS:          0 HIT:          0 MISS:          0 MSHR_MERGE:          0
cpu0->cpu0_L1I PREFETCH     ACCESS:          0 HIT:          0 MISS:          0 MSHR_MERGE:          0
cpu0->cpu0_L1I WRITE        ACCESS:          0 HIT:          0 MISS:          0 MSHR_MERGE:          0
cpu0->cpu0_L1I TRANSLATION  ACCESS:          0 HIT:          0 MISS:          0 MSHR_MERGE:          0
cpu0->cpu0_L1I PREFETCH REQUESTED:          0 ISSUED:          0 USEFUL:          0 USELESS:          0 LATE:          0
cpu0->cpu0_L1I AVERAGE MISS LATENCY: - cycles
cpu0->cpu0_L1D TOTAL        ACCESS:   10527474 HIT:    8200083 MISS:    2327391 MSHR_MERGE:     467820
cpu0->cpu0_L1D LOAD         ACCESS:    7534529 HIT:    6567952 MISS:     966577 MSHR_MERGE:     400028
cpu0->cpu0_L1D RFO          ACCESS:          0 HIT:          0 MISS:          0 MSHR_MERGE:          0
cpu0->cpu0_L1D PREFETCH     ACCESS:    1444975 HIT:      93348 MISS:    1351627 MSHR_MERGE:      66892
cpu0->cpu0_L1D WRITE        ACCESS:    1508306 HIT:    1508306 MISS:          0 MSHR_MERGE:          0
cpu0->cpu0_L1D TRANSLATION  ACCESS:      39664 HIT:      30477 MISS:       9187 MSHR_MERGE:        900
cpu0->cpu0_L1D PREFETCH REQUESTED:    1454093 ISSUED:    1444972 USEFUL:     953909 USELESS:     330923 LATE:     270345
cpu0->cpu0_L1D AVERAGE MISS LATENCY: 146.1 cycles
cpu0->cpu0_ITLB TOTAL        ACCESS:    4566459 HIT:    4566459 MISS:          0 MSHR_MERGE:          0
cpu0->cpu0_ITLB LOAD         ACCESS:    4566459 HIT:    4566459 MISS:          0 MSHR_MERGE:          0
cpu0->cpu0_ITLB RFO          ACCESS:          0 HIT:          0 MISS:          0 MSHR_MERGE:          0
cpu0->cpu0_ITLB PREFETCH     ACCESS:          0 HIT:          0 MISS:          0 MSHR_MERGE:          0
cpu0->cpu0_ITLB WRITE        ACCESS:          0 HIT:          0 MISS:          0 MSHR_MERGE:          0
cpu0->cpu0_ITLB TRANSLATION  ACCESS:          0 HIT:          0 MISS:          0 MSHR_MERGE:          0
cpu0->cpu0_ITLB PREFETCH REQUESTED:          0 ISSUED:          0 USEFUL:          0 USELESS:          0 LATE:          0
cpu0->cpu0_ITLB AVERAGE MISS LATENCY: - cycles
cpu0->cpu0_DTLB TOTAL        ACCESS:    9823177 HIT:    9694611 MISS:     128566 MSHR_MERGE:      74552
cpu0->cpu0_DTLB LOAD         ACCESS:    9823177 HIT:    9694611 MISS:     128566 MSHR_MERGE:      74552
cpu0->cpu0_DTLB RFO          ACCESS:          0 HIT:          0 MISS:          0 MSHR_MERGE:          0
cpu0->cpu0_DTLB PREFETCH     ACCESS:          0 HIT:          0 MISS:          0 MSHR_MERGE:          0
cpu0->cpu0_DTLB WRITE        ACCESS:          0 HIT:          0 MISS:          0 MSHR_MERGE:          0
cpu0->cpu0_DTLB TRANSLATION  ACCESS:          0 HIT:          0 MISS:          0 MSHR_MERGE:          0
cpu0->cpu0_DTLB PREFETCH REQUESTED:          0 ISSUED:          0 USEFUL:          0 USELESS:          0 LATE:          0
cpu0->cpu0_DTLB AVERAGE MISS LATENCY: 114 cycles
cpu0->LLC TOTAL        ACCESS:    2370389 HIT:      55289 MISS:    2315100 MSHR_MERGE:          0
cpu0->LLC LOAD         ACCESS:     225706 HIT:       7711 MISS:     217995 MSHR_MERGE:          0
cpu0->LLC RFO          ACCESS:          0 HIT:          0 MISS:          0 MSHR_MERGE:          0
cpu0->LLC PREFETCH     ACCESS:    2026175 HIT:      27364 MISS:    1998811 MSHR_MERGE:          0
cpu0->LLC WRITE        ACCESS:     111283 HIT:      19668 MISS:      91615 MSHR_MERGE:          0
cpu0->LLC TRANSLATION  ACCESS:       7225 HIT:        546 MISS:       6679 MSHR_MERGE:          0
cpu0->LLC PREFETCH REQUESTED:          0 ISSUED:          0 USEFUL:          0 USELESS:          0 LATE:          0
cpu0->LLC AVERAGE MISS LATENCY: 181.1 cycles

DRAM Statistics

Channel 0 RQ ROW_BUFFER_HIT:     570211
  ROW_BUFFER_MISS:    1653237
  AVG DBUS CONGESTED CYCLE: 3.937
Channel 0 WQ ROW_BUFFER_HIT:      10019
  ROW_BUFFER_MISS:      98591
  FULL:          0
Channel 0 REFRESHES ISSUED:       3789

[ROI Statistics]
[System Configuration]
num_cpus 1
cpu_freq 4000
fetch_width 6
decode_width 6
dispatch_width 6
execute_width 6
lq_width 2
sq_width 2
retire_width 6
scheduler_size 160
branch_mispredict_penalty 1
rob_size 352
lq_size 240
sq_size 112
ifetch_buffer_size 64
decode_buffer_size 32
dispatch_buffer_size 32
register_file_size 288
decode_latency 1
dispatch_latency 1
schedule_latency 0
execute_latency 0
page_size 4096
block_size 64
core_0_itlb_set 16
core_0_itlb_way 4
core_0_itlb_rq_size 16
core_0_itlb_wq_size 16
core_0_itlb_pq_size 0
core_0_itlb_mshr_size 8
core_0_itlb_hit_latency 1
core_0_itlb_fill_latency 1
core_0_itlb_max_tag_check 2
core_0_itlb_max_fill 2
core_0_dtlb_set 16
core_0_dtlb_way 4
core_0_dtlb_rq_size 16
core_0_dtlb_wq_size 16
core_0_dtlb_pq_size 0
core_0_dtlb_mshr_size 8
core_0_dtlb_hit_latency 1
core_0_dtlb_fill_latency 1
core_0_dtlb_max_tag_check 2
core_0_dtlb_max_fill 2
core_0_stlb_set 128
core_0_stlb_way 12
core_0_stlb_rq_size 32
core_0_stlb_wq_size 32
core_0_stlb_pq_size 0
core_0_stlb_mshr_size 16
core_0_stlb_hit_latency 4
core_0_stlb_fill_latency 4
core_0_stlb_max_tag_check 1
core_0_stlb_max_fill 1
core_0_l1i_set 64
core_0_l1i_way 8
core_0_l1i_rq_size 64
core_0_l1i_wq_size 64
core_0_l1i_pq_size 32
core_0_l1i_mshr_size 8
core_0_l1i_hit_latency 2
core_0_l1i_fill_latency 2
core_0_l1i_max_tag_check 2
core_0_l1i_max_fill 2
core_0_l1d_set 64
core_0_l1d_way 12
core_0_l1d_rq_size 64
core_0_l1d_wq_size 64
core_0_l1d_pq_size 8
core_0_l1d_mshr_size 16
core_0_l1d_hit_latency 2
core_0_l1d_fill_latency 3
core_0_l1d_max_tag_check 2
core_0_l1d_max_fill 2
core_0_l2c_set 1024
core_0_l2c_way 8
core_0_l2c_rq_size 32
core_0_l2c_wq_size 32
core_0_l2c_pq_size 16
core_0_l2c_mshr_size 32
core_0_l2c_hit_latency 5
core_0_l2c_fill_latency 5
core_0_l2c_max_tag_check 1
core_0_l2c_max_fill 1
llc_set 2048
llc_way 16
llc_rq_size 32
llc_wq_size 32
llc_pq_size 32
llc_mshr_size 64
llc_hit_latency 10
llc_fill_latency 10
llc_max_tag_check 1
llc_max_fill 1
dram_channels 1
dram_ranks 1
dram_bankgroups 8
dram_banks 4
dram_rows 16384
dram_columns 1024
dram_channel_width 8
dram_rq_size 64
dram_wq_size 64
dram_size 4294967296
core_0_itlb_prefetcher no
core_0_dtlb_prefetcher no
core_0_stlb_prefetcher no
core_0_l1i_prefetcher next_line
core_0_l1d_prefetcher berti
core_0_l2c_prefetcher pythia
llc_prefetcher no
llc_replacement drrip

Core_0_instructions 50000001
Core_0_cycles 45468340
Core_0_IPC 1.09967
Core_0_branch_prediction_accuracy 98.0656
Core_0_branch_MPKI 3.11842
Core_0_average_ROB_occupancy_at_mispredict 73.0128

Core_0_ITLB_total_access 4566459
Core_0_ITLB_total_hit 4566459
Core_0_ITLB_total_miss 0
Core_0_ITLB_total_MPKI 0
Core_0_ITLB_total_miss_rate 0
Core_0_ITLB_demand_access 4566459
Core_0_ITLB_demand_hit 4566459
Core_0_ITLB_demand_miss 0
Core_0_ITLB_demand_MPKI 0
Core_0_ITLB_demand_miss_rate 0
Core_0_ITLB_load_access 4566459
Core_0_ITLB_load_hit 4566459
Core_0_ITLB_load_miss 0
Core_0_ITLB_load_MPKI 0
Core_0_ITLB_load_miss_rate 0
Core_0_ITLB_rfo_access 0
Core_0_ITLB_rfo_hit 0
Core_0_ITLB_rfo_miss 0
Core_0_ITLB_rfo_MPKI 0
Core_0_ITLB_rfo_miss_rate 0
Core_0_ITLB_prefetch_access 0
Core_0_ITLB_prefetch_hit 0
Core_0_ITLB_prefetch_miss 0
Core_0_ITLB_prefetch_MPKI 0
Core_0_ITLB_prefetch_miss_rate 0
Core_0_ITLB_writeback_access 0
Core_0_ITLB_writeback_hit 0
Core_0_ITLB_writeback_miss 0
Core_0_ITLB_writeback_MPKI 0
Core_0_ITLB_writeback_miss_rate 0
Core_0_ITLB_prefetch_requested 0
Core_0_ITLB_prefetch_issued 0
Core_0_ITLB_prefetch_useful 0
Core_0_ITLB_prefetch_useless 0
Core_0_ITLB_prefetch_late 0
Core_0_ITLB_prefetch_accuracy 0
Core_0_ITLB_prefetch_coverage 0

Core_0_DTLB_total_access 9823177
Core_0_DTLB_total_hit 9694611
Core_0_DTLB_total_miss 128566
Core_0_DTLB_total_MPKI 2.57132
Core_0_DTLB_total_miss_rate 0.013088
Core_0_DTLB_demand_access 9823177
Core_0_DTLB_demand_hit 9694611
Core_0_DTLB_demand_miss 128566
Core_0_DTLB_demand_MPKI 2.57132
Core_0_DTLB_demand_miss_rate 0.013088
Core_0_DTLB_load_access 9823177
Core_0_DTLB_load_hit 9694611
Core_0_DTLB_load_miss 128566
Core_0_DTLB_load_MPKI 2.57132
Core_0_DTLB_load_miss_rate 0.013088
Core_0_DTLB_rfo_access 0
Core_0_DTLB_rfo_hit 0
Core_0_DTLB_rfo_miss 0
Core_0_DTLB_rfo_MPKI 0
Core_0_DTLB_rfo_miss_rate 0
Core_0_DTLB_prefetch_access 0
Core_0_DTLB_prefetch_hit 0
Core_0_DTLB_prefetch_miss 0
Core_0_DTLB_prefetch_MPKI 0
Core_0_DTLB_prefetch_miss_rate 0
Core_0_DTLB_writeback_access 0
Core_0_DTLB_writeback_hit 0
Core_0_DTLB_writeback_miss 0
Core_0_DTLB_writeback_MPKI 0
Core_0_DTLB_writeback_miss_rate 0
Core_0_DTLB_prefetch_requested 0
Core_0_DTLB_prefetch_issued 0
Core_0_DTLB_prefetch_useful 0
Core_0_DTLB_prefetch_useless 0
Core_0_DTLB_prefetch_late 0
Core_0_DTLB_prefetch_accuracy 0
Core_0_DTLB_prefetch_coverage 0

Core_0_STLB_total_access 54014
Core_0_STLB_total_hit 34318
Core_0_STLB_total_miss 19696
Core_0_STLB_total_MPKI 0.39392
Core_0_STLB_total_miss_rate 0.364646
Core_0_STLB_demand_access 54014
Core_0_STLB_demand_hit 34318
Core_0_STLB_demand_miss 19696
Core_0_STLB_demand_MPKI 0.39392
Core_0_STLB_demand_miss_rate 0.364646
Core_0_STLB_load_access 54014
Core_0_STLB_load_hit 34318
Core_0_STLB_load_miss 19696
Core_0_STLB_load_MPKI 0.39392
Core_0_STLB_load_miss_rate 0.364646
Core_0_STLB_rfo_access 0
Core_0_STLB_rfo_hit 0
Core_0_STLB_rfo_miss 0
Core_0_STLB_rfo_MPKI 0
Core_0_STLB_rfo_miss_rate 0
Core_0_STLB_prefetch_access 0
Core_0_STLB_prefetch_hit 0
Core_0_STLB_prefetch_miss 0
Core_0_STLB_prefetch_MPKI 0
Core_0_STLB_prefetch_miss_rate 0
Core_0_STLB_writeback_access 0
Core_0_STLB_writeback_hit 0
Core_0_STLB_writeback_miss 0
Core_0_STLB_writeback_MPKI 0
Core_0_STLB_writeback_miss_rate 0
Core_0_STLB_prefetch_requested 0
Core_0_STLB_prefetch_issued 0
Core_0_STLB_prefetch_useful 0
Core_0_STLB_prefetch_useless 0
Core_0_STLB_prefetch_late 0
Core_0_STLB_prefetch_accuracy 0
Core_0_STLB_prefetch_coverage 0

Core_0_L1I_total_access 4566459
Core_0_L1I_total_hit 4566459
Core_0_L1I_total_miss 0
Core_0_L1I_total_MPKI 0
Core_0_L1I_total_miss_rate 0
Core_0_L1I_demand_access 4566459
Core_0_L1I_demand_hit 4566459
Core_0_L1I_demand_miss 0
Core_0_L1I_demand_MPKI 0
Core_0_L1I_demand_miss_rate 0
Core_0_L1I_load_access 4566459
Core_0_L1I_load_hit 4566459
Core_0_L1I_load_miss 0
Core_0_L1I_load_MPKI 0
Core_0_L1I_load_miss_rate 0
Core_0_L1I_rfo_access 0
Core_0_L1I_rfo_hit 0
Core_0_L1I_rfo_miss 0
Core_0_L1I_rfo_MPKI 0
Core_0_L1I_rfo_miss_rate 0
Core_0_L1I_prefetch_access 0
Core_0_L1I_prefetch_hit 0
Core_0_L1I_prefetch_miss 0
Core_0_L1I_prefetch_MPKI 0
Core_0_L1I_prefetch_miss_rate 0
Core_0_L1I_writeback_access 0
Core_0_L1I_writeback_hit 0
Core_0_L1I_writeback_miss 0
Core_0_L1I_writeback_MPKI 0
Core_0_L1I_writeback_miss_rate 0
Core_0_L1I_prefetch_requested 0
Core_0_L1I_prefetch_issued 0
Core_0_L1I_prefetch_useful 0
Core_0_L1I_prefetch_useless 0
Core_0_L1I_prefetch_late 0
Core_0_L1I_prefetch_accuracy 0
Core_0_L1I_prefetch_coverage 0

Core_0_L1D_total_access 10487810
Core_0_L1D_total_hit 8169606
Core_0_L1D_total_miss 2318204
Core_0_L1D_total_MPKI 46.3641
Core_0_L1D_total_miss_rate 0.221038
Core_0_L1D_demand_access 7534529
Core_0_L1D_demand_hit 6567952
Core_0_L1D_demand_miss 966577
Core_0_L1D_demand_MPKI 19.3315
Core_0_L1D_demand_miss_rate 0.128286
Core_0_L1D_load_access 7534529
Core_0_L1D_load_hit 6567952
Core_0_L1D_load_miss 966577
Core_0_L1D_load_MPKI 19.3315
Core_0_L1D_load_miss_rate 0.128286
Core_0_L1D_rfo_access 0
Core_0_L1D_rfo_hit 0
Core_0_L1D_rfo_miss 0
Core_0_L1D_rfo_MPKI 0
Core_0_L1D_rfo_miss_rate 0
Core_0_L1D_prefetch_access 1444975
Core_0_L1D_prefetch_hit 93348
Core_0_L1D_prefetch_miss 1351627
Core_0_L1D_prefetch_MPKI 27.0325
Core_0_L1D_prefetch_miss_rate 0.935398
Core_0_L1D_writeback_access 1508306
Core_0_L1D_writeback_hit 1508306
Core_0_L1D_writeback_miss 0
Core_0_L1D_writeback_MPKI 0
Core_0_L1D_writeback_miss_rate 0
Core_0_L1D_prefetch_requested 1454093
Core_0_L1D_prefetch_issued 1444972
Core_0_L1D_prefetch_useful 953909
Core_0_L1D_prefetch_useless 330923
Core_0_L1D_prefetch_late 270345
Core_0_L1D_prefetch_accuracy 0.660157
Core_0_L1D_prefetch_coverage 0.496702

Core_0_L2C_total_access 7196950
Core_0_L2C_total_hit 2698920
Core_0_L2C_total_miss 4498030
Core_0_L2C_total_MPKI 89.9606
Core_0_L2C_total_miss_rate 0.624991
Core_0_L2C_demand_access 566549
Core_0_L2C_demand_hit 209745
Core_0_L2C_demand_miss 356804
Core_0_L2C_demand_MPKI 7.13608
Core_0_L2C_demand_miss_rate 0.629785
Core_0_L2C_load_access 566549
Core_0_L2C_load_hit 209745
Core_0_L2C_load_miss 356804
Core_0_L2C_load_MPKI 7.13608
Core_0_L2C_load_miss_rate 0.629785
Core_0_L2C_rfo_access 0
Core_0_L2C_rfo_hit 0
Core_0_L2C_rfo_miss 0
Core_0_L2C_rfo_MPKI 0
Core_0_L2C_rfo_miss_rate 0
Core_0_L2C_prefetch_access 6513427
Core_0_L2C_prefetch_hit 2372276
Core_0_L2C_prefetch_miss 4141151
Core_0_L2C_prefetch_MPKI 82.823
Core_0_L2C_prefetch_miss_rate 0.635787
Core_0_L2C_writeback_access 116974
Core_0_L2C_writeback_hit 116899
Core_0_L2C_writeback_miss 75
Core_0_L2C_writeback_MPKI 0.0015
Core_0_L2C_writeback_miss_rate 0.000641168
Core_0_L2C_prefetch_requested 5724425
Core_0_L2C_prefetch_issued 5228693
Core_0_L2C_prefetch_useful 821394
Core_0_L2C_prefetch_useless 857057
Core_0_L2C_prefetch_late 131098
Core_0_L2C_prefetch_accuracy 0.157094
Core_0_L2C_prefetch_coverage 0.697161

Core_0_LLC_total_access 2363164
Core_0_LLC_total_hit 54743
Core_0_LLC_total_miss 2308421
Core_0_LLC_total_MPKI 46.1684
Core_0_LLC_total_miss_rate 0.976835
Core_0_LLC_demand_access 225706
Core_0_LLC_demand_hit 7711
Core_0_LLC_demand_miss 217995
Core_0_LLC_demand_MPKI 4.3599
Core_0_LLC_demand_miss_rate 0.965836
Core_0_LLC_load_access 225706
Core_0_LLC_load_hit 7711
Core_0_LLC_load_miss 217995
Core_0_LLC_load_MPKI 4.3599
Core_0_LLC_load_miss_rate 0.965836
Core_0_LLC_rfo_access 0
Core_0_LLC_rfo_hit 0
Core_0_LLC_rfo_miss 0
Core_0_LLC_rfo_MPKI 0
Core_0_LLC_rfo_miss_rate 0
Core_0_LLC_prefetch_access 2026175
Core_0_LLC_prefetch_hit 27364
Core_0_LLC_prefetch_miss 1998811
Core_0_LLC_prefetch_MPKI 39.9762
Core_0_LLC_prefetch_miss_rate 0.986495
Core_0_LLC_writeback_access 111283
Core_0_LLC_writeback_hit 19668
Core_0_LLC_writeback_miss 91615
Core_0_LLC_writeback_MPKI 1.8323
Core_0_LLC_writeback_miss_rate 0.823261
Core_0_LLC_prefetch_requested 0
Core_0_LLC_prefetch_issued 0
Core_0_LLC_prefetch_useful 0
Core_0_LLC_prefetch_useless 0
Core_0_LLC_prefetch_late 0
Core_0_LLC_prefetch_accuracy 0
Core_0_LLC_prefetch_coverage 0

[DRAM Statistics]
Channel_0_RQ_row_buffer_hit 570211
Channel_0_RQ_row_buffer_miss 1653237
Channel_0_WQ_row_buffer_hit 10019
Channel_0_WQ_row_buffer_miss 98591
Channel_0_WQ_full 0
Channel_0_dbus_congested 6057025
DRAM_total_RQ_row_buffer_hit 570211
DRAM_total_RQ_row_buffer_miss 1653237
DRAM_total_WQ_row_buffer_hit 10019
DRAM_total_WQ_row_buffer_miss 98591
DRAM_total_WQ_full 0
DRAM_total_dbus_congested 6057025
DRAM_avg_congested_cycle 3.93695

======STLB miss causes ========
Core_0_STLB_miss_cause_breakdown
Core_0_STLB_cause_Demand_Data_miss 19696
Core_0_STLB_cause_Demand_Data_miss_rate 0.364646
Core_0_STLB_cause_Demand_Instruction_miss 0
Core_0_STLB_cause_Demand_Instruction_miss_rate 0
Core_0_STLB_cause_L1D_Prefetch_miss 0
Core_0_STLB_cause_L1D_Prefetch_miss_rate 0
Core_0_STLB_cause_L1I_Prefetch_miss 0
Core_0_STLB_cause_L1I_Prefetch_miss_rate 0
Core_0_STLB_cause_Other_miss 0
Core_0_STLB_cause_Other_miss_rate 0
Core_0_STLB_Demand_miss 19696
Core_0_STLB_Demand_miss_rate 0.364646
Core_0_STLB_L1D_Prefetch_miss 0
Core_0_STLB_L1D_Prefetch_miss_rate 0
Core_0_STLB_Other_miss 0
Core_0_STLB_Other_miss_rate 0
