[VMEM] WARNING: physical memory size is smaller than virtual memory size.

*** ChampSim Multicore Out-of-Order Simulator ***
Warmup Instructions: 20000000
Simulation Instructions: 50000000
Number of CPUs: 1
Page size: 4096
STLB ideal mode: l1pref
Core 0: /data0/tzh/champsim_traces/Ligra/ligra_Components-Shortcut.com-lj.ungraph.gcc_6.3.0_O3.drop_22000M.length_250M.champsimtrace.xz
 L1D Berti prefetcher
Off-chip DRAM Size: 4 GiB Channels: 1 Width: 64-bit Data Rate: 3205 MT/s
Warmup halting CPU 0 at instruction 20000003 cycle 5442006 for remainder of phase
Warmup finished CPU 0 instructions: 20000003 cycles: 5442006 cumulative IPC: 3.675 (Simulation time: 00 hr 01 min 22 sec)
Warmup complete CPU 0 instructions: 20000003 cycles: 5442006 cumulative IPC: 3.675 (Simulation time: 00 hr 01 min 22 sec)
Simulation finished CPU 0 instructions: 50000000 cycles: 82346547 cumulative IPC: 0.6072 (Simulation time: 00 hr 10 min 19 sec)
Simulation complete CPU 0 instructions: 50000000 cycles: 82346547 cumulative IPC: 0.6072 (Simulation time: 00 hr 10 min 19 sec)

ChampSim completed all CPUs

=== Simulation ===
CPU 0 runs /data0/tzh/champsim_traces/Ligra/ligra_Components-Shortcut.com-lj.ungraph.gcc_6.3.0_O3.drop_22000M.length_250M.champsimtrace.xz

Region of Interest Statistics

CPU 0 cumulative IPC: 0.6072 instructions: 50000000 cycles: 82346547
CPU 0 Branch Prediction Accuracy: 97.5% MPKI: 6.582 Average ROB Occupancy at Mispredict: 102.3
Branch type MPKI
BRANCH_DIRECT_JUMP: 0
BRANCH_INDIRECT: 0
BRANCH_CONDITIONAL: 6.582
BRANCH_DIRECT_CALL: 0
BRANCH_INDIRECT_CALL: 0
BRANCH_RETURN: 0

cpu0->cpu0_STLB TOTAL        ACCESS:    3784343 HIT:    3780272 MISS:       4071 MSHR_MERGE:          0
cpu0->cpu0_STLB LOAD         ACCESS:    3784343 HIT:    3780272 MISS:       4071 MSHR_MERGE:          0
cpu0->cpu0_STLB RFO          ACCESS:          0 HIT:          0 MISS:          0 MSHR_MERGE:          0
cpu0->cpu0_STLB PREFETCH     ACCESS:          0 HIT:          0 MISS:          0 MSHR_MERGE:          0
cpu0->cpu0_STLB WRITE        ACCESS:          0 HIT:          0 MISS:          0 MSHR_MERGE:          0
cpu0->cpu0_STLB TRANSLATION  ACCESS:          0 HIT:          0 MISS:          0 MSHR_MERGE:          0
cpu0->cpu0_STLB PREFETCH REQUESTED:          0 ISSUED:          0 USEFUL:          0 USELESS:          0 LATE:          0
cpu0->cpu0_STLB AVERAGE MISS LATENCY: 188.2 cycles
cpu0->cpu0_L2C TOTAL        ACCESS:   10978989 HIT:    5005673 MISS:    5973316 MSHR_MERGE:     226535
cpu0->cpu0_L2C LOAD         ACCESS:    4038241 HIT:    1555426 MISS:    2482815 MSHR_MERGE:       6817
cpu0->cpu0_L2C RFO          ACCESS:          0 HIT:          0 MISS:          0 MSHR_MERGE:          0
cpu0->cpu0_L2C PREFETCH     ACCESS:    6916381 HIT:    3427369 MISS:    3489012 MSHR_MERGE:     219718
cpu0->cpu0_L2C WRITE        ACCESS:      20498 HIT:      20387 MISS:        111 MSHR_MERGE:          0
cpu0->cpu0_L2C TRANSLATION  ACCESS:       3869 HIT:       2491 MISS:       1378 MSHR_MERGE:          0
cpu0->cpu0_L2C PREFETCH REQUESTED:    6527991 ISSUED:    6108475 USEFUL:     816209 USELESS:    2178142 LATE:       6817
cpu0->cpu0_L2C AVERAGE MISS LATENCY: 85.91 cycles
cpu0->cpu0_L1I TOTAL        ACCESS:     465812 HIT:     465812 MISS:          0 MSHR_MERGE:          0
cpu0->cpu0_L1I LOAD         ACCESS:     465812 HIT:     465812 MISS:          0 MSHR_MERGE:          0
cpu0->cpu0_L1I RFO          ACCESS:          0 HIT:          0 MISS:          0 MSHR_MERGE:          0
cpu0->cpu0_L1I PREFETCH     ACCESS:          0 HIT:          0 MISS:          0 MSHR_MERGE:          0
cpu0->cpu0_L1I WRITE        ACCESS:          0 HIT:          0 MISS:          0 MSHR_MERGE:          0
cpu0->cpu0_L1I TRANSLATION  ACCESS:          0 HIT:          0 MISS:          0 MSHR_MERGE:          0
cpu0->cpu0_L1I PREFETCH REQUESTED:          0 ISSUED:          0 USEFUL:          0 USELESS:          0 LATE:          0
cpu0->cpu0_L1I AVERAGE MISS LATENCY: - cycles
cpu0->cpu0_L1D TOTAL        ACCESS:   15482644 HIT:   10450150 MISS:    5032494 MSHR_MERGE:     182478
cpu0->cpu0_L1D LOAD         ACCESS:   13833204 HIT:    9618816 MISS:    4214388 MSHR_MERGE:     176147
cpu0->cpu0_L1D RFO          ACCESS:          0 HIT:          0 MISS:          0 MSHR_MERGE:          0
cpu0->cpu0_L1D PREFETCH     ACCESS:    1313404 HIT:     499167 MISS:     814237 MSHR_MERGE:       6331
cpu0->cpu0_L1D WRITE        ACCESS:     327882 HIT:     327882 MISS:          0 MSHR_MERGE:          0
cpu0->cpu0_L1D TRANSLATION  ACCESS:       8154 HIT:       4285 MISS:       3869 MSHR_MERGE:          0
cpu0->cpu0_L1D PREFETCH REQUESTED:    1323585 ISSUED:    1313396 USEFUL:     337353 USELESS:     470474 LATE:       5443
cpu0->cpu0_L1D AVERAGE MISS LATENCY: 61.74 cycles
cpu0->cpu0_ITLB TOTAL        ACCESS:     334861 HIT:     334861 MISS:          0 MSHR_MERGE:          0
cpu0->cpu0_ITLB LOAD         ACCESS:     334861 HIT:     334861 MISS:          0 MSHR_MERGE:          0
cpu0->cpu0_ITLB RFO          ACCESS:          0 HIT:          0 MISS:          0 MSHR_MERGE:          0
cpu0->cpu0_ITLB PREFETCH     ACCESS:          0 HIT:          0 MISS:          0 MSHR_MERGE:          0
cpu0->cpu0_ITLB WRITE        ACCESS:          0 HIT:          0 MISS:          0 MSHR_MERGE:          0
cpu0->cpu0_ITLB TRANSLATION  ACCESS:          0 HIT:          0 MISS:          0 MSHR_MERGE:          0
cpu0->cpu0_ITLB PREFETCH REQUESTED:          0 ISSUED:          0 USEFUL:          0 USELESS:          0 LATE:          0
cpu0->cpu0_ITLB AVERAGE MISS LATENCY: - cycles
cpu0->cpu0_DTLB TOTAL        ACCESS:   15279791 HIT:   11150158 MISS:    4129633 MSHR_MERGE:     345290
cpu0->cpu0_DTLB LOAD         ACCESS:   15279791 HIT:   11150158 MISS:    4129633 MSHR_MERGE:     345290
cpu0->cpu0_DTLB RFO          ACCESS:          0 HIT:          0 MISS:          0 MSHR_MERGE:          0
cpu0->cpu0_DTLB PREFETCH     ACCESS:          0 HIT:          0 MISS:          0 MSHR_MERGE:          0
cpu0->cpu0_DTLB WRITE        ACCESS:          0 HIT:          0 MISS:          0 MSHR_MERGE:          0
cpu0->cpu0_DTLB TRANSLATION  ACCESS:          0 HIT:          0 MISS:          0 MSHR_MERGE:          0
cpu0->cpu0_DTLB PREFETCH REQUESTED:          0 ISSUED:          0 USEFUL:          0 USELESS:          0 LATE:          0
cpu0->cpu0_DTLB AVERAGE MISS LATENCY: 5.223 cycles
cpu0->LLC TOTAL        ACCESS:    5767062 HIT:    3742387 MISS:    2024675 MSHR_MERGE:          0
cpu0->LLC LOAD         ACCESS:    2475998 HIT:    1733278 MISS:     742720 MSHR_MERGE:          0
cpu0->LLC RFO          ACCESS:          0 HIT:          0 MISS:          0 MSHR_MERGE:          0
cpu0->LLC PREFETCH     ACCESS:    3269293 HIT:    2000470 MISS:    1268823 MSHR_MERGE:          0
cpu0->LLC WRITE        ACCESS:      20393 HIT:       8387 MISS:      12006 MSHR_MERGE:          0
cpu0->LLC TRANSLATION  ACCESS:       1378 HIT:        252 MISS:       1126 MSHR_MERGE:          0
cpu0->LLC PREFETCH REQUESTED:          0 ISSUED:          0 USEFUL:          0 USELESS:          0 LATE:          0
cpu0->LLC AVERAGE MISS LATENCY: 231.3 cycles

DRAM Statistics

Channel 0 RQ ROW_BUFFER_HIT:       7520
  ROW_BUFFER_MISS:    2004101
  AVG DBUS CONGESTED CYCLE: 5.98
Channel 0 WQ ROW_BUFFER_HIT:       8147
  ROW_BUFFER_MISS:      12475
  FULL:          0
Channel 0 REFRESHES ISSUED:       6862

[ROI Statistics]
[System Configuration]
num_cpus 1
cpu_freq 4000
fetch_width 6
decode_width 6
dispatch_width 6
execute_width 6
lq_width 2
sq_width 2
retire_width 6
scheduler_size 160
branch_mispredict_penalty 1
rob_size 352
lq_size 240
sq_size 112
ifetch_buffer_size 64
decode_buffer_size 32
dispatch_buffer_size 32
register_file_size 288
decode_latency 1
dispatch_latency 1
schedule_latency 0
execute_latency 0
page_size 4096
block_size 64
core_0_itlb_set 16
core_0_itlb_way 4
core_0_itlb_rq_size 16
core_0_itlb_wq_size 16
core_0_itlb_pq_size 0
core_0_itlb_mshr_size 8
core_0_itlb_hit_latency 1
core_0_itlb_fill_latency 1
core_0_itlb_max_tag_check 2
core_0_itlb_max_fill 2
core_0_dtlb_set 16
core_0_dtlb_way 4
core_0_dtlb_rq_size 16
core_0_dtlb_wq_size 16
core_0_dtlb_pq_size 0
core_0_dtlb_mshr_size 8
core_0_dtlb_hit_latency 1
core_0_dtlb_fill_latency 1
core_0_dtlb_max_tag_check 2
core_0_dtlb_max_fill 2
core_0_stlb_set 128
core_0_stlb_way 12
core_0_stlb_rq_size 32
core_0_stlb_wq_size 32
core_0_stlb_pq_size 0
core_0_stlb_mshr_size 16
core_0_stlb_hit_latency 4
core_0_stlb_fill_latency 4
core_0_stlb_max_tag_check 1
core_0_stlb_max_fill 1
core_0_l1i_set 64
core_0_l1i_way 8
core_0_l1i_rq_size 64
core_0_l1i_wq_size 64
core_0_l1i_pq_size 32
core_0_l1i_mshr_size 8
core_0_l1i_hit_latency 2
core_0_l1i_fill_latency 2
core_0_l1i_max_tag_check 2
core_0_l1i_max_fill 2
core_0_l1d_set 64
core_0_l1d_way 12
core_0_l1d_rq_size 64
core_0_l1d_wq_size 64
core_0_l1d_pq_size 8
core_0_l1d_mshr_size 16
core_0_l1d_hit_latency 2
core_0_l1d_fill_latency 3
core_0_l1d_max_tag_check 2
core_0_l1d_max_fill 2
core_0_l2c_set 1024
core_0_l2c_way 8
core_0_l2c_rq_size 32
core_0_l2c_wq_size 32
core_0_l2c_pq_size 16
core_0_l2c_mshr_size 32
core_0_l2c_hit_latency 5
core_0_l2c_fill_latency 5
core_0_l2c_max_tag_check 1
core_0_l2c_max_fill 1
llc_set 2048
llc_way 16
llc_rq_size 32
llc_wq_size 32
llc_pq_size 32
llc_mshr_size 64
llc_hit_latency 10
llc_fill_latency 10
llc_max_tag_check 1
llc_max_fill 1
dram_channels 1
dram_ranks 1
dram_bankgroups 8
dram_banks 4
dram_rows 16384
dram_columns 1024
dram_channel_width 8
dram_rq_size 64
dram_wq_size 64
dram_size 4294967296
core_0_itlb_prefetcher no
core_0_dtlb_prefetcher no
core_0_stlb_prefetcher no
core_0_l1i_prefetcher next_line
core_0_l1d_prefetcher berti
core_0_l2c_prefetcher pythia
llc_prefetcher no
llc_replacement drrip

Core_0_instructions 50000000
Core_0_cycles 82346547
Core_0_IPC 0.60719
Core_0_branch_prediction_accuracy 97.5048
Core_0_branch_MPKI 6.58186
Core_0_average_ROB_occupancy_at_mispredict 102.327

Core_0_ITLB_total_access 334861
Core_0_ITLB_total_hit 334861
Core_0_ITLB_total_miss 0
Core_0_ITLB_total_MPKI 0
Core_0_ITLB_total_miss_rate 0
Core_0_ITLB_demand_access 334861
Core_0_ITLB_demand_hit 334861
Core_0_ITLB_demand_miss 0
Core_0_ITLB_demand_MPKI 0
Core_0_ITLB_demand_miss_rate 0
Core_0_ITLB_load_access 334861
Core_0_ITLB_load_hit 334861
Core_0_ITLB_load_miss 0
Core_0_ITLB_load_MPKI 0
Core_0_ITLB_load_miss_rate 0
Core_0_ITLB_rfo_access 0
Core_0_ITLB_rfo_hit 0
Core_0_ITLB_rfo_miss 0
Core_0_ITLB_rfo_MPKI 0
Core_0_ITLB_rfo_miss_rate 0
Core_0_ITLB_prefetch_access 0
Core_0_ITLB_prefetch_hit 0
Core_0_ITLB_prefetch_miss 0
Core_0_ITLB_prefetch_MPKI 0
Core_0_ITLB_prefetch_miss_rate 0
Core_0_ITLB_writeback_access 0
Core_0_ITLB_writeback_hit 0
Core_0_ITLB_writeback_miss 0
Core_0_ITLB_writeback_MPKI 0
Core_0_ITLB_writeback_miss_rate 0
Core_0_ITLB_prefetch_requested 0
Core_0_ITLB_prefetch_issued 0
Core_0_ITLB_prefetch_useful 0
Core_0_ITLB_prefetch_useless 0
Core_0_ITLB_prefetch_late 0
Core_0_ITLB_prefetch_accuracy 0
Core_0_ITLB_prefetch_coverage 0

Core_0_DTLB_total_access 15279791
Core_0_DTLB_total_hit 11150158
Core_0_DTLB_total_miss 4129633
Core_0_DTLB_total_MPKI 82.5927
Core_0_DTLB_total_miss_rate 0.270268
Core_0_DTLB_demand_access 15279791
Core_0_DTLB_demand_hit 11150158
Core_0_DTLB_demand_miss 4129633
Core_0_DTLB_demand_MPKI 82.5927
Core_0_DTLB_demand_miss_rate 0.270268
Core_0_DTLB_load_access 15279791
Core_0_DTLB_load_hit 11150158
Core_0_DTLB_load_miss 4129633
Core_0_DTLB_load_MPKI 82.5927
Core_0_DTLB_load_miss_rate 0.270268
Core_0_DTLB_rfo_access 0
Core_0_DTLB_rfo_hit 0
Core_0_DTLB_rfo_miss 0
Core_0_DTLB_rfo_MPKI 0
Core_0_DTLB_rfo_miss_rate 0
Core_0_DTLB_prefetch_access 0
Core_0_DTLB_prefetch_hit 0
Core_0_DTLB_prefetch_miss 0
Core_0_DTLB_prefetch_MPKI 0
Core_0_DTLB_prefetch_miss_rate 0
Core_0_DTLB_writeback_access 0
Core_0_DTLB_writeback_hit 0
Core_0_DTLB_writeback_miss 0
Core_0_DTLB_writeback_MPKI 0
Core_0_DTLB_writeback_miss_rate 0
Core_0_DTLB_prefetch_requested 0
Core_0_DTLB_prefetch_issued 0
Core_0_DTLB_prefetch_useful 0
Core_0_DTLB_prefetch_useless 0
Core_0_DTLB_prefetch_late 0
Core_0_DTLB_prefetch_accuracy 0
Core_0_DTLB_prefetch_coverage 0

Core_0_STLB_total_access 3784343
Core_0_STLB_total_hit 3780272
Core_0_STLB_total_miss 4071
Core_0_STLB_total_MPKI 0.08142
Core_0_STLB_total_miss_rate 0.00107575
Core_0_STLB_demand_access 3784343
Core_0_STLB_demand_hit 3780272
Core_0_STLB_demand_miss 4071
Core_0_STLB_demand_MPKI 0.08142
Core_0_STLB_demand_miss_rate 0.00107575
Core_0_STLB_load_access 3784343
Core_0_STLB_load_hit 3780272
Core_0_STLB_load_miss 4071
Core_0_STLB_load_MPKI 0.08142
Core_0_STLB_load_miss_rate 0.00107575
Core_0_STLB_rfo_access 0
Core_0_STLB_rfo_hit 0
Core_0_STLB_rfo_miss 0
Core_0_STLB_rfo_MPKI 0
Core_0_STLB_rfo_miss_rate 0
Core_0_STLB_prefetch_access 0
Core_0_STLB_prefetch_hit 0
Core_0_STLB_prefetch_miss 0
Core_0_STLB_prefetch_MPKI 0
Core_0_STLB_prefetch_miss_rate 0
Core_0_STLB_writeback_access 0
Core_0_STLB_writeback_hit 0
Core_0_STLB_writeback_miss 0
Core_0_STLB_writeback_MPKI 0
Core_0_STLB_writeback_miss_rate 0
Core_0_STLB_prefetch_requested 0
Core_0_STLB_prefetch_issued 0
Core_0_STLB_prefetch_useful 0
Core_0_STLB_prefetch_useless 0
Core_0_STLB_prefetch_late 0
Core_0_STLB_prefetch_accuracy 0
Core_0_STLB_prefetch_coverage 0

Core_0_L1I_total_access 465812
Core_0_L1I_total_hit 465812
Core_0_L1I_total_miss 0
Core_0_L1I_total_MPKI 0
Core_0_L1I_total_miss_rate 0
Core_0_L1I_demand_access 465812
Core_0_L1I_demand_hit 465812
Core_0_L1I_demand_miss 0
Core_0_L1I_demand_MPKI 0
Core_0_L1I_demand_miss_rate 0
Core_0_L1I_load_access 465812
Core_0_L1I_load_hit 465812
Core_0_L1I_load_miss 0
Core_0_L1I_load_MPKI 0
Core_0_L1I_load_miss_rate 0
Core_0_L1I_rfo_access 0
Core_0_L1I_rfo_hit 0
Core_0_L1I_rfo_miss 0
Core_0_L1I_rfo_MPKI 0
Core_0_L1I_rfo_miss_rate 0
Core_0_L1I_prefetch_access 0
Core_0_L1I_prefetch_hit 0
Core_0_L1I_prefetch_miss 0
Core_0_L1I_prefetch_MPKI 0
Core_0_L1I_prefetch_miss_rate 0
Core_0_L1I_writeback_access 0
Core_0_L1I_writeback_hit 0
Core_0_L1I_writeback_miss 0
Core_0_L1I_writeback_MPKI 0
Core_0_L1I_writeback_miss_rate 0
Core_0_L1I_prefetch_requested 0
Core_0_L1I_prefetch_issued 0
Core_0_L1I_prefetch_useful 0
Core_0_L1I_prefetch_useless 0
Core_0_L1I_prefetch_late 0
Core_0_L1I_prefetch_accuracy 0
Core_0_L1I_prefetch_coverage 0

Core_0_L1D_total_access 15474490
Core_0_L1D_total_hit 10445865
Core_0_L1D_total_miss 5028625
Core_0_L1D_total_MPKI 100.573
Core_0_L1D_total_miss_rate 0.324962
Core_0_L1D_demand_access 13833204
Core_0_L1D_demand_hit 9618816
Core_0_L1D_demand_miss 4214388
Core_0_L1D_demand_MPKI 84.2878
Core_0_L1D_demand_miss_rate 0.304657
Core_0_L1D_load_access 13833204
Core_0_L1D_load_hit 9618816
Core_0_L1D_load_miss 4214388
Core_0_L1D_load_MPKI 84.2878
Core_0_L1D_load_miss_rate 0.304657
Core_0_L1D_rfo_access 0
Core_0_L1D_rfo_hit 0
Core_0_L1D_rfo_miss 0
Core_0_L1D_rfo_MPKI 0
Core_0_L1D_rfo_miss_rate 0
Core_0_L1D_prefetch_access 1313404
Core_0_L1D_prefetch_hit 499167
Core_0_L1D_prefetch_miss 814237
Core_0_L1D_prefetch_MPKI 16.2847
Core_0_L1D_prefetch_miss_rate 0.619944
Core_0_L1D_writeback_access 327882
Core_0_L1D_writeback_hit 327882
Core_0_L1D_writeback_miss 0
Core_0_L1D_writeback_MPKI 0
Core_0_L1D_writeback_miss_rate 0
Core_0_L1D_prefetch_requested 1323585
Core_0_L1D_prefetch_issued 1313396
Core_0_L1D_prefetch_useful 337353
Core_0_L1D_prefetch_useless 470474
Core_0_L1D_prefetch_late 5443
Core_0_L1D_prefetch_accuracy 0.256856
Core_0_L1D_prefetch_coverage 0.0741152

Core_0_L2C_total_access 10975120
Core_0_L2C_total_hit 5003182
Core_0_L2C_total_miss 5971938
Core_0_L2C_total_MPKI 119.439
Core_0_L2C_total_miss_rate 0.544134
Core_0_L2C_demand_access 4038241
Core_0_L2C_demand_hit 1555426
Core_0_L2C_demand_miss 2482815
Core_0_L2C_demand_MPKI 49.6563
Core_0_L2C_demand_miss_rate 0.614826
Core_0_L2C_load_access 4038241
Core_0_L2C_load_hit 1555426
Core_0_L2C_load_miss 2482815
Core_0_L2C_load_MPKI 49.6563
Core_0_L2C_load_miss_rate 0.614826
Core_0_L2C_rfo_access 0
Core_0_L2C_rfo_hit 0
Core_0_L2C_rfo_miss 0
Core_0_L2C_rfo_MPKI 0
Core_0_L2C_rfo_miss_rate 0
Core_0_L2C_prefetch_access 6916381
Core_0_L2C_prefetch_hit 3427369
Core_0_L2C_prefetch_miss 3489012
Core_0_L2C_prefetch_MPKI 69.7802
Core_0_L2C_prefetch_miss_rate 0.504456
Core_0_L2C_writeback_access 20498
Core_0_L2C_writeback_hit 20387
Core_0_L2C_writeback_miss 111
Core_0_L2C_writeback_MPKI 0.00222
Core_0_L2C_writeback_miss_rate 0.00541516
Core_0_L2C_prefetch_requested 6527991
Core_0_L2C_prefetch_issued 6108475
Core_0_L2C_prefetch_useful 816209
Core_0_L2C_prefetch_useless 2178142
Core_0_L2C_prefetch_late 6817
Core_0_L2C_prefetch_accuracy 0.133619
Core_0_L2C_prefetch_coverage 0.247409

Core_0_LLC_total_access 5765684
Core_0_LLC_total_hit 3742135
Core_0_LLC_total_miss 2023549
Core_0_LLC_total_MPKI 40.471
Core_0_LLC_total_miss_rate 0.350964
Core_0_LLC_demand_access 2475998
Core_0_LLC_demand_hit 1733278
Core_0_LLC_demand_miss 742720
Core_0_LLC_demand_MPKI 14.8544
Core_0_LLC_demand_miss_rate 0.299968
Core_0_LLC_load_access 2475998
Core_0_LLC_load_hit 1733278
Core_0_LLC_load_miss 742720
Core_0_LLC_load_MPKI 14.8544
Core_0_LLC_load_miss_rate 0.299968
Core_0_LLC_rfo_access 0
Core_0_LLC_rfo_hit 0
Core_0_LLC_rfo_miss 0
Core_0_LLC_rfo_MPKI 0
Core_0_LLC_rfo_miss_rate 0
Core_0_LLC_prefetch_access 3269293
Core_0_LLC_prefetch_hit 2000470
Core_0_LLC_prefetch_miss 1268823
Core_0_LLC_prefetch_MPKI 25.3765
Core_0_LLC_prefetch_miss_rate 0.388103
Core_0_LLC_writeback_access 20393
Core_0_LLC_writeback_hit 8387
Core_0_LLC_writeback_miss 12006
Core_0_LLC_writeback_MPKI 0.24012
Core_0_LLC_writeback_miss_rate 0.588731
Core_0_LLC_prefetch_requested 0
Core_0_LLC_prefetch_issued 0
Core_0_LLC_prefetch_useful 0
Core_0_LLC_prefetch_useless 0
Core_0_LLC_prefetch_late 0
Core_0_LLC_prefetch_accuracy 0
Core_0_LLC_prefetch_coverage 0

[DRAM Statistics]
Channel_0_RQ_row_buffer_hit 7520
Channel_0_RQ_row_buffer_miss 2004101
Channel_0_WQ_row_buffer_hit 8147
Channel_0_WQ_row_buffer_miss 12475
Channel_0_WQ_full 0
Channel_0_dbus_congested 3752638
DRAM_total_RQ_row_buffer_hit 7520
DRAM_total_RQ_row_buffer_miss 2004101
DRAM_total_WQ_row_buffer_hit 8147
DRAM_total_WQ_row_buffer_miss 12475
DRAM_total_WQ_full 0
DRAM_total_dbus_congested 3752638
DRAM_avg_congested_cycle 5.97961

======STLB miss causes ========
Core_0_STLB_miss_cause_breakdown
Core_0_STLB_cause_Demand_Data_miss 4071
Core_0_STLB_cause_Demand_Data_miss_rate 0.00107575
Core_0_STLB_cause_Demand_Instruction_miss 0
Core_0_STLB_cause_Demand_Instruction_miss_rate 0
Core_0_STLB_cause_L1D_Prefetch_miss 0
Core_0_STLB_cause_L1D_Prefetch_miss_rate 0
Core_0_STLB_cause_L1I_Prefetch_miss 0
Core_0_STLB_cause_L1I_Prefetch_miss_rate 0
Core_0_STLB_cause_Other_miss 0
Core_0_STLB_cause_Other_miss_rate 0
Core_0_STLB_Demand_miss 4071
Core_0_STLB_Demand_miss_rate 0.00107575
Core_0_STLB_L1D_Prefetch_miss 0
Core_0_STLB_L1D_Prefetch_miss_rate 0
Core_0_STLB_Other_miss 0
Core_0_STLB_Other_miss_rate 0
