[VMEM] WARNING: physical memory size is smaller than virtual memory size.

*** ChampSim Multicore Out-of-Order Simulator ***
Warmup Instructions: 20000000
Simulation Instructions: 50000000
Number of CPUs: 1
Page size: 4096
STLB ideal mode: l1pref
Core 0: /data0/tzh/champsim_traces/Ligra/ligra_CF.com-lj.ungraph.gcc_6.3.0_O3.drop_10750M.length_250M.champsimtrace.xz
 L1D Berti prefetcher
Off-chip DRAM Size: 4 GiB Channels: 1 Width: 64-bit Data Rate: 3205 MT/s
Warmup halting CPU 0 at instruction 20000003 cycle 4416930 for remainder of phase
Warmup finished CPU 0 instructions: 20000003 cycles: 4416930 cumulative IPC: 4.528 (Simulation time: 00 hr 00 min 46 sec)
Warmup complete CPU 0 instructions: 20000003 cycles: 4416930 cumulative IPC: 4.528 (Simulation time: 00 hr 00 min 46 sec)
Simulation finished CPU 0 instructions: 50000000 cycles: 29097314 cumulative IPC: 1.718 (Simulation time: 00 hr 03 min 56 sec)
Simulation complete CPU 0 instructions: 50000000 cycles: 29097314 cumulative IPC: 1.718 (Simulation time: 00 hr 03 min 56 sec)

ChampSim completed all CPUs

=== Simulation ===
CPU 0 runs /data0/tzh/champsim_traces/Ligra/ligra_CF.com-lj.ungraph.gcc_6.3.0_O3.drop_10750M.length_250M.champsimtrace.xz

Region of Interest Statistics

CPU 0 cumulative IPC: 1.718 instructions: 50000000 cycles: 29097314
CPU 0 Branch Prediction Accuracy: 95.57% MPKI: 12.76 Average ROB Occupancy at Mispredict: 44.54
Branch type MPKI
BRANCH_DIRECT_JUMP: 0
BRANCH_INDIRECT: 0
BRANCH_CONDITIONAL: 12.76
BRANCH_DIRECT_CALL: 0
BRANCH_INDIRECT_CALL: 0
BRANCH_RETURN: 0

cpu0->cpu0_STLB TOTAL        ACCESS:       1209 HIT:         75 MISS:       1134 MSHR_MERGE:          0
cpu0->cpu0_STLB LOAD         ACCESS:       1209 HIT:         75 MISS:       1134 MSHR_MERGE:          0
cpu0->cpu0_STLB RFO          ACCESS:          0 HIT:          0 MISS:          0 MSHR_MERGE:          0
cpu0->cpu0_STLB PREFETCH     ACCESS:          0 HIT:          0 MISS:          0 MSHR_MERGE:          0
cpu0->cpu0_STLB WRITE        ACCESS:          0 HIT:          0 MISS:          0 MSHR_MERGE:          0
cpu0->cpu0_STLB TRANSLATION  ACCESS:          0 HIT:          0 MISS:          0 MSHR_MERGE:          0
cpu0->cpu0_STLB PREFETCH REQUESTED:          0 ISSUED:          0 USEFUL:          0 USELESS:          0 LATE:          0
cpu0->cpu0_STLB AVERAGE MISS LATENCY: 235.6 cycles
cpu0->cpu0_L2C TOTAL        ACCESS:     396161 HIT:     317935 MISS:      78226 MSHR_MERGE:        966
cpu0->cpu0_L2C LOAD         ACCESS:       1311 HIT:        469 MISS:        842 MSHR_MERGE:          0
cpu0->cpu0_L2C RFO          ACCESS:      18723 HIT:          0 MISS:      18723 MSHR_MERGE:          0
cpu0->cpu0_L2C PREFETCH     ACCESS:     357249 HIT:     298741 MISS:      58508 MSHR_MERGE:        966
cpu0->cpu0_L2C WRITE        ACCESS:      18714 HIT:      18714 MISS:          0 MSHR_MERGE:          0
cpu0->cpu0_L2C TRANSLATION  ACCESS:        164 HIT:         11 MISS:        153 MSHR_MERGE:          0
cpu0->cpu0_L2C PREFETCH REQUESTED:     300168 ISSUED:     300168 USEFUL:      56596 USELESS:         87 LATE:          0
cpu0->cpu0_L2C AVERAGE MISS LATENCY: 178.2 cycles
cpu0->cpu0_L1I TOTAL        ACCESS:         26 HIT:         26 MISS:          0 MSHR_MERGE:          0
cpu0->cpu0_L1I LOAD         ACCESS:         26 HIT:         26 MISS:          0 MSHR_MERGE:          0
cpu0->cpu0_L1I RFO          ACCESS:          0 HIT:          0 MISS:          0 MSHR_MERGE:          0
cpu0->cpu0_L1I PREFETCH     ACCESS:          0 HIT:          0 MISS:          0 MSHR_MERGE:          0
cpu0->cpu0_L1I WRITE        ACCESS:          0 HIT:          0 MISS:          0 MSHR_MERGE:          0
cpu0->cpu0_L1I TRANSLATION  ACCESS:          0 HIT:          0 MISS:          0 MSHR_MERGE:          0
cpu0->cpu0_L1I PREFETCH REQUESTED:          0 ISSUED:          0 USEFUL:          0 USELESS:          0 LATE:          0
cpu0->cpu0_L1I AVERAGE MISS LATENCY: - cycles
cpu0->cpu0_L1D TOTAL        ACCESS:    9543027 HIT:    9438670 MISS:     104357 MSHR_MERGE:      27078
cpu0->cpu0_L1D LOAD         ACCESS:    5888629 HIT:    5886601 MISS:       2028 MSHR_MERGE:        717
cpu0->cpu0_L1D RFO          ACCESS:          0 HIT:          0 MISS:          0 MSHR_MERGE:          0
cpu0->cpu0_L1D PREFETCH     ACCESS:      57314 HIT:        233 MISS:      57081 MSHR_MERGE:          0
cpu0->cpu0_L1D WRITE        ACCESS:    3594813 HIT:    3549729 MISS:      45084 MSHR_MERGE:      26361
cpu0->cpu0_L1D TRANSLATION  ACCESS:       2271 HIT:       2107 MISS:        164 MSHR_MERGE:          0
cpu0->cpu0_L1D PREFETCH REQUESTED:      57313 ISSUED:      57313 USEFUL:      57075 USELESS:          5 LATE:          1
cpu0->cpu0_L1D AVERAGE MISS LATENCY: 182.9 cycles
cpu0->cpu0_ITLB TOTAL        ACCESS:         26 HIT:         26 MISS:          0 MSHR_MERGE:          0
cpu0->cpu0_ITLB LOAD         ACCESS:         26 HIT:         26 MISS:          0 MSHR_MERGE:          0
cpu0->cpu0_ITLB RFO          ACCESS:          0 HIT:          0 MISS:          0 MSHR_MERGE:          0
cpu0->cpu0_ITLB PREFETCH     ACCESS:          0 HIT:          0 MISS:          0 MSHR_MERGE:          0
cpu0->cpu0_ITLB WRITE        ACCESS:          0 HIT:          0 MISS:          0 MSHR_MERGE:          0
cpu0->cpu0_ITLB TRANSLATION  ACCESS:          0 HIT:          0 MISS:          0 MSHR_MERGE:          0
cpu0->cpu0_ITLB PREFETCH REQUESTED:          0 ISSUED:          0 USEFUL:          0 USELESS:          0 LATE:          0
cpu0->cpu0_ITLB AVERAGE MISS LATENCY: - cycles
cpu0->cpu0_DTLB TOTAL        ACCESS:    9241132 HIT:    9238697 MISS:       2435 MSHR_MERGE:       1226
cpu0->cpu0_DTLB LOAD         ACCESS:    9241132 HIT:    9238697 MISS:       2435 MSHR_MERGE:       1226
cpu0->cpu0_DTLB RFO          ACCESS:          0 HIT:          0 MISS:          0 MSHR_MERGE:          0
cpu0->cpu0_DTLB PREFETCH     ACCESS:          0 HIT:          0 MISS:          0 MSHR_MERGE:          0
cpu0->cpu0_DTLB WRITE        ACCESS:          0 HIT:          0 MISS:          0 MSHR_MERGE:          0
cpu0->cpu0_DTLB TRANSLATION  ACCESS:          0 HIT:          0 MISS:          0 MSHR_MERGE:          0
cpu0->cpu0_DTLB PREFETCH REQUESTED:          0 ISSUED:          0 USEFUL:          0 USELESS:          0 LATE:          0
cpu0->cpu0_DTLB AVERAGE MISS LATENCY: 227 cycles
cpu0->LLC TOTAL        ACCESS:      95705 HIT:       5549 MISS:      90156 MSHR_MERGE:          0
cpu0->LLC LOAD         ACCESS:        842 HIT:          0 MISS:        842 MSHR_MERGE:          0
cpu0->LLC RFO          ACCESS:      18723 HIT:          0 MISS:      18723 MSHR_MERGE:          0
cpu0->LLC PREFETCH     ACCESS:      57542 HIT:          4 MISS:      57538 MSHR_MERGE:          0
cpu0->LLC WRITE        ACCESS:      18445 HIT:       5544 MISS:      12901 MSHR_MERGE:          0
cpu0->LLC TRANSLATION  ACCESS:        153 HIT:          1 MISS:        152 MSHR_MERGE:          0
cpu0->LLC PREFETCH REQUESTED:          0 ISSUED:          0 USEFUL:          0 USELESS:          0 LATE:          0
cpu0->LLC AVERAGE MISS LATENCY: 101.6 cycles

DRAM Statistics

Channel 0 RQ ROW_BUFFER_HIT:          1
  ROW_BUFFER_MISS:      77254
  AVG DBUS CONGESTED CYCLE: 10.59
Channel 0 WQ ROW_BUFFER_HIT:        357
  ROW_BUFFER_MISS:       3932
  FULL:          0
Channel 0 REFRESHES ISSUED:       2424

[ROI Statistics]
[System Configuration]
num_cpus 1
cpu_freq 4000
fetch_width 6
decode_width 6
dispatch_width 6
execute_width 6
lq_width 2
sq_width 2
retire_width 6
scheduler_size 160
branch_mispredict_penalty 1
rob_size 352
lq_size 240
sq_size 112
ifetch_buffer_size 64
decode_buffer_size 32
dispatch_buffer_size 32
register_file_size 288
decode_latency 1
dispatch_latency 1
schedule_latency 0
execute_latency 0
page_size 4096
block_size 64
core_0_itlb_set 16
core_0_itlb_way 4
core_0_itlb_rq_size 16
core_0_itlb_wq_size 16
core_0_itlb_pq_size 0
core_0_itlb_mshr_size 8
core_0_itlb_hit_latency 1
core_0_itlb_fill_latency 1
core_0_itlb_max_tag_check 2
core_0_itlb_max_fill 2
core_0_dtlb_set 16
core_0_dtlb_way 4
core_0_dtlb_rq_size 16
core_0_dtlb_wq_size 16
core_0_dtlb_pq_size 0
core_0_dtlb_mshr_size 8
core_0_dtlb_hit_latency 1
core_0_dtlb_fill_latency 1
core_0_dtlb_max_tag_check 2
core_0_dtlb_max_fill 2
core_0_stlb_set 128
core_0_stlb_way 12
core_0_stlb_rq_size 32
core_0_stlb_wq_size 32
core_0_stlb_pq_size 0
core_0_stlb_mshr_size 16
core_0_stlb_hit_latency 4
core_0_stlb_fill_latency 4
core_0_stlb_max_tag_check 1
core_0_stlb_max_fill 1
core_0_l1i_set 64
core_0_l1i_way 8
core_0_l1i_rq_size 64
core_0_l1i_wq_size 64
core_0_l1i_pq_size 32
core_0_l1i_mshr_size 8
core_0_l1i_hit_latency 2
core_0_l1i_fill_latency 2
core_0_l1i_max_tag_check 2
core_0_l1i_max_fill 2
core_0_l1d_set 64
core_0_l1d_way 12
core_0_l1d_rq_size 64
core_0_l1d_wq_size 64
core_0_l1d_pq_size 8
core_0_l1d_mshr_size 16
core_0_l1d_hit_latency 2
core_0_l1d_fill_latency 3
core_0_l1d_max_tag_check 2
core_0_l1d_max_fill 2
core_0_l2c_set 1024
core_0_l2c_way 8
core_0_l2c_rq_size 32
core_0_l2c_wq_size 32
core_0_l2c_pq_size 16
core_0_l2c_mshr_size 32
core_0_l2c_hit_latency 5
core_0_l2c_fill_latency 5
core_0_l2c_max_tag_check 1
core_0_l2c_max_fill 1
llc_set 2048
llc_way 16
llc_rq_size 32
llc_wq_size 32
llc_pq_size 32
llc_mshr_size 64
llc_hit_latency 10
llc_fill_latency 10
llc_max_tag_check 1
llc_max_fill 1
dram_channels 1
dram_ranks 1
dram_bankgroups 8
dram_banks 4
dram_rows 16384
dram_columns 1024
dram_channel_width 8
dram_rq_size 64
dram_wq_size 64
dram_size 4294967296
core_0_itlb_prefetcher no
core_0_dtlb_prefetcher no
core_0_stlb_prefetcher no
core_0_l1i_prefetcher next_line
core_0_l1d_prefetcher berti
core_0_l2c_prefetcher pythia
llc_prefetcher no
llc_replacement drrip

Core_0_instructions 50000000
Core_0_cycles 29097314
Core_0_IPC 1.71837
Core_0_branch_prediction_accuracy 95.5661
Core_0_branch_MPKI 12.7633
Core_0_average_ROB_occupancy_at_mispredict 44.5442

Core_0_ITLB_total_access 26
Core_0_ITLB_total_hit 26
Core_0_ITLB_total_miss 0
Core_0_ITLB_total_MPKI 0
Core_0_ITLB_total_miss_rate 0
Core_0_ITLB_demand_access 26
Core_0_ITLB_demand_hit 26
Core_0_ITLB_demand_miss 0
Core_0_ITLB_demand_MPKI 0
Core_0_ITLB_demand_miss_rate 0
Core_0_ITLB_load_access 26
Core_0_ITLB_load_hit 26
Core_0_ITLB_load_miss 0
Core_0_ITLB_load_MPKI 0
Core_0_ITLB_load_miss_rate 0
Core_0_ITLB_rfo_access 0
Core_0_ITLB_rfo_hit 0
Core_0_ITLB_rfo_miss 0
Core_0_ITLB_rfo_MPKI 0
Core_0_ITLB_rfo_miss_rate 0
Core_0_ITLB_prefetch_access 0
Core_0_ITLB_prefetch_hit 0
Core_0_ITLB_prefetch_miss 0
Core_0_ITLB_prefetch_MPKI 0
Core_0_ITLB_prefetch_miss_rate 0
Core_0_ITLB_writeback_access 0
Core_0_ITLB_writeback_hit 0
Core_0_ITLB_writeback_miss 0
Core_0_ITLB_writeback_MPKI 0
Core_0_ITLB_writeback_miss_rate 0
Core_0_ITLB_prefetch_requested 0
Core_0_ITLB_prefetch_issued 0
Core_0_ITLB_prefetch_useful 0
Core_0_ITLB_prefetch_useless 0
Core_0_ITLB_prefetch_late 0
Core_0_ITLB_prefetch_accuracy 0
Core_0_ITLB_prefetch_coverage 0

Core_0_DTLB_total_access 9241132
Core_0_DTLB_total_hit 9238697
Core_0_DTLB_total_miss 2435
Core_0_DTLB_total_MPKI 0.0487
Core_0_DTLB_total_miss_rate 0.000263496
Core_0_DTLB_demand_access 9241132
Core_0_DTLB_demand_hit 9238697
Core_0_DTLB_demand_miss 2435
Core_0_DTLB_demand_MPKI 0.0487
Core_0_DTLB_demand_miss_rate 0.000263496
Core_0_DTLB_load_access 9241132
Core_0_DTLB_load_hit 9238697
Core_0_DTLB_load_miss 2435
Core_0_DTLB_load_MPKI 0.0487
Core_0_DTLB_load_miss_rate 0.000263496
Core_0_DTLB_rfo_access 0
Core_0_DTLB_rfo_hit 0
Core_0_DTLB_rfo_miss 0
Core_0_DTLB_rfo_MPKI 0
Core_0_DTLB_rfo_miss_rate 0
Core_0_DTLB_prefetch_access 0
Core_0_DTLB_prefetch_hit 0
Core_0_DTLB_prefetch_miss 0
Core_0_DTLB_prefetch_MPKI 0
Core_0_DTLB_prefetch_miss_rate 0
Core_0_DTLB_writeback_access 0
Core_0_DTLB_writeback_hit 0
Core_0_DTLB_writeback_miss 0
Core_0_DTLB_writeback_MPKI 0
Core_0_DTLB_writeback_miss_rate 0
Core_0_DTLB_prefetch_requested 0
Core_0_DTLB_prefetch_issued 0
Core_0_DTLB_prefetch_useful 0
Core_0_DTLB_prefetch_useless 0
Core_0_DTLB_prefetch_late 0
Core_0_DTLB_prefetch_accuracy 0
Core_0_DTLB_prefetch_coverage 0

Core_0_STLB_total_access 1209
Core_0_STLB_total_hit 75
Core_0_STLB_total_miss 1134
Core_0_STLB_total_MPKI 0.02268
Core_0_STLB_total_miss_rate 0.937965
Core_0_STLB_demand_access 1209
Core_0_STLB_demand_hit 75
Core_0_STLB_demand_miss 1134
Core_0_STLB_demand_MPKI 0.02268
Core_0_STLB_demand_miss_rate 0.937965
Core_0_STLB_load_access 1209
Core_0_STLB_load_hit 75
Core_0_STLB_load_miss 1134
Core_0_STLB_load_MPKI 0.02268
Core_0_STLB_load_miss_rate 0.937965
Core_0_STLB_rfo_access 0
Core_0_STLB_rfo_hit 0
Core_0_STLB_rfo_miss 0
Core_0_STLB_rfo_MPKI 0
Core_0_STLB_rfo_miss_rate 0
Core_0_STLB_prefetch_access 0
Core_0_STLB_prefetch_hit 0
Core_0_STLB_prefetch_miss 0
Core_0_STLB_prefetch_MPKI 0
Core_0_STLB_prefetch_miss_rate 0
Core_0_STLB_writeback_access 0
Core_0_STLB_writeback_hit 0
Core_0_STLB_writeback_miss 0
Core_0_STLB_writeback_MPKI 0
Core_0_STLB_writeback_miss_rate 0
Core_0_STLB_prefetch_requested 0
Core_0_STLB_prefetch_issued 0
Core_0_STLB_prefetch_useful 0
Core_0_STLB_prefetch_useless 0
Core_0_STLB_prefetch_late 0
Core_0_STLB_prefetch_accuracy 0
Core_0_STLB_prefetch_coverage 0

Core_0_L1I_total_access 26
Core_0_L1I_total_hit 26
Core_0_L1I_total_miss 0
Core_0_L1I_total_MPKI 0
Core_0_L1I_total_miss_rate 0
Core_0_L1I_demand_access 26
Core_0_L1I_demand_hit 26
Core_0_L1I_demand_miss 0
Core_0_L1I_demand_MPKI 0
Core_0_L1I_demand_miss_rate 0
Core_0_L1I_load_access 26
Core_0_L1I_load_hit 26
Core_0_L1I_load_miss 0
Core_0_L1I_load_MPKI 0
Core_0_L1I_load_miss_rate 0
Core_0_L1I_rfo_access 0
Core_0_L1I_rfo_hit 0
Core_0_L1I_rfo_miss 0
Core_0_L1I_rfo_MPKI 0
Core_0_L1I_rfo_miss_rate 0
Core_0_L1I_prefetch_access 0
Core_0_L1I_prefetch_hit 0
Core_0_L1I_prefetch_miss 0
Core_0_L1I_prefetch_MPKI 0
Core_0_L1I_prefetch_miss_rate 0
Core_0_L1I_writeback_access 0
Core_0_L1I_writeback_hit 0
Core_0_L1I_writeback_miss 0
Core_0_L1I_writeback_MPKI 0
Core_0_L1I_writeback_miss_rate 0
Core_0_L1I_prefetch_requested 0
Core_0_L1I_prefetch_issued 0
Core_0_L1I_prefetch_useful 0
Core_0_L1I_prefetch_useless 0
Core_0_L1I_prefetch_late 0
Core_0_L1I_prefetch_accuracy 0
Core_0_L1I_prefetch_coverage 0

Core_0_L1D_total_access 9540756
Core_0_L1D_total_hit 9436563
Core_0_L1D_total_miss 104193
Core_0_L1D_total_MPKI 2.08386
Core_0_L1D_total_miss_rate 0.0109208
Core_0_L1D_demand_access 5888629
Core_0_L1D_demand_hit 5886601
Core_0_L1D_demand_miss 2028
Core_0_L1D_demand_MPKI 0.04056
Core_0_L1D_demand_miss_rate 0.000344393
Core_0_L1D_load_access 5888629
Core_0_L1D_load_hit 5886601
Core_0_L1D_load_miss 2028
Core_0_L1D_load_MPKI 0.04056
Core_0_L1D_load_miss_rate 0.000344393
Core_0_L1D_rfo_access 0
Core_0_L1D_rfo_hit 0
Core_0_L1D_rfo_miss 0
Core_0_L1D_rfo_MPKI 0
Core_0_L1D_rfo_miss_rate 0
Core_0_L1D_prefetch_access 57314
Core_0_L1D_prefetch_hit 233
Core_0_L1D_prefetch_miss 57081
Core_0_L1D_prefetch_MPKI 1.14162
Core_0_L1D_prefetch_miss_rate 0.995935
Core_0_L1D_writeback_access 3594813
Core_0_L1D_writeback_hit 3549729
Core_0_L1D_writeback_miss 45084
Core_0_L1D_writeback_MPKI 0.90168
Core_0_L1D_writeback_miss_rate 0.0125414
Core_0_L1D_prefetch_requested 57313
Core_0_L1D_prefetch_issued 57313
Core_0_L1D_prefetch_useful 57075
Core_0_L1D_prefetch_useless 5
Core_0_L1D_prefetch_late 1
Core_0_L1D_prefetch_accuracy 0.995847
Core_0_L1D_prefetch_coverage 0.965687

Core_0_L2C_total_access 395997
Core_0_L2C_total_hit 317924
Core_0_L2C_total_miss 78073
Core_0_L2C_total_MPKI 1.56146
Core_0_L2C_total_miss_rate 0.197156
Core_0_L2C_demand_access 20034
Core_0_L2C_demand_hit 469
Core_0_L2C_demand_miss 19565
Core_0_L2C_demand_MPKI 0.3913
Core_0_L2C_demand_miss_rate 0.97659
Core_0_L2C_load_access 1311
Core_0_L2C_load_hit 469
Core_0_L2C_load_miss 842
Core_0_L2C_load_MPKI 0.01684
Core_0_L2C_load_miss_rate 0.642258
Core_0_L2C_rfo_access 18723
Core_0_L2C_rfo_hit 0
Core_0_L2C_rfo_miss 18723
Core_0_L2C_rfo_MPKI 0.37446
Core_0_L2C_rfo_miss_rate 1
Core_0_L2C_prefetch_access 357249
Core_0_L2C_prefetch_hit 298741
Core_0_L2C_prefetch_miss 58508
Core_0_L2C_prefetch_MPKI 1.17016
Core_0_L2C_prefetch_miss_rate 0.163774
Core_0_L2C_writeback_access 18714
Core_0_L2C_writeback_hit 18714
Core_0_L2C_writeback_miss 0
Core_0_L2C_writeback_MPKI 0
Core_0_L2C_writeback_miss_rate 0
Core_0_L2C_prefetch_requested 300168
Core_0_L2C_prefetch_issued 300168
Core_0_L2C_prefetch_useful 56596
Core_0_L2C_prefetch_useless 87
Core_0_L2C_prefetch_late 0
Core_0_L2C_prefetch_accuracy 0.188548
Core_0_L2C_prefetch_coverage 0.74311

Core_0_LLC_total_access 95552
Core_0_LLC_total_hit 5548
Core_0_LLC_total_miss 90004
Core_0_LLC_total_MPKI 1.80008
Core_0_LLC_total_miss_rate 0.941937
Core_0_LLC_demand_access 19565
Core_0_LLC_demand_hit 0
Core_0_LLC_demand_miss 19565
Core_0_LLC_demand_MPKI 0.3913
Core_0_LLC_demand_miss_rate 1
Core_0_LLC_load_access 842
Core_0_LLC_load_hit 0
Core_0_LLC_load_miss 842
Core_0_LLC_load_MPKI 0.01684
Core_0_LLC_load_miss_rate 1
Core_0_LLC_rfo_access 18723
Core_0_LLC_rfo_hit 0
Core_0_LLC_rfo_miss 18723
Core_0_LLC_rfo_MPKI 0.37446
Core_0_LLC_rfo_miss_rate 1
Core_0_LLC_prefetch_access 57542
Core_0_LLC_prefetch_hit 4
Core_0_LLC_prefetch_miss 57538
Core_0_LLC_prefetch_MPKI 1.15076
Core_0_LLC_prefetch_miss_rate 0.99993
Core_0_LLC_writeback_access 18445
Core_0_LLC_writeback_hit 5544
Core_0_LLC_writeback_miss 12901
Core_0_LLC_writeback_MPKI 0.25802
Core_0_LLC_writeback_miss_rate 0.699431
Core_0_LLC_prefetch_requested 0
Core_0_LLC_prefetch_issued 0
Core_0_LLC_prefetch_useful 0
Core_0_LLC_prefetch_useless 0
Core_0_LLC_prefetch_late 0
Core_0_LLC_prefetch_accuracy 0
Core_0_LLC_prefetch_coverage 0

[DRAM Statistics]
Channel_0_RQ_row_buffer_hit 1
Channel_0_RQ_row_buffer_miss 77254
Channel_0_WQ_row_buffer_hit 357
Channel_0_WQ_row_buffer_miss 3932
Channel_0_WQ_full 0
Channel_0_dbus_congested 37855
DRAM_total_RQ_row_buffer_hit 1
DRAM_total_RQ_row_buffer_miss 77254
DRAM_total_WQ_row_buffer_hit 357
DRAM_total_WQ_row_buffer_miss 3932
DRAM_total_WQ_full 0
DRAM_total_dbus_congested 37855
DRAM_avg_congested_cycle 10.5868

======STLB miss causes ========
Core_0_STLB_miss_cause_breakdown
Core_0_STLB_cause_Demand_Data_miss 1134
Core_0_STLB_cause_Demand_Data_miss_rate 0.937965
Core_0_STLB_cause_Demand_Instruction_miss 0
Core_0_STLB_cause_Demand_Instruction_miss_rate 0
Core_0_STLB_cause_L1D_Prefetch_miss 0
Core_0_STLB_cause_L1D_Prefetch_miss_rate 0
Core_0_STLB_cause_L1I_Prefetch_miss 0
Core_0_STLB_cause_L1I_Prefetch_miss_rate 0
Core_0_STLB_cause_Other_miss 0
Core_0_STLB_cause_Other_miss_rate 0
Core_0_STLB_Demand_miss 1134
Core_0_STLB_Demand_miss_rate 0.937965
Core_0_STLB_L1D_Prefetch_miss 0
Core_0_STLB_L1D_Prefetch_miss_rate 0
Core_0_STLB_Other_miss 0
Core_0_STLB_Other_miss_rate 0
