[VMEM] WARNING: physical memory size is smaller than virtual memory size.

*** ChampSim Multicore Out-of-Order Simulator ***
Warmup Instructions: 20000000
Simulation Instructions: 50000000
Number of CPUs: 1
Page size: 4096
STLB ideal mode: l1pref
Core 0: /data0/tzh/champsim_traces/Ligra/ligra_PageRankDelta.com-lj.ungraph.gcc_6.3.0_O3.drop_35250M.length_250M.champsimtrace.xz
 L1D Berti prefetcher
Off-chip DRAM Size: 4 GiB Channels: 1 Width: 64-bit Data Rate: 3205 MT/s
Warmup halting CPU 0 at instruction 20000002 cycle 4957219 for remainder of phase
Warmup finished CPU 0 instructions: 20000002 cycles: 4957219 cumulative IPC: 4.035 (Simulation time: 00 hr 01 min 02 sec)
Warmup complete CPU 0 instructions: 20000002 cycles: 4957219 cumulative IPC: 4.035 (Simulation time: 00 hr 01 min 02 sec)
Simulation finished CPU 0 instructions: 50000003 cycles: 30231549 cumulative IPC: 1.654 (Simulation time: 00 hr 05 min 02 sec)
Simulation complete CPU 0 instructions: 50000003 cycles: 30231549 cumulative IPC: 1.654 (Simulation time: 00 hr 05 min 02 sec)

ChampSim completed all CPUs

=== Simulation ===
CPU 0 runs /data0/tzh/champsim_traces/Ligra/ligra_PageRankDelta.com-lj.ungraph.gcc_6.3.0_O3.drop_35250M.length_250M.champsimtrace.xz

Region of Interest Statistics

CPU 0 cumulative IPC: 1.654 instructions: 50000003 cycles: 30231549
CPU 0 Branch Prediction Accuracy: 93.81% MPKI: 10.64 Average ROB Occupancy at Mispredict: 28.8
Branch type MPKI
BRANCH_DIRECT_JUMP: 0.00012
BRANCH_INDIRECT: 0
BRANCH_CONDITIONAL: 10.64
BRANCH_DIRECT_CALL: 0.00012
BRANCH_INDIRECT_CALL: 0
BRANCH_RETURN: 0.00012

cpu0->cpu0_STLB TOTAL        ACCESS:      11456 HIT:        286 MISS:      11170 MSHR_MERGE:          0
cpu0->cpu0_STLB LOAD         ACCESS:      11456 HIT:        286 MISS:      11170 MSHR_MERGE:          0
cpu0->cpu0_STLB RFO          ACCESS:          0 HIT:          0 MISS:          0 MSHR_MERGE:          0
cpu0->cpu0_STLB PREFETCH     ACCESS:          0 HIT:          0 MISS:          0 MSHR_MERGE:          0
cpu0->cpu0_STLB WRITE        ACCESS:          0 HIT:          0 MISS:          0 MSHR_MERGE:          0
cpu0->cpu0_STLB TRANSLATION  ACCESS:          0 HIT:          0 MISS:          0 MSHR_MERGE:          0
cpu0->cpu0_STLB PREFETCH REQUESTED:          0 ISSUED:          0 USEFUL:          0 USELESS:          0 LATE:          0
cpu0->cpu0_STLB AVERAGE MISS LATENCY: 257.4 cycles
cpu0->cpu0_L2C TOTAL        ACCESS:    3711625 HIT:    1607201 MISS:    2104424 MSHR_MERGE:    1370761
cpu0->cpu0_L2C LOAD         ACCESS:      18041 HIT:       9495 MISS:       8546 MSHR_MERGE:        129
cpu0->cpu0_L2C RFO          ACCESS:     237794 HIT:          1 MISS:     237793 MSHR_MERGE:          0
cpu0->cpu0_L2C PREFETCH     ACCESS:    3010684 HIT:    1154070 MISS:    1856614 MSHR_MERGE:    1370632
cpu0->cpu0_L2C WRITE        ACCESS:     443200 HIT:     443200 MISS:          0 MSHR_MERGE:          0
cpu0->cpu0_L2C TRANSLATION  ACCESS:       1906 HIT:        435 MISS:       1471 MSHR_MERGE:          0
cpu0->cpu0_L2C PREFETCH REQUESTED:    2541971 ISSUED:    2534358 USEFUL:     401727 USELESS:      58474 LATE:        129
cpu0->cpu0_L2C AVERAGE MISS LATENCY: 460.5 cycles
cpu0->cpu0_L1I TOTAL        ACCESS:    1136114 HIT:    1136066 MISS:         48 MSHR_MERGE:          4
cpu0->cpu0_L1I LOAD         ACCESS:    1136114 HIT:    1136066 MISS:         48 MSHR_MERGE:          4
cpu0->cpu0_L1I RFO          ACCESS:          0 HIT:          0 MISS:          0 MSHR_MERGE:          0
cpu0->cpu0_L1I PREFETCH     ACCESS:          0 HIT:          0 MISS:          0 MSHR_MERGE:          0
cpu0->cpu0_L1I WRITE        ACCESS:          0 HIT:          0 MISS:          0 MSHR_MERGE:          0
cpu0->cpu0_L1I TRANSLATION  ACCESS:          0 HIT:          0 MISS:          0 MSHR_MERGE:          0
cpu0->cpu0_L1I PREFETCH REQUESTED:          0 ISSUED:          0 USEFUL:          0 USELESS:          0 LATE:          0
cpu0->cpu0_L1I AVERAGE MISS LATENCY: 235.5 cycles
cpu0->cpu0_L1D TOTAL        ACCESS:   12213277 HIT:    9033475 MISS:    3179802 MSHR_MERGE:    2445780
cpu0->cpu0_L1D LOAD         ACCESS:    7254855 HIT:    7123680 MISS:     131175 MSHR_MERGE:     113179
cpu0->cpu0_L1D RFO          ACCESS:          0 HIT:          0 MISS:          0 MSHR_MERGE:          0
cpu0->cpu0_L1D PREFETCH     ACCESS:     485326 HIT:       7470 MISS:     477856 MSHR_MERGE:       1530
cpu0->cpu0_L1D WRITE        ACCESS:    4450725 HIT:    1881861 MISS:    2568864 MSHR_MERGE:    2331070
cpu0->cpu0_L1D TRANSLATION  ACCESS:      22371 HIT:      20464 MISS:       1907 MSHR_MERGE:          1
cpu0->cpu0_L1D PREFETCH REQUESTED:     485458 ISSUED:     485318 USEFUL:     476301 USELESS:         23 LATE:      19319
cpu0->cpu0_L1D AVERAGE MISS LATENCY: 439.8 cycles
cpu0->cpu0_ITLB TOTAL        ACCESS:    1124861 HIT:    1124855 MISS:          6 MSHR_MERGE:          1
cpu0->cpu0_ITLB LOAD         ACCESS:    1124861 HIT:    1124855 MISS:          6 MSHR_MERGE:          1
cpu0->cpu0_ITLB RFO          ACCESS:          0 HIT:          0 MISS:          0 MSHR_MERGE:          0
cpu0->cpu0_ITLB PREFETCH     ACCESS:          0 HIT:          0 MISS:          0 MSHR_MERGE:          0
cpu0->cpu0_ITLB WRITE        ACCESS:          0 HIT:          0 MISS:          0 MSHR_MERGE:          0
cpu0->cpu0_ITLB TRANSLATION  ACCESS:          0 HIT:          0 MISS:          0 MSHR_MERGE:          0
cpu0->cpu0_ITLB PREFETCH REQUESTED:          0 ISSUED:          0 USEFUL:          0 USELESS:          0 LATE:          0
cpu0->cpu0_ITLB AVERAGE MISS LATENCY: 498.8 cycles
cpu0->cpu0_DTLB TOTAL        ACCESS:   11995876 HIT:   11901529 MISS:      94347 MSHR_MERGE:      82896
cpu0->cpu0_DTLB LOAD         ACCESS:   11995876 HIT:   11901529 MISS:      94347 MSHR_MERGE:      82896
cpu0->cpu0_DTLB RFO          ACCESS:          0 HIT:          0 MISS:          0 MSHR_MERGE:          0
cpu0->cpu0_DTLB PREFETCH     ACCESS:          0 HIT:          0 MISS:          0 MSHR_MERGE:          0
cpu0->cpu0_DTLB WRITE        ACCESS:          0 HIT:          0 MISS:          0 MSHR_MERGE:          0
cpu0->cpu0_DTLB TRANSLATION  ACCESS:          0 HIT:          0 MISS:          0 MSHR_MERGE:          0
cpu0->cpu0_DTLB PREFETCH REQUESTED:          0 ISSUED:          0 USEFUL:          0 USELESS:          0 LATE:          0
cpu0->cpu0_DTLB AVERAGE MISS LATENCY: 256.9 cycles
cpu0->LLC TOTAL        ACCESS:    1181569 HIT:     142307 MISS:    1039262 MSHR_MERGE:          0
cpu0->LLC LOAD         ACCESS:       8417 HIT:          0 MISS:       8417 MSHR_MERGE:          0
cpu0->LLC RFO          ACCESS:     237793 HIT:          0 MISS:     237793 MSHR_MERGE:          0
cpu0->LLC PREFETCH     ACCESS:     485982 HIT:          0 MISS:     485982 MSHR_MERGE:          0
cpu0->LLC WRITE        ACCESS:     447906 HIT:     142305 MISS:     305601 MSHR_MERGE:          0
cpu0->LLC TRANSLATION  ACCESS:       1471 HIT:          2 MISS:       1469 MSHR_MERGE:          0
cpu0->LLC PREFETCH REQUESTED:          0 ISSUED:          0 USEFUL:          0 USELESS:          0 LATE:          0
cpu0->LLC AVERAGE MISS LATENCY: 204 cycles

DRAM Statistics

Channel 0 RQ ROW_BUFFER_HIT:      50242
  ROW_BUFFER_MISS:     683418
  AVG DBUS CONGESTED CYCLE: 7.333
Channel 0 WQ ROW_BUFFER_HIT:      55267
  ROW_BUFFER_MISS:     388173
  FULL:          0
Channel 0 REFRESHES ISSUED:       2519

[ROI Statistics]
[System Configuration]
num_cpus 1
cpu_freq 4000
fetch_width 6
decode_width 6
dispatch_width 6
execute_width 6
lq_width 2
sq_width 2
retire_width 6
scheduler_size 160
branch_mispredict_penalty 1
rob_size 352
lq_size 240
sq_size 112
ifetch_buffer_size 64
decode_buffer_size 32
dispatch_buffer_size 32
register_file_size 288
decode_latency 1
dispatch_latency 1
schedule_latency 0
execute_latency 0
page_size 4096
block_size 64
core_0_itlb_set 16
core_0_itlb_way 4
core_0_itlb_rq_size 16
core_0_itlb_wq_size 16
core_0_itlb_pq_size 0
core_0_itlb_mshr_size 8
core_0_itlb_hit_latency 1
core_0_itlb_fill_latency 1
core_0_itlb_max_tag_check 2
core_0_itlb_max_fill 2
core_0_dtlb_set 16
core_0_dtlb_way 4
core_0_dtlb_rq_size 16
core_0_dtlb_wq_size 16
core_0_dtlb_pq_size 0
core_0_dtlb_mshr_size 8
core_0_dtlb_hit_latency 1
core_0_dtlb_fill_latency 1
core_0_dtlb_max_tag_check 2
core_0_dtlb_max_fill 2
core_0_stlb_set 128
core_0_stlb_way 12
core_0_stlb_rq_size 32
core_0_stlb_wq_size 32
core_0_stlb_pq_size 0
core_0_stlb_mshr_size 16
core_0_stlb_hit_latency 4
core_0_stlb_fill_latency 4
core_0_stlb_max_tag_check 1
core_0_stlb_max_fill 1
core_0_l1i_set 64
core_0_l1i_way 8
core_0_l1i_rq_size 64
core_0_l1i_wq_size 64
core_0_l1i_pq_size 32
core_0_l1i_mshr_size 8
core_0_l1i_hit_latency 2
core_0_l1i_fill_latency 2
core_0_l1i_max_tag_check 2
core_0_l1i_max_fill 2
core_0_l1d_set 64
core_0_l1d_way 12
core_0_l1d_rq_size 64
core_0_l1d_wq_size 64
core_0_l1d_pq_size 8
core_0_l1d_mshr_size 16
core_0_l1d_hit_latency 2
core_0_l1d_fill_latency 3
core_0_l1d_max_tag_check 2
core_0_l1d_max_fill 2
core_0_l2c_set 1024
core_0_l2c_way 8
core_0_l2c_rq_size 32
core_0_l2c_wq_size 32
core_0_l2c_pq_size 16
core_0_l2c_mshr_size 32
core_0_l2c_hit_latency 5
core_0_l2c_fill_latency 5
core_0_l2c_max_tag_check 1
core_0_l2c_max_fill 1
llc_set 2048
llc_way 16
llc_rq_size 32
llc_wq_size 32
llc_pq_size 32
llc_mshr_size 64
llc_hit_latency 10
llc_fill_latency 10
llc_max_tag_check 1
llc_max_fill 1
dram_channels 1
dram_ranks 1
dram_bankgroups 8
dram_banks 4
dram_rows 16384
dram_columns 1024
dram_channel_width 8
dram_rq_size 64
dram_wq_size 64
dram_size 4294967296
core_0_itlb_prefetcher no
core_0_dtlb_prefetcher no
core_0_stlb_prefetcher no
core_0_l1i_prefetcher next_line
core_0_l1d_prefetcher berti
core_0_l2c_prefetcher pythia
llc_prefetcher no
llc_replacement drrip

Core_0_instructions 50000003
Core_0_cycles 30231549
Core_0_IPC 1.6539
Core_0_branch_prediction_accuracy 93.8089
Core_0_branch_MPKI 10.6385
Core_0_average_ROB_occupancy_at_mispredict 28.7992

Core_0_ITLB_total_access 1124861
Core_0_ITLB_total_hit 1124855
Core_0_ITLB_total_miss 6
Core_0_ITLB_total_MPKI 0.00012
Core_0_ITLB_total_miss_rate 5.33399e-06
Core_0_ITLB_demand_access 1124861
Core_0_ITLB_demand_hit 1124855
Core_0_ITLB_demand_miss 6
Core_0_ITLB_demand_MPKI 0.00012
Core_0_ITLB_demand_miss_rate 5.33399e-06
Core_0_ITLB_load_access 1124861
Core_0_ITLB_load_hit 1124855
Core_0_ITLB_load_miss 6
Core_0_ITLB_load_MPKI 0.00012
Core_0_ITLB_load_miss_rate 5.33399e-06
Core_0_ITLB_rfo_access 0
Core_0_ITLB_rfo_hit 0
Core_0_ITLB_rfo_miss 0
Core_0_ITLB_rfo_MPKI 0
Core_0_ITLB_rfo_miss_rate 0
Core_0_ITLB_prefetch_access 0
Core_0_ITLB_prefetch_hit 0
Core_0_ITLB_prefetch_miss 0
Core_0_ITLB_prefetch_MPKI 0
Core_0_ITLB_prefetch_miss_rate 0
Core_0_ITLB_writeback_access 0
Core_0_ITLB_writeback_hit 0
Core_0_ITLB_writeback_miss 0
Core_0_ITLB_writeback_MPKI 0
Core_0_ITLB_writeback_miss_rate 0
Core_0_ITLB_prefetch_requested 0
Core_0_ITLB_prefetch_issued 0
Core_0_ITLB_prefetch_useful 0
Core_0_ITLB_prefetch_useless 0
Core_0_ITLB_prefetch_late 0
Core_0_ITLB_prefetch_accuracy 0
Core_0_ITLB_prefetch_coverage 0

Core_0_DTLB_total_access 11995876
Core_0_DTLB_total_hit 11901529
Core_0_DTLB_total_miss 94347
Core_0_DTLB_total_MPKI 1.88694
Core_0_DTLB_total_miss_rate 0.00786495
Core_0_DTLB_demand_access 11995876
Core_0_DTLB_demand_hit 11901529
Core_0_DTLB_demand_miss 94347
Core_0_DTLB_demand_MPKI 1.88694
Core_0_DTLB_demand_miss_rate 0.00786495
Core_0_DTLB_load_access 11995876
Core_0_DTLB_load_hit 11901529
Core_0_DTLB_load_miss 94347
Core_0_DTLB_load_MPKI 1.88694
Core_0_DTLB_load_miss_rate 0.00786495
Core_0_DTLB_rfo_access 0
Core_0_DTLB_rfo_hit 0
Core_0_DTLB_rfo_miss 0
Core_0_DTLB_rfo_MPKI 0
Core_0_DTLB_rfo_miss_rate 0
Core_0_DTLB_prefetch_access 0
Core_0_DTLB_prefetch_hit 0
Core_0_DTLB_prefetch_miss 0
Core_0_DTLB_prefetch_MPKI 0
Core_0_DTLB_prefetch_miss_rate 0
Core_0_DTLB_writeback_access 0
Core_0_DTLB_writeback_hit 0
Core_0_DTLB_writeback_miss 0
Core_0_DTLB_writeback_MPKI 0
Core_0_DTLB_writeback_miss_rate 0
Core_0_DTLB_prefetch_requested 0
Core_0_DTLB_prefetch_issued 0
Core_0_DTLB_prefetch_useful 0
Core_0_DTLB_prefetch_useless 0
Core_0_DTLB_prefetch_late 0
Core_0_DTLB_prefetch_accuracy 0
Core_0_DTLB_prefetch_coverage 0

Core_0_STLB_total_access 11456
Core_0_STLB_total_hit 286
Core_0_STLB_total_miss 11170
Core_0_STLB_total_MPKI 0.2234
Core_0_STLB_total_miss_rate 0.975035
Core_0_STLB_demand_access 11456
Core_0_STLB_demand_hit 286
Core_0_STLB_demand_miss 11170
Core_0_STLB_demand_MPKI 0.2234
Core_0_STLB_demand_miss_rate 0.975035
Core_0_STLB_load_access 11456
Core_0_STLB_load_hit 286
Core_0_STLB_load_miss 11170
Core_0_STLB_load_MPKI 0.2234
Core_0_STLB_load_miss_rate 0.975035
Core_0_STLB_rfo_access 0
Core_0_STLB_rfo_hit 0
Core_0_STLB_rfo_miss 0
Core_0_STLB_rfo_MPKI 0
Core_0_STLB_rfo_miss_rate 0
Core_0_STLB_prefetch_access 0
Core_0_STLB_prefetch_hit 0
Core_0_STLB_prefetch_miss 0
Core_0_STLB_prefetch_MPKI 0
Core_0_STLB_prefetch_miss_rate 0
Core_0_STLB_writeback_access 0
Core_0_STLB_writeback_hit 0
Core_0_STLB_writeback_miss 0
Core_0_STLB_writeback_MPKI 0
Core_0_STLB_writeback_miss_rate 0
Core_0_STLB_prefetch_requested 0
Core_0_STLB_prefetch_issued 0
Core_0_STLB_prefetch_useful 0
Core_0_STLB_prefetch_useless 0
Core_0_STLB_prefetch_late 0
Core_0_STLB_prefetch_accuracy 0
Core_0_STLB_prefetch_coverage 0

Core_0_L1I_total_access 1136114
Core_0_L1I_total_hit 1136066
Core_0_L1I_total_miss 48
Core_0_L1I_total_MPKI 0.00096
Core_0_L1I_total_miss_rate 4.22493e-05
Core_0_L1I_demand_access 1136114
Core_0_L1I_demand_hit 1136066
Core_0_L1I_demand_miss 48
Core_0_L1I_demand_MPKI 0.00096
Core_0_L1I_demand_miss_rate 4.22493e-05
Core_0_L1I_load_access 1136114
Core_0_L1I_load_hit 1136066
Core_0_L1I_load_miss 48
Core_0_L1I_load_MPKI 0.00096
Core_0_L1I_load_miss_rate 4.22493e-05
Core_0_L1I_rfo_access 0
Core_0_L1I_rfo_hit 0
Core_0_L1I_rfo_miss 0
Core_0_L1I_rfo_MPKI 0
Core_0_L1I_rfo_miss_rate 0
Core_0_L1I_prefetch_access 0
Core_0_L1I_prefetch_hit 0
Core_0_L1I_prefetch_miss 0
Core_0_L1I_prefetch_MPKI 0
Core_0_L1I_prefetch_miss_rate 0
Core_0_L1I_writeback_access 0
Core_0_L1I_writeback_hit 0
Core_0_L1I_writeback_miss 0
Core_0_L1I_writeback_MPKI 0
Core_0_L1I_writeback_miss_rate 0
Core_0_L1I_prefetch_requested 0
Core_0_L1I_prefetch_issued 0
Core_0_L1I_prefetch_useful 0
Core_0_L1I_prefetch_useless 0
Core_0_L1I_prefetch_late 0
Core_0_L1I_prefetch_accuracy 0
Core_0_L1I_prefetch_coverage 0

Core_0_L1D_total_access 12190906
Core_0_L1D_total_hit 9013011
Core_0_L1D_total_miss 3177895
Core_0_L1D_total_MPKI 63.5579
Core_0_L1D_total_miss_rate 0.260678
Core_0_L1D_demand_access 7254855
Core_0_L1D_demand_hit 7123680
Core_0_L1D_demand_miss 131175
Core_0_L1D_demand_MPKI 2.6235
Core_0_L1D_demand_miss_rate 0.018081
Core_0_L1D_load_access 7254855
Core_0_L1D_load_hit 7123680
Core_0_L1D_load_miss 131175
Core_0_L1D_load_MPKI 2.6235
Core_0_L1D_load_miss_rate 0.018081
Core_0_L1D_rfo_access 0
Core_0_L1D_rfo_hit 0
Core_0_L1D_rfo_miss 0
Core_0_L1D_rfo_MPKI 0
Core_0_L1D_rfo_miss_rate 0
Core_0_L1D_prefetch_access 485326
Core_0_L1D_prefetch_hit 7470
Core_0_L1D_prefetch_miss 477856
Core_0_L1D_prefetch_MPKI 9.55712
Core_0_L1D_prefetch_miss_rate 0.984608
Core_0_L1D_writeback_access 4450725
Core_0_L1D_writeback_hit 1881861
Core_0_L1D_writeback_miss 2568864
Core_0_L1D_writeback_MPKI 51.3773
Core_0_L1D_writeback_miss_rate 0.577179
Core_0_L1D_prefetch_requested 485458
Core_0_L1D_prefetch_issued 485318
Core_0_L1D_prefetch_useful 476301
Core_0_L1D_prefetch_useless 23
Core_0_L1D_prefetch_late 19319
Core_0_L1D_prefetch_accuracy 0.98142
Core_0_L1D_prefetch_coverage 0.784066

Core_0_L2C_total_access 3709719
Core_0_L2C_total_hit 1606766
Core_0_L2C_total_miss 2102953
Core_0_L2C_total_MPKI 42.0591
Core_0_L2C_total_miss_rate 0.566877
Core_0_L2C_demand_access 255835
Core_0_L2C_demand_hit 9496
Core_0_L2C_demand_miss 246339
Core_0_L2C_demand_MPKI 4.92678
Core_0_L2C_demand_miss_rate 0.962882
Core_0_L2C_load_access 18041
Core_0_L2C_load_hit 9495
Core_0_L2C_load_miss 8546
Core_0_L2C_load_MPKI 0.17092
Core_0_L2C_load_miss_rate 0.473699
Core_0_L2C_rfo_access 237794
Core_0_L2C_rfo_hit 1
Core_0_L2C_rfo_miss 237793
Core_0_L2C_rfo_MPKI 4.75586
Core_0_L2C_rfo_miss_rate 0.999996
Core_0_L2C_prefetch_access 3010684
Core_0_L2C_prefetch_hit 1154070
Core_0_L2C_prefetch_miss 1856614
Core_0_L2C_prefetch_MPKI 37.1323
Core_0_L2C_prefetch_miss_rate 0.616675
Core_0_L2C_writeback_access 443200
Core_0_L2C_writeback_hit 443200
Core_0_L2C_writeback_miss 0
Core_0_L2C_writeback_MPKI 0
Core_0_L2C_writeback_miss_rate 0
Core_0_L2C_prefetch_requested 2541971
Core_0_L2C_prefetch_issued 2534358
Core_0_L2C_prefetch_useful 401727
Core_0_L2C_prefetch_useless 58474
Core_0_L2C_prefetch_late 129
Core_0_L2C_prefetch_accuracy 0.158512
Core_0_L2C_prefetch_coverage 0.619886

Core_0_LLC_total_access 1180098
Core_0_LLC_total_hit 142305
Core_0_LLC_total_miss 1037793
Core_0_LLC_total_MPKI 20.7559
Core_0_LLC_total_miss_rate 0.879413
Core_0_LLC_demand_access 246210
Core_0_LLC_demand_hit 0
Core_0_LLC_demand_miss 246210
Core_0_LLC_demand_MPKI 4.9242
Core_0_LLC_demand_miss_rate 1
Core_0_LLC_load_access 8417
Core_0_LLC_load_hit 0
Core_0_LLC_load_miss 8417
Core_0_LLC_load_MPKI 0.16834
Core_0_LLC_load_miss_rate 1
Core_0_LLC_rfo_access 237793
Core_0_LLC_rfo_hit 0
Core_0_LLC_rfo_miss 237793
Core_0_LLC_rfo_MPKI 4.75586
Core_0_LLC_rfo_miss_rate 1
Core_0_LLC_prefetch_access 485982
Core_0_LLC_prefetch_hit 0
Core_0_LLC_prefetch_miss 485982
Core_0_LLC_prefetch_MPKI 9.71964
Core_0_LLC_prefetch_miss_rate 1
Core_0_LLC_writeback_access 447906
Core_0_LLC_writeback_hit 142305
Core_0_LLC_writeback_miss 305601
Core_0_LLC_writeback_MPKI 6.11202
Core_0_LLC_writeback_miss_rate 0.682288
Core_0_LLC_prefetch_requested 0
Core_0_LLC_prefetch_issued 0
Core_0_LLC_prefetch_useful 0
Core_0_LLC_prefetch_useless 0
Core_0_LLC_prefetch_late 0
Core_0_LLC_prefetch_accuracy 0
Core_0_LLC_prefetch_coverage 0

[DRAM Statistics]
Channel_0_RQ_row_buffer_hit 50242
Channel_0_RQ_row_buffer_miss 683418
Channel_0_WQ_row_buffer_hit 55267
Channel_0_WQ_row_buffer_miss 388173
Channel_0_WQ_full 0
Channel_0_dbus_congested 3977183
DRAM_total_RQ_row_buffer_hit 50242
DRAM_total_RQ_row_buffer_miss 683418
DRAM_total_WQ_row_buffer_hit 55267
DRAM_total_WQ_row_buffer_miss 388173
DRAM_total_WQ_full 0
DRAM_total_dbus_congested 3977183
DRAM_avg_congested_cycle 7.33303

======STLB miss causes ========
Core_0_STLB_miss_cause_breakdown
Core_0_STLB_cause_Demand_Data_miss 11165
Core_0_STLB_cause_Demand_Data_miss_rate 0.974598
Core_0_STLB_cause_Demand_Instruction_miss 5
Core_0_STLB_cause_Demand_Instruction_miss_rate 0.000436453
Core_0_STLB_cause_L1D_Prefetch_miss 0
Core_0_STLB_cause_L1D_Prefetch_miss_rate 0
Core_0_STLB_cause_L1I_Prefetch_miss 0
Core_0_STLB_cause_L1I_Prefetch_miss_rate 0
Core_0_STLB_cause_Other_miss 0
Core_0_STLB_cause_Other_miss_rate 0
Core_0_STLB_Demand_miss 11170
Core_0_STLB_Demand_miss_rate 0.975035
Core_0_STLB_L1D_Prefetch_miss 0
Core_0_STLB_L1D_Prefetch_miss_rate 0
Core_0_STLB_Other_miss 0
Core_0_STLB_Other_miss_rate 0
