[VMEM] WARNING: physical memory size is smaller than virtual memory size.

*** ChampSim Multicore Out-of-Order Simulator ***
Warmup Instructions: 20000000
Simulation Instructions: 50000000
Number of CPUs: 1
Page size: 4096
STLB ideal mode: l1pref
Core 0: /data0/tzh/champsim_traces/Ligra/ligra_PageRank.com-lj.ungraph.gcc_6.3.0_O3.drop_21750M.length_250M.champsimtrace.xz
 L1D Berti prefetcher
Off-chip DRAM Size: 4 GiB Channels: 1 Width: 64-bit Data Rate: 3205 MT/s
Warmup halting CPU 0 at instruction 20000004 cycle 5328456 for remainder of phase
Warmup finished CPU 0 instructions: 20000004 cycles: 5328456 cumulative IPC: 3.753 (Simulation time: 00 hr 01 min 46 sec)
Warmup complete CPU 0 instructions: 20000004 cycles: 5328456 cumulative IPC: 3.753 (Simulation time: 00 hr 01 min 46 sec)
Simulation finished CPU 0 instructions: 50000002 cycles: 86993891 cumulative IPC: 0.5748 (Simulation time: 00 hr 12 min 52 sec)
Simulation complete CPU 0 instructions: 50000002 cycles: 86993891 cumulative IPC: 0.5748 (Simulation time: 00 hr 12 min 52 sec)

ChampSim completed all CPUs

=== Simulation ===
CPU 0 runs /data0/tzh/champsim_traces/Ligra/ligra_PageRank.com-lj.ungraph.gcc_6.3.0_O3.drop_21750M.length_250M.champsimtrace.xz

Region of Interest Statistics

CPU 0 cumulative IPC: 0.5748 instructions: 50000002 cycles: 86993891
CPU 0 Branch Prediction Accuracy: 96.42% MPKI: 3.982 Average ROB Occupancy at Mispredict: 247.4
Branch type MPKI
BRANCH_DIRECT_JUMP: 0
BRANCH_INDIRECT: 0
BRANCH_CONDITIONAL: 3.982
BRANCH_DIRECT_CALL: 0
BRANCH_INDIRECT_CALL: 0
BRANCH_RETURN: 0

cpu0->cpu0_STLB TOTAL        ACCESS:    4006229 HIT:    2674453 MISS:    1331776 MSHR_MERGE:          0
cpu0->cpu0_STLB LOAD         ACCESS:    4006229 HIT:    2674453 MISS:    1331776 MSHR_MERGE:          0
cpu0->cpu0_STLB RFO          ACCESS:          0 HIT:          0 MISS:          0 MSHR_MERGE:          0
cpu0->cpu0_STLB PREFETCH     ACCESS:          0 HIT:          0 MISS:          0 MSHR_MERGE:          0
cpu0->cpu0_STLB WRITE        ACCESS:          0 HIT:          0 MISS:          0 MSHR_MERGE:          0
cpu0->cpu0_STLB TRANSLATION  ACCESS:          0 HIT:          0 MISS:          0 MSHR_MERGE:          0
cpu0->cpu0_STLB PREFETCH REQUESTED:          0 ISSUED:          0 USEFUL:          0 USELESS:          0 LATE:          0
cpu0->cpu0_STLB AVERAGE MISS LATENCY: 36 cycles
cpu0->cpu0_L2C TOTAL        ACCESS:   10878424 HIT:    3630914 MISS:    7247510 MSHR_MERGE:     230156
cpu0->cpu0_L2C LOAD         ACCESS:    3940821 HIT:     890409 MISS:    3050412 MSHR_MERGE:      34127
cpu0->cpu0_L2C RFO          ACCESS:         25 HIT:         25 MISS:          0 MSHR_MERGE:          0
cpu0->cpu0_L2C PREFETCH     ACCESS:    5885084 HIT:    1995761 MISS:    3889323 MSHR_MERGE:     196029
cpu0->cpu0_L2C WRITE        ACCESS:      24744 HIT:      24729 MISS:         15 MSHR_MERGE:          0
cpu0->cpu0_L2C TRANSLATION  ACCESS:    1027750 HIT:     719990 MISS:     307760 MSHR_MERGE:          0
cpu0->cpu0_L2C PREFETCH REQUESTED:    5460097 ISSUED:    5389786 USEFUL:     531972 USELESS:    2962453 LATE:      34127
cpu0->cpu0_L2C AVERAGE MISS LATENCY: 200.4 cycles
cpu0->cpu0_L1I TOTAL        ACCESS:    1867976 HIT:    1867976 MISS:          0 MSHR_MERGE:          0
cpu0->cpu0_L1I LOAD         ACCESS:    1867976 HIT:    1867976 MISS:          0 MSHR_MERGE:          0
cpu0->cpu0_L1I RFO          ACCESS:          0 HIT:          0 MISS:          0 MSHR_MERGE:          0
cpu0->cpu0_L1I PREFETCH     ACCESS:          0 HIT:          0 MISS:          0 MSHR_MERGE:          0
cpu0->cpu0_L1I WRITE        ACCESS:          0 HIT:          0 MISS:          0 MSHR_MERGE:          0
cpu0->cpu0_L1I TRANSLATION  ACCESS:          0 HIT:          0 MISS:          0 MSHR_MERGE:          0
cpu0->cpu0_L1I PREFETCH REQUESTED:          0 ISSUED:          0 USEFUL:          0 USELESS:          0 LATE:          0
cpu0->cpu0_L1I AVERAGE MISS LATENCY: - cycles
cpu0->cpu0_L1D TOTAL        ACCESS:   17517524 HIT:   11902374 MISS:    5615150 MSHR_MERGE:     151252
cpu0->cpu0_L1D LOAD         ACCESS:   11513708 HIT:    7441893 MISS:    4071815 MSHR_MERGE:     130992
cpu0->cpu0_L1D RFO          ACCESS:          0 HIT:          0 MISS:          0 MSHR_MERGE:          0
cpu0->cpu0_L1D PREFETCH     ACCESS:     908316 HIT:     407980 MISS:     500336 MSHR_MERGE:       5036
cpu0->cpu0_L1D WRITE        ACCESS:    2461950 HIT:    2461906 MISS:         44 MSHR_MERGE:         19
cpu0->cpu0_L1D TRANSLATION  ACCESS:    2633550 HIT:    1590595 MISS:    1042955 MSHR_MERGE:      15205
cpu0->cpu0_L1D PREFETCH REQUESTED:     927394 ISSUED:     908314 USEFUL:     193032 USELESS:     302282 LATE:       2762
cpu0->cpu0_L1D AVERAGE MISS LATENCY: 145.1 cycles
cpu0->cpu0_ITLB TOTAL        ACCESS:    1791654 HIT:    1791654 MISS:          0 MSHR_MERGE:          0
cpu0->cpu0_ITLB LOAD         ACCESS:    1791654 HIT:    1791654 MISS:          0 MSHR_MERGE:          0
cpu0->cpu0_ITLB RFO          ACCESS:          0 HIT:          0 MISS:          0 MSHR_MERGE:          0
cpu0->cpu0_ITLB PREFETCH     ACCESS:          0 HIT:          0 MISS:          0 MSHR_MERGE:          0
cpu0->cpu0_ITLB WRITE        ACCESS:          0 HIT:          0 MISS:          0 MSHR_MERGE:          0
cpu0->cpu0_ITLB TRANSLATION  ACCESS:          0 HIT:          0 MISS:          0 MSHR_MERGE:          0
cpu0->cpu0_ITLB PREFETCH REQUESTED:          0 ISSUED:          0 USEFUL:          0 USELESS:          0 LATE:          0
cpu0->cpu0_ITLB AVERAGE MISS LATENCY: - cycles
cpu0->cpu0_DTLB TOTAL        ACCESS:   14652633 HIT:   10359530 MISS:    4293103 MSHR_MERGE:     286873
cpu0->cpu0_DTLB LOAD         ACCESS:   14652633 HIT:   10359530 MISS:    4293103 MSHR_MERGE:     286873
cpu0->cpu0_DTLB RFO          ACCESS:          0 HIT:          0 MISS:          0 MSHR_MERGE:          0
cpu0->cpu0_DTLB PREFETCH     ACCESS:          0 HIT:          0 MISS:          0 MSHR_MERGE:          0
cpu0->cpu0_DTLB WRITE        ACCESS:          0 HIT:          0 MISS:          0 MSHR_MERGE:          0
cpu0->cpu0_DTLB TRANSLATION  ACCESS:          0 HIT:          0 MISS:          0 MSHR_MERGE:          0
cpu0->cpu0_DTLB PREFETCH REQUESTED:          0 ISSUED:          0 USEFUL:          0 USELESS:          0 LATE:          0
cpu0->cpu0_DTLB AVERAGE MISS LATENCY: 17.33 cycles
cpu0->LLC TOTAL        ACCESS:    7042051 HIT:    2352074 MISS:    4689977 MSHR_MERGE:          0
cpu0->LLC LOAD         ACCESS:    3016285 HIT:     948708 MISS:    2067577 MSHR_MERGE:          0
cpu0->LLC RFO          ACCESS:          0 HIT:          0 MISS:          0 MSHR_MERGE:          0
cpu0->LLC PREFETCH     ACCESS:    3693293 HIT:    1099467 MISS:    2593826 MSHR_MERGE:          0
cpu0->LLC WRITE        ACCESS:      24713 HIT:       5168 MISS:      19545 MSHR_MERGE:          0
cpu0->LLC TRANSLATION  ACCESS:     307760 HIT:     298731 MISS:       9029 MSHR_MERGE:          0
cpu0->LLC PREFETCH REQUESTED:          0 ISSUED:          0 USEFUL:          0 USELESS:          0 LATE:          0
cpu0->LLC AVERAGE MISS LATENCY: 292.8 cycles

DRAM Statistics

Channel 0 RQ ROW_BUFFER_HIT:       9676
  ROW_BUFFER_MISS:    4660756
  AVG DBUS CONGESTED CYCLE: 3.078
Channel 0 WQ ROW_BUFFER_HIT:       1744
  ROW_BUFFER_MISS:      22437
  FULL:          0
Channel 0 REFRESHES ISSUED:       7249

[ROI Statistics]
[System Configuration]
num_cpus 1
cpu_freq 4000
fetch_width 6
decode_width 6
dispatch_width 6
execute_width 6
lq_width 2
sq_width 2
retire_width 6
scheduler_size 160
branch_mispredict_penalty 1
rob_size 352
lq_size 240
sq_size 112
ifetch_buffer_size 64
decode_buffer_size 32
dispatch_buffer_size 32
register_file_size 288
decode_latency 1
dispatch_latency 1
schedule_latency 0
execute_latency 0
page_size 4096
block_size 64
core_0_itlb_set 16
core_0_itlb_way 4
core_0_itlb_rq_size 16
core_0_itlb_wq_size 16
core_0_itlb_pq_size 0
core_0_itlb_mshr_size 8
core_0_itlb_hit_latency 1
core_0_itlb_fill_latency 1
core_0_itlb_max_tag_check 2
core_0_itlb_max_fill 2
core_0_dtlb_set 16
core_0_dtlb_way 4
core_0_dtlb_rq_size 16
core_0_dtlb_wq_size 16
core_0_dtlb_pq_size 0
core_0_dtlb_mshr_size 8
core_0_dtlb_hit_latency 1
core_0_dtlb_fill_latency 1
core_0_dtlb_max_tag_check 2
core_0_dtlb_max_fill 2
core_0_stlb_set 128
core_0_stlb_way 12
core_0_stlb_rq_size 32
core_0_stlb_wq_size 32
core_0_stlb_pq_size 0
core_0_stlb_mshr_size 16
core_0_stlb_hit_latency 4
core_0_stlb_fill_latency 4
core_0_stlb_max_tag_check 1
core_0_stlb_max_fill 1
core_0_l1i_set 64
core_0_l1i_way 8
core_0_l1i_rq_size 64
core_0_l1i_wq_size 64
core_0_l1i_pq_size 32
core_0_l1i_mshr_size 8
core_0_l1i_hit_latency 2
core_0_l1i_fill_latency 2
core_0_l1i_max_tag_check 2
core_0_l1i_max_fill 2
core_0_l1d_set 64
core_0_l1d_way 12
core_0_l1d_rq_size 64
core_0_l1d_wq_size 64
core_0_l1d_pq_size 8
core_0_l1d_mshr_size 16
core_0_l1d_hit_latency 2
core_0_l1d_fill_latency 3
core_0_l1d_max_tag_check 2
core_0_l1d_max_fill 2
core_0_l2c_set 1024
core_0_l2c_way 8
core_0_l2c_rq_size 32
core_0_l2c_wq_size 32
core_0_l2c_pq_size 16
core_0_l2c_mshr_size 32
core_0_l2c_hit_latency 5
core_0_l2c_fill_latency 5
core_0_l2c_max_tag_check 1
core_0_l2c_max_fill 1
llc_set 2048
llc_way 16
llc_rq_size 32
llc_wq_size 32
llc_pq_size 32
llc_mshr_size 64
llc_hit_latency 10
llc_fill_latency 10
llc_max_tag_check 1
llc_max_fill 1
dram_channels 1
dram_ranks 1
dram_bankgroups 8
dram_banks 4
dram_rows 16384
dram_columns 1024
dram_channel_width 8
dram_rq_size 64
dram_wq_size 64
dram_size 4294967296
core_0_itlb_prefetcher no
core_0_dtlb_prefetcher no
core_0_stlb_prefetcher no
core_0_l1i_prefetcher next_line
core_0_l1d_prefetcher berti
core_0_l2c_prefetcher pythia
llc_prefetcher no
llc_replacement drrip

Core_0_instructions 50000002
Core_0_cycles 86993891
Core_0_IPC 0.574753
Core_0_branch_prediction_accuracy 96.4221
Core_0_branch_MPKI 3.98222
Core_0_average_ROB_occupancy_at_mispredict 247.353

Core_0_ITLB_total_access 1791654
Core_0_ITLB_total_hit 1791654
Core_0_ITLB_total_miss 0
Core_0_ITLB_total_MPKI 0
Core_0_ITLB_total_miss_rate 0
Core_0_ITLB_demand_access 1791654
Core_0_ITLB_demand_hit 1791654
Core_0_ITLB_demand_miss 0
Core_0_ITLB_demand_MPKI 0
Core_0_ITLB_demand_miss_rate 0
Core_0_ITLB_load_access 1791654
Core_0_ITLB_load_hit 1791654
Core_0_ITLB_load_miss 0
Core_0_ITLB_load_MPKI 0
Core_0_ITLB_load_miss_rate 0
Core_0_ITLB_rfo_access 0
Core_0_ITLB_rfo_hit 0
Core_0_ITLB_rfo_miss 0
Core_0_ITLB_rfo_MPKI 0
Core_0_ITLB_rfo_miss_rate 0
Core_0_ITLB_prefetch_access 0
Core_0_ITLB_prefetch_hit 0
Core_0_ITLB_prefetch_miss 0
Core_0_ITLB_prefetch_MPKI 0
Core_0_ITLB_prefetch_miss_rate 0
Core_0_ITLB_writeback_access 0
Core_0_ITLB_writeback_hit 0
Core_0_ITLB_writeback_miss 0
Core_0_ITLB_writeback_MPKI 0
Core_0_ITLB_writeback_miss_rate 0
Core_0_ITLB_prefetch_requested 0
Core_0_ITLB_prefetch_issued 0
Core_0_ITLB_prefetch_useful 0
Core_0_ITLB_prefetch_useless 0
Core_0_ITLB_prefetch_late 0
Core_0_ITLB_prefetch_accuracy 0
Core_0_ITLB_prefetch_coverage 0

Core_0_DTLB_total_access 14652633
Core_0_DTLB_total_hit 10359530
Core_0_DTLB_total_miss 4293103
Core_0_DTLB_total_MPKI 85.8621
Core_0_DTLB_total_miss_rate 0.292992
Core_0_DTLB_demand_access 14652633
Core_0_DTLB_demand_hit 10359530
Core_0_DTLB_demand_miss 4293103
Core_0_DTLB_demand_MPKI 85.8621
Core_0_DTLB_demand_miss_rate 0.292992
Core_0_DTLB_load_access 14652633
Core_0_DTLB_load_hit 10359530
Core_0_DTLB_load_miss 4293103
Core_0_DTLB_load_MPKI 85.8621
Core_0_DTLB_load_miss_rate 0.292992
Core_0_DTLB_rfo_access 0
Core_0_DTLB_rfo_hit 0
Core_0_DTLB_rfo_miss 0
Core_0_DTLB_rfo_MPKI 0
Core_0_DTLB_rfo_miss_rate 0
Core_0_DTLB_prefetch_access 0
Core_0_DTLB_prefetch_hit 0
Core_0_DTLB_prefetch_miss 0
Core_0_DTLB_prefetch_MPKI 0
Core_0_DTLB_prefetch_miss_rate 0
Core_0_DTLB_writeback_access 0
Core_0_DTLB_writeback_hit 0
Core_0_DTLB_writeback_miss 0
Core_0_DTLB_writeback_MPKI 0
Core_0_DTLB_writeback_miss_rate 0
Core_0_DTLB_prefetch_requested 0
Core_0_DTLB_prefetch_issued 0
Core_0_DTLB_prefetch_useful 0
Core_0_DTLB_prefetch_useless 0
Core_0_DTLB_prefetch_late 0
Core_0_DTLB_prefetch_accuracy 0
Core_0_DTLB_prefetch_coverage 0

Core_0_STLB_total_access 4006229
Core_0_STLB_total_hit 2674453
Core_0_STLB_total_miss 1331776
Core_0_STLB_total_MPKI 26.6355
Core_0_STLB_total_miss_rate 0.332426
Core_0_STLB_demand_access 4006229
Core_0_STLB_demand_hit 2674453
Core_0_STLB_demand_miss 1331776
Core_0_STLB_demand_MPKI 26.6355
Core_0_STLB_demand_miss_rate 0.332426
Core_0_STLB_load_access 4006229
Core_0_STLB_load_hit 2674453
Core_0_STLB_load_miss 1331776
Core_0_STLB_load_MPKI 26.6355
Core_0_STLB_load_miss_rate 0.332426
Core_0_STLB_rfo_access 0
Core_0_STLB_rfo_hit 0
Core_0_STLB_rfo_miss 0
Core_0_STLB_rfo_MPKI 0
Core_0_STLB_rfo_miss_rate 0
Core_0_STLB_prefetch_access 0
Core_0_STLB_prefetch_hit 0
Core_0_STLB_prefetch_miss 0
Core_0_STLB_prefetch_MPKI 0
Core_0_STLB_prefetch_miss_rate 0
Core_0_STLB_writeback_access 0
Core_0_STLB_writeback_hit 0
Core_0_STLB_writeback_miss 0
Core_0_STLB_writeback_MPKI 0
Core_0_STLB_writeback_miss_rate 0
Core_0_STLB_prefetch_requested 0
Core_0_STLB_prefetch_issued 0
Core_0_STLB_prefetch_useful 0
Core_0_STLB_prefetch_useless 0
Core_0_STLB_prefetch_late 0
Core_0_STLB_prefetch_accuracy 0
Core_0_STLB_prefetch_coverage 0

Core_0_L1I_total_access 1867976
Core_0_L1I_total_hit 1867976
Core_0_L1I_total_miss 0
Core_0_L1I_total_MPKI 0
Core_0_L1I_total_miss_rate 0
Core_0_L1I_demand_access 1867976
Core_0_L1I_demand_hit 1867976
Core_0_L1I_demand_miss 0
Core_0_L1I_demand_MPKI 0
Core_0_L1I_demand_miss_rate 0
Core_0_L1I_load_access 1867976
Core_0_L1I_load_hit 1867976
Core_0_L1I_load_miss 0
Core_0_L1I_load_MPKI 0
Core_0_L1I_load_miss_rate 0
Core_0_L1I_rfo_access 0
Core_0_L1I_rfo_hit 0
Core_0_L1I_rfo_miss 0
Core_0_L1I_rfo_MPKI 0
Core_0_L1I_rfo_miss_rate 0
Core_0_L1I_prefetch_access 0
Core_0_L1I_prefetch_hit 0
Core_0_L1I_prefetch_miss 0
Core_0_L1I_prefetch_MPKI 0
Core_0_L1I_prefetch_miss_rate 0
Core_0_L1I_writeback_access 0
Core_0_L1I_writeback_hit 0
Core_0_L1I_writeback_miss 0
Core_0_L1I_writeback_MPKI 0
Core_0_L1I_writeback_miss_rate 0
Core_0_L1I_prefetch_requested 0
Core_0_L1I_prefetch_issued 0
Core_0_L1I_prefetch_useful 0
Core_0_L1I_prefetch_useless 0
Core_0_L1I_prefetch_late 0
Core_0_L1I_prefetch_accuracy 0
Core_0_L1I_prefetch_coverage 0

Core_0_L1D_total_access 14883974
Core_0_L1D_total_hit 10311779
Core_0_L1D_total_miss 4572195
Core_0_L1D_total_MPKI 91.4439
Core_0_L1D_total_miss_rate 0.307189
Core_0_L1D_demand_access 11513708
Core_0_L1D_demand_hit 7441893
Core_0_L1D_demand_miss 4071815
Core_0_L1D_demand_MPKI 81.4363
Core_0_L1D_demand_miss_rate 0.353649
Core_0_L1D_load_access 11513708
Core_0_L1D_load_hit 7441893
Core_0_L1D_load_miss 4071815
Core_0_L1D_load_MPKI 81.4363
Core_0_L1D_load_miss_rate 0.353649
Core_0_L1D_rfo_access 0
Core_0_L1D_rfo_hit 0
Core_0_L1D_rfo_miss 0
Core_0_L1D_rfo_MPKI 0
Core_0_L1D_rfo_miss_rate 0
Core_0_L1D_prefetch_access 908316
Core_0_L1D_prefetch_hit 407980
Core_0_L1D_prefetch_miss 500336
Core_0_L1D_prefetch_MPKI 10.0067
Core_0_L1D_prefetch_miss_rate 0.550839
Core_0_L1D_writeback_access 2461950
Core_0_L1D_writeback_hit 2461906
Core_0_L1D_writeback_miss 44
Core_0_L1D_writeback_MPKI 0.00088
Core_0_L1D_writeback_miss_rate 1.7872e-05
Core_0_L1D_prefetch_requested 927394
Core_0_L1D_prefetch_issued 908314
Core_0_L1D_prefetch_useful 193032
Core_0_L1D_prefetch_useless 302282
Core_0_L1D_prefetch_late 2762
Core_0_L1D_prefetch_accuracy 0.212517
Core_0_L1D_prefetch_coverage 0.0452612

Core_0_L2C_total_access 9850674
Core_0_L2C_total_hit 2910924
Core_0_L2C_total_miss 6939750
Core_0_L2C_total_MPKI 138.795
Core_0_L2C_total_miss_rate 0.704495
Core_0_L2C_demand_access 3940846
Core_0_L2C_demand_hit 890434
Core_0_L2C_demand_miss 3050412
Core_0_L2C_demand_MPKI 61.0082
Core_0_L2C_demand_miss_rate 0.77405
Core_0_L2C_load_access 3940821
Core_0_L2C_load_hit 890409
Core_0_L2C_load_miss 3050412
Core_0_L2C_load_MPKI 61.0082
Core_0_L2C_load_miss_rate 0.774055
Core_0_L2C_rfo_access 25
Core_0_L2C_rfo_hit 25
Core_0_L2C_rfo_miss 0
Core_0_L2C_rfo_MPKI 0
Core_0_L2C_rfo_miss_rate 0
Core_0_L2C_prefetch_access 5885084
Core_0_L2C_prefetch_hit 1995761
Core_0_L2C_prefetch_miss 3889323
Core_0_L2C_prefetch_MPKI 77.7865
Core_0_L2C_prefetch_miss_rate 0.660878
Core_0_L2C_writeback_access 24744
Core_0_L2C_writeback_hit 24729
Core_0_L2C_writeback_miss 15
Core_0_L2C_writeback_MPKI 0.0003
Core_0_L2C_writeback_miss_rate 0.000606208
Core_0_L2C_prefetch_requested 5460097
Core_0_L2C_prefetch_issued 5389786
Core_0_L2C_prefetch_useful 531972
Core_0_L2C_prefetch_useless 2962453
Core_0_L2C_prefetch_late 34127
Core_0_L2C_prefetch_accuracy 0.0987
Core_0_L2C_prefetch_coverage 0.148497

Core_0_LLC_total_access 6734291
Core_0_LLC_total_hit 2053343
Core_0_LLC_total_miss 4680948
Core_0_LLC_total_MPKI 93.619
Core_0_LLC_total_miss_rate 0.695091
Core_0_LLC_demand_access 3016285
Core_0_LLC_demand_hit 948708
Core_0_LLC_demand_miss 2067577
Core_0_LLC_demand_MPKI 41.3515
Core_0_LLC_demand_miss_rate 0.685471
Core_0_LLC_load_access 3016285
Core_0_LLC_load_hit 948708
Core_0_LLC_load_miss 2067577
Core_0_LLC_load_MPKI 41.3515
Core_0_LLC_load_miss_rate 0.685471
Core_0_LLC_rfo_access 0
Core_0_LLC_rfo_hit 0
Core_0_LLC_rfo_miss 0
Core_0_LLC_rfo_MPKI 0
Core_0_LLC_rfo_miss_rate 0
Core_0_LLC_prefetch_access 3693293
Core_0_LLC_prefetch_hit 1099467
Core_0_LLC_prefetch_miss 2593826
Core_0_LLC_prefetch_MPKI 51.8765
Core_0_LLC_prefetch_miss_rate 0.702307
Core_0_LLC_writeback_access 24713
Core_0_LLC_writeback_hit 5168
Core_0_LLC_writeback_miss 19545
Core_0_LLC_writeback_MPKI 0.3909
Core_0_LLC_writeback_miss_rate 0.790879
Core_0_LLC_prefetch_requested 0
Core_0_LLC_prefetch_issued 0
Core_0_LLC_prefetch_useful 0
Core_0_LLC_prefetch_useless 0
Core_0_LLC_prefetch_late 0
Core_0_LLC_prefetch_accuracy 0
Core_0_LLC_prefetch_coverage 0

[DRAM Statistics]
Channel_0_RQ_row_buffer_hit 9676
Channel_0_RQ_row_buffer_miss 4660756
Channel_0_WQ_row_buffer_hit 1744
Channel_0_WQ_row_buffer_miss 22437
Channel_0_WQ_full 0
Channel_0_dbus_congested 9681508
DRAM_total_RQ_row_buffer_hit 9676
DRAM_total_RQ_row_buffer_miss 4660756
DRAM_total_WQ_row_buffer_hit 1744
DRAM_total_WQ_row_buffer_miss 22437
DRAM_total_WQ_full 0
DRAM_total_dbus_congested 9681508
DRAM_avg_congested_cycle 3.0779

======STLB miss causes ========
Core_0_STLB_miss_cause_breakdown
Core_0_STLB_cause_Demand_Data_miss 1331776
Core_0_STLB_cause_Demand_Data_miss_rate 0.332426
Core_0_STLB_cause_Demand_Instruction_miss 0
Core_0_STLB_cause_Demand_Instruction_miss_rate 0
Core_0_STLB_cause_L1D_Prefetch_miss 0
Core_0_STLB_cause_L1D_Prefetch_miss_rate 0
Core_0_STLB_cause_L1I_Prefetch_miss 0
Core_0_STLB_cause_L1I_Prefetch_miss_rate 0
Core_0_STLB_cause_Other_miss 0
Core_0_STLB_cause_Other_miss_rate 0
Core_0_STLB_Demand_miss 1331776
Core_0_STLB_Demand_miss_rate 0.332426
Core_0_STLB_L1D_Prefetch_miss 0
Core_0_STLB_L1D_Prefetch_miss_rate 0
Core_0_STLB_Other_miss 0
Core_0_STLB_Other_miss_rate 0
