[VMEM] WARNING: physical memory size is smaller than virtual memory size.

*** ChampSim Multicore Out-of-Order Simulator ***
Warmup Instructions: 20000000
Simulation Instructions: 50000000
Number of CPUs: 1
Page size: 4096
STLB ideal mode: l1pref
Core 0: /data0/tzh/champsim_traces/Ligra/ligra_MIS.com-lj.ungraph.gcc_6.3.0_O3.drop_15750M.length_250M.champsimtrace.xz
 L1D Berti prefetcher
Off-chip DRAM Size: 4 GiB Channels: 1 Width: 64-bit Data Rate: 3205 MT/s
Warmup halting CPU 0 at instruction 20000005 cycle 5784422 for remainder of phase
Warmup finished CPU 0 instructions: 20000005 cycles: 5784422 cumulative IPC: 3.458 (Simulation time: 00 hr 01 min 11 sec)
Warmup complete CPU 0 instructions: 20000005 cycles: 5784422 cumulative IPC: 3.458 (Simulation time: 00 hr 01 min 11 sec)
Simulation finished CPU 0 instructions: 50000002 cycles: 37281445 cumulative IPC: 1.341 (Simulation time: 00 hr 06 min 24 sec)
Simulation complete CPU 0 instructions: 50000002 cycles: 37281445 cumulative IPC: 1.341 (Simulation time: 00 hr 06 min 24 sec)

ChampSim completed all CPUs

=== Simulation ===
CPU 0 runs /data0/tzh/champsim_traces/Ligra/ligra_MIS.com-lj.ungraph.gcc_6.3.0_O3.drop_15750M.length_250M.champsimtrace.xz

Region of Interest Statistics

CPU 0 cumulative IPC: 1.341 instructions: 50000002 cycles: 37281445
CPU 0 Branch Prediction Accuracy: 92.53% MPKI: 8.803 Average ROB Occupancy at Mispredict: 74.17
Branch type MPKI
BRANCH_DIRECT_JUMP: 0
BRANCH_INDIRECT: 0
BRANCH_CONDITIONAL: 8.803
BRANCH_DIRECT_CALL: 0
BRANCH_INDIRECT_CALL: 0
BRANCH_RETURN: 0

cpu0->cpu0_STLB TOTAL        ACCESS:      17699 HIT:        345 MISS:      17354 MSHR_MERGE:          0
cpu0->cpu0_STLB LOAD         ACCESS:      17699 HIT:        345 MISS:      17354 MSHR_MERGE:          0
cpu0->cpu0_STLB RFO          ACCESS:          0 HIT:          0 MISS:          0 MSHR_MERGE:          0
cpu0->cpu0_STLB PREFETCH     ACCESS:          0 HIT:          0 MISS:          0 MSHR_MERGE:          0
cpu0->cpu0_STLB WRITE        ACCESS:          0 HIT:          0 MISS:          0 MSHR_MERGE:          0
cpu0->cpu0_STLB TRANSLATION  ACCESS:          0 HIT:          0 MISS:          0 MSHR_MERGE:          0
cpu0->cpu0_STLB PREFETCH REQUESTED:          0 ISSUED:          0 USEFUL:          0 USELESS:          0 LATE:          0
cpu0->cpu0_STLB AVERAGE MISS LATENCY: 280.7 cycles
cpu0->cpu0_L2C TOTAL        ACCESS:    4359374 HIT:    1668075 MISS:    2691299 MSHR_MERGE:    1556263
cpu0->cpu0_L2C LOAD         ACCESS:      26670 HIT:      12820 MISS:      13850 MSHR_MERGE:       3978
cpu0->cpu0_L2C RFO          ACCESS:     624000 HIT:          0 MISS:     624000 MSHR_MERGE:          0
cpu0->cpu0_L2C PREFETCH     ACCESS:    3082208 HIT:    1031034 MISS:    2051174 MSHR_MERGE:    1552285
cpu0->cpu0_L2C WRITE        ACCESS:     624067 HIT:     624067 MISS:          0 MSHR_MERGE:          0
cpu0->cpu0_L2C TRANSLATION  ACCESS:       2429 HIT:        154 MISS:       2275 MSHR_MERGE:          0
cpu0->cpu0_L2C PREFETCH REQUESTED:    2616349 ISSUED:    2600115 USEFUL:     318436 USELESS:     146669 LATE:       3978
cpu0->cpu0_L2C AVERAGE MISS LATENCY: 544.3 cycles
cpu0->cpu0_L1I TOTAL        ACCESS:     302303 HIT:     302303 MISS:          0 MSHR_MERGE:          0
cpu0->cpu0_L1I LOAD         ACCESS:     302303 HIT:     302303 MISS:          0 MSHR_MERGE:          0
cpu0->cpu0_L1I RFO          ACCESS:          0 HIT:          0 MISS:          0 MSHR_MERGE:          0
cpu0->cpu0_L1I PREFETCH     ACCESS:          0 HIT:          0 MISS:          0 MSHR_MERGE:          0
cpu0->cpu0_L1I WRITE        ACCESS:          0 HIT:          0 MISS:          0 MSHR_MERGE:          0
cpu0->cpu0_L1I TRANSLATION  ACCESS:          0 HIT:          0 MISS:          0 MSHR_MERGE:          0
cpu0->cpu0_L1I PREFETCH REQUESTED:          0 ISSUED:          0 USEFUL:          0 USELESS:          0 LATE:          0
cpu0->cpu0_L1I AVERAGE MISS LATENCY: - cycles
cpu0->cpu0_L1D TOTAL        ACCESS:   14412432 HIT:    3730028 MISS:   10682404 MSHR_MERGE:    9547205
cpu0->cpu0_L1D LOAD         ACCESS:    3889570 HIT:    3625175 MISS:     264395 MSHR_MERGE:     237725
cpu0->cpu0_L1D RFO          ACCESS:          0 HIT:          0 MISS:          0 MSHR_MERGE:          0
cpu0->cpu0_L1D PREFETCH     ACCESS:     504120 HIT:      10993 MISS:     493127 MSHR_MERGE:      11027
cpu0->cpu0_L1D WRITE        ACCESS:    9983999 HIT:      61546 MISS:    9922453 MSHR_MERGE:    9298453
cpu0->cpu0_L1D TRANSLATION  ACCESS:      34743 HIT:      32314 MISS:       2429 MSHR_MERGE:          0
cpu0->cpu0_L1D PREFETCH REQUESTED:     505485 ISSUED:     504112 USEFUL:     482085 USELESS:          2 LATE:      28167
cpu0->cpu0_L1D AVERAGE MISS LATENCY: 532.3 cycles
cpu0->cpu0_ITLB TOTAL        ACCESS:     302303 HIT:     302303 MISS:          0 MSHR_MERGE:          0
cpu0->cpu0_ITLB LOAD         ACCESS:     302303 HIT:     302303 MISS:          0 MSHR_MERGE:          0
cpu0->cpu0_ITLB RFO          ACCESS:          0 HIT:          0 MISS:          0 MSHR_MERGE:          0
cpu0->cpu0_ITLB PREFETCH     ACCESS:          0 HIT:          0 MISS:          0 MSHR_MERGE:          0
cpu0->cpu0_ITLB WRITE        ACCESS:          0 HIT:          0 MISS:          0 MSHR_MERGE:          0
cpu0->cpu0_ITLB TRANSLATION  ACCESS:          0 HIT:          0 MISS:          0 MSHR_MERGE:          0
cpu0->cpu0_ITLB PREFETCH REQUESTED:          0 ISSUED:          0 USEFUL:          0 USELESS:          0 LATE:          0
cpu0->cpu0_ITLB AVERAGE MISS LATENCY: - cycles
cpu0->cpu0_DTLB TOTAL        ACCESS:   12782171 HIT:   12557273 MISS:     224898 MSHR_MERGE:     207199
cpu0->cpu0_DTLB LOAD         ACCESS:   12782171 HIT:   12557273 MISS:     224898 MSHR_MERGE:     207199
cpu0->cpu0_DTLB RFO          ACCESS:          0 HIT:          0 MISS:          0 MSHR_MERGE:          0
cpu0->cpu0_DTLB PREFETCH     ACCESS:          0 HIT:          0 MISS:          0 MSHR_MERGE:          0
cpu0->cpu0_DTLB WRITE        ACCESS:          0 HIT:          0 MISS:          0 MSHR_MERGE:          0
cpu0->cpu0_DTLB TRANSLATION  ACCESS:          0 HIT:          0 MISS:          0 MSHR_MERGE:          0
cpu0->cpu0_DTLB PREFETCH REQUESTED:          0 ISSUED:          0 USEFUL:          0 USELESS:          0 LATE:          0
cpu0->cpu0_DTLB AVERAGE MISS LATENCY: 281.2 cycles
cpu0->LLC TOTAL        ACCESS:    1760797 HIT:     481745 MISS:    1279052 MSHR_MERGE:          0
cpu0->LLC LOAD         ACCESS:       9872 HIT:          0 MISS:       9872 MSHR_MERGE:          0
cpu0->LLC RFO          ACCESS:     624000 HIT:          0 MISS:     624000 MSHR_MERGE:          0
cpu0->LLC PREFETCH     ACCESS:     498889 HIT:          0 MISS:     498889 MSHR_MERGE:          0
cpu0->LLC WRITE        ACCESS:     625761 HIT:     481717 MISS:     144044 MSHR_MERGE:          0
cpu0->LLC TRANSLATION  ACCESS:       2275 HIT:         28 MISS:       2247 MSHR_MERGE:          0
cpu0->LLC PREFETCH REQUESTED:          0 ISSUED:          0 USEFUL:          0 USELESS:          0 LATE:          0
cpu0->LLC AVERAGE MISS LATENCY: 433.3 cycles

DRAM Statistics

Channel 0 RQ ROW_BUFFER_HIT:      74588
  ROW_BUFFER_MISS:    1060400
  AVG DBUS CONGESTED CYCLE: 6.738
Channel 0 WQ ROW_BUFFER_HIT:      49247
  ROW_BUFFER_MISS:     574135
  FULL:          0
Channel 0 REFRESHES ISSUED:       3106

[ROI Statistics]
[System Configuration]
num_cpus 1
cpu_freq 4000
fetch_width 6
decode_width 6
dispatch_width 6
execute_width 6
lq_width 2
sq_width 2
retire_width 6
scheduler_size 160
branch_mispredict_penalty 1
rob_size 352
lq_size 240
sq_size 112
ifetch_buffer_size 64
decode_buffer_size 32
dispatch_buffer_size 32
register_file_size 288
decode_latency 1
dispatch_latency 1
schedule_latency 0
execute_latency 0
page_size 4096
block_size 64
core_0_itlb_set 16
core_0_itlb_way 4
core_0_itlb_rq_size 16
core_0_itlb_wq_size 16
core_0_itlb_pq_size 0
core_0_itlb_mshr_size 8
core_0_itlb_hit_latency 1
core_0_itlb_fill_latency 1
core_0_itlb_max_tag_check 2
core_0_itlb_max_fill 2
core_0_dtlb_set 16
core_0_dtlb_way 4
core_0_dtlb_rq_size 16
core_0_dtlb_wq_size 16
core_0_dtlb_pq_size 0
core_0_dtlb_mshr_size 8
core_0_dtlb_hit_latency 1
core_0_dtlb_fill_latency 1
core_0_dtlb_max_tag_check 2
core_0_dtlb_max_fill 2
core_0_stlb_set 128
core_0_stlb_way 12
core_0_stlb_rq_size 32
core_0_stlb_wq_size 32
core_0_stlb_pq_size 0
core_0_stlb_mshr_size 16
core_0_stlb_hit_latency 4
core_0_stlb_fill_latency 4
core_0_stlb_max_tag_check 1
core_0_stlb_max_fill 1
core_0_l1i_set 64
core_0_l1i_way 8
core_0_l1i_rq_size 64
core_0_l1i_wq_size 64
core_0_l1i_pq_size 32
core_0_l1i_mshr_size 8
core_0_l1i_hit_latency 2
core_0_l1i_fill_latency 2
core_0_l1i_max_tag_check 2
core_0_l1i_max_fill 2
core_0_l1d_set 64
core_0_l1d_way 12
core_0_l1d_rq_size 64
core_0_l1d_wq_size 64
core_0_l1d_pq_size 8
core_0_l1d_mshr_size 16
core_0_l1d_hit_latency 2
core_0_l1d_fill_latency 3
core_0_l1d_max_tag_check 2
core_0_l1d_max_fill 2
core_0_l2c_set 1024
core_0_l2c_way 8
core_0_l2c_rq_size 32
core_0_l2c_wq_size 32
core_0_l2c_pq_size 16
core_0_l2c_mshr_size 32
core_0_l2c_hit_latency 5
core_0_l2c_fill_latency 5
core_0_l2c_max_tag_check 1
core_0_l2c_max_fill 1
llc_set 2048
llc_way 16
llc_rq_size 32
llc_wq_size 32
llc_pq_size 32
llc_mshr_size 64
llc_hit_latency 10
llc_fill_latency 10
llc_max_tag_check 1
llc_max_fill 1
dram_channels 1
dram_ranks 1
dram_bankgroups 8
dram_banks 4
dram_rows 16384
dram_columns 1024
dram_channel_width 8
dram_rq_size 64
dram_wq_size 64
dram_size 4294967296
core_0_itlb_prefetcher no
core_0_dtlb_prefetcher no
core_0_stlb_prefetcher no
core_0_l1i_prefetcher next_line
core_0_l1d_prefetcher berti
core_0_l2c_prefetcher pythia
llc_prefetcher no
llc_replacement drrip

Core_0_instructions 50000002
Core_0_cycles 37281445
Core_0_IPC 1.34115
Core_0_branch_prediction_accuracy 92.5292
Core_0_branch_MPKI 8.80266
Core_0_average_ROB_occupancy_at_mispredict 74.1669

Core_0_ITLB_total_access 302303
Core_0_ITLB_total_hit 302303
Core_0_ITLB_total_miss 0
Core_0_ITLB_total_MPKI 0
Core_0_ITLB_total_miss_rate 0
Core_0_ITLB_demand_access 302303
Core_0_ITLB_demand_hit 302303
Core_0_ITLB_demand_miss 0
Core_0_ITLB_demand_MPKI 0
Core_0_ITLB_demand_miss_rate 0
Core_0_ITLB_load_access 302303
Core_0_ITLB_load_hit 302303
Core_0_ITLB_load_miss 0
Core_0_ITLB_load_MPKI 0
Core_0_ITLB_load_miss_rate 0
Core_0_ITLB_rfo_access 0
Core_0_ITLB_rfo_hit 0
Core_0_ITLB_rfo_miss 0
Core_0_ITLB_rfo_MPKI 0
Core_0_ITLB_rfo_miss_rate 0
Core_0_ITLB_prefetch_access 0
Core_0_ITLB_prefetch_hit 0
Core_0_ITLB_prefetch_miss 0
Core_0_ITLB_prefetch_MPKI 0
Core_0_ITLB_prefetch_miss_rate 0
Core_0_ITLB_writeback_access 0
Core_0_ITLB_writeback_hit 0
Core_0_ITLB_writeback_miss 0
Core_0_ITLB_writeback_MPKI 0
Core_0_ITLB_writeback_miss_rate 0
Core_0_ITLB_prefetch_requested 0
Core_0_ITLB_prefetch_issued 0
Core_0_ITLB_prefetch_useful 0
Core_0_ITLB_prefetch_useless 0
Core_0_ITLB_prefetch_late 0
Core_0_ITLB_prefetch_accuracy 0
Core_0_ITLB_prefetch_coverage 0

Core_0_DTLB_total_access 12782171
Core_0_DTLB_total_hit 12557273
Core_0_DTLB_total_miss 224898
Core_0_DTLB_total_MPKI 4.49796
Core_0_DTLB_total_miss_rate 0.0175947
Core_0_DTLB_demand_access 12782171
Core_0_DTLB_demand_hit 12557273
Core_0_DTLB_demand_miss 224898
Core_0_DTLB_demand_MPKI 4.49796
Core_0_DTLB_demand_miss_rate 0.0175947
Core_0_DTLB_load_access 12782171
Core_0_DTLB_load_hit 12557273
Core_0_DTLB_load_miss 224898
Core_0_DTLB_load_MPKI 4.49796
Core_0_DTLB_load_miss_rate 0.0175947
Core_0_DTLB_rfo_access 0
Core_0_DTLB_rfo_hit 0
Core_0_DTLB_rfo_miss 0
Core_0_DTLB_rfo_MPKI 0
Core_0_DTLB_rfo_miss_rate 0
Core_0_DTLB_prefetch_access 0
Core_0_DTLB_prefetch_hit 0
Core_0_DTLB_prefetch_miss 0
Core_0_DTLB_prefetch_MPKI 0
Core_0_DTLB_prefetch_miss_rate 0
Core_0_DTLB_writeback_access 0
Core_0_DTLB_writeback_hit 0
Core_0_DTLB_writeback_miss 0
Core_0_DTLB_writeback_MPKI 0
Core_0_DTLB_writeback_miss_rate 0
Core_0_DTLB_prefetch_requested 0
Core_0_DTLB_prefetch_issued 0
Core_0_DTLB_prefetch_useful 0
Core_0_DTLB_prefetch_useless 0
Core_0_DTLB_prefetch_late 0
Core_0_DTLB_prefetch_accuracy 0
Core_0_DTLB_prefetch_coverage 0

Core_0_STLB_total_access 17699
Core_0_STLB_total_hit 345
Core_0_STLB_total_miss 17354
Core_0_STLB_total_MPKI 0.34708
Core_0_STLB_total_miss_rate 0.980507
Core_0_STLB_demand_access 17699
Core_0_STLB_demand_hit 345
Core_0_STLB_demand_miss 17354
Core_0_STLB_demand_MPKI 0.34708
Core_0_STLB_demand_miss_rate 0.980507
Core_0_STLB_load_access 17699
Core_0_STLB_load_hit 345
Core_0_STLB_load_miss 17354
Core_0_STLB_load_MPKI 0.34708
Core_0_STLB_load_miss_rate 0.980507
Core_0_STLB_rfo_access 0
Core_0_STLB_rfo_hit 0
Core_0_STLB_rfo_miss 0
Core_0_STLB_rfo_MPKI 0
Core_0_STLB_rfo_miss_rate 0
Core_0_STLB_prefetch_access 0
Core_0_STLB_prefetch_hit 0
Core_0_STLB_prefetch_miss 0
Core_0_STLB_prefetch_MPKI 0
Core_0_STLB_prefetch_miss_rate 0
Core_0_STLB_writeback_access 0
Core_0_STLB_writeback_hit 0
Core_0_STLB_writeback_miss 0
Core_0_STLB_writeback_MPKI 0
Core_0_STLB_writeback_miss_rate 0
Core_0_STLB_prefetch_requested 0
Core_0_STLB_prefetch_issued 0
Core_0_STLB_prefetch_useful 0
Core_0_STLB_prefetch_useless 0
Core_0_STLB_prefetch_late 0
Core_0_STLB_prefetch_accuracy 0
Core_0_STLB_prefetch_coverage 0

Core_0_L1I_total_access 302303
Core_0_L1I_total_hit 302303
Core_0_L1I_total_miss 0
Core_0_L1I_total_MPKI 0
Core_0_L1I_total_miss_rate 0
Core_0_L1I_demand_access 302303
Core_0_L1I_demand_hit 302303
Core_0_L1I_demand_miss 0
Core_0_L1I_demand_MPKI 0
Core_0_L1I_demand_miss_rate 0
Core_0_L1I_load_access 302303
Core_0_L1I_load_hit 302303
Core_0_L1I_load_miss 0
Core_0_L1I_load_MPKI 0
Core_0_L1I_load_miss_rate 0
Core_0_L1I_rfo_access 0
Core_0_L1I_rfo_hit 0
Core_0_L1I_rfo_miss 0
Core_0_L1I_rfo_MPKI 0
Core_0_L1I_rfo_miss_rate 0
Core_0_L1I_prefetch_access 0
Core_0_L1I_prefetch_hit 0
Core_0_L1I_prefetch_miss 0
Core_0_L1I_prefetch_MPKI 0
Core_0_L1I_prefetch_miss_rate 0
Core_0_L1I_writeback_access 0
Core_0_L1I_writeback_hit 0
Core_0_L1I_writeback_miss 0
Core_0_L1I_writeback_MPKI 0
Core_0_L1I_writeback_miss_rate 0
Core_0_L1I_prefetch_requested 0
Core_0_L1I_prefetch_issued 0
Core_0_L1I_prefetch_useful 0
Core_0_L1I_prefetch_useless 0
Core_0_L1I_prefetch_late 0
Core_0_L1I_prefetch_accuracy 0
Core_0_L1I_prefetch_coverage 0

Core_0_L1D_total_access 14377689
Core_0_L1D_total_hit 3697714
Core_0_L1D_total_miss 10679975
Core_0_L1D_total_MPKI 213.599
Core_0_L1D_total_miss_rate 0.742816
Core_0_L1D_demand_access 3889570
Core_0_L1D_demand_hit 3625175
Core_0_L1D_demand_miss 264395
Core_0_L1D_demand_MPKI 5.2879
Core_0_L1D_demand_miss_rate 0.0679754
Core_0_L1D_load_access 3889570
Core_0_L1D_load_hit 3625175
Core_0_L1D_load_miss 264395
Core_0_L1D_load_MPKI 5.2879
Core_0_L1D_load_miss_rate 0.0679754
Core_0_L1D_rfo_access 0
Core_0_L1D_rfo_hit 0
Core_0_L1D_rfo_miss 0
Core_0_L1D_rfo_MPKI 0
Core_0_L1D_rfo_miss_rate 0
Core_0_L1D_prefetch_access 504120
Core_0_L1D_prefetch_hit 10993
Core_0_L1D_prefetch_miss 493127
Core_0_L1D_prefetch_MPKI 9.86254
Core_0_L1D_prefetch_miss_rate 0.978194
Core_0_L1D_writeback_access 9983999
Core_0_L1D_writeback_hit 61546
Core_0_L1D_writeback_miss 9922453
Core_0_L1D_writeback_MPKI 198.449
Core_0_L1D_writeback_miss_rate 0.993836
Core_0_L1D_prefetch_requested 505485
Core_0_L1D_prefetch_issued 504112
Core_0_L1D_prefetch_useful 482085
Core_0_L1D_prefetch_useless 2
Core_0_L1D_prefetch_late 28167
Core_0_L1D_prefetch_accuracy 0.956305
Core_0_L1D_prefetch_coverage 0.645811

Core_0_L2C_total_access 4356945
Core_0_L2C_total_hit 1667921
Core_0_L2C_total_miss 2689024
Core_0_L2C_total_MPKI 53.7805
Core_0_L2C_total_miss_rate 0.617181
Core_0_L2C_demand_access 650670
Core_0_L2C_demand_hit 12820
Core_0_L2C_demand_miss 637850
Core_0_L2C_demand_MPKI 12.757
Core_0_L2C_demand_miss_rate 0.980297
Core_0_L2C_load_access 26670
Core_0_L2C_load_hit 12820
Core_0_L2C_load_miss 13850
Core_0_L2C_load_MPKI 0.277
Core_0_L2C_load_miss_rate 0.51931
Core_0_L2C_rfo_access 624000
Core_0_L2C_rfo_hit 0
Core_0_L2C_rfo_miss 624000
Core_0_L2C_rfo_MPKI 12.48
Core_0_L2C_rfo_miss_rate 1
Core_0_L2C_prefetch_access 3082208
Core_0_L2C_prefetch_hit 1031034
Core_0_L2C_prefetch_miss 2051174
Core_0_L2C_prefetch_MPKI 41.0235
Core_0_L2C_prefetch_miss_rate 0.665489
Core_0_L2C_writeback_access 624067
Core_0_L2C_writeback_hit 624067
Core_0_L2C_writeback_miss 0
Core_0_L2C_writeback_MPKI 0
Core_0_L2C_writeback_miss_rate 0
Core_0_L2C_prefetch_requested 2616349
Core_0_L2C_prefetch_issued 2600115
Core_0_L2C_prefetch_useful 318436
Core_0_L2C_prefetch_useless 146669
Core_0_L2C_prefetch_late 3978
Core_0_L2C_prefetch_accuracy 0.12247
Core_0_L2C_prefetch_coverage 0.332992

Core_0_LLC_total_access 1758522
Core_0_LLC_total_hit 481717
Core_0_LLC_total_miss 1276805
Core_0_LLC_total_MPKI 25.5361
Core_0_LLC_total_miss_rate 0.726067
Core_0_LLC_demand_access 633872
Core_0_LLC_demand_hit 0
Core_0_LLC_demand_miss 633872
Core_0_LLC_demand_MPKI 12.6774
Core_0_LLC_demand_miss_rate 1
Core_0_LLC_load_access 9872
Core_0_LLC_load_hit 0
Core_0_LLC_load_miss 9872
Core_0_LLC_load_MPKI 0.19744
Core_0_LLC_load_miss_rate 1
Core_0_LLC_rfo_access 624000
Core_0_LLC_rfo_hit 0
Core_0_LLC_rfo_miss 624000
Core_0_LLC_rfo_MPKI 12.48
Core_0_LLC_rfo_miss_rate 1
Core_0_LLC_prefetch_access 498889
Core_0_LLC_prefetch_hit 0
Core_0_LLC_prefetch_miss 498889
Core_0_LLC_prefetch_MPKI 9.97778
Core_0_LLC_prefetch_miss_rate 1
Core_0_LLC_writeback_access 625761
Core_0_LLC_writeback_hit 481717
Core_0_LLC_writeback_miss 144044
Core_0_LLC_writeback_MPKI 2.88088
Core_0_LLC_writeback_miss_rate 0.23019
Core_0_LLC_prefetch_requested 0
Core_0_LLC_prefetch_issued 0
Core_0_LLC_prefetch_useful 0
Core_0_LLC_prefetch_useless 0
Core_0_LLC_prefetch_late 0
Core_0_LLC_prefetch_accuracy 0
Core_0_LLC_prefetch_coverage 0

[DRAM Statistics]
Channel_0_RQ_row_buffer_hit 74588
Channel_0_RQ_row_buffer_miss 1060400
Channel_0_WQ_row_buffer_hit 49247
Channel_0_WQ_row_buffer_miss 574135
Channel_0_WQ_full 0
Channel_0_dbus_congested 6239284
DRAM_total_RQ_row_buffer_hit 74588
DRAM_total_RQ_row_buffer_miss 1060400
DRAM_total_WQ_row_buffer_hit 49247
DRAM_total_WQ_row_buffer_miss 574135
DRAM_total_WQ_full 0
DRAM_total_dbus_congested 6239284
DRAM_avg_congested_cycle 6.73843

======STLB miss causes ========
Core_0_STLB_miss_cause_breakdown
Core_0_STLB_cause_Demand_Data_miss 17354
Core_0_STLB_cause_Demand_Data_miss_rate 0.980507
Core_0_STLB_cause_Demand_Instruction_miss 0
Core_0_STLB_cause_Demand_Instruction_miss_rate 0
Core_0_STLB_cause_L1D_Prefetch_miss 0
Core_0_STLB_cause_L1D_Prefetch_miss_rate 0
Core_0_STLB_cause_L1I_Prefetch_miss 0
Core_0_STLB_cause_L1I_Prefetch_miss_rate 0
Core_0_STLB_cause_Other_miss 0
Core_0_STLB_cause_Other_miss_rate 0
Core_0_STLB_Demand_miss 17354
Core_0_STLB_Demand_miss_rate 0.980507
Core_0_STLB_L1D_Prefetch_miss 0
Core_0_STLB_L1D_Prefetch_miss_rate 0
Core_0_STLB_Other_miss 0
Core_0_STLB_Other_miss_rate 0
