[VMEM] WARNING: physical memory size is smaller than virtual memory size.

*** ChampSim Multicore Out-of-Order Simulator ***
Warmup Instructions: 20000000
Simulation Instructions: 50000000
Number of CPUs: 1
Page size: 4096
STLB ideal mode: l1pref
Core 0: /data0/tzh/champsim_traces/Ligra/ligra_PageRank.com-lj.ungraph.gcc_6.3.0_O3.drop_60750M.length_250M.champsimtrace.xz
 L1D Berti prefetcher
Off-chip DRAM Size: 4 GiB Channels: 1 Width: 64-bit Data Rate: 3205 MT/s
Warmup halting CPU 0 at instruction 20000004 cycle 6435563 for remainder of phase
Warmup finished CPU 0 instructions: 20000004 cycles: 6435563 cumulative IPC: 3.108 (Simulation time: 00 hr 01 min 37 sec)
Warmup complete CPU 0 instructions: 20000004 cycles: 6435563 cumulative IPC: 3.108 (Simulation time: 00 hr 01 min 37 sec)
Simulation finished CPU 0 instructions: 50000000 cycles: 102593689 cumulative IPC: 0.4874 (Simulation time: 00 hr 12 min 12 sec)
Simulation complete CPU 0 instructions: 50000000 cycles: 102593689 cumulative IPC: 0.4874 (Simulation time: 00 hr 12 min 12 sec)

ChampSim completed all CPUs

=== Simulation ===
CPU 0 runs /data0/tzh/champsim_traces/Ligra/ligra_PageRank.com-lj.ungraph.gcc_6.3.0_O3.drop_60750M.length_250M.champsimtrace.xz

Region of Interest Statistics

CPU 0 cumulative IPC: 0.4874 instructions: 50000000 cycles: 102593689
CPU 0 Branch Prediction Accuracy: 92.51% MPKI: 10.58 Average ROB Occupancy at Mispredict: 105.2
Branch type MPKI
BRANCH_DIRECT_JUMP: 4e-05
BRANCH_INDIRECT: 0
BRANCH_CONDITIONAL: 10.58
BRANCH_DIRECT_CALL: 0
BRANCH_INDIRECT_CALL: 0
BRANCH_RETURN: 4e-05

cpu0->cpu0_STLB TOTAL        ACCESS:    1767924 HIT:     459483 MISS:    1308441 MSHR_MERGE:          0
cpu0->cpu0_STLB LOAD         ACCESS:    1767924 HIT:     459483 MISS:    1308441 MSHR_MERGE:          0
cpu0->cpu0_STLB RFO          ACCESS:          0 HIT:          0 MISS:          0 MSHR_MERGE:          0
cpu0->cpu0_STLB PREFETCH     ACCESS:          0 HIT:          0 MISS:          0 MSHR_MERGE:          0
cpu0->cpu0_STLB WRITE        ACCESS:          0 HIT:          0 MISS:          0 MSHR_MERGE:          0
cpu0->cpu0_STLB TRANSLATION  ACCESS:          0 HIT:          0 MISS:          0 MSHR_MERGE:          0
cpu0->cpu0_STLB PREFETCH REQUESTED:          0 ISSUED:          0 USEFUL:          0 USELESS:          0 LATE:          0
cpu0->cpu0_STLB AVERAGE MISS LATENCY: 35.71 cycles
cpu0->cpu0_L2C TOTAL        ACCESS:    9138968 HIT:    3192958 MISS:    5946010 MSHR_MERGE:     866664
cpu0->cpu0_L2C LOAD         ACCESS:    2022209 HIT:     183482 MISS:    1838727 MSHR_MERGE:      26940
cpu0->cpu0_L2C RFO          ACCESS:         58 HIT:         57 MISS:          1 MSHR_MERGE:          0
cpu0->cpu0_L2C PREFETCH     ACCESS:    5834026 HIT:    2317451 MISS:    3516575 MSHR_MERGE:     839724
cpu0->cpu0_L2C WRITE        ACCESS:     193345 HIT:     193342 MISS:          3 MSHR_MERGE:          0
cpu0->cpu0_L2C TRANSLATION  ACCESS:    1089330 HIT:     498626 MISS:     590704 MSHR_MERGE:          0
cpu0->cpu0_L2C PREFETCH REQUESTED:    5209792 ISSUED:    5174502 USEFUL:     667978 USELESS:    1861152 LATE:      26940
cpu0->cpu0_L2C AVERAGE MISS LATENCY: 197.8 cycles
cpu0->cpu0_L1I TOTAL        ACCESS:    1188324 HIT:    1188319 MISS:          5 MSHR_MERGE:          0
cpu0->cpu0_L1I LOAD         ACCESS:    1188324 HIT:    1188319 MISS:          5 MSHR_MERGE:          0
cpu0->cpu0_L1I RFO          ACCESS:          0 HIT:          0 MISS:          0 MSHR_MERGE:          0
cpu0->cpu0_L1I PREFETCH     ACCESS:          0 HIT:          0 MISS:          0 MSHR_MERGE:          0
cpu0->cpu0_L1I WRITE        ACCESS:          0 HIT:          0 MISS:          0 MSHR_MERGE:          0
cpu0->cpu0_L1I TRANSLATION  ACCESS:          0 HIT:          0 MISS:          0 MSHR_MERGE:          0
cpu0->cpu0_L1I PREFETCH REQUESTED:          0 ISSUED:          0 USEFUL:          0 USELESS:          0 LATE:          0
cpu0->cpu0_L1I AVERAGE MISS LATENCY: 227.2 cycles
cpu0->cpu0_L1D TOTAL        ACCESS:   17277232 HIT:   13008840 MISS:    4268392 MSHR_MERGE:     497290
cpu0->cpu0_L1D LOAD         ACCESS:   11057215 HIT:    8550257 MISS:    2506958 MSHR_MERGE:     484754
cpu0->cpu0_L1D RFO          ACCESS:          0 HIT:          0 MISS:          0 MSHR_MERGE:          0
cpu0->cpu0_L1D PREFETCH     ACCESS:     792407 HIT:     125826 MISS:     666581 MSHR_MERGE:       7070
cpu0->cpu0_L1D WRITE        ACCESS:    2497259 HIT:    2497145 MISS:        114 MSHR_MERGE:         56
cpu0->cpu0_L1D TRANSLATION  ACCESS:    2930351 HIT:    1835612 MISS:    1094739 MSHR_MERGE:       5410
cpu0->cpu0_L1D PREFETCH REQUESTED:     798058 ISSUED:     792400 USEFUL:     515632 USELESS:     143875 LATE:      35454
cpu0->cpu0_L1D AVERAGE MISS LATENCY: 163.7 cycles
cpu0->cpu0_ITLB TOTAL        ACCESS:    1181899 HIT:    1181898 MISS:          1 MSHR_MERGE:          0
cpu0->cpu0_ITLB LOAD         ACCESS:    1181899 HIT:    1181898 MISS:          1 MSHR_MERGE:          0
cpu0->cpu0_ITLB RFO          ACCESS:          0 HIT:          0 MISS:          0 MSHR_MERGE:          0
cpu0->cpu0_ITLB PREFETCH     ACCESS:          0 HIT:          0 MISS:          0 MSHR_MERGE:          0
cpu0->cpu0_ITLB WRITE        ACCESS:          0 HIT:          0 MISS:          0 MSHR_MERGE:          0
cpu0->cpu0_ITLB TRANSLATION  ACCESS:          0 HIT:          0 MISS:          0 MSHR_MERGE:          0
cpu0->cpu0_ITLB PREFETCH REQUESTED:          0 ISSUED:          0 USEFUL:          0 USELESS:          0 LATE:          0
cpu0->cpu0_ITLB AVERAGE MISS LATENCY: 671 cycles
cpu0->cpu0_DTLB TOTAL        ACCESS:   13865741 HIT:   11938774 MISS:    1926967 MSHR_MERGE:     159045
cpu0->cpu0_DTLB LOAD         ACCESS:   13865741 HIT:   11938774 MISS:    1926967 MSHR_MERGE:     159045
cpu0->cpu0_DTLB RFO          ACCESS:          0 HIT:          0 MISS:          0 MSHR_MERGE:          0
cpu0->cpu0_DTLB PREFETCH     ACCESS:          0 HIT:          0 MISS:          0 MSHR_MERGE:          0
cpu0->cpu0_DTLB WRITE        ACCESS:          0 HIT:          0 MISS:          0 MSHR_MERGE:          0
cpu0->cpu0_DTLB TRANSLATION  ACCESS:          0 HIT:          0 MISS:          0 MSHR_MERGE:          0
cpu0->cpu0_DTLB PREFETCH REQUESTED:          0 ISSUED:          0 USEFUL:          0 USELESS:          0 LATE:          0
cpu0->cpu0_DTLB AVERAGE MISS LATENCY: 32.18 cycles
cpu0->LLC TOTAL        ACCESS:    5266150 HIT:    1044930 MISS:    4221220 MSHR_MERGE:          0
cpu0->LLC LOAD         ACCESS:    1811787 HIT:     210633 MISS:    1601154 MSHR_MERGE:          0
cpu0->LLC RFO          ACCESS:          1 HIT:          0 MISS:          1 MSHR_MERGE:          0
cpu0->LLC PREFETCH     ACCESS:    2676851 HIT:     236323 MISS:    2440528 MSHR_MERGE:          0
cpu0->LLC WRITE        ACCESS:     186807 HIT:      29910 MISS:     156897 MSHR_MERGE:          0
cpu0->LLC TRANSLATION  ACCESS:     590704 HIT:     568064 MISS:      22640 MSHR_MERGE:          0
cpu0->LLC PREFETCH REQUESTED:          0 ISSUED:          0 USEFUL:          0 USELESS:          0 LATE:          0
cpu0->LLC AVERAGE MISS LATENCY: 246.8 cycles

DRAM Statistics

Channel 0 RQ ROW_BUFFER_HIT:      26064
  ROW_BUFFER_MISS:    4038252
  AVG DBUS CONGESTED CYCLE: 3.425
Channel 0 WQ ROW_BUFFER_HIT:      17913
  ROW_BUFFER_MISS:     143367
  FULL:          0
Channel 0 REFRESHES ISSUED:       8549

[ROI Statistics]
[System Configuration]
num_cpus 1
cpu_freq 4000
fetch_width 6
decode_width 6
dispatch_width 6
execute_width 6
lq_width 2
sq_width 2
retire_width 6
scheduler_size 160
branch_mispredict_penalty 1
rob_size 352
lq_size 240
sq_size 112
ifetch_buffer_size 64
decode_buffer_size 32
dispatch_buffer_size 32
register_file_size 288
decode_latency 1
dispatch_latency 1
schedule_latency 0
execute_latency 0
page_size 4096
block_size 64
core_0_itlb_set 16
core_0_itlb_way 4
core_0_itlb_rq_size 16
core_0_itlb_wq_size 16
core_0_itlb_pq_size 0
core_0_itlb_mshr_size 8
core_0_itlb_hit_latency 1
core_0_itlb_fill_latency 1
core_0_itlb_max_tag_check 2
core_0_itlb_max_fill 2
core_0_dtlb_set 16
core_0_dtlb_way 4
core_0_dtlb_rq_size 16
core_0_dtlb_wq_size 16
core_0_dtlb_pq_size 0
core_0_dtlb_mshr_size 8
core_0_dtlb_hit_latency 1
core_0_dtlb_fill_latency 1
core_0_dtlb_max_tag_check 2
core_0_dtlb_max_fill 2
core_0_stlb_set 128
core_0_stlb_way 12
core_0_stlb_rq_size 32
core_0_stlb_wq_size 32
core_0_stlb_pq_size 0
core_0_stlb_mshr_size 16
core_0_stlb_hit_latency 4
core_0_stlb_fill_latency 4
core_0_stlb_max_tag_check 1
core_0_stlb_max_fill 1
core_0_l1i_set 64
core_0_l1i_way 8
core_0_l1i_rq_size 64
core_0_l1i_wq_size 64
core_0_l1i_pq_size 32
core_0_l1i_mshr_size 8
core_0_l1i_hit_latency 2
core_0_l1i_fill_latency 2
core_0_l1i_max_tag_check 2
core_0_l1i_max_fill 2
core_0_l1d_set 64
core_0_l1d_way 12
core_0_l1d_rq_size 64
core_0_l1d_wq_size 64
core_0_l1d_pq_size 8
core_0_l1d_mshr_size 16
core_0_l1d_hit_latency 2
core_0_l1d_fill_latency 3
core_0_l1d_max_tag_check 2
core_0_l1d_max_fill 2
core_0_l2c_set 1024
core_0_l2c_way 8
core_0_l2c_rq_size 32
core_0_l2c_wq_size 32
core_0_l2c_pq_size 16
core_0_l2c_mshr_size 32
core_0_l2c_hit_latency 5
core_0_l2c_fill_latency 5
core_0_l2c_max_tag_check 1
core_0_l2c_max_fill 1
llc_set 2048
llc_way 16
llc_rq_size 32
llc_wq_size 32
llc_pq_size 32
llc_mshr_size 64
llc_hit_latency 10
llc_fill_latency 10
llc_max_tag_check 1
llc_max_fill 1
dram_channels 1
dram_ranks 1
dram_bankgroups 8
dram_banks 4
dram_rows 16384
dram_columns 1024
dram_channel_width 8
dram_rq_size 64
dram_wq_size 64
dram_size 4294967296
core_0_itlb_prefetcher no
core_0_dtlb_prefetcher no
core_0_stlb_prefetcher no
core_0_l1i_prefetcher next_line
core_0_l1d_prefetcher berti
core_0_l2c_prefetcher pythia
llc_prefetcher no
llc_replacement drrip

Core_0_instructions 50000000
Core_0_cycles 102593689
Core_0_IPC 0.487359
Core_0_branch_prediction_accuracy 92.5084
Core_0_branch_MPKI 10.5794
Core_0_average_ROB_occupancy_at_mispredict 105.247

Core_0_ITLB_total_access 1181899
Core_0_ITLB_total_hit 1181898
Core_0_ITLB_total_miss 1
Core_0_ITLB_total_MPKI 2e-05
Core_0_ITLB_total_miss_rate 8.46096e-07
Core_0_ITLB_demand_access 1181899
Core_0_ITLB_demand_hit 1181898
Core_0_ITLB_demand_miss 1
Core_0_ITLB_demand_MPKI 2e-05
Core_0_ITLB_demand_miss_rate 8.46096e-07
Core_0_ITLB_load_access 1181899
Core_0_ITLB_load_hit 1181898
Core_0_ITLB_load_miss 1
Core_0_ITLB_load_MPKI 2e-05
Core_0_ITLB_load_miss_rate 8.46096e-07
Core_0_ITLB_rfo_access 0
Core_0_ITLB_rfo_hit 0
Core_0_ITLB_rfo_miss 0
Core_0_ITLB_rfo_MPKI 0
Core_0_ITLB_rfo_miss_rate 0
Core_0_ITLB_prefetch_access 0
Core_0_ITLB_prefetch_hit 0
Core_0_ITLB_prefetch_miss 0
Core_0_ITLB_prefetch_MPKI 0
Core_0_ITLB_prefetch_miss_rate 0
Core_0_ITLB_writeback_access 0
Core_0_ITLB_writeback_hit 0
Core_0_ITLB_writeback_miss 0
Core_0_ITLB_writeback_MPKI 0
Core_0_ITLB_writeback_miss_rate 0
Core_0_ITLB_prefetch_requested 0
Core_0_ITLB_prefetch_issued 0
Core_0_ITLB_prefetch_useful 0
Core_0_ITLB_prefetch_useless 0
Core_0_ITLB_prefetch_late 0
Core_0_ITLB_prefetch_accuracy 0
Core_0_ITLB_prefetch_coverage 0

Core_0_DTLB_total_access 13865741
Core_0_DTLB_total_hit 11938774
Core_0_DTLB_total_miss 1926967
Core_0_DTLB_total_MPKI 38.5393
Core_0_DTLB_total_miss_rate 0.138973
Core_0_DTLB_demand_access 13865741
Core_0_DTLB_demand_hit 11938774
Core_0_DTLB_demand_miss 1926967
Core_0_DTLB_demand_MPKI 38.5393
Core_0_DTLB_demand_miss_rate 0.138973
Core_0_DTLB_load_access 13865741
Core_0_DTLB_load_hit 11938774
Core_0_DTLB_load_miss 1926967
Core_0_DTLB_load_MPKI 38.5393
Core_0_DTLB_load_miss_rate 0.138973
Core_0_DTLB_rfo_access 0
Core_0_DTLB_rfo_hit 0
Core_0_DTLB_rfo_miss 0
Core_0_DTLB_rfo_MPKI 0
Core_0_DTLB_rfo_miss_rate 0
Core_0_DTLB_prefetch_access 0
Core_0_DTLB_prefetch_hit 0
Core_0_DTLB_prefetch_miss 0
Core_0_DTLB_prefetch_MPKI 0
Core_0_DTLB_prefetch_miss_rate 0
Core_0_DTLB_writeback_access 0
Core_0_DTLB_writeback_hit 0
Core_0_DTLB_writeback_miss 0
Core_0_DTLB_writeback_MPKI 0
Core_0_DTLB_writeback_miss_rate 0
Core_0_DTLB_prefetch_requested 0
Core_0_DTLB_prefetch_issued 0
Core_0_DTLB_prefetch_useful 0
Core_0_DTLB_prefetch_useless 0
Core_0_DTLB_prefetch_late 0
Core_0_DTLB_prefetch_accuracy 0
Core_0_DTLB_prefetch_coverage 0

Core_0_STLB_total_access 1767924
Core_0_STLB_total_hit 459483
Core_0_STLB_total_miss 1308441
Core_0_STLB_total_MPKI 26.1688
Core_0_STLB_total_miss_rate 0.7401
Core_0_STLB_demand_access 1767924
Core_0_STLB_demand_hit 459483
Core_0_STLB_demand_miss 1308441
Core_0_STLB_demand_MPKI 26.1688
Core_0_STLB_demand_miss_rate 0.7401
Core_0_STLB_load_access 1767924
Core_0_STLB_load_hit 459483
Core_0_STLB_load_miss 1308441
Core_0_STLB_load_MPKI 26.1688
Core_0_STLB_load_miss_rate 0.7401
Core_0_STLB_rfo_access 0
Core_0_STLB_rfo_hit 0
Core_0_STLB_rfo_miss 0
Core_0_STLB_rfo_MPKI 0
Core_0_STLB_rfo_miss_rate 0
Core_0_STLB_prefetch_access 0
Core_0_STLB_prefetch_hit 0
Core_0_STLB_prefetch_miss 0
Core_0_STLB_prefetch_MPKI 0
Core_0_STLB_prefetch_miss_rate 0
Core_0_STLB_writeback_access 0
Core_0_STLB_writeback_hit 0
Core_0_STLB_writeback_miss 0
Core_0_STLB_writeback_MPKI 0
Core_0_STLB_writeback_miss_rate 0
Core_0_STLB_prefetch_requested 0
Core_0_STLB_prefetch_issued 0
Core_0_STLB_prefetch_useful 0
Core_0_STLB_prefetch_useless 0
Core_0_STLB_prefetch_late 0
Core_0_STLB_prefetch_accuracy 0
Core_0_STLB_prefetch_coverage 0

Core_0_L1I_total_access 1188324
Core_0_L1I_total_hit 1188319
Core_0_L1I_total_miss 5
Core_0_L1I_total_MPKI 0.0001
Core_0_L1I_total_miss_rate 4.20761e-06
Core_0_L1I_demand_access 1188324
Core_0_L1I_demand_hit 1188319
Core_0_L1I_demand_miss 5
Core_0_L1I_demand_MPKI 0.0001
Core_0_L1I_demand_miss_rate 4.20761e-06
Core_0_L1I_load_access 1188324
Core_0_L1I_load_hit 1188319
Core_0_L1I_load_miss 5
Core_0_L1I_load_MPKI 0.0001
Core_0_L1I_load_miss_rate 4.20761e-06
Core_0_L1I_rfo_access 0
Core_0_L1I_rfo_hit 0
Core_0_L1I_rfo_miss 0
Core_0_L1I_rfo_MPKI 0
Core_0_L1I_rfo_miss_rate 0
Core_0_L1I_prefetch_access 0
Core_0_L1I_prefetch_hit 0
Core_0_L1I_prefetch_miss 0
Core_0_L1I_prefetch_MPKI 0
Core_0_L1I_prefetch_miss_rate 0
Core_0_L1I_writeback_access 0
Core_0_L1I_writeback_hit 0
Core_0_L1I_writeback_miss 0
Core_0_L1I_writeback_MPKI 0
Core_0_L1I_writeback_miss_rate 0
Core_0_L1I_prefetch_requested 0
Core_0_L1I_prefetch_issued 0
Core_0_L1I_prefetch_useful 0
Core_0_L1I_prefetch_useless 0
Core_0_L1I_prefetch_late 0
Core_0_L1I_prefetch_accuracy 0
Core_0_L1I_prefetch_coverage 0

Core_0_L1D_total_access 14346881
Core_0_L1D_total_hit 11173228
Core_0_L1D_total_miss 3173653
Core_0_L1D_total_MPKI 63.4731
Core_0_L1D_total_miss_rate 0.221209
Core_0_L1D_demand_access 11057215
Core_0_L1D_demand_hit 8550257
Core_0_L1D_demand_miss 2506958
Core_0_L1D_demand_MPKI 50.1392
Core_0_L1D_demand_miss_rate 0.226726
Core_0_L1D_load_access 11057215
Core_0_L1D_load_hit 8550257
Core_0_L1D_load_miss 2506958
Core_0_L1D_load_MPKI 50.1392
Core_0_L1D_load_miss_rate 0.226726
Core_0_L1D_rfo_access 0
Core_0_L1D_rfo_hit 0
Core_0_L1D_rfo_miss 0
Core_0_L1D_rfo_MPKI 0
Core_0_L1D_rfo_miss_rate 0
Core_0_L1D_prefetch_access 792407
Core_0_L1D_prefetch_hit 125826
Core_0_L1D_prefetch_miss 666581
Core_0_L1D_prefetch_MPKI 13.3316
Core_0_L1D_prefetch_miss_rate 0.84121
Core_0_L1D_writeback_access 2497259
Core_0_L1D_writeback_hit 2497145
Core_0_L1D_writeback_miss 114
Core_0_L1D_writeback_MPKI 0.00228
Core_0_L1D_writeback_miss_rate 4.56501e-05
Core_0_L1D_prefetch_requested 798058
Core_0_L1D_prefetch_issued 792400
Core_0_L1D_prefetch_useful 515632
Core_0_L1D_prefetch_useless 143875
Core_0_L1D_prefetch_late 35454
Core_0_L1D_prefetch_accuracy 0.650722
Core_0_L1D_prefetch_coverage 0.170593

Core_0_L2C_total_access 8049638
Core_0_L2C_total_hit 2694332
Core_0_L2C_total_miss 5355306
Core_0_L2C_total_MPKI 107.106
Core_0_L2C_total_miss_rate 0.665285
Core_0_L2C_demand_access 2022267
Core_0_L2C_demand_hit 183539
Core_0_L2C_demand_miss 1838728
Core_0_L2C_demand_MPKI 36.7746
Core_0_L2C_demand_miss_rate 0.909241
Core_0_L2C_load_access 2022209
Core_0_L2C_load_hit 183482
Core_0_L2C_load_miss 1838727
Core_0_L2C_load_MPKI 36.7745
Core_0_L2C_load_miss_rate 0.909267
Core_0_L2C_rfo_access 58
Core_0_L2C_rfo_hit 57
Core_0_L2C_rfo_miss 1
Core_0_L2C_rfo_MPKI 2e-05
Core_0_L2C_rfo_miss_rate 0.0172414
Core_0_L2C_prefetch_access 5834026
Core_0_L2C_prefetch_hit 2317451
Core_0_L2C_prefetch_miss 3516575
Core_0_L2C_prefetch_MPKI 70.3315
Core_0_L2C_prefetch_miss_rate 0.60277
Core_0_L2C_writeback_access 193345
Core_0_L2C_writeback_hit 193342
Core_0_L2C_writeback_miss 3
Core_0_L2C_writeback_MPKI 6e-05
Core_0_L2C_writeback_miss_rate 1.55163e-05
Core_0_L2C_prefetch_requested 5209792
Core_0_L2C_prefetch_issued 5174502
Core_0_L2C_prefetch_useful 667978
Core_0_L2C_prefetch_useless 1861152
Core_0_L2C_prefetch_late 26940
Core_0_L2C_prefetch_accuracy 0.12909
Core_0_L2C_prefetch_coverage 0.266476

Core_0_LLC_total_access 4675446
Core_0_LLC_total_hit 476866
Core_0_LLC_total_miss 4198580
Core_0_LLC_total_MPKI 83.9716
Core_0_LLC_total_miss_rate 0.898006
Core_0_LLC_demand_access 1811788
Core_0_LLC_demand_hit 210633
Core_0_LLC_demand_miss 1601155
Core_0_LLC_demand_MPKI 32.0231
Core_0_LLC_demand_miss_rate 0.883743
Core_0_LLC_load_access 1811787
Core_0_LLC_load_hit 210633
Core_0_LLC_load_miss 1601154
Core_0_LLC_load_MPKI 32.0231
Core_0_LLC_load_miss_rate 0.883743
Core_0_LLC_rfo_access 1
Core_0_LLC_rfo_hit 0
Core_0_LLC_rfo_miss 1
Core_0_LLC_rfo_MPKI 2e-05
Core_0_LLC_rfo_miss_rate 1
Core_0_LLC_prefetch_access 2676851
Core_0_LLC_prefetch_hit 236323
Core_0_LLC_prefetch_miss 2440528
Core_0_LLC_prefetch_MPKI 48.8106
Core_0_LLC_prefetch_miss_rate 0.911716
Core_0_LLC_writeback_access 186807
Core_0_LLC_writeback_hit 29910
Core_0_LLC_writeback_miss 156897
Core_0_LLC_writeback_MPKI 3.13794
Core_0_LLC_writeback_miss_rate 0.839888
Core_0_LLC_prefetch_requested 0
Core_0_LLC_prefetch_issued 0
Core_0_LLC_prefetch_useful 0
Core_0_LLC_prefetch_useless 0
Core_0_LLC_prefetch_late 0
Core_0_LLC_prefetch_accuracy 0
Core_0_LLC_prefetch_coverage 0

[DRAM Statistics]
Channel_0_RQ_row_buffer_hit 26064
Channel_0_RQ_row_buffer_miss 4038252
Channel_0_WQ_row_buffer_hit 17913
Channel_0_WQ_row_buffer_miss 143367
Channel_0_WQ_full 0
Channel_0_dbus_congested 8342082
DRAM_total_RQ_row_buffer_hit 26064
DRAM_total_RQ_row_buffer_miss 4038252
DRAM_total_WQ_row_buffer_hit 17913
DRAM_total_WQ_row_buffer_miss 143367
DRAM_total_WQ_full 0
DRAM_total_dbus_congested 8342082
DRAM_avg_congested_cycle 3.42524

======STLB miss causes ========
Core_0_STLB_miss_cause_breakdown
Core_0_STLB_cause_Demand_Data_miss 1308440
Core_0_STLB_cause_Demand_Data_miss_rate 0.7401
Core_0_STLB_cause_Demand_Instruction_miss 1
Core_0_STLB_cause_Demand_Instruction_miss_rate 5.65635e-07
Core_0_STLB_cause_L1D_Prefetch_miss 0
Core_0_STLB_cause_L1D_Prefetch_miss_rate 0
Core_0_STLB_cause_L1I_Prefetch_miss 0
Core_0_STLB_cause_L1I_Prefetch_miss_rate 0
Core_0_STLB_cause_Other_miss 0
Core_0_STLB_cause_Other_miss_rate 0
Core_0_STLB_Demand_miss 1308441
Core_0_STLB_Demand_miss_rate 0.7401
Core_0_STLB_L1D_Prefetch_miss 0
Core_0_STLB_L1D_Prefetch_miss_rate 0
Core_0_STLB_Other_miss 0
Core_0_STLB_Other_miss_rate 0
