[VMEM] WARNING: physical memory size is smaller than virtual memory size.

*** ChampSim Multicore Out-of-Order Simulator ***
Warmup Instructions: 20000000
Simulation Instructions: 50000000
Number of CPUs: 1
Page size: 4096
Core 0: /data0/tzh/champsim_traces/SPEC06/401.bzip2-7B.champsimtrace.xz
 L1D Berti prefetcher
Off-chip DRAM Size: 16 GiB Channels: 1 Width: 64-bit Data Rate: 3205 MT/s
Warmup halting CPU 0 at instruction 20000003 cycle 4225597 for remainder of phase
Warmup finished CPU 0 instructions: 20000003 cycles: 4225597 cumulative IPC: 4.733 (Simulation time: 00 hr 00 min 56 sec)
Warmup complete CPU 0 instructions: 20000003 cycles: 4225597 cumulative IPC: 4.733 (Simulation time: 00 hr 00 min 56 sec)
Simulation finished CPU 0 instructions: 50000003 cycles: 29748298 cumulative IPC: 1.681 (Simulation time: 00 hr 04 min 33 sec)
Simulation complete CPU 0 instructions: 50000003 cycles: 29748298 cumulative IPC: 1.681 (Simulation time: 00 hr 04 min 33 sec)

ChampSim completed all CPUs

=== Simulation ===
CPU 0 runs /data0/tzh/champsim_traces/SPEC06/401.bzip2-7B.champsimtrace.xz

Region of Interest Statistics

CPU 0 cumulative IPC: 1.681 instructions: 50000003 cycles: 29748298
CPU 0 Branch Prediction Accuracy: 93.61% MPKI: 9.597 Average ROB Occupancy at Mispredict: 41.63
Branch type MPKI
BRANCH_DIRECT_JUMP: 0
BRANCH_INDIRECT: 0
BRANCH_CONDITIONAL: 9.597
BRANCH_DIRECT_CALL: 0
BRANCH_INDIRECT_CALL: 0
BRANCH_RETURN: 0

cpu0->cpu0_STLB TOTAL        ACCESS:     118986 HIT:     118820 MISS:        166 MSHR_MERGE:          0
cpu0->cpu0_STLB LOAD         ACCESS:     118986 HIT:     118820 MISS:        166 MSHR_MERGE:          0
cpu0->cpu0_STLB RFO          ACCESS:          0 HIT:          0 MISS:          0 MSHR_MERGE:          0
cpu0->cpu0_STLB PREFETCH     ACCESS:          0 HIT:          0 MISS:          0 MSHR_MERGE:          0
cpu0->cpu0_STLB WRITE        ACCESS:          0 HIT:          0 MISS:          0 MSHR_MERGE:          0
cpu0->cpu0_STLB TRANSLATION  ACCESS:          0 HIT:          0 MISS:          0 MSHR_MERGE:          0
cpu0->cpu0_STLB PREFETCH REQUESTED:          0 ISSUED:          0 USEFUL:          0 USELESS:          0 LATE:          0
cpu0->cpu0_STLB AVERAGE MISS LATENCY: 250.2 cycles
cpu0->cpu0_L2C TOTAL        ACCESS:    3169297 HIT:    2827077 MISS:     342220 MSHR_MERGE:      32662
cpu0->cpu0_L2C LOAD         ACCESS:     398115 HIT:     353339 MISS:      44776 MSHR_MERGE:       1992
cpu0->cpu0_L2C RFO          ACCESS:     143821 HIT:      21112 MISS:     122709 MSHR_MERGE:          2
cpu0->cpu0_L2C PREFETCH     ACCESS:    2435339 HIT:    2260718 MISS:     174621 MSHR_MERGE:      30668
cpu0->cpu0_L2C WRITE        ACCESS:     191885 HIT:     191848 MISS:         37 MSHR_MERGE:          0
cpu0->cpu0_L2C TRANSLATION  ACCESS:        137 HIT:         60 MISS:         77 MSHR_MERGE:          0
cpu0->cpu0_L2C PREFETCH REQUESTED:    2444440 ISSUED:    2066283 USEFUL:      70752 USELESS:      43407 LATE:       1994
cpu0->cpu0_L2C AVERAGE MISS LATENCY: 60 cycles
cpu0->cpu0_L1I TOTAL        ACCESS:     471728 HIT:     471728 MISS:          0 MSHR_MERGE:          0
cpu0->cpu0_L1I LOAD         ACCESS:     471728 HIT:     471728 MISS:          0 MSHR_MERGE:          0
cpu0->cpu0_L1I RFO          ACCESS:          0 HIT:          0 MISS:          0 MSHR_MERGE:          0
cpu0->cpu0_L1I PREFETCH     ACCESS:          0 HIT:          0 MISS:          0 MSHR_MERGE:          0
cpu0->cpu0_L1I WRITE        ACCESS:          0 HIT:          0 MISS:          0 MSHR_MERGE:          0
cpu0->cpu0_L1I TRANSLATION  ACCESS:          0 HIT:          0 MISS:          0 MSHR_MERGE:          0
cpu0->cpu0_L1I PREFETCH REQUESTED:          0 ISSUED:          0 USEFUL:          0 USELESS:          0 LATE:          0
cpu0->cpu0_L1I AVERAGE MISS LATENCY: - cycles
cpu0->cpu0_L1D TOTAL        ACCESS:   15872428 HIT:   14746995 MISS:    1125433 MSHR_MERGE:     214309
cpu0->cpu0_L1D LOAD         ACCESS:   10180144 HIT:    9678494 MISS:     501650 MSHR_MERGE:     103535
cpu0->cpu0_L1D RFO          ACCESS:          0 HIT:          0 MISS:          0 MSHR_MERGE:          0
cpu0->cpu0_L1D PREFETCH     ACCESS:     589199 HIT:     188306 MISS:     400893 MSHR_MERGE:      31849
cpu0->cpu0_L1D WRITE        ACCESS:    5102754 HIT:    4880002 MISS:     222752 MSHR_MERGE:      78924
cpu0->cpu0_L1D TRANSLATION  ACCESS:        331 HIT:        193 MISS:        138 MSHR_MERGE:          1
cpu0->cpu0_L1D PREFETCH REQUESTED:     640113 ISSUED:     589191 USEFUL:     259613 USELESS:     109372 LATE:      30063
cpu0->cpu0_L1D AVERAGE MISS LATENCY: 26.58 cycles
cpu0->cpu0_ITLB TOTAL        ACCESS:     436865 HIT:     436865 MISS:          0 MSHR_MERGE:          0
cpu0->cpu0_ITLB LOAD         ACCESS:     436865 HIT:     436865 MISS:          0 MSHR_MERGE:          0
cpu0->cpu0_ITLB RFO          ACCESS:          0 HIT:          0 MISS:          0 MSHR_MERGE:          0
cpu0->cpu0_ITLB PREFETCH     ACCESS:          0 HIT:          0 MISS:          0 MSHR_MERGE:          0
cpu0->cpu0_ITLB WRITE        ACCESS:          0 HIT:          0 MISS:          0 MSHR_MERGE:          0
cpu0->cpu0_ITLB TRANSLATION  ACCESS:          0 HIT:          0 MISS:          0 MSHR_MERGE:          0
cpu0->cpu0_ITLB PREFETCH REQUESTED:          0 ISSUED:          0 USEFUL:          0 USELESS:          0 LATE:          0
cpu0->cpu0_ITLB AVERAGE MISS LATENCY: - cycles
cpu0->cpu0_DTLB TOTAL        ACCESS:   14696487 HIT:   14540331 MISS:     156156 MSHR_MERGE:      37170
cpu0->cpu0_DTLB LOAD         ACCESS:   14696487 HIT:   14540331 MISS:     156156 MSHR_MERGE:      37170
cpu0->cpu0_DTLB RFO          ACCESS:          0 HIT:          0 MISS:          0 MSHR_MERGE:          0
cpu0->cpu0_DTLB PREFETCH     ACCESS:          0 HIT:          0 MISS:          0 MSHR_MERGE:          0
cpu0->cpu0_DTLB WRITE        ACCESS:          0 HIT:          0 MISS:          0 MSHR_MERGE:          0
cpu0->cpu0_DTLB TRANSLATION  ACCESS:          0 HIT:          0 MISS:          0 MSHR_MERGE:          0
cpu0->cpu0_DTLB PREFETCH REQUESTED:          0 ISSUED:          0 USEFUL:          0 USELESS:          0 LATE:          0
cpu0->cpu0_DTLB AVERAGE MISS LATENCY: 5.356 cycles
cpu0->LLC TOTAL        ACCESS:     448071 HIT:     416670 MISS:      31401 MSHR_MERGE:          0
cpu0->LLC LOAD         ACCESS:      42784 HIT:      41043 MISS:       1741 MSHR_MERGE:          0
cpu0->LLC RFO          ACCESS:     122706 HIT:     104588 MISS:      18118 MSHR_MERGE:          0
cpu0->LLC PREFETCH     ACCESS:     143953 HIT:     133952 MISS:      10001 MSHR_MERGE:          0
cpu0->LLC WRITE        ACCESS:     138551 HIT:     137030 MISS:       1521 MSHR_MERGE:          0
cpu0->LLC TRANSLATION  ACCESS:         77 HIT:         57 MISS:         20 MSHR_MERGE:          0
cpu0->LLC PREFETCH REQUESTED:          0 ISSUED:          0 USEFUL:          0 USELESS:          0 LATE:          0
cpu0->LLC AVERAGE MISS LATENCY: 349.8 cycles

DRAM Statistics

Channel 0 RQ ROW_BUFFER_HIT:       1973
  ROW_BUFFER_MISS:      27543
  AVG DBUS CONGESTED CYCLE: 9.152
Channel 0 WQ ROW_BUFFER_HIT:       3579
  ROW_BUFFER_MISS:      19786
  FULL:          0
Channel 0 REFRESHES ISSUED:       2479

[ROI Statistics]
[System Configuration]
num_cpus 1
cpu_freq 4000
fetch_width 6
decode_width 6
dispatch_width 6
execute_width 6
lq_width 2
sq_width 2
retire_width 6
scheduler_size 128
branch_mispredict_penalty 15
rob_size 352
lq_size 128
sq_size 72
ifetch_buffer_size 64
decode_buffer_size 32
dispatch_buffer_size 32
register_file_size 288
decode_latency 1
dispatch_latency 1
schedule_latency 1
execute_latency 1
page_size 4096
block_size 64
core_0_itlb_set 16
core_0_itlb_way 4
core_0_itlb_rq_size 16
core_0_itlb_wq_size 16
core_0_itlb_pq_size 0
core_0_itlb_mshr_size 8
core_0_itlb_hit_latency 1
core_0_itlb_fill_latency 1
core_0_itlb_max_tag_check 2
core_0_itlb_max_fill 2
core_0_dtlb_set 16
core_0_dtlb_way 4
core_0_dtlb_rq_size 16
core_0_dtlb_wq_size 16
core_0_dtlb_pq_size 0
core_0_dtlb_mshr_size 8
core_0_dtlb_hit_latency 1
core_0_dtlb_fill_latency 1
core_0_dtlb_max_tag_check 2
core_0_dtlb_max_fill 2
core_0_stlb_set 128
core_0_stlb_way 12
core_0_stlb_rq_size 32
core_0_stlb_wq_size 32
core_0_stlb_pq_size 0
core_0_stlb_mshr_size 16
core_0_stlb_hit_latency 4
core_0_stlb_fill_latency 4
core_0_stlb_max_tag_check 1
core_0_stlb_max_fill 1
core_0_l1i_set 64
core_0_l1i_way 8
core_0_l1i_rq_size 64
core_0_l1i_wq_size 64
core_0_l1i_pq_size 32
core_0_l1i_mshr_size 8
core_0_l1i_hit_latency 2
core_0_l1i_fill_latency 2
core_0_l1i_max_tag_check 2
core_0_l1i_max_fill 2
core_0_l1d_set 64
core_0_l1d_way 12
core_0_l1d_rq_size 64
core_0_l1d_wq_size 64
core_0_l1d_pq_size 8
core_0_l1d_mshr_size 16
core_0_l1d_hit_latency 2
core_0_l1d_fill_latency 3
core_0_l1d_max_tag_check 2
core_0_l1d_max_fill 2
core_0_l2c_set 1024
core_0_l2c_way 8
core_0_l2c_rq_size 32
core_0_l2c_wq_size 32
core_0_l2c_pq_size 16
core_0_l2c_mshr_size 32
core_0_l2c_hit_latency 5
core_0_l2c_fill_latency 5
core_0_l2c_max_tag_check 1
core_0_l2c_max_fill 1
llc_set 2048
llc_way 16
llc_rq_size 32
llc_wq_size 32
llc_pq_size 32
llc_mshr_size 64
llc_hit_latency 10
llc_fill_latency 10
llc_max_tag_check 1
llc_max_fill 1
dram_channels 1
dram_ranks 1
dram_bankgroups 8
dram_banks 4
dram_rows 65536
dram_columns 1024
dram_channel_width 8
dram_rq_size 64
dram_wq_size 64
dram_size 17179869184
core_0_itlb_prefetcher no
core_0_dtlb_prefetcher no
core_0_stlb_prefetcher no
core_0_l1i_prefetcher next_line
core_0_l1d_prefetcher berti
core_0_l2c_prefetcher pythia
llc_prefetcher no
llc_replacement drrip

Core_0_instructions 50000003
Core_0_cycles 29748298
Core_0_IPC 1.68077
Core_0_branch_prediction_accuracy 93.6114
Core_0_branch_MPKI 9.59688
Core_0_average_ROB_occupancy_at_mispredict 41.6312

Core_0_ITLB_total_access 436865
Core_0_ITLB_total_hit 436865
Core_0_ITLB_total_miss 0
Core_0_ITLB_total_MPKI 0
Core_0_ITLB_total_miss_rate 0
Core_0_ITLB_demand_access 436865
Core_0_ITLB_demand_hit 436865
Core_0_ITLB_demand_miss 0
Core_0_ITLB_demand_MPKI 0
Core_0_ITLB_demand_miss_rate 0
Core_0_ITLB_load_access 436865
Core_0_ITLB_load_hit 436865
Core_0_ITLB_load_miss 0
Core_0_ITLB_load_MPKI 0
Core_0_ITLB_load_miss_rate 0
Core_0_ITLB_rfo_access 0
Core_0_ITLB_rfo_hit 0
Core_0_ITLB_rfo_miss 0
Core_0_ITLB_rfo_MPKI 0
Core_0_ITLB_rfo_miss_rate 0
Core_0_ITLB_prefetch_access 0
Core_0_ITLB_prefetch_hit 0
Core_0_ITLB_prefetch_miss 0
Core_0_ITLB_prefetch_MPKI 0
Core_0_ITLB_prefetch_miss_rate 0
Core_0_ITLB_writeback_access 0
Core_0_ITLB_writeback_hit 0
Core_0_ITLB_writeback_miss 0
Core_0_ITLB_writeback_MPKI 0
Core_0_ITLB_writeback_miss_rate 0
Core_0_ITLB_prefetch_requested 0
Core_0_ITLB_prefetch_issued 0
Core_0_ITLB_prefetch_useful 0
Core_0_ITLB_prefetch_useless 0
Core_0_ITLB_prefetch_late 0
Core_0_ITLB_prefetch_accuracy 0
Core_0_ITLB_prefetch_coverage 0

Core_0_DTLB_total_access 14696487
Core_0_DTLB_total_hit 14540331
Core_0_DTLB_total_miss 156156
Core_0_DTLB_total_MPKI 3.12312
Core_0_DTLB_total_miss_rate 0.0106254
Core_0_DTLB_demand_access 14696487
Core_0_DTLB_demand_hit 14540331
Core_0_DTLB_demand_miss 156156
Core_0_DTLB_demand_MPKI 3.12312
Core_0_DTLB_demand_miss_rate 0.0106254
Core_0_DTLB_load_access 14696487
Core_0_DTLB_load_hit 14540331
Core_0_DTLB_load_miss 156156
Core_0_DTLB_load_MPKI 3.12312
Core_0_DTLB_load_miss_rate 0.0106254
Core_0_DTLB_rfo_access 0
Core_0_DTLB_rfo_hit 0
Core_0_DTLB_rfo_miss 0
Core_0_DTLB_rfo_MPKI 0
Core_0_DTLB_rfo_miss_rate 0
Core_0_DTLB_prefetch_access 0
Core_0_DTLB_prefetch_hit 0
Core_0_DTLB_prefetch_miss 0
Core_0_DTLB_prefetch_MPKI 0
Core_0_DTLB_prefetch_miss_rate 0
Core_0_DTLB_writeback_access 0
Core_0_DTLB_writeback_hit 0
Core_0_DTLB_writeback_miss 0
Core_0_DTLB_writeback_MPKI 0
Core_0_DTLB_writeback_miss_rate 0
Core_0_DTLB_prefetch_requested 0
Core_0_DTLB_prefetch_issued 0
Core_0_DTLB_prefetch_useful 0
Core_0_DTLB_prefetch_useless 0
Core_0_DTLB_prefetch_late 0
Core_0_DTLB_prefetch_accuracy 0
Core_0_DTLB_prefetch_coverage 0

Core_0_STLB_total_access 118986
Core_0_STLB_total_hit 118820
Core_0_STLB_total_miss 166
Core_0_STLB_total_MPKI 0.00332
Core_0_STLB_total_miss_rate 0.00139512
Core_0_STLB_demand_access 118986
Core_0_STLB_demand_hit 118820
Core_0_STLB_demand_miss 166
Core_0_STLB_demand_MPKI 0.00332
Core_0_STLB_demand_miss_rate 0.00139512
Core_0_STLB_load_access 118986
Core_0_STLB_load_hit 118820
Core_0_STLB_load_miss 166
Core_0_STLB_load_MPKI 0.00332
Core_0_STLB_load_miss_rate 0.00139512
Core_0_STLB_rfo_access 0
Core_0_STLB_rfo_hit 0
Core_0_STLB_rfo_miss 0
Core_0_STLB_rfo_MPKI 0
Core_0_STLB_rfo_miss_rate 0
Core_0_STLB_prefetch_access 0
Core_0_STLB_prefetch_hit 0
Core_0_STLB_prefetch_miss 0
Core_0_STLB_prefetch_MPKI 0
Core_0_STLB_prefetch_miss_rate 0
Core_0_STLB_writeback_access 0
Core_0_STLB_writeback_hit 0
Core_0_STLB_writeback_miss 0
Core_0_STLB_writeback_MPKI 0
Core_0_STLB_writeback_miss_rate 0
Core_0_STLB_prefetch_requested 0
Core_0_STLB_prefetch_issued 0
Core_0_STLB_prefetch_useful 0
Core_0_STLB_prefetch_useless 0
Core_0_STLB_prefetch_late 0
Core_0_STLB_prefetch_accuracy 0
Core_0_STLB_prefetch_coverage 0

Core_0_L1I_total_access 471728
Core_0_L1I_total_hit 471728
Core_0_L1I_total_miss 0
Core_0_L1I_total_MPKI 0
Core_0_L1I_total_miss_rate 0
Core_0_L1I_demand_access 471728
Core_0_L1I_demand_hit 471728
Core_0_L1I_demand_miss 0
Core_0_L1I_demand_MPKI 0
Core_0_L1I_demand_miss_rate 0
Core_0_L1I_load_access 471728
Core_0_L1I_load_hit 471728
Core_0_L1I_load_miss 0
Core_0_L1I_load_MPKI 0
Core_0_L1I_load_miss_rate 0
Core_0_L1I_rfo_access 0
Core_0_L1I_rfo_hit 0
Core_0_L1I_rfo_miss 0
Core_0_L1I_rfo_MPKI 0
Core_0_L1I_rfo_miss_rate 0
Core_0_L1I_prefetch_access 0
Core_0_L1I_prefetch_hit 0
Core_0_L1I_prefetch_miss 0
Core_0_L1I_prefetch_MPKI 0
Core_0_L1I_prefetch_miss_rate 0
Core_0_L1I_writeback_access 0
Core_0_L1I_writeback_hit 0
Core_0_L1I_writeback_miss 0
Core_0_L1I_writeback_MPKI 0
Core_0_L1I_writeback_miss_rate 0
Core_0_L1I_prefetch_requested 0
Core_0_L1I_prefetch_issued 0
Core_0_L1I_prefetch_useful 0
Core_0_L1I_prefetch_useless 0
Core_0_L1I_prefetch_late 0
Core_0_L1I_prefetch_accuracy 0
Core_0_L1I_prefetch_coverage 0

Core_0_L1D_total_access 15872097
Core_0_L1D_total_hit 14746802
Core_0_L1D_total_miss 1125295
Core_0_L1D_total_MPKI 22.5059
Core_0_L1D_total_miss_rate 0.0708977
Core_0_L1D_demand_access 10180144
Core_0_L1D_demand_hit 9678494
Core_0_L1D_demand_miss 501650
Core_0_L1D_demand_MPKI 10.033
Core_0_L1D_demand_miss_rate 0.0492773
Core_0_L1D_load_access 10180144
Core_0_L1D_load_hit 9678494
Core_0_L1D_load_miss 501650
Core_0_L1D_load_MPKI 10.033
Core_0_L1D_load_miss_rate 0.0492773
Core_0_L1D_rfo_access 0
Core_0_L1D_rfo_hit 0
Core_0_L1D_rfo_miss 0
Core_0_L1D_rfo_MPKI 0
Core_0_L1D_rfo_miss_rate 0
Core_0_L1D_prefetch_access 589199
Core_0_L1D_prefetch_hit 188306
Core_0_L1D_prefetch_miss 400893
Core_0_L1D_prefetch_MPKI 8.01786
Core_0_L1D_prefetch_miss_rate 0.680403
Core_0_L1D_writeback_access 5102754
Core_0_L1D_writeback_hit 4880002
Core_0_L1D_writeback_miss 222752
Core_0_L1D_writeback_MPKI 4.45504
Core_0_L1D_writeback_miss_rate 0.0436533
Core_0_L1D_prefetch_requested 640113
Core_0_L1D_prefetch_issued 589191
Core_0_L1D_prefetch_useful 259613
Core_0_L1D_prefetch_useless 109372
Core_0_L1D_prefetch_late 30063
Core_0_L1D_prefetch_accuracy 0.440626
Core_0_L1D_prefetch_coverage 0.341029

Core_0_L2C_total_access 3169160
Core_0_L2C_total_hit 2827017
Core_0_L2C_total_miss 342143
Core_0_L2C_total_MPKI 6.84286
Core_0_L2C_total_miss_rate 0.10796
Core_0_L2C_demand_access 541936
Core_0_L2C_demand_hit 374451
Core_0_L2C_demand_miss 167485
Core_0_L2C_demand_MPKI 3.3497
Core_0_L2C_demand_miss_rate 0.309049
Core_0_L2C_load_access 398115
Core_0_L2C_load_hit 353339
Core_0_L2C_load_miss 44776
Core_0_L2C_load_MPKI 0.89552
Core_0_L2C_load_miss_rate 0.11247
Core_0_L2C_rfo_access 143821
Core_0_L2C_rfo_hit 21112
Core_0_L2C_rfo_miss 122709
Core_0_L2C_rfo_MPKI 2.45418
Core_0_L2C_rfo_miss_rate 0.853206
Core_0_L2C_prefetch_access 2435339
Core_0_L2C_prefetch_hit 2260718
Core_0_L2C_prefetch_miss 174621
Core_0_L2C_prefetch_MPKI 3.49242
Core_0_L2C_prefetch_miss_rate 0.071703
Core_0_L2C_writeback_access 191885
Core_0_L2C_writeback_hit 191848
Core_0_L2C_writeback_miss 37
Core_0_L2C_writeback_MPKI 0.00074
Core_0_L2C_writeback_miss_rate 0.000192824
Core_0_L2C_prefetch_requested 2444440
Core_0_L2C_prefetch_issued 2066283
Core_0_L2C_prefetch_useful 70752
Core_0_L2C_prefetch_useless 43407
Core_0_L2C_prefetch_late 1994
Core_0_L2C_prefetch_accuracy 0.0342412
Core_0_L2C_prefetch_coverage 0.296982

Core_0_LLC_total_access 447994
Core_0_LLC_total_hit 416613
Core_0_LLC_total_miss 31381
Core_0_LLC_total_MPKI 0.62762
Core_0_LLC_total_miss_rate 0.0700478
Core_0_LLC_demand_access 165490
Core_0_LLC_demand_hit 145631
Core_0_LLC_demand_miss 19859
Core_0_LLC_demand_MPKI 0.39718
Core_0_LLC_demand_miss_rate 0.120001
Core_0_LLC_load_access 42784
Core_0_LLC_load_hit 41043
Core_0_LLC_load_miss 1741
Core_0_LLC_load_MPKI 0.03482
Core_0_LLC_load_miss_rate 0.0406928
Core_0_LLC_rfo_access 122706
Core_0_LLC_rfo_hit 104588
Core_0_LLC_rfo_miss 18118
Core_0_LLC_rfo_MPKI 0.36236
Core_0_LLC_rfo_miss_rate 0.147654
Core_0_LLC_prefetch_access 143953
Core_0_LLC_prefetch_hit 133952
Core_0_LLC_prefetch_miss 10001
Core_0_LLC_prefetch_MPKI 0.20002
Core_0_LLC_prefetch_miss_rate 0.0694741
Core_0_LLC_writeback_access 138551
Core_0_LLC_writeback_hit 137030
Core_0_LLC_writeback_miss 1521
Core_0_LLC_writeback_MPKI 0.03042
Core_0_LLC_writeback_miss_rate 0.0109779
Core_0_LLC_prefetch_requested 0
Core_0_LLC_prefetch_issued 0
Core_0_LLC_prefetch_useful 0
Core_0_LLC_prefetch_useless 0
Core_0_LLC_prefetch_late 0
Core_0_LLC_prefetch_accuracy 0
Core_0_LLC_prefetch_coverage 0

[DRAM Statistics]
Channel_0_RQ_row_buffer_hit 1973
Channel_0_RQ_row_buffer_miss 27543
Channel_0_WQ_row_buffer_hit 3579
Channel_0_WQ_row_buffer_miss 19786
Channel_0_WQ_full 0
Channel_0_dbus_congested 162772
DRAM_total_RQ_row_buffer_hit 1973
DRAM_total_RQ_row_buffer_miss 27543
DRAM_total_WQ_row_buffer_hit 3579
DRAM_total_WQ_row_buffer_miss 19786
DRAM_total_WQ_full 0
DRAM_total_dbus_congested 162772
DRAM_avg_congested_cycle 9.15213

======STLB miss causes ========
Core_0_STLB_miss_cause_breakdown
Core_0_STLB_cause_Demand_Data_miss 150
Core_0_STLB_cause_Demand_Data_miss_rate 0.00126065
Core_0_STLB_cause_Demand_Instruction_miss 0
Core_0_STLB_cause_Demand_Instruction_miss_rate 0
Core_0_STLB_cause_L1D_Prefetch_miss 16
Core_0_STLB_cause_L1D_Prefetch_miss_rate 0.00013447
Core_0_STLB_cause_L1I_Prefetch_miss 0
Core_0_STLB_cause_L1I_Prefetch_miss_rate 0
Core_0_STLB_cause_Other_miss 0
Core_0_STLB_cause_Other_miss_rate 0
Core_0_STLB_Demand_miss 150
Core_0_STLB_Demand_miss_rate 0.00126065
Core_0_STLB_L1D_Prefetch_miss 16
Core_0_STLB_L1D_Prefetch_miss_rate 0.00013447
Core_0_STLB_Other_miss 0
Core_0_STLB_Other_miss_rate 0
