[VMEM] WARNING: physical memory size is smaller than virtual memory size.

*** ChampSim Multicore Out-of-Order Simulator ***
Warmup Instructions: 20000000
Simulation Instructions: 50000000
Number of CPUs: 1
Page size: 4096
Core 0: /data0/tzh/champsim_traces/SPEC06/401.bzip2-277B.champsimtrace.xz
 L1D Berti prefetcher
Off-chip DRAM Size: 16 GiB Channels: 1 Width: 64-bit Data Rate: 3205 MT/s
Warmup halting CPU 0 at instruction 20000001 cycle 4206188 for remainder of phase
Warmup finished CPU 0 instructions: 20000001 cycles: 4206188 cumulative IPC: 4.755 (Simulation time: 00 hr 00 min 57 sec)
Warmup complete CPU 0 instructions: 20000001 cycles: 4206188 cumulative IPC: 4.755 (Simulation time: 00 hr 00 min 57 sec)
Simulation finished CPU 0 instructions: 50000005 cycles: 36213537 cumulative IPC: 1.381 (Simulation time: 00 hr 04 min 58 sec)
Simulation complete CPU 0 instructions: 50000005 cycles: 36213537 cumulative IPC: 1.381 (Simulation time: 00 hr 04 min 58 sec)

ChampSim completed all CPUs

=== Simulation ===
CPU 0 runs /data0/tzh/champsim_traces/SPEC06/401.bzip2-277B.champsimtrace.xz

Region of Interest Statistics

CPU 0 cumulative IPC: 1.381 instructions: 50000005 cycles: 36213537
CPU 0 Branch Prediction Accuracy: 91.94% MPKI: 12.74 Average ROB Occupancy at Mispredict: 34.22
Branch type MPKI
BRANCH_DIRECT_JUMP: 0.04232
BRANCH_INDIRECT: 0.00032
BRANCH_CONDITIONAL: 12.7
BRANCH_DIRECT_CALL: 0
BRANCH_INDIRECT_CALL: 0
BRANCH_RETURN: 0

cpu0->cpu0_STLB TOTAL        ACCESS:       9113 HIT:       9080 MISS:         33 MSHR_MERGE:          0
cpu0->cpu0_STLB LOAD         ACCESS:       9113 HIT:       9080 MISS:         33 MSHR_MERGE:          0
cpu0->cpu0_STLB RFO          ACCESS:          0 HIT:          0 MISS:          0 MSHR_MERGE:          0
cpu0->cpu0_STLB PREFETCH     ACCESS:          0 HIT:          0 MISS:          0 MSHR_MERGE:          0
cpu0->cpu0_STLB WRITE        ACCESS:          0 HIT:          0 MISS:          0 MSHR_MERGE:          0
cpu0->cpu0_STLB TRANSLATION  ACCESS:          0 HIT:          0 MISS:          0 MSHR_MERGE:          0
cpu0->cpu0_STLB PREFETCH REQUESTED:          0 ISSUED:          0 USEFUL:          0 USELESS:          0 LATE:          0
cpu0->cpu0_STLB AVERAGE MISS LATENCY: 276.2 cycles
cpu0->cpu0_L2C TOTAL        ACCESS:     611454 HIT:     406205 MISS:     205249 MSHR_MERGE:      87231
cpu0->cpu0_L2C LOAD         ACCESS:      29889 HIT:      25699 MISS:       4190 MSHR_MERGE:        908
cpu0->cpu0_L2C RFO          ACCESS:      44609 HIT:       2066 MISS:      42543 MSHR_MERGE:          0
cpu0->cpu0_L2C PREFETCH     ACCESS:     444339 HIT:     285865 MISS:     158474 MSHR_MERGE:      86323
cpu0->cpu0_L2C WRITE        ACCESS:      92590 HIT:      92555 MISS:         35 MSHR_MERGE:          0
cpu0->cpu0_L2C TRANSLATION  ACCESS:         27 HIT:         20 MISS:          7 MSHR_MERGE:          0
cpu0->cpu0_L2C PREFETCH REQUESTED:     390777 ISSUED:     376812 USEFUL:      62378 USELESS:       7096 LATE:        908
cpu0->cpu0_L2C AVERAGE MISS LATENCY: 100.7 cycles
cpu0->cpu0_L1I TOTAL        ACCESS:    1509184 HIT:    1509177 MISS:          7 MSHR_MERGE:          0
cpu0->cpu0_L1I LOAD         ACCESS:    1509184 HIT:    1509177 MISS:          7 MSHR_MERGE:          0
cpu0->cpu0_L1I RFO          ACCESS:          0 HIT:          0 MISS:          0 MSHR_MERGE:          0
cpu0->cpu0_L1I PREFETCH     ACCESS:          0 HIT:          0 MISS:          0 MSHR_MERGE:          0
cpu0->cpu0_L1I WRITE        ACCESS:          0 HIT:          0 MISS:          0 MSHR_MERGE:          0
cpu0->cpu0_L1I TRANSLATION  ACCESS:          0 HIT:          0 MISS:          0 MSHR_MERGE:          0
cpu0->cpu0_L1I PREFETCH REQUESTED:          0 ISSUED:          0 USEFUL:          0 USELESS:          0 LATE:          0
cpu0->cpu0_L1I AVERAGE MISS LATENCY: 231.7 cycles
cpu0->cpu0_L1D TOTAL        ACCESS:   14831434 HIT:   14353602 MISS:     477832 MSHR_MERGE:     335787
cpu0->cpu0_L1D LOAD         ACCESS:    8519950 HIT:    8457911 MISS:      62039 MSHR_MERGE:      32157
cpu0->cpu0_L1D RFO          ACCESS:          0 HIT:          0 MISS:          0 MSHR_MERGE:          0
cpu0->cpu0_L1D PREFETCH     ACCESS:      92005 HIT:      22505 MISS:      69500 MSHR_MERGE:       1973
cpu0->cpu0_L1D WRITE        ACCESS:    6219413 HIT:    5873147 MISS:     346266 MSHR_MERGE:     301657
cpu0->cpu0_L1D TRANSLATION  ACCESS:         66 HIT:         39 MISS:         27 MSHR_MERGE:          0
cpu0->cpu0_L1D PREFETCH REQUESTED:      98163 ISSUED:      92005 USEFUL:      64078 USELESS:       3368 LATE:       2948
cpu0->cpu0_L1D AVERAGE MISS LATENCY: 73.16 cycles
cpu0->cpu0_ITLB TOTAL        ACCESS:    1466755 HIT:    1466755 MISS:          0 MSHR_MERGE:          0
cpu0->cpu0_ITLB LOAD         ACCESS:    1466755 HIT:    1466755 MISS:          0 MSHR_MERGE:          0
cpu0->cpu0_ITLB RFO          ACCESS:          0 HIT:          0 MISS:          0 MSHR_MERGE:          0
cpu0->cpu0_ITLB PREFETCH     ACCESS:          0 HIT:          0 MISS:          0 MSHR_MERGE:          0
cpu0->cpu0_ITLB WRITE        ACCESS:          0 HIT:          0 MISS:          0 MSHR_MERGE:          0
cpu0->cpu0_ITLB TRANSLATION  ACCESS:          0 HIT:          0 MISS:          0 MSHR_MERGE:          0
cpu0->cpu0_ITLB PREFETCH REQUESTED:          0 ISSUED:          0 USEFUL:          0 USELESS:          0 LATE:          0
cpu0->cpu0_ITLB AVERAGE MISS LATENCY: - cycles
cpu0->cpu0_DTLB TOTAL        ACCESS:   14081631 HIT:   14070888 MISS:      10743 MSHR_MERGE:       1630
cpu0->cpu0_DTLB LOAD         ACCESS:   14081631 HIT:   14070888 MISS:      10743 MSHR_MERGE:       1630
cpu0->cpu0_DTLB RFO          ACCESS:          0 HIT:          0 MISS:          0 MSHR_MERGE:          0
cpu0->cpu0_DTLB PREFETCH     ACCESS:          0 HIT:          0 MISS:          0 MSHR_MERGE:          0
cpu0->cpu0_DTLB WRITE        ACCESS:          0 HIT:          0 MISS:          0 MSHR_MERGE:          0
cpu0->cpu0_DTLB TRANSLATION  ACCESS:          0 HIT:          0 MISS:          0 MSHR_MERGE:          0
cpu0->cpu0_DTLB PREFETCH REQUESTED:          0 ISSUED:          0 USEFUL:          0 USELESS:          0 LATE:          0
cpu0->cpu0_DTLB AVERAGE MISS LATENCY: 6.005 cycles
cpu0->LLC TOTAL        ACCESS:     202641 HIT:     115911 MISS:      86730 MSHR_MERGE:          0
cpu0->LLC LOAD         ACCESS:       3282 HIT:       2072 MISS:       1210 MSHR_MERGE:          0
cpu0->LLC RFO          ACCESS:      42543 HIT:      20517 MISS:      22026 MSHR_MERGE:          0
cpu0->LLC PREFETCH     ACCESS:      72151 HIT:      34120 MISS:      38031 MSHR_MERGE:          0
cpu0->LLC WRITE        ACCESS:      84658 HIT:      59202 MISS:      25456 MSHR_MERGE:          0
cpu0->LLC TRANSLATION  ACCESS:          7 HIT:          0 MISS:          7 MSHR_MERGE:          0
cpu0->LLC PREFETCH REQUESTED:          0 ISSUED:          0 USEFUL:          0 USELESS:          0 LATE:          0
cpu0->LLC AVERAGE MISS LATENCY: 83.93 cycles

DRAM Statistics

Channel 0 RQ ROW_BUFFER_HIT:       3187
  ROW_BUFFER_MISS:      58020
  AVG DBUS CONGESTED CYCLE: 7.626
Channel 0 WQ ROW_BUFFER_HIT:       5241
  ROW_BUFFER_MISS:      32479
  FULL:        126
Channel 0 REFRESHES ISSUED:       3018

[ROI Statistics]
[System Configuration]
num_cpus 1
cpu_freq 4000
fetch_width 6
decode_width 6
dispatch_width 6
execute_width 6
lq_width 2
sq_width 2
retire_width 6
scheduler_size 128
branch_mispredict_penalty 15
rob_size 352
lq_size 128
sq_size 72
ifetch_buffer_size 64
decode_buffer_size 32
dispatch_buffer_size 32
register_file_size 288
decode_latency 1
dispatch_latency 1
schedule_latency 1
execute_latency 1
page_size 4096
block_size 64
core_0_itlb_set 16
core_0_itlb_way 4
core_0_itlb_rq_size 16
core_0_itlb_wq_size 16
core_0_itlb_pq_size 0
core_0_itlb_mshr_size 8
core_0_itlb_hit_latency 1
core_0_itlb_fill_latency 1
core_0_itlb_max_tag_check 2
core_0_itlb_max_fill 2
core_0_dtlb_set 16
core_0_dtlb_way 4
core_0_dtlb_rq_size 16
core_0_dtlb_wq_size 16
core_0_dtlb_pq_size 0
core_0_dtlb_mshr_size 8
core_0_dtlb_hit_latency 1
core_0_dtlb_fill_latency 1
core_0_dtlb_max_tag_check 2
core_0_dtlb_max_fill 2
core_0_stlb_set 128
core_0_stlb_way 12
core_0_stlb_rq_size 32
core_0_stlb_wq_size 32
core_0_stlb_pq_size 0
core_0_stlb_mshr_size 16
core_0_stlb_hit_latency 4
core_0_stlb_fill_latency 4
core_0_stlb_max_tag_check 1
core_0_stlb_max_fill 1
core_0_l1i_set 64
core_0_l1i_way 8
core_0_l1i_rq_size 64
core_0_l1i_wq_size 64
core_0_l1i_pq_size 32
core_0_l1i_mshr_size 8
core_0_l1i_hit_latency 2
core_0_l1i_fill_latency 2
core_0_l1i_max_tag_check 2
core_0_l1i_max_fill 2
core_0_l1d_set 64
core_0_l1d_way 12
core_0_l1d_rq_size 64
core_0_l1d_wq_size 64
core_0_l1d_pq_size 8
core_0_l1d_mshr_size 16
core_0_l1d_hit_latency 2
core_0_l1d_fill_latency 3
core_0_l1d_max_tag_check 2
core_0_l1d_max_fill 2
core_0_l2c_set 1024
core_0_l2c_way 8
core_0_l2c_rq_size 32
core_0_l2c_wq_size 32
core_0_l2c_pq_size 16
core_0_l2c_mshr_size 32
core_0_l2c_hit_latency 5
core_0_l2c_fill_latency 5
core_0_l2c_max_tag_check 1
core_0_l2c_max_fill 1
llc_set 2048
llc_way 16
llc_rq_size 32
llc_wq_size 32
llc_pq_size 32
llc_mshr_size 64
llc_hit_latency 10
llc_fill_latency 10
llc_max_tag_check 1
llc_max_fill 1
dram_channels 1
dram_ranks 1
dram_bankgroups 8
dram_banks 4
dram_rows 65536
dram_columns 1024
dram_channel_width 8
dram_rq_size 64
dram_wq_size 64
dram_size 17179869184
core_0_itlb_prefetcher no
core_0_dtlb_prefetcher no
core_0_stlb_prefetcher no
core_0_l1i_prefetcher next_line
core_0_l1d_prefetcher berti
core_0_l2c_prefetcher pythia
llc_prefetcher no
llc_replacement drrip

Core_0_instructions 50000005
Core_0_cycles 36213537
Core_0_IPC 1.3807
Core_0_branch_prediction_accuracy 91.9417
Core_0_branch_MPKI 12.7384
Core_0_average_ROB_occupancy_at_mispredict 34.2194

Core_0_ITLB_total_access 1466755
Core_0_ITLB_total_hit 1466755
Core_0_ITLB_total_miss 0
Core_0_ITLB_total_MPKI 0
Core_0_ITLB_total_miss_rate 0
Core_0_ITLB_demand_access 1466755
Core_0_ITLB_demand_hit 1466755
Core_0_ITLB_demand_miss 0
Core_0_ITLB_demand_MPKI 0
Core_0_ITLB_demand_miss_rate 0
Core_0_ITLB_load_access 1466755
Core_0_ITLB_load_hit 1466755
Core_0_ITLB_load_miss 0
Core_0_ITLB_load_MPKI 0
Core_0_ITLB_load_miss_rate 0
Core_0_ITLB_rfo_access 0
Core_0_ITLB_rfo_hit 0
Core_0_ITLB_rfo_miss 0
Core_0_ITLB_rfo_MPKI 0
Core_0_ITLB_rfo_miss_rate 0
Core_0_ITLB_prefetch_access 0
Core_0_ITLB_prefetch_hit 0
Core_0_ITLB_prefetch_miss 0
Core_0_ITLB_prefetch_MPKI 0
Core_0_ITLB_prefetch_miss_rate 0
Core_0_ITLB_writeback_access 0
Core_0_ITLB_writeback_hit 0
Core_0_ITLB_writeback_miss 0
Core_0_ITLB_writeback_MPKI 0
Core_0_ITLB_writeback_miss_rate 0
Core_0_ITLB_prefetch_requested 0
Core_0_ITLB_prefetch_issued 0
Core_0_ITLB_prefetch_useful 0
Core_0_ITLB_prefetch_useless 0
Core_0_ITLB_prefetch_late 0
Core_0_ITLB_prefetch_accuracy 0
Core_0_ITLB_prefetch_coverage 0

Core_0_DTLB_total_access 14081631
Core_0_DTLB_total_hit 14070888
Core_0_DTLB_total_miss 10743
Core_0_DTLB_total_MPKI 0.21486
Core_0_DTLB_total_miss_rate 0.000762909
Core_0_DTLB_demand_access 14081631
Core_0_DTLB_demand_hit 14070888
Core_0_DTLB_demand_miss 10743
Core_0_DTLB_demand_MPKI 0.21486
Core_0_DTLB_demand_miss_rate 0.000762909
Core_0_DTLB_load_access 14081631
Core_0_DTLB_load_hit 14070888
Core_0_DTLB_load_miss 10743
Core_0_DTLB_load_MPKI 0.21486
Core_0_DTLB_load_miss_rate 0.000762909
Core_0_DTLB_rfo_access 0
Core_0_DTLB_rfo_hit 0
Core_0_DTLB_rfo_miss 0
Core_0_DTLB_rfo_MPKI 0
Core_0_DTLB_rfo_miss_rate 0
Core_0_DTLB_prefetch_access 0
Core_0_DTLB_prefetch_hit 0
Core_0_DTLB_prefetch_miss 0
Core_0_DTLB_prefetch_MPKI 0
Core_0_DTLB_prefetch_miss_rate 0
Core_0_DTLB_writeback_access 0
Core_0_DTLB_writeback_hit 0
Core_0_DTLB_writeback_miss 0
Core_0_DTLB_writeback_MPKI 0
Core_0_DTLB_writeback_miss_rate 0
Core_0_DTLB_prefetch_requested 0
Core_0_DTLB_prefetch_issued 0
Core_0_DTLB_prefetch_useful 0
Core_0_DTLB_prefetch_useless 0
Core_0_DTLB_prefetch_late 0
Core_0_DTLB_prefetch_accuracy 0
Core_0_DTLB_prefetch_coverage 0

Core_0_STLB_total_access 9113
Core_0_STLB_total_hit 9080
Core_0_STLB_total_miss 33
Core_0_STLB_total_MPKI 0.00066
Core_0_STLB_total_miss_rate 0.0036212
Core_0_STLB_demand_access 9113
Core_0_STLB_demand_hit 9080
Core_0_STLB_demand_miss 33
Core_0_STLB_demand_MPKI 0.00066
Core_0_STLB_demand_miss_rate 0.0036212
Core_0_STLB_load_access 9113
Core_0_STLB_load_hit 9080
Core_0_STLB_load_miss 33
Core_0_STLB_load_MPKI 0.00066
Core_0_STLB_load_miss_rate 0.0036212
Core_0_STLB_rfo_access 0
Core_0_STLB_rfo_hit 0
Core_0_STLB_rfo_miss 0
Core_0_STLB_rfo_MPKI 0
Core_0_STLB_rfo_miss_rate 0
Core_0_STLB_prefetch_access 0
Core_0_STLB_prefetch_hit 0
Core_0_STLB_prefetch_miss 0
Core_0_STLB_prefetch_MPKI 0
Core_0_STLB_prefetch_miss_rate 0
Core_0_STLB_writeback_access 0
Core_0_STLB_writeback_hit 0
Core_0_STLB_writeback_miss 0
Core_0_STLB_writeback_MPKI 0
Core_0_STLB_writeback_miss_rate 0
Core_0_STLB_prefetch_requested 0
Core_0_STLB_prefetch_issued 0
Core_0_STLB_prefetch_useful 0
Core_0_STLB_prefetch_useless 0
Core_0_STLB_prefetch_late 0
Core_0_STLB_prefetch_accuracy 0
Core_0_STLB_prefetch_coverage 0

Core_0_L1I_total_access 1509184
Core_0_L1I_total_hit 1509177
Core_0_L1I_total_miss 7
Core_0_L1I_total_MPKI 0.00014
Core_0_L1I_total_miss_rate 4.63827e-06
Core_0_L1I_demand_access 1509184
Core_0_L1I_demand_hit 1509177
Core_0_L1I_demand_miss 7
Core_0_L1I_demand_MPKI 0.00014
Core_0_L1I_demand_miss_rate 4.63827e-06
Core_0_L1I_load_access 1509184
Core_0_L1I_load_hit 1509177
Core_0_L1I_load_miss 7
Core_0_L1I_load_MPKI 0.00014
Core_0_L1I_load_miss_rate 4.63827e-06
Core_0_L1I_rfo_access 0
Core_0_L1I_rfo_hit 0
Core_0_L1I_rfo_miss 0
Core_0_L1I_rfo_MPKI 0
Core_0_L1I_rfo_miss_rate 0
Core_0_L1I_prefetch_access 0
Core_0_L1I_prefetch_hit 0
Core_0_L1I_prefetch_miss 0
Core_0_L1I_prefetch_MPKI 0
Core_0_L1I_prefetch_miss_rate 0
Core_0_L1I_writeback_access 0
Core_0_L1I_writeback_hit 0
Core_0_L1I_writeback_miss 0
Core_0_L1I_writeback_MPKI 0
Core_0_L1I_writeback_miss_rate 0
Core_0_L1I_prefetch_requested 0
Core_0_L1I_prefetch_issued 0
Core_0_L1I_prefetch_useful 0
Core_0_L1I_prefetch_useless 0
Core_0_L1I_prefetch_late 0
Core_0_L1I_prefetch_accuracy 0
Core_0_L1I_prefetch_coverage 0

Core_0_L1D_total_access 14831368
Core_0_L1D_total_hit 14353563
Core_0_L1D_total_miss 477805
Core_0_L1D_total_MPKI 9.5561
Core_0_L1D_total_miss_rate 0.0322158
Core_0_L1D_demand_access 8519950
Core_0_L1D_demand_hit 8457911
Core_0_L1D_demand_miss 62039
Core_0_L1D_demand_MPKI 1.24078
Core_0_L1D_demand_miss_rate 0.00728162
Core_0_L1D_load_access 8519950
Core_0_L1D_load_hit 8457911
Core_0_L1D_load_miss 62039
Core_0_L1D_load_MPKI 1.24078
Core_0_L1D_load_miss_rate 0.00728162
Core_0_L1D_rfo_access 0
Core_0_L1D_rfo_hit 0
Core_0_L1D_rfo_miss 0
Core_0_L1D_rfo_MPKI 0
Core_0_L1D_rfo_miss_rate 0
Core_0_L1D_prefetch_access 92005
Core_0_L1D_prefetch_hit 22505
Core_0_L1D_prefetch_miss 69500
Core_0_L1D_prefetch_MPKI 1.39
Core_0_L1D_prefetch_miss_rate 0.755394
Core_0_L1D_writeback_access 6219413
Core_0_L1D_writeback_hit 5873147
Core_0_L1D_writeback_miss 346266
Core_0_L1D_writeback_MPKI 6.92532
Core_0_L1D_writeback_miss_rate 0.055675
Core_0_L1D_prefetch_requested 98163
Core_0_L1D_prefetch_issued 92005
Core_0_L1D_prefetch_useful 64078
Core_0_L1D_prefetch_useless 3368
Core_0_L1D_prefetch_late 2948
Core_0_L1D_prefetch_accuracy 0.696462
Core_0_L1D_prefetch_coverage 0.508084

Core_0_L2C_total_access 611427
Core_0_L2C_total_hit 406185
Core_0_L2C_total_miss 205242
Core_0_L2C_total_MPKI 4.10484
Core_0_L2C_total_miss_rate 0.335677
Core_0_L2C_demand_access 74498
Core_0_L2C_demand_hit 27765
Core_0_L2C_demand_miss 46733
Core_0_L2C_demand_MPKI 0.93466
Core_0_L2C_demand_miss_rate 0.627305
Core_0_L2C_load_access 29889
Core_0_L2C_load_hit 25699
Core_0_L2C_load_miss 4190
Core_0_L2C_load_MPKI 0.0838
Core_0_L2C_load_miss_rate 0.140185
Core_0_L2C_rfo_access 44609
Core_0_L2C_rfo_hit 2066
Core_0_L2C_rfo_miss 42543
Core_0_L2C_rfo_MPKI 0.85086
Core_0_L2C_rfo_miss_rate 0.953686
Core_0_L2C_prefetch_access 444339
Core_0_L2C_prefetch_hit 285865
Core_0_L2C_prefetch_miss 158474
Core_0_L2C_prefetch_MPKI 3.16948
Core_0_L2C_prefetch_miss_rate 0.356651
Core_0_L2C_writeback_access 92590
Core_0_L2C_writeback_hit 92555
Core_0_L2C_writeback_miss 35
Core_0_L2C_writeback_MPKI 0.0007
Core_0_L2C_writeback_miss_rate 0.000378011
Core_0_L2C_prefetch_requested 390777
Core_0_L2C_prefetch_issued 376812
Core_0_L2C_prefetch_useful 62378
Core_0_L2C_prefetch_useless 7096
Core_0_L2C_prefetch_late 908
Core_0_L2C_prefetch_accuracy 0.165541
Core_0_L2C_prefetch_coverage 0.571693

Core_0_LLC_total_access 202634
Core_0_LLC_total_hit 115911
Core_0_LLC_total_miss 86723
Core_0_LLC_total_MPKI 1.73446
Core_0_LLC_total_miss_rate 0.427979
Core_0_LLC_demand_access 45825
Core_0_LLC_demand_hit 22589
Core_0_LLC_demand_miss 23236
Core_0_LLC_demand_MPKI 0.46472
Core_0_LLC_demand_miss_rate 0.507059
Core_0_LLC_load_access 3282
Core_0_LLC_load_hit 2072
Core_0_LLC_load_miss 1210
Core_0_LLC_load_MPKI 0.0242
Core_0_LLC_load_miss_rate 0.368678
Core_0_LLC_rfo_access 42543
Core_0_LLC_rfo_hit 20517
Core_0_LLC_rfo_miss 22026
Core_0_LLC_rfo_MPKI 0.44052
Core_0_LLC_rfo_miss_rate 0.517735
Core_0_LLC_prefetch_access 72151
Core_0_LLC_prefetch_hit 34120
Core_0_LLC_prefetch_miss 38031
Core_0_LLC_prefetch_MPKI 0.76062
Core_0_LLC_prefetch_miss_rate 0.527103
Core_0_LLC_writeback_access 84658
Core_0_LLC_writeback_hit 59202
Core_0_LLC_writeback_miss 25456
Core_0_LLC_writeback_MPKI 0.50912
Core_0_LLC_writeback_miss_rate 0.300692
Core_0_LLC_prefetch_requested 0
Core_0_LLC_prefetch_issued 0
Core_0_LLC_prefetch_useful 0
Core_0_LLC_prefetch_useless 0
Core_0_LLC_prefetch_late 0
Core_0_LLC_prefetch_accuracy 0
Core_0_LLC_prefetch_coverage 0

[DRAM Statistics]
Channel_0_RQ_row_buffer_hit 3187
Channel_0_RQ_row_buffer_miss 58020
Channel_0_WQ_row_buffer_hit 5241
Channel_0_WQ_row_buffer_miss 32479
Channel_0_WQ_full 126
Channel_0_dbus_congested 219839
DRAM_total_RQ_row_buffer_hit 3187
DRAM_total_RQ_row_buffer_miss 58020
DRAM_total_WQ_row_buffer_hit 5241
DRAM_total_WQ_row_buffer_miss 32479
DRAM_total_WQ_full 126
DRAM_total_dbus_congested 219839
DRAM_avg_congested_cycle 7.62573

======STLB miss causes ========
Core_0_STLB_miss_cause_breakdown
Core_0_STLB_cause_Demand_Data_miss 7
Core_0_STLB_cause_Demand_Data_miss_rate 0.000768133
Core_0_STLB_cause_Demand_Instruction_miss 0
Core_0_STLB_cause_Demand_Instruction_miss_rate 0
Core_0_STLB_cause_L1D_Prefetch_miss 26
Core_0_STLB_cause_L1D_Prefetch_miss_rate 0.00285307
Core_0_STLB_cause_L1I_Prefetch_miss 0
Core_0_STLB_cause_L1I_Prefetch_miss_rate 0
Core_0_STLB_cause_Other_miss 0
Core_0_STLB_cause_Other_miss_rate 0
Core_0_STLB_Demand_miss 7
Core_0_STLB_Demand_miss_rate 0.000768133
Core_0_STLB_L1D_Prefetch_miss 26
Core_0_STLB_L1D_Prefetch_miss_rate 0.00285307
Core_0_STLB_Other_miss 0
Core_0_STLB_Other_miss_rate 0
