[VMEM] WARNING: physical memory size is smaller than virtual memory size.

*** ChampSim Multicore Out-of-Order Simulator ***
Warmup Instructions: 20000000
Simulation Instructions: 50000000
Number of CPUs: 1
Page size: 4096
Core 0: /data0/tzh/champsim_traces/SPEC06/403.gcc-48B.champsimtrace.xz
 L1D Berti prefetcher
Off-chip DRAM Size: 16 GiB Channels: 1 Width: 64-bit Data Rate: 3205 MT/s
Warmup halting CPU 0 at instruction 20000005 cycle 4538538 for remainder of phase
Warmup finished CPU 0 instructions: 20000005 cycles: 4538538 cumulative IPC: 4.407 (Simulation time: 00 hr 00 min 59 sec)
Warmup complete CPU 0 instructions: 20000005 cycles: 4538538 cumulative IPC: 4.407 (Simulation time: 00 hr 00 min 59 sec)
Simulation finished CPU 0 instructions: 50000000 cycles: 16030611 cumulative IPC: 3.119 (Simulation time: 00 hr 04 min 46 sec)
Simulation complete CPU 0 instructions: 50000000 cycles: 16030611 cumulative IPC: 3.119 (Simulation time: 00 hr 04 min 46 sec)

ChampSim completed all CPUs

=== Simulation ===
CPU 0 runs /data0/tzh/champsim_traces/SPEC06/403.gcc-48B.champsimtrace.xz

Region of Interest Statistics

CPU 0 cumulative IPC: 3.119 instructions: 50000000 cycles: 16030611
CPU 0 Branch Prediction Accuracy: 99.88% MPKI: 0.2652 Average ROB Occupancy at Mispredict: 163.8
Branch type MPKI
BRANCH_DIRECT_JUMP: 0.0004
BRANCH_INDIRECT: 2e-05
BRANCH_CONDITIONAL: 0.2576
BRANCH_DIRECT_CALL: 0.00362
BRANCH_INDIRECT_CALL: 4e-05
BRANCH_RETURN: 0.00356

cpu0->cpu0_STLB TOTAL        ACCESS:       9956 HIT:       8884 MISS:       1072 MSHR_MERGE:          0
cpu0->cpu0_STLB LOAD         ACCESS:       9956 HIT:       8884 MISS:       1072 MSHR_MERGE:          0
cpu0->cpu0_STLB RFO          ACCESS:          0 HIT:          0 MISS:          0 MSHR_MERGE:          0
cpu0->cpu0_STLB PREFETCH     ACCESS:          0 HIT:          0 MISS:          0 MSHR_MERGE:          0
cpu0->cpu0_STLB WRITE        ACCESS:          0 HIT:          0 MISS:          0 MSHR_MERGE:          0
cpu0->cpu0_STLB TRANSLATION  ACCESS:          0 HIT:          0 MISS:          0 MSHR_MERGE:          0
cpu0->cpu0_STLB PREFETCH REQUESTED:          0 ISSUED:          0 USEFUL:          0 USELESS:          0 LATE:          0
cpu0->cpu0_STLB AVERAGE MISS LATENCY: 225.2 cycles
cpu0->cpu0_L2C TOTAL        ACCESS:     117255 HIT:      98263 MISS:      18992 MSHR_MERGE:        608
cpu0->cpu0_L2C LOAD         ACCESS:      38178 HIT:      33205 MISS:       4973 MSHR_MERGE:         64
cpu0->cpu0_L2C RFO          ACCESS:       1712 HIT:        211 MISS:       1501 MSHR_MERGE:          0
cpu0->cpu0_L2C PREFETCH     ACCESS:      71429 HIT:      59261 MISS:      12168 MSHR_MERGE:        544
cpu0->cpu0_L2C WRITE        ACCESS:       4963 HIT:       4961 MISS:          2 MSHR_MERGE:          0
cpu0->cpu0_L2C TRANSLATION  ACCESS:        973 HIT:        625 MISS:        348 MSHR_MERGE:          0
cpu0->cpu0_L2C PREFETCH REQUESTED:      41927 ISSUED:      41927 USEFUL:       5535 USELESS:       4427 LATE:         64
cpu0->cpu0_L2C AVERAGE MISS LATENCY: 177 cycles
cpu0->cpu0_L1I TOTAL        ACCESS:   10935903 HIT:   10935902 MISS:          1 MSHR_MERGE:          0
cpu0->cpu0_L1I LOAD         ACCESS:   10935903 HIT:   10935902 MISS:          1 MSHR_MERGE:          0
cpu0->cpu0_L1I RFO          ACCESS:          0 HIT:          0 MISS:          0 MSHR_MERGE:          0
cpu0->cpu0_L1I PREFETCH     ACCESS:          0 HIT:          0 MISS:          0 MSHR_MERGE:          0
cpu0->cpu0_L1I WRITE        ACCESS:          0 HIT:          0 MISS:          0 MSHR_MERGE:          0
cpu0->cpu0_L1I TRANSLATION  ACCESS:          0 HIT:          0 MISS:          0 MSHR_MERGE:          0
cpu0->cpu0_L1I PREFETCH REQUESTED:          0 ISSUED:          0 USEFUL:          0 USELESS:          0 LATE:          0
cpu0->cpu0_L1I AVERAGE MISS LATENCY: 164 cycles
cpu0->cpu0_L1D TOTAL        ACCESS:   14411065 HIT:   14323419 MISS:      87646 MSHR_MERGE:      17278
cpu0->cpu0_L1D LOAD         ACCESS:    5123143 HIT:    5077310 MISS:      45833 MSHR_MERGE:       7655
cpu0->cpu0_L1D RFO          ACCESS:          0 HIT:          0 MISS:          0 MSHR_MERGE:          0
cpu0->cpu0_L1D PREFETCH     ACCESS:     305532 HIT:     273034 MISS:      32498 MSHR_MERGE:       2996
cpu0->cpu0_L1D WRITE        ACCESS:    8980246 HIT:    8971904 MISS:       8342 MSHR_MERGE:       6627
cpu0->cpu0_L1D TRANSLATION  ACCESS:       2144 HIT:       1171 MISS:        973 MSHR_MERGE:          0
cpu0->cpu0_L1D PREFETCH REQUESTED:     402914 ISSUED:     305526 USEFUL:      18808 USELESS:      10613 LATE:       1876
cpu0->cpu0_L1D AVERAGE MISS LATENCY: 36.42 cycles
cpu0->cpu0_ITLB TOTAL        ACCESS:    9885433 HIT:    9885433 MISS:          0 MSHR_MERGE:          0
cpu0->cpu0_ITLB LOAD         ACCESS:    9885433 HIT:    9885433 MISS:          0 MSHR_MERGE:          0
cpu0->cpu0_ITLB RFO          ACCESS:          0 HIT:          0 MISS:          0 MSHR_MERGE:          0
cpu0->cpu0_ITLB PREFETCH     ACCESS:          0 HIT:          0 MISS:          0 MSHR_MERGE:          0
cpu0->cpu0_ITLB WRITE        ACCESS:          0 HIT:          0 MISS:          0 MSHR_MERGE:          0
cpu0->cpu0_ITLB TRANSLATION  ACCESS:          0 HIT:          0 MISS:          0 MSHR_MERGE:          0
cpu0->cpu0_ITLB PREFETCH REQUESTED:          0 ISSUED:          0 USEFUL:          0 USELESS:          0 LATE:          0
cpu0->cpu0_ITLB AVERAGE MISS LATENCY: - cycles
cpu0->cpu0_DTLB TOTAL        ACCESS:   12825319 HIT:   12812810 MISS:      12509 MSHR_MERGE:       2553
cpu0->cpu0_DTLB LOAD         ACCESS:   12825319 HIT:   12812810 MISS:      12509 MSHR_MERGE:       2553
cpu0->cpu0_DTLB RFO          ACCESS:          0 HIT:          0 MISS:          0 MSHR_MERGE:          0
cpu0->cpu0_DTLB PREFETCH     ACCESS:          0 HIT:          0 MISS:          0 MSHR_MERGE:          0
cpu0->cpu0_DTLB WRITE        ACCESS:          0 HIT:          0 MISS:          0 MSHR_MERGE:          0
cpu0->cpu0_DTLB TRANSLATION  ACCESS:          0 HIT:          0 MISS:          0 MSHR_MERGE:          0
cpu0->cpu0_DTLB PREFETCH REQUESTED:          0 ISSUED:          0 USEFUL:          0 USELESS:          0 LATE:          0
cpu0->cpu0_DTLB AVERAGE MISS LATENCY: 29.35 cycles
cpu0->LLC TOTAL        ACCESS:      21702 HIT:       4786 MISS:      16916 MSHR_MERGE:          0
cpu0->LLC LOAD         ACCESS:       4909 HIT:        126 MISS:       4783 MSHR_MERGE:          0
cpu0->LLC RFO          ACCESS:       1501 HIT:          0 MISS:       1501 MSHR_MERGE:          0
cpu0->LLC PREFETCH     ACCESS:      11624 HIT:       1079 MISS:      10545 MSHR_MERGE:          0
cpu0->LLC WRITE        ACCESS:       3320 HIT:       3302 MISS:         18 MSHR_MERGE:          0
cpu0->LLC TRANSLATION  ACCESS:        348 HIT:        279 MISS:         69 MSHR_MERGE:          0
cpu0->LLC PREFETCH REQUESTED:          0 ISSUED:          0 USEFUL:          0 USELESS:          0 LATE:          0
cpu0->LLC AVERAGE MISS LATENCY: 171.7 cycles

DRAM Statistics

Channel 0 RQ ROW_BUFFER_HIT:         69
  ROW_BUFFER_MISS:      16829
  AVG DBUS CONGESTED CYCLE: 2.864
Channel 0 WQ ROW_BUFFER_HIT:          2
  ROW_BUFFER_MISS:          5
  FULL:          0
Channel 0 REFRESHES ISSUED:       1336

[ROI Statistics]
[System Configuration]
num_cpus 1
cpu_freq 4000
fetch_width 6
decode_width 6
dispatch_width 6
execute_width 6
lq_width 2
sq_width 2
retire_width 6
scheduler_size 128
branch_mispredict_penalty 15
rob_size 352
lq_size 128
sq_size 72
ifetch_buffer_size 64
decode_buffer_size 32
dispatch_buffer_size 32
register_file_size 288
decode_latency 1
dispatch_latency 1
schedule_latency 1
execute_latency 1
page_size 4096
block_size 64
core_0_itlb_set 16
core_0_itlb_way 4
core_0_itlb_rq_size 16
core_0_itlb_wq_size 16
core_0_itlb_pq_size 0
core_0_itlb_mshr_size 8
core_0_itlb_hit_latency 1
core_0_itlb_fill_latency 1
core_0_itlb_max_tag_check 2
core_0_itlb_max_fill 2
core_0_dtlb_set 16
core_0_dtlb_way 4
core_0_dtlb_rq_size 16
core_0_dtlb_wq_size 16
core_0_dtlb_pq_size 0
core_0_dtlb_mshr_size 8
core_0_dtlb_hit_latency 1
core_0_dtlb_fill_latency 1
core_0_dtlb_max_tag_check 2
core_0_dtlb_max_fill 2
core_0_stlb_set 128
core_0_stlb_way 12
core_0_stlb_rq_size 32
core_0_stlb_wq_size 32
core_0_stlb_pq_size 0
core_0_stlb_mshr_size 16
core_0_stlb_hit_latency 4
core_0_stlb_fill_latency 4
core_0_stlb_max_tag_check 1
core_0_stlb_max_fill 1
core_0_l1i_set 64
core_0_l1i_way 8
core_0_l1i_rq_size 64
core_0_l1i_wq_size 64
core_0_l1i_pq_size 32
core_0_l1i_mshr_size 8
core_0_l1i_hit_latency 2
core_0_l1i_fill_latency 2
core_0_l1i_max_tag_check 2
core_0_l1i_max_fill 2
core_0_l1d_set 64
core_0_l1d_way 12
core_0_l1d_rq_size 64
core_0_l1d_wq_size 64
core_0_l1d_pq_size 8
core_0_l1d_mshr_size 16
core_0_l1d_hit_latency 2
core_0_l1d_fill_latency 3
core_0_l1d_max_tag_check 2
core_0_l1d_max_fill 2
core_0_l2c_set 1024
core_0_l2c_way 8
core_0_l2c_rq_size 32
core_0_l2c_wq_size 32
core_0_l2c_pq_size 16
core_0_l2c_mshr_size 32
core_0_l2c_hit_latency 5
core_0_l2c_fill_latency 5
core_0_l2c_max_tag_check 1
core_0_l2c_max_fill 1
llc_set 2048
llc_way 16
llc_rq_size 32
llc_wq_size 32
llc_pq_size 32
llc_mshr_size 64
llc_hit_latency 10
llc_fill_latency 10
llc_max_tag_check 1
llc_max_fill 1
dram_channels 1
dram_ranks 1
dram_bankgroups 8
dram_banks 4
dram_rows 65536
dram_columns 1024
dram_channel_width 8
dram_rq_size 64
dram_wq_size 64
dram_size 17179869184
core_0_itlb_prefetcher no
core_0_dtlb_prefetcher no
core_0_stlb_prefetcher no
core_0_l1i_prefetcher next_line
core_0_l1d_prefetcher berti
core_0_l2c_prefetcher pythia
llc_prefetcher no
llc_replacement drrip

Core_0_instructions 50000000
Core_0_cycles 16030611
Core_0_IPC 3.11903
Core_0_branch_prediction_accuracy 99.881
Core_0_branch_MPKI 0.26524
Core_0_average_ROB_occupancy_at_mispredict 163.822

Core_0_ITLB_total_access 9885433
Core_0_ITLB_total_hit 9885433
Core_0_ITLB_total_miss 0
Core_0_ITLB_total_MPKI 0
Core_0_ITLB_total_miss_rate 0
Core_0_ITLB_demand_access 9885433
Core_0_ITLB_demand_hit 9885433
Core_0_ITLB_demand_miss 0
Core_0_ITLB_demand_MPKI 0
Core_0_ITLB_demand_miss_rate 0
Core_0_ITLB_load_access 9885433
Core_0_ITLB_load_hit 9885433
Core_0_ITLB_load_miss 0
Core_0_ITLB_load_MPKI 0
Core_0_ITLB_load_miss_rate 0
Core_0_ITLB_rfo_access 0
Core_0_ITLB_rfo_hit 0
Core_0_ITLB_rfo_miss 0
Core_0_ITLB_rfo_MPKI 0
Core_0_ITLB_rfo_miss_rate 0
Core_0_ITLB_prefetch_access 0
Core_0_ITLB_prefetch_hit 0
Core_0_ITLB_prefetch_miss 0
Core_0_ITLB_prefetch_MPKI 0
Core_0_ITLB_prefetch_miss_rate 0
Core_0_ITLB_writeback_access 0
Core_0_ITLB_writeback_hit 0
Core_0_ITLB_writeback_miss 0
Core_0_ITLB_writeback_MPKI 0
Core_0_ITLB_writeback_miss_rate 0
Core_0_ITLB_prefetch_requested 0
Core_0_ITLB_prefetch_issued 0
Core_0_ITLB_prefetch_useful 0
Core_0_ITLB_prefetch_useless 0
Core_0_ITLB_prefetch_late 0
Core_0_ITLB_prefetch_accuracy 0
Core_0_ITLB_prefetch_coverage 0

Core_0_DTLB_total_access 12825319
Core_0_DTLB_total_hit 12812810
Core_0_DTLB_total_miss 12509
Core_0_DTLB_total_MPKI 0.25018
Core_0_DTLB_total_miss_rate 0.000975336
Core_0_DTLB_demand_access 12825319
Core_0_DTLB_demand_hit 12812810
Core_0_DTLB_demand_miss 12509
Core_0_DTLB_demand_MPKI 0.25018
Core_0_DTLB_demand_miss_rate 0.000975336
Core_0_DTLB_load_access 12825319
Core_0_DTLB_load_hit 12812810
Core_0_DTLB_load_miss 12509
Core_0_DTLB_load_MPKI 0.25018
Core_0_DTLB_load_miss_rate 0.000975336
Core_0_DTLB_rfo_access 0
Core_0_DTLB_rfo_hit 0
Core_0_DTLB_rfo_miss 0
Core_0_DTLB_rfo_MPKI 0
Core_0_DTLB_rfo_miss_rate 0
Core_0_DTLB_prefetch_access 0
Core_0_DTLB_prefetch_hit 0
Core_0_DTLB_prefetch_miss 0
Core_0_DTLB_prefetch_MPKI 0
Core_0_DTLB_prefetch_miss_rate 0
Core_0_DTLB_writeback_access 0
Core_0_DTLB_writeback_hit 0
Core_0_DTLB_writeback_miss 0
Core_0_DTLB_writeback_MPKI 0
Core_0_DTLB_writeback_miss_rate 0
Core_0_DTLB_prefetch_requested 0
Core_0_DTLB_prefetch_issued 0
Core_0_DTLB_prefetch_useful 0
Core_0_DTLB_prefetch_useless 0
Core_0_DTLB_prefetch_late 0
Core_0_DTLB_prefetch_accuracy 0
Core_0_DTLB_prefetch_coverage 0

Core_0_STLB_total_access 9956
Core_0_STLB_total_hit 8884
Core_0_STLB_total_miss 1072
Core_0_STLB_total_MPKI 0.02144
Core_0_STLB_total_miss_rate 0.107674
Core_0_STLB_demand_access 9956
Core_0_STLB_demand_hit 8884
Core_0_STLB_demand_miss 1072
Core_0_STLB_demand_MPKI 0.02144
Core_0_STLB_demand_miss_rate 0.107674
Core_0_STLB_load_access 9956
Core_0_STLB_load_hit 8884
Core_0_STLB_load_miss 1072
Core_0_STLB_load_MPKI 0.02144
Core_0_STLB_load_miss_rate 0.107674
Core_0_STLB_rfo_access 0
Core_0_STLB_rfo_hit 0
Core_0_STLB_rfo_miss 0
Core_0_STLB_rfo_MPKI 0
Core_0_STLB_rfo_miss_rate 0
Core_0_STLB_prefetch_access 0
Core_0_STLB_prefetch_hit 0
Core_0_STLB_prefetch_miss 0
Core_0_STLB_prefetch_MPKI 0
Core_0_STLB_prefetch_miss_rate 0
Core_0_STLB_writeback_access 0
Core_0_STLB_writeback_hit 0
Core_0_STLB_writeback_miss 0
Core_0_STLB_writeback_MPKI 0
Core_0_STLB_writeback_miss_rate 0
Core_0_STLB_prefetch_requested 0
Core_0_STLB_prefetch_issued 0
Core_0_STLB_prefetch_useful 0
Core_0_STLB_prefetch_useless 0
Core_0_STLB_prefetch_late 0
Core_0_STLB_prefetch_accuracy 0
Core_0_STLB_prefetch_coverage 0

Core_0_L1I_total_access 10935903
Core_0_L1I_total_hit 10935902
Core_0_L1I_total_miss 1
Core_0_L1I_total_MPKI 2e-05
Core_0_L1I_total_miss_rate 9.14419e-08
Core_0_L1I_demand_access 10935903
Core_0_L1I_demand_hit 10935902
Core_0_L1I_demand_miss 1
Core_0_L1I_demand_MPKI 2e-05
Core_0_L1I_demand_miss_rate 9.14419e-08
Core_0_L1I_load_access 10935903
Core_0_L1I_load_hit 10935902
Core_0_L1I_load_miss 1
Core_0_L1I_load_MPKI 2e-05
Core_0_L1I_load_miss_rate 9.14419e-08
Core_0_L1I_rfo_access 0
Core_0_L1I_rfo_hit 0
Core_0_L1I_rfo_miss 0
Core_0_L1I_rfo_MPKI 0
Core_0_L1I_rfo_miss_rate 0
Core_0_L1I_prefetch_access 0
Core_0_L1I_prefetch_hit 0
Core_0_L1I_prefetch_miss 0
Core_0_L1I_prefetch_MPKI 0
Core_0_L1I_prefetch_miss_rate 0
Core_0_L1I_writeback_access 0
Core_0_L1I_writeback_hit 0
Core_0_L1I_writeback_miss 0
Core_0_L1I_writeback_MPKI 0
Core_0_L1I_writeback_miss_rate 0
Core_0_L1I_prefetch_requested 0
Core_0_L1I_prefetch_issued 0
Core_0_L1I_prefetch_useful 0
Core_0_L1I_prefetch_useless 0
Core_0_L1I_prefetch_late 0
Core_0_L1I_prefetch_accuracy 0
Core_0_L1I_prefetch_coverage 0

Core_0_L1D_total_access 14408921
Core_0_L1D_total_hit 14322248
Core_0_L1D_total_miss 86673
Core_0_L1D_total_MPKI 1.73346
Core_0_L1D_total_miss_rate 0.00601523
Core_0_L1D_demand_access 5123143
Core_0_L1D_demand_hit 5077310
Core_0_L1D_demand_miss 45833
Core_0_L1D_demand_MPKI 0.91666
Core_0_L1D_demand_miss_rate 0.00894627
Core_0_L1D_load_access 5123143
Core_0_L1D_load_hit 5077310
Core_0_L1D_load_miss 45833
Core_0_L1D_load_MPKI 0.91666
Core_0_L1D_load_miss_rate 0.00894627
Core_0_L1D_rfo_access 0
Core_0_L1D_rfo_hit 0
Core_0_L1D_rfo_miss 0
Core_0_L1D_rfo_MPKI 0
Core_0_L1D_rfo_miss_rate 0
Core_0_L1D_prefetch_access 305532
Core_0_L1D_prefetch_hit 273034
Core_0_L1D_prefetch_miss 32498
Core_0_L1D_prefetch_MPKI 0.64996
Core_0_L1D_prefetch_miss_rate 0.106365
Core_0_L1D_writeback_access 8980246
Core_0_L1D_writeback_hit 8971904
Core_0_L1D_writeback_miss 8342
Core_0_L1D_writeback_MPKI 0.16684
Core_0_L1D_writeback_miss_rate 0.000928928
Core_0_L1D_prefetch_requested 402914
Core_0_L1D_prefetch_issued 305526
Core_0_L1D_prefetch_useful 18808
Core_0_L1D_prefetch_useless 10613
Core_0_L1D_prefetch_late 1876
Core_0_L1D_prefetch_accuracy 0.0615594
Core_0_L1D_prefetch_coverage 0.290961

Core_0_L2C_total_access 116282
Core_0_L2C_total_hit 97638
Core_0_L2C_total_miss 18644
Core_0_L2C_total_MPKI 0.37288
Core_0_L2C_total_miss_rate 0.160334
Core_0_L2C_demand_access 39890
Core_0_L2C_demand_hit 33416
Core_0_L2C_demand_miss 6474
Core_0_L2C_demand_MPKI 0.12948
Core_0_L2C_demand_miss_rate 0.162296
Core_0_L2C_load_access 38178
Core_0_L2C_load_hit 33205
Core_0_L2C_load_miss 4973
Core_0_L2C_load_MPKI 0.09946
Core_0_L2C_load_miss_rate 0.130258
Core_0_L2C_rfo_access 1712
Core_0_L2C_rfo_hit 211
Core_0_L2C_rfo_miss 1501
Core_0_L2C_rfo_MPKI 0.03002
Core_0_L2C_rfo_miss_rate 0.876752
Core_0_L2C_prefetch_access 71429
Core_0_L2C_prefetch_hit 59261
Core_0_L2C_prefetch_miss 12168
Core_0_L2C_prefetch_MPKI 0.24336
Core_0_L2C_prefetch_miss_rate 0.170351
Core_0_L2C_writeback_access 4963
Core_0_L2C_writeback_hit 4961
Core_0_L2C_writeback_miss 2
Core_0_L2C_writeback_MPKI 4e-05
Core_0_L2C_writeback_miss_rate 0.000402982
Core_0_L2C_prefetch_requested 41927
Core_0_L2C_prefetch_issued 41927
Core_0_L2C_prefetch_useful 5535
Core_0_L2C_prefetch_useless 4427
Core_0_L2C_prefetch_late 64
Core_0_L2C_prefetch_accuracy 0.132015
Core_0_L2C_prefetch_coverage 0.460904

Core_0_LLC_total_access 21354
Core_0_LLC_total_hit 4507
Core_0_LLC_total_miss 16847
Core_0_LLC_total_MPKI 0.33694
Core_0_LLC_total_miss_rate 0.788939
Core_0_LLC_demand_access 6410
Core_0_LLC_demand_hit 126
Core_0_LLC_demand_miss 6284
Core_0_LLC_demand_MPKI 0.12568
Core_0_LLC_demand_miss_rate 0.980343
Core_0_LLC_load_access 4909
Core_0_LLC_load_hit 126
Core_0_LLC_load_miss 4783
Core_0_LLC_load_MPKI 0.09566
Core_0_LLC_load_miss_rate 0.974333
Core_0_LLC_rfo_access 1501
Core_0_LLC_rfo_hit 0
Core_0_LLC_rfo_miss 1501
Core_0_LLC_rfo_MPKI 0.03002
Core_0_LLC_rfo_miss_rate 1
Core_0_LLC_prefetch_access 11624
Core_0_LLC_prefetch_hit 1079
Core_0_LLC_prefetch_miss 10545
Core_0_LLC_prefetch_MPKI 0.2109
Core_0_LLC_prefetch_miss_rate 0.907175
Core_0_LLC_writeback_access 3320
Core_0_LLC_writeback_hit 3302
Core_0_LLC_writeback_miss 18
Core_0_LLC_writeback_MPKI 0.00036
Core_0_LLC_writeback_miss_rate 0.00542169
Core_0_LLC_prefetch_requested 0
Core_0_LLC_prefetch_issued 0
Core_0_LLC_prefetch_useful 0
Core_0_LLC_prefetch_useless 0
Core_0_LLC_prefetch_late 0
Core_0_LLC_prefetch_accuracy 0
Core_0_LLC_prefetch_coverage 0

[DRAM Statistics]
Channel_0_RQ_row_buffer_hit 69
Channel_0_RQ_row_buffer_miss 16829
Channel_0_WQ_row_buffer_hit 2
Channel_0_WQ_row_buffer_miss 5
Channel_0_WQ_full 0
Channel_0_dbus_congested 16485
DRAM_total_RQ_row_buffer_hit 69
DRAM_total_RQ_row_buffer_miss 16829
DRAM_total_WQ_row_buffer_hit 2
DRAM_total_WQ_row_buffer_miss 5
DRAM_total_WQ_full 0
DRAM_total_dbus_congested 16485
DRAM_avg_congested_cycle 2.86375

======STLB miss causes ========
Core_0_STLB_miss_cause_breakdown
Core_0_STLB_cause_Demand_Data_miss 1041
Core_0_STLB_cause_Demand_Data_miss_rate 0.10456
Core_0_STLB_cause_Demand_Instruction_miss 0
Core_0_STLB_cause_Demand_Instruction_miss_rate 0
Core_0_STLB_cause_L1D_Prefetch_miss 31
Core_0_STLB_cause_L1D_Prefetch_miss_rate 0.0031137
Core_0_STLB_cause_L1I_Prefetch_miss 0
Core_0_STLB_cause_L1I_Prefetch_miss_rate 0
Core_0_STLB_cause_Other_miss 0
Core_0_STLB_cause_Other_miss_rate 0
Core_0_STLB_Demand_miss 1041
Core_0_STLB_Demand_miss_rate 0.10456
Core_0_STLB_L1D_Prefetch_miss 31
Core_0_STLB_L1D_Prefetch_miss_rate 0.0031137
Core_0_STLB_Other_miss 0
Core_0_STLB_Other_miss_rate 0
