[VMEM] WARNING: physical memory size is smaller than virtual memory size.

*** ChampSim Multicore Out-of-Order Simulator ***
Warmup Instructions: 20000000
Simulation Instructions: 50000000
Number of CPUs: 1
Page size: 4096
Core 0: /data0/tzh/champsim_traces/SPEC06/429.mcf-51B.champsimtrace.xz
 L1D Berti prefetcher
Off-chip DRAM Size: 16 GiB Channels: 1 Width: 64-bit Data Rate: 3205 MT/s
Warmup halting CPU 0 at instruction 20000005 cycle 6235758 for remainder of phase
Warmup finished CPU 0 instructions: 20000005 cycles: 6235758 cumulative IPC: 3.207 (Simulation time: 00 hr 02 min 10 sec)
Warmup complete CPU 0 instructions: 20000005 cycles: 6235758 cumulative IPC: 3.207 (Simulation time: 00 hr 02 min 10 sec)
Simulation finished CPU 0 instructions: 50000004 cycles: 264135308 cumulative IPC: 0.1893 (Simulation time: 00 hr 38 min 11 sec)
Simulation complete CPU 0 instructions: 50000004 cycles: 264135308 cumulative IPC: 0.1893 (Simulation time: 00 hr 38 min 11 sec)

ChampSim completed all CPUs

=== Simulation ===
CPU 0 runs /data0/tzh/champsim_traces/SPEC06/429.mcf-51B.champsimtrace.xz

Region of Interest Statistics

CPU 0 cumulative IPC: 0.1893 instructions: 50000004 cycles: 264135308
CPU 0 Branch Prediction Accuracy: 94.82% MPKI: 12.49 Average ROB Occupancy at Mispredict: 57.87
Branch type MPKI
BRANCH_DIRECT_JUMP: 0.7393
BRANCH_INDIRECT: 0
BRANCH_CONDITIONAL: 11.75
BRANCH_DIRECT_CALL: 0
BRANCH_INDIRECT_CALL: 0
BRANCH_RETURN: 0

cpu0->cpu0_STLB TOTAL        ACCESS:    4171705 HIT:    3599916 MISS:     571789 MSHR_MERGE:          0
cpu0->cpu0_STLB LOAD         ACCESS:    4171705 HIT:    3599916 MISS:     571789 MSHR_MERGE:          0
cpu0->cpu0_STLB RFO          ACCESS:          0 HIT:          0 MISS:          0 MSHR_MERGE:          0
cpu0->cpu0_STLB PREFETCH     ACCESS:          0 HIT:          0 MISS:          0 MSHR_MERGE:          0
cpu0->cpu0_STLB WRITE        ACCESS:          0 HIT:          0 MISS:          0 MSHR_MERGE:          0
cpu0->cpu0_STLB TRANSLATION  ACCESS:          0 HIT:          0 MISS:          0 MSHR_MERGE:          0
cpu0->cpu0_STLB PREFETCH REQUESTED:          0 ISSUED:          0 USEFUL:          0 USELESS:          0 LATE:          0
cpu0->cpu0_STLB AVERAGE MISS LATENCY: 127.8 cycles
cpu0->cpu0_L2C TOTAL        ACCESS:   14032528 HIT:    6315016 MISS:    7717512 MSHR_MERGE:     725571
cpu0->cpu0_L2C LOAD         ACCESS:    4960422 HIT:    2268621 MISS:    2691801 MSHR_MERGE:       6266
cpu0->cpu0_L2C RFO          ACCESS:     156726 HIT:      82167 MISS:      74559 MSHR_MERGE:         61
cpu0->cpu0_L2C PREFETCH     ACCESS:    7163535 HIT:    2539724 MISS:    4623811 MSHR_MERGE:     719244
cpu0->cpu0_L2C WRITE        ACCESS:    1230126 HIT:    1228766 MISS:       1360 MSHR_MERGE:          0
cpu0->cpu0_L2C TRANSLATION  ACCESS:     521719 HIT:     195738 MISS:     325981 MSHR_MERGE:          0
cpu0->cpu0_L2C PREFETCH REQUESTED:    6780260 ISSUED:    6469522 USEFUL:     899543 USELESS:    2559923 LATE:       6327
cpu0->cpu0_L2C AVERAGE MISS LATENCY: 183.1 cycles
cpu0->cpu0_L1I TOTAL        ACCESS:    1969365 HIT:    1969365 MISS:          0 MSHR_MERGE:          0
cpu0->cpu0_L1I LOAD         ACCESS:    1969365 HIT:    1969365 MISS:          0 MSHR_MERGE:          0
cpu0->cpu0_L1I RFO          ACCESS:          0 HIT:          0 MISS:          0 MSHR_MERGE:          0
cpu0->cpu0_L1I PREFETCH     ACCESS:          0 HIT:          0 MISS:          0 MSHR_MERGE:          0
cpu0->cpu0_L1I WRITE        ACCESS:          0 HIT:          0 MISS:          0 MSHR_MERGE:          0
cpu0->cpu0_L1I TRANSLATION  ACCESS:          0 HIT:          0 MISS:          0 MSHR_MERGE:          0
cpu0->cpu0_L1I PREFETCH REQUESTED:          0 ISSUED:          0 USEFUL:          0 USELESS:          0 LATE:          0
cpu0->cpu0_L1I AVERAGE MISS LATENCY: - cycles
cpu0->cpu0_L1D TOTAL        ACCESS:   17255204 HIT:    9052664 MISS:    8202540 MSHR_MERGE:    1869612
cpu0->cpu0_L1D LOAD         ACCESS:   12495929 HIT:    5856020 MISS:    6639909 MSHR_MERGE:    1679446
cpu0->cpu0_L1D RFO          ACCESS:          0 HIT:          0 MISS:          0 MSHR_MERGE:          0
cpu0->cpu0_L1D PREFETCH     ACCESS:    1072444 HIT:     300563 MISS:     771881 MSHR_MERGE:      77864
cpu0->cpu0_L1D WRITE        ACCESS:    2379597 HIT:    2119580 MISS:     260017 MSHR_MERGE:     103288
cpu0->cpu0_L1D TRANSLATION  ACCESS:    1307234 HIT:     776501 MISS:     530733 MSHR_MERGE:       9014
cpu0->cpu0_L1D PREFETCH REQUESTED:    1083832 ISSUED:    1072444 USEFUL:      78889 USELESS:     615086 LATE:       3864
cpu0->cpu0_L1D AVERAGE MISS LATENCY: 109.1 cycles
cpu0->cpu0_ITLB TOTAL        ACCESS:    1830910 HIT:    1830910 MISS:          0 MSHR_MERGE:          0
cpu0->cpu0_ITLB LOAD         ACCESS:    1830910 HIT:    1830910 MISS:          0 MSHR_MERGE:          0
cpu0->cpu0_ITLB RFO          ACCESS:          0 HIT:          0 MISS:          0 MSHR_MERGE:          0
cpu0->cpu0_ITLB PREFETCH     ACCESS:          0 HIT:          0 MISS:          0 MSHR_MERGE:          0
cpu0->cpu0_ITLB WRITE        ACCESS:          0 HIT:          0 MISS:          0 MSHR_MERGE:          0
cpu0->cpu0_ITLB TRANSLATION  ACCESS:          0 HIT:          0 MISS:          0 MSHR_MERGE:          0
cpu0->cpu0_ITLB PREFETCH REQUESTED:          0 ISSUED:          0 USEFUL:          0 USELESS:          0 LATE:          0
cpu0->cpu0_ITLB AVERAGE MISS LATENCY: - cycles
cpu0->cpu0_DTLB TOTAL        ACCESS:   15560703 HIT:    9014368 MISS:    6546335 MSHR_MERGE:    2374628
cpu0->cpu0_DTLB LOAD         ACCESS:   15560703 HIT:    9014368 MISS:    6546335 MSHR_MERGE:    2374628
cpu0->cpu0_DTLB RFO          ACCESS:          0 HIT:          0 MISS:          0 MSHR_MERGE:          0
cpu0->cpu0_DTLB PREFETCH     ACCESS:          0 HIT:          0 MISS:          0 MSHR_MERGE:          0
cpu0->cpu0_DTLB WRITE        ACCESS:          0 HIT:          0 MISS:          0 MSHR_MERGE:          0
cpu0->cpu0_DTLB TRANSLATION  ACCESS:          0 HIT:          0 MISS:          0 MSHR_MERGE:          0
cpu0->cpu0_DTLB PREFETCH REQUESTED:          0 ISSUED:          0 USEFUL:          0 USELESS:          0 LATE:          0
cpu0->cpu0_DTLB AVERAGE MISS LATENCY: 22.66 cycles
cpu0->LLC TOTAL        ACCESS:    7774103 HIT:    2360660 MISS:    5413443 MSHR_MERGE:          0
cpu0->LLC LOAD         ACCESS:    2685534 HIT:     852868 MISS:    1832666 MSHR_MERGE:          0
cpu0->LLC RFO          ACCESS:      74498 HIT:      16385 MISS:      58113 MSHR_MERGE:          0
cpu0->LLC PREFETCH     ACCESS:    3904566 HIT:    1003423 MISS:    2901143 MSHR_MERGE:          0
cpu0->LLC WRITE        ACCESS:     783524 HIT:     378259 MISS:     405265 MSHR_MERGE:          0
cpu0->LLC TRANSLATION  ACCESS:     325981 HIT:     109725 MISS:     216256 MSHR_MERGE:          0
cpu0->LLC PREFETCH REQUESTED:          0 ISSUED:          0 USEFUL:          0 USELESS:          0 LATE:          0
cpu0->LLC AVERAGE MISS LATENCY: 207.3 cycles

DRAM Statistics

Channel 0 RQ ROW_BUFFER_HIT:      28693
  ROW_BUFFER_MISS:    4977866
  AVG DBUS CONGESTED CYCLE: 5.323
Channel 0 WQ ROW_BUFFER_HIT:     133302
  ROW_BUFFER_MISS:     533962
  FULL:          0
Channel 0 REFRESHES ISSUED:      22011

[ROI Statistics]
[System Configuration]
num_cpus 1
cpu_freq 4000
fetch_width 6
decode_width 6
dispatch_width 6
execute_width 6
lq_width 2
sq_width 2
retire_width 6
scheduler_size 128
branch_mispredict_penalty 15
rob_size 352
lq_size 128
sq_size 72
ifetch_buffer_size 64
decode_buffer_size 32
dispatch_buffer_size 32
register_file_size 288
decode_latency 1
dispatch_latency 1
schedule_latency 1
execute_latency 1
page_size 4096
block_size 64
core_0_itlb_set 16
core_0_itlb_way 4
core_0_itlb_rq_size 16
core_0_itlb_wq_size 16
core_0_itlb_pq_size 0
core_0_itlb_mshr_size 8
core_0_itlb_hit_latency 1
core_0_itlb_fill_latency 1
core_0_itlb_max_tag_check 2
core_0_itlb_max_fill 2
core_0_dtlb_set 16
core_0_dtlb_way 4
core_0_dtlb_rq_size 16
core_0_dtlb_wq_size 16
core_0_dtlb_pq_size 0
core_0_dtlb_mshr_size 8
core_0_dtlb_hit_latency 1
core_0_dtlb_fill_latency 1
core_0_dtlb_max_tag_check 2
core_0_dtlb_max_fill 2
core_0_stlb_set 128
core_0_stlb_way 12
core_0_stlb_rq_size 32
core_0_stlb_wq_size 32
core_0_stlb_pq_size 0
core_0_stlb_mshr_size 16
core_0_stlb_hit_latency 4
core_0_stlb_fill_latency 4
core_0_stlb_max_tag_check 1
core_0_stlb_max_fill 1
core_0_l1i_set 64
core_0_l1i_way 8
core_0_l1i_rq_size 64
core_0_l1i_wq_size 64
core_0_l1i_pq_size 32
core_0_l1i_mshr_size 8
core_0_l1i_hit_latency 2
core_0_l1i_fill_latency 2
core_0_l1i_max_tag_check 2
core_0_l1i_max_fill 2
core_0_l1d_set 64
core_0_l1d_way 12
core_0_l1d_rq_size 64
core_0_l1d_wq_size 64
core_0_l1d_pq_size 8
core_0_l1d_mshr_size 16
core_0_l1d_hit_latency 2
core_0_l1d_fill_latency 3
core_0_l1d_max_tag_check 2
core_0_l1d_max_fill 2
core_0_l2c_set 1024
core_0_l2c_way 8
core_0_l2c_rq_size 32
core_0_l2c_wq_size 32
core_0_l2c_pq_size 16
core_0_l2c_mshr_size 32
core_0_l2c_hit_latency 5
core_0_l2c_fill_latency 5
core_0_l2c_max_tag_check 1
core_0_l2c_max_fill 1
llc_set 2048
llc_way 16
llc_rq_size 32
llc_wq_size 32
llc_pq_size 32
llc_mshr_size 64
llc_hit_latency 10
llc_fill_latency 10
llc_max_tag_check 1
llc_max_fill 1
dram_channels 1
dram_ranks 1
dram_bankgroups 8
dram_banks 4
dram_rows 65536
dram_columns 1024
dram_channel_width 8
dram_rq_size 64
dram_wq_size 64
dram_size 17179869184
core_0_itlb_prefetcher no
core_0_dtlb_prefetcher no
core_0_stlb_prefetcher no
core_0_l1i_prefetcher next_line
core_0_l1d_prefetcher berti
core_0_l2c_prefetcher pythia
llc_prefetcher no
llc_replacement drrip

Core_0_instructions 50000004
Core_0_cycles 264135308
Core_0_IPC 0.189297
Core_0_branch_prediction_accuracy 94.8216
Core_0_branch_MPKI 12.488
Core_0_average_ROB_occupancy_at_mispredict 57.869

Core_0_ITLB_total_access 1830910
Core_0_ITLB_total_hit 1830910
Core_0_ITLB_total_miss 0
Core_0_ITLB_total_MPKI 0
Core_0_ITLB_total_miss_rate 0
Core_0_ITLB_demand_access 1830910
Core_0_ITLB_demand_hit 1830910
Core_0_ITLB_demand_miss 0
Core_0_ITLB_demand_MPKI 0
Core_0_ITLB_demand_miss_rate 0
Core_0_ITLB_load_access 1830910
Core_0_ITLB_load_hit 1830910
Core_0_ITLB_load_miss 0
Core_0_ITLB_load_MPKI 0
Core_0_ITLB_load_miss_rate 0
Core_0_ITLB_rfo_access 0
Core_0_ITLB_rfo_hit 0
Core_0_ITLB_rfo_miss 0
Core_0_ITLB_rfo_MPKI 0
Core_0_ITLB_rfo_miss_rate 0
Core_0_ITLB_prefetch_access 0
Core_0_ITLB_prefetch_hit 0
Core_0_ITLB_prefetch_miss 0
Core_0_ITLB_prefetch_MPKI 0
Core_0_ITLB_prefetch_miss_rate 0
Core_0_ITLB_writeback_access 0
Core_0_ITLB_writeback_hit 0
Core_0_ITLB_writeback_miss 0
Core_0_ITLB_writeback_MPKI 0
Core_0_ITLB_writeback_miss_rate 0
Core_0_ITLB_prefetch_requested 0
Core_0_ITLB_prefetch_issued 0
Core_0_ITLB_prefetch_useful 0
Core_0_ITLB_prefetch_useless 0
Core_0_ITLB_prefetch_late 0
Core_0_ITLB_prefetch_accuracy 0
Core_0_ITLB_prefetch_coverage 0

Core_0_DTLB_total_access 15560703
Core_0_DTLB_total_hit 9014368
Core_0_DTLB_total_miss 6546335
Core_0_DTLB_total_MPKI 130.927
Core_0_DTLB_total_miss_rate 0.420697
Core_0_DTLB_demand_access 15560703
Core_0_DTLB_demand_hit 9014368
Core_0_DTLB_demand_miss 6546335
Core_0_DTLB_demand_MPKI 130.927
Core_0_DTLB_demand_miss_rate 0.420697
Core_0_DTLB_load_access 15560703
Core_0_DTLB_load_hit 9014368
Core_0_DTLB_load_miss 6546335
Core_0_DTLB_load_MPKI 130.927
Core_0_DTLB_load_miss_rate 0.420697
Core_0_DTLB_rfo_access 0
Core_0_DTLB_rfo_hit 0
Core_0_DTLB_rfo_miss 0
Core_0_DTLB_rfo_MPKI 0
Core_0_DTLB_rfo_miss_rate 0
Core_0_DTLB_prefetch_access 0
Core_0_DTLB_prefetch_hit 0
Core_0_DTLB_prefetch_miss 0
Core_0_DTLB_prefetch_MPKI 0
Core_0_DTLB_prefetch_miss_rate 0
Core_0_DTLB_writeback_access 0
Core_0_DTLB_writeback_hit 0
Core_0_DTLB_writeback_miss 0
Core_0_DTLB_writeback_MPKI 0
Core_0_DTLB_writeback_miss_rate 0
Core_0_DTLB_prefetch_requested 0
Core_0_DTLB_prefetch_issued 0
Core_0_DTLB_prefetch_useful 0
Core_0_DTLB_prefetch_useless 0
Core_0_DTLB_prefetch_late 0
Core_0_DTLB_prefetch_accuracy 0
Core_0_DTLB_prefetch_coverage 0

Core_0_STLB_total_access 4171705
Core_0_STLB_total_hit 3599916
Core_0_STLB_total_miss 571789
Core_0_STLB_total_MPKI 11.4358
Core_0_STLB_total_miss_rate 0.137064
Core_0_STLB_demand_access 4171705
Core_0_STLB_demand_hit 3599916
Core_0_STLB_demand_miss 571789
Core_0_STLB_demand_MPKI 11.4358
Core_0_STLB_demand_miss_rate 0.137064
Core_0_STLB_load_access 4171705
Core_0_STLB_load_hit 3599916
Core_0_STLB_load_miss 571789
Core_0_STLB_load_MPKI 11.4358
Core_0_STLB_load_miss_rate 0.137064
Core_0_STLB_rfo_access 0
Core_0_STLB_rfo_hit 0
Core_0_STLB_rfo_miss 0
Core_0_STLB_rfo_MPKI 0
Core_0_STLB_rfo_miss_rate 0
Core_0_STLB_prefetch_access 0
Core_0_STLB_prefetch_hit 0
Core_0_STLB_prefetch_miss 0
Core_0_STLB_prefetch_MPKI 0
Core_0_STLB_prefetch_miss_rate 0
Core_0_STLB_writeback_access 0
Core_0_STLB_writeback_hit 0
Core_0_STLB_writeback_miss 0
Core_0_STLB_writeback_MPKI 0
Core_0_STLB_writeback_miss_rate 0
Core_0_STLB_prefetch_requested 0
Core_0_STLB_prefetch_issued 0
Core_0_STLB_prefetch_useful 0
Core_0_STLB_prefetch_useless 0
Core_0_STLB_prefetch_late 0
Core_0_STLB_prefetch_accuracy 0
Core_0_STLB_prefetch_coverage 0

Core_0_L1I_total_access 1969365
Core_0_L1I_total_hit 1969365
Core_0_L1I_total_miss 0
Core_0_L1I_total_MPKI 0
Core_0_L1I_total_miss_rate 0
Core_0_L1I_demand_access 1969365
Core_0_L1I_demand_hit 1969365
Core_0_L1I_demand_miss 0
Core_0_L1I_demand_MPKI 0
Core_0_L1I_demand_miss_rate 0
Core_0_L1I_load_access 1969365
Core_0_L1I_load_hit 1969365
Core_0_L1I_load_miss 0
Core_0_L1I_load_MPKI 0
Core_0_L1I_load_miss_rate 0
Core_0_L1I_rfo_access 0
Core_0_L1I_rfo_hit 0
Core_0_L1I_rfo_miss 0
Core_0_L1I_rfo_MPKI 0
Core_0_L1I_rfo_miss_rate 0
Core_0_L1I_prefetch_access 0
Core_0_L1I_prefetch_hit 0
Core_0_L1I_prefetch_miss 0
Core_0_L1I_prefetch_MPKI 0
Core_0_L1I_prefetch_miss_rate 0
Core_0_L1I_writeback_access 0
Core_0_L1I_writeback_hit 0
Core_0_L1I_writeback_miss 0
Core_0_L1I_writeback_MPKI 0
Core_0_L1I_writeback_miss_rate 0
Core_0_L1I_prefetch_requested 0
Core_0_L1I_prefetch_issued 0
Core_0_L1I_prefetch_useful 0
Core_0_L1I_prefetch_useless 0
Core_0_L1I_prefetch_late 0
Core_0_L1I_prefetch_accuracy 0
Core_0_L1I_prefetch_coverage 0

Core_0_L1D_total_access 15947970
Core_0_L1D_total_hit 8276163
Core_0_L1D_total_miss 7671807
Core_0_L1D_total_MPKI 153.436
Core_0_L1D_total_miss_rate 0.481052
Core_0_L1D_demand_access 12495929
Core_0_L1D_demand_hit 5856020
Core_0_L1D_demand_miss 6639909
Core_0_L1D_demand_MPKI 132.798
Core_0_L1D_demand_miss_rate 0.531366
Core_0_L1D_load_access 12495929
Core_0_L1D_load_hit 5856020
Core_0_L1D_load_miss 6639909
Core_0_L1D_load_MPKI 132.798
Core_0_L1D_load_miss_rate 0.531366
Core_0_L1D_rfo_access 0
Core_0_L1D_rfo_hit 0
Core_0_L1D_rfo_miss 0
Core_0_L1D_rfo_MPKI 0
Core_0_L1D_rfo_miss_rate 0
Core_0_L1D_prefetch_access 1072444
Core_0_L1D_prefetch_hit 300563
Core_0_L1D_prefetch_miss 771881
Core_0_L1D_prefetch_MPKI 15.4376
Core_0_L1D_prefetch_miss_rate 0.71974
Core_0_L1D_writeback_access 2379597
Core_0_L1D_writeback_hit 2119580
Core_0_L1D_writeback_miss 260017
Core_0_L1D_writeback_MPKI 5.20034
Core_0_L1D_writeback_miss_rate 0.109269
Core_0_L1D_prefetch_requested 1083832
Core_0_L1D_prefetch_issued 1072444
Core_0_L1D_prefetch_useful 78889
Core_0_L1D_prefetch_useless 615086
Core_0_L1D_prefetch_late 3864
Core_0_L1D_prefetch_accuracy 0.07356
Core_0_L1D_prefetch_coverage 0.0117415

Core_0_L2C_total_access 13510809
Core_0_L2C_total_hit 6119278
Core_0_L2C_total_miss 7391531
Core_0_L2C_total_MPKI 147.831
Core_0_L2C_total_miss_rate 0.547083
Core_0_L2C_demand_access 5117148
Core_0_L2C_demand_hit 2350788
Core_0_L2C_demand_miss 2766360
Core_0_L2C_demand_MPKI 55.3272
Core_0_L2C_demand_miss_rate 0.540606
Core_0_L2C_load_access 4960422
Core_0_L2C_load_hit 2268621
Core_0_L2C_load_miss 2691801
Core_0_L2C_load_MPKI 53.836
Core_0_L2C_load_miss_rate 0.542656
Core_0_L2C_rfo_access 156726
Core_0_L2C_rfo_hit 82167
Core_0_L2C_rfo_miss 74559
Core_0_L2C_rfo_MPKI 1.49118
Core_0_L2C_rfo_miss_rate 0.475728
Core_0_L2C_prefetch_access 7163535
Core_0_L2C_prefetch_hit 2539724
Core_0_L2C_prefetch_miss 4623811
Core_0_L2C_prefetch_MPKI 92.4762
Core_0_L2C_prefetch_miss_rate 0.645465
Core_0_L2C_writeback_access 1230126
Core_0_L2C_writeback_hit 1228766
Core_0_L2C_writeback_miss 1360
Core_0_L2C_writeback_MPKI 0.0272
Core_0_L2C_writeback_miss_rate 0.00110558
Core_0_L2C_prefetch_requested 6780260
Core_0_L2C_prefetch_issued 6469522
Core_0_L2C_prefetch_useful 899543
Core_0_L2C_prefetch_useless 2559923
Core_0_L2C_prefetch_late 6327
Core_0_L2C_prefetch_accuracy 0.139043
Core_0_L2C_prefetch_coverage 0.245381

Core_0_LLC_total_access 7448122
Core_0_LLC_total_hit 2250935
Core_0_LLC_total_miss 5197187
Core_0_LLC_total_MPKI 103.944
Core_0_LLC_total_miss_rate 0.697785
Core_0_LLC_demand_access 2760032
Core_0_LLC_demand_hit 869253
Core_0_LLC_demand_miss 1890779
Core_0_LLC_demand_MPKI 37.8156
Core_0_LLC_demand_miss_rate 0.685057
Core_0_LLC_load_access 2685534
Core_0_LLC_load_hit 852868
Core_0_LLC_load_miss 1832666
Core_0_LLC_load_MPKI 36.6533
Core_0_LLC_load_miss_rate 0.682421
Core_0_LLC_rfo_access 74498
Core_0_LLC_rfo_hit 16385
Core_0_LLC_rfo_miss 58113
Core_0_LLC_rfo_MPKI 1.16226
Core_0_LLC_rfo_miss_rate 0.780061
Core_0_LLC_prefetch_access 3904566
Core_0_LLC_prefetch_hit 1003423
Core_0_LLC_prefetch_miss 2901143
Core_0_LLC_prefetch_MPKI 58.0229
Core_0_LLC_prefetch_miss_rate 0.743013
Core_0_LLC_writeback_access 783524
Core_0_LLC_writeback_hit 378259
Core_0_LLC_writeback_miss 405265
Core_0_LLC_writeback_MPKI 8.1053
Core_0_LLC_writeback_miss_rate 0.517234
Core_0_LLC_prefetch_requested 0
Core_0_LLC_prefetch_issued 0
Core_0_LLC_prefetch_useful 0
Core_0_LLC_prefetch_useless 0
Core_0_LLC_prefetch_late 0
Core_0_LLC_prefetch_accuracy 0
Core_0_LLC_prefetch_coverage 0

[DRAM Statistics]
Channel_0_RQ_row_buffer_hit 28693
Channel_0_RQ_row_buffer_miss 4977866
Channel_0_WQ_row_buffer_hit 133302
Channel_0_WQ_row_buffer_miss 533962
Channel_0_WQ_full 0
Channel_0_dbus_congested 11182874
DRAM_total_RQ_row_buffer_hit 28693
DRAM_total_RQ_row_buffer_miss 4977866
DRAM_total_WQ_row_buffer_hit 133302
DRAM_total_WQ_row_buffer_miss 533962
DRAM_total_WQ_full 0
DRAM_total_dbus_congested 11182874
DRAM_avg_congested_cycle 5.32258

======STLB miss causes ========
Core_0_STLB_miss_cause_breakdown
Core_0_STLB_cause_Demand_Data_miss 555386
Core_0_STLB_cause_Demand_Data_miss_rate 0.133132
Core_0_STLB_cause_Demand_Instruction_miss 0
Core_0_STLB_cause_Demand_Instruction_miss_rate 0
Core_0_STLB_cause_L1D_Prefetch_miss 16403
Core_0_STLB_cause_L1D_Prefetch_miss_rate 0.00393197
Core_0_STLB_cause_L1I_Prefetch_miss 0
Core_0_STLB_cause_L1I_Prefetch_miss_rate 0
Core_0_STLB_cause_Other_miss 0
Core_0_STLB_cause_Other_miss_rate 0
Core_0_STLB_Demand_miss 555386
Core_0_STLB_Demand_miss_rate 0.133132
Core_0_STLB_L1D_Prefetch_miss 16403
Core_0_STLB_L1D_Prefetch_miss_rate 0.00393197
Core_0_STLB_Other_miss 0
Core_0_STLB_Other_miss_rate 0
