[VMEM] WARNING: physical memory size is smaller than virtual memory size.

*** ChampSim Multicore Out-of-Order Simulator ***
Warmup Instructions: 20000000
Simulation Instructions: 50000000
Number of CPUs: 1
Page size: 4096
Core 0: /data0/tzh/champsim_traces/SPEC06/437.leslie3d-271B.champsimtrace.xz
 L1D Berti prefetcher
Off-chip DRAM Size: 16 GiB Channels: 1 Width: 64-bit Data Rate: 3205 MT/s
Warmup halting CPU 0 at instruction 20000004 cycle 4135659 for remainder of phase
Warmup finished CPU 0 instructions: 20000004 cycles: 4135659 cumulative IPC: 4.836 (Simulation time: 00 hr 00 min 54 sec)
Warmup complete CPU 0 instructions: 20000004 cycles: 4135659 cumulative IPC: 4.836 (Simulation time: 00 hr 00 min 54 sec)
Simulation finished CPU 0 instructions: 50000004 cycles: 15022603 cumulative IPC: 3.328 (Simulation time: 00 hr 04 min 49 sec)
Simulation complete CPU 0 instructions: 50000004 cycles: 15022603 cumulative IPC: 3.328 (Simulation time: 00 hr 04 min 49 sec)

ChampSim completed all CPUs

=== Simulation ===
CPU 0 runs /data0/tzh/champsim_traces/SPEC06/437.leslie3d-271B.champsimtrace.xz

Region of Interest Statistics

CPU 0 cumulative IPC: 3.328 instructions: 50000004 cycles: 15022603
CPU 0 Branch Prediction Accuracy: 99.2% MPKI: 0.1838 Average ROB Occupancy at Mispredict: 348.7
Branch type MPKI
BRANCH_DIRECT_JUMP: 0.00012
BRANCH_INDIRECT: 0
BRANCH_CONDITIONAL: 0.1837
BRANCH_DIRECT_CALL: 0
BRANCH_INDIRECT_CALL: 0
BRANCH_RETURN: 0

cpu0->cpu0_STLB TOTAL        ACCESS:       5554 HIT:         66 MISS:       5488 MSHR_MERGE:          0
cpu0->cpu0_STLB LOAD         ACCESS:       5554 HIT:         66 MISS:       5488 MSHR_MERGE:          0
cpu0->cpu0_STLB RFO          ACCESS:          0 HIT:          0 MISS:          0 MSHR_MERGE:          0
cpu0->cpu0_STLB PREFETCH     ACCESS:          0 HIT:          0 MISS:          0 MSHR_MERGE:          0
cpu0->cpu0_STLB WRITE        ACCESS:          0 HIT:          0 MISS:          0 MSHR_MERGE:          0
cpu0->cpu0_STLB TRANSLATION  ACCESS:          0 HIT:          0 MISS:          0 MSHR_MERGE:          0
cpu0->cpu0_STLB PREFETCH REQUESTED:          0 ISSUED:          0 USEFUL:          0 USELESS:          0 LATE:          0
cpu0->cpu0_STLB AVERAGE MISS LATENCY: 207.2 cycles
cpu0->cpu0_L2C TOTAL        ACCESS:    1514244 HIT:     610761 MISS:     903483 MSHR_MERGE:     558097
cpu0->cpu0_L2C LOAD         ACCESS:       4941 HIT:       1527 MISS:       3414 MSHR_MERGE:        112
cpu0->cpu0_L2C RFO          ACCESS:     144175 HIT:          0 MISS:     144175 MSHR_MERGE:          0
cpu0->cpu0_L2C PREFETCH     ACCESS:    1220138 HIT:     464951 MISS:     755187 MSHR_MERGE:     557985
cpu0->cpu0_L2C WRITE        ACCESS:     144283 HIT:     144283 MISS:          0 MSHR_MERGE:          0
cpu0->cpu0_L2C TRANSLATION  ACCESS:        707 HIT:          0 MISS:        707 MSHR_MERGE:          0
cpu0->cpu0_L2C PREFETCH REQUESTED:    1025114 ISSUED:    1025096 USEFUL:     149652 USELESS:      37060 LATE:        112
cpu0->cpu0_L2C AVERAGE MISS LATENCY: 329.5 cycles
cpu0->cpu0_L1I TOTAL        ACCESS:    7084730 HIT:    7084717 MISS:         13 MSHR_MERGE:          4
cpu0->cpu0_L1I LOAD         ACCESS:    7084730 HIT:    7084717 MISS:         13 MSHR_MERGE:          4
cpu0->cpu0_L1I RFO          ACCESS:          0 HIT:          0 MISS:          0 MSHR_MERGE:          0
cpu0->cpu0_L1I PREFETCH     ACCESS:          0 HIT:          0 MISS:          0 MSHR_MERGE:          0
cpu0->cpu0_L1I WRITE        ACCESS:          0 HIT:          0 MISS:          0 MSHR_MERGE:          0
cpu0->cpu0_L1I TRANSLATION  ACCESS:          0 HIT:          0 MISS:          0 MSHR_MERGE:          0
cpu0->cpu0_L1I PREFETCH REQUESTED:          0 ISSUED:          0 USEFUL:          0 USELESS:          0 LATE:          0
cpu0->cpu0_L1I AVERAGE MISS LATENCY: 307.1 cycles
cpu0->cpu0_L1D TOTAL        ACCESS:   12493755 HIT:   11152849 MISS:    1340906 MSHR_MERGE:     996044
cpu0->cpu0_L1D LOAD         ACCESS:   11177661 HIT:   11139129 MISS:      38532 MSHR_MERGE:      33600
cpu0->cpu0_L1D RFO          ACCESS:          0 HIT:          0 MISS:          0 MSHR_MERGE:          0
cpu0->cpu0_L1D PREFETCH     ACCESS:     197472 HIT:       1975 MISS:     195497 MSHR_MERGE:        449
cpu0->cpu0_L1D WRITE        ACCESS:    1107636 HIT:       1466 MISS:    1106170 MSHR_MERGE:     961995
cpu0->cpu0_L1D TRANSLATION  ACCESS:      10986 HIT:      10279 MISS:        707 MSHR_MERGE:          0
cpu0->cpu0_L1D PREFETCH REQUESTED:     197464 ISSUED:     197464 USEFUL:     194735 USELESS:        304 LATE:       5869
cpu0->cpu0_L1D AVERAGE MISS LATENCY: 329.6 cycles
cpu0->cpu0_ITLB TOTAL        ACCESS:    6319648 HIT:    6319648 MISS:          0 MSHR_MERGE:          0
cpu0->cpu0_ITLB LOAD         ACCESS:    6319648 HIT:    6319648 MISS:          0 MSHR_MERGE:          0
cpu0->cpu0_ITLB RFO          ACCESS:          0 HIT:          0 MISS:          0 MSHR_MERGE:          0
cpu0->cpu0_ITLB PREFETCH     ACCESS:          0 HIT:          0 MISS:          0 MSHR_MERGE:          0
cpu0->cpu0_ITLB WRITE        ACCESS:          0 HIT:          0 MISS:          0 MSHR_MERGE:          0
cpu0->cpu0_ITLB TRANSLATION  ACCESS:          0 HIT:          0 MISS:          0 MSHR_MERGE:          0
cpu0->cpu0_ITLB PREFETCH REQUESTED:          0 ISSUED:          0 USEFUL:          0 USELESS:          0 LATE:          0
cpu0->cpu0_ITLB AVERAGE MISS LATENCY: - cycles
cpu0->cpu0_DTLB TOTAL        ACCESS:   11548550 HIT:   11500226 MISS:      48324 MSHR_MERGE:      42770
cpu0->cpu0_DTLB LOAD         ACCESS:   11548550 HIT:   11500226 MISS:      48324 MSHR_MERGE:      42770
cpu0->cpu0_DTLB RFO          ACCESS:          0 HIT:          0 MISS:          0 MSHR_MERGE:          0
cpu0->cpu0_DTLB PREFETCH     ACCESS:          0 HIT:          0 MISS:          0 MSHR_MERGE:          0
cpu0->cpu0_DTLB WRITE        ACCESS:          0 HIT:          0 MISS:          0 MSHR_MERGE:          0
cpu0->cpu0_DTLB TRANSLATION  ACCESS:          0 HIT:          0 MISS:          0 MSHR_MERGE:          0
cpu0->cpu0_DTLB PREFETCH REQUESTED:          0 ISSUED:          0 USEFUL:          0 USELESS:          0 LATE:          0
cpu0->cpu0_DTLB AVERAGE MISS LATENCY: 210.7 cycles
cpu0->LLC TOTAL        ACCESS:     490764 HIT:      78395 MISS:     412369 MSHR_MERGE:          0
cpu0->LLC LOAD         ACCESS:       3302 HIT:          0 MISS:       3302 MSHR_MERGE:          0
cpu0->LLC RFO          ACCESS:     144175 HIT:          0 MISS:     144175 MSHR_MERGE:          0
cpu0->LLC PREFETCH     ACCESS:     197202 HIT:        353 MISS:     196849 MSHR_MERGE:          0
cpu0->LLC WRITE        ACCESS:     145378 HIT:      78042 MISS:      67336 MSHR_MERGE:          0
cpu0->LLC TRANSLATION  ACCESS:        707 HIT:          0 MISS:        707 MSHR_MERGE:          0
cpu0->LLC PREFETCH REQUESTED:          0 ISSUED:          0 USEFUL:          0 USELESS:          0 LATE:          0
cpu0->LLC AVERAGE MISS LATENCY: 218.5 cycles

DRAM Statistics

Channel 0 RQ ROW_BUFFER_HIT:       7299
  ROW_BUFFER_MISS:     337713
  AVG DBUS CONGESTED CYCLE: 6.649
Channel 0 WQ ROW_BUFFER_HIT:      18652
  ROW_BUFFER_MISS:     121744
  FULL:          0
Channel 0 REFRESHES ISSUED:       1252

[ROI Statistics]
[System Configuration]
num_cpus 1
cpu_freq 4000
fetch_width 6
decode_width 6
dispatch_width 6
execute_width 6
lq_width 2
sq_width 2
retire_width 6
scheduler_size 128
branch_mispredict_penalty 15
rob_size 352
lq_size 128
sq_size 72
ifetch_buffer_size 64
decode_buffer_size 32
dispatch_buffer_size 32
register_file_size 288
decode_latency 1
dispatch_latency 1
schedule_latency 1
execute_latency 1
page_size 4096
block_size 64
core_0_itlb_set 16
core_0_itlb_way 4
core_0_itlb_rq_size 16
core_0_itlb_wq_size 16
core_0_itlb_pq_size 0
core_0_itlb_mshr_size 8
core_0_itlb_hit_latency 1
core_0_itlb_fill_latency 1
core_0_itlb_max_tag_check 2
core_0_itlb_max_fill 2
core_0_dtlb_set 16
core_0_dtlb_way 4
core_0_dtlb_rq_size 16
core_0_dtlb_wq_size 16
core_0_dtlb_pq_size 0
core_0_dtlb_mshr_size 8
core_0_dtlb_hit_latency 1
core_0_dtlb_fill_latency 1
core_0_dtlb_max_tag_check 2
core_0_dtlb_max_fill 2
core_0_stlb_set 128
core_0_stlb_way 12
core_0_stlb_rq_size 32
core_0_stlb_wq_size 32
core_0_stlb_pq_size 0
core_0_stlb_mshr_size 16
core_0_stlb_hit_latency 4
core_0_stlb_fill_latency 4
core_0_stlb_max_tag_check 1
core_0_stlb_max_fill 1
core_0_l1i_set 64
core_0_l1i_way 8
core_0_l1i_rq_size 64
core_0_l1i_wq_size 64
core_0_l1i_pq_size 32
core_0_l1i_mshr_size 8
core_0_l1i_hit_latency 2
core_0_l1i_fill_latency 2
core_0_l1i_max_tag_check 2
core_0_l1i_max_fill 2
core_0_l1d_set 64
core_0_l1d_way 12
core_0_l1d_rq_size 64
core_0_l1d_wq_size 64
core_0_l1d_pq_size 8
core_0_l1d_mshr_size 16
core_0_l1d_hit_latency 2
core_0_l1d_fill_latency 3
core_0_l1d_max_tag_check 2
core_0_l1d_max_fill 2
core_0_l2c_set 1024
core_0_l2c_way 8
core_0_l2c_rq_size 32
core_0_l2c_wq_size 32
core_0_l2c_pq_size 16
core_0_l2c_mshr_size 32
core_0_l2c_hit_latency 5
core_0_l2c_fill_latency 5
core_0_l2c_max_tag_check 1
core_0_l2c_max_fill 1
llc_set 2048
llc_way 16
llc_rq_size 32
llc_wq_size 32
llc_pq_size 32
llc_mshr_size 64
llc_hit_latency 10
llc_fill_latency 10
llc_max_tag_check 1
llc_max_fill 1
dram_channels 1
dram_ranks 1
dram_bankgroups 8
dram_banks 4
dram_rows 65536
dram_columns 1024
dram_channel_width 8
dram_rq_size 64
dram_wq_size 64
dram_size 17179869184
core_0_itlb_prefetcher no
core_0_dtlb_prefetcher no
core_0_stlb_prefetcher no
core_0_l1i_prefetcher next_line
core_0_l1d_prefetcher berti
core_0_l2c_prefetcher pythia
llc_prefetcher no
llc_replacement drrip

Core_0_instructions 50000004
Core_0_cycles 15022603
Core_0_IPC 3.32832
Core_0_branch_prediction_accuracy 99.1969
Core_0_branch_MPKI 0.18382
Core_0_average_ROB_occupancy_at_mispredict 348.689

Core_0_ITLB_total_access 6319648
Core_0_ITLB_total_hit 6319648
Core_0_ITLB_total_miss 0
Core_0_ITLB_total_MPKI 0
Core_0_ITLB_total_miss_rate 0
Core_0_ITLB_demand_access 6319648
Core_0_ITLB_demand_hit 6319648
Core_0_ITLB_demand_miss 0
Core_0_ITLB_demand_MPKI 0
Core_0_ITLB_demand_miss_rate 0
Core_0_ITLB_load_access 6319648
Core_0_ITLB_load_hit 6319648
Core_0_ITLB_load_miss 0
Core_0_ITLB_load_MPKI 0
Core_0_ITLB_load_miss_rate 0
Core_0_ITLB_rfo_access 0
Core_0_ITLB_rfo_hit 0
Core_0_ITLB_rfo_miss 0
Core_0_ITLB_rfo_MPKI 0
Core_0_ITLB_rfo_miss_rate 0
Core_0_ITLB_prefetch_access 0
Core_0_ITLB_prefetch_hit 0
Core_0_ITLB_prefetch_miss 0
Core_0_ITLB_prefetch_MPKI 0
Core_0_ITLB_prefetch_miss_rate 0
Core_0_ITLB_writeback_access 0
Core_0_ITLB_writeback_hit 0
Core_0_ITLB_writeback_miss 0
Core_0_ITLB_writeback_MPKI 0
Core_0_ITLB_writeback_miss_rate 0
Core_0_ITLB_prefetch_requested 0
Core_0_ITLB_prefetch_issued 0
Core_0_ITLB_prefetch_useful 0
Core_0_ITLB_prefetch_useless 0
Core_0_ITLB_prefetch_late 0
Core_0_ITLB_prefetch_accuracy 0
Core_0_ITLB_prefetch_coverage 0

Core_0_DTLB_total_access 11548550
Core_0_DTLB_total_hit 11500226
Core_0_DTLB_total_miss 48324
Core_0_DTLB_total_MPKI 0.96648
Core_0_DTLB_total_miss_rate 0.00418442
Core_0_DTLB_demand_access 11548550
Core_0_DTLB_demand_hit 11500226
Core_0_DTLB_demand_miss 48324
Core_0_DTLB_demand_MPKI 0.96648
Core_0_DTLB_demand_miss_rate 0.00418442
Core_0_DTLB_load_access 11548550
Core_0_DTLB_load_hit 11500226
Core_0_DTLB_load_miss 48324
Core_0_DTLB_load_MPKI 0.96648
Core_0_DTLB_load_miss_rate 0.00418442
Core_0_DTLB_rfo_access 0
Core_0_DTLB_rfo_hit 0
Core_0_DTLB_rfo_miss 0
Core_0_DTLB_rfo_MPKI 0
Core_0_DTLB_rfo_miss_rate 0
Core_0_DTLB_prefetch_access 0
Core_0_DTLB_prefetch_hit 0
Core_0_DTLB_prefetch_miss 0
Core_0_DTLB_prefetch_MPKI 0
Core_0_DTLB_prefetch_miss_rate 0
Core_0_DTLB_writeback_access 0
Core_0_DTLB_writeback_hit 0
Core_0_DTLB_writeback_miss 0
Core_0_DTLB_writeback_MPKI 0
Core_0_DTLB_writeback_miss_rate 0
Core_0_DTLB_prefetch_requested 0
Core_0_DTLB_prefetch_issued 0
Core_0_DTLB_prefetch_useful 0
Core_0_DTLB_prefetch_useless 0
Core_0_DTLB_prefetch_late 0
Core_0_DTLB_prefetch_accuracy 0
Core_0_DTLB_prefetch_coverage 0

Core_0_STLB_total_access 5554
Core_0_STLB_total_hit 66
Core_0_STLB_total_miss 5488
Core_0_STLB_total_MPKI 0.10976
Core_0_STLB_total_miss_rate 0.988117
Core_0_STLB_demand_access 5554
Core_0_STLB_demand_hit 66
Core_0_STLB_demand_miss 5488
Core_0_STLB_demand_MPKI 0.10976
Core_0_STLB_demand_miss_rate 0.988117
Core_0_STLB_load_access 5554
Core_0_STLB_load_hit 66
Core_0_STLB_load_miss 5488
Core_0_STLB_load_MPKI 0.10976
Core_0_STLB_load_miss_rate 0.988117
Core_0_STLB_rfo_access 0
Core_0_STLB_rfo_hit 0
Core_0_STLB_rfo_miss 0
Core_0_STLB_rfo_MPKI 0
Core_0_STLB_rfo_miss_rate 0
Core_0_STLB_prefetch_access 0
Core_0_STLB_prefetch_hit 0
Core_0_STLB_prefetch_miss 0
Core_0_STLB_prefetch_MPKI 0
Core_0_STLB_prefetch_miss_rate 0
Core_0_STLB_writeback_access 0
Core_0_STLB_writeback_hit 0
Core_0_STLB_writeback_miss 0
Core_0_STLB_writeback_MPKI 0
Core_0_STLB_writeback_miss_rate 0
Core_0_STLB_prefetch_requested 0
Core_0_STLB_prefetch_issued 0
Core_0_STLB_prefetch_useful 0
Core_0_STLB_prefetch_useless 0
Core_0_STLB_prefetch_late 0
Core_0_STLB_prefetch_accuracy 0
Core_0_STLB_prefetch_coverage 0

Core_0_L1I_total_access 7084730
Core_0_L1I_total_hit 7084717
Core_0_L1I_total_miss 13
Core_0_L1I_total_MPKI 0.00026
Core_0_L1I_total_miss_rate 1.83493e-06
Core_0_L1I_demand_access 7084730
Core_0_L1I_demand_hit 7084717
Core_0_L1I_demand_miss 13
Core_0_L1I_demand_MPKI 0.00026
Core_0_L1I_demand_miss_rate 1.83493e-06
Core_0_L1I_load_access 7084730
Core_0_L1I_load_hit 7084717
Core_0_L1I_load_miss 13
Core_0_L1I_load_MPKI 0.00026
Core_0_L1I_load_miss_rate 1.83493e-06
Core_0_L1I_rfo_access 0
Core_0_L1I_rfo_hit 0
Core_0_L1I_rfo_miss 0
Core_0_L1I_rfo_MPKI 0
Core_0_L1I_rfo_miss_rate 0
Core_0_L1I_prefetch_access 0
Core_0_L1I_prefetch_hit 0
Core_0_L1I_prefetch_miss 0
Core_0_L1I_prefetch_MPKI 0
Core_0_L1I_prefetch_miss_rate 0
Core_0_L1I_writeback_access 0
Core_0_L1I_writeback_hit 0
Core_0_L1I_writeback_miss 0
Core_0_L1I_writeback_MPKI 0
Core_0_L1I_writeback_miss_rate 0
Core_0_L1I_prefetch_requested 0
Core_0_L1I_prefetch_issued 0
Core_0_L1I_prefetch_useful 0
Core_0_L1I_prefetch_useless 0
Core_0_L1I_prefetch_late 0
Core_0_L1I_prefetch_accuracy 0
Core_0_L1I_prefetch_coverage 0

Core_0_L1D_total_access 12482769
Core_0_L1D_total_hit 11142570
Core_0_L1D_total_miss 1340199
Core_0_L1D_total_MPKI 26.804
Core_0_L1D_total_miss_rate 0.107364
Core_0_L1D_demand_access 11177661
Core_0_L1D_demand_hit 11139129
Core_0_L1D_demand_miss 38532
Core_0_L1D_demand_MPKI 0.77064
Core_0_L1D_demand_miss_rate 0.00344723
Core_0_L1D_load_access 11177661
Core_0_L1D_load_hit 11139129
Core_0_L1D_load_miss 38532
Core_0_L1D_load_MPKI 0.77064
Core_0_L1D_load_miss_rate 0.00344723
Core_0_L1D_rfo_access 0
Core_0_L1D_rfo_hit 0
Core_0_L1D_rfo_miss 0
Core_0_L1D_rfo_MPKI 0
Core_0_L1D_rfo_miss_rate 0
Core_0_L1D_prefetch_access 197472
Core_0_L1D_prefetch_hit 1975
Core_0_L1D_prefetch_miss 195497
Core_0_L1D_prefetch_MPKI 3.90994
Core_0_L1D_prefetch_miss_rate 0.989999
Core_0_L1D_writeback_access 1107636
Core_0_L1D_writeback_hit 1466
Core_0_L1D_writeback_miss 1106170
Core_0_L1D_writeback_MPKI 22.1234
Core_0_L1D_writeback_miss_rate 0.998676
Core_0_L1D_prefetch_requested 197464
Core_0_L1D_prefetch_issued 197464
Core_0_L1D_prefetch_useful 194735
Core_0_L1D_prefetch_useless 304
Core_0_L1D_prefetch_late 5869
Core_0_L1D_prefetch_accuracy 0.98618
Core_0_L1D_prefetch_coverage 0.834816

Core_0_L2C_total_access 1513537
Core_0_L2C_total_hit 610761
Core_0_L2C_total_miss 902776
Core_0_L2C_total_MPKI 18.0555
Core_0_L2C_total_miss_rate 0.596468
Core_0_L2C_demand_access 149116
Core_0_L2C_demand_hit 1527
Core_0_L2C_demand_miss 147589
Core_0_L2C_demand_MPKI 2.95178
Core_0_L2C_demand_miss_rate 0.98976
Core_0_L2C_load_access 4941
Core_0_L2C_load_hit 1527
Core_0_L2C_load_miss 3414
Core_0_L2C_load_MPKI 0.06828
Core_0_L2C_load_miss_rate 0.690953
Core_0_L2C_rfo_access 144175
Core_0_L2C_rfo_hit 0
Core_0_L2C_rfo_miss 144175
Core_0_L2C_rfo_MPKI 2.8835
Core_0_L2C_rfo_miss_rate 1
Core_0_L2C_prefetch_access 1220138
Core_0_L2C_prefetch_hit 464951
Core_0_L2C_prefetch_miss 755187
Core_0_L2C_prefetch_MPKI 15.1037
Core_0_L2C_prefetch_miss_rate 0.618936
Core_0_L2C_writeback_access 144283
Core_0_L2C_writeback_hit 144283
Core_0_L2C_writeback_miss 0
Core_0_L2C_writeback_MPKI 0
Core_0_L2C_writeback_miss_rate 0
Core_0_L2C_prefetch_requested 1025114
Core_0_L2C_prefetch_issued 1025096
Core_0_L2C_prefetch_useful 149652
Core_0_L2C_prefetch_useless 37060
Core_0_L2C_prefetch_late 112
Core_0_L2C_prefetch_accuracy 0.145988
Core_0_L2C_prefetch_coverage 0.50347

Core_0_LLC_total_access 490057
Core_0_LLC_total_hit 78395
Core_0_LLC_total_miss 411662
Core_0_LLC_total_MPKI 8.23324
Core_0_LLC_total_miss_rate 0.840029
Core_0_LLC_demand_access 147477
Core_0_LLC_demand_hit 0
Core_0_LLC_demand_miss 147477
Core_0_LLC_demand_MPKI 2.94954
Core_0_LLC_demand_miss_rate 1
Core_0_LLC_load_access 3302
Core_0_LLC_load_hit 0
Core_0_LLC_load_miss 3302
Core_0_LLC_load_MPKI 0.06604
Core_0_LLC_load_miss_rate 1
Core_0_LLC_rfo_access 144175
Core_0_LLC_rfo_hit 0
Core_0_LLC_rfo_miss 144175
Core_0_LLC_rfo_MPKI 2.8835
Core_0_LLC_rfo_miss_rate 1
Core_0_LLC_prefetch_access 197202
Core_0_LLC_prefetch_hit 353
Core_0_LLC_prefetch_miss 196849
Core_0_LLC_prefetch_MPKI 3.93698
Core_0_LLC_prefetch_miss_rate 0.99821
Core_0_LLC_writeback_access 145378
Core_0_LLC_writeback_hit 78042
Core_0_LLC_writeback_miss 67336
Core_0_LLC_writeback_MPKI 1.34672
Core_0_LLC_writeback_miss_rate 0.463179
Core_0_LLC_prefetch_requested 0
Core_0_LLC_prefetch_issued 0
Core_0_LLC_prefetch_useful 0
Core_0_LLC_prefetch_useless 0
Core_0_LLC_prefetch_late 0
Core_0_LLC_prefetch_accuracy 0
Core_0_LLC_prefetch_coverage 0

[DRAM Statistics]
Channel_0_RQ_row_buffer_hit 7299
Channel_0_RQ_row_buffer_miss 337713
Channel_0_WQ_row_buffer_hit 18652
Channel_0_WQ_row_buffer_miss 121744
Channel_0_WQ_full 0
Channel_0_dbus_congested 1265895
DRAM_total_RQ_row_buffer_hit 7299
DRAM_total_RQ_row_buffer_miss 337713
DRAM_total_WQ_row_buffer_hit 18652
DRAM_total_WQ_row_buffer_miss 121744
DRAM_total_WQ_full 0
DRAM_total_dbus_congested 1265895
DRAM_avg_congested_cycle 6.64939

======STLB miss causes ========
Core_0_STLB_miss_cause_breakdown
Core_0_STLB_cause_Demand_Data_miss 5389
Core_0_STLB_cause_Demand_Data_miss_rate 0.970292
Core_0_STLB_cause_Demand_Instruction_miss 0
Core_0_STLB_cause_Demand_Instruction_miss_rate 0
Core_0_STLB_cause_L1D_Prefetch_miss 99
Core_0_STLB_cause_L1D_Prefetch_miss_rate 0.017825
Core_0_STLB_cause_L1I_Prefetch_miss 0
Core_0_STLB_cause_L1I_Prefetch_miss_rate 0
Core_0_STLB_cause_Other_miss 0
Core_0_STLB_cause_Other_miss_rate 0
Core_0_STLB_Demand_miss 5389
Core_0_STLB_Demand_miss_rate 0.970292
Core_0_STLB_L1D_Prefetch_miss 99
Core_0_STLB_L1D_Prefetch_miss_rate 0.017825
Core_0_STLB_Other_miss 0
Core_0_STLB_Other_miss_rate 0
