[VMEM] WARNING: physical memory size is smaller than virtual memory size.

*** ChampSim Multicore Out-of-Order Simulator ***
Warmup Instructions: 20000000
Simulation Instructions: 50000000
Number of CPUs: 1
Page size: 4096
Core 0: /data0/tzh/champsim_traces/SPEC06/445.gobmk-17B.champsimtrace.xz
 L1D Berti prefetcher
Off-chip DRAM Size: 16 GiB Channels: 1 Width: 64-bit Data Rate: 3205 MT/s
Warmup halting CPU 0 at instruction 20000000 cycle 4757931 for remainder of phase
Warmup finished CPU 0 instructions: 20000000 cycles: 4757931 cumulative IPC: 4.204 (Simulation time: 00 hr 01 min 26 sec)
Warmup complete CPU 0 instructions: 20000000 cycles: 4757931 cumulative IPC: 4.204 (Simulation time: 00 hr 01 min 26 sec)
Simulation finished CPU 0 instructions: 50000003 cycles: 27151087 cumulative IPC: 1.842 (Simulation time: 00 hr 06 min 37 sec)
Simulation complete CPU 0 instructions: 50000003 cycles: 27151087 cumulative IPC: 1.842 (Simulation time: 00 hr 06 min 37 sec)

ChampSim completed all CPUs

=== Simulation ===
CPU 0 runs /data0/tzh/champsim_traces/SPEC06/445.gobmk-17B.champsimtrace.xz

Region of Interest Statistics

CPU 0 cumulative IPC: 1.842 instructions: 50000003 cycles: 27151087
CPU 0 Branch Prediction Accuracy: 96.52% MPKI: 6.162 Average ROB Occupancy at Mispredict: 54.93
Branch type MPKI
BRANCH_DIRECT_JUMP: 0.03078
BRANCH_INDIRECT: 0
BRANCH_CONDITIONAL: 6.066
BRANCH_DIRECT_CALL: 0.0645
BRANCH_INDIRECT_CALL: 0.00028
BRANCH_RETURN: 0.00064

cpu0->cpu0_STLB TOTAL        ACCESS:       5984 HIT:       5759 MISS:        225 MSHR_MERGE:          0
cpu0->cpu0_STLB LOAD         ACCESS:       5984 HIT:       5759 MISS:        225 MSHR_MERGE:          0
cpu0->cpu0_STLB RFO          ACCESS:          0 HIT:          0 MISS:          0 MSHR_MERGE:          0
cpu0->cpu0_STLB PREFETCH     ACCESS:          0 HIT:          0 MISS:          0 MSHR_MERGE:          0
cpu0->cpu0_STLB WRITE        ACCESS:          0 HIT:          0 MISS:          0 MSHR_MERGE:          0
cpu0->cpu0_STLB TRANSLATION  ACCESS:          0 HIT:          0 MISS:          0 MSHR_MERGE:          0
cpu0->cpu0_STLB PREFETCH REQUESTED:          0 ISSUED:          0 USEFUL:          0 USELESS:          0 LATE:          0
cpu0->cpu0_STLB AVERAGE MISS LATENCY: 151.9 cycles
cpu0->cpu0_L2C TOTAL        ACCESS:     289680 HIT:     277706 MISS:      11974 MSHR_MERGE:       1543
cpu0->cpu0_L2C LOAD         ACCESS:     135715 HIT:     133225 MISS:       2490 MSHR_MERGE:         31
cpu0->cpu0_L2C RFO          ACCESS:      39184 HIT:      38470 MISS:        714 MSHR_MERGE:          1
cpu0->cpu0_L2C PREFETCH     ACCESS:      62884 HIT:      54262 MISS:       8622 MSHR_MERGE:       1511
cpu0->cpu0_L2C WRITE        ACCESS:      51686 HIT:      51671 MISS:         15 MSHR_MERGE:          0
cpu0->cpu0_L2C TRANSLATION  ACCESS:        211 HIT:         78 MISS:        133 MSHR_MERGE:          0
cpu0->cpu0_L2C PREFETCH REQUESTED:      41186 ISSUED:      40147 USEFUL:       3055 USELESS:       2884 LATE:         32
cpu0->cpu0_L2C AVERAGE MISS LATENCY: 77.95 cycles
cpu0->cpu0_L1I TOTAL        ACCESS:    7668925 HIT:    7498398 MISS:     170527 MSHR_MERGE:      51835
cpu0->cpu0_L1I LOAD         ACCESS:    7668925 HIT:    7498398 MISS:     170527 MSHR_MERGE:      51835
cpu0->cpu0_L1I RFO          ACCESS:          0 HIT:          0 MISS:          0 MSHR_MERGE:          0
cpu0->cpu0_L1I PREFETCH     ACCESS:          0 HIT:          0 MISS:          0 MSHR_MERGE:          0
cpu0->cpu0_L1I WRITE        ACCESS:          0 HIT:          0 MISS:          0 MSHR_MERGE:          0
cpu0->cpu0_L1I TRANSLATION  ACCESS:          0 HIT:          0 MISS:          0 MSHR_MERGE:          0
cpu0->cpu0_L1I PREFETCH REQUESTED:          0 ISSUED:          0 USEFUL:          0 USELESS:          0 LATE:          0
cpu0->cpu0_L1I AVERAGE MISS LATENCY: 7.27 cycles
cpu0->cpu0_L1D TOTAL        ACCESS:   14883587 HIT:   14740151 MISS:     143436 MSHR_MERGE:      64278
cpu0->cpu0_L1D LOAD         ACCESS:    6755430 HIT:    6732101 MISS:      23329 MSHR_MERGE:       6304
cpu0->cpu0_L1D RFO          ACCESS:          0 HIT:          0 MISS:          0 MSHR_MERGE:          0
cpu0->cpu0_L1D PREFETCH     ACCESS:     115438 HIT:      91576 MISS:      23862 MSHR_MERGE:       1125
cpu0->cpu0_L1D WRITE        ACCESS:    8012269 HIT:    7916235 MISS:      96034 MSHR_MERGE:      56849
cpu0->cpu0_L1D TRANSLATION  ACCESS:        450 HIT:        239 MISS:        211 MSHR_MERGE:          0
cpu0->cpu0_L1D PREFETCH REQUESTED:     126843 ISSUED:     115434 USEFUL:      11432 USELESS:      11292 LATE:        834
cpu0->cpu0_L1D AVERAGE MISS LATENCY: 12.27 cycles
cpu0->cpu0_ITLB TOTAL        ACCESS:    6426372 HIT:    6426347 MISS:         25 MSHR_MERGE:         17
cpu0->cpu0_ITLB LOAD         ACCESS:    6426372 HIT:    6426347 MISS:         25 MSHR_MERGE:         17
cpu0->cpu0_ITLB RFO          ACCESS:          0 HIT:          0 MISS:          0 MSHR_MERGE:          0
cpu0->cpu0_ITLB PREFETCH     ACCESS:          0 HIT:          0 MISS:          0 MSHR_MERGE:          0
cpu0->cpu0_ITLB WRITE        ACCESS:          0 HIT:          0 MISS:          0 MSHR_MERGE:          0
cpu0->cpu0_ITLB TRANSLATION  ACCESS:          0 HIT:          0 MISS:          0 MSHR_MERGE:          0
cpu0->cpu0_ITLB PREFETCH REQUESTED:          0 ISSUED:          0 USEFUL:          0 USELESS:          0 LATE:          0
cpu0->cpu0_ITLB AVERAGE MISS LATENCY: 176.2 cycles
cpu0->cpu0_DTLB TOTAL        ACCESS:   13995148 HIT:   13984666 MISS:      10482 MSHR_MERGE:       4506
cpu0->cpu0_DTLB LOAD         ACCESS:   13995148 HIT:   13984666 MISS:      10482 MSHR_MERGE:       4506
cpu0->cpu0_DTLB RFO          ACCESS:          0 HIT:          0 MISS:          0 MSHR_MERGE:          0
cpu0->cpu0_DTLB PREFETCH     ACCESS:          0 HIT:          0 MISS:          0 MSHR_MERGE:          0
cpu0->cpu0_DTLB WRITE        ACCESS:          0 HIT:          0 MISS:          0 MSHR_MERGE:          0
cpu0->cpu0_DTLB TRANSLATION  ACCESS:          0 HIT:          0 MISS:          0 MSHR_MERGE:          0
cpu0->cpu0_DTLB PREFETCH REQUESTED:          0 ISSUED:          0 USEFUL:          0 USELESS:          0 LATE:          0
cpu0->cpu0_DTLB AVERAGE MISS LATENCY: 10.53 cycles
cpu0->LLC TOTAL        ACCESS:      12823 HIT:       8803 MISS:       4020 MSHR_MERGE:          0
cpu0->LLC LOAD         ACCESS:       2459 HIT:       1215 MISS:       1244 MSHR_MERGE:          0
cpu0->LLC RFO          ACCESS:        713 HIT:        631 MISS:         82 MSHR_MERGE:          0
cpu0->LLC PREFETCH     ACCESS:       7111 HIT:       4441 MISS:       2670 MSHR_MERGE:          0
cpu0->LLC WRITE        ACCESS:       2407 HIT:       2388 MISS:         19 MSHR_MERGE:          0
cpu0->LLC TRANSLATION  ACCESS:        133 HIT:        128 MISS:          5 MSHR_MERGE:          0
cpu0->LLC PREFETCH REQUESTED:          0 ISSUED:          0 USEFUL:          0 USELESS:          0 LATE:          0
cpu0->LLC AVERAGE MISS LATENCY: 155.6 cycles

DRAM Statistics

Channel 0 RQ ROW_BUFFER_HIT:         39
  ROW_BUFFER_MISS:       3962
  AVG DBUS CONGESTED CYCLE: 2.469
Channel 0 WQ ROW_BUFFER_HIT:          0
  ROW_BUFFER_MISS:          7
  FULL:          0
Channel 0 REFRESHES ISSUED:       2263

[ROI Statistics]
[System Configuration]
num_cpus 1
cpu_freq 4000
fetch_width 6
decode_width 6
dispatch_width 6
execute_width 6
lq_width 2
sq_width 2
retire_width 6
scheduler_size 128
branch_mispredict_penalty 15
rob_size 352
lq_size 128
sq_size 72
ifetch_buffer_size 64
decode_buffer_size 32
dispatch_buffer_size 32
register_file_size 288
decode_latency 1
dispatch_latency 1
schedule_latency 1
execute_latency 1
page_size 4096
block_size 64
core_0_itlb_set 16
core_0_itlb_way 4
core_0_itlb_rq_size 16
core_0_itlb_wq_size 16
core_0_itlb_pq_size 0
core_0_itlb_mshr_size 8
core_0_itlb_hit_latency 1
core_0_itlb_fill_latency 1
core_0_itlb_max_tag_check 2
core_0_itlb_max_fill 2
core_0_dtlb_set 16
core_0_dtlb_way 4
core_0_dtlb_rq_size 16
core_0_dtlb_wq_size 16
core_0_dtlb_pq_size 0
core_0_dtlb_mshr_size 8
core_0_dtlb_hit_latency 1
core_0_dtlb_fill_latency 1
core_0_dtlb_max_tag_check 2
core_0_dtlb_max_fill 2
core_0_stlb_set 128
core_0_stlb_way 12
core_0_stlb_rq_size 32
core_0_stlb_wq_size 32
core_0_stlb_pq_size 0
core_0_stlb_mshr_size 16
core_0_stlb_hit_latency 4
core_0_stlb_fill_latency 4
core_0_stlb_max_tag_check 1
core_0_stlb_max_fill 1
core_0_l1i_set 64
core_0_l1i_way 8
core_0_l1i_rq_size 64
core_0_l1i_wq_size 64
core_0_l1i_pq_size 32
core_0_l1i_mshr_size 8
core_0_l1i_hit_latency 2
core_0_l1i_fill_latency 2
core_0_l1i_max_tag_check 2
core_0_l1i_max_fill 2
core_0_l1d_set 64
core_0_l1d_way 12
core_0_l1d_rq_size 64
core_0_l1d_wq_size 64
core_0_l1d_pq_size 8
core_0_l1d_mshr_size 16
core_0_l1d_hit_latency 2
core_0_l1d_fill_latency 3
core_0_l1d_max_tag_check 2
core_0_l1d_max_fill 2
core_0_l2c_set 1024
core_0_l2c_way 8
core_0_l2c_rq_size 32
core_0_l2c_wq_size 32
core_0_l2c_pq_size 16
core_0_l2c_mshr_size 32
core_0_l2c_hit_latency 5
core_0_l2c_fill_latency 5
core_0_l2c_max_tag_check 1
core_0_l2c_max_fill 1
llc_set 2048
llc_way 16
llc_rq_size 32
llc_wq_size 32
llc_pq_size 32
llc_mshr_size 64
llc_hit_latency 10
llc_fill_latency 10
llc_max_tag_check 1
llc_max_fill 1
dram_channels 1
dram_ranks 1
dram_bankgroups 8
dram_banks 4
dram_rows 65536
dram_columns 1024
dram_channel_width 8
dram_rq_size 64
dram_wq_size 64
dram_size 17179869184
core_0_itlb_prefetcher no
core_0_dtlb_prefetcher no
core_0_stlb_prefetcher no
core_0_l1i_prefetcher next_line
core_0_l1d_prefetcher berti
core_0_l2c_prefetcher pythia
llc_prefetcher no
llc_replacement drrip

Core_0_instructions 50000003
Core_0_cycles 27151087
Core_0_IPC 1.84155
Core_0_branch_prediction_accuracy 96.522
Core_0_branch_MPKI 6.16218
Core_0_average_ROB_occupancy_at_mispredict 54.9326

Core_0_ITLB_total_access 6426372
Core_0_ITLB_total_hit 6426347
Core_0_ITLB_total_miss 25
Core_0_ITLB_total_MPKI 0.0005
Core_0_ITLB_total_miss_rate 3.89022e-06
Core_0_ITLB_demand_access 6426372
Core_0_ITLB_demand_hit 6426347
Core_0_ITLB_demand_miss 25
Core_0_ITLB_demand_MPKI 0.0005
Core_0_ITLB_demand_miss_rate 3.89022e-06
Core_0_ITLB_load_access 6426372
Core_0_ITLB_load_hit 6426347
Core_0_ITLB_load_miss 25
Core_0_ITLB_load_MPKI 0.0005
Core_0_ITLB_load_miss_rate 3.89022e-06
Core_0_ITLB_rfo_access 0
Core_0_ITLB_rfo_hit 0
Core_0_ITLB_rfo_miss 0
Core_0_ITLB_rfo_MPKI 0
Core_0_ITLB_rfo_miss_rate 0
Core_0_ITLB_prefetch_access 0
Core_0_ITLB_prefetch_hit 0
Core_0_ITLB_prefetch_miss 0
Core_0_ITLB_prefetch_MPKI 0
Core_0_ITLB_prefetch_miss_rate 0
Core_0_ITLB_writeback_access 0
Core_0_ITLB_writeback_hit 0
Core_0_ITLB_writeback_miss 0
Core_0_ITLB_writeback_MPKI 0
Core_0_ITLB_writeback_miss_rate 0
Core_0_ITLB_prefetch_requested 0
Core_0_ITLB_prefetch_issued 0
Core_0_ITLB_prefetch_useful 0
Core_0_ITLB_prefetch_useless 0
Core_0_ITLB_prefetch_late 0
Core_0_ITLB_prefetch_accuracy 0
Core_0_ITLB_prefetch_coverage 0

Core_0_DTLB_total_access 13995148
Core_0_DTLB_total_hit 13984666
Core_0_DTLB_total_miss 10482
Core_0_DTLB_total_MPKI 0.20964
Core_0_DTLB_total_miss_rate 0.000748974
Core_0_DTLB_demand_access 13995148
Core_0_DTLB_demand_hit 13984666
Core_0_DTLB_demand_miss 10482
Core_0_DTLB_demand_MPKI 0.20964
Core_0_DTLB_demand_miss_rate 0.000748974
Core_0_DTLB_load_access 13995148
Core_0_DTLB_load_hit 13984666
Core_0_DTLB_load_miss 10482
Core_0_DTLB_load_MPKI 0.20964
Core_0_DTLB_load_miss_rate 0.000748974
Core_0_DTLB_rfo_access 0
Core_0_DTLB_rfo_hit 0
Core_0_DTLB_rfo_miss 0
Core_0_DTLB_rfo_MPKI 0
Core_0_DTLB_rfo_miss_rate 0
Core_0_DTLB_prefetch_access 0
Core_0_DTLB_prefetch_hit 0
Core_0_DTLB_prefetch_miss 0
Core_0_DTLB_prefetch_MPKI 0
Core_0_DTLB_prefetch_miss_rate 0
Core_0_DTLB_writeback_access 0
Core_0_DTLB_writeback_hit 0
Core_0_DTLB_writeback_miss 0
Core_0_DTLB_writeback_MPKI 0
Core_0_DTLB_writeback_miss_rate 0
Core_0_DTLB_prefetch_requested 0
Core_0_DTLB_prefetch_issued 0
Core_0_DTLB_prefetch_useful 0
Core_0_DTLB_prefetch_useless 0
Core_0_DTLB_prefetch_late 0
Core_0_DTLB_prefetch_accuracy 0
Core_0_DTLB_prefetch_coverage 0

Core_0_STLB_total_access 5984
Core_0_STLB_total_hit 5759
Core_0_STLB_total_miss 225
Core_0_STLB_total_MPKI 0.0045
Core_0_STLB_total_miss_rate 0.0376003
Core_0_STLB_demand_access 5984
Core_0_STLB_demand_hit 5759
Core_0_STLB_demand_miss 225
Core_0_STLB_demand_MPKI 0.0045
Core_0_STLB_demand_miss_rate 0.0376003
Core_0_STLB_load_access 5984
Core_0_STLB_load_hit 5759
Core_0_STLB_load_miss 225
Core_0_STLB_load_MPKI 0.0045
Core_0_STLB_load_miss_rate 0.0376003
Core_0_STLB_rfo_access 0
Core_0_STLB_rfo_hit 0
Core_0_STLB_rfo_miss 0
Core_0_STLB_rfo_MPKI 0
Core_0_STLB_rfo_miss_rate 0
Core_0_STLB_prefetch_access 0
Core_0_STLB_prefetch_hit 0
Core_0_STLB_prefetch_miss 0
Core_0_STLB_prefetch_MPKI 0
Core_0_STLB_prefetch_miss_rate 0
Core_0_STLB_writeback_access 0
Core_0_STLB_writeback_hit 0
Core_0_STLB_writeback_miss 0
Core_0_STLB_writeback_MPKI 0
Core_0_STLB_writeback_miss_rate 0
Core_0_STLB_prefetch_requested 0
Core_0_STLB_prefetch_issued 0
Core_0_STLB_prefetch_useful 0
Core_0_STLB_prefetch_useless 0
Core_0_STLB_prefetch_late 0
Core_0_STLB_prefetch_accuracy 0
Core_0_STLB_prefetch_coverage 0

Core_0_L1I_total_access 7668925
Core_0_L1I_total_hit 7498398
Core_0_L1I_total_miss 170527
Core_0_L1I_total_MPKI 3.41054
Core_0_L1I_total_miss_rate 0.0222361
Core_0_L1I_demand_access 7668925
Core_0_L1I_demand_hit 7498398
Core_0_L1I_demand_miss 170527
Core_0_L1I_demand_MPKI 3.41054
Core_0_L1I_demand_miss_rate 0.0222361
Core_0_L1I_load_access 7668925
Core_0_L1I_load_hit 7498398
Core_0_L1I_load_miss 170527
Core_0_L1I_load_MPKI 3.41054
Core_0_L1I_load_miss_rate 0.0222361
Core_0_L1I_rfo_access 0
Core_0_L1I_rfo_hit 0
Core_0_L1I_rfo_miss 0
Core_0_L1I_rfo_MPKI 0
Core_0_L1I_rfo_miss_rate 0
Core_0_L1I_prefetch_access 0
Core_0_L1I_prefetch_hit 0
Core_0_L1I_prefetch_miss 0
Core_0_L1I_prefetch_MPKI 0
Core_0_L1I_prefetch_miss_rate 0
Core_0_L1I_writeback_access 0
Core_0_L1I_writeback_hit 0
Core_0_L1I_writeback_miss 0
Core_0_L1I_writeback_MPKI 0
Core_0_L1I_writeback_miss_rate 0
Core_0_L1I_prefetch_requested 0
Core_0_L1I_prefetch_issued 0
Core_0_L1I_prefetch_useful 0
Core_0_L1I_prefetch_useless 0
Core_0_L1I_prefetch_late 0
Core_0_L1I_prefetch_accuracy 0
Core_0_L1I_prefetch_coverage 0

Core_0_L1D_total_access 14883137
Core_0_L1D_total_hit 14739912
Core_0_L1D_total_miss 143225
Core_0_L1D_total_MPKI 2.8645
Core_0_L1D_total_miss_rate 0.00962331
Core_0_L1D_demand_access 6755430
Core_0_L1D_demand_hit 6732101
Core_0_L1D_demand_miss 23329
Core_0_L1D_demand_MPKI 0.46658
Core_0_L1D_demand_miss_rate 0.00345337
Core_0_L1D_load_access 6755430
Core_0_L1D_load_hit 6732101
Core_0_L1D_load_miss 23329
Core_0_L1D_load_MPKI 0.46658
Core_0_L1D_load_miss_rate 0.00345337
Core_0_L1D_rfo_access 0
Core_0_L1D_rfo_hit 0
Core_0_L1D_rfo_miss 0
Core_0_L1D_rfo_MPKI 0
Core_0_L1D_rfo_miss_rate 0
Core_0_L1D_prefetch_access 115438
Core_0_L1D_prefetch_hit 91576
Core_0_L1D_prefetch_miss 23862
Core_0_L1D_prefetch_MPKI 0.47724
Core_0_L1D_prefetch_miss_rate 0.206708
Core_0_L1D_writeback_access 8012269
Core_0_L1D_writeback_hit 7916235
Core_0_L1D_writeback_miss 96034
Core_0_L1D_writeback_MPKI 1.92068
Core_0_L1D_writeback_miss_rate 0.0119859
Core_0_L1D_prefetch_requested 126843
Core_0_L1D_prefetch_issued 115434
Core_0_L1D_prefetch_useful 11432
Core_0_L1D_prefetch_useless 11292
Core_0_L1D_prefetch_late 834
Core_0_L1D_prefetch_accuracy 0.0990349
Core_0_L1D_prefetch_coverage 0.328874

Core_0_L2C_total_access 289469
Core_0_L2C_total_hit 277628
Core_0_L2C_total_miss 11841
Core_0_L2C_total_MPKI 0.23682
Core_0_L2C_total_miss_rate 0.0409059
Core_0_L2C_demand_access 174899
Core_0_L2C_demand_hit 171695
Core_0_L2C_demand_miss 3204
Core_0_L2C_demand_MPKI 0.06408
Core_0_L2C_demand_miss_rate 0.0183191
Core_0_L2C_load_access 135715
Core_0_L2C_load_hit 133225
Core_0_L2C_load_miss 2490
Core_0_L2C_load_MPKI 0.0498
Core_0_L2C_load_miss_rate 0.0183473
Core_0_L2C_rfo_access 39184
Core_0_L2C_rfo_hit 38470
Core_0_L2C_rfo_miss 714
Core_0_L2C_rfo_MPKI 0.01428
Core_0_L2C_rfo_miss_rate 0.0182217
Core_0_L2C_prefetch_access 62884
Core_0_L2C_prefetch_hit 54262
Core_0_L2C_prefetch_miss 8622
Core_0_L2C_prefetch_MPKI 0.17244
Core_0_L2C_prefetch_miss_rate 0.13711
Core_0_L2C_writeback_access 51686
Core_0_L2C_writeback_hit 51671
Core_0_L2C_writeback_miss 15
Core_0_L2C_writeback_MPKI 0.0003
Core_0_L2C_writeback_miss_rate 0.000290214
Core_0_L2C_prefetch_requested 41186
Core_0_L2C_prefetch_issued 40147
Core_0_L2C_prefetch_useful 3055
Core_0_L2C_prefetch_useless 2884
Core_0_L2C_prefetch_late 32
Core_0_L2C_prefetch_accuracy 0.0760953
Core_0_L2C_prefetch_coverage 0.488097

Core_0_LLC_total_access 12690
Core_0_LLC_total_hit 8675
Core_0_LLC_total_miss 4015
Core_0_LLC_total_MPKI 0.0803
Core_0_LLC_total_miss_rate 0.316391
Core_0_LLC_demand_access 3172
Core_0_LLC_demand_hit 1846
Core_0_LLC_demand_miss 1326
Core_0_LLC_demand_MPKI 0.02652
Core_0_LLC_demand_miss_rate 0.418033
Core_0_LLC_load_access 2459
Core_0_LLC_load_hit 1215
Core_0_LLC_load_miss 1244
Core_0_LLC_load_MPKI 0.02488
Core_0_LLC_load_miss_rate 0.505897
Core_0_LLC_rfo_access 713
Core_0_LLC_rfo_hit 631
Core_0_LLC_rfo_miss 82
Core_0_LLC_rfo_MPKI 0.00164
Core_0_LLC_rfo_miss_rate 0.115007
Core_0_LLC_prefetch_access 7111
Core_0_LLC_prefetch_hit 4441
Core_0_LLC_prefetch_miss 2670
Core_0_LLC_prefetch_MPKI 0.0534
Core_0_LLC_prefetch_miss_rate 0.375475
Core_0_LLC_writeback_access 2407
Core_0_LLC_writeback_hit 2388
Core_0_LLC_writeback_miss 19
Core_0_LLC_writeback_MPKI 0.00038
Core_0_LLC_writeback_miss_rate 0.00789364
Core_0_LLC_prefetch_requested 0
Core_0_LLC_prefetch_issued 0
Core_0_LLC_prefetch_useful 0
Core_0_LLC_prefetch_useless 0
Core_0_LLC_prefetch_late 0
Core_0_LLC_prefetch_accuracy 0
Core_0_LLC_prefetch_coverage 0

[DRAM Statistics]
Channel_0_RQ_row_buffer_hit 39
Channel_0_RQ_row_buffer_miss 3962
Channel_0_WQ_row_buffer_hit 0
Channel_0_WQ_row_buffer_miss 7
Channel_0_WQ_full 0
Channel_0_dbus_congested 3190
DRAM_total_RQ_row_buffer_hit 39
DRAM_total_RQ_row_buffer_miss 3962
DRAM_total_WQ_row_buffer_hit 0
DRAM_total_WQ_row_buffer_miss 7
DRAM_total_WQ_full 0
DRAM_total_dbus_congested 3190
DRAM_avg_congested_cycle 2.46865

======STLB miss causes ========
Core_0_STLB_miss_cause_breakdown
Core_0_STLB_cause_Demand_Data_miss 198
Core_0_STLB_cause_Demand_Data_miss_rate 0.0330882
Core_0_STLB_cause_Demand_Instruction_miss 7
Core_0_STLB_cause_Demand_Instruction_miss_rate 0.00116979
Core_0_STLB_cause_L1D_Prefetch_miss 20
Core_0_STLB_cause_L1D_Prefetch_miss_rate 0.00334225
Core_0_STLB_cause_L1I_Prefetch_miss 0
Core_0_STLB_cause_L1I_Prefetch_miss_rate 0
Core_0_STLB_cause_Other_miss 0
Core_0_STLB_cause_Other_miss_rate 0
Core_0_STLB_Demand_miss 205
Core_0_STLB_Demand_miss_rate 0.034258
Core_0_STLB_L1D_Prefetch_miss 20
Core_0_STLB_L1D_Prefetch_miss_rate 0.00334225
Core_0_STLB_Other_miss 0
Core_0_STLB_Other_miss_rate 0
