[VMEM] WARNING: physical memory size is smaller than virtual memory size.

*** ChampSim Multicore Out-of-Order Simulator ***
Warmup Instructions: 20000000
Simulation Instructions: 50000000
Number of CPUs: 1
Page size: 4096
Core 0: /data0/tzh/champsim_traces/SPEC06/464.h264ref-64B.champsimtrace.xz
 L1D Berti prefetcher
Off-chip DRAM Size: 16 GiB Channels: 1 Width: 64-bit Data Rate: 3205 MT/s
Warmup halting CPU 0 at instruction 20000003 cycle 4474794 for remainder of phase
Warmup finished CPU 0 instructions: 20000003 cycles: 4474794 cumulative IPC: 4.469 (Simulation time: 00 hr 01 min 03 sec)
Warmup complete CPU 0 instructions: 20000003 cycles: 4474794 cumulative IPC: 4.469 (Simulation time: 00 hr 01 min 03 sec)
Simulation finished CPU 0 instructions: 50000003 cycles: 16446067 cumulative IPC: 3.04 (Simulation time: 00 hr 05 min 29 sec)
Simulation complete CPU 0 instructions: 50000003 cycles: 16446067 cumulative IPC: 3.04 (Simulation time: 00 hr 05 min 29 sec)

ChampSim completed all CPUs

=== Simulation ===
CPU 0 runs /data0/tzh/champsim_traces/SPEC06/464.h264ref-64B.champsimtrace.xz

Region of Interest Statistics

CPU 0 cumulative IPC: 3.04 instructions: 50000003 cycles: 16446067
CPU 0 Branch Prediction Accuracy: 99.24% MPKI: 0.8675 Average ROB Occupancy at Mispredict: 139
Branch type MPKI
BRANCH_DIRECT_JUMP: 0.0114
BRANCH_INDIRECT: 0.00068
BRANCH_CONDITIONAL: 0.6584
BRANCH_DIRECT_CALL: 0.1951
BRANCH_INDIRECT_CALL: 0.00058
BRANCH_RETURN: 0.00138

cpu0->cpu0_STLB TOTAL        ACCESS:      12367 HIT:      12012 MISS:        355 MSHR_MERGE:          0
cpu0->cpu0_STLB LOAD         ACCESS:      12367 HIT:      12012 MISS:        355 MSHR_MERGE:          0
cpu0->cpu0_STLB RFO          ACCESS:          0 HIT:          0 MISS:          0 MSHR_MERGE:          0
cpu0->cpu0_STLB PREFETCH     ACCESS:          0 HIT:          0 MISS:          0 MSHR_MERGE:          0
cpu0->cpu0_STLB WRITE        ACCESS:          0 HIT:          0 MISS:          0 MSHR_MERGE:          0
cpu0->cpu0_STLB TRANSLATION  ACCESS:          0 HIT:          0 MISS:          0 MSHR_MERGE:          0
cpu0->cpu0_STLB PREFETCH REQUESTED:          0 ISSUED:          0 USEFUL:          0 USELESS:          0 LATE:          0
cpu0->cpu0_STLB AVERAGE MISS LATENCY: 233.2 cycles
cpu0->cpu0_L2C TOTAL        ACCESS:     515109 HIT:     394492 MISS:     120617 MSHR_MERGE:      34103
cpu0->cpu0_L2C LOAD         ACCESS:      29091 HIT:      22858 MISS:       6233 MSHR_MERGE:        352
cpu0->cpu0_L2C RFO          ACCESS:      32367 HIT:       2921 MISS:      29446 MSHR_MERGE:         79
cpu0->cpu0_L2C PREFETCH     ACCESS:     420008 HIT:     335256 MISS:      84752 MSHR_MERGE:      33672
cpu0->cpu0_L2C WRITE        ACCESS:      33503 HIT:      33448 MISS:         55 MSHR_MERGE:          0
cpu0->cpu0_L2C TRANSLATION  ACCESS:        140 HIT:          9 MISS:        131 MSHR_MERGE:          0
cpu0->cpu0_L2C PREFETCH REQUESTED:     360826 ISSUED:     354477 USEFUL:      30602 USELESS:      16401 LATE:        431
cpu0->cpu0_L2C AVERAGE MISS LATENCY: 105.5 cycles
cpu0->cpu0_L1I TOTAL        ACCESS:    4768709 HIT:    4764655 MISS:       4054 MSHR_MERGE:       1859
cpu0->cpu0_L1I LOAD         ACCESS:    4768709 HIT:    4764655 MISS:       4054 MSHR_MERGE:       1859
cpu0->cpu0_L1I RFO          ACCESS:          0 HIT:          0 MISS:          0 MSHR_MERGE:          0
cpu0->cpu0_L1I PREFETCH     ACCESS:          0 HIT:          0 MISS:          0 MSHR_MERGE:          0
cpu0->cpu0_L1I WRITE        ACCESS:          0 HIT:          0 MISS:          0 MSHR_MERGE:          0
cpu0->cpu0_L1I TRANSLATION  ACCESS:          0 HIT:          0 MISS:          0 MSHR_MERGE:          0
cpu0->cpu0_L1I PREFETCH REQUESTED:          0 ISSUED:          0 USEFUL:          0 USELESS:          0 LATE:          0
cpu0->cpu0_L1I AVERAGE MISS LATENCY: 115.3 cycles
cpu0->cpu0_L1D TOTAL        ACCESS:   13141397 HIT:   12734233 MISS:     407164 MSHR_MERGE:     282230
cpu0->cpu0_L1D LOAD         ACCESS:    9139797 HIT:    9070688 MISS:      69109 MSHR_MERGE:      42213
cpu0->cpu0_L1D RFO          ACCESS:          0 HIT:          0 MISS:          0 MSHR_MERGE:          0
cpu0->cpu0_L1D PREFETCH     ACCESS:      98786 HIT:      31963 MISS:      66823 MSHR_MERGE:       1292
cpu0->cpu0_L1D WRITE        ACCESS:    3902132 HIT:    3631067 MISS:     271065 MSHR_MERGE:     238698
cpu0->cpu0_L1D TRANSLATION  ACCESS:        682 HIT:        515 MISS:        167 MSHR_MERGE:         27
cpu0->cpu0_L1D PREFETCH REQUESTED:     105547 ISSUED:      98786 USEFUL:      56581 USELESS:       8947 LATE:       2175
cpu0->cpu0_L1D AVERAGE MISS LATENCY: 68.03 cycles
cpu0->cpu0_ITLB TOTAL        ACCESS:    4203429 HIT:    4203414 MISS:         15 MSHR_MERGE:          8
cpu0->cpu0_ITLB LOAD         ACCESS:    4203429 HIT:    4203414 MISS:         15 MSHR_MERGE:          8
cpu0->cpu0_ITLB RFO          ACCESS:          0 HIT:          0 MISS:          0 MSHR_MERGE:          0
cpu0->cpu0_ITLB PREFETCH     ACCESS:          0 HIT:          0 MISS:          0 MSHR_MERGE:          0
cpu0->cpu0_ITLB WRITE        ACCESS:          0 HIT:          0 MISS:          0 MSHR_MERGE:          0
cpu0->cpu0_ITLB TRANSLATION  ACCESS:          0 HIT:          0 MISS:          0 MSHR_MERGE:          0
cpu0->cpu0_ITLB PREFETCH REQUESTED:          0 ISSUED:          0 USEFUL:          0 USELESS:          0 LATE:          0
cpu0->cpu0_ITLB AVERAGE MISS LATENCY: 10.14 cycles
cpu0->cpu0_DTLB TOTAL        ACCESS:   12328672 HIT:   12309306 MISS:      19366 MSHR_MERGE:       7006
cpu0->cpu0_DTLB LOAD         ACCESS:   12328672 HIT:   12309306 MISS:      19366 MSHR_MERGE:       7006
cpu0->cpu0_DTLB RFO          ACCESS:          0 HIT:          0 MISS:          0 MSHR_MERGE:          0
cpu0->cpu0_DTLB PREFETCH     ACCESS:          0 HIT:          0 MISS:          0 MSHR_MERGE:          0
cpu0->cpu0_DTLB WRITE        ACCESS:          0 HIT:          0 MISS:          0 MSHR_MERGE:          0
cpu0->cpu0_DTLB TRANSLATION  ACCESS:          0 HIT:          0 MISS:          0 MSHR_MERGE:          0
cpu0->cpu0_DTLB PREFETCH REQUESTED:          0 ISSUED:          0 USEFUL:          0 USELESS:          0 LATE:          0
cpu0->cpu0_DTLB AVERAGE MISS LATENCY: 11.72 cycles
cpu0->LLC TOTAL        ACCESS:     117057 HIT:      66253 MISS:      50804 MSHR_MERGE:          0
cpu0->LLC LOAD         ACCESS:       5881 HIT:       2411 MISS:       3470 MSHR_MERGE:          0
cpu0->LLC RFO          ACCESS:      29367 HIT:      16543 MISS:      12824 MSHR_MERGE:          0
cpu0->LLC PREFETCH     ACCESS:      51080 HIT:      26967 MISS:      24113 MSHR_MERGE:          0
cpu0->LLC WRITE        ACCESS:      30598 HIT:      20277 MISS:      10321 MSHR_MERGE:          0
cpu0->LLC TRANSLATION  ACCESS:        131 HIT:         55 MISS:         76 MSHR_MERGE:          0
cpu0->LLC PREFETCH REQUESTED:          0 ISSUED:          0 USEFUL:          0 USELESS:          0 LATE:          0
cpu0->LLC AVERAGE MISS LATENCY: 122.6 cycles

DRAM Statistics

Channel 0 RQ ROW_BUFFER_HIT:       2544
  ROW_BUFFER_MISS:      37936
  AVG DBUS CONGESTED CYCLE: 10.41
Channel 0 WQ ROW_BUFFER_HIT:       1325
  ROW_BUFFER_MISS:       7604
  FULL:          0
Channel 0 REFRESHES ISSUED:       1371

[ROI Statistics]
[System Configuration]
num_cpus 1
cpu_freq 4000
fetch_width 6
decode_width 6
dispatch_width 6
execute_width 6
lq_width 2
sq_width 2
retire_width 6
scheduler_size 128
branch_mispredict_penalty 15
rob_size 352
lq_size 128
sq_size 72
ifetch_buffer_size 64
decode_buffer_size 32
dispatch_buffer_size 32
register_file_size 288
decode_latency 1
dispatch_latency 1
schedule_latency 1
execute_latency 1
page_size 4096
block_size 64
core_0_itlb_set 16
core_0_itlb_way 4
core_0_itlb_rq_size 16
core_0_itlb_wq_size 16
core_0_itlb_pq_size 0
core_0_itlb_mshr_size 8
core_0_itlb_hit_latency 1
core_0_itlb_fill_latency 1
core_0_itlb_max_tag_check 2
core_0_itlb_max_fill 2
core_0_dtlb_set 16
core_0_dtlb_way 4
core_0_dtlb_rq_size 16
core_0_dtlb_wq_size 16
core_0_dtlb_pq_size 0
core_0_dtlb_mshr_size 8
core_0_dtlb_hit_latency 1
core_0_dtlb_fill_latency 1
core_0_dtlb_max_tag_check 2
core_0_dtlb_max_fill 2
core_0_stlb_set 128
core_0_stlb_way 12
core_0_stlb_rq_size 32
core_0_stlb_wq_size 32
core_0_stlb_pq_size 0
core_0_stlb_mshr_size 16
core_0_stlb_hit_latency 4
core_0_stlb_fill_latency 4
core_0_stlb_max_tag_check 1
core_0_stlb_max_fill 1
core_0_l1i_set 64
core_0_l1i_way 8
core_0_l1i_rq_size 64
core_0_l1i_wq_size 64
core_0_l1i_pq_size 32
core_0_l1i_mshr_size 8
core_0_l1i_hit_latency 2
core_0_l1i_fill_latency 2
core_0_l1i_max_tag_check 2
core_0_l1i_max_fill 2
core_0_l1d_set 64
core_0_l1d_way 12
core_0_l1d_rq_size 64
core_0_l1d_wq_size 64
core_0_l1d_pq_size 8
core_0_l1d_mshr_size 16
core_0_l1d_hit_latency 2
core_0_l1d_fill_latency 3
core_0_l1d_max_tag_check 2
core_0_l1d_max_fill 2
core_0_l2c_set 1024
core_0_l2c_way 8
core_0_l2c_rq_size 32
core_0_l2c_wq_size 32
core_0_l2c_pq_size 16
core_0_l2c_mshr_size 32
core_0_l2c_hit_latency 5
core_0_l2c_fill_latency 5
core_0_l2c_max_tag_check 1
core_0_l2c_max_fill 1
llc_set 2048
llc_way 16
llc_rq_size 32
llc_wq_size 32
llc_pq_size 32
llc_mshr_size 64
llc_hit_latency 10
llc_fill_latency 10
llc_max_tag_check 1
llc_max_fill 1
dram_channels 1
dram_ranks 1
dram_bankgroups 8
dram_banks 4
dram_rows 65536
dram_columns 1024
dram_channel_width 8
dram_rq_size 64
dram_wq_size 64
dram_size 17179869184
core_0_itlb_prefetcher no
core_0_dtlb_prefetcher no
core_0_stlb_prefetcher no
core_0_l1i_prefetcher next_line
core_0_l1d_prefetcher berti
core_0_l2c_prefetcher pythia
llc_prefetcher no
llc_replacement drrip

Core_0_instructions 50000003
Core_0_cycles 16446067
Core_0_IPC 3.04024
Core_0_branch_prediction_accuracy 99.2417
Core_0_branch_MPKI 0.86746
Core_0_average_ROB_occupancy_at_mispredict 139.024

Core_0_ITLB_total_access 4203429
Core_0_ITLB_total_hit 4203414
Core_0_ITLB_total_miss 15
Core_0_ITLB_total_MPKI 0.0003
Core_0_ITLB_total_miss_rate 3.56852e-06
Core_0_ITLB_demand_access 4203429
Core_0_ITLB_demand_hit 4203414
Core_0_ITLB_demand_miss 15
Core_0_ITLB_demand_MPKI 0.0003
Core_0_ITLB_demand_miss_rate 3.56852e-06
Core_0_ITLB_load_access 4203429
Core_0_ITLB_load_hit 4203414
Core_0_ITLB_load_miss 15
Core_0_ITLB_load_MPKI 0.0003
Core_0_ITLB_load_miss_rate 3.56852e-06
Core_0_ITLB_rfo_access 0
Core_0_ITLB_rfo_hit 0
Core_0_ITLB_rfo_miss 0
Core_0_ITLB_rfo_MPKI 0
Core_0_ITLB_rfo_miss_rate 0
Core_0_ITLB_prefetch_access 0
Core_0_ITLB_prefetch_hit 0
Core_0_ITLB_prefetch_miss 0
Core_0_ITLB_prefetch_MPKI 0
Core_0_ITLB_prefetch_miss_rate 0
Core_0_ITLB_writeback_access 0
Core_0_ITLB_writeback_hit 0
Core_0_ITLB_writeback_miss 0
Core_0_ITLB_writeback_MPKI 0
Core_0_ITLB_writeback_miss_rate 0
Core_0_ITLB_prefetch_requested 0
Core_0_ITLB_prefetch_issued 0
Core_0_ITLB_prefetch_useful 0
Core_0_ITLB_prefetch_useless 0
Core_0_ITLB_prefetch_late 0
Core_0_ITLB_prefetch_accuracy 0
Core_0_ITLB_prefetch_coverage 0

Core_0_DTLB_total_access 12328672
Core_0_DTLB_total_hit 12309306
Core_0_DTLB_total_miss 19366
Core_0_DTLB_total_MPKI 0.38732
Core_0_DTLB_total_miss_rate 0.00157081
Core_0_DTLB_demand_access 12328672
Core_0_DTLB_demand_hit 12309306
Core_0_DTLB_demand_miss 19366
Core_0_DTLB_demand_MPKI 0.38732
Core_0_DTLB_demand_miss_rate 0.00157081
Core_0_DTLB_load_access 12328672
Core_0_DTLB_load_hit 12309306
Core_0_DTLB_load_miss 19366
Core_0_DTLB_load_MPKI 0.38732
Core_0_DTLB_load_miss_rate 0.00157081
Core_0_DTLB_rfo_access 0
Core_0_DTLB_rfo_hit 0
Core_0_DTLB_rfo_miss 0
Core_0_DTLB_rfo_MPKI 0
Core_0_DTLB_rfo_miss_rate 0
Core_0_DTLB_prefetch_access 0
Core_0_DTLB_prefetch_hit 0
Core_0_DTLB_prefetch_miss 0
Core_0_DTLB_prefetch_MPKI 0
Core_0_DTLB_prefetch_miss_rate 0
Core_0_DTLB_writeback_access 0
Core_0_DTLB_writeback_hit 0
Core_0_DTLB_writeback_miss 0
Core_0_DTLB_writeback_MPKI 0
Core_0_DTLB_writeback_miss_rate 0
Core_0_DTLB_prefetch_requested 0
Core_0_DTLB_prefetch_issued 0
Core_0_DTLB_prefetch_useful 0
Core_0_DTLB_prefetch_useless 0
Core_0_DTLB_prefetch_late 0
Core_0_DTLB_prefetch_accuracy 0
Core_0_DTLB_prefetch_coverage 0

Core_0_STLB_total_access 12367
Core_0_STLB_total_hit 12012
Core_0_STLB_total_miss 355
Core_0_STLB_total_MPKI 0.0071
Core_0_STLB_total_miss_rate 0.0287054
Core_0_STLB_demand_access 12367
Core_0_STLB_demand_hit 12012
Core_0_STLB_demand_miss 355
Core_0_STLB_demand_MPKI 0.0071
Core_0_STLB_demand_miss_rate 0.0287054
Core_0_STLB_load_access 12367
Core_0_STLB_load_hit 12012
Core_0_STLB_load_miss 355
Core_0_STLB_load_MPKI 0.0071
Core_0_STLB_load_miss_rate 0.0287054
Core_0_STLB_rfo_access 0
Core_0_STLB_rfo_hit 0
Core_0_STLB_rfo_miss 0
Core_0_STLB_rfo_MPKI 0
Core_0_STLB_rfo_miss_rate 0
Core_0_STLB_prefetch_access 0
Core_0_STLB_prefetch_hit 0
Core_0_STLB_prefetch_miss 0
Core_0_STLB_prefetch_MPKI 0
Core_0_STLB_prefetch_miss_rate 0
Core_0_STLB_writeback_access 0
Core_0_STLB_writeback_hit 0
Core_0_STLB_writeback_miss 0
Core_0_STLB_writeback_MPKI 0
Core_0_STLB_writeback_miss_rate 0
Core_0_STLB_prefetch_requested 0
Core_0_STLB_prefetch_issued 0
Core_0_STLB_prefetch_useful 0
Core_0_STLB_prefetch_useless 0
Core_0_STLB_prefetch_late 0
Core_0_STLB_prefetch_accuracy 0
Core_0_STLB_prefetch_coverage 0

Core_0_L1I_total_access 4768709
Core_0_L1I_total_hit 4764655
Core_0_L1I_total_miss 4054
Core_0_L1I_total_MPKI 0.08108
Core_0_L1I_total_miss_rate 0.000850125
Core_0_L1I_demand_access 4768709
Core_0_L1I_demand_hit 4764655
Core_0_L1I_demand_miss 4054
Core_0_L1I_demand_MPKI 0.08108
Core_0_L1I_demand_miss_rate 0.000850125
Core_0_L1I_load_access 4768709
Core_0_L1I_load_hit 4764655
Core_0_L1I_load_miss 4054
Core_0_L1I_load_MPKI 0.08108
Core_0_L1I_load_miss_rate 0.000850125
Core_0_L1I_rfo_access 0
Core_0_L1I_rfo_hit 0
Core_0_L1I_rfo_miss 0
Core_0_L1I_rfo_MPKI 0
Core_0_L1I_rfo_miss_rate 0
Core_0_L1I_prefetch_access 0
Core_0_L1I_prefetch_hit 0
Core_0_L1I_prefetch_miss 0
Core_0_L1I_prefetch_MPKI 0
Core_0_L1I_prefetch_miss_rate 0
Core_0_L1I_writeback_access 0
Core_0_L1I_writeback_hit 0
Core_0_L1I_writeback_miss 0
Core_0_L1I_writeback_MPKI 0
Core_0_L1I_writeback_miss_rate 0
Core_0_L1I_prefetch_requested 0
Core_0_L1I_prefetch_issued 0
Core_0_L1I_prefetch_useful 0
Core_0_L1I_prefetch_useless 0
Core_0_L1I_prefetch_late 0
Core_0_L1I_prefetch_accuracy 0
Core_0_L1I_prefetch_coverage 0

Core_0_L1D_total_access 13140715
Core_0_L1D_total_hit 12733718
Core_0_L1D_total_miss 406997
Core_0_L1D_total_MPKI 8.13994
Core_0_L1D_total_miss_rate 0.0309722
Core_0_L1D_demand_access 9139797
Core_0_L1D_demand_hit 9070688
Core_0_L1D_demand_miss 69109
Core_0_L1D_demand_MPKI 1.38218
Core_0_L1D_demand_miss_rate 0.00756133
Core_0_L1D_load_access 9139797
Core_0_L1D_load_hit 9070688
Core_0_L1D_load_miss 69109
Core_0_L1D_load_MPKI 1.38218
Core_0_L1D_load_miss_rate 0.00756133
Core_0_L1D_rfo_access 0
Core_0_L1D_rfo_hit 0
Core_0_L1D_rfo_miss 0
Core_0_L1D_rfo_MPKI 0
Core_0_L1D_rfo_miss_rate 0
Core_0_L1D_prefetch_access 98786
Core_0_L1D_prefetch_hit 31963
Core_0_L1D_prefetch_miss 66823
Core_0_L1D_prefetch_MPKI 1.33646
Core_0_L1D_prefetch_miss_rate 0.676442
Core_0_L1D_writeback_access 3902132
Core_0_L1D_writeback_hit 3631067
Core_0_L1D_writeback_miss 271065
Core_0_L1D_writeback_MPKI 5.4213
Core_0_L1D_writeback_miss_rate 0.0694659
Core_0_L1D_prefetch_requested 105547
Core_0_L1D_prefetch_issued 98786
Core_0_L1D_prefetch_useful 56581
Core_0_L1D_prefetch_useless 8947
Core_0_L1D_prefetch_late 2175
Core_0_L1D_prefetch_accuracy 0.572763
Core_0_L1D_prefetch_coverage 0.450163

Core_0_L2C_total_access 514969
Core_0_L2C_total_hit 394483
Core_0_L2C_total_miss 120486
Core_0_L2C_total_MPKI 2.40972
Core_0_L2C_total_miss_rate 0.233967
Core_0_L2C_demand_access 61458
Core_0_L2C_demand_hit 25779
Core_0_L2C_demand_miss 35679
Core_0_L2C_demand_MPKI 0.71358
Core_0_L2C_demand_miss_rate 0.580543
Core_0_L2C_load_access 29091
Core_0_L2C_load_hit 22858
Core_0_L2C_load_miss 6233
Core_0_L2C_load_MPKI 0.12466
Core_0_L2C_load_miss_rate 0.214259
Core_0_L2C_rfo_access 32367
Core_0_L2C_rfo_hit 2921
Core_0_L2C_rfo_miss 29446
Core_0_L2C_rfo_MPKI 0.58892
Core_0_L2C_rfo_miss_rate 0.909754
Core_0_L2C_prefetch_access 420008
Core_0_L2C_prefetch_hit 335256
Core_0_L2C_prefetch_miss 84752
Core_0_L2C_prefetch_MPKI 1.69504
Core_0_L2C_prefetch_miss_rate 0.201787
Core_0_L2C_writeback_access 33503
Core_0_L2C_writeback_hit 33448
Core_0_L2C_writeback_miss 55
Core_0_L2C_writeback_MPKI 0.0011
Core_0_L2C_writeback_miss_rate 0.00164164
Core_0_L2C_prefetch_requested 360826
Core_0_L2C_prefetch_issued 354477
Core_0_L2C_prefetch_useful 30602
Core_0_L2C_prefetch_useless 16401
Core_0_L2C_prefetch_late 431
Core_0_L2C_prefetch_accuracy 0.08633
Core_0_L2C_prefetch_coverage 0.461701

Core_0_LLC_total_access 116926
Core_0_LLC_total_hit 66198
Core_0_LLC_total_miss 50728
Core_0_LLC_total_MPKI 1.01456
Core_0_LLC_total_miss_rate 0.433847
Core_0_LLC_demand_access 35248
Core_0_LLC_demand_hit 18954
Core_0_LLC_demand_miss 16294
Core_0_LLC_demand_MPKI 0.32588
Core_0_LLC_demand_miss_rate 0.462267
Core_0_LLC_load_access 5881
Core_0_LLC_load_hit 2411
Core_0_LLC_load_miss 3470
Core_0_LLC_load_MPKI 0.0694
Core_0_LLC_load_miss_rate 0.590036
Core_0_LLC_rfo_access 29367
Core_0_LLC_rfo_hit 16543
Core_0_LLC_rfo_miss 12824
Core_0_LLC_rfo_MPKI 0.25648
Core_0_LLC_rfo_miss_rate 0.436681
Core_0_LLC_prefetch_access 51080
Core_0_LLC_prefetch_hit 26967
Core_0_LLC_prefetch_miss 24113
Core_0_LLC_prefetch_MPKI 0.48226
Core_0_LLC_prefetch_miss_rate 0.472063
Core_0_LLC_writeback_access 30598
Core_0_LLC_writeback_hit 20277
Core_0_LLC_writeback_miss 10321
Core_0_LLC_writeback_MPKI 0.20642
Core_0_LLC_writeback_miss_rate 0.33731
Core_0_LLC_prefetch_requested 0
Core_0_LLC_prefetch_issued 0
Core_0_LLC_prefetch_useful 0
Core_0_LLC_prefetch_useless 0
Core_0_LLC_prefetch_late 0
Core_0_LLC_prefetch_accuracy 0
Core_0_LLC_prefetch_coverage 0

[DRAM Statistics]
Channel_0_RQ_row_buffer_hit 2544
Channel_0_RQ_row_buffer_miss 37936
Channel_0_WQ_row_buffer_hit 1325
Channel_0_WQ_row_buffer_miss 7604
Channel_0_WQ_full 0
Channel_0_dbus_congested 88470
DRAM_total_RQ_row_buffer_hit 2544
DRAM_total_RQ_row_buffer_miss 37936
DRAM_total_WQ_row_buffer_hit 1325
DRAM_total_WQ_row_buffer_miss 7604
DRAM_total_WQ_full 0
DRAM_total_dbus_congested 88470
DRAM_avg_congested_cycle 10.4077

======STLB miss causes ========
Core_0_STLB_miss_cause_breakdown
Core_0_STLB_cause_Demand_Data_miss 297
Core_0_STLB_cause_Demand_Data_miss_rate 0.0240155
Core_0_STLB_cause_Demand_Instruction_miss 1
Core_0_STLB_cause_Demand_Instruction_miss_rate 8.08604e-05
Core_0_STLB_cause_L1D_Prefetch_miss 57
Core_0_STLB_cause_L1D_Prefetch_miss_rate 0.00460904
Core_0_STLB_cause_L1I_Prefetch_miss 0
Core_0_STLB_cause_L1I_Prefetch_miss_rate 0
Core_0_STLB_cause_Other_miss 0
Core_0_STLB_cause_Other_miss_rate 0
Core_0_STLB_Demand_miss 298
Core_0_STLB_Demand_miss_rate 0.0240964
Core_0_STLB_L1D_Prefetch_miss 57
Core_0_STLB_L1D_Prefetch_miss_rate 0.00460904
Core_0_STLB_Other_miss 0
Core_0_STLB_Other_miss_rate 0
