[VMEM] WARNING: physical memory size is smaller than virtual memory size.

*** ChampSim Multicore Out-of-Order Simulator ***
Warmup Instructions: 20000000
Simulation Instructions: 50000000
Number of CPUs: 1
Page size: 4096
Core 0: /data0/tzh/champsim_traces/SPEC06/481.wrf-196B.champsimtrace.xz
 L1D Berti prefetcher
Off-chip DRAM Size: 16 GiB Channels: 1 Width: 64-bit Data Rate: 3205 MT/s
Warmup halting CPU 0 at instruction 20000001 cycle 4263860 for remainder of phase
Warmup finished CPU 0 instructions: 20000001 cycles: 4263860 cumulative IPC: 4.691 (Simulation time: 00 hr 01 min 05 sec)
Warmup complete CPU 0 instructions: 20000001 cycles: 4263860 cumulative IPC: 4.691 (Simulation time: 00 hr 01 min 05 sec)
Simulation finished CPU 0 instructions: 50000000 cycles: 12255764 cumulative IPC: 4.08 (Simulation time: 00 hr 04 min 36 sec)
Simulation complete CPU 0 instructions: 50000000 cycles: 12255764 cumulative IPC: 4.08 (Simulation time: 00 hr 04 min 36 sec)

ChampSim completed all CPUs

=== Simulation ===
CPU 0 runs /data0/tzh/champsim_traces/SPEC06/481.wrf-196B.champsimtrace.xz

Region of Interest Statistics

CPU 0 cumulative IPC: 4.08 instructions: 50000000 cycles: 12255764
CPU 0 Branch Prediction Accuracy: 99.94% MPKI: 0.02318 Average ROB Occupancy at Mispredict: 232.1
Branch type MPKI
BRANCH_DIRECT_JUMP: 0.00064
BRANCH_INDIRECT: 0
BRANCH_CONDITIONAL: 0.02218
BRANCH_DIRECT_CALL: 0.00018
BRANCH_INDIRECT_CALL: 0
BRANCH_RETURN: 0.00018

cpu0->cpu0_STLB TOTAL        ACCESS:       3469 HIT:       1043 MISS:       2426 MSHR_MERGE:          0
cpu0->cpu0_STLB LOAD         ACCESS:       3469 HIT:       1043 MISS:       2426 MSHR_MERGE:          0
cpu0->cpu0_STLB RFO          ACCESS:          0 HIT:          0 MISS:          0 MSHR_MERGE:          0
cpu0->cpu0_STLB PREFETCH     ACCESS:          0 HIT:          0 MISS:          0 MSHR_MERGE:          0
cpu0->cpu0_STLB WRITE        ACCESS:          0 HIT:          0 MISS:          0 MSHR_MERGE:          0
cpu0->cpu0_STLB TRANSLATION  ACCESS:          0 HIT:          0 MISS:          0 MSHR_MERGE:          0
cpu0->cpu0_STLB PREFETCH REQUESTED:          0 ISSUED:          0 USEFUL:          0 USELESS:          0 LATE:          0
cpu0->cpu0_STLB AVERAGE MISS LATENCY: 235.6 cycles
cpu0->cpu0_L2C TOTAL        ACCESS:    2941024 HIT:    2453418 MISS:     487606 MSHR_MERGE:     300720
cpu0->cpu0_L2C LOAD         ACCESS:      20736 HIT:      15905 MISS:       4831 MSHR_MERGE:        693
cpu0->cpu0_L2C RFO          ACCESS:      28476 HIT:      27561 MISS:        915 MSHR_MERGE:          0
cpu0->cpu0_L2C PREFETCH     ACCESS:    2775031 HIT:    2293556 MISS:     481475 MSHR_MERGE:     300027
cpu0->cpu0_L2C WRITE        ACCESS:     116061 HIT:     116048 MISS:         13 MSHR_MERGE:          0
cpu0->cpu0_L2C TRANSLATION  ACCESS:        720 HIT:        348 MISS:        372 MSHR_MERGE:          0
cpu0->cpu0_L2C PREFETCH REQUESTED:    2379739 ISSUED:    2356061 USEFUL:     167909 USELESS:       7393 LATE:        693
cpu0->cpu0_L2C AVERAGE MISS LATENCY: 219.7 cycles
cpu0->cpu0_L1I TOTAL        ACCESS:    7787578 HIT:    7787198 MISS:        380 MSHR_MERGE:        101
cpu0->cpu0_L1I LOAD         ACCESS:    7787578 HIT:    7787198 MISS:        380 MSHR_MERGE:        101
cpu0->cpu0_L1I RFO          ACCESS:          0 HIT:          0 MISS:          0 MSHR_MERGE:          0
cpu0->cpu0_L1I PREFETCH     ACCESS:          0 HIT:          0 MISS:          0 MSHR_MERGE:          0
cpu0->cpu0_L1I WRITE        ACCESS:          0 HIT:          0 MISS:          0 MSHR_MERGE:          0
cpu0->cpu0_L1I TRANSLATION  ACCESS:          0 HIT:          0 MISS:          0 MSHR_MERGE:          0
cpu0->cpu0_L1I PREFETCH REQUESTED:          0 ISSUED:          0 USEFUL:          0 USELESS:          0 LATE:          0
cpu0->cpu0_L1I AVERAGE MISS LATENCY: 247.9 cycles
cpu0->cpu0_L1D TOTAL        ACCESS:   10382166 HIT:    9843930 MISS:     538236 MSHR_MERGE:      69606
cpu0->cpu0_L1D LOAD         ACCESS:    8115092 HIT:    8054512 MISS:      60580 MSHR_MERGE:      40123
cpu0->cpu0_L1D RFO          ACCESS:          0 HIT:          0 MISS:          0 MSHR_MERGE:          0
cpu0->cpu0_L1D PREFETCH     ACCESS:     435433 HIT:      15393 MISS:     420040 MSHR_MERGE:       1074
cpu0->cpu0_L1D WRITE        ACCESS:    1826776 HIT:    1769882 MISS:      56894 MSHR_MERGE:      28407
cpu0->cpu0_L1D TRANSLATION  ACCESS:       4865 HIT:       4143 MISS:        722 MSHR_MERGE:          2
cpu0->cpu0_L1D PREFETCH REQUESTED:     435557 ISSUED:     435433 USEFUL:     416496 USELESS:       2454 LATE:       4410
cpu0->cpu0_L1D AVERAGE MISS LATENCY: 38.99 cycles
cpu0->cpu0_ITLB TOTAL        ACCESS:    6269985 HIT:    6269925 MISS:         60 MSHR_MERGE:         38
cpu0->cpu0_ITLB LOAD         ACCESS:    6269985 HIT:    6269925 MISS:         60 MSHR_MERGE:         38
cpu0->cpu0_ITLB RFO          ACCESS:          0 HIT:          0 MISS:          0 MSHR_MERGE:          0
cpu0->cpu0_ITLB PREFETCH     ACCESS:          0 HIT:          0 MISS:          0 MSHR_MERGE:          0
cpu0->cpu0_ITLB WRITE        ACCESS:          0 HIT:          0 MISS:          0 MSHR_MERGE:          0
cpu0->cpu0_ITLB TRANSLATION  ACCESS:          0 HIT:          0 MISS:          0 MSHR_MERGE:          0
cpu0->cpu0_ITLB PREFETCH REQUESTED:          0 ISSUED:          0 USEFUL:          0 USELESS:          0 LATE:          0
cpu0->cpu0_ITLB AVERAGE MISS LATENCY: 333.9 cycles
cpu0->cpu0_DTLB TOTAL        ACCESS:    9814139 HIT:    9800756 MISS:      13383 MSHR_MERGE:       9936
cpu0->cpu0_DTLB LOAD         ACCESS:    9814139 HIT:    9800756 MISS:      13383 MSHR_MERGE:       9936
cpu0->cpu0_DTLB RFO          ACCESS:          0 HIT:          0 MISS:          0 MSHR_MERGE:          0
cpu0->cpu0_DTLB PREFETCH     ACCESS:          0 HIT:          0 MISS:          0 MSHR_MERGE:          0
cpu0->cpu0_DTLB WRITE        ACCESS:          0 HIT:          0 MISS:          0 MSHR_MERGE:          0
cpu0->cpu0_DTLB TRANSLATION  ACCESS:          0 HIT:          0 MISS:          0 MSHR_MERGE:          0
cpu0->cpu0_DTLB PREFETCH REQUESTED:          0 ISSUED:          0 USEFUL:          0 USELESS:          0 LATE:          0
cpu0->cpu0_DTLB AVERAGE MISS LATENCY: 169.4 cycles
cpu0->LLC TOTAL        ACCESS:     247268 HIT:      24179 MISS:     223089 MSHR_MERGE:          0
cpu0->LLC LOAD         ACCESS:       4138 HIT:        279 MISS:       3859 MSHR_MERGE:          0
cpu0->LLC RFO          ACCESS:        915 HIT:          2 MISS:        913 MSHR_MERGE:          0
cpu0->LLC PREFETCH     ACCESS:     181448 HIT:       3865 MISS:     177583 MSHR_MERGE:          0
cpu0->LLC WRITE        ACCESS:      60395 HIT:      20029 MISS:      40366 MSHR_MERGE:          0
cpu0->LLC TRANSLATION  ACCESS:        372 HIT:          4 MISS:        368 MSHR_MERGE:          0
cpu0->LLC PREFETCH REQUESTED:          0 ISSUED:          0 USEFUL:          0 USELESS:          0 LATE:          0
cpu0->LLC AVERAGE MISS LATENCY: 34.07 cycles

DRAM Statistics

Channel 0 RQ ROW_BUFFER_HIT:      20432
  ROW_BUFFER_MISS:     162289
  AVG DBUS CONGESTED CYCLE: 8.247
Channel 0 WQ ROW_BUFFER_HIT:       7948
  ROW_BUFFER_MISS:      33025
  FULL:          0
Channel 0 REFRESHES ISSUED:       1021

[ROI Statistics]
[System Configuration]
num_cpus 1
cpu_freq 4000
fetch_width 6
decode_width 6
dispatch_width 6
execute_width 6
lq_width 2
sq_width 2
retire_width 6
scheduler_size 128
branch_mispredict_penalty 15
rob_size 352
lq_size 128
sq_size 72
ifetch_buffer_size 64
decode_buffer_size 32
dispatch_buffer_size 32
register_file_size 288
decode_latency 1
dispatch_latency 1
schedule_latency 1
execute_latency 1
page_size 4096
block_size 64
core_0_itlb_set 16
core_0_itlb_way 4
core_0_itlb_rq_size 16
core_0_itlb_wq_size 16
core_0_itlb_pq_size 0
core_0_itlb_mshr_size 8
core_0_itlb_hit_latency 1
core_0_itlb_fill_latency 1
core_0_itlb_max_tag_check 2
core_0_itlb_max_fill 2
core_0_dtlb_set 16
core_0_dtlb_way 4
core_0_dtlb_rq_size 16
core_0_dtlb_wq_size 16
core_0_dtlb_pq_size 0
core_0_dtlb_mshr_size 8
core_0_dtlb_hit_latency 1
core_0_dtlb_fill_latency 1
core_0_dtlb_max_tag_check 2
core_0_dtlb_max_fill 2
core_0_stlb_set 128
core_0_stlb_way 12
core_0_stlb_rq_size 32
core_0_stlb_wq_size 32
core_0_stlb_pq_size 0
core_0_stlb_mshr_size 16
core_0_stlb_hit_latency 4
core_0_stlb_fill_latency 4
core_0_stlb_max_tag_check 1
core_0_stlb_max_fill 1
core_0_l1i_set 64
core_0_l1i_way 8
core_0_l1i_rq_size 64
core_0_l1i_wq_size 64
core_0_l1i_pq_size 32
core_0_l1i_mshr_size 8
core_0_l1i_hit_latency 2
core_0_l1i_fill_latency 2
core_0_l1i_max_tag_check 2
core_0_l1i_max_fill 2
core_0_l1d_set 64
core_0_l1d_way 12
core_0_l1d_rq_size 64
core_0_l1d_wq_size 64
core_0_l1d_pq_size 8
core_0_l1d_mshr_size 16
core_0_l1d_hit_latency 2
core_0_l1d_fill_latency 3
core_0_l1d_max_tag_check 2
core_0_l1d_max_fill 2
core_0_l2c_set 1024
core_0_l2c_way 8
core_0_l2c_rq_size 32
core_0_l2c_wq_size 32
core_0_l2c_pq_size 16
core_0_l2c_mshr_size 32
core_0_l2c_hit_latency 5
core_0_l2c_fill_latency 5
core_0_l2c_max_tag_check 1
core_0_l2c_max_fill 1
llc_set 2048
llc_way 16
llc_rq_size 32
llc_wq_size 32
llc_pq_size 32
llc_mshr_size 64
llc_hit_latency 10
llc_fill_latency 10
llc_max_tag_check 1
llc_max_fill 1
dram_channels 1
dram_ranks 1
dram_bankgroups 8
dram_banks 4
dram_rows 65536
dram_columns 1024
dram_channel_width 8
dram_rq_size 64
dram_wq_size 64
dram_size 17179869184
core_0_itlb_prefetcher no
core_0_dtlb_prefetcher no
core_0_stlb_prefetcher no
core_0_l1i_prefetcher next_line
core_0_l1d_prefetcher berti
core_0_l2c_prefetcher pythia
llc_prefetcher no
llc_replacement drrip

Core_0_instructions 50000000
Core_0_cycles 12255764
Core_0_IPC 4.07971
Core_0_branch_prediction_accuracy 99.9361
Core_0_branch_MPKI 0.02318
Core_0_average_ROB_occupancy_at_mispredict 232.129

Core_0_ITLB_total_access 6269985
Core_0_ITLB_total_hit 6269925
Core_0_ITLB_total_miss 60
Core_0_ITLB_total_MPKI 0.0012
Core_0_ITLB_total_miss_rate 9.5694e-06
Core_0_ITLB_demand_access 6269985
Core_0_ITLB_demand_hit 6269925
Core_0_ITLB_demand_miss 60
Core_0_ITLB_demand_MPKI 0.0012
Core_0_ITLB_demand_miss_rate 9.5694e-06
Core_0_ITLB_load_access 6269985
Core_0_ITLB_load_hit 6269925
Core_0_ITLB_load_miss 60
Core_0_ITLB_load_MPKI 0.0012
Core_0_ITLB_load_miss_rate 9.5694e-06
Core_0_ITLB_rfo_access 0
Core_0_ITLB_rfo_hit 0
Core_0_ITLB_rfo_miss 0
Core_0_ITLB_rfo_MPKI 0
Core_0_ITLB_rfo_miss_rate 0
Core_0_ITLB_prefetch_access 0
Core_0_ITLB_prefetch_hit 0
Core_0_ITLB_prefetch_miss 0
Core_0_ITLB_prefetch_MPKI 0
Core_0_ITLB_prefetch_miss_rate 0
Core_0_ITLB_writeback_access 0
Core_0_ITLB_writeback_hit 0
Core_0_ITLB_writeback_miss 0
Core_0_ITLB_writeback_MPKI 0
Core_0_ITLB_writeback_miss_rate 0
Core_0_ITLB_prefetch_requested 0
Core_0_ITLB_prefetch_issued 0
Core_0_ITLB_prefetch_useful 0
Core_0_ITLB_prefetch_useless 0
Core_0_ITLB_prefetch_late 0
Core_0_ITLB_prefetch_accuracy 0
Core_0_ITLB_prefetch_coverage 0

Core_0_DTLB_total_access 9814139
Core_0_DTLB_total_hit 9800756
Core_0_DTLB_total_miss 13383
Core_0_DTLB_total_MPKI 0.26766
Core_0_DTLB_total_miss_rate 0.00136364
Core_0_DTLB_demand_access 9814139
Core_0_DTLB_demand_hit 9800756
Core_0_DTLB_demand_miss 13383
Core_0_DTLB_demand_MPKI 0.26766
Core_0_DTLB_demand_miss_rate 0.00136364
Core_0_DTLB_load_access 9814139
Core_0_DTLB_load_hit 9800756
Core_0_DTLB_load_miss 13383
Core_0_DTLB_load_MPKI 0.26766
Core_0_DTLB_load_miss_rate 0.00136364
Core_0_DTLB_rfo_access 0
Core_0_DTLB_rfo_hit 0
Core_0_DTLB_rfo_miss 0
Core_0_DTLB_rfo_MPKI 0
Core_0_DTLB_rfo_miss_rate 0
Core_0_DTLB_prefetch_access 0
Core_0_DTLB_prefetch_hit 0
Core_0_DTLB_prefetch_miss 0
Core_0_DTLB_prefetch_MPKI 0
Core_0_DTLB_prefetch_miss_rate 0
Core_0_DTLB_writeback_access 0
Core_0_DTLB_writeback_hit 0
Core_0_DTLB_writeback_miss 0
Core_0_DTLB_writeback_MPKI 0
Core_0_DTLB_writeback_miss_rate 0
Core_0_DTLB_prefetch_requested 0
Core_0_DTLB_prefetch_issued 0
Core_0_DTLB_prefetch_useful 0
Core_0_DTLB_prefetch_useless 0
Core_0_DTLB_prefetch_late 0
Core_0_DTLB_prefetch_accuracy 0
Core_0_DTLB_prefetch_coverage 0

Core_0_STLB_total_access 3469
Core_0_STLB_total_hit 1043
Core_0_STLB_total_miss 2426
Core_0_STLB_total_MPKI 0.04852
Core_0_STLB_total_miss_rate 0.699337
Core_0_STLB_demand_access 3469
Core_0_STLB_demand_hit 1043
Core_0_STLB_demand_miss 2426
Core_0_STLB_demand_MPKI 0.04852
Core_0_STLB_demand_miss_rate 0.699337
Core_0_STLB_load_access 3469
Core_0_STLB_load_hit 1043
Core_0_STLB_load_miss 2426
Core_0_STLB_load_MPKI 0.04852
Core_0_STLB_load_miss_rate 0.699337
Core_0_STLB_rfo_access 0
Core_0_STLB_rfo_hit 0
Core_0_STLB_rfo_miss 0
Core_0_STLB_rfo_MPKI 0
Core_0_STLB_rfo_miss_rate 0
Core_0_STLB_prefetch_access 0
Core_0_STLB_prefetch_hit 0
Core_0_STLB_prefetch_miss 0
Core_0_STLB_prefetch_MPKI 0
Core_0_STLB_prefetch_miss_rate 0
Core_0_STLB_writeback_access 0
Core_0_STLB_writeback_hit 0
Core_0_STLB_writeback_miss 0
Core_0_STLB_writeback_MPKI 0
Core_0_STLB_writeback_miss_rate 0
Core_0_STLB_prefetch_requested 0
Core_0_STLB_prefetch_issued 0
Core_0_STLB_prefetch_useful 0
Core_0_STLB_prefetch_useless 0
Core_0_STLB_prefetch_late 0
Core_0_STLB_prefetch_accuracy 0
Core_0_STLB_prefetch_coverage 0

Core_0_L1I_total_access 7787578
Core_0_L1I_total_hit 7787198
Core_0_L1I_total_miss 380
Core_0_L1I_total_MPKI 0.0076
Core_0_L1I_total_miss_rate 4.87957e-05
Core_0_L1I_demand_access 7787578
Core_0_L1I_demand_hit 7787198
Core_0_L1I_demand_miss 380
Core_0_L1I_demand_MPKI 0.0076
Core_0_L1I_demand_miss_rate 4.87957e-05
Core_0_L1I_load_access 7787578
Core_0_L1I_load_hit 7787198
Core_0_L1I_load_miss 380
Core_0_L1I_load_MPKI 0.0076
Core_0_L1I_load_miss_rate 4.87957e-05
Core_0_L1I_rfo_access 0
Core_0_L1I_rfo_hit 0
Core_0_L1I_rfo_miss 0
Core_0_L1I_rfo_MPKI 0
Core_0_L1I_rfo_miss_rate 0
Core_0_L1I_prefetch_access 0
Core_0_L1I_prefetch_hit 0
Core_0_L1I_prefetch_miss 0
Core_0_L1I_prefetch_MPKI 0
Core_0_L1I_prefetch_miss_rate 0
Core_0_L1I_writeback_access 0
Core_0_L1I_writeback_hit 0
Core_0_L1I_writeback_miss 0
Core_0_L1I_writeback_MPKI 0
Core_0_L1I_writeback_miss_rate 0
Core_0_L1I_prefetch_requested 0
Core_0_L1I_prefetch_issued 0
Core_0_L1I_prefetch_useful 0
Core_0_L1I_prefetch_useless 0
Core_0_L1I_prefetch_late 0
Core_0_L1I_prefetch_accuracy 0
Core_0_L1I_prefetch_coverage 0

Core_0_L1D_total_access 10377301
Core_0_L1D_total_hit 9839787
Core_0_L1D_total_miss 537514
Core_0_L1D_total_MPKI 10.7503
Core_0_L1D_total_miss_rate 0.0517971
Core_0_L1D_demand_access 8115092
Core_0_L1D_demand_hit 8054512
Core_0_L1D_demand_miss 60580
Core_0_L1D_demand_MPKI 1.2116
Core_0_L1D_demand_miss_rate 0.0074651
Core_0_L1D_load_access 8115092
Core_0_L1D_load_hit 8054512
Core_0_L1D_load_miss 60580
Core_0_L1D_load_MPKI 1.2116
Core_0_L1D_load_miss_rate 0.0074651
Core_0_L1D_rfo_access 0
Core_0_L1D_rfo_hit 0
Core_0_L1D_rfo_miss 0
Core_0_L1D_rfo_MPKI 0
Core_0_L1D_rfo_miss_rate 0
Core_0_L1D_prefetch_access 435433
Core_0_L1D_prefetch_hit 15393
Core_0_L1D_prefetch_miss 420040
Core_0_L1D_prefetch_MPKI 8.4008
Core_0_L1D_prefetch_miss_rate 0.964649
Core_0_L1D_writeback_access 1826776
Core_0_L1D_writeback_hit 1769882
Core_0_L1D_writeback_miss 56894
Core_0_L1D_writeback_MPKI 1.13788
Core_0_L1D_writeback_miss_rate 0.0311445
Core_0_L1D_prefetch_requested 435557
Core_0_L1D_prefetch_issued 435433
Core_0_L1D_prefetch_useful 416496
Core_0_L1D_prefetch_useless 2454
Core_0_L1D_prefetch_late 4410
Core_0_L1D_prefetch_accuracy 0.95651
Core_0_L1D_prefetch_coverage 0.873018

Core_0_L2C_total_access 2940304
Core_0_L2C_total_hit 2453070
Core_0_L2C_total_miss 487234
Core_0_L2C_total_MPKI 9.74468
Core_0_L2C_total_miss_rate 0.165709
Core_0_L2C_demand_access 49212
Core_0_L2C_demand_hit 43466
Core_0_L2C_demand_miss 5746
Core_0_L2C_demand_MPKI 0.11492
Core_0_L2C_demand_miss_rate 0.11676
Core_0_L2C_load_access 20736
Core_0_L2C_load_hit 15905
Core_0_L2C_load_miss 4831
Core_0_L2C_load_MPKI 0.09662
Core_0_L2C_load_miss_rate 0.232976
Core_0_L2C_rfo_access 28476
Core_0_L2C_rfo_hit 27561
Core_0_L2C_rfo_miss 915
Core_0_L2C_rfo_MPKI 0.0183
Core_0_L2C_rfo_miss_rate 0.0321323
Core_0_L2C_prefetch_access 2775031
Core_0_L2C_prefetch_hit 2293556
Core_0_L2C_prefetch_miss 481475
Core_0_L2C_prefetch_MPKI 9.6295
Core_0_L2C_prefetch_miss_rate 0.173503
Core_0_L2C_writeback_access 116061
Core_0_L2C_writeback_hit 116048
Core_0_L2C_writeback_miss 13
Core_0_L2C_writeback_MPKI 0.00026
Core_0_L2C_writeback_miss_rate 0.00011201
Core_0_L2C_prefetch_requested 2379739
Core_0_L2C_prefetch_issued 2356061
Core_0_L2C_prefetch_useful 167909
Core_0_L2C_prefetch_useless 7393
Core_0_L2C_prefetch_late 693
Core_0_L2C_prefetch_accuracy 0.0712668
Core_0_L2C_prefetch_coverage 0.966911

Core_0_LLC_total_access 246896
Core_0_LLC_total_hit 24175
Core_0_LLC_total_miss 222721
Core_0_LLC_total_MPKI 4.45442
Core_0_LLC_total_miss_rate 0.902084
Core_0_LLC_demand_access 5053
Core_0_LLC_demand_hit 281
Core_0_LLC_demand_miss 4772
Core_0_LLC_demand_MPKI 0.09544
Core_0_LLC_demand_miss_rate 0.944389
Core_0_LLC_load_access 4138
Core_0_LLC_load_hit 279
Core_0_LLC_load_miss 3859
Core_0_LLC_load_MPKI 0.07718
Core_0_LLC_load_miss_rate 0.932576
Core_0_LLC_rfo_access 915
Core_0_LLC_rfo_hit 2
Core_0_LLC_rfo_miss 913
Core_0_LLC_rfo_MPKI 0.01826
Core_0_LLC_rfo_miss_rate 0.997814
Core_0_LLC_prefetch_access 181448
Core_0_LLC_prefetch_hit 3865
Core_0_LLC_prefetch_miss 177583
Core_0_LLC_prefetch_MPKI 3.55166
Core_0_LLC_prefetch_miss_rate 0.978699
Core_0_LLC_writeback_access 60395
Core_0_LLC_writeback_hit 20029
Core_0_LLC_writeback_miss 40366
Core_0_LLC_writeback_MPKI 0.80732
Core_0_LLC_writeback_miss_rate 0.668367
Core_0_LLC_prefetch_requested 0
Core_0_LLC_prefetch_issued 0
Core_0_LLC_prefetch_useful 0
Core_0_LLC_prefetch_useless 0
Core_0_LLC_prefetch_late 0
Core_0_LLC_prefetch_accuracy 0
Core_0_LLC_prefetch_coverage 0

[DRAM Statistics]
Channel_0_RQ_row_buffer_hit 20432
Channel_0_RQ_row_buffer_miss 162289
Channel_0_WQ_row_buffer_hit 7948
Channel_0_WQ_row_buffer_miss 33025
Channel_0_WQ_full 0
Channel_0_dbus_congested 354524
DRAM_total_RQ_row_buffer_hit 20432
DRAM_total_RQ_row_buffer_miss 162289
DRAM_total_WQ_row_buffer_hit 7948
DRAM_total_WQ_row_buffer_miss 33025
DRAM_total_WQ_full 0
DRAM_total_dbus_congested 354524
DRAM_avg_congested_cycle 8.24743

======STLB miss causes ========
Core_0_STLB_miss_cause_breakdown
Core_0_STLB_cause_Demand_Data_miss 1954
Core_0_STLB_cause_Demand_Data_miss_rate 0.563275
Core_0_STLB_cause_Demand_Instruction_miss 22
Core_0_STLB_cause_Demand_Instruction_miss_rate 0.00634189
Core_0_STLB_cause_L1D_Prefetch_miss 450
Core_0_STLB_cause_L1D_Prefetch_miss_rate 0.12972
Core_0_STLB_cause_L1I_Prefetch_miss 0
Core_0_STLB_cause_L1I_Prefetch_miss_rate 0
Core_0_STLB_cause_Other_miss 0
Core_0_STLB_cause_Other_miss_rate 0
Core_0_STLB_Demand_miss 1976
Core_0_STLB_Demand_miss_rate 0.569617
Core_0_STLB_L1D_Prefetch_miss 450
Core_0_STLB_L1D_Prefetch_miss_rate 0.12972
Core_0_STLB_Other_miss 0
Core_0_STLB_Other_miss_rate 0
