[VMEM] WARNING: physical memory size is smaller than virtual memory size.

*** ChampSim Multicore Out-of-Order Simulator ***
Warmup Instructions: 20000000
Simulation Instructions: 50000000
Number of CPUs: 1
Page size: 4096
Core 0: /data0/tzh/champsim_traces/SPEC06/482.sphinx3-1522B.champsimtrace.xz
 L1D Berti prefetcher
Off-chip DRAM Size: 16 GiB Channels: 1 Width: 64-bit Data Rate: 3205 MT/s
Warmup halting CPU 0 at instruction 20000004 cycle 4345929 for remainder of phase
Warmup finished CPU 0 instructions: 20000004 cycles: 4345929 cumulative IPC: 4.602 (Simulation time: 00 hr 01 min 02 sec)
Warmup complete CPU 0 instructions: 20000004 cycles: 4345929 cumulative IPC: 4.602 (Simulation time: 00 hr 01 min 02 sec)
Simulation finished CPU 0 instructions: 50000000 cycles: 19042913 cumulative IPC: 2.626 (Simulation time: 00 hr 05 min 22 sec)
Simulation complete CPU 0 instructions: 50000000 cycles: 19042913 cumulative IPC: 2.626 (Simulation time: 00 hr 05 min 22 sec)

ChampSim completed all CPUs

=== Simulation ===
CPU 0 runs /data0/tzh/champsim_traces/SPEC06/482.sphinx3-1522B.champsimtrace.xz

Region of Interest Statistics

CPU 0 cumulative IPC: 2.626 instructions: 50000000 cycles: 19042913
CPU 0 Branch Prediction Accuracy: 98.91% MPKI: 0.9674 Average ROB Occupancy at Mispredict: 125.9
Branch type MPKI
BRANCH_DIRECT_JUMP: 0.00012
BRANCH_INDIRECT: 0
BRANCH_CONDITIONAL: 0.9661
BRANCH_DIRECT_CALL: 6e-05
BRANCH_INDIRECT_CALL: 2e-05
BRANCH_RETURN: 0.00102

cpu0->cpu0_STLB TOTAL        ACCESS:      60270 HIT:      42706 MISS:      17564 MSHR_MERGE:          0
cpu0->cpu0_STLB LOAD         ACCESS:      60270 HIT:      42706 MISS:      17564 MSHR_MERGE:          0
cpu0->cpu0_STLB RFO          ACCESS:          0 HIT:          0 MISS:          0 MSHR_MERGE:          0
cpu0->cpu0_STLB PREFETCH     ACCESS:          0 HIT:          0 MISS:          0 MSHR_MERGE:          0
cpu0->cpu0_STLB WRITE        ACCESS:          0 HIT:          0 MISS:          0 MSHR_MERGE:          0
cpu0->cpu0_STLB TRANSLATION  ACCESS:          0 HIT:          0 MISS:          0 MSHR_MERGE:          0
cpu0->cpu0_STLB PREFETCH REQUESTED:          0 ISSUED:          0 USEFUL:          0 USELESS:          0 LATE:          0
cpu0->cpu0_STLB AVERAGE MISS LATENCY: 62.53 cycles
cpu0->cpu0_L2C TOTAL        ACCESS:    3622933 HIT:    2005729 MISS:    1617204 MSHR_MERGE:     842286
cpu0->cpu0_L2C LOAD         ACCESS:     171746 HIT:     106722 MISS:      65024 MSHR_MERGE:       7407
cpu0->cpu0_L2C RFO          ACCESS:      49200 HIT:       3596 MISS:      45604 MSHR_MERGE:          0
cpu0->cpu0_L2C PREFETCH     ACCESS:    3337711 HIT:    1836200 MISS:    1501511 MSHR_MERGE:     834879
cpu0->cpu0_L2C WRITE        ACCESS:      57861 HIT:      57675 MISS:        186 MSHR_MERGE:          0
cpu0->cpu0_L2C TRANSLATION  ACCESS:       6415 HIT:       1536 MISS:       4879 MSHR_MERGE:          0
cpu0->cpu0_L2C PREFETCH REQUESTED:    2934985 ISSUED:    2778809 USEFUL:     405675 USELESS:     205619 LATE:       7407
cpu0->cpu0_L2C AVERAGE MISS LATENCY: 113.6 cycles
cpu0->cpu0_L1I TOTAL        ACCESS:    5959972 HIT:    5959826 MISS:        146 MSHR_MERGE:         76
cpu0->cpu0_L1I LOAD         ACCESS:    5959972 HIT:    5959826 MISS:        146 MSHR_MERGE:         76
cpu0->cpu0_L1I RFO          ACCESS:          0 HIT:          0 MISS:          0 MSHR_MERGE:          0
cpu0->cpu0_L1I PREFETCH     ACCESS:          0 HIT:          0 MISS:          0 MSHR_MERGE:          0
cpu0->cpu0_L1I WRITE        ACCESS:          0 HIT:          0 MISS:          0 MSHR_MERGE:          0
cpu0->cpu0_L1I TRANSLATION  ACCESS:          0 HIT:          0 MISS:          0 MSHR_MERGE:          0
cpu0->cpu0_L1I PREFETCH REQUESTED:          0 ISSUED:          0 USEFUL:          0 USELESS:          0 LATE:          0
cpu0->cpu0_L1I AVERAGE MISS LATENCY: 234.4 cycles
cpu0->cpu0_L1D TOTAL        ACCESS:   10247150 HIT:    8868621 MISS:    1378529 MSHR_MERGE:     592328
cpu0->cpu0_L1D LOAD         ACCESS:    8589326 HIT:    8093018 MISS:     496308 MSHR_MERGE:     324631
cpu0->cpu0_L1D RFO          ACCESS:          0 HIT:          0 MISS:          0 MSHR_MERGE:          0
cpu0->cpu0_L1D PREFETCH     ACCESS:     629045 HIT:      64015 MISS:     565030 MSHR_MERGE:       6122
cpu0->cpu0_L1D WRITE        ACCESS:     993757 HIT:     683067 MISS:     310690 MSHR_MERGE:     261489
cpu0->cpu0_L1D TRANSLATION  ACCESS:      35022 HIT:      28521 MISS:       6501 MSHR_MERGE:         86
cpu0->cpu0_L1D PREFETCH REQUESTED:     631870 ISSUED:     629037 USEFUL:     488379 USELESS:      70542 LATE:      25453
cpu0->cpu0_L1D AVERAGE MISS LATENCY: 70.19 cycles
cpu0->cpu0_ITLB TOTAL        ACCESS:    4441662 HIT:    4441661 MISS:          1 MSHR_MERGE:          0
cpu0->cpu0_ITLB LOAD         ACCESS:    4441662 HIT:    4441661 MISS:          1 MSHR_MERGE:          0
cpu0->cpu0_ITLB RFO          ACCESS:          0 HIT:          0 MISS:          0 MSHR_MERGE:          0
cpu0->cpu0_ITLB PREFETCH     ACCESS:          0 HIT:          0 MISS:          0 MSHR_MERGE:          0
cpu0->cpu0_ITLB WRITE        ACCESS:          0 HIT:          0 MISS:          0 MSHR_MERGE:          0
cpu0->cpu0_ITLB TRANSLATION  ACCESS:          0 HIT:          0 MISS:          0 MSHR_MERGE:          0
cpu0->cpu0_ITLB PREFETCH REQUESTED:          0 ISSUED:          0 USEFUL:          0 USELESS:          0 LATE:          0
cpu0->cpu0_ITLB AVERAGE MISS LATENCY: 442 cycles
cpu0->cpu0_DTLB TOTAL        ACCESS:    9753591 HIT:    9610303 MISS:     143288 MSHR_MERGE:      83019
cpu0->cpu0_DTLB LOAD         ACCESS:    9753591 HIT:    9610303 MISS:     143288 MSHR_MERGE:      83019
cpu0->cpu0_DTLB RFO          ACCESS:          0 HIT:          0 MISS:          0 MSHR_MERGE:          0
cpu0->cpu0_DTLB PREFETCH     ACCESS:          0 HIT:          0 MISS:          0 MSHR_MERGE:          0
cpu0->cpu0_DTLB WRITE        ACCESS:          0 HIT:          0 MISS:          0 MSHR_MERGE:          0
cpu0->cpu0_DTLB TRANSLATION  ACCESS:          0 HIT:          0 MISS:          0 MSHR_MERGE:          0
cpu0->cpu0_DTLB PREFETCH REQUESTED:          0 ISSUED:          0 USEFUL:          0 USELESS:          0 LATE:          0
cpu0->cpu0_DTLB AVERAGE MISS LATENCY: 23.51 cycles
cpu0->LLC TOTAL        ACCESS:     828644 HIT:     371105 MISS:     457539 MSHR_MERGE:          0
cpu0->LLC LOAD         ACCESS:      57617 HIT:      25065 MISS:      32552 MSHR_MERGE:          0
cpu0->LLC RFO          ACCESS:      45604 HIT:      34675 MISS:      10929 MSHR_MERGE:          0
cpu0->LLC PREFETCH     ACCESS:     666631 HIT:     262059 MISS:     404572 MSHR_MERGE:          0
cpu0->LLC WRITE        ACCESS:      53913 HIT:      47694 MISS:       6219 MSHR_MERGE:          0
cpu0->LLC TRANSLATION  ACCESS:       4879 HIT:       1612 MISS:       3267 MSHR_MERGE:          0
cpu0->LLC PREFETCH REQUESTED:          0 ISSUED:          0 USEFUL:          0 USELESS:          0 LATE:          0
cpu0->LLC AVERAGE MISS LATENCY: 197.8 cycles

DRAM Statistics

Channel 0 RQ ROW_BUFFER_HIT:      15864
  ROW_BUFFER_MISS:     435147
  AVG DBUS CONGESTED CYCLE: 4.853
Channel 0 WQ ROW_BUFFER_HIT:       2988
  ROW_BUFFER_MISS:      10531
  FULL:          0
Channel 0 REFRESHES ISSUED:       1587

[ROI Statistics]
[System Configuration]
num_cpus 1
cpu_freq 4000
fetch_width 6
decode_width 6
dispatch_width 6
execute_width 6
lq_width 2
sq_width 2
retire_width 6
scheduler_size 128
branch_mispredict_penalty 15
rob_size 352
lq_size 128
sq_size 72
ifetch_buffer_size 64
decode_buffer_size 32
dispatch_buffer_size 32
register_file_size 288
decode_latency 1
dispatch_latency 1
schedule_latency 1
execute_latency 1
page_size 4096
block_size 64
core_0_itlb_set 16
core_0_itlb_way 4
core_0_itlb_rq_size 16
core_0_itlb_wq_size 16
core_0_itlb_pq_size 0
core_0_itlb_mshr_size 8
core_0_itlb_hit_latency 1
core_0_itlb_fill_latency 1
core_0_itlb_max_tag_check 2
core_0_itlb_max_fill 2
core_0_dtlb_set 16
core_0_dtlb_way 4
core_0_dtlb_rq_size 16
core_0_dtlb_wq_size 16
core_0_dtlb_pq_size 0
core_0_dtlb_mshr_size 8
core_0_dtlb_hit_latency 1
core_0_dtlb_fill_latency 1
core_0_dtlb_max_tag_check 2
core_0_dtlb_max_fill 2
core_0_stlb_set 128
core_0_stlb_way 12
core_0_stlb_rq_size 32
core_0_stlb_wq_size 32
core_0_stlb_pq_size 0
core_0_stlb_mshr_size 16
core_0_stlb_hit_latency 4
core_0_stlb_fill_latency 4
core_0_stlb_max_tag_check 1
core_0_stlb_max_fill 1
core_0_l1i_set 64
core_0_l1i_way 8
core_0_l1i_rq_size 64
core_0_l1i_wq_size 64
core_0_l1i_pq_size 32
core_0_l1i_mshr_size 8
core_0_l1i_hit_latency 2
core_0_l1i_fill_latency 2
core_0_l1i_max_tag_check 2
core_0_l1i_max_fill 2
core_0_l1d_set 64
core_0_l1d_way 12
core_0_l1d_rq_size 64
core_0_l1d_wq_size 64
core_0_l1d_pq_size 8
core_0_l1d_mshr_size 16
core_0_l1d_hit_latency 2
core_0_l1d_fill_latency 3
core_0_l1d_max_tag_check 2
core_0_l1d_max_fill 2
core_0_l2c_set 1024
core_0_l2c_way 8
core_0_l2c_rq_size 32
core_0_l2c_wq_size 32
core_0_l2c_pq_size 16
core_0_l2c_mshr_size 32
core_0_l2c_hit_latency 5
core_0_l2c_fill_latency 5
core_0_l2c_max_tag_check 1
core_0_l2c_max_fill 1
llc_set 2048
llc_way 16
llc_rq_size 32
llc_wq_size 32
llc_pq_size 32
llc_mshr_size 64
llc_hit_latency 10
llc_fill_latency 10
llc_max_tag_check 1
llc_max_fill 1
dram_channels 1
dram_ranks 1
dram_bankgroups 8
dram_banks 4
dram_rows 65536
dram_columns 1024
dram_channel_width 8
dram_rq_size 64
dram_wq_size 64
dram_size 17179869184
core_0_itlb_prefetcher no
core_0_dtlb_prefetcher no
core_0_stlb_prefetcher no
core_0_l1i_prefetcher next_line
core_0_l1d_prefetcher berti
core_0_l2c_prefetcher pythia
llc_prefetcher no
llc_replacement drrip

Core_0_instructions 50000000
Core_0_cycles 19042913
Core_0_IPC 2.62565
Core_0_branch_prediction_accuracy 98.9127
Core_0_branch_MPKI 0.96736
Core_0_average_ROB_occupancy_at_mispredict 125.95

Core_0_ITLB_total_access 4441662
Core_0_ITLB_total_hit 4441661
Core_0_ITLB_total_miss 1
Core_0_ITLB_total_MPKI 2e-05
Core_0_ITLB_total_miss_rate 2.25141e-07
Core_0_ITLB_demand_access 4441662
Core_0_ITLB_demand_hit 4441661
Core_0_ITLB_demand_miss 1
Core_0_ITLB_demand_MPKI 2e-05
Core_0_ITLB_demand_miss_rate 2.25141e-07
Core_0_ITLB_load_access 4441662
Core_0_ITLB_load_hit 4441661
Core_0_ITLB_load_miss 1
Core_0_ITLB_load_MPKI 2e-05
Core_0_ITLB_load_miss_rate 2.25141e-07
Core_0_ITLB_rfo_access 0
Core_0_ITLB_rfo_hit 0
Core_0_ITLB_rfo_miss 0
Core_0_ITLB_rfo_MPKI 0
Core_0_ITLB_rfo_miss_rate 0
Core_0_ITLB_prefetch_access 0
Core_0_ITLB_prefetch_hit 0
Core_0_ITLB_prefetch_miss 0
Core_0_ITLB_prefetch_MPKI 0
Core_0_ITLB_prefetch_miss_rate 0
Core_0_ITLB_writeback_access 0
Core_0_ITLB_writeback_hit 0
Core_0_ITLB_writeback_miss 0
Core_0_ITLB_writeback_MPKI 0
Core_0_ITLB_writeback_miss_rate 0
Core_0_ITLB_prefetch_requested 0
Core_0_ITLB_prefetch_issued 0
Core_0_ITLB_prefetch_useful 0
Core_0_ITLB_prefetch_useless 0
Core_0_ITLB_prefetch_late 0
Core_0_ITLB_prefetch_accuracy 0
Core_0_ITLB_prefetch_coverage 0

Core_0_DTLB_total_access 9753591
Core_0_DTLB_total_hit 9610303
Core_0_DTLB_total_miss 143288
Core_0_DTLB_total_MPKI 2.86576
Core_0_DTLB_total_miss_rate 0.0146908
Core_0_DTLB_demand_access 9753591
Core_0_DTLB_demand_hit 9610303
Core_0_DTLB_demand_miss 143288
Core_0_DTLB_demand_MPKI 2.86576
Core_0_DTLB_demand_miss_rate 0.0146908
Core_0_DTLB_load_access 9753591
Core_0_DTLB_load_hit 9610303
Core_0_DTLB_load_miss 143288
Core_0_DTLB_load_MPKI 2.86576
Core_0_DTLB_load_miss_rate 0.0146908
Core_0_DTLB_rfo_access 0
Core_0_DTLB_rfo_hit 0
Core_0_DTLB_rfo_miss 0
Core_0_DTLB_rfo_MPKI 0
Core_0_DTLB_rfo_miss_rate 0
Core_0_DTLB_prefetch_access 0
Core_0_DTLB_prefetch_hit 0
Core_0_DTLB_prefetch_miss 0
Core_0_DTLB_prefetch_MPKI 0
Core_0_DTLB_prefetch_miss_rate 0
Core_0_DTLB_writeback_access 0
Core_0_DTLB_writeback_hit 0
Core_0_DTLB_writeback_miss 0
Core_0_DTLB_writeback_MPKI 0
Core_0_DTLB_writeback_miss_rate 0
Core_0_DTLB_prefetch_requested 0
Core_0_DTLB_prefetch_issued 0
Core_0_DTLB_prefetch_useful 0
Core_0_DTLB_prefetch_useless 0
Core_0_DTLB_prefetch_late 0
Core_0_DTLB_prefetch_accuracy 0
Core_0_DTLB_prefetch_coverage 0

Core_0_STLB_total_access 60270
Core_0_STLB_total_hit 42706
Core_0_STLB_total_miss 17564
Core_0_STLB_total_MPKI 0.35128
Core_0_STLB_total_miss_rate 0.291422
Core_0_STLB_demand_access 60270
Core_0_STLB_demand_hit 42706
Core_0_STLB_demand_miss 17564
Core_0_STLB_demand_MPKI 0.35128
Core_0_STLB_demand_miss_rate 0.291422
Core_0_STLB_load_access 60270
Core_0_STLB_load_hit 42706
Core_0_STLB_load_miss 17564
Core_0_STLB_load_MPKI 0.35128
Core_0_STLB_load_miss_rate 0.291422
Core_0_STLB_rfo_access 0
Core_0_STLB_rfo_hit 0
Core_0_STLB_rfo_miss 0
Core_0_STLB_rfo_MPKI 0
Core_0_STLB_rfo_miss_rate 0
Core_0_STLB_prefetch_access 0
Core_0_STLB_prefetch_hit 0
Core_0_STLB_prefetch_miss 0
Core_0_STLB_prefetch_MPKI 0
Core_0_STLB_prefetch_miss_rate 0
Core_0_STLB_writeback_access 0
Core_0_STLB_writeback_hit 0
Core_0_STLB_writeback_miss 0
Core_0_STLB_writeback_MPKI 0
Core_0_STLB_writeback_miss_rate 0
Core_0_STLB_prefetch_requested 0
Core_0_STLB_prefetch_issued 0
Core_0_STLB_prefetch_useful 0
Core_0_STLB_prefetch_useless 0
Core_0_STLB_prefetch_late 0
Core_0_STLB_prefetch_accuracy 0
Core_0_STLB_prefetch_coverage 0

Core_0_L1I_total_access 5959972
Core_0_L1I_total_hit 5959826
Core_0_L1I_total_miss 146
Core_0_L1I_total_MPKI 0.00292
Core_0_L1I_total_miss_rate 2.44968e-05
Core_0_L1I_demand_access 5959972
Core_0_L1I_demand_hit 5959826
Core_0_L1I_demand_miss 146
Core_0_L1I_demand_MPKI 0.00292
Core_0_L1I_demand_miss_rate 2.44968e-05
Core_0_L1I_load_access 5959972
Core_0_L1I_load_hit 5959826
Core_0_L1I_load_miss 146
Core_0_L1I_load_MPKI 0.00292
Core_0_L1I_load_miss_rate 2.44968e-05
Core_0_L1I_rfo_access 0
Core_0_L1I_rfo_hit 0
Core_0_L1I_rfo_miss 0
Core_0_L1I_rfo_MPKI 0
Core_0_L1I_rfo_miss_rate 0
Core_0_L1I_prefetch_access 0
Core_0_L1I_prefetch_hit 0
Core_0_L1I_prefetch_miss 0
Core_0_L1I_prefetch_MPKI 0
Core_0_L1I_prefetch_miss_rate 0
Core_0_L1I_writeback_access 0
Core_0_L1I_writeback_hit 0
Core_0_L1I_writeback_miss 0
Core_0_L1I_writeback_MPKI 0
Core_0_L1I_writeback_miss_rate 0
Core_0_L1I_prefetch_requested 0
Core_0_L1I_prefetch_issued 0
Core_0_L1I_prefetch_useful 0
Core_0_L1I_prefetch_useless 0
Core_0_L1I_prefetch_late 0
Core_0_L1I_prefetch_accuracy 0
Core_0_L1I_prefetch_coverage 0

Core_0_L1D_total_access 10212128
Core_0_L1D_total_hit 8840100
Core_0_L1D_total_miss 1372028
Core_0_L1D_total_MPKI 27.4406
Core_0_L1D_total_miss_rate 0.134353
Core_0_L1D_demand_access 8589326
Core_0_L1D_demand_hit 8093018
Core_0_L1D_demand_miss 496308
Core_0_L1D_demand_MPKI 9.92616
Core_0_L1D_demand_miss_rate 0.0577819
Core_0_L1D_load_access 8589326
Core_0_L1D_load_hit 8093018
Core_0_L1D_load_miss 496308
Core_0_L1D_load_MPKI 9.92616
Core_0_L1D_load_miss_rate 0.0577819
Core_0_L1D_rfo_access 0
Core_0_L1D_rfo_hit 0
Core_0_L1D_rfo_miss 0
Core_0_L1D_rfo_MPKI 0
Core_0_L1D_rfo_miss_rate 0
Core_0_L1D_prefetch_access 629045
Core_0_L1D_prefetch_hit 64015
Core_0_L1D_prefetch_miss 565030
Core_0_L1D_prefetch_MPKI 11.3006
Core_0_L1D_prefetch_miss_rate 0.898235
Core_0_L1D_writeback_access 993757
Core_0_L1D_writeback_hit 683067
Core_0_L1D_writeback_miss 310690
Core_0_L1D_writeback_MPKI 6.2138
Core_0_L1D_writeback_miss_rate 0.312642
Core_0_L1D_prefetch_requested 631870
Core_0_L1D_prefetch_issued 629037
Core_0_L1D_prefetch_useful 488379
Core_0_L1D_prefetch_useless 70542
Core_0_L1D_prefetch_late 25453
Core_0_L1D_prefetch_accuracy 0.776392
Core_0_L1D_prefetch_coverage 0.495974

Core_0_L2C_total_access 3616518
Core_0_L2C_total_hit 2004193
Core_0_L2C_total_miss 1612325
Core_0_L2C_total_MPKI 32.2465
Core_0_L2C_total_miss_rate 0.445822
Core_0_L2C_demand_access 220946
Core_0_L2C_demand_hit 110318
Core_0_L2C_demand_miss 110628
Core_0_L2C_demand_MPKI 2.21256
Core_0_L2C_demand_miss_rate 0.500702
Core_0_L2C_load_access 171746
Core_0_L2C_load_hit 106722
Core_0_L2C_load_miss 65024
Core_0_L2C_load_MPKI 1.30048
Core_0_L2C_load_miss_rate 0.378606
Core_0_L2C_rfo_access 49200
Core_0_L2C_rfo_hit 3596
Core_0_L2C_rfo_miss 45604
Core_0_L2C_rfo_MPKI 0.91208
Core_0_L2C_rfo_miss_rate 0.926911
Core_0_L2C_prefetch_access 3337711
Core_0_L2C_prefetch_hit 1836200
Core_0_L2C_prefetch_miss 1501511
Core_0_L2C_prefetch_MPKI 30.0302
Core_0_L2C_prefetch_miss_rate 0.449862
Core_0_L2C_writeback_access 57861
Core_0_L2C_writeback_hit 57675
Core_0_L2C_writeback_miss 186
Core_0_L2C_writeback_MPKI 0.00372
Core_0_L2C_writeback_miss_rate 0.0032146
Core_0_L2C_prefetch_requested 2934985
Core_0_L2C_prefetch_issued 2778809
Core_0_L2C_prefetch_useful 405675
Core_0_L2C_prefetch_useless 205619
Core_0_L2C_prefetch_late 7407
Core_0_L2C_prefetch_accuracy 0.145989
Core_0_L2C_prefetch_coverage 0.78573

Core_0_LLC_total_access 823765
Core_0_LLC_total_hit 369493
Core_0_LLC_total_miss 454272
Core_0_LLC_total_MPKI 9.08544
Core_0_LLC_total_miss_rate 0.551458
Core_0_LLC_demand_access 103221
Core_0_LLC_demand_hit 59740
Core_0_LLC_demand_miss 43481
Core_0_LLC_demand_MPKI 0.86962
Core_0_LLC_demand_miss_rate 0.421242
Core_0_LLC_load_access 57617
Core_0_LLC_load_hit 25065
Core_0_LLC_load_miss 32552
Core_0_LLC_load_MPKI 0.65104
Core_0_LLC_load_miss_rate 0.564972
Core_0_LLC_rfo_access 45604
Core_0_LLC_rfo_hit 34675
Core_0_LLC_rfo_miss 10929
Core_0_LLC_rfo_MPKI 0.21858
Core_0_LLC_rfo_miss_rate 0.23965
Core_0_LLC_prefetch_access 666631
Core_0_LLC_prefetch_hit 262059
Core_0_LLC_prefetch_miss 404572
Core_0_LLC_prefetch_MPKI 8.09144
Core_0_LLC_prefetch_miss_rate 0.60689
Core_0_LLC_writeback_access 53913
Core_0_LLC_writeback_hit 47694
Core_0_LLC_writeback_miss 6219
Core_0_LLC_writeback_MPKI 0.12438
Core_0_LLC_writeback_miss_rate 0.115353
Core_0_LLC_prefetch_requested 0
Core_0_LLC_prefetch_issued 0
Core_0_LLC_prefetch_useful 0
Core_0_LLC_prefetch_useless 0
Core_0_LLC_prefetch_late 0
Core_0_LLC_prefetch_accuracy 0
Core_0_LLC_prefetch_coverage 0

[DRAM Statistics]
Channel_0_RQ_row_buffer_hit 15864
Channel_0_RQ_row_buffer_miss 435147
Channel_0_WQ_row_buffer_hit 2988
Channel_0_WQ_row_buffer_miss 10531
Channel_0_WQ_full 0
Channel_0_dbus_congested 768404
DRAM_total_RQ_row_buffer_hit 15864
DRAM_total_RQ_row_buffer_miss 435147
DRAM_total_WQ_row_buffer_hit 2988
DRAM_total_WQ_row_buffer_miss 10531
DRAM_total_WQ_full 0
DRAM_total_dbus_congested 768404
DRAM_avg_congested_cycle 4.8532

======STLB miss causes ========
Core_0_STLB_miss_cause_breakdown
Core_0_STLB_cause_Demand_Data_miss 14072
Core_0_STLB_cause_Demand_Data_miss_rate 0.233483
Core_0_STLB_cause_Demand_Instruction_miss 1
Core_0_STLB_cause_Demand_Instruction_miss_rate 1.6592e-05
Core_0_STLB_cause_L1D_Prefetch_miss 3491
Core_0_STLB_cause_L1D_Prefetch_miss_rate 0.0579227
Core_0_STLB_cause_L1I_Prefetch_miss 0
Core_0_STLB_cause_L1I_Prefetch_miss_rate 0
Core_0_STLB_cause_Other_miss 0
Core_0_STLB_cause_Other_miss_rate 0
Core_0_STLB_Demand_miss 14073
Core_0_STLB_Demand_miss_rate 0.233499
Core_0_STLB_L1D_Prefetch_miss 3491
Core_0_STLB_L1D_Prefetch_miss_rate 0.0579227
Core_0_STLB_Other_miss 0
Core_0_STLB_Other_miss_rate 0
