[VMEM] WARNING: physical memory size is smaller than virtual memory size.

*** ChampSim Multicore Out-of-Order Simulator ***
Warmup Instructions: 20000000
Simulation Instructions: 50000000
Number of CPUs: 1
Page size: 4096
Core 0: /data0/tzh/champsim_traces/SPEC06/483.xalancbmk-736B.champsimtrace.xz
 L1D Berti prefetcher
Off-chip DRAM Size: 16 GiB Channels: 1 Width: 64-bit Data Rate: 3205 MT/s
Warmup halting CPU 0 at instruction 20000000 cycle 4427024 for remainder of phase
Warmup finished CPU 0 instructions: 20000000 cycles: 4427024 cumulative IPC: 4.518 (Simulation time: 00 hr 01 min 20 sec)
Warmup complete CPU 0 instructions: 20000000 cycles: 4427024 cumulative IPC: 4.518 (Simulation time: 00 hr 01 min 20 sec)
Simulation finished CPU 0 instructions: 50000002 cycles: 18295234 cumulative IPC: 2.733 (Simulation time: 00 hr 06 min 46 sec)
Simulation complete CPU 0 instructions: 50000002 cycles: 18295234 cumulative IPC: 2.733 (Simulation time: 00 hr 06 min 46 sec)

ChampSim completed all CPUs

=== Simulation ===
CPU 0 runs /data0/tzh/champsim_traces/SPEC06/483.xalancbmk-736B.champsimtrace.xz

Region of Interest Statistics

CPU 0 cumulative IPC: 2.733 instructions: 50000002 cycles: 18295234
CPU 0 Branch Prediction Accuracy: 99.66% MPKI: 0.9604 Average ROB Occupancy at Mispredict: 77.12
Branch type MPKI
BRANCH_DIRECT_JUMP: 0.0005
BRANCH_INDIRECT: 0.04048
BRANCH_CONDITIONAL: 0.5877
BRANCH_DIRECT_CALL: 0.01542
BRANCH_INDIRECT_CALL: 0.05678
BRANCH_RETURN: 0.2595

cpu0->cpu0_STLB TOTAL        ACCESS:     367147 HIT:     362183 MISS:       4964 MSHR_MERGE:          0
cpu0->cpu0_STLB LOAD         ACCESS:     367147 HIT:     362183 MISS:       4964 MSHR_MERGE:          0
cpu0->cpu0_STLB RFO          ACCESS:          0 HIT:          0 MISS:          0 MSHR_MERGE:          0
cpu0->cpu0_STLB PREFETCH     ACCESS:          0 HIT:          0 MISS:          0 MSHR_MERGE:          0
cpu0->cpu0_STLB WRITE        ACCESS:          0 HIT:          0 MISS:          0 MSHR_MERGE:          0
cpu0->cpu0_STLB TRANSLATION  ACCESS:          0 HIT:          0 MISS:          0 MSHR_MERGE:          0
cpu0->cpu0_STLB PREFETCH REQUESTED:          0 ISSUED:          0 USEFUL:          0 USELESS:          0 LATE:          0
cpu0->cpu0_STLB AVERAGE MISS LATENCY: 171.3 cycles
cpu0->cpu0_L2C TOTAL        ACCESS:    5737662 HIT:    5621351 MISS:     116311 MSHR_MERGE:      11322
cpu0->cpu0_L2C LOAD         ACCESS:     667838 HIT:     647381 MISS:      20457 MSHR_MERGE:        411
cpu0->cpu0_L2C RFO          ACCESS:      46008 HIT:      14399 MISS:      31609 MSHR_MERGE:        113
cpu0->cpu0_L2C PREFETCH     ACCESS:    4941010 HIT:    4879667 MISS:      61343 MSHR_MERGE:      10798
cpu0->cpu0_L2C WRITE        ACCESS:      76229 HIT:      76225 MISS:          4 MSHR_MERGE:          0
cpu0->cpu0_L2C TRANSLATION  ACCESS:       6577 HIT:       3679 MISS:       2898 MSHR_MERGE:          0
cpu0->cpu0_L2C PREFETCH REQUESTED:    3739850 ISSUED:    3735748 USEFUL:       9609 USELESS:      32929 LATE:        524
cpu0->cpu0_L2C AVERAGE MISS LATENCY: 258.9 cycles
cpu0->cpu0_L1I TOTAL        ACCESS:    8039554 HIT:    8030868 MISS:       8686 MSHR_MERGE:       1724
cpu0->cpu0_L1I LOAD         ACCESS:    8039554 HIT:    8030868 MISS:       8686 MSHR_MERGE:       1724
cpu0->cpu0_L1I RFO          ACCESS:          0 HIT:          0 MISS:          0 MSHR_MERGE:          0
cpu0->cpu0_L1I PREFETCH     ACCESS:          0 HIT:          0 MISS:          0 MSHR_MERGE:          0
cpu0->cpu0_L1I WRITE        ACCESS:          0 HIT:          0 MISS:          0 MSHR_MERGE:          0
cpu0->cpu0_L1I TRANSLATION  ACCESS:          0 HIT:          0 MISS:          0 MSHR_MERGE:          0
cpu0->cpu0_L1I PREFETCH REQUESTED:          0 ISSUED:          0 USEFUL:          0 USELESS:          0 LATE:          0
cpu0->cpu0_L1I AVERAGE MISS LATENCY: 11.95 cycles
cpu0->cpu0_L1D TOTAL        ACCESS:   10921126 HIT:    8375385 MISS:    2545741 MSHR_MERGE:     626975
cpu0->cpu0_L1D LOAD         ACCESS:    8467166 HIT:    7480278 MISS:     986888 MSHR_MERGE:     326012
cpu0->cpu0_L1D RFO          ACCESS:          0 HIT:          0 MISS:          0 MSHR_MERGE:          0
cpu0->cpu0_L1D PREFETCH     ACCESS:    1331298 HIT:      63374 MISS:    1267924 MSHR_MERGE:      62662
cpu0->cpu0_L1D WRITE        ACCESS:    1110631 HIT:     826291 MISS:     284340 MSHR_MERGE:     238289
cpu0->cpu0_L1D TRANSLATION  ACCESS:      12031 HIT:       5442 MISS:       6589 MSHR_MERGE:         12
cpu0->cpu0_L1D PREFETCH REQUESTED:    1334414 ISSUED:    1331293 USEFUL:    1168768 USELESS:      36505 LATE:      27641
cpu0->cpu0_L1D AVERAGE MISS LATENCY: 27.74 cycles
cpu0->cpu0_ITLB TOTAL        ACCESS:    7925115 HIT:    7912873 MISS:      12242 MSHR_MERGE:       6141
cpu0->cpu0_ITLB LOAD         ACCESS:    7925115 HIT:    7912873 MISS:      12242 MSHR_MERGE:       6141
cpu0->cpu0_ITLB RFO          ACCESS:          0 HIT:          0 MISS:          0 MSHR_MERGE:          0
cpu0->cpu0_ITLB PREFETCH     ACCESS:          0 HIT:          0 MISS:          0 MSHR_MERGE:          0
cpu0->cpu0_ITLB WRITE        ACCESS:          0 HIT:          0 MISS:          0 MSHR_MERGE:          0
cpu0->cpu0_ITLB TRANSLATION  ACCESS:          0 HIT:          0 MISS:          0 MSHR_MERGE:          0
cpu0->cpu0_ITLB PREFETCH REQUESTED:          0 ISSUED:          0 USEFUL:          0 USELESS:          0 LATE:          0
cpu0->cpu0_ITLB AVERAGE MISS LATENCY: 6.088 cycles
cpu0->cpu0_DTLB TOTAL        ACCESS:   10710722 HIT:   10127300 MISS:     583422 MSHR_MERGE:     222376
cpu0->cpu0_DTLB LOAD         ACCESS:   10710722 HIT:   10127300 MISS:     583422 MSHR_MERGE:     222376
cpu0->cpu0_DTLB RFO          ACCESS:          0 HIT:          0 MISS:          0 MSHR_MERGE:          0
cpu0->cpu0_DTLB PREFETCH     ACCESS:          0 HIT:          0 MISS:          0 MSHR_MERGE:          0
cpu0->cpu0_DTLB WRITE        ACCESS:          0 HIT:          0 MISS:          0 MSHR_MERGE:          0
cpu0->cpu0_DTLB TRANSLATION  ACCESS:          0 HIT:          0 MISS:          0 MSHR_MERGE:          0
cpu0->cpu0_DTLB PREFETCH REQUESTED:          0 ISSUED:          0 USEFUL:          0 USELESS:          0 LATE:          0
cpu0->cpu0_DTLB AVERAGE MISS LATENCY: 7.359 cycles
cpu0->LLC TOTAL        ACCESS:     146683 HIT:      78648 MISS:      68035 MSHR_MERGE:          0
cpu0->LLC LOAD         ACCESS:      20046 HIT:      15187 MISS:       4859 MSHR_MERGE:          0
cpu0->LLC RFO          ACCESS:      31496 HIT:         87 MISS:      31409 MSHR_MERGE:          0
cpu0->LLC PREFETCH     ACCESS:      50545 HIT:      28296 MISS:      22249 MSHR_MERGE:          0
cpu0->LLC WRITE        ACCESS:      41698 HIT:      34272 MISS:       7426 MSHR_MERGE:          0
cpu0->LLC TRANSLATION  ACCESS:       2898 HIT:        806 MISS:       2092 MSHR_MERGE:          0
cpu0->LLC PREFETCH REQUESTED:          0 ISSUED:          0 USEFUL:          0 USELESS:          0 LATE:          0
cpu0->LLC AVERAGE MISS LATENCY: 292.9 cycles

DRAM Statistics

Channel 0 RQ ROW_BUFFER_HIT:       4423
  ROW_BUFFER_MISS:      56184
  AVG DBUS CONGESTED CYCLE: 8.893
Channel 0 WQ ROW_BUFFER_HIT:       6439
  ROW_BUFFER_MISS:      45447
  FULL:          0
Channel 0 REFRESHES ISSUED:       1525

[ROI Statistics]
[System Configuration]
num_cpus 1
cpu_freq 4000
fetch_width 6
decode_width 6
dispatch_width 6
execute_width 6
lq_width 2
sq_width 2
retire_width 6
scheduler_size 128
branch_mispredict_penalty 15
rob_size 352
lq_size 128
sq_size 72
ifetch_buffer_size 64
decode_buffer_size 32
dispatch_buffer_size 32
register_file_size 288
decode_latency 1
dispatch_latency 1
schedule_latency 1
execute_latency 1
page_size 4096
block_size 64
core_0_itlb_set 16
core_0_itlb_way 4
core_0_itlb_rq_size 16
core_0_itlb_wq_size 16
core_0_itlb_pq_size 0
core_0_itlb_mshr_size 8
core_0_itlb_hit_latency 1
core_0_itlb_fill_latency 1
core_0_itlb_max_tag_check 2
core_0_itlb_max_fill 2
core_0_dtlb_set 16
core_0_dtlb_way 4
core_0_dtlb_rq_size 16
core_0_dtlb_wq_size 16
core_0_dtlb_pq_size 0
core_0_dtlb_mshr_size 8
core_0_dtlb_hit_latency 1
core_0_dtlb_fill_latency 1
core_0_dtlb_max_tag_check 2
core_0_dtlb_max_fill 2
core_0_stlb_set 128
core_0_stlb_way 12
core_0_stlb_rq_size 32
core_0_stlb_wq_size 32
core_0_stlb_pq_size 0
core_0_stlb_mshr_size 16
core_0_stlb_hit_latency 4
core_0_stlb_fill_latency 4
core_0_stlb_max_tag_check 1
core_0_stlb_max_fill 1
core_0_l1i_set 64
core_0_l1i_way 8
core_0_l1i_rq_size 64
core_0_l1i_wq_size 64
core_0_l1i_pq_size 32
core_0_l1i_mshr_size 8
core_0_l1i_hit_latency 2
core_0_l1i_fill_latency 2
core_0_l1i_max_tag_check 2
core_0_l1i_max_fill 2
core_0_l1d_set 64
core_0_l1d_way 12
core_0_l1d_rq_size 64
core_0_l1d_wq_size 64
core_0_l1d_pq_size 8
core_0_l1d_mshr_size 16
core_0_l1d_hit_latency 2
core_0_l1d_fill_latency 3
core_0_l1d_max_tag_check 2
core_0_l1d_max_fill 2
core_0_l2c_set 1024
core_0_l2c_way 8
core_0_l2c_rq_size 32
core_0_l2c_wq_size 32
core_0_l2c_pq_size 16
core_0_l2c_mshr_size 32
core_0_l2c_hit_latency 5
core_0_l2c_fill_latency 5
core_0_l2c_max_tag_check 1
core_0_l2c_max_fill 1
llc_set 2048
llc_way 16
llc_rq_size 32
llc_wq_size 32
llc_pq_size 32
llc_mshr_size 64
llc_hit_latency 10
llc_fill_latency 10
llc_max_tag_check 1
llc_max_fill 1
dram_channels 1
dram_ranks 1
dram_bankgroups 8
dram_banks 4
dram_rows 65536
dram_columns 1024
dram_channel_width 8
dram_rq_size 64
dram_wq_size 64
dram_size 17179869184
core_0_itlb_prefetcher no
core_0_dtlb_prefetcher no
core_0_stlb_prefetcher no
core_0_l1i_prefetcher next_line
core_0_l1d_prefetcher berti
core_0_l2c_prefetcher pythia
llc_prefetcher no
llc_replacement drrip

Core_0_instructions 50000002
Core_0_cycles 18295234
Core_0_IPC 2.73295
Core_0_branch_prediction_accuracy 99.6576
Core_0_branch_MPKI 0.96038
Core_0_average_ROB_occupancy_at_mispredict 77.1176

Core_0_ITLB_total_access 7925115
Core_0_ITLB_total_hit 7912873
Core_0_ITLB_total_miss 12242
Core_0_ITLB_total_MPKI 0.24484
Core_0_ITLB_total_miss_rate 0.00154471
Core_0_ITLB_demand_access 7925115
Core_0_ITLB_demand_hit 7912873
Core_0_ITLB_demand_miss 12242
Core_0_ITLB_demand_MPKI 0.24484
Core_0_ITLB_demand_miss_rate 0.00154471
Core_0_ITLB_load_access 7925115
Core_0_ITLB_load_hit 7912873
Core_0_ITLB_load_miss 12242
Core_0_ITLB_load_MPKI 0.24484
Core_0_ITLB_load_miss_rate 0.00154471
Core_0_ITLB_rfo_access 0
Core_0_ITLB_rfo_hit 0
Core_0_ITLB_rfo_miss 0
Core_0_ITLB_rfo_MPKI 0
Core_0_ITLB_rfo_miss_rate 0
Core_0_ITLB_prefetch_access 0
Core_0_ITLB_prefetch_hit 0
Core_0_ITLB_prefetch_miss 0
Core_0_ITLB_prefetch_MPKI 0
Core_0_ITLB_prefetch_miss_rate 0
Core_0_ITLB_writeback_access 0
Core_0_ITLB_writeback_hit 0
Core_0_ITLB_writeback_miss 0
Core_0_ITLB_writeback_MPKI 0
Core_0_ITLB_writeback_miss_rate 0
Core_0_ITLB_prefetch_requested 0
Core_0_ITLB_prefetch_issued 0
Core_0_ITLB_prefetch_useful 0
Core_0_ITLB_prefetch_useless 0
Core_0_ITLB_prefetch_late 0
Core_0_ITLB_prefetch_accuracy 0
Core_0_ITLB_prefetch_coverage 0

Core_0_DTLB_total_access 10710722
Core_0_DTLB_total_hit 10127300
Core_0_DTLB_total_miss 583422
Core_0_DTLB_total_MPKI 11.6684
Core_0_DTLB_total_miss_rate 0.0544708
Core_0_DTLB_demand_access 10710722
Core_0_DTLB_demand_hit 10127300
Core_0_DTLB_demand_miss 583422
Core_0_DTLB_demand_MPKI 11.6684
Core_0_DTLB_demand_miss_rate 0.0544708
Core_0_DTLB_load_access 10710722
Core_0_DTLB_load_hit 10127300
Core_0_DTLB_load_miss 583422
Core_0_DTLB_load_MPKI 11.6684
Core_0_DTLB_load_miss_rate 0.0544708
Core_0_DTLB_rfo_access 0
Core_0_DTLB_rfo_hit 0
Core_0_DTLB_rfo_miss 0
Core_0_DTLB_rfo_MPKI 0
Core_0_DTLB_rfo_miss_rate 0
Core_0_DTLB_prefetch_access 0
Core_0_DTLB_prefetch_hit 0
Core_0_DTLB_prefetch_miss 0
Core_0_DTLB_prefetch_MPKI 0
Core_0_DTLB_prefetch_miss_rate 0
Core_0_DTLB_writeback_access 0
Core_0_DTLB_writeback_hit 0
Core_0_DTLB_writeback_miss 0
Core_0_DTLB_writeback_MPKI 0
Core_0_DTLB_writeback_miss_rate 0
Core_0_DTLB_prefetch_requested 0
Core_0_DTLB_prefetch_issued 0
Core_0_DTLB_prefetch_useful 0
Core_0_DTLB_prefetch_useless 0
Core_0_DTLB_prefetch_late 0
Core_0_DTLB_prefetch_accuracy 0
Core_0_DTLB_prefetch_coverage 0

Core_0_STLB_total_access 367147
Core_0_STLB_total_hit 362183
Core_0_STLB_total_miss 4964
Core_0_STLB_total_MPKI 0.09928
Core_0_STLB_total_miss_rate 0.0135205
Core_0_STLB_demand_access 367147
Core_0_STLB_demand_hit 362183
Core_0_STLB_demand_miss 4964
Core_0_STLB_demand_MPKI 0.09928
Core_0_STLB_demand_miss_rate 0.0135205
Core_0_STLB_load_access 367147
Core_0_STLB_load_hit 362183
Core_0_STLB_load_miss 4964
Core_0_STLB_load_MPKI 0.09928
Core_0_STLB_load_miss_rate 0.0135205
Core_0_STLB_rfo_access 0
Core_0_STLB_rfo_hit 0
Core_0_STLB_rfo_miss 0
Core_0_STLB_rfo_MPKI 0
Core_0_STLB_rfo_miss_rate 0
Core_0_STLB_prefetch_access 0
Core_0_STLB_prefetch_hit 0
Core_0_STLB_prefetch_miss 0
Core_0_STLB_prefetch_MPKI 0
Core_0_STLB_prefetch_miss_rate 0
Core_0_STLB_writeback_access 0
Core_0_STLB_writeback_hit 0
Core_0_STLB_writeback_miss 0
Core_0_STLB_writeback_MPKI 0
Core_0_STLB_writeback_miss_rate 0
Core_0_STLB_prefetch_requested 0
Core_0_STLB_prefetch_issued 0
Core_0_STLB_prefetch_useful 0
Core_0_STLB_prefetch_useless 0
Core_0_STLB_prefetch_late 0
Core_0_STLB_prefetch_accuracy 0
Core_0_STLB_prefetch_coverage 0

Core_0_L1I_total_access 8039554
Core_0_L1I_total_hit 8030868
Core_0_L1I_total_miss 8686
Core_0_L1I_total_MPKI 0.17372
Core_0_L1I_total_miss_rate 0.00108041
Core_0_L1I_demand_access 8039554
Core_0_L1I_demand_hit 8030868
Core_0_L1I_demand_miss 8686
Core_0_L1I_demand_MPKI 0.17372
Core_0_L1I_demand_miss_rate 0.00108041
Core_0_L1I_load_access 8039554
Core_0_L1I_load_hit 8030868
Core_0_L1I_load_miss 8686
Core_0_L1I_load_MPKI 0.17372
Core_0_L1I_load_miss_rate 0.00108041
Core_0_L1I_rfo_access 0
Core_0_L1I_rfo_hit 0
Core_0_L1I_rfo_miss 0
Core_0_L1I_rfo_MPKI 0
Core_0_L1I_rfo_miss_rate 0
Core_0_L1I_prefetch_access 0
Core_0_L1I_prefetch_hit 0
Core_0_L1I_prefetch_miss 0
Core_0_L1I_prefetch_MPKI 0
Core_0_L1I_prefetch_miss_rate 0
Core_0_L1I_writeback_access 0
Core_0_L1I_writeback_hit 0
Core_0_L1I_writeback_miss 0
Core_0_L1I_writeback_MPKI 0
Core_0_L1I_writeback_miss_rate 0
Core_0_L1I_prefetch_requested 0
Core_0_L1I_prefetch_issued 0
Core_0_L1I_prefetch_useful 0
Core_0_L1I_prefetch_useless 0
Core_0_L1I_prefetch_late 0
Core_0_L1I_prefetch_accuracy 0
Core_0_L1I_prefetch_coverage 0

Core_0_L1D_total_access 10909095
Core_0_L1D_total_hit 8369943
Core_0_L1D_total_miss 2539152
Core_0_L1D_total_MPKI 50.783
Core_0_L1D_total_miss_rate 0.232756
Core_0_L1D_demand_access 8467166
Core_0_L1D_demand_hit 7480278
Core_0_L1D_demand_miss 986888
Core_0_L1D_demand_MPKI 19.7378
Core_0_L1D_demand_miss_rate 0.116555
Core_0_L1D_load_access 8467166
Core_0_L1D_load_hit 7480278
Core_0_L1D_load_miss 986888
Core_0_L1D_load_MPKI 19.7378
Core_0_L1D_load_miss_rate 0.116555
Core_0_L1D_rfo_access 0
Core_0_L1D_rfo_hit 0
Core_0_L1D_rfo_miss 0
Core_0_L1D_rfo_MPKI 0
Core_0_L1D_rfo_miss_rate 0
Core_0_L1D_prefetch_access 1331298
Core_0_L1D_prefetch_hit 63374
Core_0_L1D_prefetch_miss 1267924
Core_0_L1D_prefetch_MPKI 25.3585
Core_0_L1D_prefetch_miss_rate 0.952397
Core_0_L1D_writeback_access 1110631
Core_0_L1D_writeback_hit 826291
Core_0_L1D_writeback_miss 284340
Core_0_L1D_writeback_MPKI 5.6868
Core_0_L1D_writeback_miss_rate 0.256017
Core_0_L1D_prefetch_requested 1334414
Core_0_L1D_prefetch_issued 1331293
Core_0_L1D_prefetch_useful 1168768
Core_0_L1D_prefetch_useless 36505
Core_0_L1D_prefetch_late 27641
Core_0_L1D_prefetch_accuracy 0.877919
Core_0_L1D_prefetch_coverage 0.542187

Core_0_L2C_total_access 5731085
Core_0_L2C_total_hit 5617672
Core_0_L2C_total_miss 113413
Core_0_L2C_total_MPKI 2.26826
Core_0_L2C_total_miss_rate 0.0197891
Core_0_L2C_demand_access 713846
Core_0_L2C_demand_hit 661780
Core_0_L2C_demand_miss 52066
Core_0_L2C_demand_MPKI 1.04132
Core_0_L2C_demand_miss_rate 0.0729373
Core_0_L2C_load_access 667838
Core_0_L2C_load_hit 647381
Core_0_L2C_load_miss 20457
Core_0_L2C_load_MPKI 0.40914
Core_0_L2C_load_miss_rate 0.0306317
Core_0_L2C_rfo_access 46008
Core_0_L2C_rfo_hit 14399
Core_0_L2C_rfo_miss 31609
Core_0_L2C_rfo_MPKI 0.63218
Core_0_L2C_rfo_miss_rate 0.687033
Core_0_L2C_prefetch_access 4941010
Core_0_L2C_prefetch_hit 4879667
Core_0_L2C_prefetch_miss 61343
Core_0_L2C_prefetch_MPKI 1.22686
Core_0_L2C_prefetch_miss_rate 0.0124151
Core_0_L2C_writeback_access 76229
Core_0_L2C_writeback_hit 76225
Core_0_L2C_writeback_miss 4
Core_0_L2C_writeback_MPKI 8e-05
Core_0_L2C_writeback_miss_rate 5.24735e-05
Core_0_L2C_prefetch_requested 3739850
Core_0_L2C_prefetch_issued 3735748
Core_0_L2C_prefetch_useful 9609
Core_0_L2C_prefetch_useless 32929
Core_0_L2C_prefetch_late 524
Core_0_L2C_prefetch_accuracy 0.00257218
Core_0_L2C_prefetch_coverage 0.155801

Core_0_LLC_total_access 143785
Core_0_LLC_total_hit 77842
Core_0_LLC_total_miss 65943
Core_0_LLC_total_MPKI 1.31886
Core_0_LLC_total_miss_rate 0.458622
Core_0_LLC_demand_access 51542
Core_0_LLC_demand_hit 15274
Core_0_LLC_demand_miss 36268
Core_0_LLC_demand_MPKI 0.72536
Core_0_LLC_demand_miss_rate 0.703659
Core_0_LLC_load_access 20046
Core_0_LLC_load_hit 15187
Core_0_LLC_load_miss 4859
Core_0_LLC_load_MPKI 0.09718
Core_0_LLC_load_miss_rate 0.242392
Core_0_LLC_rfo_access 31496
Core_0_LLC_rfo_hit 87
Core_0_LLC_rfo_miss 31409
Core_0_LLC_rfo_MPKI 0.62818
Core_0_LLC_rfo_miss_rate 0.997238
Core_0_LLC_prefetch_access 50545
Core_0_LLC_prefetch_hit 28296
Core_0_LLC_prefetch_miss 22249
Core_0_LLC_prefetch_MPKI 0.44498
Core_0_LLC_prefetch_miss_rate 0.440182
Core_0_LLC_writeback_access 41698
Core_0_LLC_writeback_hit 34272
Core_0_LLC_writeback_miss 7426
Core_0_LLC_writeback_MPKI 0.14852
Core_0_LLC_writeback_miss_rate 0.17809
Core_0_LLC_prefetch_requested 0
Core_0_LLC_prefetch_issued 0
Core_0_LLC_prefetch_useful 0
Core_0_LLC_prefetch_useless 0
Core_0_LLC_prefetch_late 0
Core_0_LLC_prefetch_accuracy 0
Core_0_LLC_prefetch_coverage 0

[DRAM Statistics]
Channel_0_RQ_row_buffer_hit 4423
Channel_0_RQ_row_buffer_miss 56184
Channel_0_WQ_row_buffer_hit 6439
Channel_0_WQ_row_buffer_miss 45447
Channel_0_WQ_full 0
Channel_0_dbus_congested 320586
DRAM_total_RQ_row_buffer_hit 4423
DRAM_total_RQ_row_buffer_miss 56184
DRAM_total_WQ_row_buffer_hit 6439
DRAM_total_WQ_row_buffer_miss 45447
DRAM_total_WQ_full 0
DRAM_total_dbus_congested 320586
DRAM_avg_congested_cycle 8.89263

======STLB miss causes ========
Core_0_STLB_miss_cause_breakdown
Core_0_STLB_cause_Demand_Data_miss 4663
Core_0_STLB_cause_Demand_Data_miss_rate 0.0127006
Core_0_STLB_cause_Demand_Instruction_miss 21
Core_0_STLB_cause_Demand_Instruction_miss_rate 5.71978e-05
Core_0_STLB_cause_L1D_Prefetch_miss 280
Core_0_STLB_cause_L1D_Prefetch_miss_rate 0.000762637
Core_0_STLB_cause_L1I_Prefetch_miss 0
Core_0_STLB_cause_L1I_Prefetch_miss_rate 0
Core_0_STLB_cause_Other_miss 0
Core_0_STLB_cause_Other_miss_rate 0
Core_0_STLB_Demand_miss 4684
Core_0_STLB_Demand_miss_rate 0.0127578
Core_0_STLB_L1D_Prefetch_miss 280
Core_0_STLB_L1D_Prefetch_miss_rate 0.000762637
Core_0_STLB_Other_miss 0
Core_0_STLB_Other_miss_rate 0
