[VMEM] WARNING: physical memory size is smaller than virtual memory size.

*** ChampSim Multicore Out-of-Order Simulator ***
Warmup Instructions: 20000000
Simulation Instructions: 50000000
Number of CPUs: 1
Page size: 4096
Core 0: /data0/tzh/champsim_traces/SPEC17/602.gcc_s-2375B.champsimtrace.xz
 L1D Berti prefetcher
Off-chip DRAM Size: 16 GiB Channels: 1 Width: 64-bit Data Rate: 3205 MT/s
Warmup halting CPU 0 at instruction 20000003 cycle 4786301 for remainder of phase
Warmup finished CPU 0 instructions: 20000003 cycles: 4786301 cumulative IPC: 4.179 (Simulation time: 00 hr 01 min 37 sec)
Warmup complete CPU 0 instructions: 20000003 cycles: 4786301 cumulative IPC: 4.179 (Simulation time: 00 hr 01 min 37 sec)
Simulation finished CPU 0 instructions: 50000001 cycles: 42810690 cumulative IPC: 1.168 (Simulation time: 00 hr 08 min 10 sec)
Simulation complete CPU 0 instructions: 50000001 cycles: 42810690 cumulative IPC: 1.168 (Simulation time: 00 hr 08 min 10 sec)

ChampSim completed all CPUs

=== Simulation ===
CPU 0 runs /data0/tzh/champsim_traces/SPEC17/602.gcc_s-2375B.champsimtrace.xz

Region of Interest Statistics

CPU 0 cumulative IPC: 1.168 instructions: 50000001 cycles: 42810690
CPU 0 Branch Prediction Accuracy: 95.26% MPKI: 9.992 Average ROB Occupancy at Mispredict: 48.95
Branch type MPKI
BRANCH_DIRECT_JUMP: 0.7672
BRANCH_INDIRECT: 0.9706
BRANCH_CONDITIONAL: 7.952
BRANCH_DIRECT_CALL: 0.1447
BRANCH_INDIRECT_CALL: 0.02178
BRANCH_RETURN: 0.1352

cpu0->cpu0_STLB TOTAL        ACCESS:     234027 HIT:     227158 MISS:       6869 MSHR_MERGE:          0
cpu0->cpu0_STLB LOAD         ACCESS:     234027 HIT:     227158 MISS:       6869 MSHR_MERGE:          0
cpu0->cpu0_STLB RFO          ACCESS:          0 HIT:          0 MISS:          0 MSHR_MERGE:          0
cpu0->cpu0_STLB PREFETCH     ACCESS:          0 HIT:          0 MISS:          0 MSHR_MERGE:          0
cpu0->cpu0_STLB WRITE        ACCESS:          0 HIT:          0 MISS:          0 MSHR_MERGE:          0
cpu0->cpu0_STLB TRANSLATION  ACCESS:          0 HIT:          0 MISS:          0 MSHR_MERGE:          0
cpu0->cpu0_STLB PREFETCH REQUESTED:          0 ISSUED:          0 USEFUL:          0 USELESS:          0 LATE:          0
cpu0->cpu0_STLB AVERAGE MISS LATENCY: 115.3 cycles
cpu0->cpu0_L2C TOTAL        ACCESS:    2343255 HIT:    1898147 MISS:     445108 MSHR_MERGE:      59550
cpu0->cpu0_L2C LOAD         ACCESS:     513364 HIT:     418754 MISS:      94610 MSHR_MERGE:       1478
cpu0->cpu0_L2C RFO          ACCESS:      57089 HIT:      26307 MISS:      30782 MSHR_MERGE:        134
cpu0->cpu0_L2C PREFETCH     ACCESS:    1621739 HIT:    1309025 MISS:     312714 MSHR_MERGE:      57938
cpu0->cpu0_L2C WRITE        ACCESS:     142373 HIT:     141915 MISS:        458 MSHR_MERGE:          0
cpu0->cpu0_L2C TRANSLATION  ACCESS:       8690 HIT:       2146 MISS:       6544 MSHR_MERGE:          0
cpu0->cpu0_L2C PREFETCH REQUESTED:    1381894 ISSUED:    1323627 USEFUL:     121960 USELESS:      76039 LATE:       1612
cpu0->cpu0_L2C AVERAGE MISS LATENCY: 70.71 cycles
cpu0->cpu0_L1I TOTAL        ACCESS:    3203240 HIT:    2991874 MISS:     211366 MSHR_MERGE:      47672
cpu0->cpu0_L1I LOAD         ACCESS:    3203240 HIT:    2991874 MISS:     211366 MSHR_MERGE:      47672
cpu0->cpu0_L1I RFO          ACCESS:          0 HIT:          0 MISS:          0 MSHR_MERGE:          0
cpu0->cpu0_L1I PREFETCH     ACCESS:          0 HIT:          0 MISS:          0 MSHR_MERGE:          0
cpu0->cpu0_L1I WRITE        ACCESS:          0 HIT:          0 MISS:          0 MSHR_MERGE:          0
cpu0->cpu0_L1I TRANSLATION  ACCESS:          0 HIT:          0 MISS:          0 MSHR_MERGE:          0
cpu0->cpu0_L1I PREFETCH REQUESTED:          0 ISSUED:          0 USEFUL:          0 USELESS:          0 LATE:          0
cpu0->cpu0_L1I AVERAGE MISS LATENCY: 14.55 cycles
cpu0->cpu0_L1D TOTAL        ACCESS:   14790649 HIT:   13822825 MISS:     967824 MSHR_MERGE:     254253
cpu0->cpu0_L1D LOAD         ACCESS:    8547104 HIT:    8091693 MISS:     455411 MSHR_MERGE:     105740
cpu0->cpu0_L1D RFO          ACCESS:          0 HIT:          0 MISS:          0 MSHR_MERGE:          0
cpu0->cpu0_L1D PREFETCH     ACCESS:     525556 HIT:     218528 MISS:     307028 MSHR_MERGE:       8916
cpu0->cpu0_L1D WRITE        ACCESS:    5700973 HIT:    5504301 MISS:     196672 MSHR_MERGE:     139574
cpu0->cpu0_L1D TRANSLATION  ACCESS:      17016 HIT:       8303 MISS:       8713 MSHR_MERGE:         23
cpu0->cpu0_L1D PREFETCH REQUESTED:     531607 ISSUED:     525556 USEFUL:     173438 USELESS:     124624 LATE:       7744
cpu0->cpu0_L1D AVERAGE MISS LATENCY: 28.18 cycles
cpu0->cpu0_ITLB TOTAL        ACCESS:    2880093 HIT:    2844837 MISS:      35256 MSHR_MERGE:      19402
cpu0->cpu0_ITLB LOAD         ACCESS:    2880093 HIT:    2844837 MISS:      35256 MSHR_MERGE:      19402
cpu0->cpu0_ITLB RFO          ACCESS:          0 HIT:          0 MISS:          0 MSHR_MERGE:          0
cpu0->cpu0_ITLB PREFETCH     ACCESS:          0 HIT:          0 MISS:          0 MSHR_MERGE:          0
cpu0->cpu0_ITLB WRITE        ACCESS:          0 HIT:          0 MISS:          0 MSHR_MERGE:          0
cpu0->cpu0_ITLB TRANSLATION  ACCESS:          0 HIT:          0 MISS:          0 MSHR_MERGE:          0
cpu0->cpu0_ITLB PREFETCH REQUESTED:          0 ISSUED:          0 USEFUL:          0 USELESS:          0 LATE:          0
cpu0->cpu0_ITLB AVERAGE MISS LATENCY: 8.434 cycles
cpu0->cpu0_DTLB TOTAL        ACCESS:   13992303 HIT:   13700231 MISS:     292072 MSHR_MERGE:      73899
cpu0->cpu0_DTLB LOAD         ACCESS:   13992303 HIT:   13700231 MISS:     292072 MSHR_MERGE:      73899
cpu0->cpu0_DTLB RFO          ACCESS:          0 HIT:          0 MISS:          0 MSHR_MERGE:          0
cpu0->cpu0_DTLB PREFETCH     ACCESS:          0 HIT:          0 MISS:          0 MSHR_MERGE:          0
cpu0->cpu0_DTLB WRITE        ACCESS:          0 HIT:          0 MISS:          0 MSHR_MERGE:          0
cpu0->cpu0_DTLB TRANSLATION  ACCESS:          0 HIT:          0 MISS:          0 MSHR_MERGE:          0
cpu0->cpu0_DTLB PREFETCH REQUESTED:          0 ISSUED:          0 USEFUL:          0 USELESS:          0 LATE:          0
cpu0->cpu0_DTLB AVERAGE MISS LATENCY: 8.415 cycles
cpu0->LLC TOTAL        ACCESS:     461746 HIT:     378880 MISS:      82866 MSHR_MERGE:          0
cpu0->LLC LOAD         ACCESS:      93132 HIT:      80115 MISS:      13017 MSHR_MERGE:          0
cpu0->LLC RFO          ACCESS:      30648 HIT:      11723 MISS:      18925 MSHR_MERGE:          0
cpu0->LLC PREFETCH     ACCESS:     254776 HIT:     214337 MISS:      40439 MSHR_MERGE:          0
cpu0->LLC WRITE        ACCESS:      76646 HIT:      67828 MISS:       8818 MSHR_MERGE:          0
cpu0->LLC TRANSLATION  ACCESS:       6544 HIT:       4877 MISS:       1667 MSHR_MERGE:          0
cpu0->LLC PREFETCH REQUESTED:          0 ISSUED:          0 USEFUL:          0 USELESS:          0 LATE:          0
cpu0->LLC AVERAGE MISS LATENCY: 172.8 cycles

DRAM Statistics

Channel 0 RQ ROW_BUFFER_HIT:       4141
  ROW_BUFFER_MISS:      69877
  AVG DBUS CONGESTED CYCLE: 12.88
Channel 0 WQ ROW_BUFFER_HIT:       4808
  ROW_BUFFER_MISS:      22333
  FULL:          0
Channel 0 REFRESHES ISSUED:       3568

[ROI Statistics]
[System Configuration]
num_cpus 1
cpu_freq 4000
fetch_width 6
decode_width 6
dispatch_width 6
execute_width 6
lq_width 2
sq_width 2
retire_width 6
scheduler_size 128
branch_mispredict_penalty 15
rob_size 352
lq_size 128
sq_size 72
ifetch_buffer_size 64
decode_buffer_size 32
dispatch_buffer_size 32
register_file_size 288
decode_latency 1
dispatch_latency 1
schedule_latency 1
execute_latency 1
page_size 4096
block_size 64
core_0_itlb_set 16
core_0_itlb_way 4
core_0_itlb_rq_size 16
core_0_itlb_wq_size 16
core_0_itlb_pq_size 0
core_0_itlb_mshr_size 8
core_0_itlb_hit_latency 1
core_0_itlb_fill_latency 1
core_0_itlb_max_tag_check 2
core_0_itlb_max_fill 2
core_0_dtlb_set 16
core_0_dtlb_way 4
core_0_dtlb_rq_size 16
core_0_dtlb_wq_size 16
core_0_dtlb_pq_size 0
core_0_dtlb_mshr_size 8
core_0_dtlb_hit_latency 1
core_0_dtlb_fill_latency 1
core_0_dtlb_max_tag_check 2
core_0_dtlb_max_fill 2
core_0_stlb_set 128
core_0_stlb_way 12
core_0_stlb_rq_size 32
core_0_stlb_wq_size 32
core_0_stlb_pq_size 0
core_0_stlb_mshr_size 16
core_0_stlb_hit_latency 4
core_0_stlb_fill_latency 4
core_0_stlb_max_tag_check 1
core_0_stlb_max_fill 1
core_0_l1i_set 64
core_0_l1i_way 8
core_0_l1i_rq_size 64
core_0_l1i_wq_size 64
core_0_l1i_pq_size 32
core_0_l1i_mshr_size 8
core_0_l1i_hit_latency 2
core_0_l1i_fill_latency 2
core_0_l1i_max_tag_check 2
core_0_l1i_max_fill 2
core_0_l1d_set 64
core_0_l1d_way 12
core_0_l1d_rq_size 64
core_0_l1d_wq_size 64
core_0_l1d_pq_size 8
core_0_l1d_mshr_size 16
core_0_l1d_hit_latency 2
core_0_l1d_fill_latency 3
core_0_l1d_max_tag_check 2
core_0_l1d_max_fill 2
core_0_l2c_set 1024
core_0_l2c_way 8
core_0_l2c_rq_size 32
core_0_l2c_wq_size 32
core_0_l2c_pq_size 16
core_0_l2c_mshr_size 32
core_0_l2c_hit_latency 5
core_0_l2c_fill_latency 5
core_0_l2c_max_tag_check 1
core_0_l2c_max_fill 1
llc_set 2048
llc_way 16
llc_rq_size 32
llc_wq_size 32
llc_pq_size 32
llc_mshr_size 64
llc_hit_latency 10
llc_fill_latency 10
llc_max_tag_check 1
llc_max_fill 1
dram_channels 1
dram_ranks 1
dram_bankgroups 8
dram_banks 4
dram_rows 65536
dram_columns 1024
dram_channel_width 8
dram_rq_size 64
dram_wq_size 64
dram_size 17179869184
core_0_itlb_prefetcher no
core_0_dtlb_prefetcher no
core_0_stlb_prefetcher no
core_0_l1i_prefetcher next_line
core_0_l1d_prefetcher berti
core_0_l2c_prefetcher pythia
llc_prefetcher no
llc_replacement drrip

Core_0_instructions 50000001
Core_0_cycles 42810690
Core_0_IPC 1.16793
Core_0_branch_prediction_accuracy 95.2643
Core_0_branch_MPKI 9.99184
Core_0_average_ROB_occupancy_at_mispredict 48.9492

Core_0_ITLB_total_access 2880093
Core_0_ITLB_total_hit 2844837
Core_0_ITLB_total_miss 35256
Core_0_ITLB_total_MPKI 0.70512
Core_0_ITLB_total_miss_rate 0.0122413
Core_0_ITLB_demand_access 2880093
Core_0_ITLB_demand_hit 2844837
Core_0_ITLB_demand_miss 35256
Core_0_ITLB_demand_MPKI 0.70512
Core_0_ITLB_demand_miss_rate 0.0122413
Core_0_ITLB_load_access 2880093
Core_0_ITLB_load_hit 2844837
Core_0_ITLB_load_miss 35256
Core_0_ITLB_load_MPKI 0.70512
Core_0_ITLB_load_miss_rate 0.0122413
Core_0_ITLB_rfo_access 0
Core_0_ITLB_rfo_hit 0
Core_0_ITLB_rfo_miss 0
Core_0_ITLB_rfo_MPKI 0
Core_0_ITLB_rfo_miss_rate 0
Core_0_ITLB_prefetch_access 0
Core_0_ITLB_prefetch_hit 0
Core_0_ITLB_prefetch_miss 0
Core_0_ITLB_prefetch_MPKI 0
Core_0_ITLB_prefetch_miss_rate 0
Core_0_ITLB_writeback_access 0
Core_0_ITLB_writeback_hit 0
Core_0_ITLB_writeback_miss 0
Core_0_ITLB_writeback_MPKI 0
Core_0_ITLB_writeback_miss_rate 0
Core_0_ITLB_prefetch_requested 0
Core_0_ITLB_prefetch_issued 0
Core_0_ITLB_prefetch_useful 0
Core_0_ITLB_prefetch_useless 0
Core_0_ITLB_prefetch_late 0
Core_0_ITLB_prefetch_accuracy 0
Core_0_ITLB_prefetch_coverage 0

Core_0_DTLB_total_access 13992303
Core_0_DTLB_total_hit 13700231
Core_0_DTLB_total_miss 292072
Core_0_DTLB_total_MPKI 5.84144
Core_0_DTLB_total_miss_rate 0.0208738
Core_0_DTLB_demand_access 13992303
Core_0_DTLB_demand_hit 13700231
Core_0_DTLB_demand_miss 292072
Core_0_DTLB_demand_MPKI 5.84144
Core_0_DTLB_demand_miss_rate 0.0208738
Core_0_DTLB_load_access 13992303
Core_0_DTLB_load_hit 13700231
Core_0_DTLB_load_miss 292072
Core_0_DTLB_load_MPKI 5.84144
Core_0_DTLB_load_miss_rate 0.0208738
Core_0_DTLB_rfo_access 0
Core_0_DTLB_rfo_hit 0
Core_0_DTLB_rfo_miss 0
Core_0_DTLB_rfo_MPKI 0
Core_0_DTLB_rfo_miss_rate 0
Core_0_DTLB_prefetch_access 0
Core_0_DTLB_prefetch_hit 0
Core_0_DTLB_prefetch_miss 0
Core_0_DTLB_prefetch_MPKI 0
Core_0_DTLB_prefetch_miss_rate 0
Core_0_DTLB_writeback_access 0
Core_0_DTLB_writeback_hit 0
Core_0_DTLB_writeback_miss 0
Core_0_DTLB_writeback_MPKI 0
Core_0_DTLB_writeback_miss_rate 0
Core_0_DTLB_prefetch_requested 0
Core_0_DTLB_prefetch_issued 0
Core_0_DTLB_prefetch_useful 0
Core_0_DTLB_prefetch_useless 0
Core_0_DTLB_prefetch_late 0
Core_0_DTLB_prefetch_accuracy 0
Core_0_DTLB_prefetch_coverage 0

Core_0_STLB_total_access 234027
Core_0_STLB_total_hit 227158
Core_0_STLB_total_miss 6869
Core_0_STLB_total_MPKI 0.13738
Core_0_STLB_total_miss_rate 0.0293513
Core_0_STLB_demand_access 234027
Core_0_STLB_demand_hit 227158
Core_0_STLB_demand_miss 6869
Core_0_STLB_demand_MPKI 0.13738
Core_0_STLB_demand_miss_rate 0.0293513
Core_0_STLB_load_access 234027
Core_0_STLB_load_hit 227158
Core_0_STLB_load_miss 6869
Core_0_STLB_load_MPKI 0.13738
Core_0_STLB_load_miss_rate 0.0293513
Core_0_STLB_rfo_access 0
Core_0_STLB_rfo_hit 0
Core_0_STLB_rfo_miss 0
Core_0_STLB_rfo_MPKI 0
Core_0_STLB_rfo_miss_rate 0
Core_0_STLB_prefetch_access 0
Core_0_STLB_prefetch_hit 0
Core_0_STLB_prefetch_miss 0
Core_0_STLB_prefetch_MPKI 0
Core_0_STLB_prefetch_miss_rate 0
Core_0_STLB_writeback_access 0
Core_0_STLB_writeback_hit 0
Core_0_STLB_writeback_miss 0
Core_0_STLB_writeback_MPKI 0
Core_0_STLB_writeback_miss_rate 0
Core_0_STLB_prefetch_requested 0
Core_0_STLB_prefetch_issued 0
Core_0_STLB_prefetch_useful 0
Core_0_STLB_prefetch_useless 0
Core_0_STLB_prefetch_late 0
Core_0_STLB_prefetch_accuracy 0
Core_0_STLB_prefetch_coverage 0

Core_0_L1I_total_access 3203240
Core_0_L1I_total_hit 2991874
Core_0_L1I_total_miss 211366
Core_0_L1I_total_MPKI 4.22732
Core_0_L1I_total_miss_rate 0.0659851
Core_0_L1I_demand_access 3203240
Core_0_L1I_demand_hit 2991874
Core_0_L1I_demand_miss 211366
Core_0_L1I_demand_MPKI 4.22732
Core_0_L1I_demand_miss_rate 0.0659851
Core_0_L1I_load_access 3203240
Core_0_L1I_load_hit 2991874
Core_0_L1I_load_miss 211366
Core_0_L1I_load_MPKI 4.22732
Core_0_L1I_load_miss_rate 0.0659851
Core_0_L1I_rfo_access 0
Core_0_L1I_rfo_hit 0
Core_0_L1I_rfo_miss 0
Core_0_L1I_rfo_MPKI 0
Core_0_L1I_rfo_miss_rate 0
Core_0_L1I_prefetch_access 0
Core_0_L1I_prefetch_hit 0
Core_0_L1I_prefetch_miss 0
Core_0_L1I_prefetch_MPKI 0
Core_0_L1I_prefetch_miss_rate 0
Core_0_L1I_writeback_access 0
Core_0_L1I_writeback_hit 0
Core_0_L1I_writeback_miss 0
Core_0_L1I_writeback_MPKI 0
Core_0_L1I_writeback_miss_rate 0
Core_0_L1I_prefetch_requested 0
Core_0_L1I_prefetch_issued 0
Core_0_L1I_prefetch_useful 0
Core_0_L1I_prefetch_useless 0
Core_0_L1I_prefetch_late 0
Core_0_L1I_prefetch_accuracy 0
Core_0_L1I_prefetch_coverage 0

Core_0_L1D_total_access 14773633
Core_0_L1D_total_hit 13814522
Core_0_L1D_total_miss 959111
Core_0_L1D_total_MPKI 19.1822
Core_0_L1D_total_miss_rate 0.0649205
Core_0_L1D_demand_access 8547104
Core_0_L1D_demand_hit 8091693
Core_0_L1D_demand_miss 455411
Core_0_L1D_demand_MPKI 9.10822
Core_0_L1D_demand_miss_rate 0.0532825
Core_0_L1D_load_access 8547104
Core_0_L1D_load_hit 8091693
Core_0_L1D_load_miss 455411
Core_0_L1D_load_MPKI 9.10822
Core_0_L1D_load_miss_rate 0.0532825
Core_0_L1D_rfo_access 0
Core_0_L1D_rfo_hit 0
Core_0_L1D_rfo_miss 0
Core_0_L1D_rfo_MPKI 0
Core_0_L1D_rfo_miss_rate 0
Core_0_L1D_prefetch_access 525556
Core_0_L1D_prefetch_hit 218528
Core_0_L1D_prefetch_miss 307028
Core_0_L1D_prefetch_MPKI 6.14056
Core_0_L1D_prefetch_miss_rate 0.584197
Core_0_L1D_writeback_access 5700973
Core_0_L1D_writeback_hit 5504301
Core_0_L1D_writeback_miss 196672
Core_0_L1D_writeback_MPKI 3.93344
Core_0_L1D_writeback_miss_rate 0.034498
Core_0_L1D_prefetch_requested 531607
Core_0_L1D_prefetch_issued 525556
Core_0_L1D_prefetch_useful 173438
Core_0_L1D_prefetch_useless 124624
Core_0_L1D_prefetch_late 7744
Core_0_L1D_prefetch_accuracy 0.330009
Core_0_L1D_prefetch_coverage 0.275802

Core_0_L2C_total_access 2334565
Core_0_L2C_total_hit 1896001
Core_0_L2C_total_miss 438564
Core_0_L2C_total_MPKI 8.77128
Core_0_L2C_total_miss_rate 0.187857
Core_0_L2C_demand_access 570453
Core_0_L2C_demand_hit 445061
Core_0_L2C_demand_miss 125392
Core_0_L2C_demand_MPKI 2.50784
Core_0_L2C_demand_miss_rate 0.219811
Core_0_L2C_load_access 513364
Core_0_L2C_load_hit 418754
Core_0_L2C_load_miss 94610
Core_0_L2C_load_MPKI 1.8922
Core_0_L2C_load_miss_rate 0.184294
Core_0_L2C_rfo_access 57089
Core_0_L2C_rfo_hit 26307
Core_0_L2C_rfo_miss 30782
Core_0_L2C_rfo_MPKI 0.61564
Core_0_L2C_rfo_miss_rate 0.539193
Core_0_L2C_prefetch_access 1621739
Core_0_L2C_prefetch_hit 1309025
Core_0_L2C_prefetch_miss 312714
Core_0_L2C_prefetch_MPKI 6.25428
Core_0_L2C_prefetch_miss_rate 0.192826
Core_0_L2C_writeback_access 142373
Core_0_L2C_writeback_hit 141915
Core_0_L2C_writeback_miss 458
Core_0_L2C_writeback_MPKI 0.00916
Core_0_L2C_writeback_miss_rate 0.0032169
Core_0_L2C_prefetch_requested 1381894
Core_0_L2C_prefetch_issued 1323627
Core_0_L2C_prefetch_useful 121960
Core_0_L2C_prefetch_useless 76039
Core_0_L2C_prefetch_late 1612
Core_0_L2C_prefetch_accuracy 0.0921408
Core_0_L2C_prefetch_coverage 0.493063

Core_0_LLC_total_access 455202
Core_0_LLC_total_hit 374003
Core_0_LLC_total_miss 81199
Core_0_LLC_total_MPKI 1.62398
Core_0_LLC_total_miss_rate 0.17838
Core_0_LLC_demand_access 123780
Core_0_LLC_demand_hit 91838
Core_0_LLC_demand_miss 31942
Core_0_LLC_demand_MPKI 0.63884
Core_0_LLC_demand_miss_rate 0.258055
Core_0_LLC_load_access 93132
Core_0_LLC_load_hit 80115
Core_0_LLC_load_miss 13017
Core_0_LLC_load_MPKI 0.26034
Core_0_LLC_load_miss_rate 0.139769
Core_0_LLC_rfo_access 30648
Core_0_LLC_rfo_hit 11723
Core_0_LLC_rfo_miss 18925
Core_0_LLC_rfo_MPKI 0.3785
Core_0_LLC_rfo_miss_rate 0.617495
Core_0_LLC_prefetch_access 254776
Core_0_LLC_prefetch_hit 214337
Core_0_LLC_prefetch_miss 40439
Core_0_LLC_prefetch_MPKI 0.80878
Core_0_LLC_prefetch_miss_rate 0.158724
Core_0_LLC_writeback_access 76646
Core_0_LLC_writeback_hit 67828
Core_0_LLC_writeback_miss 8818
Core_0_LLC_writeback_MPKI 0.17636
Core_0_LLC_writeback_miss_rate 0.115048
Core_0_LLC_prefetch_requested 0
Core_0_LLC_prefetch_issued 0
Core_0_LLC_prefetch_useful 0
Core_0_LLC_prefetch_useless 0
Core_0_LLC_prefetch_late 0
Core_0_LLC_prefetch_accuracy 0
Core_0_LLC_prefetch_coverage 0

[DRAM Statistics]
Channel_0_RQ_row_buffer_hit 4141
Channel_0_RQ_row_buffer_miss 69877
Channel_0_WQ_row_buffer_hit 4808
Channel_0_WQ_row_buffer_miss 22333
Channel_0_WQ_full 0
Channel_0_dbus_congested 234952
DRAM_total_RQ_row_buffer_hit 4141
DRAM_total_RQ_row_buffer_miss 69877
DRAM_total_WQ_row_buffer_hit 4808
DRAM_total_WQ_row_buffer_miss 22333
DRAM_total_WQ_full 0
DRAM_total_dbus_congested 234952
DRAM_avg_congested_cycle 12.8802

======STLB miss causes ========
Core_0_STLB_miss_cause_breakdown
Core_0_STLB_cause_Demand_Data_miss 5711
Core_0_STLB_cause_Demand_Data_miss_rate 0.0244032
Core_0_STLB_cause_Demand_Instruction_miss 583
Core_0_STLB_cause_Demand_Instruction_miss_rate 0.00249117
Core_0_STLB_cause_L1D_Prefetch_miss 575
Core_0_STLB_cause_L1D_Prefetch_miss_rate 0.00245698
Core_0_STLB_cause_L1I_Prefetch_miss 0
Core_0_STLB_cause_L1I_Prefetch_miss_rate 0
Core_0_STLB_cause_Other_miss 0
Core_0_STLB_cause_Other_miss_rate 0
Core_0_STLB_Demand_miss 6294
Core_0_STLB_Demand_miss_rate 0.0268943
Core_0_STLB_L1D_Prefetch_miss 575
Core_0_STLB_L1D_Prefetch_miss_rate 0.00245698
Core_0_STLB_Other_miss 0
Core_0_STLB_Other_miss_rate 0
