[VMEM] WARNING: physical memory size is smaller than virtual memory size.

*** ChampSim Multicore Out-of-Order Simulator ***
Warmup Instructions: 20000000
Simulation Instructions: 50000000
Number of CPUs: 1
Page size: 4096
Core 0: /data0/tzh/champsim_traces/SPEC17/603.bwaves_s-1740B.champsimtrace.xz
 L1D Berti prefetcher
Off-chip DRAM Size: 16 GiB Channels: 1 Width: 64-bit Data Rate: 3205 MT/s
Warmup halting CPU 0 at instruction 20000003 cycle 4243988 for remainder of phase
Warmup finished CPU 0 instructions: 20000003 cycles: 4243988 cumulative IPC: 4.713 (Simulation time: 00 hr 01 min 20 sec)
Warmup complete CPU 0 instructions: 20000003 cycles: 4243988 cumulative IPC: 4.713 (Simulation time: 00 hr 01 min 20 sec)
Simulation finished CPU 0 instructions: 50000002 cycles: 21917096 cumulative IPC: 2.281 (Simulation time: 00 hr 05 min 59 sec)
Simulation complete CPU 0 instructions: 50000002 cycles: 21917096 cumulative IPC: 2.281 (Simulation time: 00 hr 05 min 59 sec)

ChampSim completed all CPUs

=== Simulation ===
CPU 0 runs /data0/tzh/champsim_traces/SPEC17/603.bwaves_s-1740B.champsimtrace.xz

Region of Interest Statistics

CPU 0 cumulative IPC: 2.281 instructions: 50000002 cycles: 21917096
CPU 0 Branch Prediction Accuracy: 99.97% MPKI: 0.00734 Average ROB Occupancy at Mispredict: 347.2
Branch type MPKI
BRANCH_DIRECT_JUMP: 0
BRANCH_INDIRECT: 0
BRANCH_CONDITIONAL: 0.00734
BRANCH_DIRECT_CALL: 0
BRANCH_INDIRECT_CALL: 0
BRANCH_RETURN: 0

cpu0->cpu0_STLB TOTAL        ACCESS:      68275 HIT:      53430 MISS:      14845 MSHR_MERGE:          0
cpu0->cpu0_STLB LOAD         ACCESS:      68275 HIT:      53430 MISS:      14845 MSHR_MERGE:          0
cpu0->cpu0_STLB RFO          ACCESS:          0 HIT:          0 MISS:          0 MSHR_MERGE:          0
cpu0->cpu0_STLB PREFETCH     ACCESS:          0 HIT:          0 MISS:          0 MSHR_MERGE:          0
cpu0->cpu0_STLB WRITE        ACCESS:          0 HIT:          0 MISS:          0 MSHR_MERGE:          0
cpu0->cpu0_STLB TRANSLATION  ACCESS:          0 HIT:          0 MISS:          0 MSHR_MERGE:          0
cpu0->cpu0_STLB PREFETCH REQUESTED:          0 ISSUED:          0 USEFUL:          0 USELESS:          0 LATE:          0
cpu0->cpu0_STLB AVERAGE MISS LATENCY: 239.9 cycles
cpu0->cpu0_L2C TOTAL        ACCESS:    3588568 HIT:    1959082 MISS:    1629486 MSHR_MERGE:     677136
cpu0->cpu0_L2C LOAD         ACCESS:     332078 HIT:     276681 MISS:      55397 MSHR_MERGE:      21743
cpu0->cpu0_L2C RFO          ACCESS:      24362 HIT:          0 MISS:      24362 MSHR_MERGE:          0
cpu0->cpu0_L2C PREFETCH     ACCESS:    3202608 HIT:    1654789 MISS:    1547819 MSHR_MERGE:     655393
cpu0->cpu0_L2C WRITE        ACCESS:      24727 HIT:      24727 MISS:          0 MSHR_MERGE:          0
cpu0->cpu0_L2C TRANSLATION  ACCESS:       4793 HIT:       2885 MISS:       1908 MSHR_MERGE:          0
cpu0->cpu0_L2C PREFETCH REQUESTED:    5040305 ISSUED:    2559130 USEFUL:     721833 USELESS:     115747 LATE:      21743
cpu0->cpu0_L2C AVERAGE MISS LATENCY: 260.4 cycles
cpu0->cpu0_L1I TOTAL        ACCESS:    8582448 HIT:    8582448 MISS:          0 MSHR_MERGE:          0
cpu0->cpu0_L1I LOAD         ACCESS:    8582448 HIT:    8582448 MISS:          0 MSHR_MERGE:          0
cpu0->cpu0_L1I RFO          ACCESS:          0 HIT:          0 MISS:          0 MSHR_MERGE:          0
cpu0->cpu0_L1I PREFETCH     ACCESS:          0 HIT:          0 MISS:          0 MSHR_MERGE:          0
cpu0->cpu0_L1I WRITE        ACCESS:          0 HIT:          0 MISS:          0 MSHR_MERGE:          0
cpu0->cpu0_L1I TRANSLATION  ACCESS:          0 HIT:          0 MISS:          0 MSHR_MERGE:          0
cpu0->cpu0_L1I PREFETCH REQUESTED:          0 ISSUED:          0 USEFUL:          0 USELESS:          0 LATE:          0
cpu0->cpu0_L1I AVERAGE MISS LATENCY: - cycles
cpu0->cpu0_L1D TOTAL        ACCESS:   15263780 HIT:   14108086 MISS:    1155694 MSHR_MERGE:     150983
cpu0->cpu0_L1D LOAD         ACCESS:   11702664 HIT:   11347157 MISS:     355507 MSHR_MERGE:      23429
cpu0->cpu0_L1D RFO          ACCESS:          0 HIT:          0 MISS:          0 MSHR_MERGE:          0
cpu0->cpu0_L1D PREFETCH     ACCESS:     714690 HIT:      63025 MISS:     651665 MSHR_MERGE:       8187
cpu0->cpu0_L1D WRITE        ACCESS:    2816704 HIT:    2672975 MISS:     143729 MSHR_MERGE:     119367
cpu0->cpu0_L1D TRANSLATION  ACCESS:      29722 HIT:      24929 MISS:       4793 MSHR_MERGE:          0
cpu0->cpu0_L1D PREFETCH REQUESTED:     970303 ISSUED:     714682 USEFUL:     643151 USELESS:        306 LATE:      13029
cpu0->cpu0_L1D AVERAGE MISS LATENCY: 71.26 cycles
cpu0->cpu0_ITLB TOTAL        ACCESS:    6275735 HIT:    6275735 MISS:          0 MSHR_MERGE:          0
cpu0->cpu0_ITLB LOAD         ACCESS:    6275735 HIT:    6275735 MISS:          0 MSHR_MERGE:          0
cpu0->cpu0_ITLB RFO          ACCESS:          0 HIT:          0 MISS:          0 MSHR_MERGE:          0
cpu0->cpu0_ITLB PREFETCH     ACCESS:          0 HIT:          0 MISS:          0 MSHR_MERGE:          0
cpu0->cpu0_ITLB WRITE        ACCESS:          0 HIT:          0 MISS:          0 MSHR_MERGE:          0
cpu0->cpu0_ITLB TRANSLATION  ACCESS:          0 HIT:          0 MISS:          0 MSHR_MERGE:          0
cpu0->cpu0_ITLB PREFETCH REQUESTED:          0 ISSUED:          0 USEFUL:          0 USELESS:          0 LATE:          0
cpu0->cpu0_ITLB AVERAGE MISS LATENCY: - cycles
cpu0->cpu0_DTLB TOTAL        ACCESS:   14643202 HIT:   14553128 MISS:      90074 MSHR_MERGE:      21799
cpu0->cpu0_DTLB LOAD         ACCESS:   14643202 HIT:   14553128 MISS:      90074 MSHR_MERGE:      21799
cpu0->cpu0_DTLB RFO          ACCESS:          0 HIT:          0 MISS:          0 MSHR_MERGE:          0
cpu0->cpu0_DTLB PREFETCH     ACCESS:          0 HIT:          0 MISS:          0 MSHR_MERGE:          0
cpu0->cpu0_DTLB WRITE        ACCESS:          0 HIT:          0 MISS:          0 MSHR_MERGE:          0
cpu0->cpu0_DTLB TRANSLATION  ACCESS:          0 HIT:          0 MISS:          0 MSHR_MERGE:          0
cpu0->cpu0_DTLB PREFETCH REQUESTED:          0 ISSUED:          0 USEFUL:          0 USELESS:          0 LATE:          0
cpu0->cpu0_DTLB AVERAGE MISS LATENCY: 57.4 cycles
cpu0->LLC TOTAL        ACCESS:     976766 HIT:       5558 MISS:     971208 MSHR_MERGE:          0
cpu0->LLC LOAD         ACCESS:      33654 HIT:         36 MISS:      33618 MSHR_MERGE:          0
cpu0->LLC RFO          ACCESS:      24362 HIT:          0 MISS:      24362 MSHR_MERGE:          0
cpu0->LLC PREFETCH     ACCESS:     892426 HIT:       1748 MISS:     890678 MSHR_MERGE:          0
cpu0->LLC WRITE        ACCESS:      24416 HIT:       3761 MISS:      20655 MSHR_MERGE:          0
cpu0->LLC TRANSLATION  ACCESS:       1908 HIT:         13 MISS:       1895 MSHR_MERGE:          0
cpu0->LLC PREFETCH REQUESTED:          0 ISSUED:          0 USEFUL:          0 USELESS:          0 LATE:          0
cpu0->LLC AVERAGE MISS LATENCY: 201.8 cycles

DRAM Statistics

Channel 0 RQ ROW_BUFFER_HIT:         34
  ROW_BUFFER_MISS:     950516
  AVG DBUS CONGESTED CYCLE: 3.534
Channel 0 WQ ROW_BUFFER_HIT:       2984
  ROW_BUFFER_MISS:      11594
  FULL:          0
Channel 0 REFRESHES ISSUED:       1827

[ROI Statistics]
[System Configuration]
num_cpus 1
cpu_freq 4000
fetch_width 6
decode_width 6
dispatch_width 6
execute_width 6
lq_width 2
sq_width 2
retire_width 6
scheduler_size 128
branch_mispredict_penalty 15
rob_size 352
lq_size 128
sq_size 72
ifetch_buffer_size 64
decode_buffer_size 32
dispatch_buffer_size 32
register_file_size 288
decode_latency 1
dispatch_latency 1
schedule_latency 1
execute_latency 1
page_size 4096
block_size 64
core_0_itlb_set 16
core_0_itlb_way 4
core_0_itlb_rq_size 16
core_0_itlb_wq_size 16
core_0_itlb_pq_size 0
core_0_itlb_mshr_size 8
core_0_itlb_hit_latency 1
core_0_itlb_fill_latency 1
core_0_itlb_max_tag_check 2
core_0_itlb_max_fill 2
core_0_dtlb_set 16
core_0_dtlb_way 4
core_0_dtlb_rq_size 16
core_0_dtlb_wq_size 16
core_0_dtlb_pq_size 0
core_0_dtlb_mshr_size 8
core_0_dtlb_hit_latency 1
core_0_dtlb_fill_latency 1
core_0_dtlb_max_tag_check 2
core_0_dtlb_max_fill 2
core_0_stlb_set 128
core_0_stlb_way 12
core_0_stlb_rq_size 32
core_0_stlb_wq_size 32
core_0_stlb_pq_size 0
core_0_stlb_mshr_size 16
core_0_stlb_hit_latency 4
core_0_stlb_fill_latency 4
core_0_stlb_max_tag_check 1
core_0_stlb_max_fill 1
core_0_l1i_set 64
core_0_l1i_way 8
core_0_l1i_rq_size 64
core_0_l1i_wq_size 64
core_0_l1i_pq_size 32
core_0_l1i_mshr_size 8
core_0_l1i_hit_latency 2
core_0_l1i_fill_latency 2
core_0_l1i_max_tag_check 2
core_0_l1i_max_fill 2
core_0_l1d_set 64
core_0_l1d_way 12
core_0_l1d_rq_size 64
core_0_l1d_wq_size 64
core_0_l1d_pq_size 8
core_0_l1d_mshr_size 16
core_0_l1d_hit_latency 2
core_0_l1d_fill_latency 3
core_0_l1d_max_tag_check 2
core_0_l1d_max_fill 2
core_0_l2c_set 1024
core_0_l2c_way 8
core_0_l2c_rq_size 32
core_0_l2c_wq_size 32
core_0_l2c_pq_size 16
core_0_l2c_mshr_size 32
core_0_l2c_hit_latency 5
core_0_l2c_fill_latency 5
core_0_l2c_max_tag_check 1
core_0_l2c_max_fill 1
llc_set 2048
llc_way 16
llc_rq_size 32
llc_wq_size 32
llc_pq_size 32
llc_mshr_size 64
llc_hit_latency 10
llc_fill_latency 10
llc_max_tag_check 1
llc_max_fill 1
dram_channels 1
dram_ranks 1
dram_bankgroups 8
dram_banks 4
dram_rows 65536
dram_columns 1024
dram_channel_width 8
dram_rq_size 64
dram_wq_size 64
dram_size 17179869184
core_0_itlb_prefetcher no
core_0_dtlb_prefetcher no
core_0_stlb_prefetcher no
core_0_l1i_prefetcher next_line
core_0_l1d_prefetcher berti
core_0_l2c_prefetcher pythia
llc_prefetcher no
llc_replacement drrip

Core_0_instructions 50000002
Core_0_cycles 21917096
Core_0_IPC 2.28132
Core_0_branch_prediction_accuracy 99.9706
Core_0_branch_MPKI 0.00734
Core_0_average_ROB_occupancy_at_mispredict 347.161

Core_0_ITLB_total_access 6275735
Core_0_ITLB_total_hit 6275735
Core_0_ITLB_total_miss 0
Core_0_ITLB_total_MPKI 0
Core_0_ITLB_total_miss_rate 0
Core_0_ITLB_demand_access 6275735
Core_0_ITLB_demand_hit 6275735
Core_0_ITLB_demand_miss 0
Core_0_ITLB_demand_MPKI 0
Core_0_ITLB_demand_miss_rate 0
Core_0_ITLB_load_access 6275735
Core_0_ITLB_load_hit 6275735
Core_0_ITLB_load_miss 0
Core_0_ITLB_load_MPKI 0
Core_0_ITLB_load_miss_rate 0
Core_0_ITLB_rfo_access 0
Core_0_ITLB_rfo_hit 0
Core_0_ITLB_rfo_miss 0
Core_0_ITLB_rfo_MPKI 0
Core_0_ITLB_rfo_miss_rate 0
Core_0_ITLB_prefetch_access 0
Core_0_ITLB_prefetch_hit 0
Core_0_ITLB_prefetch_miss 0
Core_0_ITLB_prefetch_MPKI 0
Core_0_ITLB_prefetch_miss_rate 0
Core_0_ITLB_writeback_access 0
Core_0_ITLB_writeback_hit 0
Core_0_ITLB_writeback_miss 0
Core_0_ITLB_writeback_MPKI 0
Core_0_ITLB_writeback_miss_rate 0
Core_0_ITLB_prefetch_requested 0
Core_0_ITLB_prefetch_issued 0
Core_0_ITLB_prefetch_useful 0
Core_0_ITLB_prefetch_useless 0
Core_0_ITLB_prefetch_late 0
Core_0_ITLB_prefetch_accuracy 0
Core_0_ITLB_prefetch_coverage 0

Core_0_DTLB_total_access 14643202
Core_0_DTLB_total_hit 14553128
Core_0_DTLB_total_miss 90074
Core_0_DTLB_total_MPKI 1.80148
Core_0_DTLB_total_miss_rate 0.00615125
Core_0_DTLB_demand_access 14643202
Core_0_DTLB_demand_hit 14553128
Core_0_DTLB_demand_miss 90074
Core_0_DTLB_demand_MPKI 1.80148
Core_0_DTLB_demand_miss_rate 0.00615125
Core_0_DTLB_load_access 14643202
Core_0_DTLB_load_hit 14553128
Core_0_DTLB_load_miss 90074
Core_0_DTLB_load_MPKI 1.80148
Core_0_DTLB_load_miss_rate 0.00615125
Core_0_DTLB_rfo_access 0
Core_0_DTLB_rfo_hit 0
Core_0_DTLB_rfo_miss 0
Core_0_DTLB_rfo_MPKI 0
Core_0_DTLB_rfo_miss_rate 0
Core_0_DTLB_prefetch_access 0
Core_0_DTLB_prefetch_hit 0
Core_0_DTLB_prefetch_miss 0
Core_0_DTLB_prefetch_MPKI 0
Core_0_DTLB_prefetch_miss_rate 0
Core_0_DTLB_writeback_access 0
Core_0_DTLB_writeback_hit 0
Core_0_DTLB_writeback_miss 0
Core_0_DTLB_writeback_MPKI 0
Core_0_DTLB_writeback_miss_rate 0
Core_0_DTLB_prefetch_requested 0
Core_0_DTLB_prefetch_issued 0
Core_0_DTLB_prefetch_useful 0
Core_0_DTLB_prefetch_useless 0
Core_0_DTLB_prefetch_late 0
Core_0_DTLB_prefetch_accuracy 0
Core_0_DTLB_prefetch_coverage 0

Core_0_STLB_total_access 68275
Core_0_STLB_total_hit 53430
Core_0_STLB_total_miss 14845
Core_0_STLB_total_MPKI 0.2969
Core_0_STLB_total_miss_rate 0.21743
Core_0_STLB_demand_access 68275
Core_0_STLB_demand_hit 53430
Core_0_STLB_demand_miss 14845
Core_0_STLB_demand_MPKI 0.2969
Core_0_STLB_demand_miss_rate 0.21743
Core_0_STLB_load_access 68275
Core_0_STLB_load_hit 53430
Core_0_STLB_load_miss 14845
Core_0_STLB_load_MPKI 0.2969
Core_0_STLB_load_miss_rate 0.21743
Core_0_STLB_rfo_access 0
Core_0_STLB_rfo_hit 0
Core_0_STLB_rfo_miss 0
Core_0_STLB_rfo_MPKI 0
Core_0_STLB_rfo_miss_rate 0
Core_0_STLB_prefetch_access 0
Core_0_STLB_prefetch_hit 0
Core_0_STLB_prefetch_miss 0
Core_0_STLB_prefetch_MPKI 0
Core_0_STLB_prefetch_miss_rate 0
Core_0_STLB_writeback_access 0
Core_0_STLB_writeback_hit 0
Core_0_STLB_writeback_miss 0
Core_0_STLB_writeback_MPKI 0
Core_0_STLB_writeback_miss_rate 0
Core_0_STLB_prefetch_requested 0
Core_0_STLB_prefetch_issued 0
Core_0_STLB_prefetch_useful 0
Core_0_STLB_prefetch_useless 0
Core_0_STLB_prefetch_late 0
Core_0_STLB_prefetch_accuracy 0
Core_0_STLB_prefetch_coverage 0

Core_0_L1I_total_access 8582448
Core_0_L1I_total_hit 8582448
Core_0_L1I_total_miss 0
Core_0_L1I_total_MPKI 0
Core_0_L1I_total_miss_rate 0
Core_0_L1I_demand_access 8582448
Core_0_L1I_demand_hit 8582448
Core_0_L1I_demand_miss 0
Core_0_L1I_demand_MPKI 0
Core_0_L1I_demand_miss_rate 0
Core_0_L1I_load_access 8582448
Core_0_L1I_load_hit 8582448
Core_0_L1I_load_miss 0
Core_0_L1I_load_MPKI 0
Core_0_L1I_load_miss_rate 0
Core_0_L1I_rfo_access 0
Core_0_L1I_rfo_hit 0
Core_0_L1I_rfo_miss 0
Core_0_L1I_rfo_MPKI 0
Core_0_L1I_rfo_miss_rate 0
Core_0_L1I_prefetch_access 0
Core_0_L1I_prefetch_hit 0
Core_0_L1I_prefetch_miss 0
Core_0_L1I_prefetch_MPKI 0
Core_0_L1I_prefetch_miss_rate 0
Core_0_L1I_writeback_access 0
Core_0_L1I_writeback_hit 0
Core_0_L1I_writeback_miss 0
Core_0_L1I_writeback_MPKI 0
Core_0_L1I_writeback_miss_rate 0
Core_0_L1I_prefetch_requested 0
Core_0_L1I_prefetch_issued 0
Core_0_L1I_prefetch_useful 0
Core_0_L1I_prefetch_useless 0
Core_0_L1I_prefetch_late 0
Core_0_L1I_prefetch_accuracy 0
Core_0_L1I_prefetch_coverage 0

Core_0_L1D_total_access 15234058
Core_0_L1D_total_hit 14083157
Core_0_L1D_total_miss 1150901
Core_0_L1D_total_MPKI 23.018
Core_0_L1D_total_miss_rate 0.0755479
Core_0_L1D_demand_access 11702664
Core_0_L1D_demand_hit 11347157
Core_0_L1D_demand_miss 355507
Core_0_L1D_demand_MPKI 7.11014
Core_0_L1D_demand_miss_rate 0.0303783
Core_0_L1D_load_access 11702664
Core_0_L1D_load_hit 11347157
Core_0_L1D_load_miss 355507
Core_0_L1D_load_MPKI 7.11014
Core_0_L1D_load_miss_rate 0.0303783
Core_0_L1D_rfo_access 0
Core_0_L1D_rfo_hit 0
Core_0_L1D_rfo_miss 0
Core_0_L1D_rfo_MPKI 0
Core_0_L1D_rfo_miss_rate 0
Core_0_L1D_prefetch_access 714690
Core_0_L1D_prefetch_hit 63025
Core_0_L1D_prefetch_miss 651665
Core_0_L1D_prefetch_MPKI 13.0333
Core_0_L1D_prefetch_miss_rate 0.911815
Core_0_L1D_writeback_access 2816704
Core_0_L1D_writeback_hit 2672975
Core_0_L1D_writeback_miss 143729
Core_0_L1D_writeback_MPKI 2.87458
Core_0_L1D_writeback_miss_rate 0.0510274
Core_0_L1D_prefetch_requested 970303
Core_0_L1D_prefetch_issued 714682
Core_0_L1D_prefetch_useful 643151
Core_0_L1D_prefetch_useless 306
Core_0_L1D_prefetch_late 13029
Core_0_L1D_prefetch_accuracy 0.899912
Core_0_L1D_prefetch_coverage 0.644015

Core_0_L2C_total_access 3583775
Core_0_L2C_total_hit 1956197
Core_0_L2C_total_miss 1627578
Core_0_L2C_total_MPKI 32.5516
Core_0_L2C_total_miss_rate 0.454152
Core_0_L2C_demand_access 356440
Core_0_L2C_demand_hit 276681
Core_0_L2C_demand_miss 79759
Core_0_L2C_demand_MPKI 1.59518
Core_0_L2C_demand_miss_rate 0.223766
Core_0_L2C_load_access 332078
Core_0_L2C_load_hit 276681
Core_0_L2C_load_miss 55397
Core_0_L2C_load_MPKI 1.10794
Core_0_L2C_load_miss_rate 0.166819
Core_0_L2C_rfo_access 24362
Core_0_L2C_rfo_hit 0
Core_0_L2C_rfo_miss 24362
Core_0_L2C_rfo_MPKI 0.48724
Core_0_L2C_rfo_miss_rate 1
Core_0_L2C_prefetch_access 3202608
Core_0_L2C_prefetch_hit 1654789
Core_0_L2C_prefetch_miss 1547819
Core_0_L2C_prefetch_MPKI 30.9564
Core_0_L2C_prefetch_miss_rate 0.4833
Core_0_L2C_writeback_access 24727
Core_0_L2C_writeback_hit 24727
Core_0_L2C_writeback_miss 0
Core_0_L2C_writeback_MPKI 0
Core_0_L2C_writeback_miss_rate 0
Core_0_L2C_prefetch_requested 5040305
Core_0_L2C_prefetch_issued 2559130
Core_0_L2C_prefetch_useful 721833
Core_0_L2C_prefetch_useless 115747
Core_0_L2C_prefetch_late 21743
Core_0_L2C_prefetch_accuracy 0.282062
Core_0_L2C_prefetch_coverage 0.900499

Core_0_LLC_total_access 974858
Core_0_LLC_total_hit 5545
Core_0_LLC_total_miss 969313
Core_0_LLC_total_MPKI 19.3863
Core_0_LLC_total_miss_rate 0.994312
Core_0_LLC_demand_access 58016
Core_0_LLC_demand_hit 36
Core_0_LLC_demand_miss 57980
Core_0_LLC_demand_MPKI 1.1596
Core_0_LLC_demand_miss_rate 0.999379
Core_0_LLC_load_access 33654
Core_0_LLC_load_hit 36
Core_0_LLC_load_miss 33618
Core_0_LLC_load_MPKI 0.67236
Core_0_LLC_load_miss_rate 0.99893
Core_0_LLC_rfo_access 24362
Core_0_LLC_rfo_hit 0
Core_0_LLC_rfo_miss 24362
Core_0_LLC_rfo_MPKI 0.48724
Core_0_LLC_rfo_miss_rate 1
Core_0_LLC_prefetch_access 892426
Core_0_LLC_prefetch_hit 1748
Core_0_LLC_prefetch_miss 890678
Core_0_LLC_prefetch_MPKI 17.8136
Core_0_LLC_prefetch_miss_rate 0.998041
Core_0_LLC_writeback_access 24416
Core_0_LLC_writeback_hit 3761
Core_0_LLC_writeback_miss 20655
Core_0_LLC_writeback_MPKI 0.4131
Core_0_LLC_writeback_miss_rate 0.845962
Core_0_LLC_prefetch_requested 0
Core_0_LLC_prefetch_issued 0
Core_0_LLC_prefetch_useful 0
Core_0_LLC_prefetch_useless 0
Core_0_LLC_prefetch_late 0
Core_0_LLC_prefetch_accuracy 0
Core_0_LLC_prefetch_coverage 0

[DRAM Statistics]
Channel_0_RQ_row_buffer_hit 34
Channel_0_RQ_row_buffer_miss 950516
Channel_0_WQ_row_buffer_hit 2984
Channel_0_WQ_row_buffer_miss 11594
Channel_0_WQ_full 0
Channel_0_dbus_congested 2066594
DRAM_total_RQ_row_buffer_hit 34
DRAM_total_RQ_row_buffer_miss 950516
DRAM_total_WQ_row_buffer_hit 2984
DRAM_total_WQ_row_buffer_miss 11594
DRAM_total_WQ_full 0
DRAM_total_dbus_congested 2066594
DRAM_avg_congested_cycle 3.53428

======STLB miss causes ========
Core_0_STLB_miss_cause_breakdown
Core_0_STLB_cause_Demand_Data_miss 13746
Core_0_STLB_cause_Demand_Data_miss_rate 0.201333
Core_0_STLB_cause_Demand_Instruction_miss 0
Core_0_STLB_cause_Demand_Instruction_miss_rate 0
Core_0_STLB_cause_L1D_Prefetch_miss 1099
Core_0_STLB_cause_L1D_Prefetch_miss_rate 0.0160967
Core_0_STLB_cause_L1I_Prefetch_miss 0
Core_0_STLB_cause_L1I_Prefetch_miss_rate 0
Core_0_STLB_cause_Other_miss 0
Core_0_STLB_cause_Other_miss_rate 0
Core_0_STLB_Demand_miss 13746
Core_0_STLB_Demand_miss_rate 0.201333
Core_0_STLB_L1D_Prefetch_miss 1099
Core_0_STLB_L1D_Prefetch_miss_rate 0.0160967
Core_0_STLB_Other_miss 0
Core_0_STLB_Other_miss_rate 0
