[VMEM] WARNING: physical memory size is smaller than virtual memory size.

*** ChampSim Multicore Out-of-Order Simulator ***
Warmup Instructions: 20000000
Simulation Instructions: 50000000
Number of CPUs: 1
Page size: 4096
Core 0: /data0/tzh/champsim_traces/SPEC17/603.bwaves_s-891B.champsimtrace.xz
 L1D Berti prefetcher
Off-chip DRAM Size: 16 GiB Channels: 1 Width: 64-bit Data Rate: 3205 MT/s
Warmup halting CPU 0 at instruction 20000002 cycle 4326674 for remainder of phase
Warmup finished CPU 0 instructions: 20000002 cycles: 4326674 cumulative IPC: 4.622 (Simulation time: 00 hr 01 min 10 sec)
Warmup complete CPU 0 instructions: 20000002 cycles: 4326674 cumulative IPC: 4.622 (Simulation time: 00 hr 01 min 10 sec)
Simulation finished CPU 0 instructions: 50000000 cycles: 29433628 cumulative IPC: 1.699 (Simulation time: 00 hr 06 min 45 sec)
Simulation complete CPU 0 instructions: 50000000 cycles: 29433628 cumulative IPC: 1.699 (Simulation time: 00 hr 06 min 45 sec)

ChampSim completed all CPUs

=== Simulation ===
CPU 0 runs /data0/tzh/champsim_traces/SPEC17/603.bwaves_s-891B.champsimtrace.xz

Region of Interest Statistics

CPU 0 cumulative IPC: 1.699 instructions: 50000000 cycles: 29433628
CPU 0 Branch Prediction Accuracy: 99.87% MPKI: 0.1732 Average ROB Occupancy at Mispredict: 270.4
Branch type MPKI
BRANCH_DIRECT_JUMP: 0
BRANCH_INDIRECT: 0
BRANCH_CONDITIONAL: 0.1732
BRANCH_DIRECT_CALL: 0
BRANCH_INDIRECT_CALL: 0
BRANCH_RETURN: 0

cpu0->cpu0_STLB TOTAL        ACCESS:      16386 HIT:         67 MISS:      16319 MSHR_MERGE:          0
cpu0->cpu0_STLB LOAD         ACCESS:      16386 HIT:         67 MISS:      16319 MSHR_MERGE:          0
cpu0->cpu0_STLB RFO          ACCESS:          0 HIT:          0 MISS:          0 MSHR_MERGE:          0
cpu0->cpu0_STLB PREFETCH     ACCESS:          0 HIT:          0 MISS:          0 MSHR_MERGE:          0
cpu0->cpu0_STLB WRITE        ACCESS:          0 HIT:          0 MISS:          0 MSHR_MERGE:          0
cpu0->cpu0_STLB TRANSLATION  ACCESS:          0 HIT:          0 MISS:          0 MSHR_MERGE:          0
cpu0->cpu0_STLB PREFETCH REQUESTED:          0 ISSUED:          0 USEFUL:          0 USELESS:          0 LATE:          0
cpu0->cpu0_STLB AVERAGE MISS LATENCY: 244.4 cycles
cpu0->cpu0_L2C TOTAL        ACCESS:    5910213 HIT:    1117216 MISS:    4792997 MSHR_MERGE:    3746550
cpu0->cpu0_L2C LOAD         ACCESS:     104710 HIT:      32610 MISS:      72100 MSHR_MERGE:      28199
cpu0->cpu0_L2C RFO          ACCESS:        520 HIT:        519 MISS:          1 MSHR_MERGE:          0
cpu0->cpu0_L2C PREFETCH     ACCESS:    5490544 HIT:     771727 MISS:    4718817 MSHR_MERGE:    3718351
cpu0->cpu0_L2C WRITE        ACCESS:     312360 HIT:     312360 MISS:          0 MSHR_MERGE:          0
cpu0->cpu0_L2C TRANSLATION  ACCESS:       2079 HIT:          0 MISS:       2079 MSHR_MERGE:          0
cpu0->cpu0_L2C PREFETCH REQUESTED:    5369456 ISSUED:    4550490 USEFUL:     454342 USELESS:     470163 LATE:      28199
cpu0->cpu0_L2C AVERAGE MISS LATENCY: 245.1 cycles
cpu0->cpu0_L1I TOTAL        ACCESS:    6793288 HIT:    6793282 MISS:          6 MSHR_MERGE:          2
cpu0->cpu0_L1I LOAD         ACCESS:    6793288 HIT:    6793282 MISS:          6 MSHR_MERGE:          2
cpu0->cpu0_L1I RFO          ACCESS:          0 HIT:          0 MISS:          0 MSHR_MERGE:          0
cpu0->cpu0_L1I PREFETCH     ACCESS:          0 HIT:          0 MISS:          0 MSHR_MERGE:          0
cpu0->cpu0_L1I WRITE        ACCESS:          0 HIT:          0 MISS:          0 MSHR_MERGE:          0
cpu0->cpu0_L1I TRANSLATION  ACCESS:          0 HIT:          0 MISS:          0 MSHR_MERGE:          0
cpu0->cpu0_L1I PREFETCH REQUESTED:          0 ISSUED:          0 USEFUL:          0 USELESS:          0 LATE:          0
cpu0->cpu0_L1I AVERAGE MISS LATENCY: 437 cycles
cpu0->cpu0_L1D TOTAL        ACCESS:    9297531 HIT:    7249270 MISS:    2048261 MSHR_MERGE:    1000868
cpu0->cpu0_L1D LOAD         ACCESS:    6104747 HIT:    5028262 MISS:    1076485 MSHR_MERGE:     971779
cpu0->cpu0_L1D RFO          ACCESS:          0 HIT:          0 MISS:          0 MSHR_MERGE:          0
cpu0->cpu0_L1D PREFETCH     ACCESS:     977421 HIT:       8681 MISS:     968740 MSHR_MERGE:      28697
cpu0->cpu0_L1D WRITE        ACCESS:    2182691 HIT:    2181734 MISS:        957 MSHR_MERGE:        392
cpu0->cpu0_L1D TRANSLATION  ACCESS:      32672 HIT:      30593 MISS:       2079 MSHR_MERGE:          0
cpu0->cpu0_L1D PREFETCH REQUESTED:    1048204 ISSUED:     977414 USEFUL:     939506 USELESS:        530 LATE:     140219
cpu0->cpu0_L1D AVERAGE MISS LATENCY: 186.1 cycles
cpu0->cpu0_ITLB TOTAL        ACCESS:    6063044 HIT:    6063044 MISS:          0 MSHR_MERGE:          0
cpu0->cpu0_ITLB LOAD         ACCESS:    6063044 HIT:    6063044 MISS:          0 MSHR_MERGE:          0
cpu0->cpu0_ITLB RFO          ACCESS:          0 HIT:          0 MISS:          0 MSHR_MERGE:          0
cpu0->cpu0_ITLB PREFETCH     ACCESS:          0 HIT:          0 MISS:          0 MSHR_MERGE:          0
cpu0->cpu0_ITLB WRITE        ACCESS:          0 HIT:          0 MISS:          0 MSHR_MERGE:          0
cpu0->cpu0_ITLB TRANSLATION  ACCESS:          0 HIT:          0 MISS:          0 MSHR_MERGE:          0
cpu0->cpu0_ITLB PREFETCH REQUESTED:          0 ISSUED:          0 USEFUL:          0 USELESS:          0 LATE:          0
cpu0->cpu0_ITLB AVERAGE MISS LATENCY: - cycles
cpu0->cpu0_DTLB TOTAL        ACCESS:    8375706 HIT:    8223479 MISS:     152227 MSHR_MERGE:     135841
cpu0->cpu0_DTLB LOAD         ACCESS:    8375706 HIT:    8223479 MISS:     152227 MSHR_MERGE:     135841
cpu0->cpu0_DTLB RFO          ACCESS:          0 HIT:          0 MISS:          0 MSHR_MERGE:          0
cpu0->cpu0_DTLB PREFETCH     ACCESS:          0 HIT:          0 MISS:          0 MSHR_MERGE:          0
cpu0->cpu0_DTLB WRITE        ACCESS:          0 HIT:          0 MISS:          0 MSHR_MERGE:          0
cpu0->cpu0_DTLB TRANSLATION  ACCESS:          0 HIT:          0 MISS:          0 MSHR_MERGE:          0
cpu0->cpu0_DTLB PREFETCH REQUESTED:          0 ISSUED:          0 USEFUL:          0 USELESS:          0 LATE:          0
cpu0->cpu0_DTLB AVERAGE MISS LATENCY: 249.4 cycles
cpu0->LLC TOTAL        ACCESS:    1361981 HIT:     277540 MISS:    1084441 MSHR_MERGE:          0
cpu0->LLC LOAD         ACCESS:      43901 HIT:         50 MISS:      43851 MSHR_MERGE:          0
cpu0->LLC RFO          ACCESS:          1 HIT:          0 MISS:          1 MSHR_MERGE:          0
cpu0->LLC PREFETCH     ACCESS:    1000465 HIT:        115 MISS:    1000350 MSHR_MERGE:          0
cpu0->LLC WRITE        ACCESS:     315535 HIT:     277369 MISS:      38166 MSHR_MERGE:          0
cpu0->LLC TRANSLATION  ACCESS:       2079 HIT:          6 MISS:       2073 MSHR_MERGE:          0
cpu0->LLC PREFETCH REQUESTED:          0 ISSUED:          0 USEFUL:          0 USELESS:          0 LATE:          0
cpu0->LLC AVERAGE MISS LATENCY: 135.1 cycles

DRAM Statistics

Channel 0 RQ ROW_BUFFER_HIT:     212205
  ROW_BUFFER_MISS:     834065
  AVG DBUS CONGESTED CYCLE: 5.058
Channel 0 WQ ROW_BUFFER_HIT:      31743
  ROW_BUFFER_MISS:     297581
  FULL:          0
Channel 0 REFRESHES ISSUED:       2453

[ROI Statistics]
[System Configuration]
num_cpus 1
cpu_freq 4000
fetch_width 6
decode_width 6
dispatch_width 6
execute_width 6
lq_width 2
sq_width 2
retire_width 6
scheduler_size 128
branch_mispredict_penalty 15
rob_size 352
lq_size 128
sq_size 72
ifetch_buffer_size 64
decode_buffer_size 32
dispatch_buffer_size 32
register_file_size 288
decode_latency 1
dispatch_latency 1
schedule_latency 1
execute_latency 1
page_size 4096
block_size 64
core_0_itlb_set 16
core_0_itlb_way 4
core_0_itlb_rq_size 16
core_0_itlb_wq_size 16
core_0_itlb_pq_size 0
core_0_itlb_mshr_size 8
core_0_itlb_hit_latency 1
core_0_itlb_fill_latency 1
core_0_itlb_max_tag_check 2
core_0_itlb_max_fill 2
core_0_dtlb_set 16
core_0_dtlb_way 4
core_0_dtlb_rq_size 16
core_0_dtlb_wq_size 16
core_0_dtlb_pq_size 0
core_0_dtlb_mshr_size 8
core_0_dtlb_hit_latency 1
core_0_dtlb_fill_latency 1
core_0_dtlb_max_tag_check 2
core_0_dtlb_max_fill 2
core_0_stlb_set 128
core_0_stlb_way 12
core_0_stlb_rq_size 32
core_0_stlb_wq_size 32
core_0_stlb_pq_size 0
core_0_stlb_mshr_size 16
core_0_stlb_hit_latency 4
core_0_stlb_fill_latency 4
core_0_stlb_max_tag_check 1
core_0_stlb_max_fill 1
core_0_l1i_set 64
core_0_l1i_way 8
core_0_l1i_rq_size 64
core_0_l1i_wq_size 64
core_0_l1i_pq_size 32
core_0_l1i_mshr_size 8
core_0_l1i_hit_latency 2
core_0_l1i_fill_latency 2
core_0_l1i_max_tag_check 2
core_0_l1i_max_fill 2
core_0_l1d_set 64
core_0_l1d_way 12
core_0_l1d_rq_size 64
core_0_l1d_wq_size 64
core_0_l1d_pq_size 8
core_0_l1d_mshr_size 16
core_0_l1d_hit_latency 2
core_0_l1d_fill_latency 3
core_0_l1d_max_tag_check 2
core_0_l1d_max_fill 2
core_0_l2c_set 1024
core_0_l2c_way 8
core_0_l2c_rq_size 32
core_0_l2c_wq_size 32
core_0_l2c_pq_size 16
core_0_l2c_mshr_size 32
core_0_l2c_hit_latency 5
core_0_l2c_fill_latency 5
core_0_l2c_max_tag_check 1
core_0_l2c_max_fill 1
llc_set 2048
llc_way 16
llc_rq_size 32
llc_wq_size 32
llc_pq_size 32
llc_mshr_size 64
llc_hit_latency 10
llc_fill_latency 10
llc_max_tag_check 1
llc_max_fill 1
dram_channels 1
dram_ranks 1
dram_bankgroups 8
dram_banks 4
dram_rows 65536
dram_columns 1024
dram_channel_width 8
dram_rq_size 64
dram_wq_size 64
dram_size 17179869184
core_0_itlb_prefetcher no
core_0_dtlb_prefetcher no
core_0_stlb_prefetcher no
core_0_l1i_prefetcher next_line
core_0_l1d_prefetcher berti
core_0_l2c_prefetcher pythia
llc_prefetcher no
llc_replacement drrip

Core_0_instructions 50000000
Core_0_cycles 29433628
Core_0_IPC 1.69874
Core_0_branch_prediction_accuracy 99.8663
Core_0_branch_MPKI 0.1732
Core_0_average_ROB_occupancy_at_mispredict 270.43

Core_0_ITLB_total_access 6063044
Core_0_ITLB_total_hit 6063044
Core_0_ITLB_total_miss 0
Core_0_ITLB_total_MPKI 0
Core_0_ITLB_total_miss_rate 0
Core_0_ITLB_demand_access 6063044
Core_0_ITLB_demand_hit 6063044
Core_0_ITLB_demand_miss 0
Core_0_ITLB_demand_MPKI 0
Core_0_ITLB_demand_miss_rate 0
Core_0_ITLB_load_access 6063044
Core_0_ITLB_load_hit 6063044
Core_0_ITLB_load_miss 0
Core_0_ITLB_load_MPKI 0
Core_0_ITLB_load_miss_rate 0
Core_0_ITLB_rfo_access 0
Core_0_ITLB_rfo_hit 0
Core_0_ITLB_rfo_miss 0
Core_0_ITLB_rfo_MPKI 0
Core_0_ITLB_rfo_miss_rate 0
Core_0_ITLB_prefetch_access 0
Core_0_ITLB_prefetch_hit 0
Core_0_ITLB_prefetch_miss 0
Core_0_ITLB_prefetch_MPKI 0
Core_0_ITLB_prefetch_miss_rate 0
Core_0_ITLB_writeback_access 0
Core_0_ITLB_writeback_hit 0
Core_0_ITLB_writeback_miss 0
Core_0_ITLB_writeback_MPKI 0
Core_0_ITLB_writeback_miss_rate 0
Core_0_ITLB_prefetch_requested 0
Core_0_ITLB_prefetch_issued 0
Core_0_ITLB_prefetch_useful 0
Core_0_ITLB_prefetch_useless 0
Core_0_ITLB_prefetch_late 0
Core_0_ITLB_prefetch_accuracy 0
Core_0_ITLB_prefetch_coverage 0

Core_0_DTLB_total_access 8375706
Core_0_DTLB_total_hit 8223479
Core_0_DTLB_total_miss 152227
Core_0_DTLB_total_MPKI 3.04454
Core_0_DTLB_total_miss_rate 0.0181748
Core_0_DTLB_demand_access 8375706
Core_0_DTLB_demand_hit 8223479
Core_0_DTLB_demand_miss 152227
Core_0_DTLB_demand_MPKI 3.04454
Core_0_DTLB_demand_miss_rate 0.0181748
Core_0_DTLB_load_access 8375706
Core_0_DTLB_load_hit 8223479
Core_0_DTLB_load_miss 152227
Core_0_DTLB_load_MPKI 3.04454
Core_0_DTLB_load_miss_rate 0.0181748
Core_0_DTLB_rfo_access 0
Core_0_DTLB_rfo_hit 0
Core_0_DTLB_rfo_miss 0
Core_0_DTLB_rfo_MPKI 0
Core_0_DTLB_rfo_miss_rate 0
Core_0_DTLB_prefetch_access 0
Core_0_DTLB_prefetch_hit 0
Core_0_DTLB_prefetch_miss 0
Core_0_DTLB_prefetch_MPKI 0
Core_0_DTLB_prefetch_miss_rate 0
Core_0_DTLB_writeback_access 0
Core_0_DTLB_writeback_hit 0
Core_0_DTLB_writeback_miss 0
Core_0_DTLB_writeback_MPKI 0
Core_0_DTLB_writeback_miss_rate 0
Core_0_DTLB_prefetch_requested 0
Core_0_DTLB_prefetch_issued 0
Core_0_DTLB_prefetch_useful 0
Core_0_DTLB_prefetch_useless 0
Core_0_DTLB_prefetch_late 0
Core_0_DTLB_prefetch_accuracy 0
Core_0_DTLB_prefetch_coverage 0

Core_0_STLB_total_access 16386
Core_0_STLB_total_hit 67
Core_0_STLB_total_miss 16319
Core_0_STLB_total_MPKI 0.32638
Core_0_STLB_total_miss_rate 0.995911
Core_0_STLB_demand_access 16386
Core_0_STLB_demand_hit 67
Core_0_STLB_demand_miss 16319
Core_0_STLB_demand_MPKI 0.32638
Core_0_STLB_demand_miss_rate 0.995911
Core_0_STLB_load_access 16386
Core_0_STLB_load_hit 67
Core_0_STLB_load_miss 16319
Core_0_STLB_load_MPKI 0.32638
Core_0_STLB_load_miss_rate 0.995911
Core_0_STLB_rfo_access 0
Core_0_STLB_rfo_hit 0
Core_0_STLB_rfo_miss 0
Core_0_STLB_rfo_MPKI 0
Core_0_STLB_rfo_miss_rate 0
Core_0_STLB_prefetch_access 0
Core_0_STLB_prefetch_hit 0
Core_0_STLB_prefetch_miss 0
Core_0_STLB_prefetch_MPKI 0
Core_0_STLB_prefetch_miss_rate 0
Core_0_STLB_writeback_access 0
Core_0_STLB_writeback_hit 0
Core_0_STLB_writeback_miss 0
Core_0_STLB_writeback_MPKI 0
Core_0_STLB_writeback_miss_rate 0
Core_0_STLB_prefetch_requested 0
Core_0_STLB_prefetch_issued 0
Core_0_STLB_prefetch_useful 0
Core_0_STLB_prefetch_useless 0
Core_0_STLB_prefetch_late 0
Core_0_STLB_prefetch_accuracy 0
Core_0_STLB_prefetch_coverage 0

Core_0_L1I_total_access 6793288
Core_0_L1I_total_hit 6793282
Core_0_L1I_total_miss 6
Core_0_L1I_total_MPKI 0.00012
Core_0_L1I_total_miss_rate 8.83225e-07
Core_0_L1I_demand_access 6793288
Core_0_L1I_demand_hit 6793282
Core_0_L1I_demand_miss 6
Core_0_L1I_demand_MPKI 0.00012
Core_0_L1I_demand_miss_rate 8.83225e-07
Core_0_L1I_load_access 6793288
Core_0_L1I_load_hit 6793282
Core_0_L1I_load_miss 6
Core_0_L1I_load_MPKI 0.00012
Core_0_L1I_load_miss_rate 8.83225e-07
Core_0_L1I_rfo_access 0
Core_0_L1I_rfo_hit 0
Core_0_L1I_rfo_miss 0
Core_0_L1I_rfo_MPKI 0
Core_0_L1I_rfo_miss_rate 0
Core_0_L1I_prefetch_access 0
Core_0_L1I_prefetch_hit 0
Core_0_L1I_prefetch_miss 0
Core_0_L1I_prefetch_MPKI 0
Core_0_L1I_prefetch_miss_rate 0
Core_0_L1I_writeback_access 0
Core_0_L1I_writeback_hit 0
Core_0_L1I_writeback_miss 0
Core_0_L1I_writeback_MPKI 0
Core_0_L1I_writeback_miss_rate 0
Core_0_L1I_prefetch_requested 0
Core_0_L1I_prefetch_issued 0
Core_0_L1I_prefetch_useful 0
Core_0_L1I_prefetch_useless 0
Core_0_L1I_prefetch_late 0
Core_0_L1I_prefetch_accuracy 0
Core_0_L1I_prefetch_coverage 0

Core_0_L1D_total_access 9264859
Core_0_L1D_total_hit 7218677
Core_0_L1D_total_miss 2046182
Core_0_L1D_total_MPKI 40.9236
Core_0_L1D_total_miss_rate 0.220854
Core_0_L1D_demand_access 6104747
Core_0_L1D_demand_hit 5028262
Core_0_L1D_demand_miss 1076485
Core_0_L1D_demand_MPKI 21.5297
Core_0_L1D_demand_miss_rate 0.176336
Core_0_L1D_load_access 6104747
Core_0_L1D_load_hit 5028262
Core_0_L1D_load_miss 1076485
Core_0_L1D_load_MPKI 21.5297
Core_0_L1D_load_miss_rate 0.176336
Core_0_L1D_rfo_access 0
Core_0_L1D_rfo_hit 0
Core_0_L1D_rfo_miss 0
Core_0_L1D_rfo_MPKI 0
Core_0_L1D_rfo_miss_rate 0
Core_0_L1D_prefetch_access 977421
Core_0_L1D_prefetch_hit 8681
Core_0_L1D_prefetch_miss 968740
Core_0_L1D_prefetch_MPKI 19.3748
Core_0_L1D_prefetch_miss_rate 0.991118
Core_0_L1D_writeback_access 2182691
Core_0_L1D_writeback_hit 2181734
Core_0_L1D_writeback_miss 957
Core_0_L1D_writeback_MPKI 0.01914
Core_0_L1D_writeback_miss_rate 0.00043845
Core_0_L1D_prefetch_requested 1048204
Core_0_L1D_prefetch_issued 977414
Core_0_L1D_prefetch_useful 939506
Core_0_L1D_prefetch_useless 530
Core_0_L1D_prefetch_late 140219
Core_0_L1D_prefetch_accuracy 0.961216
Core_0_L1D_prefetch_coverage 0.466027

Core_0_L2C_total_access 5908134
Core_0_L2C_total_hit 1117216
Core_0_L2C_total_miss 4790918
Core_0_L2C_total_MPKI 95.8184
Core_0_L2C_total_miss_rate 0.810902
Core_0_L2C_demand_access 105230
Core_0_L2C_demand_hit 33129
Core_0_L2C_demand_miss 72101
Core_0_L2C_demand_MPKI 1.44202
Core_0_L2C_demand_miss_rate 0.685175
Core_0_L2C_load_access 104710
Core_0_L2C_load_hit 32610
Core_0_L2C_load_miss 72100
Core_0_L2C_load_MPKI 1.442
Core_0_L2C_load_miss_rate 0.688568
Core_0_L2C_rfo_access 520
Core_0_L2C_rfo_hit 519
Core_0_L2C_rfo_miss 1
Core_0_L2C_rfo_MPKI 2e-05
Core_0_L2C_rfo_miss_rate 0.00192308
Core_0_L2C_prefetch_access 5490544
Core_0_L2C_prefetch_hit 771727
Core_0_L2C_prefetch_miss 4718817
Core_0_L2C_prefetch_MPKI 94.3763
Core_0_L2C_prefetch_miss_rate 0.859444
Core_0_L2C_writeback_access 312360
Core_0_L2C_writeback_hit 312360
Core_0_L2C_writeback_miss 0
Core_0_L2C_writeback_MPKI 0
Core_0_L2C_writeback_miss_rate 0
Core_0_L2C_prefetch_requested 5369456
Core_0_L2C_prefetch_issued 4550490
Core_0_L2C_prefetch_useful 454342
Core_0_L2C_prefetch_useless 470163
Core_0_L2C_prefetch_late 28199
Core_0_L2C_prefetch_accuracy 0.0998446
Core_0_L2C_prefetch_coverage 0.863041

Core_0_LLC_total_access 1359902
Core_0_LLC_total_hit 277534
Core_0_LLC_total_miss 1082368
Core_0_LLC_total_MPKI 21.6474
Core_0_LLC_total_miss_rate 0.795916
Core_0_LLC_demand_access 43902
Core_0_LLC_demand_hit 50
Core_0_LLC_demand_miss 43852
Core_0_LLC_demand_MPKI 0.87704
Core_0_LLC_demand_miss_rate 0.998861
Core_0_LLC_load_access 43901
Core_0_LLC_load_hit 50
Core_0_LLC_load_miss 43851
Core_0_LLC_load_MPKI 0.87702
Core_0_LLC_load_miss_rate 0.998861
Core_0_LLC_rfo_access 1
Core_0_LLC_rfo_hit 0
Core_0_LLC_rfo_miss 1
Core_0_LLC_rfo_MPKI 2e-05
Core_0_LLC_rfo_miss_rate 1
Core_0_LLC_prefetch_access 1000465
Core_0_LLC_prefetch_hit 115
Core_0_LLC_prefetch_miss 1000350
Core_0_LLC_prefetch_MPKI 20.007
Core_0_LLC_prefetch_miss_rate 0.999885
Core_0_LLC_writeback_access 315535
Core_0_LLC_writeback_hit 277369
Core_0_LLC_writeback_miss 38166
Core_0_LLC_writeback_MPKI 0.76332
Core_0_LLC_writeback_miss_rate 0.120956
Core_0_LLC_prefetch_requested 0
Core_0_LLC_prefetch_issued 0
Core_0_LLC_prefetch_useful 0
Core_0_LLC_prefetch_useless 0
Core_0_LLC_prefetch_late 0
Core_0_LLC_prefetch_accuracy 0
Core_0_LLC_prefetch_coverage 0

[DRAM Statistics]
Channel_0_RQ_row_buffer_hit 212205
Channel_0_RQ_row_buffer_miss 834065
Channel_0_WQ_row_buffer_hit 31743
Channel_0_WQ_row_buffer_miss 297581
Channel_0_WQ_full 0
Channel_0_dbus_congested 4035517
DRAM_total_RQ_row_buffer_hit 212205
DRAM_total_RQ_row_buffer_miss 834065
DRAM_total_WQ_row_buffer_hit 31743
DRAM_total_WQ_row_buffer_miss 297581
DRAM_total_WQ_full 0
DRAM_total_dbus_congested 4035517
DRAM_avg_congested_cycle 5.05755

======STLB miss causes ========
Core_0_STLB_miss_cause_breakdown
Core_0_STLB_cause_Demand_Data_miss 16314
Core_0_STLB_cause_Demand_Data_miss_rate 0.995606
Core_0_STLB_cause_Demand_Instruction_miss 0
Core_0_STLB_cause_Demand_Instruction_miss_rate 0
Core_0_STLB_cause_L1D_Prefetch_miss 5
Core_0_STLB_cause_L1D_Prefetch_miss_rate 0.000305139
Core_0_STLB_cause_L1I_Prefetch_miss 0
Core_0_STLB_cause_L1I_Prefetch_miss_rate 0
Core_0_STLB_cause_Other_miss 0
Core_0_STLB_cause_Other_miss_rate 0
Core_0_STLB_Demand_miss 16314
Core_0_STLB_Demand_miss_rate 0.995606
Core_0_STLB_L1D_Prefetch_miss 5
Core_0_STLB_L1D_Prefetch_miss_rate 0.000305139
Core_0_STLB_Other_miss 0
Core_0_STLB_Other_miss_rate 0
