[VMEM] WARNING: physical memory size is smaller than virtual memory size.

*** ChampSim Multicore Out-of-Order Simulator ***
Warmup Instructions: 20000000
Simulation Instructions: 50000000
Number of CPUs: 1
Page size: 4096
Core 0: /data0/tzh/champsim_traces/SPEC17/605.mcf_s-1644B.champsimtrace.xz
 L1D Berti prefetcher
Off-chip DRAM Size: 16 GiB Channels: 1 Width: 64-bit Data Rate: 3205 MT/s
Warmup halting CPU 0 at instruction 20000001 cycle 28294569 for remainder of phase
Warmup finished CPU 0 instructions: 20000001 cycles: 28294569 cumulative IPC: 0.7068 (Simulation time: 00 hr 03 min 19 sec)
Warmup complete CPU 0 instructions: 20000001 cycles: 28294569 cumulative IPC: 0.7068 (Simulation time: 00 hr 03 min 19 sec)
Simulation finished CPU 0 instructions: 50000002 cycles: 247938658 cumulative IPC: 0.2017 (Simulation time: 00 hr 31 min 15 sec)
Simulation complete CPU 0 instructions: 50000002 cycles: 247938658 cumulative IPC: 0.2017 (Simulation time: 00 hr 31 min 15 sec)

ChampSim completed all CPUs

=== Simulation ===
CPU 0 runs /data0/tzh/champsim_traces/SPEC17/605.mcf_s-1644B.champsimtrace.xz

Region of Interest Statistics

CPU 0 cumulative IPC: 0.2017 instructions: 50000002 cycles: 247938658
CPU 0 Branch Prediction Accuracy: 95.08% MPKI: 6.109 Average ROB Occupancy at Mispredict: 109.4
Branch type MPKI
BRANCH_DIRECT_JUMP: 0
BRANCH_INDIRECT: 0
BRANCH_CONDITIONAL: 6.109
BRANCH_DIRECT_CALL: 0
BRANCH_INDIRECT_CALL: 0
BRANCH_RETURN: 0

cpu0->cpu0_STLB TOTAL        ACCESS:    1466138 HIT:     271845 MISS:    1194293 MSHR_MERGE:          0
cpu0->cpu0_STLB LOAD         ACCESS:    1466138 HIT:     271845 MISS:    1194293 MSHR_MERGE:          0
cpu0->cpu0_STLB RFO          ACCESS:          0 HIT:          0 MISS:          0 MSHR_MERGE:          0
cpu0->cpu0_STLB PREFETCH     ACCESS:          0 HIT:          0 MISS:          0 MSHR_MERGE:          0
cpu0->cpu0_STLB WRITE        ACCESS:          0 HIT:          0 MISS:          0 MSHR_MERGE:          0
cpu0->cpu0_STLB TRANSLATION  ACCESS:          0 HIT:          0 MISS:          0 MSHR_MERGE:          0
cpu0->cpu0_STLB PREFETCH REQUESTED:          0 ISSUED:          0 USEFUL:          0 USELESS:          0 LATE:          0
cpu0->cpu0_STLB AVERAGE MISS LATENCY: 367.5 cycles
cpu0->cpu0_L2C TOTAL        ACCESS:   19467044 HIT:   10132552 MISS:    9334492 MSHR_MERGE:    1435514
cpu0->cpu0_L2C LOAD         ACCESS:    1076237 HIT:     355092 MISS:     721145 MSHR_MERGE:      13061
cpu0->cpu0_L2C RFO          ACCESS:    2186872 HIT:        330 MISS:    2186542 MSHR_MERGE:          0
cpu0->cpu0_L2C PREFETCH     ACCESS:   10449202 HIT:    5101872 MISS:    5347330 MSHR_MERGE:    1422453
cpu0->cpu0_L2C WRITE        ACCESS:    4511990 HIT:    4509598 MISS:       2392 MSHR_MERGE:          0
cpu0->cpu0_L2C TRANSLATION  ACCESS:    1242743 HIT:     165660 MISS:    1077083 MSHR_MERGE:          0
cpu0->cpu0_L2C PREFETCH REQUESTED:    9492746 ISSUED:    8480636 USEFUL:    1345578 USELESS:    1914501 LATE:      13061
cpu0->cpu0_L2C AVERAGE MISS LATENCY: 343.5 cycles
cpu0->cpu0_L1I TOTAL        ACCESS:    2996318 HIT:    2996318 MISS:          0 MSHR_MERGE:          0
cpu0->cpu0_L1I LOAD         ACCESS:    2996318 HIT:    2996318 MISS:          0 MSHR_MERGE:          0
cpu0->cpu0_L1I RFO          ACCESS:          0 HIT:          0 MISS:          0 MSHR_MERGE:          0
cpu0->cpu0_L1I PREFETCH     ACCESS:          0 HIT:          0 MISS:          0 MSHR_MERGE:          0
cpu0->cpu0_L1I WRITE        ACCESS:          0 HIT:          0 MISS:          0 MSHR_MERGE:          0
cpu0->cpu0_L1I TRANSLATION  ACCESS:          0 HIT:          0 MISS:          0 MSHR_MERGE:          0
cpu0->cpu0_L1I PREFETCH REQUESTED:          0 ISSUED:          0 USEFUL:          0 USELESS:          0 LATE:          0
cpu0->cpu0_L1I AVERAGE MISS LATENCY: - cycles
cpu0->cpu0_L1D TOTAL        ACCESS:   33926557 HIT:   19608838 MISS:   14317719 MSHR_MERGE:    7843303
cpu0->cpu0_L1D LOAD         ACCESS:   11469687 HIT:   10259479 MISS:    1210208 MSHR_MERGE:     133965
cpu0->cpu0_L1D RFO          ACCESS:          0 HIT:          0 MISS:          0 MSHR_MERGE:          0
cpu0->cpu0_L1D PREFETCH     ACCESS:    2055423 HIT:      42303 MISS:    2013120 MSHR_MERGE:      44564
cpu0->cpu0_L1D WRITE        ACCESS:   17492340 HIT:    7652877 MISS:    9839463 MSHR_MERGE:    7652589
cpu0->cpu0_L1D TRANSLATION  ACCESS:    2909107 HIT:    1654179 MISS:    1254928 MSHR_MERGE:      12185
cpu0->cpu0_L1D PREFETCH REQUESTED:    2060742 ISSUED:    2055415 USEFUL:    1248832 USELESS:     719695 LATE:      45485
cpu0->cpu0_L1D AVERAGE MISS LATENCY: 312.3 cycles
cpu0->cpu0_ITLB TOTAL        ACCESS:    2980183 HIT:    2980183 MISS:          0 MSHR_MERGE:          0
cpu0->cpu0_ITLB LOAD         ACCESS:    2980183 HIT:    2980183 MISS:          0 MSHR_MERGE:          0
cpu0->cpu0_ITLB RFO          ACCESS:          0 HIT:          0 MISS:          0 MSHR_MERGE:          0
cpu0->cpu0_ITLB PREFETCH     ACCESS:          0 HIT:          0 MISS:          0 MSHR_MERGE:          0
cpu0->cpu0_ITLB WRITE        ACCESS:          0 HIT:          0 MISS:          0 MSHR_MERGE:          0
cpu0->cpu0_ITLB TRANSLATION  ACCESS:          0 HIT:          0 MISS:          0 MSHR_MERGE:          0
cpu0->cpu0_ITLB PREFETCH REQUESTED:          0 ISSUED:          0 USEFUL:          0 USELESS:          0 LATE:          0
cpu0->cpu0_ITLB AVERAGE MISS LATENCY: - cycles
cpu0->cpu0_DTLB TOTAL        ACCESS:   28825332 HIT:   19769589 MISS:    9055743 MSHR_MERGE:    7589606
cpu0->cpu0_DTLB LOAD         ACCESS:   28825332 HIT:   19769589 MISS:    9055743 MSHR_MERGE:    7589606
cpu0->cpu0_DTLB RFO          ACCESS:          0 HIT:          0 MISS:          0 MSHR_MERGE:          0
cpu0->cpu0_DTLB PREFETCH     ACCESS:          0 HIT:          0 MISS:          0 MSHR_MERGE:          0
cpu0->cpu0_DTLB WRITE        ACCESS:          0 HIT:          0 MISS:          0 MSHR_MERGE:          0
cpu0->cpu0_DTLB TRANSLATION  ACCESS:          0 HIT:          0 MISS:          0 MSHR_MERGE:          0
cpu0->cpu0_DTLB PREFETCH REQUESTED:          0 ISSUED:          0 USEFUL:          0 USELESS:          0 LATE:          0
cpu0->cpu0_DTLB AVERAGE MISS LATENCY: 305.2 cycles
cpu0->LLC TOTAL        ACCESS:   12234260 HIT:    7039858 MISS:    5194402 MSHR_MERGE:          0
cpu0->LLC LOAD         ACCESS:     708083 HIT:     553277 MISS:     154806 MSHR_MERGE:          0
cpu0->LLC RFO          ACCESS:    2186542 HIT:       2999 MISS:    2183543 MSHR_MERGE:          0
cpu0->LLC PREFETCH     ACCESS:    3924874 HIT:    2364164 MISS:    1560710 MSHR_MERGE:          0
cpu0->LLC WRITE        ACCESS:    4337678 HIT:    3912717 MISS:     424961 MSHR_MERGE:          0
cpu0->LLC TRANSLATION  ACCESS:    1077083 HIT:     206701 MISS:     870382 MSHR_MERGE:          0
cpu0->LLC PREFETCH REQUESTED:          0 ISSUED:          0 USEFUL:          0 USELESS:          0 LATE:          0
cpu0->LLC AVERAGE MISS LATENCY: 359.5 cycles

DRAM Statistics

Channel 0 RQ ROW_BUFFER_HIT:     218021
  ROW_BUFFER_MISS:    4550334
  AVG DBUS CONGESTED CYCLE: 7.601
Channel 0 WQ ROW_BUFFER_HIT:     551953
  ROW_BUFFER_MISS:    3046676
  FULL:          0
Channel 0 REFRESHES ISSUED:      20662

[ROI Statistics]
[System Configuration]
num_cpus 1
cpu_freq 4000
fetch_width 6
decode_width 6
dispatch_width 6
execute_width 6
lq_width 2
sq_width 2
retire_width 6
scheduler_size 128
branch_mispredict_penalty 15
rob_size 352
lq_size 128
sq_size 72
ifetch_buffer_size 64
decode_buffer_size 32
dispatch_buffer_size 32
register_file_size 288
decode_latency 1
dispatch_latency 1
schedule_latency 1
execute_latency 1
page_size 4096
block_size 64
core_0_itlb_set 16
core_0_itlb_way 4
core_0_itlb_rq_size 16
core_0_itlb_wq_size 16
core_0_itlb_pq_size 0
core_0_itlb_mshr_size 8
core_0_itlb_hit_latency 1
core_0_itlb_fill_latency 1
core_0_itlb_max_tag_check 2
core_0_itlb_max_fill 2
core_0_dtlb_set 16
core_0_dtlb_way 4
core_0_dtlb_rq_size 16
core_0_dtlb_wq_size 16
core_0_dtlb_pq_size 0
core_0_dtlb_mshr_size 8
core_0_dtlb_hit_latency 1
core_0_dtlb_fill_latency 1
core_0_dtlb_max_tag_check 2
core_0_dtlb_max_fill 2
core_0_stlb_set 128
core_0_stlb_way 12
core_0_stlb_rq_size 32
core_0_stlb_wq_size 32
core_0_stlb_pq_size 0
core_0_stlb_mshr_size 16
core_0_stlb_hit_latency 4
core_0_stlb_fill_latency 4
core_0_stlb_max_tag_check 1
core_0_stlb_max_fill 1
core_0_l1i_set 64
core_0_l1i_way 8
core_0_l1i_rq_size 64
core_0_l1i_wq_size 64
core_0_l1i_pq_size 32
core_0_l1i_mshr_size 8
core_0_l1i_hit_latency 2
core_0_l1i_fill_latency 2
core_0_l1i_max_tag_check 2
core_0_l1i_max_fill 2
core_0_l1d_set 64
core_0_l1d_way 12
core_0_l1d_rq_size 64
core_0_l1d_wq_size 64
core_0_l1d_pq_size 8
core_0_l1d_mshr_size 16
core_0_l1d_hit_latency 2
core_0_l1d_fill_latency 3
core_0_l1d_max_tag_check 2
core_0_l1d_max_fill 2
core_0_l2c_set 1024
core_0_l2c_way 8
core_0_l2c_rq_size 32
core_0_l2c_wq_size 32
core_0_l2c_pq_size 16
core_0_l2c_mshr_size 32
core_0_l2c_hit_latency 5
core_0_l2c_fill_latency 5
core_0_l2c_max_tag_check 1
core_0_l2c_max_fill 1
llc_set 2048
llc_way 16
llc_rq_size 32
llc_wq_size 32
llc_pq_size 32
llc_mshr_size 64
llc_hit_latency 10
llc_fill_latency 10
llc_max_tag_check 1
llc_max_fill 1
dram_channels 1
dram_ranks 1
dram_bankgroups 8
dram_banks 4
dram_rows 65536
dram_columns 1024
dram_channel_width 8
dram_rq_size 64
dram_wq_size 64
dram_size 17179869184
core_0_itlb_prefetcher no
core_0_dtlb_prefetcher no
core_0_stlb_prefetcher no
core_0_l1i_prefetcher next_line
core_0_l1d_prefetcher berti
core_0_l2c_prefetcher pythia
llc_prefetcher no
llc_replacement drrip

Core_0_instructions 50000002
Core_0_cycles 247938658
Core_0_IPC 0.201663
Core_0_branch_prediction_accuracy 95.0839
Core_0_branch_MPKI 6.10944
Core_0_average_ROB_occupancy_at_mispredict 109.441

Core_0_ITLB_total_access 2980183
Core_0_ITLB_total_hit 2980183
Core_0_ITLB_total_miss 0
Core_0_ITLB_total_MPKI 0
Core_0_ITLB_total_miss_rate 0
Core_0_ITLB_demand_access 2980183
Core_0_ITLB_demand_hit 2980183
Core_0_ITLB_demand_miss 0
Core_0_ITLB_demand_MPKI 0
Core_0_ITLB_demand_miss_rate 0
Core_0_ITLB_load_access 2980183
Core_0_ITLB_load_hit 2980183
Core_0_ITLB_load_miss 0
Core_0_ITLB_load_MPKI 0
Core_0_ITLB_load_miss_rate 0
Core_0_ITLB_rfo_access 0
Core_0_ITLB_rfo_hit 0
Core_0_ITLB_rfo_miss 0
Core_0_ITLB_rfo_MPKI 0
Core_0_ITLB_rfo_miss_rate 0
Core_0_ITLB_prefetch_access 0
Core_0_ITLB_prefetch_hit 0
Core_0_ITLB_prefetch_miss 0
Core_0_ITLB_prefetch_MPKI 0
Core_0_ITLB_prefetch_miss_rate 0
Core_0_ITLB_writeback_access 0
Core_0_ITLB_writeback_hit 0
Core_0_ITLB_writeback_miss 0
Core_0_ITLB_writeback_MPKI 0
Core_0_ITLB_writeback_miss_rate 0
Core_0_ITLB_prefetch_requested 0
Core_0_ITLB_prefetch_issued 0
Core_0_ITLB_prefetch_useful 0
Core_0_ITLB_prefetch_useless 0
Core_0_ITLB_prefetch_late 0
Core_0_ITLB_prefetch_accuracy 0
Core_0_ITLB_prefetch_coverage 0

Core_0_DTLB_total_access 28825332
Core_0_DTLB_total_hit 19769589
Core_0_DTLB_total_miss 9055743
Core_0_DTLB_total_MPKI 181.115
Core_0_DTLB_total_miss_rate 0.314159
Core_0_DTLB_demand_access 28825332
Core_0_DTLB_demand_hit 19769589
Core_0_DTLB_demand_miss 9055743
Core_0_DTLB_demand_MPKI 181.115
Core_0_DTLB_demand_miss_rate 0.314159
Core_0_DTLB_load_access 28825332
Core_0_DTLB_load_hit 19769589
Core_0_DTLB_load_miss 9055743
Core_0_DTLB_load_MPKI 181.115
Core_0_DTLB_load_miss_rate 0.314159
Core_0_DTLB_rfo_access 0
Core_0_DTLB_rfo_hit 0
Core_0_DTLB_rfo_miss 0
Core_0_DTLB_rfo_MPKI 0
Core_0_DTLB_rfo_miss_rate 0
Core_0_DTLB_prefetch_access 0
Core_0_DTLB_prefetch_hit 0
Core_0_DTLB_prefetch_miss 0
Core_0_DTLB_prefetch_MPKI 0
Core_0_DTLB_prefetch_miss_rate 0
Core_0_DTLB_writeback_access 0
Core_0_DTLB_writeback_hit 0
Core_0_DTLB_writeback_miss 0
Core_0_DTLB_writeback_MPKI 0
Core_0_DTLB_writeback_miss_rate 0
Core_0_DTLB_prefetch_requested 0
Core_0_DTLB_prefetch_issued 0
Core_0_DTLB_prefetch_useful 0
Core_0_DTLB_prefetch_useless 0
Core_0_DTLB_prefetch_late 0
Core_0_DTLB_prefetch_accuracy 0
Core_0_DTLB_prefetch_coverage 0

Core_0_STLB_total_access 1466138
Core_0_STLB_total_hit 271845
Core_0_STLB_total_miss 1194293
Core_0_STLB_total_MPKI 23.8859
Core_0_STLB_total_miss_rate 0.814584
Core_0_STLB_demand_access 1466138
Core_0_STLB_demand_hit 271845
Core_0_STLB_demand_miss 1194293
Core_0_STLB_demand_MPKI 23.8859
Core_0_STLB_demand_miss_rate 0.814584
Core_0_STLB_load_access 1466138
Core_0_STLB_load_hit 271845
Core_0_STLB_load_miss 1194293
Core_0_STLB_load_MPKI 23.8859
Core_0_STLB_load_miss_rate 0.814584
Core_0_STLB_rfo_access 0
Core_0_STLB_rfo_hit 0
Core_0_STLB_rfo_miss 0
Core_0_STLB_rfo_MPKI 0
Core_0_STLB_rfo_miss_rate 0
Core_0_STLB_prefetch_access 0
Core_0_STLB_prefetch_hit 0
Core_0_STLB_prefetch_miss 0
Core_0_STLB_prefetch_MPKI 0
Core_0_STLB_prefetch_miss_rate 0
Core_0_STLB_writeback_access 0
Core_0_STLB_writeback_hit 0
Core_0_STLB_writeback_miss 0
Core_0_STLB_writeback_MPKI 0
Core_0_STLB_writeback_miss_rate 0
Core_0_STLB_prefetch_requested 0
Core_0_STLB_prefetch_issued 0
Core_0_STLB_prefetch_useful 0
Core_0_STLB_prefetch_useless 0
Core_0_STLB_prefetch_late 0
Core_0_STLB_prefetch_accuracy 0
Core_0_STLB_prefetch_coverage 0

Core_0_L1I_total_access 2996318
Core_0_L1I_total_hit 2996318
Core_0_L1I_total_miss 0
Core_0_L1I_total_MPKI 0
Core_0_L1I_total_miss_rate 0
Core_0_L1I_demand_access 2996318
Core_0_L1I_demand_hit 2996318
Core_0_L1I_demand_miss 0
Core_0_L1I_demand_MPKI 0
Core_0_L1I_demand_miss_rate 0
Core_0_L1I_load_access 2996318
Core_0_L1I_load_hit 2996318
Core_0_L1I_load_miss 0
Core_0_L1I_load_MPKI 0
Core_0_L1I_load_miss_rate 0
Core_0_L1I_rfo_access 0
Core_0_L1I_rfo_hit 0
Core_0_L1I_rfo_miss 0
Core_0_L1I_rfo_MPKI 0
Core_0_L1I_rfo_miss_rate 0
Core_0_L1I_prefetch_access 0
Core_0_L1I_prefetch_hit 0
Core_0_L1I_prefetch_miss 0
Core_0_L1I_prefetch_MPKI 0
Core_0_L1I_prefetch_miss_rate 0
Core_0_L1I_writeback_access 0
Core_0_L1I_writeback_hit 0
Core_0_L1I_writeback_miss 0
Core_0_L1I_writeback_MPKI 0
Core_0_L1I_writeback_miss_rate 0
Core_0_L1I_prefetch_requested 0
Core_0_L1I_prefetch_issued 0
Core_0_L1I_prefetch_useful 0
Core_0_L1I_prefetch_useless 0
Core_0_L1I_prefetch_late 0
Core_0_L1I_prefetch_accuracy 0
Core_0_L1I_prefetch_coverage 0

Core_0_L1D_total_access 31017450
Core_0_L1D_total_hit 17954659
Core_0_L1D_total_miss 13062791
Core_0_L1D_total_MPKI 261.256
Core_0_L1D_total_miss_rate 0.421143
Core_0_L1D_demand_access 11469687
Core_0_L1D_demand_hit 10259479
Core_0_L1D_demand_miss 1210208
Core_0_L1D_demand_MPKI 24.2042
Core_0_L1D_demand_miss_rate 0.105514
Core_0_L1D_load_access 11469687
Core_0_L1D_load_hit 10259479
Core_0_L1D_load_miss 1210208
Core_0_L1D_load_MPKI 24.2042
Core_0_L1D_load_miss_rate 0.105514
Core_0_L1D_rfo_access 0
Core_0_L1D_rfo_hit 0
Core_0_L1D_rfo_miss 0
Core_0_L1D_rfo_MPKI 0
Core_0_L1D_rfo_miss_rate 0
Core_0_L1D_prefetch_access 2055423
Core_0_L1D_prefetch_hit 42303
Core_0_L1D_prefetch_miss 2013120
Core_0_L1D_prefetch_MPKI 40.2624
Core_0_L1D_prefetch_miss_rate 0.979419
Core_0_L1D_writeback_access 17492340
Core_0_L1D_writeback_hit 7652877
Core_0_L1D_writeback_miss 9839463
Core_0_L1D_writeback_MPKI 196.789
Core_0_L1D_writeback_miss_rate 0.562501
Core_0_L1D_prefetch_requested 2060742
Core_0_L1D_prefetch_issued 2055415
Core_0_L1D_prefetch_useful 1248832
Core_0_L1D_prefetch_useless 719695
Core_0_L1D_prefetch_late 45485
Core_0_L1D_prefetch_accuracy 0.607581
Core_0_L1D_prefetch_coverage 0.507853

Core_0_L2C_total_access 18224301
Core_0_L2C_total_hit 9966892
Core_0_L2C_total_miss 8257409
Core_0_L2C_total_MPKI 165.148
Core_0_L2C_total_miss_rate 0.453099
Core_0_L2C_demand_access 3263109
Core_0_L2C_demand_hit 355422
Core_0_L2C_demand_miss 2907687
Core_0_L2C_demand_MPKI 58.1537
Core_0_L2C_demand_miss_rate 0.891079
Core_0_L2C_load_access 1076237
Core_0_L2C_load_hit 355092
Core_0_L2C_load_miss 721145
Core_0_L2C_load_MPKI 14.4229
Core_0_L2C_load_miss_rate 0.670062
Core_0_L2C_rfo_access 2186872
Core_0_L2C_rfo_hit 330
Core_0_L2C_rfo_miss 2186542
Core_0_L2C_rfo_MPKI 43.7308
Core_0_L2C_rfo_miss_rate 0.999849
Core_0_L2C_prefetch_access 10449202
Core_0_L2C_prefetch_hit 5101872
Core_0_L2C_prefetch_miss 5347330
Core_0_L2C_prefetch_MPKI 106.947
Core_0_L2C_prefetch_miss_rate 0.511745
Core_0_L2C_writeback_access 4511990
Core_0_L2C_writeback_hit 4509598
Core_0_L2C_writeback_miss 2392
Core_0_L2C_writeback_MPKI 0.04784
Core_0_L2C_writeback_miss_rate 0.000530143
Core_0_L2C_prefetch_requested 9492746
Core_0_L2C_prefetch_issued 8480636
Core_0_L2C_prefetch_useful 1345578
Core_0_L2C_prefetch_useless 1914501
Core_0_L2C_prefetch_late 13061
Core_0_L2C_prefetch_accuracy 0.158665
Core_0_L2C_prefetch_coverage 0.316364

Core_0_LLC_total_access 11157177
Core_0_LLC_total_hit 6833157
Core_0_LLC_total_miss 4324020
Core_0_LLC_total_MPKI 86.4804
Core_0_LLC_total_miss_rate 0.387555
Core_0_LLC_demand_access 2894625
Core_0_LLC_demand_hit 556276
Core_0_LLC_demand_miss 2338349
Core_0_LLC_demand_MPKI 46.767
Core_0_LLC_demand_miss_rate 0.807825
Core_0_LLC_load_access 708083
Core_0_LLC_load_hit 553277
Core_0_LLC_load_miss 154806
Core_0_LLC_load_MPKI 3.09612
Core_0_LLC_load_miss_rate 0.218627
Core_0_LLC_rfo_access 2186542
Core_0_LLC_rfo_hit 2999
Core_0_LLC_rfo_miss 2183543
Core_0_LLC_rfo_MPKI 43.6709
Core_0_LLC_rfo_miss_rate 0.998628
Core_0_LLC_prefetch_access 3924874
Core_0_LLC_prefetch_hit 2364164
Core_0_LLC_prefetch_miss 1560710
Core_0_LLC_prefetch_MPKI 31.2142
Core_0_LLC_prefetch_miss_rate 0.397646
Core_0_LLC_writeback_access 4337678
Core_0_LLC_writeback_hit 3912717
Core_0_LLC_writeback_miss 424961
Core_0_LLC_writeback_MPKI 8.49922
Core_0_LLC_writeback_miss_rate 0.0979697
Core_0_LLC_prefetch_requested 0
Core_0_LLC_prefetch_issued 0
Core_0_LLC_prefetch_useful 0
Core_0_LLC_prefetch_useless 0
Core_0_LLC_prefetch_late 0
Core_0_LLC_prefetch_accuracy 0
Core_0_LLC_prefetch_coverage 0

[DRAM Statistics]
Channel_0_RQ_row_buffer_hit 218021
Channel_0_RQ_row_buffer_miss 4550334
Channel_0_WQ_row_buffer_hit 551953
Channel_0_WQ_row_buffer_miss 3046676
Channel_0_WQ_full 0
Channel_0_dbus_congested 29311837
DRAM_total_RQ_row_buffer_hit 218021
DRAM_total_RQ_row_buffer_miss 4550334
DRAM_total_WQ_row_buffer_hit 551953
DRAM_total_WQ_row_buffer_miss 3046676
DRAM_total_WQ_full 0
DRAM_total_dbus_congested 29311837
DRAM_avg_congested_cycle 7.60083

======STLB miss causes ========
Core_0_STLB_miss_cause_breakdown
Core_0_STLB_cause_Demand_Data_miss 1169867
Core_0_STLB_cause_Demand_Data_miss_rate 0.797924
Core_0_STLB_cause_Demand_Instruction_miss 0
Core_0_STLB_cause_Demand_Instruction_miss_rate 0
Core_0_STLB_cause_L1D_Prefetch_miss 24426
Core_0_STLB_cause_L1D_Prefetch_miss_rate 0.0166601
Core_0_STLB_cause_L1I_Prefetch_miss 0
Core_0_STLB_cause_L1I_Prefetch_miss_rate 0
Core_0_STLB_cause_Other_miss 0
Core_0_STLB_cause_Other_miss_rate 0
Core_0_STLB_Demand_miss 1169867
Core_0_STLB_Demand_miss_rate 0.797924
Core_0_STLB_L1D_Prefetch_miss 24426
Core_0_STLB_L1D_Prefetch_miss_rate 0.0166601
Core_0_STLB_Other_miss 0
Core_0_STLB_Other_miss_rate 0
