[VMEM] WARNING: physical memory size is smaller than virtual memory size.

*** ChampSim Multicore Out-of-Order Simulator ***
Warmup Instructions: 20000000
Simulation Instructions: 50000000
Number of CPUs: 1
Page size: 4096
Core 0: /data0/tzh/champsim_traces/SPEC17/607.cactuBSSN_s-3477B.champsimtrace.xz
 L1D Berti prefetcher
Off-chip DRAM Size: 16 GiB Channels: 1 Width: 64-bit Data Rate: 3205 MT/s
Warmup halting CPU 0 at instruction 20000002 cycle 5388994 for remainder of phase
Warmup finished CPU 0 instructions: 20000002 cycles: 5388994 cumulative IPC: 3.711 (Simulation time: 00 hr 01 min 36 sec)
Warmup complete CPU 0 instructions: 20000002 cycles: 5388994 cumulative IPC: 3.711 (Simulation time: 00 hr 01 min 36 sec)
Simulation finished CPU 0 instructions: 50000004 cycles: 20013312 cumulative IPC: 2.498 (Simulation time: 00 hr 07 min 15 sec)
Simulation complete CPU 0 instructions: 50000004 cycles: 20013312 cumulative IPC: 2.498 (Simulation time: 00 hr 07 min 15 sec)

ChampSim completed all CPUs

=== Simulation ===
CPU 0 runs /data0/tzh/champsim_traces/SPEC17/607.cactuBSSN_s-3477B.champsimtrace.xz

Region of Interest Statistics

CPU 0 cumulative IPC: 2.498 instructions: 50000004 cycles: 20013312
CPU 0 Branch Prediction Accuracy: 91.83% MPKI: 0.7242 Average ROB Occupancy at Mispredict: 230
Branch type MPKI
BRANCH_DIRECT_JUMP: 0
BRANCH_INDIRECT: 2e-05
BRANCH_CONDITIONAL: 0.3627
BRANCH_DIRECT_CALL: 0
BRANCH_INDIRECT_CALL: 0
BRANCH_RETURN: 0.3615

cpu0->cpu0_STLB TOTAL        ACCESS:    1988422 HIT:    1986236 MISS:       2186 MSHR_MERGE:          0
cpu0->cpu0_STLB LOAD         ACCESS:    1988422 HIT:    1986236 MISS:       2186 MSHR_MERGE:          0
cpu0->cpu0_STLB RFO          ACCESS:          0 HIT:          0 MISS:          0 MSHR_MERGE:          0
cpu0->cpu0_STLB PREFETCH     ACCESS:          0 HIT:          0 MISS:          0 MSHR_MERGE:          0
cpu0->cpu0_STLB WRITE        ACCESS:          0 HIT:          0 MISS:          0 MSHR_MERGE:          0
cpu0->cpu0_STLB TRANSLATION  ACCESS:          0 HIT:          0 MISS:          0 MSHR_MERGE:          0
cpu0->cpu0_STLB PREFETCH REQUESTED:          0 ISSUED:          0 USEFUL:          0 USELESS:          0 LATE:          0
cpu0->cpu0_STLB AVERAGE MISS LATENCY: 311.2 cycles
cpu0->cpu0_L2C TOTAL        ACCESS:   10045701 HIT:    9642955 MISS:     402746 MSHR_MERGE:       4624
cpu0->cpu0_L2C LOAD         ACCESS:    4705512 HIT:    4692338 MISS:      13174 MSHR_MERGE:         73
cpu0->cpu0_L2C RFO          ACCESS:     320930 HIT:     289137 MISS:      31793 MSHR_MERGE:          0
cpu0->cpu0_L2C PREFETCH     ACCESS:    4654840 HIT:    4300186 MISS:     354654 MSHR_MERGE:       4551
cpu0->cpu0_L2C WRITE        ACCESS:     361212 HIT:     361052 MISS:        160 MSHR_MERGE:          0
cpu0->cpu0_L2C TRANSLATION  ACCESS:       3207 HIT:        242 MISS:       2965 MSHR_MERGE:          0
cpu0->cpu0_L2C PREFETCH REQUESTED:    4647555 ISSUED:    3860352 USEFUL:     285981 USELESS:      27860 LATE:         73
cpu0->cpu0_L2C AVERAGE MISS LATENCY: 208 cycles
cpu0->cpu0_L1I TOTAL        ACCESS:    9070915 HIT:    6590821 MISS:    2480094 MSHR_MERGE:    1042999
cpu0->cpu0_L1I LOAD         ACCESS:    9070915 HIT:    6590821 MISS:    2480094 MSHR_MERGE:    1042999
cpu0->cpu0_L1I RFO          ACCESS:          0 HIT:          0 MISS:          0 MSHR_MERGE:          0
cpu0->cpu0_L1I PREFETCH     ACCESS:          0 HIT:          0 MISS:          0 MSHR_MERGE:          0
cpu0->cpu0_L1I WRITE        ACCESS:          0 HIT:          0 MISS:          0 MSHR_MERGE:          0
cpu0->cpu0_L1I TRANSLATION  ACCESS:          0 HIT:          0 MISS:          0 MSHR_MERGE:          0
cpu0->cpu0_L1I PREFETCH REQUESTED:          0 ISSUED:          0 USEFUL:          0 USELESS:          0 LATE:          0
cpu0->cpu0_L1I AVERAGE MISS LATENCY: 7.237 cycles
cpu0->cpu0_L1D TOTAL        ACCESS:   17962207 HIT:   13367116 MISS:    4595091 MSHR_MERGE:     207785
cpu0->cpu0_L1D LOAD         ACCESS:   12359674 HIT:    9012539 MISS:    3347135 MSHR_MERGE:      78613
cpu0->cpu0_L1D RFO          ACCESS:          0 HIT:          0 MISS:          0 MSHR_MERGE:          0
cpu0->cpu0_L1D PREFETCH     ACCESS:    1713991 HIT:     835459 MISS:     878532 MSHR_MERGE:      84042
cpu0->cpu0_L1D WRITE        ACCESS:    3883104 HIT:    3516889 MISS:     366215 MSHR_MERGE:      45128
cpu0->cpu0_L1D TRANSLATION  ACCESS:       5438 HIT:       2229 MISS:       3209 MSHR_MERGE:          2
cpu0->cpu0_L1D PREFETCH REQUESTED:    2335297 ISSUED:    1713983 USEFUL:     272275 USELESS:     522097 LATE:      53872
cpu0->cpu0_L1D AVERAGE MISS LATENCY: 11.61 cycles
cpu0->cpu0_ITLB TOTAL        ACCESS:    6467721 HIT:    6467721 MISS:          0 MSHR_MERGE:          0
cpu0->cpu0_ITLB LOAD         ACCESS:    6467721 HIT:    6467721 MISS:          0 MSHR_MERGE:          0
cpu0->cpu0_ITLB RFO          ACCESS:          0 HIT:          0 MISS:          0 MSHR_MERGE:          0
cpu0->cpu0_ITLB PREFETCH     ACCESS:          0 HIT:          0 MISS:          0 MSHR_MERGE:          0
cpu0->cpu0_ITLB WRITE        ACCESS:          0 HIT:          0 MISS:          0 MSHR_MERGE:          0
cpu0->cpu0_ITLB TRANSLATION  ACCESS:          0 HIT:          0 MISS:          0 MSHR_MERGE:          0
cpu0->cpu0_ITLB PREFETCH REQUESTED:          0 ISSUED:          0 USEFUL:          0 USELESS:          0 LATE:          0
cpu0->cpu0_ITLB AVERAGE MISS LATENCY: - cycles
cpu0->cpu0_DTLB TOTAL        ACCESS:   16771306 HIT:   14551963 MISS:    2219343 MSHR_MERGE:     230921
cpu0->cpu0_DTLB LOAD         ACCESS:   16771306 HIT:   14551963 MISS:    2219343 MSHR_MERGE:     230921
cpu0->cpu0_DTLB RFO          ACCESS:          0 HIT:          0 MISS:          0 MSHR_MERGE:          0
cpu0->cpu0_DTLB PREFETCH     ACCESS:          0 HIT:          0 MISS:          0 MSHR_MERGE:          0
cpu0->cpu0_DTLB WRITE        ACCESS:          0 HIT:          0 MISS:          0 MSHR_MERGE:          0
cpu0->cpu0_DTLB TRANSLATION  ACCESS:          0 HIT:          0 MISS:          0 MSHR_MERGE:          0
cpu0->cpu0_DTLB PREFETCH REQUESTED:          0 ISSUED:          0 USEFUL:          0 USELESS:          0 LATE:          0
cpu0->cpu0_DTLB AVERAGE MISS LATENCY: 5.414 cycles
cpu0->LLC TOTAL        ACCESS:     429870 HIT:     258319 MISS:     171551 MSHR_MERGE:          0
cpu0->LLC LOAD         ACCESS:      13101 HIT:       9318 MISS:       3783 MSHR_MERGE:          0
cpu0->LLC RFO          ACCESS:      31704 HIT:       2387 MISS:      29317 MSHR_MERGE:          0
cpu0->LLC PREFETCH     ACCESS:     350103 HIT:     215853 MISS:     134250 MSHR_MERGE:          0
cpu0->LLC WRITE        ACCESS:      31997 HIT:      28327 MISS:       3670 MSHR_MERGE:          0
cpu0->LLC TRANSLATION  ACCESS:       2965 HIT:       2434 MISS:        531 MSHR_MERGE:          0
cpu0->LLC PREFETCH REQUESTED:          0 ISSUED:          0 USEFUL:          0 USELESS:          0 LATE:          0
cpu0->LLC AVERAGE MISS LATENCY: 248.9 cycles

DRAM Statistics

Channel 0 RQ ROW_BUFFER_HIT:        151
  ROW_BUFFER_MISS:     167730
  AVG DBUS CONGESTED CYCLE: 8.08
Channel 0 WQ ROW_BUFFER_HIT:       3608
  ROW_BUFFER_MISS:      25244
  FULL:          0
Channel 0 REFRESHES ISSUED:       1667

[ROI Statistics]
[System Configuration]
num_cpus 1
cpu_freq 4000
fetch_width 6
decode_width 6
dispatch_width 6
execute_width 6
lq_width 2
sq_width 2
retire_width 6
scheduler_size 128
branch_mispredict_penalty 15
rob_size 352
lq_size 128
sq_size 72
ifetch_buffer_size 64
decode_buffer_size 32
dispatch_buffer_size 32
register_file_size 288
decode_latency 1
dispatch_latency 1
schedule_latency 1
execute_latency 1
page_size 4096
block_size 64
core_0_itlb_set 16
core_0_itlb_way 4
core_0_itlb_rq_size 16
core_0_itlb_wq_size 16
core_0_itlb_pq_size 0
core_0_itlb_mshr_size 8
core_0_itlb_hit_latency 1
core_0_itlb_fill_latency 1
core_0_itlb_max_tag_check 2
core_0_itlb_max_fill 2
core_0_dtlb_set 16
core_0_dtlb_way 4
core_0_dtlb_rq_size 16
core_0_dtlb_wq_size 16
core_0_dtlb_pq_size 0
core_0_dtlb_mshr_size 8
core_0_dtlb_hit_latency 1
core_0_dtlb_fill_latency 1
core_0_dtlb_max_tag_check 2
core_0_dtlb_max_fill 2
core_0_stlb_set 128
core_0_stlb_way 12
core_0_stlb_rq_size 32
core_0_stlb_wq_size 32
core_0_stlb_pq_size 0
core_0_stlb_mshr_size 16
core_0_stlb_hit_latency 4
core_0_stlb_fill_latency 4
core_0_stlb_max_tag_check 1
core_0_stlb_max_fill 1
core_0_l1i_set 64
core_0_l1i_way 8
core_0_l1i_rq_size 64
core_0_l1i_wq_size 64
core_0_l1i_pq_size 32
core_0_l1i_mshr_size 8
core_0_l1i_hit_latency 2
core_0_l1i_fill_latency 2
core_0_l1i_max_tag_check 2
core_0_l1i_max_fill 2
core_0_l1d_set 64
core_0_l1d_way 12
core_0_l1d_rq_size 64
core_0_l1d_wq_size 64
core_0_l1d_pq_size 8
core_0_l1d_mshr_size 16
core_0_l1d_hit_latency 2
core_0_l1d_fill_latency 3
core_0_l1d_max_tag_check 2
core_0_l1d_max_fill 2
core_0_l2c_set 1024
core_0_l2c_way 8
core_0_l2c_rq_size 32
core_0_l2c_wq_size 32
core_0_l2c_pq_size 16
core_0_l2c_mshr_size 32
core_0_l2c_hit_latency 5
core_0_l2c_fill_latency 5
core_0_l2c_max_tag_check 1
core_0_l2c_max_fill 1
llc_set 2048
llc_way 16
llc_rq_size 32
llc_wq_size 32
llc_pq_size 32
llc_mshr_size 64
llc_hit_latency 10
llc_fill_latency 10
llc_max_tag_check 1
llc_max_fill 1
dram_channels 1
dram_ranks 1
dram_bankgroups 8
dram_banks 4
dram_rows 65536
dram_columns 1024
dram_channel_width 8
dram_rq_size 64
dram_wq_size 64
dram_size 17179869184
core_0_itlb_prefetcher no
core_0_dtlb_prefetcher no
core_0_stlb_prefetcher no
core_0_l1i_prefetcher next_line
core_0_l1d_prefetcher berti
core_0_l2c_prefetcher pythia
llc_prefetcher no
llc_replacement drrip

Core_0_instructions 50000004
Core_0_cycles 20013312
Core_0_IPC 2.49834
Core_0_branch_prediction_accuracy 91.8255
Core_0_branch_MPKI 0.72422
Core_0_average_ROB_occupancy_at_mispredict 230.046

Core_0_ITLB_total_access 6467721
Core_0_ITLB_total_hit 6467721
Core_0_ITLB_total_miss 0
Core_0_ITLB_total_MPKI 0
Core_0_ITLB_total_miss_rate 0
Core_0_ITLB_demand_access 6467721
Core_0_ITLB_demand_hit 6467721
Core_0_ITLB_demand_miss 0
Core_0_ITLB_demand_MPKI 0
Core_0_ITLB_demand_miss_rate 0
Core_0_ITLB_load_access 6467721
Core_0_ITLB_load_hit 6467721
Core_0_ITLB_load_miss 0
Core_0_ITLB_load_MPKI 0
Core_0_ITLB_load_miss_rate 0
Core_0_ITLB_rfo_access 0
Core_0_ITLB_rfo_hit 0
Core_0_ITLB_rfo_miss 0
Core_0_ITLB_rfo_MPKI 0
Core_0_ITLB_rfo_miss_rate 0
Core_0_ITLB_prefetch_access 0
Core_0_ITLB_prefetch_hit 0
Core_0_ITLB_prefetch_miss 0
Core_0_ITLB_prefetch_MPKI 0
Core_0_ITLB_prefetch_miss_rate 0
Core_0_ITLB_writeback_access 0
Core_0_ITLB_writeback_hit 0
Core_0_ITLB_writeback_miss 0
Core_0_ITLB_writeback_MPKI 0
Core_0_ITLB_writeback_miss_rate 0
Core_0_ITLB_prefetch_requested 0
Core_0_ITLB_prefetch_issued 0
Core_0_ITLB_prefetch_useful 0
Core_0_ITLB_prefetch_useless 0
Core_0_ITLB_prefetch_late 0
Core_0_ITLB_prefetch_accuracy 0
Core_0_ITLB_prefetch_coverage 0

Core_0_DTLB_total_access 16771306
Core_0_DTLB_total_hit 14551963
Core_0_DTLB_total_miss 2219343
Core_0_DTLB_total_MPKI 44.3869
Core_0_DTLB_total_miss_rate 0.13233
Core_0_DTLB_demand_access 16771306
Core_0_DTLB_demand_hit 14551963
Core_0_DTLB_demand_miss 2219343
Core_0_DTLB_demand_MPKI 44.3869
Core_0_DTLB_demand_miss_rate 0.13233
Core_0_DTLB_load_access 16771306
Core_0_DTLB_load_hit 14551963
Core_0_DTLB_load_miss 2219343
Core_0_DTLB_load_MPKI 44.3869
Core_0_DTLB_load_miss_rate 0.13233
Core_0_DTLB_rfo_access 0
Core_0_DTLB_rfo_hit 0
Core_0_DTLB_rfo_miss 0
Core_0_DTLB_rfo_MPKI 0
Core_0_DTLB_rfo_miss_rate 0
Core_0_DTLB_prefetch_access 0
Core_0_DTLB_prefetch_hit 0
Core_0_DTLB_prefetch_miss 0
Core_0_DTLB_prefetch_MPKI 0
Core_0_DTLB_prefetch_miss_rate 0
Core_0_DTLB_writeback_access 0
Core_0_DTLB_writeback_hit 0
Core_0_DTLB_writeback_miss 0
Core_0_DTLB_writeback_MPKI 0
Core_0_DTLB_writeback_miss_rate 0
Core_0_DTLB_prefetch_requested 0
Core_0_DTLB_prefetch_issued 0
Core_0_DTLB_prefetch_useful 0
Core_0_DTLB_prefetch_useless 0
Core_0_DTLB_prefetch_late 0
Core_0_DTLB_prefetch_accuracy 0
Core_0_DTLB_prefetch_coverage 0

Core_0_STLB_total_access 1988422
Core_0_STLB_total_hit 1986236
Core_0_STLB_total_miss 2186
Core_0_STLB_total_MPKI 0.04372
Core_0_STLB_total_miss_rate 0.00109936
Core_0_STLB_demand_access 1988422
Core_0_STLB_demand_hit 1986236
Core_0_STLB_demand_miss 2186
Core_0_STLB_demand_MPKI 0.04372
Core_0_STLB_demand_miss_rate 0.00109936
Core_0_STLB_load_access 1988422
Core_0_STLB_load_hit 1986236
Core_0_STLB_load_miss 2186
Core_0_STLB_load_MPKI 0.04372
Core_0_STLB_load_miss_rate 0.00109936
Core_0_STLB_rfo_access 0
Core_0_STLB_rfo_hit 0
Core_0_STLB_rfo_miss 0
Core_0_STLB_rfo_MPKI 0
Core_0_STLB_rfo_miss_rate 0
Core_0_STLB_prefetch_access 0
Core_0_STLB_prefetch_hit 0
Core_0_STLB_prefetch_miss 0
Core_0_STLB_prefetch_MPKI 0
Core_0_STLB_prefetch_miss_rate 0
Core_0_STLB_writeback_access 0
Core_0_STLB_writeback_hit 0
Core_0_STLB_writeback_miss 0
Core_0_STLB_writeback_MPKI 0
Core_0_STLB_writeback_miss_rate 0
Core_0_STLB_prefetch_requested 0
Core_0_STLB_prefetch_issued 0
Core_0_STLB_prefetch_useful 0
Core_0_STLB_prefetch_useless 0
Core_0_STLB_prefetch_late 0
Core_0_STLB_prefetch_accuracy 0
Core_0_STLB_prefetch_coverage 0

Core_0_L1I_total_access 9070915
Core_0_L1I_total_hit 6590821
Core_0_L1I_total_miss 2480094
Core_0_L1I_total_MPKI 49.6019
Core_0_L1I_total_miss_rate 0.273412
Core_0_L1I_demand_access 9070915
Core_0_L1I_demand_hit 6590821
Core_0_L1I_demand_miss 2480094
Core_0_L1I_demand_MPKI 49.6019
Core_0_L1I_demand_miss_rate 0.273412
Core_0_L1I_load_access 9070915
Core_0_L1I_load_hit 6590821
Core_0_L1I_load_miss 2480094
Core_0_L1I_load_MPKI 49.6019
Core_0_L1I_load_miss_rate 0.273412
Core_0_L1I_rfo_access 0
Core_0_L1I_rfo_hit 0
Core_0_L1I_rfo_miss 0
Core_0_L1I_rfo_MPKI 0
Core_0_L1I_rfo_miss_rate 0
Core_0_L1I_prefetch_access 0
Core_0_L1I_prefetch_hit 0
Core_0_L1I_prefetch_miss 0
Core_0_L1I_prefetch_MPKI 0
Core_0_L1I_prefetch_miss_rate 0
Core_0_L1I_writeback_access 0
Core_0_L1I_writeback_hit 0
Core_0_L1I_writeback_miss 0
Core_0_L1I_writeback_MPKI 0
Core_0_L1I_writeback_miss_rate 0
Core_0_L1I_prefetch_requested 0
Core_0_L1I_prefetch_issued 0
Core_0_L1I_prefetch_useful 0
Core_0_L1I_prefetch_useless 0
Core_0_L1I_prefetch_late 0
Core_0_L1I_prefetch_accuracy 0
Core_0_L1I_prefetch_coverage 0

Core_0_L1D_total_access 17956769
Core_0_L1D_total_hit 13364887
Core_0_L1D_total_miss 4591882
Core_0_L1D_total_MPKI 91.8376
Core_0_L1D_total_miss_rate 0.255719
Core_0_L1D_demand_access 12359674
Core_0_L1D_demand_hit 9012539
Core_0_L1D_demand_miss 3347135
Core_0_L1D_demand_MPKI 66.9427
Core_0_L1D_demand_miss_rate 0.270811
Core_0_L1D_load_access 12359674
Core_0_L1D_load_hit 9012539
Core_0_L1D_load_miss 3347135
Core_0_L1D_load_MPKI 66.9427
Core_0_L1D_load_miss_rate 0.270811
Core_0_L1D_rfo_access 0
Core_0_L1D_rfo_hit 0
Core_0_L1D_rfo_miss 0
Core_0_L1D_rfo_MPKI 0
Core_0_L1D_rfo_miss_rate 0
Core_0_L1D_prefetch_access 1713991
Core_0_L1D_prefetch_hit 835459
Core_0_L1D_prefetch_miss 878532
Core_0_L1D_prefetch_MPKI 17.5706
Core_0_L1D_prefetch_miss_rate 0.512565
Core_0_L1D_writeback_access 3883104
Core_0_L1D_writeback_hit 3516889
Core_0_L1D_writeback_miss 366215
Core_0_L1D_writeback_MPKI 7.3243
Core_0_L1D_writeback_miss_rate 0.0943099
Core_0_L1D_prefetch_requested 2335297
Core_0_L1D_prefetch_issued 1713983
Core_0_L1D_prefetch_useful 272275
Core_0_L1D_prefetch_useless 522097
Core_0_L1D_prefetch_late 53872
Core_0_L1D_prefetch_accuracy 0.158855
Core_0_L1D_prefetch_coverage 0.0752263

Core_0_L2C_total_access 10042494
Core_0_L2C_total_hit 9642713
Core_0_L2C_total_miss 399781
Core_0_L2C_total_MPKI 7.99562
Core_0_L2C_total_miss_rate 0.0398089
Core_0_L2C_demand_access 5026442
Core_0_L2C_demand_hit 4981475
Core_0_L2C_demand_miss 44967
Core_0_L2C_demand_MPKI 0.89934
Core_0_L2C_demand_miss_rate 0.00894609
Core_0_L2C_load_access 4705512
Core_0_L2C_load_hit 4692338
Core_0_L2C_load_miss 13174
Core_0_L2C_load_MPKI 0.26348
Core_0_L2C_load_miss_rate 0.0027997
Core_0_L2C_rfo_access 320930
Core_0_L2C_rfo_hit 289137
Core_0_L2C_rfo_miss 31793
Core_0_L2C_rfo_MPKI 0.63586
Core_0_L2C_rfo_miss_rate 0.0990652
Core_0_L2C_prefetch_access 4654840
Core_0_L2C_prefetch_hit 4300186
Core_0_L2C_prefetch_miss 354654
Core_0_L2C_prefetch_MPKI 7.09308
Core_0_L2C_prefetch_miss_rate 0.0761904
Core_0_L2C_writeback_access 361212
Core_0_L2C_writeback_hit 361052
Core_0_L2C_writeback_miss 160
Core_0_L2C_writeback_MPKI 0.0032
Core_0_L2C_writeback_miss_rate 0.000442953
Core_0_L2C_prefetch_requested 4647555
Core_0_L2C_prefetch_issued 3860352
Core_0_L2C_prefetch_useful 285981
Core_0_L2C_prefetch_useless 27860
Core_0_L2C_prefetch_late 73
Core_0_L2C_prefetch_accuracy 0.0740816
Core_0_L2C_prefetch_coverage 0.864127

Core_0_LLC_total_access 426905
Core_0_LLC_total_hit 255885
Core_0_LLC_total_miss 171020
Core_0_LLC_total_MPKI 3.4204
Core_0_LLC_total_miss_rate 0.400604
Core_0_LLC_demand_access 44805
Core_0_LLC_demand_hit 11705
Core_0_LLC_demand_miss 33100
Core_0_LLC_demand_MPKI 0.662
Core_0_LLC_demand_miss_rate 0.738757
Core_0_LLC_load_access 13101
Core_0_LLC_load_hit 9318
Core_0_LLC_load_miss 3783
Core_0_LLC_load_MPKI 0.07566
Core_0_LLC_load_miss_rate 0.288757
Core_0_LLC_rfo_access 31704
Core_0_LLC_rfo_hit 2387
Core_0_LLC_rfo_miss 29317
Core_0_LLC_rfo_MPKI 0.58634
Core_0_LLC_rfo_miss_rate 0.92471
Core_0_LLC_prefetch_access 350103
Core_0_LLC_prefetch_hit 215853
Core_0_LLC_prefetch_miss 134250
Core_0_LLC_prefetch_MPKI 2.685
Core_0_LLC_prefetch_miss_rate 0.383459
Core_0_LLC_writeback_access 31997
Core_0_LLC_writeback_hit 28327
Core_0_LLC_writeback_miss 3670
Core_0_LLC_writeback_MPKI 0.0734
Core_0_LLC_writeback_miss_rate 0.114698
Core_0_LLC_prefetch_requested 0
Core_0_LLC_prefetch_issued 0
Core_0_LLC_prefetch_useful 0
Core_0_LLC_prefetch_useless 0
Core_0_LLC_prefetch_late 0
Core_0_LLC_prefetch_accuracy 0
Core_0_LLC_prefetch_coverage 0

[DRAM Statistics]
Channel_0_RQ_row_buffer_hit 151
Channel_0_RQ_row_buffer_miss 167730
Channel_0_WQ_row_buffer_hit 3608
Channel_0_WQ_row_buffer_miss 25244
Channel_0_WQ_full 0
Channel_0_dbus_congested 279771
DRAM_total_RQ_row_buffer_hit 151
DRAM_total_RQ_row_buffer_miss 167730
DRAM_total_WQ_row_buffer_hit 3608
DRAM_total_WQ_row_buffer_miss 25244
DRAM_total_WQ_full 0
DRAM_total_dbus_congested 279771
DRAM_avg_congested_cycle 8.08002

======STLB miss causes ========
Core_0_STLB_miss_cause_breakdown
Core_0_STLB_cause_Demand_Data_miss 1075
Core_0_STLB_cause_Demand_Data_miss_rate 0.00054063
Core_0_STLB_cause_Demand_Instruction_miss 0
Core_0_STLB_cause_Demand_Instruction_miss_rate 0
Core_0_STLB_cause_L1D_Prefetch_miss 1111
Core_0_STLB_cause_L1D_Prefetch_miss_rate 0.000558735
Core_0_STLB_cause_L1I_Prefetch_miss 0
Core_0_STLB_cause_L1I_Prefetch_miss_rate 0
Core_0_STLB_cause_Other_miss 0
Core_0_STLB_cause_Other_miss_rate 0
Core_0_STLB_Demand_miss 1075
Core_0_STLB_Demand_miss_rate 0.00054063
Core_0_STLB_L1D_Prefetch_miss 1111
Core_0_STLB_L1D_Prefetch_miss_rate 0.000558735
Core_0_STLB_Other_miss 0
Core_0_STLB_Other_miss_rate 0
