[VMEM] WARNING: physical memory size is smaller than virtual memory size.

*** ChampSim Multicore Out-of-Order Simulator ***
Warmup Instructions: 20000000
Simulation Instructions: 50000000
Number of CPUs: 1
Page size: 4096
Core 0: /data0/tzh/champsim_traces/SPEC17/619.lbm_s-3766B.champsimtrace.xz
 L1D Berti prefetcher
Off-chip DRAM Size: 16 GiB Channels: 1 Width: 64-bit Data Rate: 3205 MT/s
Warmup halting CPU 0 at instruction 20000005 cycle 4273947 for remainder of phase
Warmup finished CPU 0 instructions: 20000005 cycles: 4273947 cumulative IPC: 4.68 (Simulation time: 00 hr 00 min 52 sec)
Warmup complete CPU 0 instructions: 20000005 cycles: 4273947 cumulative IPC: 4.68 (Simulation time: 00 hr 00 min 52 sec)
Simulation finished CPU 0 instructions: 50000001 cycles: 43523193 cumulative IPC: 1.149 (Simulation time: 00 hr 09 min 10 sec)
Simulation complete CPU 0 instructions: 50000001 cycles: 43523193 cumulative IPC: 1.149 (Simulation time: 00 hr 09 min 10 sec)

ChampSim completed all CPUs

=== Simulation ===
CPU 0 runs /data0/tzh/champsim_traces/SPEC17/619.lbm_s-3766B.champsimtrace.xz

Region of Interest Statistics

CPU 0 cumulative IPC: 1.149 instructions: 50000001 cycles: 43523193
CPU 0 Branch Prediction Accuracy: 99.9% MPKI: 0.0112 Average ROB Occupancy at Mispredict: 340.5
Branch type MPKI
BRANCH_DIRECT_JUMP: 0
BRANCH_INDIRECT: 0
BRANCH_CONDITIONAL: 0.0112
BRANCH_DIRECT_CALL: 0
BRANCH_INDIRECT_CALL: 0
BRANCH_RETURN: 0

cpu0->cpu0_STLB TOTAL        ACCESS:      31105 HIT:      14226 MISS:      16879 MSHR_MERGE:          0
cpu0->cpu0_STLB LOAD         ACCESS:      31105 HIT:      14226 MISS:      16879 MSHR_MERGE:          0
cpu0->cpu0_STLB RFO          ACCESS:          0 HIT:          0 MISS:          0 MSHR_MERGE:          0
cpu0->cpu0_STLB PREFETCH     ACCESS:          0 HIT:          0 MISS:          0 MSHR_MERGE:          0
cpu0->cpu0_STLB WRITE        ACCESS:          0 HIT:          0 MISS:          0 MSHR_MERGE:          0
cpu0->cpu0_STLB TRANSLATION  ACCESS:          0 HIT:          0 MISS:          0 MSHR_MERGE:          0
cpu0->cpu0_STLB PREFETCH REQUESTED:          0 ISSUED:          0 USEFUL:          0 USELESS:          0 LATE:          0
cpu0->cpu0_STLB AVERAGE MISS LATENCY: 319.1 cycles
cpu0->cpu0_L2C TOTAL        ACCESS:    4401809 HIT:    2742150 MISS:    1659659 MSHR_MERGE:     554536
cpu0->cpu0_L2C LOAD         ACCESS:      25508 HIT:      11464 MISS:      14044 MSHR_MERGE:       2115
cpu0->cpu0_L2C RFO          ACCESS:    1525237 HIT:     692234 MISS:     833003 MSHR_MERGE:          0
cpu0->cpu0_L2C PREFETCH     ACCESS:    1323332 HIT:     512856 MISS:     810476 MSHR_MERGE:     552421
cpu0->cpu0_L2C WRITE        ACCESS:    1525600 HIT:    1525596 MISS:          4 MSHR_MERGE:          0
cpu0->cpu0_L2C TRANSLATION  ACCESS:       2132 HIT:          0 MISS:       2132 MSHR_MERGE:          0
cpu0->cpu0_L2C PREFETCH REQUESTED:    1081094 ISSUED:    1078839 USEFUL:     186603 USELESS:      48969 LATE:       2115
cpu0->cpu0_L2C AVERAGE MISS LATENCY: 660.4 cycles
cpu0->cpu0_L1I TOTAL        ACCESS:    8615461 HIT:    8615461 MISS:          0 MSHR_MERGE:          0
cpu0->cpu0_L1I LOAD         ACCESS:    8615461 HIT:    8615461 MISS:          0 MSHR_MERGE:          0
cpu0->cpu0_L1I RFO          ACCESS:          0 HIT:          0 MISS:          0 MSHR_MERGE:          0
cpu0->cpu0_L1I PREFETCH     ACCESS:          0 HIT:          0 MISS:          0 MSHR_MERGE:          0
cpu0->cpu0_L1I WRITE        ACCESS:          0 HIT:          0 MISS:          0 MSHR_MERGE:          0
cpu0->cpu0_L1I TRANSLATION  ACCESS:          0 HIT:          0 MISS:          0 MSHR_MERGE:          0
cpu0->cpu0_L1I PREFETCH REQUESTED:          0 ISSUED:          0 USEFUL:          0 USELESS:          0 LATE:          0
cpu0->cpu0_L1I AVERAGE MISS LATENCY: - cycles
cpu0->cpu0_L1D TOTAL        ACCESS:    9847517 HIT:    7928049 MISS:    1919468 MSHR_MERGE:     121740
cpu0->cpu0_L1D LOAD         ACCESS:    2183785 HIT:    2128466 MISS:      55319 MSHR_MERGE:      29810
cpu0->cpu0_L1D RFO          ACCESS:          0 HIT:          0 MISS:          0 MSHR_MERGE:          0
cpu0->cpu0_L1D PREFETCH     ACCESS:     254182 HIT:       5995 MISS:     248187 MSHR_MERGE:       3705
cpu0->cpu0_L1D WRITE        ACCESS:    7375776 HIT:    5761946 MISS:    1613830 MSHR_MERGE:      88225
cpu0->cpu0_L1D TRANSLATION  ACCESS:      33774 HIT:      31642 MISS:       2132 MSHR_MERGE:          0
cpu0->cpu0_L1D PREFETCH REQUESTED:     256221 ISSUED:     254183 USEFUL:     244459 USELESS:         24 LATE:      16816
cpu0->cpu0_L1D AVERAGE MISS LATENCY: 371.5 cycles
cpu0->cpu0_ITLB TOTAL        ACCESS:    6196992 HIT:    6196992 MISS:          0 MSHR_MERGE:          0
cpu0->cpu0_ITLB LOAD         ACCESS:    6196992 HIT:    6196992 MISS:          0 MSHR_MERGE:          0
cpu0->cpu0_ITLB RFO          ACCESS:          0 HIT:          0 MISS:          0 MSHR_MERGE:          0
cpu0->cpu0_ITLB PREFETCH     ACCESS:          0 HIT:          0 MISS:          0 MSHR_MERGE:          0
cpu0->cpu0_ITLB WRITE        ACCESS:          0 HIT:          0 MISS:          0 MSHR_MERGE:          0
cpu0->cpu0_ITLB TRANSLATION  ACCESS:          0 HIT:          0 MISS:          0 MSHR_MERGE:          0
cpu0->cpu0_ITLB PREFETCH REQUESTED:          0 ISSUED:          0 USEFUL:          0 USELESS:          0 LATE:          0
cpu0->cpu0_ITLB AVERAGE MISS LATENCY: - cycles
cpu0->cpu0_DTLB TOTAL        ACCESS:    9050764 HIT:    9003409 MISS:      47355 MSHR_MERGE:      16250
cpu0->cpu0_DTLB LOAD         ACCESS:    9050764 HIT:    9003409 MISS:      47355 MSHR_MERGE:      16250
cpu0->cpu0_DTLB RFO          ACCESS:          0 HIT:          0 MISS:          0 MSHR_MERGE:          0
cpu0->cpu0_DTLB PREFETCH     ACCESS:          0 HIT:          0 MISS:          0 MSHR_MERGE:          0
cpu0->cpu0_DTLB WRITE        ACCESS:          0 HIT:          0 MISS:          0 MSHR_MERGE:          0
cpu0->cpu0_DTLB TRANSLATION  ACCESS:          0 HIT:          0 MISS:          0 MSHR_MERGE:          0
cpu0->cpu0_DTLB PREFETCH REQUESTED:          0 ISSUED:          0 USEFUL:          0 USELESS:          0 LATE:          0
cpu0->cpu0_DTLB AVERAGE MISS LATENCY: 178.8 cycles
cpu0->LLC TOTAL        ACCESS:    1937946 HIT:     755935 MISS:    1182011 MSHR_MERGE:          0
cpu0->LLC LOAD         ACCESS:      11929 HIT:          0 MISS:      11929 MSHR_MERGE:          0
cpu0->LLC RFO          ACCESS:     833003 HIT:      23127 MISS:     809876 MSHR_MERGE:          0
cpu0->LLC PREFETCH     ACCESS:     258055 HIT:          0 MISS:     258055 MSHR_MERGE:          0
cpu0->LLC WRITE        ACCESS:     832827 HIT:     732808 MISS:     100019 MSHR_MERGE:          0
cpu0->LLC TRANSLATION  ACCESS:       2132 HIT:          0 MISS:       2132 MSHR_MERGE:          0
cpu0->LLC PREFETCH REQUESTED:          0 ISSUED:          0 USEFUL:          0 USELESS:          0 LATE:          0
cpu0->LLC AVERAGE MISS LATENCY: 592.3 cycles

DRAM Statistics

Channel 0 RQ ROW_BUFFER_HIT:      87968
  ROW_BUFFER_MISS:     994022
  AVG DBUS CONGESTED CYCLE: 7.702
Channel 0 WQ ROW_BUFFER_HIT:     101286
  ROW_BUFFER_MISS:     708586
  FULL:          0
Channel 0 REFRESHES ISSUED:       3627

[ROI Statistics]
[System Configuration]
num_cpus 1
cpu_freq 4000
fetch_width 6
decode_width 6
dispatch_width 6
execute_width 6
lq_width 2
sq_width 2
retire_width 6
scheduler_size 128
branch_mispredict_penalty 15
rob_size 352
lq_size 128
sq_size 72
ifetch_buffer_size 64
decode_buffer_size 32
dispatch_buffer_size 32
register_file_size 288
decode_latency 1
dispatch_latency 1
schedule_latency 1
execute_latency 1
page_size 4096
block_size 64
core_0_itlb_set 16
core_0_itlb_way 4
core_0_itlb_rq_size 16
core_0_itlb_wq_size 16
core_0_itlb_pq_size 0
core_0_itlb_mshr_size 8
core_0_itlb_hit_latency 1
core_0_itlb_fill_latency 1
core_0_itlb_max_tag_check 2
core_0_itlb_max_fill 2
core_0_dtlb_set 16
core_0_dtlb_way 4
core_0_dtlb_rq_size 16
core_0_dtlb_wq_size 16
core_0_dtlb_pq_size 0
core_0_dtlb_mshr_size 8
core_0_dtlb_hit_latency 1
core_0_dtlb_fill_latency 1
core_0_dtlb_max_tag_check 2
core_0_dtlb_max_fill 2
core_0_stlb_set 128
core_0_stlb_way 12
core_0_stlb_rq_size 32
core_0_stlb_wq_size 32
core_0_stlb_pq_size 0
core_0_stlb_mshr_size 16
core_0_stlb_hit_latency 4
core_0_stlb_fill_latency 4
core_0_stlb_max_tag_check 1
core_0_stlb_max_fill 1
core_0_l1i_set 64
core_0_l1i_way 8
core_0_l1i_rq_size 64
core_0_l1i_wq_size 64
core_0_l1i_pq_size 32
core_0_l1i_mshr_size 8
core_0_l1i_hit_latency 2
core_0_l1i_fill_latency 2
core_0_l1i_max_tag_check 2
core_0_l1i_max_fill 2
core_0_l1d_set 64
core_0_l1d_way 12
core_0_l1d_rq_size 64
core_0_l1d_wq_size 64
core_0_l1d_pq_size 8
core_0_l1d_mshr_size 16
core_0_l1d_hit_latency 2
core_0_l1d_fill_latency 3
core_0_l1d_max_tag_check 2
core_0_l1d_max_fill 2
core_0_l2c_set 1024
core_0_l2c_way 8
core_0_l2c_rq_size 32
core_0_l2c_wq_size 32
core_0_l2c_pq_size 16
core_0_l2c_mshr_size 32
core_0_l2c_hit_latency 5
core_0_l2c_fill_latency 5
core_0_l2c_max_tag_check 1
core_0_l2c_max_fill 1
llc_set 2048
llc_way 16
llc_rq_size 32
llc_wq_size 32
llc_pq_size 32
llc_mshr_size 64
llc_hit_latency 10
llc_fill_latency 10
llc_max_tag_check 1
llc_max_fill 1
dram_channels 1
dram_ranks 1
dram_bankgroups 8
dram_banks 4
dram_rows 65536
dram_columns 1024
dram_channel_width 8
dram_rq_size 64
dram_wq_size 64
dram_size 17179869184
core_0_itlb_prefetcher no
core_0_dtlb_prefetcher no
core_0_stlb_prefetcher no
core_0_l1i_prefetcher next_line
core_0_l1d_prefetcher berti
core_0_l2c_prefetcher pythia
llc_prefetcher no
llc_replacement drrip

Core_0_instructions 50000001
Core_0_cycles 43523193
Core_0_IPC 1.14881
Core_0_branch_prediction_accuracy 99.8954
Core_0_branch_MPKI 0.0112
Core_0_average_ROB_occupancy_at_mispredict 340.505

Core_0_ITLB_total_access 6196992
Core_0_ITLB_total_hit 6196992
Core_0_ITLB_total_miss 0
Core_0_ITLB_total_MPKI 0
Core_0_ITLB_total_miss_rate 0
Core_0_ITLB_demand_access 6196992
Core_0_ITLB_demand_hit 6196992
Core_0_ITLB_demand_miss 0
Core_0_ITLB_demand_MPKI 0
Core_0_ITLB_demand_miss_rate 0
Core_0_ITLB_load_access 6196992
Core_0_ITLB_load_hit 6196992
Core_0_ITLB_load_miss 0
Core_0_ITLB_load_MPKI 0
Core_0_ITLB_load_miss_rate 0
Core_0_ITLB_rfo_access 0
Core_0_ITLB_rfo_hit 0
Core_0_ITLB_rfo_miss 0
Core_0_ITLB_rfo_MPKI 0
Core_0_ITLB_rfo_miss_rate 0
Core_0_ITLB_prefetch_access 0
Core_0_ITLB_prefetch_hit 0
Core_0_ITLB_prefetch_miss 0
Core_0_ITLB_prefetch_MPKI 0
Core_0_ITLB_prefetch_miss_rate 0
Core_0_ITLB_writeback_access 0
Core_0_ITLB_writeback_hit 0
Core_0_ITLB_writeback_miss 0
Core_0_ITLB_writeback_MPKI 0
Core_0_ITLB_writeback_miss_rate 0
Core_0_ITLB_prefetch_requested 0
Core_0_ITLB_prefetch_issued 0
Core_0_ITLB_prefetch_useful 0
Core_0_ITLB_prefetch_useless 0
Core_0_ITLB_prefetch_late 0
Core_0_ITLB_prefetch_accuracy 0
Core_0_ITLB_prefetch_coverage 0

Core_0_DTLB_total_access 9050764
Core_0_DTLB_total_hit 9003409
Core_0_DTLB_total_miss 47355
Core_0_DTLB_total_MPKI 0.9471
Core_0_DTLB_total_miss_rate 0.00523215
Core_0_DTLB_demand_access 9050764
Core_0_DTLB_demand_hit 9003409
Core_0_DTLB_demand_miss 47355
Core_0_DTLB_demand_MPKI 0.9471
Core_0_DTLB_demand_miss_rate 0.00523215
Core_0_DTLB_load_access 9050764
Core_0_DTLB_load_hit 9003409
Core_0_DTLB_load_miss 47355
Core_0_DTLB_load_MPKI 0.9471
Core_0_DTLB_load_miss_rate 0.00523215
Core_0_DTLB_rfo_access 0
Core_0_DTLB_rfo_hit 0
Core_0_DTLB_rfo_miss 0
Core_0_DTLB_rfo_MPKI 0
Core_0_DTLB_rfo_miss_rate 0
Core_0_DTLB_prefetch_access 0
Core_0_DTLB_prefetch_hit 0
Core_0_DTLB_prefetch_miss 0
Core_0_DTLB_prefetch_MPKI 0
Core_0_DTLB_prefetch_miss_rate 0
Core_0_DTLB_writeback_access 0
Core_0_DTLB_writeback_hit 0
Core_0_DTLB_writeback_miss 0
Core_0_DTLB_writeback_MPKI 0
Core_0_DTLB_writeback_miss_rate 0
Core_0_DTLB_prefetch_requested 0
Core_0_DTLB_prefetch_issued 0
Core_0_DTLB_prefetch_useful 0
Core_0_DTLB_prefetch_useless 0
Core_0_DTLB_prefetch_late 0
Core_0_DTLB_prefetch_accuracy 0
Core_0_DTLB_prefetch_coverage 0

Core_0_STLB_total_access 31105
Core_0_STLB_total_hit 14226
Core_0_STLB_total_miss 16879
Core_0_STLB_total_MPKI 0.33758
Core_0_STLB_total_miss_rate 0.542646
Core_0_STLB_demand_access 31105
Core_0_STLB_demand_hit 14226
Core_0_STLB_demand_miss 16879
Core_0_STLB_demand_MPKI 0.33758
Core_0_STLB_demand_miss_rate 0.542646
Core_0_STLB_load_access 31105
Core_0_STLB_load_hit 14226
Core_0_STLB_load_miss 16879
Core_0_STLB_load_MPKI 0.33758
Core_0_STLB_load_miss_rate 0.542646
Core_0_STLB_rfo_access 0
Core_0_STLB_rfo_hit 0
Core_0_STLB_rfo_miss 0
Core_0_STLB_rfo_MPKI 0
Core_0_STLB_rfo_miss_rate 0
Core_0_STLB_prefetch_access 0
Core_0_STLB_prefetch_hit 0
Core_0_STLB_prefetch_miss 0
Core_0_STLB_prefetch_MPKI 0
Core_0_STLB_prefetch_miss_rate 0
Core_0_STLB_writeback_access 0
Core_0_STLB_writeback_hit 0
Core_0_STLB_writeback_miss 0
Core_0_STLB_writeback_MPKI 0
Core_0_STLB_writeback_miss_rate 0
Core_0_STLB_prefetch_requested 0
Core_0_STLB_prefetch_issued 0
Core_0_STLB_prefetch_useful 0
Core_0_STLB_prefetch_useless 0
Core_0_STLB_prefetch_late 0
Core_0_STLB_prefetch_accuracy 0
Core_0_STLB_prefetch_coverage 0

Core_0_L1I_total_access 8615461
Core_0_L1I_total_hit 8615461
Core_0_L1I_total_miss 0
Core_0_L1I_total_MPKI 0
Core_0_L1I_total_miss_rate 0
Core_0_L1I_demand_access 8615461
Core_0_L1I_demand_hit 8615461
Core_0_L1I_demand_miss 0
Core_0_L1I_demand_MPKI 0
Core_0_L1I_demand_miss_rate 0
Core_0_L1I_load_access 8615461
Core_0_L1I_load_hit 8615461
Core_0_L1I_load_miss 0
Core_0_L1I_load_MPKI 0
Core_0_L1I_load_miss_rate 0
Core_0_L1I_rfo_access 0
Core_0_L1I_rfo_hit 0
Core_0_L1I_rfo_miss 0
Core_0_L1I_rfo_MPKI 0
Core_0_L1I_rfo_miss_rate 0
Core_0_L1I_prefetch_access 0
Core_0_L1I_prefetch_hit 0
Core_0_L1I_prefetch_miss 0
Core_0_L1I_prefetch_MPKI 0
Core_0_L1I_prefetch_miss_rate 0
Core_0_L1I_writeback_access 0
Core_0_L1I_writeback_hit 0
Core_0_L1I_writeback_miss 0
Core_0_L1I_writeback_MPKI 0
Core_0_L1I_writeback_miss_rate 0
Core_0_L1I_prefetch_requested 0
Core_0_L1I_prefetch_issued 0
Core_0_L1I_prefetch_useful 0
Core_0_L1I_prefetch_useless 0
Core_0_L1I_prefetch_late 0
Core_0_L1I_prefetch_accuracy 0
Core_0_L1I_prefetch_coverage 0

Core_0_L1D_total_access 9813743
Core_0_L1D_total_hit 7896407
Core_0_L1D_total_miss 1917336
Core_0_L1D_total_MPKI 38.3467
Core_0_L1D_total_miss_rate 0.195373
Core_0_L1D_demand_access 2183785
Core_0_L1D_demand_hit 2128466
Core_0_L1D_demand_miss 55319
Core_0_L1D_demand_MPKI 1.10638
Core_0_L1D_demand_miss_rate 0.0253317
Core_0_L1D_load_access 2183785
Core_0_L1D_load_hit 2128466
Core_0_L1D_load_miss 55319
Core_0_L1D_load_MPKI 1.10638
Core_0_L1D_load_miss_rate 0.0253317
Core_0_L1D_rfo_access 0
Core_0_L1D_rfo_hit 0
Core_0_L1D_rfo_miss 0
Core_0_L1D_rfo_MPKI 0
Core_0_L1D_rfo_miss_rate 0
Core_0_L1D_prefetch_access 254182
Core_0_L1D_prefetch_hit 5995
Core_0_L1D_prefetch_miss 248187
Core_0_L1D_prefetch_MPKI 4.96374
Core_0_L1D_prefetch_miss_rate 0.976415
Core_0_L1D_writeback_access 7375776
Core_0_L1D_writeback_hit 5761946
Core_0_L1D_writeback_miss 1613830
Core_0_L1D_writeback_MPKI 32.2766
Core_0_L1D_writeback_miss_rate 0.218801
Core_0_L1D_prefetch_requested 256221
Core_0_L1D_prefetch_issued 254183
Core_0_L1D_prefetch_useful 244459
Core_0_L1D_prefetch_useless 24
Core_0_L1D_prefetch_late 16816
Core_0_L1D_prefetch_accuracy 0.961744
Core_0_L1D_prefetch_coverage 0.815467

Core_0_L2C_total_access 4399677
Core_0_L2C_total_hit 2742150
Core_0_L2C_total_miss 1657527
Core_0_L2C_total_MPKI 33.1505
Core_0_L2C_total_miss_rate 0.376738
Core_0_L2C_demand_access 1550745
Core_0_L2C_demand_hit 703698
Core_0_L2C_demand_miss 847047
Core_0_L2C_demand_MPKI 16.9409
Core_0_L2C_demand_miss_rate 0.546219
Core_0_L2C_load_access 25508
Core_0_L2C_load_hit 11464
Core_0_L2C_load_miss 14044
Core_0_L2C_load_MPKI 0.28088
Core_0_L2C_load_miss_rate 0.550572
Core_0_L2C_rfo_access 1525237
Core_0_L2C_rfo_hit 692234
Core_0_L2C_rfo_miss 833003
Core_0_L2C_rfo_MPKI 16.6601
Core_0_L2C_rfo_miss_rate 0.546147
Core_0_L2C_prefetch_access 1323332
Core_0_L2C_prefetch_hit 512856
Core_0_L2C_prefetch_miss 810476
Core_0_L2C_prefetch_MPKI 16.2095
Core_0_L2C_prefetch_miss_rate 0.612451
Core_0_L2C_writeback_access 1525600
Core_0_L2C_writeback_hit 1525596
Core_0_L2C_writeback_miss 4
Core_0_L2C_writeback_MPKI 8e-05
Core_0_L2C_writeback_miss_rate 2.62192e-06
Core_0_L2C_prefetch_requested 1081094
Core_0_L2C_prefetch_issued 1078839
Core_0_L2C_prefetch_useful 186603
Core_0_L2C_prefetch_useless 48969
Core_0_L2C_prefetch_late 2115
Core_0_L2C_prefetch_accuracy 0.172966
Core_0_L2C_prefetch_coverage 0.180528

Core_0_LLC_total_access 1935814
Core_0_LLC_total_hit 755935
Core_0_LLC_total_miss 1179879
Core_0_LLC_total_MPKI 23.5976
Core_0_LLC_total_miss_rate 0.6095
Core_0_LLC_demand_access 844932
Core_0_LLC_demand_hit 23127
Core_0_LLC_demand_miss 821805
Core_0_LLC_demand_MPKI 16.4361
Core_0_LLC_demand_miss_rate 0.972629
Core_0_LLC_load_access 11929
Core_0_LLC_load_hit 0
Core_0_LLC_load_miss 11929
Core_0_LLC_load_MPKI 0.23858
Core_0_LLC_load_miss_rate 1
Core_0_LLC_rfo_access 833003
Core_0_LLC_rfo_hit 23127
Core_0_LLC_rfo_miss 809876
Core_0_LLC_rfo_MPKI 16.1975
Core_0_LLC_rfo_miss_rate 0.972237
Core_0_LLC_prefetch_access 258055
Core_0_LLC_prefetch_hit 0
Core_0_LLC_prefetch_miss 258055
Core_0_LLC_prefetch_MPKI 5.1611
Core_0_LLC_prefetch_miss_rate 1
Core_0_LLC_writeback_access 832827
Core_0_LLC_writeback_hit 732808
Core_0_LLC_writeback_miss 100019
Core_0_LLC_writeback_MPKI 2.00038
Core_0_LLC_writeback_miss_rate 0.120096
Core_0_LLC_prefetch_requested 0
Core_0_LLC_prefetch_issued 0
Core_0_LLC_prefetch_useful 0
Core_0_LLC_prefetch_useless 0
Core_0_LLC_prefetch_late 0
Core_0_LLC_prefetch_accuracy 0
Core_0_LLC_prefetch_coverage 0

[DRAM Statistics]
Channel_0_RQ_row_buffer_hit 87968
Channel_0_RQ_row_buffer_miss 994022
Channel_0_WQ_row_buffer_hit 101286
Channel_0_WQ_row_buffer_miss 708586
Channel_0_WQ_full 0
Channel_0_dbus_congested 7557934
DRAM_total_RQ_row_buffer_hit 87968
DRAM_total_RQ_row_buffer_miss 994022
DRAM_total_WQ_row_buffer_hit 101286
DRAM_total_WQ_row_buffer_miss 708586
DRAM_total_WQ_full 0
DRAM_total_dbus_congested 7557934
DRAM_avg_congested_cycle 7.70202

======STLB miss causes ========
Core_0_STLB_miss_cause_breakdown
Core_0_STLB_cause_Demand_Data_miss 16879
Core_0_STLB_cause_Demand_Data_miss_rate 0.542646
Core_0_STLB_cause_Demand_Instruction_miss 0
Core_0_STLB_cause_Demand_Instruction_miss_rate 0
Core_0_STLB_cause_L1D_Prefetch_miss 0
Core_0_STLB_cause_L1D_Prefetch_miss_rate 0
Core_0_STLB_cause_L1I_Prefetch_miss 0
Core_0_STLB_cause_L1I_Prefetch_miss_rate 0
Core_0_STLB_cause_Other_miss 0
Core_0_STLB_cause_Other_miss_rate 0
Core_0_STLB_Demand_miss 16879
Core_0_STLB_Demand_miss_rate 0.542646
Core_0_STLB_L1D_Prefetch_miss 0
Core_0_STLB_L1D_Prefetch_miss_rate 0
Core_0_STLB_Other_miss 0
Core_0_STLB_Other_miss_rate 0
