[VMEM] WARNING: physical memory size is smaller than virtual memory size.

*** ChampSim Multicore Out-of-Order Simulator ***
Warmup Instructions: 20000000
Simulation Instructions: 50000000
Number of CPUs: 1
Page size: 4096
Core 0: /data0/tzh/champsim_traces/SPEC17/621.wrf_s-8065B.champsimtrace.xz
 L1D Berti prefetcher
Off-chip DRAM Size: 16 GiB Channels: 1 Width: 64-bit Data Rate: 3205 MT/s
Warmup halting CPU 0 at instruction 20000003 cycle 4682840 for remainder of phase
Warmup finished CPU 0 instructions: 20000003 cycles: 4682840 cumulative IPC: 4.271 (Simulation time: 00 hr 01 min 01 sec)
Warmup complete CPU 0 instructions: 20000003 cycles: 4682840 cumulative IPC: 4.271 (Simulation time: 00 hr 01 min 01 sec)
Simulation finished CPU 0 instructions: 50000003 cycles: 17507741 cumulative IPC: 2.856 (Simulation time: 00 hr 04 min 45 sec)
Simulation complete CPU 0 instructions: 50000003 cycles: 17507741 cumulative IPC: 2.856 (Simulation time: 00 hr 04 min 45 sec)

ChampSim completed all CPUs

=== Simulation ===
CPU 0 runs /data0/tzh/champsim_traces/SPEC17/621.wrf_s-8065B.champsimtrace.xz

Region of Interest Statistics

CPU 0 cumulative IPC: 2.856 instructions: 50000003 cycles: 17507741
CPU 0 Branch Prediction Accuracy: 99.56% MPKI: 0.1402 Average ROB Occupancy at Mispredict: 185.6
Branch type MPKI
BRANCH_DIRECT_JUMP: 0.00026
BRANCH_INDIRECT: 0
BRANCH_CONDITIONAL: 0.1386
BRANCH_DIRECT_CALL: 0.00064
BRANCH_INDIRECT_CALL: 0
BRANCH_RETURN: 0.00068

cpu0->cpu0_STLB TOTAL        ACCESS:      35044 HIT:      31826 MISS:       3218 MSHR_MERGE:          0
cpu0->cpu0_STLB LOAD         ACCESS:      35044 HIT:      31826 MISS:       3218 MSHR_MERGE:          0
cpu0->cpu0_STLB RFO          ACCESS:          0 HIT:          0 MISS:          0 MSHR_MERGE:          0
cpu0->cpu0_STLB PREFETCH     ACCESS:          0 HIT:          0 MISS:          0 MSHR_MERGE:          0
cpu0->cpu0_STLB WRITE        ACCESS:          0 HIT:          0 MISS:          0 MSHR_MERGE:          0
cpu0->cpu0_STLB TRANSLATION  ACCESS:          0 HIT:          0 MISS:          0 MSHR_MERGE:          0
cpu0->cpu0_STLB PREFETCH REQUESTED:          0 ISSUED:          0 USEFUL:          0 USELESS:          0 LATE:          0
cpu0->cpu0_STLB AVERAGE MISS LATENCY: 180.7 cycles
cpu0->cpu0_L2C TOTAL        ACCESS:    3790254 HIT:    2741711 MISS:    1048543 MSHR_MERGE:     535482
cpu0->cpu0_L2C LOAD         ACCESS:     102558 HIT:      76135 MISS:      26423 MSHR_MERGE:       7200
cpu0->cpu0_L2C RFO          ACCESS:     130477 HIT:      12839 MISS:     117638 MSHR_MERGE:          0
cpu0->cpu0_L2C PREFETCH     ACCESS:    3292891 HIT:    2389675 MISS:     903216 MSHR_MERGE:     528282
cpu0->cpu0_L2C WRITE        ACCESS:     263466 HIT:     262767 MISS:        699 MSHR_MERGE:          0
cpu0->cpu0_L2C TRANSLATION  ACCESS:        862 HIT:        295 MISS:        567 MSHR_MERGE:          0
cpu0->cpu0_L2C PREFETCH REQUESTED:    3083048 ISSUED:    2790925 USEFUL:     314312 USELESS:      37874 LATE:       7200
cpu0->cpu0_L2C AVERAGE MISS LATENCY: 324.5 cycles
cpu0->cpu0_L1I TOTAL        ACCESS:    8306341 HIT:    8303700 MISS:       2641 MSHR_MERGE:       1180
cpu0->cpu0_L1I LOAD         ACCESS:    8306341 HIT:    8303700 MISS:       2641 MSHR_MERGE:       1180
cpu0->cpu0_L1I RFO          ACCESS:          0 HIT:          0 MISS:          0 MSHR_MERGE:          0
cpu0->cpu0_L1I PREFETCH     ACCESS:          0 HIT:          0 MISS:          0 MSHR_MERGE:          0
cpu0->cpu0_L1I WRITE        ACCESS:          0 HIT:          0 MISS:          0 MSHR_MERGE:          0
cpu0->cpu0_L1I TRANSLATION  ACCESS:          0 HIT:          0 MISS:          0 MSHR_MERGE:          0
cpu0->cpu0_L1I PREFETCH REQUESTED:          0 ISSUED:          0 USEFUL:          0 USELESS:          0 LATE:          0
cpu0->cpu0_L1I AVERAGE MISS LATENCY: 323.1 cycles
cpu0->cpu0_L1D TOTAL        ACCESS:   11202222 HIT:    9883622 MISS:    1318600 MSHR_MERGE:     584165
cpu0->cpu0_L1D LOAD         ACCESS:    8576495 HIT:    8377978 MISS:     198517 MSHR_MERGE:      97419
cpu0->cpu0_L1D RFO          ACCESS:          0 HIT:          0 MISS:          0 MSHR_MERGE:          0
cpu0->cpu0_L1D PREFETCH     ACCESS:     575203 HIT:      62368 MISS:     512835 MSHR_MERGE:      10858
cpu0->cpu0_L1D WRITE        ACCESS:    2044090 HIT:    1437727 MISS:     606363 MSHR_MERGE:     475865
cpu0->cpu0_L1D TRANSLATION  ACCESS:       6434 HIT:       5549 MISS:        885 MSHR_MERGE:         23
cpu0->cpu0_L1D PREFETCH REQUESTED:     591581 ISSUED:     575197 USEFUL:     490416 USELESS:      11537 LATE:      24407
cpu0->cpu0_L1D AVERAGE MISS LATENCY: 202.6 cycles
cpu0->cpu0_ITLB TOTAL        ACCESS:    6326280 HIT:    6326163 MISS:        117 MSHR_MERGE:         92
cpu0->cpu0_ITLB LOAD         ACCESS:    6326280 HIT:    6326163 MISS:        117 MSHR_MERGE:         92
cpu0->cpu0_ITLB RFO          ACCESS:          0 HIT:          0 MISS:          0 MSHR_MERGE:          0
cpu0->cpu0_ITLB PREFETCH     ACCESS:          0 HIT:          0 MISS:          0 MSHR_MERGE:          0
cpu0->cpu0_ITLB WRITE        ACCESS:          0 HIT:          0 MISS:          0 MSHR_MERGE:          0
cpu0->cpu0_ITLB TRANSLATION  ACCESS:          0 HIT:          0 MISS:          0 MSHR_MERGE:          0
cpu0->cpu0_ITLB PREFETCH REQUESTED:          0 ISSUED:          0 USEFUL:          0 USELESS:          0 LATE:          0
cpu0->cpu0_ITLB AVERAGE MISS LATENCY: 351.8 cycles
cpu0->cpu0_DTLB TOTAL        ACCESS:   10729015 HIT:   10673530 MISS:      55485 MSHR_MERGE:      20466
cpu0->cpu0_DTLB LOAD         ACCESS:   10729015 HIT:   10673530 MISS:      55485 MSHR_MERGE:      20466
cpu0->cpu0_DTLB RFO          ACCESS:          0 HIT:          0 MISS:          0 MSHR_MERGE:          0
cpu0->cpu0_DTLB PREFETCH     ACCESS:          0 HIT:          0 MISS:          0 MSHR_MERGE:          0
cpu0->cpu0_DTLB WRITE        ACCESS:          0 HIT:          0 MISS:          0 MSHR_MERGE:          0
cpu0->cpu0_DTLB TRANSLATION  ACCESS:          0 HIT:          0 MISS:          0 MSHR_MERGE:          0
cpu0->cpu0_DTLB PREFETCH REQUESTED:          0 ISSUED:          0 USEFUL:          0 USELESS:          0 LATE:          0
cpu0->cpu0_DTLB AVERAGE MISS LATENCY: 21.47 cycles
cpu0->LLC TOTAL        ACCESS:     750640 HIT:     329614 MISS:     421026 MSHR_MERGE:          0
cpu0->LLC LOAD         ACCESS:      19223 HIT:       9147 MISS:      10076 MSHR_MERGE:          0
cpu0->LLC RFO          ACCESS:     117638 HIT:      25965 MISS:      91673 MSHR_MERGE:          0
cpu0->LLC PREFETCH     ACCESS:     374934 HIT:     131282 MISS:     243652 MSHR_MERGE:          0
cpu0->LLC WRITE        ACCESS:     238278 HIT:     163200 MISS:      75078 MSHR_MERGE:          0
cpu0->LLC TRANSLATION  ACCESS:        567 HIT:         20 MISS:        547 MSHR_MERGE:          0
cpu0->LLC PREFETCH REQUESTED:          0 ISSUED:          0 USEFUL:          0 USELESS:          0 LATE:          0
cpu0->LLC AVERAGE MISS LATENCY: 250.7 cycles

DRAM Statistics

Channel 0 RQ ROW_BUFFER_HIT:      23484
  ROW_BUFFER_MISS:     322097
  AVG DBUS CONGESTED CYCLE: 6.822
Channel 0 WQ ROW_BUFFER_HIT:      20993
  ROW_BUFFER_MISS:     140350
  FULL:        895
Channel 0 REFRESHES ISSUED:       1459

[ROI Statistics]
[System Configuration]
num_cpus 1
cpu_freq 4000
fetch_width 6
decode_width 6
dispatch_width 6
execute_width 6
lq_width 2
sq_width 2
retire_width 6
scheduler_size 128
branch_mispredict_penalty 15
rob_size 352
lq_size 128
sq_size 72
ifetch_buffer_size 64
decode_buffer_size 32
dispatch_buffer_size 32
register_file_size 288
decode_latency 1
dispatch_latency 1
schedule_latency 1
execute_latency 1
page_size 4096
block_size 64
core_0_itlb_set 16
core_0_itlb_way 4
core_0_itlb_rq_size 16
core_0_itlb_wq_size 16
core_0_itlb_pq_size 0
core_0_itlb_mshr_size 8
core_0_itlb_hit_latency 1
core_0_itlb_fill_latency 1
core_0_itlb_max_tag_check 2
core_0_itlb_max_fill 2
core_0_dtlb_set 16
core_0_dtlb_way 4
core_0_dtlb_rq_size 16
core_0_dtlb_wq_size 16
core_0_dtlb_pq_size 0
core_0_dtlb_mshr_size 8
core_0_dtlb_hit_latency 1
core_0_dtlb_fill_latency 1
core_0_dtlb_max_tag_check 2
core_0_dtlb_max_fill 2
core_0_stlb_set 128
core_0_stlb_way 12
core_0_stlb_rq_size 32
core_0_stlb_wq_size 32
core_0_stlb_pq_size 0
core_0_stlb_mshr_size 16
core_0_stlb_hit_latency 4
core_0_stlb_fill_latency 4
core_0_stlb_max_tag_check 1
core_0_stlb_max_fill 1
core_0_l1i_set 64
core_0_l1i_way 8
core_0_l1i_rq_size 64
core_0_l1i_wq_size 64
core_0_l1i_pq_size 32
core_0_l1i_mshr_size 8
core_0_l1i_hit_latency 2
core_0_l1i_fill_latency 2
core_0_l1i_max_tag_check 2
core_0_l1i_max_fill 2
core_0_l1d_set 64
core_0_l1d_way 12
core_0_l1d_rq_size 64
core_0_l1d_wq_size 64
core_0_l1d_pq_size 8
core_0_l1d_mshr_size 16
core_0_l1d_hit_latency 2
core_0_l1d_fill_latency 3
core_0_l1d_max_tag_check 2
core_0_l1d_max_fill 2
core_0_l2c_set 1024
core_0_l2c_way 8
core_0_l2c_rq_size 32
core_0_l2c_wq_size 32
core_0_l2c_pq_size 16
core_0_l2c_mshr_size 32
core_0_l2c_hit_latency 5
core_0_l2c_fill_latency 5
core_0_l2c_max_tag_check 1
core_0_l2c_max_fill 1
llc_set 2048
llc_way 16
llc_rq_size 32
llc_wq_size 32
llc_pq_size 32
llc_mshr_size 64
llc_hit_latency 10
llc_fill_latency 10
llc_max_tag_check 1
llc_max_fill 1
dram_channels 1
dram_ranks 1
dram_bankgroups 8
dram_banks 4
dram_rows 65536
dram_columns 1024
dram_channel_width 8
dram_rq_size 64
dram_wq_size 64
dram_size 17179869184
core_0_itlb_prefetcher no
core_0_dtlb_prefetcher no
core_0_stlb_prefetcher no
core_0_l1i_prefetcher next_line
core_0_l1d_prefetcher berti
core_0_l2c_prefetcher pythia
llc_prefetcher no
llc_replacement drrip

Core_0_instructions 50000003
Core_0_cycles 17507741
Core_0_IPC 2.85588
Core_0_branch_prediction_accuracy 99.5641
Core_0_branch_MPKI 0.14022
Core_0_average_ROB_occupancy_at_mispredict 185.594

Core_0_ITLB_total_access 6326280
Core_0_ITLB_total_hit 6326163
Core_0_ITLB_total_miss 117
Core_0_ITLB_total_MPKI 0.00234
Core_0_ITLB_total_miss_rate 1.84943e-05
Core_0_ITLB_demand_access 6326280
Core_0_ITLB_demand_hit 6326163
Core_0_ITLB_demand_miss 117
Core_0_ITLB_demand_MPKI 0.00234
Core_0_ITLB_demand_miss_rate 1.84943e-05
Core_0_ITLB_load_access 6326280
Core_0_ITLB_load_hit 6326163
Core_0_ITLB_load_miss 117
Core_0_ITLB_load_MPKI 0.00234
Core_0_ITLB_load_miss_rate 1.84943e-05
Core_0_ITLB_rfo_access 0
Core_0_ITLB_rfo_hit 0
Core_0_ITLB_rfo_miss 0
Core_0_ITLB_rfo_MPKI 0
Core_0_ITLB_rfo_miss_rate 0
Core_0_ITLB_prefetch_access 0
Core_0_ITLB_prefetch_hit 0
Core_0_ITLB_prefetch_miss 0
Core_0_ITLB_prefetch_MPKI 0
Core_0_ITLB_prefetch_miss_rate 0
Core_0_ITLB_writeback_access 0
Core_0_ITLB_writeback_hit 0
Core_0_ITLB_writeback_miss 0
Core_0_ITLB_writeback_MPKI 0
Core_0_ITLB_writeback_miss_rate 0
Core_0_ITLB_prefetch_requested 0
Core_0_ITLB_prefetch_issued 0
Core_0_ITLB_prefetch_useful 0
Core_0_ITLB_prefetch_useless 0
Core_0_ITLB_prefetch_late 0
Core_0_ITLB_prefetch_accuracy 0
Core_0_ITLB_prefetch_coverage 0

Core_0_DTLB_total_access 10729015
Core_0_DTLB_total_hit 10673530
Core_0_DTLB_total_miss 55485
Core_0_DTLB_total_MPKI 1.1097
Core_0_DTLB_total_miss_rate 0.00517149
Core_0_DTLB_demand_access 10729015
Core_0_DTLB_demand_hit 10673530
Core_0_DTLB_demand_miss 55485
Core_0_DTLB_demand_MPKI 1.1097
Core_0_DTLB_demand_miss_rate 0.00517149
Core_0_DTLB_load_access 10729015
Core_0_DTLB_load_hit 10673530
Core_0_DTLB_load_miss 55485
Core_0_DTLB_load_MPKI 1.1097
Core_0_DTLB_load_miss_rate 0.00517149
Core_0_DTLB_rfo_access 0
Core_0_DTLB_rfo_hit 0
Core_0_DTLB_rfo_miss 0
Core_0_DTLB_rfo_MPKI 0
Core_0_DTLB_rfo_miss_rate 0
Core_0_DTLB_prefetch_access 0
Core_0_DTLB_prefetch_hit 0
Core_0_DTLB_prefetch_miss 0
Core_0_DTLB_prefetch_MPKI 0
Core_0_DTLB_prefetch_miss_rate 0
Core_0_DTLB_writeback_access 0
Core_0_DTLB_writeback_hit 0
Core_0_DTLB_writeback_miss 0
Core_0_DTLB_writeback_MPKI 0
Core_0_DTLB_writeback_miss_rate 0
Core_0_DTLB_prefetch_requested 0
Core_0_DTLB_prefetch_issued 0
Core_0_DTLB_prefetch_useful 0
Core_0_DTLB_prefetch_useless 0
Core_0_DTLB_prefetch_late 0
Core_0_DTLB_prefetch_accuracy 0
Core_0_DTLB_prefetch_coverage 0

Core_0_STLB_total_access 35044
Core_0_STLB_total_hit 31826
Core_0_STLB_total_miss 3218
Core_0_STLB_total_MPKI 0.06436
Core_0_STLB_total_miss_rate 0.0918274
Core_0_STLB_demand_access 35044
Core_0_STLB_demand_hit 31826
Core_0_STLB_demand_miss 3218
Core_0_STLB_demand_MPKI 0.06436
Core_0_STLB_demand_miss_rate 0.0918274
Core_0_STLB_load_access 35044
Core_0_STLB_load_hit 31826
Core_0_STLB_load_miss 3218
Core_0_STLB_load_MPKI 0.06436
Core_0_STLB_load_miss_rate 0.0918274
Core_0_STLB_rfo_access 0
Core_0_STLB_rfo_hit 0
Core_0_STLB_rfo_miss 0
Core_0_STLB_rfo_MPKI 0
Core_0_STLB_rfo_miss_rate 0
Core_0_STLB_prefetch_access 0
Core_0_STLB_prefetch_hit 0
Core_0_STLB_prefetch_miss 0
Core_0_STLB_prefetch_MPKI 0
Core_0_STLB_prefetch_miss_rate 0
Core_0_STLB_writeback_access 0
Core_0_STLB_writeback_hit 0
Core_0_STLB_writeback_miss 0
Core_0_STLB_writeback_MPKI 0
Core_0_STLB_writeback_miss_rate 0
Core_0_STLB_prefetch_requested 0
Core_0_STLB_prefetch_issued 0
Core_0_STLB_prefetch_useful 0
Core_0_STLB_prefetch_useless 0
Core_0_STLB_prefetch_late 0
Core_0_STLB_prefetch_accuracy 0
Core_0_STLB_prefetch_coverage 0

Core_0_L1I_total_access 8306341
Core_0_L1I_total_hit 8303700
Core_0_L1I_total_miss 2641
Core_0_L1I_total_MPKI 0.05282
Core_0_L1I_total_miss_rate 0.00031795
Core_0_L1I_demand_access 8306341
Core_0_L1I_demand_hit 8303700
Core_0_L1I_demand_miss 2641
Core_0_L1I_demand_MPKI 0.05282
Core_0_L1I_demand_miss_rate 0.00031795
Core_0_L1I_load_access 8306341
Core_0_L1I_load_hit 8303700
Core_0_L1I_load_miss 2641
Core_0_L1I_load_MPKI 0.05282
Core_0_L1I_load_miss_rate 0.00031795
Core_0_L1I_rfo_access 0
Core_0_L1I_rfo_hit 0
Core_0_L1I_rfo_miss 0
Core_0_L1I_rfo_MPKI 0
Core_0_L1I_rfo_miss_rate 0
Core_0_L1I_prefetch_access 0
Core_0_L1I_prefetch_hit 0
Core_0_L1I_prefetch_miss 0
Core_0_L1I_prefetch_MPKI 0
Core_0_L1I_prefetch_miss_rate 0
Core_0_L1I_writeback_access 0
Core_0_L1I_writeback_hit 0
Core_0_L1I_writeback_miss 0
Core_0_L1I_writeback_MPKI 0
Core_0_L1I_writeback_miss_rate 0
Core_0_L1I_prefetch_requested 0
Core_0_L1I_prefetch_issued 0
Core_0_L1I_prefetch_useful 0
Core_0_L1I_prefetch_useless 0
Core_0_L1I_prefetch_late 0
Core_0_L1I_prefetch_accuracy 0
Core_0_L1I_prefetch_coverage 0

Core_0_L1D_total_access 11195788
Core_0_L1D_total_hit 9878073
Core_0_L1D_total_miss 1317715
Core_0_L1D_total_MPKI 26.3543
Core_0_L1D_total_miss_rate 0.117697
Core_0_L1D_demand_access 8576495
Core_0_L1D_demand_hit 8377978
Core_0_L1D_demand_miss 198517
Core_0_L1D_demand_MPKI 3.97034
Core_0_L1D_demand_miss_rate 0.0231466
Core_0_L1D_load_access 8576495
Core_0_L1D_load_hit 8377978
Core_0_L1D_load_miss 198517
Core_0_L1D_load_MPKI 3.97034
Core_0_L1D_load_miss_rate 0.0231466
Core_0_L1D_rfo_access 0
Core_0_L1D_rfo_hit 0
Core_0_L1D_rfo_miss 0
Core_0_L1D_rfo_MPKI 0
Core_0_L1D_rfo_miss_rate 0
Core_0_L1D_prefetch_access 575203
Core_0_L1D_prefetch_hit 62368
Core_0_L1D_prefetch_miss 512835
Core_0_L1D_prefetch_MPKI 10.2567
Core_0_L1D_prefetch_miss_rate 0.891572
Core_0_L1D_writeback_access 2044090
Core_0_L1D_writeback_hit 1437727
Core_0_L1D_writeback_miss 606363
Core_0_L1D_writeback_MPKI 12.1273
Core_0_L1D_writeback_miss_rate 0.296642
Core_0_L1D_prefetch_requested 591581
Core_0_L1D_prefetch_issued 575197
Core_0_L1D_prefetch_useful 490416
Core_0_L1D_prefetch_useless 11537
Core_0_L1D_prefetch_late 24407
Core_0_L1D_prefetch_accuracy 0.852605
Core_0_L1D_prefetch_coverage 0.711849

Core_0_L2C_total_access 3789392
Core_0_L2C_total_hit 2741416
Core_0_L2C_total_miss 1047976
Core_0_L2C_total_MPKI 20.9595
Core_0_L2C_total_miss_rate 0.276555
Core_0_L2C_demand_access 233035
Core_0_L2C_demand_hit 88974
Core_0_L2C_demand_miss 144061
Core_0_L2C_demand_MPKI 2.88122
Core_0_L2C_demand_miss_rate 0.618195
Core_0_L2C_load_access 102558
Core_0_L2C_load_hit 76135
Core_0_L2C_load_miss 26423
Core_0_L2C_load_MPKI 0.52846
Core_0_L2C_load_miss_rate 0.25764
Core_0_L2C_rfo_access 130477
Core_0_L2C_rfo_hit 12839
Core_0_L2C_rfo_miss 117638
Core_0_L2C_rfo_MPKI 2.35276
Core_0_L2C_rfo_miss_rate 0.9016
Core_0_L2C_prefetch_access 3292891
Core_0_L2C_prefetch_hit 2389675
Core_0_L2C_prefetch_miss 903216
Core_0_L2C_prefetch_MPKI 18.0643
Core_0_L2C_prefetch_miss_rate 0.274293
Core_0_L2C_writeback_access 263466
Core_0_L2C_writeback_hit 262767
Core_0_L2C_writeback_miss 699
Core_0_L2C_writeback_MPKI 0.01398
Core_0_L2C_writeback_miss_rate 0.00265309
Core_0_L2C_prefetch_requested 3083048
Core_0_L2C_prefetch_issued 2790925
Core_0_L2C_prefetch_useful 314312
Core_0_L2C_prefetch_useless 37874
Core_0_L2C_prefetch_late 7200
Core_0_L2C_prefetch_accuracy 0.112619
Core_0_L2C_prefetch_coverage 0.685712

Core_0_LLC_total_access 750073
Core_0_LLC_total_hit 329594
Core_0_LLC_total_miss 420479
Core_0_LLC_total_MPKI 8.40958
Core_0_LLC_total_miss_rate 0.560584
Core_0_LLC_demand_access 136861
Core_0_LLC_demand_hit 35112
Core_0_LLC_demand_miss 101749
Core_0_LLC_demand_MPKI 2.03498
Core_0_LLC_demand_miss_rate 0.743448
Core_0_LLC_load_access 19223
Core_0_LLC_load_hit 9147
Core_0_LLC_load_miss 10076
Core_0_LLC_load_MPKI 0.20152
Core_0_LLC_load_miss_rate 0.524164
Core_0_LLC_rfo_access 117638
Core_0_LLC_rfo_hit 25965
Core_0_LLC_rfo_miss 91673
Core_0_LLC_rfo_MPKI 1.83346
Core_0_LLC_rfo_miss_rate 0.779281
Core_0_LLC_prefetch_access 374934
Core_0_LLC_prefetch_hit 131282
Core_0_LLC_prefetch_miss 243652
Core_0_LLC_prefetch_MPKI 4.87304
Core_0_LLC_prefetch_miss_rate 0.649853
Core_0_LLC_writeback_access 238278
Core_0_LLC_writeback_hit 163200
Core_0_LLC_writeback_miss 75078
Core_0_LLC_writeback_MPKI 1.50156
Core_0_LLC_writeback_miss_rate 0.315086
Core_0_LLC_prefetch_requested 0
Core_0_LLC_prefetch_issued 0
Core_0_LLC_prefetch_useful 0
Core_0_LLC_prefetch_useless 0
Core_0_LLC_prefetch_late 0
Core_0_LLC_prefetch_accuracy 0
Core_0_LLC_prefetch_coverage 0

[DRAM Statistics]
Channel_0_RQ_row_buffer_hit 23484
Channel_0_RQ_row_buffer_miss 322097
Channel_0_WQ_row_buffer_hit 20993
Channel_0_WQ_row_buffer_miss 140350
Channel_0_WQ_full 895
Channel_0_dbus_congested 1410566
DRAM_total_RQ_row_buffer_hit 23484
DRAM_total_RQ_row_buffer_miss 322097
DRAM_total_WQ_row_buffer_hit 20993
DRAM_total_WQ_row_buffer_miss 140350
DRAM_total_WQ_full 895
DRAM_total_dbus_congested 1410566
DRAM_avg_congested_cycle 6.82247

======STLB miss causes ========
Core_0_STLB_miss_cause_breakdown
Core_0_STLB_cause_Demand_Data_miss 2771
Core_0_STLB_cause_Demand_Data_miss_rate 0.079072
Core_0_STLB_cause_Demand_Instruction_miss 25
Core_0_STLB_cause_Demand_Instruction_miss_rate 0.000713389
Core_0_STLB_cause_L1D_Prefetch_miss 422
Core_0_STLB_cause_L1D_Prefetch_miss_rate 0.012042
Core_0_STLB_cause_L1I_Prefetch_miss 0
Core_0_STLB_cause_L1I_Prefetch_miss_rate 0
Core_0_STLB_cause_Other_miss 0
Core_0_STLB_cause_Other_miss_rate 0
Core_0_STLB_Demand_miss 2796
Core_0_STLB_Demand_miss_rate 0.0797854
Core_0_STLB_L1D_Prefetch_miss 422
Core_0_STLB_L1D_Prefetch_miss_rate 0.012042
Core_0_STLB_Other_miss 0
Core_0_STLB_Other_miss_rate 0
