[VMEM] WARNING: physical memory size is smaller than virtual memory size.

*** ChampSim Multicore Out-of-Order Simulator ***
Warmup Instructions: 20000000
Simulation Instructions: 50000000
Number of CPUs: 1
Page size: 4096
Core 0: /data0/tzh/champsim_traces/SPEC17/628.pop2_s-17B.champsimtrace.xz
 L1D Berti prefetcher
Off-chip DRAM Size: 16 GiB Channels: 1 Width: 64-bit Data Rate: 3205 MT/s
Warmup halting CPU 0 at instruction 20000002 cycle 4697554 for remainder of phase
Warmup finished CPU 0 instructions: 20000002 cycles: 4697554 cumulative IPC: 4.258 (Simulation time: 00 hr 00 min 59 sec)
Warmup complete CPU 0 instructions: 20000002 cycles: 4697554 cumulative IPC: 4.258 (Simulation time: 00 hr 00 min 59 sec)
Simulation finished CPU 0 instructions: 50000000 cycles: 16613442 cumulative IPC: 3.01 (Simulation time: 00 hr 04 min 19 sec)
Simulation complete CPU 0 instructions: 50000000 cycles: 16613442 cumulative IPC: 3.01 (Simulation time: 00 hr 04 min 19 sec)

ChampSim completed all CPUs

=== Simulation ===
CPU 0 runs /data0/tzh/champsim_traces/SPEC17/628.pop2_s-17B.champsimtrace.xz

Region of Interest Statistics

CPU 0 cumulative IPC: 3.01 instructions: 50000000 cycles: 16613442
CPU 0 Branch Prediction Accuracy: 99.28% MPKI: 0.8326 Average ROB Occupancy at Mispredict: 88.48
Branch type MPKI
BRANCH_DIRECT_JUMP: 0.05064
BRANCH_INDIRECT: 0.0017
BRANCH_CONDITIONAL: 0.7803
BRANCH_DIRECT_CALL: 0
BRANCH_INDIRECT_CALL: 0
BRANCH_RETURN: 0

cpu0->cpu0_STLB TOTAL        ACCESS:      45089 HIT:      42606 MISS:       2483 MSHR_MERGE:          0
cpu0->cpu0_STLB LOAD         ACCESS:      45089 HIT:      42606 MISS:       2483 MSHR_MERGE:          0
cpu0->cpu0_STLB RFO          ACCESS:          0 HIT:          0 MISS:          0 MSHR_MERGE:          0
cpu0->cpu0_STLB PREFETCH     ACCESS:          0 HIT:          0 MISS:          0 MSHR_MERGE:          0
cpu0->cpu0_STLB WRITE        ACCESS:          0 HIT:          0 MISS:          0 MSHR_MERGE:          0
cpu0->cpu0_STLB TRANSLATION  ACCESS:          0 HIT:          0 MISS:          0 MSHR_MERGE:          0
cpu0->cpu0_STLB PREFETCH REQUESTED:          0 ISSUED:          0 USEFUL:          0 USELESS:          0 LATE:          0
cpu0->cpu0_STLB AVERAGE MISS LATENCY: 293.8 cycles
cpu0->cpu0_L2C TOTAL        ACCESS:    4627647 HIT:    3668479 MISS:     959168 MSHR_MERGE:     409158
cpu0->cpu0_L2C LOAD         ACCESS:     327633 HIT:     216007 MISS:     111626 MSHR_MERGE:      14601
cpu0->cpu0_L2C RFO          ACCESS:     274309 HIT:     177189 MISS:      97120 MSHR_MERGE:         10
cpu0->cpu0_L2C PREFETCH     ACCESS:    3613228 HIT:    2865373 MISS:     747855 MSHR_MERGE:     394547
cpu0->cpu0_L2C WRITE        ACCESS:     409621 HIT:     409610 MISS:         11 MSHR_MERGE:          0
cpu0->cpu0_L2C TRANSLATION  ACCESS:       2856 HIT:        300 MISS:       2556 MSHR_MERGE:          0
cpu0->cpu0_L2C PREFETCH REQUESTED:    3840644 ISSUED:    3066625 USEFUL:     230928 USELESS:      77639 LATE:      14611
cpu0->cpu0_L2C AVERAGE MISS LATENCY: 39.78 cycles
cpu0->cpu0_L1I TOTAL        ACCESS:    5382389 HIT:    5255944 MISS:     126445 MSHR_MERGE:      67409
cpu0->cpu0_L1I LOAD         ACCESS:    5382389 HIT:    5255944 MISS:     126445 MSHR_MERGE:      67409
cpu0->cpu0_L1I RFO          ACCESS:          0 HIT:          0 MISS:          0 MSHR_MERGE:          0
cpu0->cpu0_L1I PREFETCH     ACCESS:          0 HIT:          0 MISS:          0 MSHR_MERGE:          0
cpu0->cpu0_L1I WRITE        ACCESS:          0 HIT:          0 MISS:          0 MSHR_MERGE:          0
cpu0->cpu0_L1I TRANSLATION  ACCESS:          0 HIT:          0 MISS:          0 MSHR_MERGE:          0
cpu0->cpu0_L1I PREFETCH REQUESTED:          0 ISSUED:          0 USEFUL:          0 USELESS:          0 LATE:          0
cpu0->cpu0_L1I AVERAGE MISS LATENCY: 22.8 cycles
cpu0->cpu0_L1D TOTAL        ACCESS:   11216939 HIT:    9070500 MISS:    2146439 MSHR_MERGE:    1054032
cpu0->cpu0_L1D LOAD         ACCESS:    6614541 HIT:    6074403 MISS:     540138 MSHR_MERGE:     271528
cpu0->cpu0_L1D RFO          ACCESS:          0 HIT:          0 MISS:          0 MSHR_MERGE:          0
cpu0->cpu0_L1D PREFETCH     ACCESS:     804790 HIT:     225822 MISS:     578968 MSHR_MERGE:      32359
cpu0->cpu0_L1D WRITE        ACCESS:    3791848 HIT:    2767512 MISS:    1024336 MSHR_MERGE:     750004
cpu0->cpu0_L1D TRANSLATION  ACCESS:       5760 HIT:       2763 MISS:       2997 MSHR_MERGE:        141
cpu0->cpu0_L1D PREFETCH REQUESTED:     922252 ISSUED:     804790 USEFUL:     492863 USELESS:      53723 LATE:      48152
cpu0->cpu0_L1D AVERAGE MISS LATENCY: 25.53 cycles
cpu0->cpu0_ITLB TOTAL        ACCESS:    4425088 HIT:    4418992 MISS:       6096 MSHR_MERGE:       3617
cpu0->cpu0_ITLB LOAD         ACCESS:    4425088 HIT:    4418992 MISS:       6096 MSHR_MERGE:       3617
cpu0->cpu0_ITLB RFO          ACCESS:          0 HIT:          0 MISS:          0 MSHR_MERGE:          0
cpu0->cpu0_ITLB PREFETCH     ACCESS:          0 HIT:          0 MISS:          0 MSHR_MERGE:          0
cpu0->cpu0_ITLB WRITE        ACCESS:          0 HIT:          0 MISS:          0 MSHR_MERGE:          0
cpu0->cpu0_ITLB TRANSLATION  ACCESS:          0 HIT:          0 MISS:          0 MSHR_MERGE:          0
cpu0->cpu0_ITLB PREFETCH REQUESTED:          0 ISSUED:          0 USEFUL:          0 USELESS:          0 LATE:          0
cpu0->cpu0_ITLB AVERAGE MISS LATENCY: 5.011 cycles
cpu0->cpu0_DTLB TOTAL        ACCESS:   10427004 HIT:   10340525 MISS:      86479 MSHR_MERGE:      43869
cpu0->cpu0_DTLB LOAD         ACCESS:   10427004 HIT:   10340525 MISS:      86479 MSHR_MERGE:      43869
cpu0->cpu0_DTLB RFO          ACCESS:          0 HIT:          0 MISS:          0 MSHR_MERGE:          0
cpu0->cpu0_DTLB PREFETCH     ACCESS:          0 HIT:          0 MISS:          0 MSHR_MERGE:          0
cpu0->cpu0_DTLB WRITE        ACCESS:          0 HIT:          0 MISS:          0 MSHR_MERGE:          0
cpu0->cpu0_DTLB TRANSLATION  ACCESS:          0 HIT:          0 MISS:          0 MSHR_MERGE:          0
cpu0->cpu0_DTLB PREFETCH REQUESTED:          0 ISSUED:          0 USEFUL:          0 USELESS:          0 LATE:          0
cpu0->cpu0_DTLB AVERAGE MISS LATENCY: 22.18 cycles
cpu0->LLC TOTAL        ACCESS:     723008 HIT:     544353 MISS:     178655 MSHR_MERGE:          0
cpu0->LLC LOAD         ACCESS:      97025 HIT:      90386 MISS:       6639 MSHR_MERGE:          0
cpu0->LLC RFO          ACCESS:      97110 HIT:      84458 MISS:      12652 MSHR_MERGE:          0
cpu0->LLC PREFETCH     ACCESS:     353308 HIT:     200108 MISS:     153200 MSHR_MERGE:          0
cpu0->LLC WRITE        ACCESS:     173009 HIT:     167430 MISS:       5579 MSHR_MERGE:          0
cpu0->LLC TRANSLATION  ACCESS:       2556 HIT:       1971 MISS:        585 MSHR_MERGE:          0
cpu0->LLC PREFETCH REQUESTED:          0 ISSUED:          0 USEFUL:          0 USELESS:          0 LATE:          0
cpu0->LLC AVERAGE MISS LATENCY: 167.6 cycles

DRAM Statistics

Channel 0 RQ ROW_BUFFER_HIT:       9581
  ROW_BUFFER_MISS:     163449
  AVG DBUS CONGESTED CYCLE: 6.014
Channel 0 WQ ROW_BUFFER_HIT:       5010
  ROW_BUFFER_MISS:      42734
  FULL:          0
Channel 0 REFRESHES ISSUED:       1384

[ROI Statistics]
[System Configuration]
num_cpus 1
cpu_freq 4000
fetch_width 6
decode_width 6
dispatch_width 6
execute_width 6
lq_width 2
sq_width 2
retire_width 6
scheduler_size 128
branch_mispredict_penalty 15
rob_size 352
lq_size 128
sq_size 72
ifetch_buffer_size 64
decode_buffer_size 32
dispatch_buffer_size 32
register_file_size 288
decode_latency 1
dispatch_latency 1
schedule_latency 1
execute_latency 1
page_size 4096
block_size 64
core_0_itlb_set 16
core_0_itlb_way 4
core_0_itlb_rq_size 16
core_0_itlb_wq_size 16
core_0_itlb_pq_size 0
core_0_itlb_mshr_size 8
core_0_itlb_hit_latency 1
core_0_itlb_fill_latency 1
core_0_itlb_max_tag_check 2
core_0_itlb_max_fill 2
core_0_dtlb_set 16
core_0_dtlb_way 4
core_0_dtlb_rq_size 16
core_0_dtlb_wq_size 16
core_0_dtlb_pq_size 0
core_0_dtlb_mshr_size 8
core_0_dtlb_hit_latency 1
core_0_dtlb_fill_latency 1
core_0_dtlb_max_tag_check 2
core_0_dtlb_max_fill 2
core_0_stlb_set 128
core_0_stlb_way 12
core_0_stlb_rq_size 32
core_0_stlb_wq_size 32
core_0_stlb_pq_size 0
core_0_stlb_mshr_size 16
core_0_stlb_hit_latency 4
core_0_stlb_fill_latency 4
core_0_stlb_max_tag_check 1
core_0_stlb_max_fill 1
core_0_l1i_set 64
core_0_l1i_way 8
core_0_l1i_rq_size 64
core_0_l1i_wq_size 64
core_0_l1i_pq_size 32
core_0_l1i_mshr_size 8
core_0_l1i_hit_latency 2
core_0_l1i_fill_latency 2
core_0_l1i_max_tag_check 2
core_0_l1i_max_fill 2
core_0_l1d_set 64
core_0_l1d_way 12
core_0_l1d_rq_size 64
core_0_l1d_wq_size 64
core_0_l1d_pq_size 8
core_0_l1d_mshr_size 16
core_0_l1d_hit_latency 2
core_0_l1d_fill_latency 3
core_0_l1d_max_tag_check 2
core_0_l1d_max_fill 2
core_0_l2c_set 1024
core_0_l2c_way 8
core_0_l2c_rq_size 32
core_0_l2c_wq_size 32
core_0_l2c_pq_size 16
core_0_l2c_mshr_size 32
core_0_l2c_hit_latency 5
core_0_l2c_fill_latency 5
core_0_l2c_max_tag_check 1
core_0_l2c_max_fill 1
llc_set 2048
llc_way 16
llc_rq_size 32
llc_wq_size 32
llc_pq_size 32
llc_mshr_size 64
llc_hit_latency 10
llc_fill_latency 10
llc_max_tag_check 1
llc_max_fill 1
dram_channels 1
dram_ranks 1
dram_bankgroups 8
dram_banks 4
dram_rows 65536
dram_columns 1024
dram_channel_width 8
dram_rq_size 64
dram_wq_size 64
dram_size 17179869184
core_0_itlb_prefetcher no
core_0_dtlb_prefetcher no
core_0_stlb_prefetcher no
core_0_l1i_prefetcher next_line
core_0_l1d_prefetcher berti
core_0_l2c_prefetcher pythia
llc_prefetcher no
llc_replacement drrip

Core_0_instructions 50000000
Core_0_cycles 16613442
Core_0_IPC 3.00961
Core_0_branch_prediction_accuracy 99.2784
Core_0_branch_MPKI 0.83262
Core_0_average_ROB_occupancy_at_mispredict 88.4772

Core_0_ITLB_total_access 4425088
Core_0_ITLB_total_hit 4418992
Core_0_ITLB_total_miss 6096
Core_0_ITLB_total_MPKI 0.12192
Core_0_ITLB_total_miss_rate 0.0013776
Core_0_ITLB_demand_access 4425088
Core_0_ITLB_demand_hit 4418992
Core_0_ITLB_demand_miss 6096
Core_0_ITLB_demand_MPKI 0.12192
Core_0_ITLB_demand_miss_rate 0.0013776
Core_0_ITLB_load_access 4425088
Core_0_ITLB_load_hit 4418992
Core_0_ITLB_load_miss 6096
Core_0_ITLB_load_MPKI 0.12192
Core_0_ITLB_load_miss_rate 0.0013776
Core_0_ITLB_rfo_access 0
Core_0_ITLB_rfo_hit 0
Core_0_ITLB_rfo_miss 0
Core_0_ITLB_rfo_MPKI 0
Core_0_ITLB_rfo_miss_rate 0
Core_0_ITLB_prefetch_access 0
Core_0_ITLB_prefetch_hit 0
Core_0_ITLB_prefetch_miss 0
Core_0_ITLB_prefetch_MPKI 0
Core_0_ITLB_prefetch_miss_rate 0
Core_0_ITLB_writeback_access 0
Core_0_ITLB_writeback_hit 0
Core_0_ITLB_writeback_miss 0
Core_0_ITLB_writeback_MPKI 0
Core_0_ITLB_writeback_miss_rate 0
Core_0_ITLB_prefetch_requested 0
Core_0_ITLB_prefetch_issued 0
Core_0_ITLB_prefetch_useful 0
Core_0_ITLB_prefetch_useless 0
Core_0_ITLB_prefetch_late 0
Core_0_ITLB_prefetch_accuracy 0
Core_0_ITLB_prefetch_coverage 0

Core_0_DTLB_total_access 10427004
Core_0_DTLB_total_hit 10340525
Core_0_DTLB_total_miss 86479
Core_0_DTLB_total_MPKI 1.72958
Core_0_DTLB_total_miss_rate 0.00829375
Core_0_DTLB_demand_access 10427004
Core_0_DTLB_demand_hit 10340525
Core_0_DTLB_demand_miss 86479
Core_0_DTLB_demand_MPKI 1.72958
Core_0_DTLB_demand_miss_rate 0.00829375
Core_0_DTLB_load_access 10427004
Core_0_DTLB_load_hit 10340525
Core_0_DTLB_load_miss 86479
Core_0_DTLB_load_MPKI 1.72958
Core_0_DTLB_load_miss_rate 0.00829375
Core_0_DTLB_rfo_access 0
Core_0_DTLB_rfo_hit 0
Core_0_DTLB_rfo_miss 0
Core_0_DTLB_rfo_MPKI 0
Core_0_DTLB_rfo_miss_rate 0
Core_0_DTLB_prefetch_access 0
Core_0_DTLB_prefetch_hit 0
Core_0_DTLB_prefetch_miss 0
Core_0_DTLB_prefetch_MPKI 0
Core_0_DTLB_prefetch_miss_rate 0
Core_0_DTLB_writeback_access 0
Core_0_DTLB_writeback_hit 0
Core_0_DTLB_writeback_miss 0
Core_0_DTLB_writeback_MPKI 0
Core_0_DTLB_writeback_miss_rate 0
Core_0_DTLB_prefetch_requested 0
Core_0_DTLB_prefetch_issued 0
Core_0_DTLB_prefetch_useful 0
Core_0_DTLB_prefetch_useless 0
Core_0_DTLB_prefetch_late 0
Core_0_DTLB_prefetch_accuracy 0
Core_0_DTLB_prefetch_coverage 0

Core_0_STLB_total_access 45089
Core_0_STLB_total_hit 42606
Core_0_STLB_total_miss 2483
Core_0_STLB_total_MPKI 0.04966
Core_0_STLB_total_miss_rate 0.0550689
Core_0_STLB_demand_access 45089
Core_0_STLB_demand_hit 42606
Core_0_STLB_demand_miss 2483
Core_0_STLB_demand_MPKI 0.04966
Core_0_STLB_demand_miss_rate 0.0550689
Core_0_STLB_load_access 45089
Core_0_STLB_load_hit 42606
Core_0_STLB_load_miss 2483
Core_0_STLB_load_MPKI 0.04966
Core_0_STLB_load_miss_rate 0.0550689
Core_0_STLB_rfo_access 0
Core_0_STLB_rfo_hit 0
Core_0_STLB_rfo_miss 0
Core_0_STLB_rfo_MPKI 0
Core_0_STLB_rfo_miss_rate 0
Core_0_STLB_prefetch_access 0
Core_0_STLB_prefetch_hit 0
Core_0_STLB_prefetch_miss 0
Core_0_STLB_prefetch_MPKI 0
Core_0_STLB_prefetch_miss_rate 0
Core_0_STLB_writeback_access 0
Core_0_STLB_writeback_hit 0
Core_0_STLB_writeback_miss 0
Core_0_STLB_writeback_MPKI 0
Core_0_STLB_writeback_miss_rate 0
Core_0_STLB_prefetch_requested 0
Core_0_STLB_prefetch_issued 0
Core_0_STLB_prefetch_useful 0
Core_0_STLB_prefetch_useless 0
Core_0_STLB_prefetch_late 0
Core_0_STLB_prefetch_accuracy 0
Core_0_STLB_prefetch_coverage 0

Core_0_L1I_total_access 5382389
Core_0_L1I_total_hit 5255944
Core_0_L1I_total_miss 126445
Core_0_L1I_total_MPKI 2.5289
Core_0_L1I_total_miss_rate 0.0234924
Core_0_L1I_demand_access 5382389
Core_0_L1I_demand_hit 5255944
Core_0_L1I_demand_miss 126445
Core_0_L1I_demand_MPKI 2.5289
Core_0_L1I_demand_miss_rate 0.0234924
Core_0_L1I_load_access 5382389
Core_0_L1I_load_hit 5255944
Core_0_L1I_load_miss 126445
Core_0_L1I_load_MPKI 2.5289
Core_0_L1I_load_miss_rate 0.0234924
Core_0_L1I_rfo_access 0
Core_0_L1I_rfo_hit 0
Core_0_L1I_rfo_miss 0
Core_0_L1I_rfo_MPKI 0
Core_0_L1I_rfo_miss_rate 0
Core_0_L1I_prefetch_access 0
Core_0_L1I_prefetch_hit 0
Core_0_L1I_prefetch_miss 0
Core_0_L1I_prefetch_MPKI 0
Core_0_L1I_prefetch_miss_rate 0
Core_0_L1I_writeback_access 0
Core_0_L1I_writeback_hit 0
Core_0_L1I_writeback_miss 0
Core_0_L1I_writeback_MPKI 0
Core_0_L1I_writeback_miss_rate 0
Core_0_L1I_prefetch_requested 0
Core_0_L1I_prefetch_issued 0
Core_0_L1I_prefetch_useful 0
Core_0_L1I_prefetch_useless 0
Core_0_L1I_prefetch_late 0
Core_0_L1I_prefetch_accuracy 0
Core_0_L1I_prefetch_coverage 0

Core_0_L1D_total_access 11211179
Core_0_L1D_total_hit 9067737
Core_0_L1D_total_miss 2143442
Core_0_L1D_total_MPKI 42.8688
Core_0_L1D_total_miss_rate 0.191188
Core_0_L1D_demand_access 6614541
Core_0_L1D_demand_hit 6074403
Core_0_L1D_demand_miss 540138
Core_0_L1D_demand_MPKI 10.8028
Core_0_L1D_demand_miss_rate 0.0816592
Core_0_L1D_load_access 6614541
Core_0_L1D_load_hit 6074403
Core_0_L1D_load_miss 540138
Core_0_L1D_load_MPKI 10.8028
Core_0_L1D_load_miss_rate 0.0816592
Core_0_L1D_rfo_access 0
Core_0_L1D_rfo_hit 0
Core_0_L1D_rfo_miss 0
Core_0_L1D_rfo_MPKI 0
Core_0_L1D_rfo_miss_rate 0
Core_0_L1D_prefetch_access 804790
Core_0_L1D_prefetch_hit 225822
Core_0_L1D_prefetch_miss 578968
Core_0_L1D_prefetch_MPKI 11.5794
Core_0_L1D_prefetch_miss_rate 0.719403
Core_0_L1D_writeback_access 3791848
Core_0_L1D_writeback_hit 2767512
Core_0_L1D_writeback_miss 1024336
Core_0_L1D_writeback_MPKI 20.4867
Core_0_L1D_writeback_miss_rate 0.270142
Core_0_L1D_prefetch_requested 922252
Core_0_L1D_prefetch_issued 804790
Core_0_L1D_prefetch_useful 492863
Core_0_L1D_prefetch_useless 53723
Core_0_L1D_prefetch_late 48152
Core_0_L1D_prefetch_accuracy 0.612412
Core_0_L1D_prefetch_coverage 0.477118

Core_0_L2C_total_access 4624791
Core_0_L2C_total_hit 3668179
Core_0_L2C_total_miss 956612
Core_0_L2C_total_MPKI 19.1322
Core_0_L2C_total_miss_rate 0.206844
Core_0_L2C_demand_access 601942
Core_0_L2C_demand_hit 393196
Core_0_L2C_demand_miss 208746
Core_0_L2C_demand_MPKI 4.17492
Core_0_L2C_demand_miss_rate 0.346788
Core_0_L2C_load_access 327633
Core_0_L2C_load_hit 216007
Core_0_L2C_load_miss 111626
Core_0_L2C_load_MPKI 2.23252
Core_0_L2C_load_miss_rate 0.340704
Core_0_L2C_rfo_access 274309
Core_0_L2C_rfo_hit 177189
Core_0_L2C_rfo_miss 97120
Core_0_L2C_rfo_MPKI 1.9424
Core_0_L2C_rfo_miss_rate 0.354053
Core_0_L2C_prefetch_access 3613228
Core_0_L2C_prefetch_hit 2865373
Core_0_L2C_prefetch_miss 747855
Core_0_L2C_prefetch_MPKI 14.9571
Core_0_L2C_prefetch_miss_rate 0.206977
Core_0_L2C_writeback_access 409621
Core_0_L2C_writeback_hit 409610
Core_0_L2C_writeback_miss 11
Core_0_L2C_writeback_MPKI 0.00022
Core_0_L2C_writeback_miss_rate 2.68541e-05
Core_0_L2C_prefetch_requested 3840644
Core_0_L2C_prefetch_issued 3066625
Core_0_L2C_prefetch_useful 230928
Core_0_L2C_prefetch_useless 77639
Core_0_L2C_prefetch_late 14611
Core_0_L2C_prefetch_accuracy 0.0753036
Core_0_L2C_prefetch_coverage 0.525226

Core_0_LLC_total_access 720452
Core_0_LLC_total_hit 542382
Core_0_LLC_total_miss 178070
Core_0_LLC_total_MPKI 3.5614
Core_0_LLC_total_miss_rate 0.247164
Core_0_LLC_demand_access 194135
Core_0_LLC_demand_hit 174844
Core_0_LLC_demand_miss 19291
Core_0_LLC_demand_MPKI 0.38582
Core_0_LLC_demand_miss_rate 0.099369
Core_0_LLC_load_access 97025
Core_0_LLC_load_hit 90386
Core_0_LLC_load_miss 6639
Core_0_LLC_load_MPKI 0.13278
Core_0_LLC_load_miss_rate 0.0684257
Core_0_LLC_rfo_access 97110
Core_0_LLC_rfo_hit 84458
Core_0_LLC_rfo_miss 12652
Core_0_LLC_rfo_MPKI 0.25304
Core_0_LLC_rfo_miss_rate 0.130285
Core_0_LLC_prefetch_access 353308
Core_0_LLC_prefetch_hit 200108
Core_0_LLC_prefetch_miss 153200
Core_0_LLC_prefetch_MPKI 3.064
Core_0_LLC_prefetch_miss_rate 0.433616
Core_0_LLC_writeback_access 173009
Core_0_LLC_writeback_hit 167430
Core_0_LLC_writeback_miss 5579
Core_0_LLC_writeback_MPKI 0.11158
Core_0_LLC_writeback_miss_rate 0.0322469
Core_0_LLC_prefetch_requested 0
Core_0_LLC_prefetch_issued 0
Core_0_LLC_prefetch_useful 0
Core_0_LLC_prefetch_useless 0
Core_0_LLC_prefetch_late 0
Core_0_LLC_prefetch_accuracy 0
Core_0_LLC_prefetch_coverage 0

[DRAM Statistics]
Channel_0_RQ_row_buffer_hit 9581
Channel_0_RQ_row_buffer_miss 163449
Channel_0_WQ_row_buffer_hit 5010
Channel_0_WQ_row_buffer_miss 42734
Channel_0_WQ_full 0
Channel_0_dbus_congested 459405
DRAM_total_RQ_row_buffer_hit 9581
DRAM_total_RQ_row_buffer_miss 163449
DRAM_total_WQ_row_buffer_hit 5010
DRAM_total_WQ_row_buffer_miss 42734
DRAM_total_WQ_full 0
DRAM_total_dbus_congested 459405
DRAM_avg_congested_cycle 6.01422

======STLB miss causes ========
Core_0_STLB_miss_cause_breakdown
Core_0_STLB_cause_Demand_Data_miss 1536
Core_0_STLB_cause_Demand_Data_miss_rate 0.034066
Core_0_STLB_cause_Demand_Instruction_miss 0
Core_0_STLB_cause_Demand_Instruction_miss_rate 0
Core_0_STLB_cause_L1D_Prefetch_miss 947
Core_0_STLB_cause_L1D_Prefetch_miss_rate 0.0210029
Core_0_STLB_cause_L1I_Prefetch_miss 0
Core_0_STLB_cause_L1I_Prefetch_miss_rate 0
Core_0_STLB_cause_Other_miss 0
Core_0_STLB_cause_Other_miss_rate 0
Core_0_STLB_Demand_miss 1536
Core_0_STLB_Demand_miss_rate 0.034066
Core_0_STLB_L1D_Prefetch_miss 947
Core_0_STLB_L1D_Prefetch_miss_rate 0.0210029
Core_0_STLB_Other_miss 0
Core_0_STLB_Other_miss_rate 0
