[VMEM] WARNING: physical memory size is smaller than virtual memory size.

*** ChampSim Multicore Out-of-Order Simulator ***
Warmup Instructions: 20000000
Simulation Instructions: 50000000
Number of CPUs: 1
Page size: 4096
Core 0: /data0/tzh/champsim_traces/SPEC17/638.imagick_s-4128B.champsimtrace.xz
 L1D Berti prefetcher
Off-chip DRAM Size: 16 GiB Channels: 1 Width: 64-bit Data Rate: 3205 MT/s
Warmup halting CPU 0 at instruction 20000000 cycle 4242427 for remainder of phase
Warmup finished CPU 0 instructions: 20000000 cycles: 4242427 cumulative IPC: 4.714 (Simulation time: 00 hr 00 min 43 sec)
Warmup complete CPU 0 instructions: 20000000 cycles: 4242427 cumulative IPC: 4.714 (Simulation time: 00 hr 00 min 43 sec)
Simulation finished CPU 0 instructions: 50000003 cycles: 13152299 cumulative IPC: 3.802 (Simulation time: 00 hr 02 min 49 sec)
Simulation complete CPU 0 instructions: 50000003 cycles: 13152299 cumulative IPC: 3.802 (Simulation time: 00 hr 02 min 49 sec)

ChampSim completed all CPUs

=== Simulation ===
CPU 0 runs /data0/tzh/champsim_traces/SPEC17/638.imagick_s-4128B.champsimtrace.xz

Region of Interest Statistics

CPU 0 cumulative IPC: 3.802 instructions: 50000003 cycles: 13152299
CPU 0 Branch Prediction Accuracy: 99.11% MPKI: 1.73 Average ROB Occupancy at Mispredict: 108.5
Branch type MPKI
BRANCH_DIRECT_JUMP: 0.02338
BRANCH_INDIRECT: 0
BRANCH_CONDITIONAL: 1.707
BRANCH_DIRECT_CALL: 0
BRANCH_INDIRECT_CALL: 0
BRANCH_RETURN: 0

cpu0->cpu0_STLB TOTAL        ACCESS:      21130 HIT:      21043 MISS:         87 MSHR_MERGE:          0
cpu0->cpu0_STLB LOAD         ACCESS:      21130 HIT:      21043 MISS:         87 MSHR_MERGE:          0
cpu0->cpu0_STLB RFO          ACCESS:          0 HIT:          0 MISS:          0 MSHR_MERGE:          0
cpu0->cpu0_STLB PREFETCH     ACCESS:          0 HIT:          0 MISS:          0 MSHR_MERGE:          0
cpu0->cpu0_STLB WRITE        ACCESS:          0 HIT:          0 MISS:          0 MSHR_MERGE:          0
cpu0->cpu0_STLB TRANSLATION  ACCESS:          0 HIT:          0 MISS:          0 MSHR_MERGE:          0
cpu0->cpu0_STLB PREFETCH REQUESTED:          0 ISSUED:          0 USEFUL:          0 USELESS:          0 LATE:          0
cpu0->cpu0_STLB AVERAGE MISS LATENCY: 237.8 cycles
cpu0->cpu0_L2C TOTAL        ACCESS:      46474 HIT:      40614 MISS:       5860 MSHR_MERGE:        361
cpu0->cpu0_L2C LOAD         ACCESS:       5658 HIT:       5604 MISS:         54 MSHR_MERGE:          0
cpu0->cpu0_L2C RFO          ACCESS:        247 HIT:        100 MISS:        147 MSHR_MERGE:          0
cpu0->cpu0_L2C PREFETCH     ACCESS:      38930 HIT:      33283 MISS:       5647 MSHR_MERGE:        361
cpu0->cpu0_L2C WRITE        ACCESS:       1552 HIT:       1551 MISS:          1 MSHR_MERGE:          0
cpu0->cpu0_L2C TRANSLATION  ACCESS:         87 HIT:         76 MISS:         11 MSHR_MERGE:          0
cpu0->cpu0_L2C PREFETCH REQUESTED:      33583 ISSUED:      33518 USEFUL:       5159 USELESS:         21 LATE:          0
cpu0->cpu0_L2C AVERAGE MISS LATENCY: 158.1 cycles
cpu0->cpu0_L1I TOTAL        ACCESS:       1115 HIT:       1115 MISS:          0 MSHR_MERGE:          0
cpu0->cpu0_L1I LOAD         ACCESS:       1115 HIT:       1115 MISS:          0 MSHR_MERGE:          0
cpu0->cpu0_L1I RFO          ACCESS:          0 HIT:          0 MISS:          0 MSHR_MERGE:          0
cpu0->cpu0_L1I PREFETCH     ACCESS:          0 HIT:          0 MISS:          0 MSHR_MERGE:          0
cpu0->cpu0_L1I WRITE        ACCESS:          0 HIT:          0 MISS:          0 MSHR_MERGE:          0
cpu0->cpu0_L1I TRANSLATION  ACCESS:          0 HIT:          0 MISS:          0 MSHR_MERGE:          0
cpu0->cpu0_L1I PREFETCH REQUESTED:          0 ISSUED:          0 USEFUL:          0 USELESS:          0 LATE:          0
cpu0->cpu0_L1I AVERAGE MISS LATENCY: - cycles
cpu0->cpu0_L1D TOTAL        ACCESS:   11015372 HIT:   11001169 MISS:      14203 MSHR_MERGE:       2799
cpu0->cpu0_L1D LOAD         ACCESS:    9272136 HIT:    9264522 MISS:       7614 MSHR_MERGE:       1956
cpu0->cpu0_L1D RFO          ACCESS:          0 HIT:          0 MISS:          0 MSHR_MERGE:          0
cpu0->cpu0_L1D PREFETCH     ACCESS:     157898 HIT:     152047 MISS:       5851 MSHR_MERGE:        439
cpu0->cpu0_L1D WRITE        ACCESS:    1585164 HIT:    1584513 MISS:        651 MSHR_MERGE:        404
cpu0->cpu0_L1D TRANSLATION  ACCESS:        174 HIT:         87 MISS:         87 MSHR_MERGE:          0
cpu0->cpu0_L1D PREFETCH REQUESTED:     158041 ISSUED:     157891 USEFUL:       3838 USELESS:       1507 LATE:         49
cpu0->cpu0_L1D AVERAGE MISS LATENCY: 13.58 cycles
cpu0->cpu0_ITLB TOTAL        ACCESS:        923 HIT:        923 MISS:          0 MSHR_MERGE:          0
cpu0->cpu0_ITLB LOAD         ACCESS:        923 HIT:        923 MISS:          0 MSHR_MERGE:          0
cpu0->cpu0_ITLB RFO          ACCESS:          0 HIT:          0 MISS:          0 MSHR_MERGE:          0
cpu0->cpu0_ITLB PREFETCH     ACCESS:          0 HIT:          0 MISS:          0 MSHR_MERGE:          0
cpu0->cpu0_ITLB WRITE        ACCESS:          0 HIT:          0 MISS:          0 MSHR_MERGE:          0
cpu0->cpu0_ITLB TRANSLATION  ACCESS:          0 HIT:          0 MISS:          0 MSHR_MERGE:          0
cpu0->cpu0_ITLB PREFETCH REQUESTED:          0 ISSUED:          0 USEFUL:          0 USELESS:          0 LATE:          0
cpu0->cpu0_ITLB AVERAGE MISS LATENCY: - cycles
cpu0->cpu0_DTLB TOTAL        ACCESS:   10692586 HIT:   10646401 MISS:      46185 MSHR_MERGE:      25055
cpu0->cpu0_DTLB LOAD         ACCESS:   10692586 HIT:   10646401 MISS:      46185 MSHR_MERGE:      25055
cpu0->cpu0_DTLB RFO          ACCESS:          0 HIT:          0 MISS:          0 MSHR_MERGE:          0
cpu0->cpu0_DTLB PREFETCH     ACCESS:          0 HIT:          0 MISS:          0 MSHR_MERGE:          0
cpu0->cpu0_DTLB WRITE        ACCESS:          0 HIT:          0 MISS:          0 MSHR_MERGE:          0
cpu0->cpu0_DTLB TRANSLATION  ACCESS:          0 HIT:          0 MISS:          0 MSHR_MERGE:          0
cpu0->cpu0_DTLB PREFETCH REQUESTED:          0 ISSUED:          0 USEFUL:          0 USELESS:          0 LATE:          0
cpu0->cpu0_DTLB AVERAGE MISS LATENCY: 5.983 cycles
cpu0->LLC TOTAL        ACCESS:       5542 HIT:         48 MISS:       5494 MSHR_MERGE:          0
cpu0->LLC LOAD         ACCESS:         54 HIT:          1 MISS:         53 MSHR_MERGE:          0
cpu0->LLC RFO          ACCESS:        147 HIT:          0 MISS:        147 MSHR_MERGE:          0
cpu0->LLC PREFETCH     ACCESS:       5286 HIT:          2 MISS:       5284 MSHR_MERGE:          0
cpu0->LLC WRITE        ACCESS:         44 HIT:         44 MISS:          0 MSHR_MERGE:          0
cpu0->LLC TRANSLATION  ACCESS:         11 HIT:          1 MISS:         10 MSHR_MERGE:          0
cpu0->LLC PREFETCH REQUESTED:          0 ISSUED:          0 USEFUL:          0 USELESS:          0 LATE:          0
cpu0->LLC AVERAGE MISS LATENCY: 144.2 cycles

DRAM Statistics

Channel 0 RQ ROW_BUFFER_HIT:          4
  ROW_BUFFER_MISS:       5490
  AVG DBUS CONGESTED CYCLE: 2.787
Channel 0 WQ ROW_BUFFER_HIT:          0
  ROW_BUFFER_MISS:          0
  FULL:          0
Channel 0 REFRESHES ISSUED:       1096

[ROI Statistics]
[System Configuration]
num_cpus 1
cpu_freq 4000
fetch_width 6
decode_width 6
dispatch_width 6
execute_width 6
lq_width 2
sq_width 2
retire_width 6
scheduler_size 128
branch_mispredict_penalty 15
rob_size 352
lq_size 128
sq_size 72
ifetch_buffer_size 64
decode_buffer_size 32
dispatch_buffer_size 32
register_file_size 288
decode_latency 1
dispatch_latency 1
schedule_latency 1
execute_latency 1
page_size 4096
block_size 64
core_0_itlb_set 16
core_0_itlb_way 4
core_0_itlb_rq_size 16
core_0_itlb_wq_size 16
core_0_itlb_pq_size 0
core_0_itlb_mshr_size 8
core_0_itlb_hit_latency 1
core_0_itlb_fill_latency 1
core_0_itlb_max_tag_check 2
core_0_itlb_max_fill 2
core_0_dtlb_set 16
core_0_dtlb_way 4
core_0_dtlb_rq_size 16
core_0_dtlb_wq_size 16
core_0_dtlb_pq_size 0
core_0_dtlb_mshr_size 8
core_0_dtlb_hit_latency 1
core_0_dtlb_fill_latency 1
core_0_dtlb_max_tag_check 2
core_0_dtlb_max_fill 2
core_0_stlb_set 128
core_0_stlb_way 12
core_0_stlb_rq_size 32
core_0_stlb_wq_size 32
core_0_stlb_pq_size 0
core_0_stlb_mshr_size 16
core_0_stlb_hit_latency 4
core_0_stlb_fill_latency 4
core_0_stlb_max_tag_check 1
core_0_stlb_max_fill 1
core_0_l1i_set 64
core_0_l1i_way 8
core_0_l1i_rq_size 64
core_0_l1i_wq_size 64
core_0_l1i_pq_size 32
core_0_l1i_mshr_size 8
core_0_l1i_hit_latency 2
core_0_l1i_fill_latency 2
core_0_l1i_max_tag_check 2
core_0_l1i_max_fill 2
core_0_l1d_set 64
core_0_l1d_way 12
core_0_l1d_rq_size 64
core_0_l1d_wq_size 64
core_0_l1d_pq_size 8
core_0_l1d_mshr_size 16
core_0_l1d_hit_latency 2
core_0_l1d_fill_latency 3
core_0_l1d_max_tag_check 2
core_0_l1d_max_fill 2
core_0_l2c_set 1024
core_0_l2c_way 8
core_0_l2c_rq_size 32
core_0_l2c_wq_size 32
core_0_l2c_pq_size 16
core_0_l2c_mshr_size 32
core_0_l2c_hit_latency 5
core_0_l2c_fill_latency 5
core_0_l2c_max_tag_check 1
core_0_l2c_max_fill 1
llc_set 2048
llc_way 16
llc_rq_size 32
llc_wq_size 32
llc_pq_size 32
llc_mshr_size 64
llc_hit_latency 10
llc_fill_latency 10
llc_max_tag_check 1
llc_max_fill 1
dram_channels 1
dram_ranks 1
dram_bankgroups 8
dram_banks 4
dram_rows 65536
dram_columns 1024
dram_channel_width 8
dram_rq_size 64
dram_wq_size 64
dram_size 17179869184
core_0_itlb_prefetcher no
core_0_dtlb_prefetcher no
core_0_stlb_prefetcher no
core_0_l1i_prefetcher next_line
core_0_l1d_prefetcher berti
core_0_l2c_prefetcher pythia
llc_prefetcher no
llc_replacement drrip

Core_0_instructions 50000003
Core_0_cycles 13152299
Core_0_IPC 3.80162
Core_0_branch_prediction_accuracy 99.1059
Core_0_branch_MPKI 1.73024
Core_0_average_ROB_occupancy_at_mispredict 108.525

Core_0_ITLB_total_access 923
Core_0_ITLB_total_hit 923
Core_0_ITLB_total_miss 0
Core_0_ITLB_total_MPKI 0
Core_0_ITLB_total_miss_rate 0
Core_0_ITLB_demand_access 923
Core_0_ITLB_demand_hit 923
Core_0_ITLB_demand_miss 0
Core_0_ITLB_demand_MPKI 0
Core_0_ITLB_demand_miss_rate 0
Core_0_ITLB_load_access 923
Core_0_ITLB_load_hit 923
Core_0_ITLB_load_miss 0
Core_0_ITLB_load_MPKI 0
Core_0_ITLB_load_miss_rate 0
Core_0_ITLB_rfo_access 0
Core_0_ITLB_rfo_hit 0
Core_0_ITLB_rfo_miss 0
Core_0_ITLB_rfo_MPKI 0
Core_0_ITLB_rfo_miss_rate 0
Core_0_ITLB_prefetch_access 0
Core_0_ITLB_prefetch_hit 0
Core_0_ITLB_prefetch_miss 0
Core_0_ITLB_prefetch_MPKI 0
Core_0_ITLB_prefetch_miss_rate 0
Core_0_ITLB_writeback_access 0
Core_0_ITLB_writeback_hit 0
Core_0_ITLB_writeback_miss 0
Core_0_ITLB_writeback_MPKI 0
Core_0_ITLB_writeback_miss_rate 0
Core_0_ITLB_prefetch_requested 0
Core_0_ITLB_prefetch_issued 0
Core_0_ITLB_prefetch_useful 0
Core_0_ITLB_prefetch_useless 0
Core_0_ITLB_prefetch_late 0
Core_0_ITLB_prefetch_accuracy 0
Core_0_ITLB_prefetch_coverage 0

Core_0_DTLB_total_access 10692586
Core_0_DTLB_total_hit 10646401
Core_0_DTLB_total_miss 46185
Core_0_DTLB_total_MPKI 0.9237
Core_0_DTLB_total_miss_rate 0.00431935
Core_0_DTLB_demand_access 10692586
Core_0_DTLB_demand_hit 10646401
Core_0_DTLB_demand_miss 46185
Core_0_DTLB_demand_MPKI 0.9237
Core_0_DTLB_demand_miss_rate 0.00431935
Core_0_DTLB_load_access 10692586
Core_0_DTLB_load_hit 10646401
Core_0_DTLB_load_miss 46185
Core_0_DTLB_load_MPKI 0.9237
Core_0_DTLB_load_miss_rate 0.00431935
Core_0_DTLB_rfo_access 0
Core_0_DTLB_rfo_hit 0
Core_0_DTLB_rfo_miss 0
Core_0_DTLB_rfo_MPKI 0
Core_0_DTLB_rfo_miss_rate 0
Core_0_DTLB_prefetch_access 0
Core_0_DTLB_prefetch_hit 0
Core_0_DTLB_prefetch_miss 0
Core_0_DTLB_prefetch_MPKI 0
Core_0_DTLB_prefetch_miss_rate 0
Core_0_DTLB_writeback_access 0
Core_0_DTLB_writeback_hit 0
Core_0_DTLB_writeback_miss 0
Core_0_DTLB_writeback_MPKI 0
Core_0_DTLB_writeback_miss_rate 0
Core_0_DTLB_prefetch_requested 0
Core_0_DTLB_prefetch_issued 0
Core_0_DTLB_prefetch_useful 0
Core_0_DTLB_prefetch_useless 0
Core_0_DTLB_prefetch_late 0
Core_0_DTLB_prefetch_accuracy 0
Core_0_DTLB_prefetch_coverage 0

Core_0_STLB_total_access 21130
Core_0_STLB_total_hit 21043
Core_0_STLB_total_miss 87
Core_0_STLB_total_MPKI 0.00174
Core_0_STLB_total_miss_rate 0.00411737
Core_0_STLB_demand_access 21130
Core_0_STLB_demand_hit 21043
Core_0_STLB_demand_miss 87
Core_0_STLB_demand_MPKI 0.00174
Core_0_STLB_demand_miss_rate 0.00411737
Core_0_STLB_load_access 21130
Core_0_STLB_load_hit 21043
Core_0_STLB_load_miss 87
Core_0_STLB_load_MPKI 0.00174
Core_0_STLB_load_miss_rate 0.00411737
Core_0_STLB_rfo_access 0
Core_0_STLB_rfo_hit 0
Core_0_STLB_rfo_miss 0
Core_0_STLB_rfo_MPKI 0
Core_0_STLB_rfo_miss_rate 0
Core_0_STLB_prefetch_access 0
Core_0_STLB_prefetch_hit 0
Core_0_STLB_prefetch_miss 0
Core_0_STLB_prefetch_MPKI 0
Core_0_STLB_prefetch_miss_rate 0
Core_0_STLB_writeback_access 0
Core_0_STLB_writeback_hit 0
Core_0_STLB_writeback_miss 0
Core_0_STLB_writeback_MPKI 0
Core_0_STLB_writeback_miss_rate 0
Core_0_STLB_prefetch_requested 0
Core_0_STLB_prefetch_issued 0
Core_0_STLB_prefetch_useful 0
Core_0_STLB_prefetch_useless 0
Core_0_STLB_prefetch_late 0
Core_0_STLB_prefetch_accuracy 0
Core_0_STLB_prefetch_coverage 0

Core_0_L1I_total_access 1115
Core_0_L1I_total_hit 1115
Core_0_L1I_total_miss 0
Core_0_L1I_total_MPKI 0
Core_0_L1I_total_miss_rate 0
Core_0_L1I_demand_access 1115
Core_0_L1I_demand_hit 1115
Core_0_L1I_demand_miss 0
Core_0_L1I_demand_MPKI 0
Core_0_L1I_demand_miss_rate 0
Core_0_L1I_load_access 1115
Core_0_L1I_load_hit 1115
Core_0_L1I_load_miss 0
Core_0_L1I_load_MPKI 0
Core_0_L1I_load_miss_rate 0
Core_0_L1I_rfo_access 0
Core_0_L1I_rfo_hit 0
Core_0_L1I_rfo_miss 0
Core_0_L1I_rfo_MPKI 0
Core_0_L1I_rfo_miss_rate 0
Core_0_L1I_prefetch_access 0
Core_0_L1I_prefetch_hit 0
Core_0_L1I_prefetch_miss 0
Core_0_L1I_prefetch_MPKI 0
Core_0_L1I_prefetch_miss_rate 0
Core_0_L1I_writeback_access 0
Core_0_L1I_writeback_hit 0
Core_0_L1I_writeback_miss 0
Core_0_L1I_writeback_MPKI 0
Core_0_L1I_writeback_miss_rate 0
Core_0_L1I_prefetch_requested 0
Core_0_L1I_prefetch_issued 0
Core_0_L1I_prefetch_useful 0
Core_0_L1I_prefetch_useless 0
Core_0_L1I_prefetch_late 0
Core_0_L1I_prefetch_accuracy 0
Core_0_L1I_prefetch_coverage 0

Core_0_L1D_total_access 11015198
Core_0_L1D_total_hit 11001082
Core_0_L1D_total_miss 14116
Core_0_L1D_total_MPKI 0.28232
Core_0_L1D_total_miss_rate 0.0012815
Core_0_L1D_demand_access 9272136
Core_0_L1D_demand_hit 9264522
Core_0_L1D_demand_miss 7614
Core_0_L1D_demand_MPKI 0.15228
Core_0_L1D_demand_miss_rate 0.00082117
Core_0_L1D_load_access 9272136
Core_0_L1D_load_hit 9264522
Core_0_L1D_load_miss 7614
Core_0_L1D_load_MPKI 0.15228
Core_0_L1D_load_miss_rate 0.00082117
Core_0_L1D_rfo_access 0
Core_0_L1D_rfo_hit 0
Core_0_L1D_rfo_miss 0
Core_0_L1D_rfo_MPKI 0
Core_0_L1D_rfo_miss_rate 0
Core_0_L1D_prefetch_access 157898
Core_0_L1D_prefetch_hit 152047
Core_0_L1D_prefetch_miss 5851
Core_0_L1D_prefetch_MPKI 0.11702
Core_0_L1D_prefetch_miss_rate 0.0370556
Core_0_L1D_writeback_access 1585164
Core_0_L1D_writeback_hit 1584513
Core_0_L1D_writeback_miss 651
Core_0_L1D_writeback_MPKI 0.01302
Core_0_L1D_writeback_miss_rate 0.000410683
Core_0_L1D_prefetch_requested 158041
Core_0_L1D_prefetch_issued 157891
Core_0_L1D_prefetch_useful 3838
Core_0_L1D_prefetch_useless 1507
Core_0_L1D_prefetch_late 49
Core_0_L1D_prefetch_accuracy 0.0243079
Core_0_L1D_prefetch_coverage 0.335138

Core_0_L2C_total_access 46387
Core_0_L2C_total_hit 40538
Core_0_L2C_total_miss 5849
Core_0_L2C_total_MPKI 0.11698
Core_0_L2C_total_miss_rate 0.126091
Core_0_L2C_demand_access 5905
Core_0_L2C_demand_hit 5704
Core_0_L2C_demand_miss 201
Core_0_L2C_demand_MPKI 0.00402
Core_0_L2C_demand_miss_rate 0.034039
Core_0_L2C_load_access 5658
Core_0_L2C_load_hit 5604
Core_0_L2C_load_miss 54
Core_0_L2C_load_MPKI 0.00108
Core_0_L2C_load_miss_rate 0.00954401
Core_0_L2C_rfo_access 247
Core_0_L2C_rfo_hit 100
Core_0_L2C_rfo_miss 147
Core_0_L2C_rfo_MPKI 0.00294
Core_0_L2C_rfo_miss_rate 0.595142
Core_0_L2C_prefetch_access 38930
Core_0_L2C_prefetch_hit 33283
Core_0_L2C_prefetch_miss 5647
Core_0_L2C_prefetch_MPKI 0.11294
Core_0_L2C_prefetch_miss_rate 0.145055
Core_0_L2C_writeback_access 1552
Core_0_L2C_writeback_hit 1551
Core_0_L2C_writeback_miss 1
Core_0_L2C_writeback_MPKI 2e-05
Core_0_L2C_writeback_miss_rate 0.00064433
Core_0_L2C_prefetch_requested 33583
Core_0_L2C_prefetch_issued 33518
Core_0_L2C_prefetch_useful 5159
Core_0_L2C_prefetch_useless 21
Core_0_L2C_prefetch_late 0
Core_0_L2C_prefetch_accuracy 0.153917
Core_0_L2C_prefetch_coverage 0.9625

Core_0_LLC_total_access 5531
Core_0_LLC_total_hit 47
Core_0_LLC_total_miss 5484
Core_0_LLC_total_MPKI 0.10968
Core_0_LLC_total_miss_rate 0.991502
Core_0_LLC_demand_access 201
Core_0_LLC_demand_hit 1
Core_0_LLC_demand_miss 200
Core_0_LLC_demand_MPKI 0.004
Core_0_LLC_demand_miss_rate 0.995025
Core_0_LLC_load_access 54
Core_0_LLC_load_hit 1
Core_0_LLC_load_miss 53
Core_0_LLC_load_MPKI 0.00106
Core_0_LLC_load_miss_rate 0.981481
Core_0_LLC_rfo_access 147
Core_0_LLC_rfo_hit 0
Core_0_LLC_rfo_miss 147
Core_0_LLC_rfo_MPKI 0.00294
Core_0_LLC_rfo_miss_rate 1
Core_0_LLC_prefetch_access 5286
Core_0_LLC_prefetch_hit 2
Core_0_LLC_prefetch_miss 5284
Core_0_LLC_prefetch_MPKI 0.10568
Core_0_LLC_prefetch_miss_rate 0.999622
Core_0_LLC_writeback_access 44
Core_0_LLC_writeback_hit 44
Core_0_LLC_writeback_miss 0
Core_0_LLC_writeback_MPKI 0
Core_0_LLC_writeback_miss_rate 0
Core_0_LLC_prefetch_requested 0
Core_0_LLC_prefetch_issued 0
Core_0_LLC_prefetch_useful 0
Core_0_LLC_prefetch_useless 0
Core_0_LLC_prefetch_late 0
Core_0_LLC_prefetch_accuracy 0
Core_0_LLC_prefetch_coverage 0

[DRAM Statistics]
Channel_0_RQ_row_buffer_hit 4
Channel_0_RQ_row_buffer_miss 5490
Channel_0_WQ_row_buffer_hit 0
Channel_0_WQ_row_buffer_miss 0
Channel_0_WQ_full 0
Channel_0_dbus_congested 2065
DRAM_total_RQ_row_buffer_hit 4
DRAM_total_RQ_row_buffer_miss 5490
DRAM_total_WQ_row_buffer_hit 0
DRAM_total_WQ_row_buffer_miss 0
DRAM_total_WQ_full 0
DRAM_total_dbus_congested 2065
DRAM_avg_congested_cycle 2.78692

======STLB miss causes ========
Core_0_STLB_miss_cause_breakdown
Core_0_STLB_cause_Demand_Data_miss 55
Core_0_STLB_cause_Demand_Data_miss_rate 0.00260293
Core_0_STLB_cause_Demand_Instruction_miss 0
Core_0_STLB_cause_Demand_Instruction_miss_rate 0
Core_0_STLB_cause_L1D_Prefetch_miss 32
Core_0_STLB_cause_L1D_Prefetch_miss_rate 0.00151443
Core_0_STLB_cause_L1I_Prefetch_miss 0
Core_0_STLB_cause_L1I_Prefetch_miss_rate 0
Core_0_STLB_cause_Other_miss 0
Core_0_STLB_cause_Other_miss_rate 0
Core_0_STLB_Demand_miss 55
Core_0_STLB_Demand_miss_rate 0.00260293
Core_0_STLB_L1D_Prefetch_miss 32
Core_0_STLB_L1D_Prefetch_miss_rate 0.00151443
Core_0_STLB_Other_miss 0
Core_0_STLB_Other_miss_rate 0
