[VMEM] WARNING: physical memory size is smaller than virtual memory size.

*** ChampSim Multicore Out-of-Order Simulator ***
Warmup Instructions: 20000000
Simulation Instructions: 50000000
Number of CPUs: 1
Page size: 4096
Core 0: /data0/tzh/champsim_traces/SPEC17/648.exchange2_s-1699B.champsimtrace.xz
 L1D Berti prefetcher
Off-chip DRAM Size: 16 GiB Channels: 1 Width: 64-bit Data Rate: 3205 MT/s
Warmup halting CPU 0 at instruction 20000001 cycle 4626703 for remainder of phase
Warmup finished CPU 0 instructions: 20000001 cycles: 4626703 cumulative IPC: 4.323 (Simulation time: 00 hr 01 min 04 sec)
Warmup complete CPU 0 instructions: 20000001 cycles: 4626703 cumulative IPC: 4.323 (Simulation time: 00 hr 01 min 04 sec)
Simulation finished CPU 0 instructions: 50000002 cycles: 15783005 cumulative IPC: 3.168 (Simulation time: 00 hr 03 min 47 sec)
Simulation complete CPU 0 instructions: 50000002 cycles: 15783005 cumulative IPC: 3.168 (Simulation time: 00 hr 03 min 47 sec)

ChampSim completed all CPUs

=== Simulation ===
CPU 0 runs /data0/tzh/champsim_traces/SPEC17/648.exchange2_s-1699B.champsimtrace.xz

Region of Interest Statistics

CPU 0 cumulative IPC: 3.168 instructions: 50000002 cycles: 15783005
CPU 0 Branch Prediction Accuracy: 97.8% MPKI: 3.094 Average ROB Occupancy at Mispredict: 40.36
Branch type MPKI
BRANCH_DIRECT_JUMP: 0.1029
BRANCH_INDIRECT: 0
BRANCH_CONDITIONAL: 2.988
BRANCH_DIRECT_CALL: 0.0016
BRANCH_INDIRECT_CALL: 0
BRANCH_RETURN: 0.0016

cpu0->cpu0_STLB TOTAL        ACCESS:         35 HIT:          0 MISS:         35 MSHR_MERGE:          0
cpu0->cpu0_STLB LOAD         ACCESS:         35 HIT:          0 MISS:         35 MSHR_MERGE:          0
cpu0->cpu0_STLB RFO          ACCESS:          0 HIT:          0 MISS:          0 MSHR_MERGE:          0
cpu0->cpu0_STLB PREFETCH     ACCESS:          0 HIT:          0 MISS:          0 MSHR_MERGE:          0
cpu0->cpu0_STLB WRITE        ACCESS:          0 HIT:          0 MISS:          0 MSHR_MERGE:          0
cpu0->cpu0_STLB TRANSLATION  ACCESS:          0 HIT:          0 MISS:          0 MSHR_MERGE:          0
cpu0->cpu0_STLB PREFETCH REQUESTED:          0 ISSUED:          0 USEFUL:          0 USELESS:          0 LATE:          0
cpu0->cpu0_STLB AVERAGE MISS LATENCY: 265.5 cycles
cpu0->cpu0_L2C TOTAL        ACCESS:       1584 HIT:        612 MISS:        972 MSHR_MERGE:         14
cpu0->cpu0_L2C LOAD         ACCESS:       1425 HIT:        536 MISS:        889 MSHR_MERGE:          1
cpu0->cpu0_L2C RFO          ACCESS:         35 HIT:         10 MISS:         25 MSHR_MERGE:          0
cpu0->cpu0_L2C PREFETCH     ACCESS:        115 HIT:         66 MISS:         49 MSHR_MERGE:         13
cpu0->cpu0_L2C WRITE        ACCESS:          0 HIT:          0 MISS:          0 MSHR_MERGE:          0
cpu0->cpu0_L2C TRANSLATION  ACCESS:          9 HIT:          0 MISS:          9 MSHR_MERGE:          0
cpu0->cpu0_L2C PREFETCH REQUESTED:        103 ISSUED:        103 USEFUL:         25 USELESS:          0 LATE:          1
cpu0->cpu0_L2C AVERAGE MISS LATENCY: 189.2 cycles
cpu0->cpu0_L1I TOTAL        ACCESS:    5175211 HIT:    5173072 MISS:       2139 MSHR_MERGE:        748
cpu0->cpu0_L1I LOAD         ACCESS:    5175211 HIT:    5173072 MISS:       2139 MSHR_MERGE:        748
cpu0->cpu0_L1I RFO          ACCESS:          0 HIT:          0 MISS:          0 MSHR_MERGE:          0
cpu0->cpu0_L1I PREFETCH     ACCESS:          0 HIT:          0 MISS:          0 MSHR_MERGE:          0
cpu0->cpu0_L1I WRITE        ACCESS:          0 HIT:          0 MISS:          0 MSHR_MERGE:          0
cpu0->cpu0_L1I TRANSLATION  ACCESS:          0 HIT:          0 MISS:          0 MSHR_MERGE:          0
cpu0->cpu0_L1I PREFETCH REQUESTED:          0 ISSUED:          0 USEFUL:          0 USELESS:          0 LATE:          0
cpu0->cpu0_L1I AVERAGE MISS LATENCY: 123 cycles
cpu0->cpu0_L1D TOTAL        ACCESS:   12589001 HIT:   12588652 MISS:        349 MSHR_MERGE:        259
cpu0->cpu0_L1D LOAD         ACCESS:    5374921 HIT:    5374866 MISS:         55 MSHR_MERGE:         21
cpu0->cpu0_L1D RFO          ACCESS:          0 HIT:          0 MISS:          0 MSHR_MERGE:          0
cpu0->cpu0_L1D PREFETCH     ACCESS:         14 HIT:          2 MISS:         12 MSHR_MERGE:          0
cpu0->cpu0_L1D WRITE        ACCESS:    7213995 HIT:    7213722 MISS:        273 MSHR_MERGE:        238
cpu0->cpu0_L1D TRANSLATION  ACCESS:         71 HIT:         62 MISS:          9 MSHR_MERGE:          0
cpu0->cpu0_L1D PREFETCH REQUESTED:         14 ISSUED:         14 USEFUL:         21 USELESS:          0 LATE:          0
cpu0->cpu0_L1D AVERAGE MISS LATENCY: 189.7 cycles
cpu0->cpu0_ITLB TOTAL        ACCESS:    4120232 HIT:    4120188 MISS:         44 MSHR_MERGE:         20
cpu0->cpu0_ITLB LOAD         ACCESS:    4120232 HIT:    4120188 MISS:         44 MSHR_MERGE:         20
cpu0->cpu0_ITLB RFO          ACCESS:          0 HIT:          0 MISS:          0 MSHR_MERGE:          0
cpu0->cpu0_ITLB PREFETCH     ACCESS:          0 HIT:          0 MISS:          0 MSHR_MERGE:          0
cpu0->cpu0_ITLB WRITE        ACCESS:          0 HIT:          0 MISS:          0 MSHR_MERGE:          0
cpu0->cpu0_ITLB TRANSLATION  ACCESS:          0 HIT:          0 MISS:          0 MSHR_MERGE:          0
cpu0->cpu0_ITLB PREFETCH REQUESTED:          0 ISSUED:          0 USEFUL:          0 USELESS:          0 LATE:          0
cpu0->cpu0_ITLB AVERAGE MISS LATENCY: 248.8 cycles
cpu0->cpu0_DTLB TOTAL        ACCESS:   10719828 HIT:   10719797 MISS:         31 MSHR_MERGE:         20
cpu0->cpu0_DTLB LOAD         ACCESS:   10719828 HIT:   10719797 MISS:         31 MSHR_MERGE:         20
cpu0->cpu0_DTLB RFO          ACCESS:          0 HIT:          0 MISS:          0 MSHR_MERGE:          0
cpu0->cpu0_DTLB PREFETCH     ACCESS:          0 HIT:          0 MISS:          0 MSHR_MERGE:          0
cpu0->cpu0_DTLB WRITE        ACCESS:          0 HIT:          0 MISS:          0 MSHR_MERGE:          0
cpu0->cpu0_DTLB TRANSLATION  ACCESS:          0 HIT:          0 MISS:          0 MSHR_MERGE:          0
cpu0->cpu0_DTLB PREFETCH REQUESTED:          0 ISSUED:          0 USEFUL:          0 USELESS:          0 LATE:          0
cpu0->cpu0_DTLB AVERAGE MISS LATENCY: 321 cycles
cpu0->LLC TOTAL        ACCESS:        958 HIT:          0 MISS:        958 MSHR_MERGE:          0
cpu0->LLC LOAD         ACCESS:        888 HIT:          0 MISS:        888 MSHR_MERGE:          0
cpu0->LLC RFO          ACCESS:         25 HIT:          0 MISS:         25 MSHR_MERGE:          0
cpu0->LLC PREFETCH     ACCESS:         36 HIT:          0 MISS:         36 MSHR_MERGE:          0
cpu0->LLC WRITE        ACCESS:          0 HIT:          0 MISS:          0 MSHR_MERGE:          0
cpu0->LLC TRANSLATION  ACCESS:          9 HIT:          0 MISS:          9 MSHR_MERGE:          0
cpu0->LLC PREFETCH REQUESTED:          0 ISSUED:          0 USEFUL:          0 USELESS:          0 LATE:          0
cpu0->LLC AVERAGE MISS LATENCY: 173.2 cycles

DRAM Statistics

Channel 0 RQ ROW_BUFFER_HIT:         45
  ROW_BUFFER_MISS:        913
  AVG DBUS CONGESTED CYCLE: 2.951
Channel 0 WQ ROW_BUFFER_HIT:          0
  ROW_BUFFER_MISS:          0
  FULL:          0
Channel 0 REFRESHES ISSUED:       1315

[ROI Statistics]
[System Configuration]
num_cpus 1
cpu_freq 4000
fetch_width 6
decode_width 6
dispatch_width 6
execute_width 6
lq_width 2
sq_width 2
retire_width 6
scheduler_size 128
branch_mispredict_penalty 15
rob_size 352
lq_size 128
sq_size 72
ifetch_buffer_size 64
decode_buffer_size 32
dispatch_buffer_size 32
register_file_size 288
decode_latency 1
dispatch_latency 1
schedule_latency 1
execute_latency 1
page_size 4096
block_size 64
core_0_itlb_set 16
core_0_itlb_way 4
core_0_itlb_rq_size 16
core_0_itlb_wq_size 16
core_0_itlb_pq_size 0
core_0_itlb_mshr_size 8
core_0_itlb_hit_latency 1
core_0_itlb_fill_latency 1
core_0_itlb_max_tag_check 2
core_0_itlb_max_fill 2
core_0_dtlb_set 16
core_0_dtlb_way 4
core_0_dtlb_rq_size 16
core_0_dtlb_wq_size 16
core_0_dtlb_pq_size 0
core_0_dtlb_mshr_size 8
core_0_dtlb_hit_latency 1
core_0_dtlb_fill_latency 1
core_0_dtlb_max_tag_check 2
core_0_dtlb_max_fill 2
core_0_stlb_set 128
core_0_stlb_way 12
core_0_stlb_rq_size 32
core_0_stlb_wq_size 32
core_0_stlb_pq_size 0
core_0_stlb_mshr_size 16
core_0_stlb_hit_latency 4
core_0_stlb_fill_latency 4
core_0_stlb_max_tag_check 1
core_0_stlb_max_fill 1
core_0_l1i_set 64
core_0_l1i_way 8
core_0_l1i_rq_size 64
core_0_l1i_wq_size 64
core_0_l1i_pq_size 32
core_0_l1i_mshr_size 8
core_0_l1i_hit_latency 2
core_0_l1i_fill_latency 2
core_0_l1i_max_tag_check 2
core_0_l1i_max_fill 2
core_0_l1d_set 64
core_0_l1d_way 12
core_0_l1d_rq_size 64
core_0_l1d_wq_size 64
core_0_l1d_pq_size 8
core_0_l1d_mshr_size 16
core_0_l1d_hit_latency 2
core_0_l1d_fill_latency 3
core_0_l1d_max_tag_check 2
core_0_l1d_max_fill 2
core_0_l2c_set 1024
core_0_l2c_way 8
core_0_l2c_rq_size 32
core_0_l2c_wq_size 32
core_0_l2c_pq_size 16
core_0_l2c_mshr_size 32
core_0_l2c_hit_latency 5
core_0_l2c_fill_latency 5
core_0_l2c_max_tag_check 1
core_0_l2c_max_fill 1
llc_set 2048
llc_way 16
llc_rq_size 32
llc_wq_size 32
llc_pq_size 32
llc_mshr_size 64
llc_hit_latency 10
llc_fill_latency 10
llc_max_tag_check 1
llc_max_fill 1
dram_channels 1
dram_ranks 1
dram_bankgroups 8
dram_banks 4
dram_rows 65536
dram_columns 1024
dram_channel_width 8
dram_rq_size 64
dram_wq_size 64
dram_size 17179869184
core_0_itlb_prefetcher no
core_0_dtlb_prefetcher no
core_0_stlb_prefetcher no
core_0_l1i_prefetcher next_line
core_0_l1d_prefetcher berti
core_0_l2c_prefetcher pythia
llc_prefetcher no
llc_replacement drrip

Core_0_instructions 50000002
Core_0_cycles 15783005
Core_0_IPC 3.16796
Core_0_branch_prediction_accuracy 97.8005
Core_0_branch_MPKI 3.0945
Core_0_average_ROB_occupancy_at_mispredict 40.3634

Core_0_ITLB_total_access 4120232
Core_0_ITLB_total_hit 4120188
Core_0_ITLB_total_miss 44
Core_0_ITLB_total_MPKI 0.00088
Core_0_ITLB_total_miss_rate 1.0679e-05
Core_0_ITLB_demand_access 4120232
Core_0_ITLB_demand_hit 4120188
Core_0_ITLB_demand_miss 44
Core_0_ITLB_demand_MPKI 0.00088
Core_0_ITLB_demand_miss_rate 1.0679e-05
Core_0_ITLB_load_access 4120232
Core_0_ITLB_load_hit 4120188
Core_0_ITLB_load_miss 44
Core_0_ITLB_load_MPKI 0.00088
Core_0_ITLB_load_miss_rate 1.0679e-05
Core_0_ITLB_rfo_access 0
Core_0_ITLB_rfo_hit 0
Core_0_ITLB_rfo_miss 0
Core_0_ITLB_rfo_MPKI 0
Core_0_ITLB_rfo_miss_rate 0
Core_0_ITLB_prefetch_access 0
Core_0_ITLB_prefetch_hit 0
Core_0_ITLB_prefetch_miss 0
Core_0_ITLB_prefetch_MPKI 0
Core_0_ITLB_prefetch_miss_rate 0
Core_0_ITLB_writeback_access 0
Core_0_ITLB_writeback_hit 0
Core_0_ITLB_writeback_miss 0
Core_0_ITLB_writeback_MPKI 0
Core_0_ITLB_writeback_miss_rate 0
Core_0_ITLB_prefetch_requested 0
Core_0_ITLB_prefetch_issued 0
Core_0_ITLB_prefetch_useful 0
Core_0_ITLB_prefetch_useless 0
Core_0_ITLB_prefetch_late 0
Core_0_ITLB_prefetch_accuracy 0
Core_0_ITLB_prefetch_coverage 0

Core_0_DTLB_total_access 10719828
Core_0_DTLB_total_hit 10719797
Core_0_DTLB_total_miss 31
Core_0_DTLB_total_MPKI 0.00062
Core_0_DTLB_total_miss_rate 2.89184e-06
Core_0_DTLB_demand_access 10719828
Core_0_DTLB_demand_hit 10719797
Core_0_DTLB_demand_miss 31
Core_0_DTLB_demand_MPKI 0.00062
Core_0_DTLB_demand_miss_rate 2.89184e-06
Core_0_DTLB_load_access 10719828
Core_0_DTLB_load_hit 10719797
Core_0_DTLB_load_miss 31
Core_0_DTLB_load_MPKI 0.00062
Core_0_DTLB_load_miss_rate 2.89184e-06
Core_0_DTLB_rfo_access 0
Core_0_DTLB_rfo_hit 0
Core_0_DTLB_rfo_miss 0
Core_0_DTLB_rfo_MPKI 0
Core_0_DTLB_rfo_miss_rate 0
Core_0_DTLB_prefetch_access 0
Core_0_DTLB_prefetch_hit 0
Core_0_DTLB_prefetch_miss 0
Core_0_DTLB_prefetch_MPKI 0
Core_0_DTLB_prefetch_miss_rate 0
Core_0_DTLB_writeback_access 0
Core_0_DTLB_writeback_hit 0
Core_0_DTLB_writeback_miss 0
Core_0_DTLB_writeback_MPKI 0
Core_0_DTLB_writeback_miss_rate 0
Core_0_DTLB_prefetch_requested 0
Core_0_DTLB_prefetch_issued 0
Core_0_DTLB_prefetch_useful 0
Core_0_DTLB_prefetch_useless 0
Core_0_DTLB_prefetch_late 0
Core_0_DTLB_prefetch_accuracy 0
Core_0_DTLB_prefetch_coverage 0

Core_0_STLB_total_access 35
Core_0_STLB_total_hit 0
Core_0_STLB_total_miss 35
Core_0_STLB_total_MPKI 0.0007
Core_0_STLB_total_miss_rate 1
Core_0_STLB_demand_access 35
Core_0_STLB_demand_hit 0
Core_0_STLB_demand_miss 35
Core_0_STLB_demand_MPKI 0.0007
Core_0_STLB_demand_miss_rate 1
Core_0_STLB_load_access 35
Core_0_STLB_load_hit 0
Core_0_STLB_load_miss 35
Core_0_STLB_load_MPKI 0.0007
Core_0_STLB_load_miss_rate 1
Core_0_STLB_rfo_access 0
Core_0_STLB_rfo_hit 0
Core_0_STLB_rfo_miss 0
Core_0_STLB_rfo_MPKI 0
Core_0_STLB_rfo_miss_rate 0
Core_0_STLB_prefetch_access 0
Core_0_STLB_prefetch_hit 0
Core_0_STLB_prefetch_miss 0
Core_0_STLB_prefetch_MPKI 0
Core_0_STLB_prefetch_miss_rate 0
Core_0_STLB_writeback_access 0
Core_0_STLB_writeback_hit 0
Core_0_STLB_writeback_miss 0
Core_0_STLB_writeback_MPKI 0
Core_0_STLB_writeback_miss_rate 0
Core_0_STLB_prefetch_requested 0
Core_0_STLB_prefetch_issued 0
Core_0_STLB_prefetch_useful 0
Core_0_STLB_prefetch_useless 0
Core_0_STLB_prefetch_late 0
Core_0_STLB_prefetch_accuracy 0
Core_0_STLB_prefetch_coverage 0

Core_0_L1I_total_access 5175211
Core_0_L1I_total_hit 5173072
Core_0_L1I_total_miss 2139
Core_0_L1I_total_MPKI 0.04278
Core_0_L1I_total_miss_rate 0.000413316
Core_0_L1I_demand_access 5175211
Core_0_L1I_demand_hit 5173072
Core_0_L1I_demand_miss 2139
Core_0_L1I_demand_MPKI 0.04278
Core_0_L1I_demand_miss_rate 0.000413316
Core_0_L1I_load_access 5175211
Core_0_L1I_load_hit 5173072
Core_0_L1I_load_miss 2139
Core_0_L1I_load_MPKI 0.04278
Core_0_L1I_load_miss_rate 0.000413316
Core_0_L1I_rfo_access 0
Core_0_L1I_rfo_hit 0
Core_0_L1I_rfo_miss 0
Core_0_L1I_rfo_MPKI 0
Core_0_L1I_rfo_miss_rate 0
Core_0_L1I_prefetch_access 0
Core_0_L1I_prefetch_hit 0
Core_0_L1I_prefetch_miss 0
Core_0_L1I_prefetch_MPKI 0
Core_0_L1I_prefetch_miss_rate 0
Core_0_L1I_writeback_access 0
Core_0_L1I_writeback_hit 0
Core_0_L1I_writeback_miss 0
Core_0_L1I_writeback_MPKI 0
Core_0_L1I_writeback_miss_rate 0
Core_0_L1I_prefetch_requested 0
Core_0_L1I_prefetch_issued 0
Core_0_L1I_prefetch_useful 0
Core_0_L1I_prefetch_useless 0
Core_0_L1I_prefetch_late 0
Core_0_L1I_prefetch_accuracy 0
Core_0_L1I_prefetch_coverage 0

Core_0_L1D_total_access 12588930
Core_0_L1D_total_hit 12588590
Core_0_L1D_total_miss 340
Core_0_L1D_total_MPKI 0.0068
Core_0_L1D_total_miss_rate 2.70079e-05
Core_0_L1D_demand_access 5374921
Core_0_L1D_demand_hit 5374866
Core_0_L1D_demand_miss 55
Core_0_L1D_demand_MPKI 0.0011
Core_0_L1D_demand_miss_rate 1.02327e-05
Core_0_L1D_load_access 5374921
Core_0_L1D_load_hit 5374866
Core_0_L1D_load_miss 55
Core_0_L1D_load_MPKI 0.0011
Core_0_L1D_load_miss_rate 1.02327e-05
Core_0_L1D_rfo_access 0
Core_0_L1D_rfo_hit 0
Core_0_L1D_rfo_miss 0
Core_0_L1D_rfo_MPKI 0
Core_0_L1D_rfo_miss_rate 0
Core_0_L1D_prefetch_access 14
Core_0_L1D_prefetch_hit 2
Core_0_L1D_prefetch_miss 12
Core_0_L1D_prefetch_MPKI 0.00024
Core_0_L1D_prefetch_miss_rate 0.857143
Core_0_L1D_writeback_access 7213995
Core_0_L1D_writeback_hit 7213722
Core_0_L1D_writeback_miss 273
Core_0_L1D_writeback_MPKI 0.00546
Core_0_L1D_writeback_miss_rate 3.78431e-05
Core_0_L1D_prefetch_requested 14
Core_0_L1D_prefetch_issued 14
Core_0_L1D_prefetch_useful 21
Core_0_L1D_prefetch_useless 0
Core_0_L1D_prefetch_late 0
Core_0_L1D_prefetch_accuracy 1.5
Core_0_L1D_prefetch_coverage 0.276316

Core_0_L2C_total_access 1575
Core_0_L2C_total_hit 612
Core_0_L2C_total_miss 963
Core_0_L2C_total_MPKI 0.01926
Core_0_L2C_total_miss_rate 0.611429
Core_0_L2C_demand_access 1460
Core_0_L2C_demand_hit 546
Core_0_L2C_demand_miss 914
Core_0_L2C_demand_MPKI 0.01828
Core_0_L2C_demand_miss_rate 0.626027
Core_0_L2C_load_access 1425
Core_0_L2C_load_hit 536
Core_0_L2C_load_miss 889
Core_0_L2C_load_MPKI 0.01778
Core_0_L2C_load_miss_rate 0.62386
Core_0_L2C_rfo_access 35
Core_0_L2C_rfo_hit 10
Core_0_L2C_rfo_miss 25
Core_0_L2C_rfo_MPKI 0.0005
Core_0_L2C_rfo_miss_rate 0.714286
Core_0_L2C_prefetch_access 115
Core_0_L2C_prefetch_hit 66
Core_0_L2C_prefetch_miss 49
Core_0_L2C_prefetch_MPKI 0.00098
Core_0_L2C_prefetch_miss_rate 0.426087
Core_0_L2C_writeback_access 0
Core_0_L2C_writeback_hit 0
Core_0_L2C_writeback_miss 0
Core_0_L2C_writeback_MPKI 0
Core_0_L2C_writeback_miss_rate 0
Core_0_L2C_prefetch_requested 103
Core_0_L2C_prefetch_issued 103
Core_0_L2C_prefetch_useful 25
Core_0_L2C_prefetch_useless 0
Core_0_L2C_prefetch_late 1
Core_0_L2C_prefetch_accuracy 0.242718
Core_0_L2C_prefetch_coverage 0.0266241

Core_0_LLC_total_access 949
Core_0_LLC_total_hit 0
Core_0_LLC_total_miss 949
Core_0_LLC_total_MPKI 0.01898
Core_0_LLC_total_miss_rate 1
Core_0_LLC_demand_access 913
Core_0_LLC_demand_hit 0
Core_0_LLC_demand_miss 913
Core_0_LLC_demand_MPKI 0.01826
Core_0_LLC_demand_miss_rate 1
Core_0_LLC_load_access 888
Core_0_LLC_load_hit 0
Core_0_LLC_load_miss 888
Core_0_LLC_load_MPKI 0.01776
Core_0_LLC_load_miss_rate 1
Core_0_LLC_rfo_access 25
Core_0_LLC_rfo_hit 0
Core_0_LLC_rfo_miss 25
Core_0_LLC_rfo_MPKI 0.0005
Core_0_LLC_rfo_miss_rate 1
Core_0_LLC_prefetch_access 36
Core_0_LLC_prefetch_hit 0
Core_0_LLC_prefetch_miss 36
Core_0_LLC_prefetch_MPKI 0.00072
Core_0_LLC_prefetch_miss_rate 1
Core_0_LLC_writeback_access 0
Core_0_LLC_writeback_hit 0
Core_0_LLC_writeback_miss 0
Core_0_LLC_writeback_MPKI 0
Core_0_LLC_writeback_miss_rate 0
Core_0_LLC_prefetch_requested 0
Core_0_LLC_prefetch_issued 0
Core_0_LLC_prefetch_useful 0
Core_0_LLC_prefetch_useless 0
Core_0_LLC_prefetch_late 0
Core_0_LLC_prefetch_accuracy 0
Core_0_LLC_prefetch_coverage 0

[DRAM Statistics]
Channel_0_RQ_row_buffer_hit 45
Channel_0_RQ_row_buffer_miss 913
Channel_0_WQ_row_buffer_hit 0
Channel_0_WQ_row_buffer_miss 0
Channel_0_WQ_full 0
Channel_0_dbus_congested 1270
DRAM_total_RQ_row_buffer_hit 45
DRAM_total_RQ_row_buffer_miss 913
DRAM_total_WQ_row_buffer_hit 0
DRAM_total_WQ_row_buffer_miss 0
DRAM_total_WQ_full 0
DRAM_total_dbus_congested 1270
DRAM_avg_congested_cycle 2.95118

======STLB miss causes ========
Core_0_STLB_miss_cause_breakdown
Core_0_STLB_cause_Demand_Data_miss 11
Core_0_STLB_cause_Demand_Data_miss_rate 0.314286
Core_0_STLB_cause_Demand_Instruction_miss 24
Core_0_STLB_cause_Demand_Instruction_miss_rate 0.685714
Core_0_STLB_cause_L1D_Prefetch_miss 0
Core_0_STLB_cause_L1D_Prefetch_miss_rate 0
Core_0_STLB_cause_L1I_Prefetch_miss 0
Core_0_STLB_cause_L1I_Prefetch_miss_rate 0
Core_0_STLB_cause_Other_miss 0
Core_0_STLB_cause_Other_miss_rate 0
Core_0_STLB_Demand_miss 35
Core_0_STLB_Demand_miss_rate 1
Core_0_STLB_L1D_Prefetch_miss 0
Core_0_STLB_L1D_Prefetch_miss_rate 0
Core_0_STLB_Other_miss 0
Core_0_STLB_Other_miss_rate 0
