[VMEM] WARNING: physical memory size is smaller than virtual memory size.

*** ChampSim Multicore Out-of-Order Simulator ***
Warmup Instructions: 20000000
Simulation Instructions: 50000000
Number of CPUs: 1
Page size: 4096
Core 0: /data0/tzh/champsim_traces/SPEC17/649.fotonik3d_s-1176B.champsimtrace.xz
 L1D Berti prefetcher
Off-chip DRAM Size: 16 GiB Channels: 1 Width: 64-bit Data Rate: 3205 MT/s
Warmup halting CPU 0 at instruction 20000003 cycle 4411044 for remainder of phase
Warmup finished CPU 0 instructions: 20000003 cycles: 4411044 cumulative IPC: 4.534 (Simulation time: 00 hr 00 min 51 sec)
Warmup complete CPU 0 instructions: 20000003 cycles: 4411044 cumulative IPC: 4.534 (Simulation time: 00 hr 00 min 51 sec)
Simulation finished CPU 0 instructions: 50000001 cycles: 21499350 cumulative IPC: 2.326 (Simulation time: 00 hr 05 min 09 sec)
Simulation complete CPU 0 instructions: 50000001 cycles: 21499350 cumulative IPC: 2.326 (Simulation time: 00 hr 05 min 09 sec)

ChampSim completed all CPUs

=== Simulation ===
CPU 0 runs /data0/tzh/champsim_traces/SPEC17/649.fotonik3d_s-1176B.champsimtrace.xz

Region of Interest Statistics

CPU 0 cumulative IPC: 2.326 instructions: 50000001 cycles: 21499350
CPU 0 Branch Prediction Accuracy: 99.98% MPKI: 0.00438 Average ROB Occupancy at Mispredict: 349.6
Branch type MPKI
BRANCH_DIRECT_JUMP: 0
BRANCH_INDIRECT: 0
BRANCH_CONDITIONAL: 0.00438
BRANCH_DIRECT_CALL: 0
BRANCH_INDIRECT_CALL: 0
BRANCH_RETURN: 0

cpu0->cpu0_STLB TOTAL        ACCESS:      11882 HIT:       5018 MISS:       6864 MSHR_MERGE:          0
cpu0->cpu0_STLB LOAD         ACCESS:      11882 HIT:       5018 MISS:       6864 MSHR_MERGE:          0
cpu0->cpu0_STLB RFO          ACCESS:          0 HIT:          0 MISS:          0 MSHR_MERGE:          0
cpu0->cpu0_STLB PREFETCH     ACCESS:          0 HIT:          0 MISS:          0 MSHR_MERGE:          0
cpu0->cpu0_STLB WRITE        ACCESS:          0 HIT:          0 MISS:          0 MSHR_MERGE:          0
cpu0->cpu0_STLB TRANSLATION  ACCESS:          0 HIT:          0 MISS:          0 MSHR_MERGE:          0
cpu0->cpu0_STLB PREFETCH REQUESTED:          0 ISSUED:          0 USEFUL:          0 USELESS:          0 LATE:          0
cpu0->cpu0_STLB AVERAGE MISS LATENCY: 242.2 cycles
cpu0->cpu0_L2C TOTAL        ACCESS:    4480176 HIT:    2029295 MISS:    2450881 MSHR_MERGE:    1958402
cpu0->cpu0_L2C LOAD         ACCESS:      26666 HIT:      11104 MISS:      15562 MSHR_MERGE:       1163
cpu0->cpu0_L2C RFO          ACCESS:        762 HIT:        704 MISS:         58 MSHR_MERGE:          0
cpu0->cpu0_L2C PREFETCH     ACCESS:    4012414 HIT:    1578045 MISS:    2434369 MSHR_MERGE:    1957239
cpu0->cpu0_L2C WRITE        ACCESS:     439254 HIT:     439254 MISS:          0 MSHR_MERGE:          0
cpu0->cpu0_L2C TRANSLATION  ACCESS:       1080 HIT:        188 MISS:        892 MSHR_MERGE:          0
cpu0->cpu0_L2C PREFETCH REQUESTED:    3389827 ISSUED:    3376062 USEFUL:     428039 USELESS:       1201 LATE:       1163
cpu0->cpu0_L2C AVERAGE MISS LATENCY: 210.1 cycles
cpu0->cpu0_L1I TOTAL        ACCESS:    7645884 HIT:    7645884 MISS:          0 MSHR_MERGE:          0
cpu0->cpu0_L1I LOAD         ACCESS:    7645884 HIT:    7645884 MISS:          0 MSHR_MERGE:          0
cpu0->cpu0_L1I RFO          ACCESS:          0 HIT:          0 MISS:          0 MSHR_MERGE:          0
cpu0->cpu0_L1I PREFETCH     ACCESS:          0 HIT:          0 MISS:          0 MSHR_MERGE:          0
cpu0->cpu0_L1I WRITE        ACCESS:          0 HIT:          0 MISS:          0 MSHR_MERGE:          0
cpu0->cpu0_L1I TRANSLATION  ACCESS:          0 HIT:          0 MISS:          0 MSHR_MERGE:          0
cpu0->cpu0_L1I PREFETCH REQUESTED:          0 ISSUED:          0 USEFUL:          0 USELESS:          0 LATE:          0
cpu0->cpu0_L1I AVERAGE MISS LATENCY: - cycles
cpu0->cpu0_L1D TOTAL        ACCESS:   12161226 HIT:   11170850 MISS:     990376 MSHR_MERGE:     325524
cpu0->cpu0_L1D LOAD         ACCESS:    7976705 HIT:    7638654 MISS:     338051 MSHR_MERGE:     311385
cpu0->cpu0_L1D RFO          ACCESS:          0 HIT:          0 MISS:          0 MSHR_MERGE:          0
cpu0->cpu0_L1D PREFETCH     ACCESS:     660506 HIT:      11599 MISS:     648907 MSHR_MERGE:      12563
cpu0->cpu0_L1D WRITE        ACCESS:    3510266 HIT:    3507928 MISS:       2338 MSHR_MERGE:       1576
cpu0->cpu0_L1D TRANSLATION  ACCESS:      13749 HIT:      12669 MISS:       1080 MSHR_MERGE:          0
cpu0->cpu0_L1D PREFETCH REQUESTED:     660553 ISSUED:     660499 USEFUL:     634248 USELESS:       2085 LATE:      56322
cpu0->cpu0_L1D AVERAGE MISS LATENCY: 182.6 cycles
cpu0->cpu0_ITLB TOTAL        ACCESS:    6027876 HIT:    6027876 MISS:          0 MSHR_MERGE:          0
cpu0->cpu0_ITLB LOAD         ACCESS:    6027876 HIT:    6027876 MISS:          0 MSHR_MERGE:          0
cpu0->cpu0_ITLB RFO          ACCESS:          0 HIT:          0 MISS:          0 MSHR_MERGE:          0
cpu0->cpu0_ITLB PREFETCH     ACCESS:          0 HIT:          0 MISS:          0 MSHR_MERGE:          0
cpu0->cpu0_ITLB WRITE        ACCESS:          0 HIT:          0 MISS:          0 MSHR_MERGE:          0
cpu0->cpu0_ITLB TRANSLATION  ACCESS:          0 HIT:          0 MISS:          0 MSHR_MERGE:          0
cpu0->cpu0_ITLB PREFETCH REQUESTED:          0 ISSUED:          0 USEFUL:          0 USELESS:          0 LATE:          0
cpu0->cpu0_ITLB AVERAGE MISS LATENCY: - cycles
cpu0->cpu0_DTLB TOTAL        ACCESS:   10690244 HIT:   10617768 MISS:      72476 MSHR_MERGE:      60594
cpu0->cpu0_DTLB LOAD         ACCESS:   10690244 HIT:   10617768 MISS:      72476 MSHR_MERGE:      60594
cpu0->cpu0_DTLB RFO          ACCESS:          0 HIT:          0 MISS:          0 MSHR_MERGE:          0
cpu0->cpu0_DTLB PREFETCH     ACCESS:          0 HIT:          0 MISS:          0 MSHR_MERGE:          0
cpu0->cpu0_DTLB WRITE        ACCESS:          0 HIT:          0 MISS:          0 MSHR_MERGE:          0
cpu0->cpu0_DTLB TRANSLATION  ACCESS:          0 HIT:          0 MISS:          0 MSHR_MERGE:          0
cpu0->cpu0_DTLB PREFETCH REQUESTED:          0 ISSUED:          0 USEFUL:          0 USELESS:          0 LATE:          0
cpu0->cpu0_DTLB AVERAGE MISS LATENCY: 145.5 cycles
cpu0->LLC TOTAL        ACCESS:     930949 HIT:     433803 MISS:     497146 MSHR_MERGE:          0
cpu0->LLC LOAD         ACCESS:      14399 HIT:        969 MISS:      13430 MSHR_MERGE:          0
cpu0->LLC RFO          ACCESS:         58 HIT:         58 MISS:          0 MSHR_MERGE:          0
cpu0->LLC PREFETCH     ACCESS:     477129 HIT:      47362 MISS:     429767 MSHR_MERGE:          0
cpu0->LLC WRITE        ACCESS:     438471 HIT:     385410 MISS:      53061 MSHR_MERGE:          0
cpu0->LLC TRANSLATION  ACCESS:        892 HIT:          4 MISS:        888 MSHR_MERGE:          0
cpu0->LLC PREFETCH REQUESTED:          0 ISSUED:          0 USEFUL:          0 USELESS:          0 LATE:          0
cpu0->LLC AVERAGE MISS LATENCY: 51.5 cycles

DRAM Statistics

Channel 0 RQ ROW_BUFFER_HIT:      24128
  ROW_BUFFER_MISS:     419950
  AVG DBUS CONGESTED CYCLE: 6.207
Channel 0 WQ ROW_BUFFER_HIT:      64718
  ROW_BUFFER_MISS:     373510
  FULL:          0
Channel 0 REFRESHES ISSUED:       1792

[ROI Statistics]
[System Configuration]
num_cpus 1
cpu_freq 4000
fetch_width 6
decode_width 6
dispatch_width 6
execute_width 6
lq_width 2
sq_width 2
retire_width 6
scheduler_size 128
branch_mispredict_penalty 15
rob_size 352
lq_size 128
sq_size 72
ifetch_buffer_size 64
decode_buffer_size 32
dispatch_buffer_size 32
register_file_size 288
decode_latency 1
dispatch_latency 1
schedule_latency 1
execute_latency 1
page_size 4096
block_size 64
core_0_itlb_set 16
core_0_itlb_way 4
core_0_itlb_rq_size 16
core_0_itlb_wq_size 16
core_0_itlb_pq_size 0
core_0_itlb_mshr_size 8
core_0_itlb_hit_latency 1
core_0_itlb_fill_latency 1
core_0_itlb_max_tag_check 2
core_0_itlb_max_fill 2
core_0_dtlb_set 16
core_0_dtlb_way 4
core_0_dtlb_rq_size 16
core_0_dtlb_wq_size 16
core_0_dtlb_pq_size 0
core_0_dtlb_mshr_size 8
core_0_dtlb_hit_latency 1
core_0_dtlb_fill_latency 1
core_0_dtlb_max_tag_check 2
core_0_dtlb_max_fill 2
core_0_stlb_set 128
core_0_stlb_way 12
core_0_stlb_rq_size 32
core_0_stlb_wq_size 32
core_0_stlb_pq_size 0
core_0_stlb_mshr_size 16
core_0_stlb_hit_latency 4
core_0_stlb_fill_latency 4
core_0_stlb_max_tag_check 1
core_0_stlb_max_fill 1
core_0_l1i_set 64
core_0_l1i_way 8
core_0_l1i_rq_size 64
core_0_l1i_wq_size 64
core_0_l1i_pq_size 32
core_0_l1i_mshr_size 8
core_0_l1i_hit_latency 2
core_0_l1i_fill_latency 2
core_0_l1i_max_tag_check 2
core_0_l1i_max_fill 2
core_0_l1d_set 64
core_0_l1d_way 12
core_0_l1d_rq_size 64
core_0_l1d_wq_size 64
core_0_l1d_pq_size 8
core_0_l1d_mshr_size 16
core_0_l1d_hit_latency 2
core_0_l1d_fill_latency 3
core_0_l1d_max_tag_check 2
core_0_l1d_max_fill 2
core_0_l2c_set 1024
core_0_l2c_way 8
core_0_l2c_rq_size 32
core_0_l2c_wq_size 32
core_0_l2c_pq_size 16
core_0_l2c_mshr_size 32
core_0_l2c_hit_latency 5
core_0_l2c_fill_latency 5
core_0_l2c_max_tag_check 1
core_0_l2c_max_fill 1
llc_set 2048
llc_way 16
llc_rq_size 32
llc_wq_size 32
llc_pq_size 32
llc_mshr_size 64
llc_hit_latency 10
llc_fill_latency 10
llc_max_tag_check 1
llc_max_fill 1
dram_channels 1
dram_ranks 1
dram_bankgroups 8
dram_banks 4
dram_rows 65536
dram_columns 1024
dram_channel_width 8
dram_rq_size 64
dram_wq_size 64
dram_size 17179869184
core_0_itlb_prefetcher no
core_0_dtlb_prefetcher no
core_0_stlb_prefetcher no
core_0_l1i_prefetcher next_line
core_0_l1d_prefetcher berti
core_0_l2c_prefetcher pythia
llc_prefetcher no
llc_replacement drrip

Core_0_instructions 50000001
Core_0_cycles 21499350
Core_0_IPC 2.32565
Core_0_branch_prediction_accuracy 99.9751
Core_0_branch_MPKI 0.00438
Core_0_average_ROB_occupancy_at_mispredict 349.575

Core_0_ITLB_total_access 6027876
Core_0_ITLB_total_hit 6027876
Core_0_ITLB_total_miss 0
Core_0_ITLB_total_MPKI 0
Core_0_ITLB_total_miss_rate 0
Core_0_ITLB_demand_access 6027876
Core_0_ITLB_demand_hit 6027876
Core_0_ITLB_demand_miss 0
Core_0_ITLB_demand_MPKI 0
Core_0_ITLB_demand_miss_rate 0
Core_0_ITLB_load_access 6027876
Core_0_ITLB_load_hit 6027876
Core_0_ITLB_load_miss 0
Core_0_ITLB_load_MPKI 0
Core_0_ITLB_load_miss_rate 0
Core_0_ITLB_rfo_access 0
Core_0_ITLB_rfo_hit 0
Core_0_ITLB_rfo_miss 0
Core_0_ITLB_rfo_MPKI 0
Core_0_ITLB_rfo_miss_rate 0
Core_0_ITLB_prefetch_access 0
Core_0_ITLB_prefetch_hit 0
Core_0_ITLB_prefetch_miss 0
Core_0_ITLB_prefetch_MPKI 0
Core_0_ITLB_prefetch_miss_rate 0
Core_0_ITLB_writeback_access 0
Core_0_ITLB_writeback_hit 0
Core_0_ITLB_writeback_miss 0
Core_0_ITLB_writeback_MPKI 0
Core_0_ITLB_writeback_miss_rate 0
Core_0_ITLB_prefetch_requested 0
Core_0_ITLB_prefetch_issued 0
Core_0_ITLB_prefetch_useful 0
Core_0_ITLB_prefetch_useless 0
Core_0_ITLB_prefetch_late 0
Core_0_ITLB_prefetch_accuracy 0
Core_0_ITLB_prefetch_coverage 0

Core_0_DTLB_total_access 10690244
Core_0_DTLB_total_hit 10617768
Core_0_DTLB_total_miss 72476
Core_0_DTLB_total_MPKI 1.44952
Core_0_DTLB_total_miss_rate 0.00677964
Core_0_DTLB_demand_access 10690244
Core_0_DTLB_demand_hit 10617768
Core_0_DTLB_demand_miss 72476
Core_0_DTLB_demand_MPKI 1.44952
Core_0_DTLB_demand_miss_rate 0.00677964
Core_0_DTLB_load_access 10690244
Core_0_DTLB_load_hit 10617768
Core_0_DTLB_load_miss 72476
Core_0_DTLB_load_MPKI 1.44952
Core_0_DTLB_load_miss_rate 0.00677964
Core_0_DTLB_rfo_access 0
Core_0_DTLB_rfo_hit 0
Core_0_DTLB_rfo_miss 0
Core_0_DTLB_rfo_MPKI 0
Core_0_DTLB_rfo_miss_rate 0
Core_0_DTLB_prefetch_access 0
Core_0_DTLB_prefetch_hit 0
Core_0_DTLB_prefetch_miss 0
Core_0_DTLB_prefetch_MPKI 0
Core_0_DTLB_prefetch_miss_rate 0
Core_0_DTLB_writeback_access 0
Core_0_DTLB_writeback_hit 0
Core_0_DTLB_writeback_miss 0
Core_0_DTLB_writeback_MPKI 0
Core_0_DTLB_writeback_miss_rate 0
Core_0_DTLB_prefetch_requested 0
Core_0_DTLB_prefetch_issued 0
Core_0_DTLB_prefetch_useful 0
Core_0_DTLB_prefetch_useless 0
Core_0_DTLB_prefetch_late 0
Core_0_DTLB_prefetch_accuracy 0
Core_0_DTLB_prefetch_coverage 0

Core_0_STLB_total_access 11882
Core_0_STLB_total_hit 5018
Core_0_STLB_total_miss 6864
Core_0_STLB_total_MPKI 0.13728
Core_0_STLB_total_miss_rate 0.577681
Core_0_STLB_demand_access 11882
Core_0_STLB_demand_hit 5018
Core_0_STLB_demand_miss 6864
Core_0_STLB_demand_MPKI 0.13728
Core_0_STLB_demand_miss_rate 0.577681
Core_0_STLB_load_access 11882
Core_0_STLB_load_hit 5018
Core_0_STLB_load_miss 6864
Core_0_STLB_load_MPKI 0.13728
Core_0_STLB_load_miss_rate 0.577681
Core_0_STLB_rfo_access 0
Core_0_STLB_rfo_hit 0
Core_0_STLB_rfo_miss 0
Core_0_STLB_rfo_MPKI 0
Core_0_STLB_rfo_miss_rate 0
Core_0_STLB_prefetch_access 0
Core_0_STLB_prefetch_hit 0
Core_0_STLB_prefetch_miss 0
Core_0_STLB_prefetch_MPKI 0
Core_0_STLB_prefetch_miss_rate 0
Core_0_STLB_writeback_access 0
Core_0_STLB_writeback_hit 0
Core_0_STLB_writeback_miss 0
Core_0_STLB_writeback_MPKI 0
Core_0_STLB_writeback_miss_rate 0
Core_0_STLB_prefetch_requested 0
Core_0_STLB_prefetch_issued 0
Core_0_STLB_prefetch_useful 0
Core_0_STLB_prefetch_useless 0
Core_0_STLB_prefetch_late 0
Core_0_STLB_prefetch_accuracy 0
Core_0_STLB_prefetch_coverage 0

Core_0_L1I_total_access 7645884
Core_0_L1I_total_hit 7645884
Core_0_L1I_total_miss 0
Core_0_L1I_total_MPKI 0
Core_0_L1I_total_miss_rate 0
Core_0_L1I_demand_access 7645884
Core_0_L1I_demand_hit 7645884
Core_0_L1I_demand_miss 0
Core_0_L1I_demand_MPKI 0
Core_0_L1I_demand_miss_rate 0
Core_0_L1I_load_access 7645884
Core_0_L1I_load_hit 7645884
Core_0_L1I_load_miss 0
Core_0_L1I_load_MPKI 0
Core_0_L1I_load_miss_rate 0
Core_0_L1I_rfo_access 0
Core_0_L1I_rfo_hit 0
Core_0_L1I_rfo_miss 0
Core_0_L1I_rfo_MPKI 0
Core_0_L1I_rfo_miss_rate 0
Core_0_L1I_prefetch_access 0
Core_0_L1I_prefetch_hit 0
Core_0_L1I_prefetch_miss 0
Core_0_L1I_prefetch_MPKI 0
Core_0_L1I_prefetch_miss_rate 0
Core_0_L1I_writeback_access 0
Core_0_L1I_writeback_hit 0
Core_0_L1I_writeback_miss 0
Core_0_L1I_writeback_MPKI 0
Core_0_L1I_writeback_miss_rate 0
Core_0_L1I_prefetch_requested 0
Core_0_L1I_prefetch_issued 0
Core_0_L1I_prefetch_useful 0
Core_0_L1I_prefetch_useless 0
Core_0_L1I_prefetch_late 0
Core_0_L1I_prefetch_accuracy 0
Core_0_L1I_prefetch_coverage 0

Core_0_L1D_total_access 12147477
Core_0_L1D_total_hit 11158181
Core_0_L1D_total_miss 989296
Core_0_L1D_total_MPKI 19.7859
Core_0_L1D_total_miss_rate 0.0814405
Core_0_L1D_demand_access 7976705
Core_0_L1D_demand_hit 7638654
Core_0_L1D_demand_miss 338051
Core_0_L1D_demand_MPKI 6.76102
Core_0_L1D_demand_miss_rate 0.0423798
Core_0_L1D_load_access 7976705
Core_0_L1D_load_hit 7638654
Core_0_L1D_load_miss 338051
Core_0_L1D_load_MPKI 6.76102
Core_0_L1D_load_miss_rate 0.0423798
Core_0_L1D_rfo_access 0
Core_0_L1D_rfo_hit 0
Core_0_L1D_rfo_miss 0
Core_0_L1D_rfo_MPKI 0
Core_0_L1D_rfo_miss_rate 0
Core_0_L1D_prefetch_access 660506
Core_0_L1D_prefetch_hit 11599
Core_0_L1D_prefetch_miss 648907
Core_0_L1D_prefetch_MPKI 12.9781
Core_0_L1D_prefetch_miss_rate 0.982439
Core_0_L1D_writeback_access 3510266
Core_0_L1D_writeback_hit 3507928
Core_0_L1D_writeback_miss 2338
Core_0_L1D_writeback_MPKI 0.04676
Core_0_L1D_writeback_miss_rate 0.000666046
Core_0_L1D_prefetch_requested 660553
Core_0_L1D_prefetch_issued 660499
Core_0_L1D_prefetch_useful 634248
Core_0_L1D_prefetch_useless 2085
Core_0_L1D_prefetch_late 56322
Core_0_L1D_prefetch_accuracy 0.960256
Core_0_L1D_prefetch_coverage 0.652318

Core_0_L2C_total_access 4479096
Core_0_L2C_total_hit 2029107
Core_0_L2C_total_miss 2449989
Core_0_L2C_total_MPKI 48.9998
Core_0_L2C_total_miss_rate 0.546983
Core_0_L2C_demand_access 27428
Core_0_L2C_demand_hit 11808
Core_0_L2C_demand_miss 15620
Core_0_L2C_demand_MPKI 0.3124
Core_0_L2C_demand_miss_rate 0.569491
Core_0_L2C_load_access 26666
Core_0_L2C_load_hit 11104
Core_0_L2C_load_miss 15562
Core_0_L2C_load_MPKI 0.31124
Core_0_L2C_load_miss_rate 0.58359
Core_0_L2C_rfo_access 762
Core_0_L2C_rfo_hit 704
Core_0_L2C_rfo_miss 58
Core_0_L2C_rfo_MPKI 0.00116
Core_0_L2C_rfo_miss_rate 0.0761155
Core_0_L2C_prefetch_access 4012414
Core_0_L2C_prefetch_hit 1578045
Core_0_L2C_prefetch_miss 2434369
Core_0_L2C_prefetch_MPKI 48.6874
Core_0_L2C_prefetch_miss_rate 0.606709
Core_0_L2C_writeback_access 439254
Core_0_L2C_writeback_hit 439254
Core_0_L2C_writeback_miss 0
Core_0_L2C_writeback_MPKI 0
Core_0_L2C_writeback_miss_rate 0
Core_0_L2C_prefetch_requested 3389827
Core_0_L2C_prefetch_issued 3376062
Core_0_L2C_prefetch_useful 428039
Core_0_L2C_prefetch_useless 1201
Core_0_L2C_prefetch_late 1163
Core_0_L2C_prefetch_accuracy 0.126786
Core_0_L2C_prefetch_coverage 0.964793

Core_0_LLC_total_access 930057
Core_0_LLC_total_hit 433799
Core_0_LLC_total_miss 496258
Core_0_LLC_total_MPKI 9.92516
Core_0_LLC_total_miss_rate 0.533578
Core_0_LLC_demand_access 14457
Core_0_LLC_demand_hit 1027
Core_0_LLC_demand_miss 13430
Core_0_LLC_demand_MPKI 0.2686
Core_0_LLC_demand_miss_rate 0.928962
Core_0_LLC_load_access 14399
Core_0_LLC_load_hit 969
Core_0_LLC_load_miss 13430
Core_0_LLC_load_MPKI 0.2686
Core_0_LLC_load_miss_rate 0.932704
Core_0_LLC_rfo_access 58
Core_0_LLC_rfo_hit 58
Core_0_LLC_rfo_miss 0
Core_0_LLC_rfo_MPKI 0
Core_0_LLC_rfo_miss_rate 0
Core_0_LLC_prefetch_access 477129
Core_0_LLC_prefetch_hit 47362
Core_0_LLC_prefetch_miss 429767
Core_0_LLC_prefetch_MPKI 8.59534
Core_0_LLC_prefetch_miss_rate 0.900735
Core_0_LLC_writeback_access 438471
Core_0_LLC_writeback_hit 385410
Core_0_LLC_writeback_miss 53061
Core_0_LLC_writeback_MPKI 1.06122
Core_0_LLC_writeback_miss_rate 0.121014
Core_0_LLC_prefetch_requested 0
Core_0_LLC_prefetch_issued 0
Core_0_LLC_prefetch_useful 0
Core_0_LLC_prefetch_useless 0
Core_0_LLC_prefetch_late 0
Core_0_LLC_prefetch_accuracy 0
Core_0_LLC_prefetch_coverage 0

[DRAM Statistics]
Channel_0_RQ_row_buffer_hit 24128
Channel_0_RQ_row_buffer_miss 419950
Channel_0_WQ_row_buffer_hit 64718
Channel_0_WQ_row_buffer_miss 373510
Channel_0_WQ_full 0
Channel_0_dbus_congested 2916085
DRAM_total_RQ_row_buffer_hit 24128
DRAM_total_RQ_row_buffer_miss 419950
DRAM_total_WQ_row_buffer_hit 64718
DRAM_total_WQ_row_buffer_miss 373510
DRAM_total_WQ_full 0
DRAM_total_dbus_congested 2916085
DRAM_avg_congested_cycle 6.20655

======STLB miss causes ========
Core_0_STLB_miss_cause_breakdown
Core_0_STLB_cause_Demand_Data_miss 6648
Core_0_STLB_cause_Demand_Data_miss_rate 0.559502
Core_0_STLB_cause_Demand_Instruction_miss 0
Core_0_STLB_cause_Demand_Instruction_miss_rate 0
Core_0_STLB_cause_L1D_Prefetch_miss 216
Core_0_STLB_cause_L1D_Prefetch_miss_rate 0.0181788
Core_0_STLB_cause_L1I_Prefetch_miss 0
Core_0_STLB_cause_L1I_Prefetch_miss_rate 0
Core_0_STLB_cause_Other_miss 0
Core_0_STLB_cause_Other_miss_rate 0
Core_0_STLB_Demand_miss 6648
Core_0_STLB_Demand_miss_rate 0.559502
Core_0_STLB_L1D_Prefetch_miss 216
Core_0_STLB_L1D_Prefetch_miss_rate 0.0181788
Core_0_STLB_Other_miss 0
Core_0_STLB_Other_miss_rate 0
