[VMEM] WARNING: physical memory size is smaller than virtual memory size.

*** ChampSim Multicore Out-of-Order Simulator ***
Warmup Instructions: 20000000
Simulation Instructions: 50000000
Number of CPUs: 1
Page size: 4096
Core 0: /data0/tzh/champsim_traces/SPEC17/654.roms_s-1070B.champsimtrace.xz
 L1D Berti prefetcher
Off-chip DRAM Size: 16 GiB Channels: 1 Width: 64-bit Data Rate: 3205 MT/s
Warmup halting CPU 0 at instruction 20000004 cycle 5072094 for remainder of phase
Warmup finished CPU 0 instructions: 20000004 cycles: 5072094 cumulative IPC: 3.943 (Simulation time: 00 hr 01 min 00 sec)
Warmup complete CPU 0 instructions: 20000004 cycles: 5072094 cumulative IPC: 3.943 (Simulation time: 00 hr 01 min 00 sec)
Simulation finished CPU 0 instructions: 50000000 cycles: 31429619 cumulative IPC: 1.591 (Simulation time: 00 hr 06 min 57 sec)
Simulation complete CPU 0 instructions: 50000000 cycles: 31429619 cumulative IPC: 1.591 (Simulation time: 00 hr 06 min 57 sec)

ChampSim completed all CPUs

=== Simulation ===
CPU 0 runs /data0/tzh/champsim_traces/SPEC17/654.roms_s-1070B.champsimtrace.xz

Region of Interest Statistics

CPU 0 cumulative IPC: 1.591 instructions: 50000000 cycles: 31429619
CPU 0 Branch Prediction Accuracy: 99.88% MPKI: 0.06242 Average ROB Occupancy at Mispredict: 350.3
Branch type MPKI
BRANCH_DIRECT_JUMP: 0
BRANCH_INDIRECT: 0
BRANCH_CONDITIONAL: 0.06242
BRANCH_DIRECT_CALL: 0
BRANCH_INDIRECT_CALL: 0
BRANCH_RETURN: 0

cpu0->cpu0_STLB TOTAL        ACCESS:      24195 HIT:         19 MISS:      24176 MSHR_MERGE:          0
cpu0->cpu0_STLB LOAD         ACCESS:      24195 HIT:         19 MISS:      24176 MSHR_MERGE:          0
cpu0->cpu0_STLB RFO          ACCESS:          0 HIT:          0 MISS:          0 MSHR_MERGE:          0
cpu0->cpu0_STLB PREFETCH     ACCESS:          0 HIT:          0 MISS:          0 MSHR_MERGE:          0
cpu0->cpu0_STLB WRITE        ACCESS:          0 HIT:          0 MISS:          0 MSHR_MERGE:          0
cpu0->cpu0_STLB TRANSLATION  ACCESS:          0 HIT:          0 MISS:          0 MSHR_MERGE:          0
cpu0->cpu0_STLB PREFETCH REQUESTED:          0 ISSUED:          0 USEFUL:          0 USELESS:          0 LATE:          0
cpu0->cpu0_STLB AVERAGE MISS LATENCY: 204.2 cycles
cpu0->cpu0_L2C TOTAL        ACCESS:    4975937 HIT:    2351070 MISS:    2624867 MSHR_MERGE:    1491798
cpu0->cpu0_L2C LOAD         ACCESS:      64788 HIT:      34505 MISS:      30283 MSHR_MERGE:      11202
cpu0->cpu0_L2C RFO          ACCESS:     334184 HIT:          4 MISS:     334180 MSHR_MERGE:          0
cpu0->cpu0_L2C PREFETCH     ACCESS:    4237715 HIT:    1982291 MISS:    2255424 MSHR_MERGE:    1480596
cpu0->cpu0_L2C WRITE        ACCESS:     334220 HIT:     334216 MISS:          4 MSHR_MERGE:          0
cpu0->cpu0_L2C TRANSLATION  ACCESS:       5030 HIT:         54 MISS:       4976 MSHR_MERGE:          0
cpu0->cpu0_L2C PREFETCH REQUESTED:    3731371 ISSUED:    3544445 USEFUL:     592881 USELESS:     146773 LATE:      11202
cpu0->cpu0_L2C AVERAGE MISS LATENCY: 473.4 cycles
cpu0->cpu0_L1I TOTAL        ACCESS:    9193417 HIT:    9193417 MISS:          0 MSHR_MERGE:          0
cpu0->cpu0_L1I LOAD         ACCESS:    9193417 HIT:    9193417 MISS:          0 MSHR_MERGE:          0
cpu0->cpu0_L1I RFO          ACCESS:          0 HIT:          0 MISS:          0 MSHR_MERGE:          0
cpu0->cpu0_L1I PREFETCH     ACCESS:          0 HIT:          0 MISS:          0 MSHR_MERGE:          0
cpu0->cpu0_L1I WRITE        ACCESS:          0 HIT:          0 MISS:          0 MSHR_MERGE:          0
cpu0->cpu0_L1I TRANSLATION  ACCESS:          0 HIT:          0 MISS:          0 MSHR_MERGE:          0
cpu0->cpu0_L1I PREFETCH REQUESTED:          0 ISSUED:          0 USEFUL:          0 USELESS:          0 LATE:          0
cpu0->cpu0_L1I AVERAGE MISS LATENCY: - cycles
cpu0->cpu0_L1D TOTAL        ACCESS:   13453919 HIT:    9878568 MISS:    3575351 MSHR_MERGE:    2478074
cpu0->cpu0_L1D LOAD         ACCESS:   10025153 HIT:    9754297 MISS:     270856 MSHR_MERGE:     206068
cpu0->cpu0_L1D RFO          ACCESS:          0 HIT:          0 MISS:          0 MSHR_MERGE:          0
cpu0->cpu0_L1D PREFETCH     ACCESS:     722285 HIT:      21210 MISS:     701075 MSHR_MERGE:       7800
cpu0->cpu0_L1D WRITE        ACCESS:    2658121 HIT:      59780 MISS:    2598341 MSHR_MERGE:    2264157
cpu0->cpu0_L1D TRANSLATION  ACCESS:      48360 HIT:      43281 MISS:       5079 MSHR_MERGE:         49
cpu0->cpu0_L1D PREFETCH REQUESTED:     732725 ISSUED:     722280 USEFUL:     683564 USELESS:       9709 LATE:      35647
cpu0->cpu0_L1D AVERAGE MISS LATENCY: 428.9 cycles
cpu0->cpu0_ITLB TOTAL        ACCESS:    7771176 HIT:    7771176 MISS:          0 MSHR_MERGE:          0
cpu0->cpu0_ITLB LOAD         ACCESS:    7771176 HIT:    7771176 MISS:          0 MSHR_MERGE:          0
cpu0->cpu0_ITLB RFO          ACCESS:          0 HIT:          0 MISS:          0 MSHR_MERGE:          0
cpu0->cpu0_ITLB PREFETCH     ACCESS:          0 HIT:          0 MISS:          0 MSHR_MERGE:          0
cpu0->cpu0_ITLB WRITE        ACCESS:          0 HIT:          0 MISS:          0 MSHR_MERGE:          0
cpu0->cpu0_ITLB TRANSLATION  ACCESS:          0 HIT:          0 MISS:          0 MSHR_MERGE:          0
cpu0->cpu0_ITLB PREFETCH REQUESTED:          0 ISSUED:          0 USEFUL:          0 USELESS:          0 LATE:          0
cpu0->cpu0_ITLB AVERAGE MISS LATENCY: - cycles
cpu0->cpu0_DTLB TOTAL        ACCESS:   13112579 HIT:   12999214 MISS:     113365 MSHR_MERGE:      89170
cpu0->cpu0_DTLB LOAD         ACCESS:   13112579 HIT:   12999214 MISS:     113365 MSHR_MERGE:      89170
cpu0->cpu0_DTLB RFO          ACCESS:          0 HIT:          0 MISS:          0 MSHR_MERGE:          0
cpu0->cpu0_DTLB PREFETCH     ACCESS:          0 HIT:          0 MISS:          0 MSHR_MERGE:          0
cpu0->cpu0_DTLB WRITE        ACCESS:          0 HIT:          0 MISS:          0 MSHR_MERGE:          0
cpu0->cpu0_DTLB TRANSLATION  ACCESS:          0 HIT:          0 MISS:          0 MSHR_MERGE:          0
cpu0->cpu0_DTLB PREFETCH REQUESTED:          0 ISSUED:          0 USEFUL:          0 USELESS:          0 LATE:          0
cpu0->cpu0_DTLB AVERAGE MISS LATENCY: 210 cycles
cpu0->LLC TOTAL        ACCESS:    1467290 HIT:      53847 MISS:    1413443 MSHR_MERGE:          0
cpu0->LLC LOAD         ACCESS:      19081 HIT:         50 MISS:      19031 MSHR_MERGE:          0
cpu0->LLC RFO          ACCESS:     334180 HIT:         70 MISS:     334110 MSHR_MERGE:          0
cpu0->LLC PREFETCH     ACCESS:     774826 HIT:       2203 MISS:     772623 MSHR_MERGE:          0
cpu0->LLC WRITE        ACCESS:     334227 HIT:      51507 MISS:     282720 MSHR_MERGE:          0
cpu0->LLC TRANSLATION  ACCESS:       4976 HIT:         17 MISS:       4959 MSHR_MERGE:          0
cpu0->LLC PREFETCH REQUESTED:          0 ISSUED:          0 USEFUL:          0 USELESS:          0 LATE:          0
cpu0->LLC AVERAGE MISS LATENCY: 262.6 cycles

DRAM Statistics

Channel 0 RQ ROW_BUFFER_HIT:      30685
  ROW_BUFFER_MISS:    1099971
  AVG DBUS CONGESTED CYCLE: 5.809
Channel 0 WQ ROW_BUFFER_HIT:      26776
  ROW_BUFFER_MISS:     307666
  FULL:          0
Channel 0 REFRESHES ISSUED:       2619

[ROI Statistics]
[System Configuration]
num_cpus 1
cpu_freq 4000
fetch_width 6
decode_width 6
dispatch_width 6
execute_width 6
lq_width 2
sq_width 2
retire_width 6
scheduler_size 128
branch_mispredict_penalty 15
rob_size 352
lq_size 128
sq_size 72
ifetch_buffer_size 64
decode_buffer_size 32
dispatch_buffer_size 32
register_file_size 288
decode_latency 1
dispatch_latency 1
schedule_latency 1
execute_latency 1
page_size 4096
block_size 64
core_0_itlb_set 16
core_0_itlb_way 4
core_0_itlb_rq_size 16
core_0_itlb_wq_size 16
core_0_itlb_pq_size 0
core_0_itlb_mshr_size 8
core_0_itlb_hit_latency 1
core_0_itlb_fill_latency 1
core_0_itlb_max_tag_check 2
core_0_itlb_max_fill 2
core_0_dtlb_set 16
core_0_dtlb_way 4
core_0_dtlb_rq_size 16
core_0_dtlb_wq_size 16
core_0_dtlb_pq_size 0
core_0_dtlb_mshr_size 8
core_0_dtlb_hit_latency 1
core_0_dtlb_fill_latency 1
core_0_dtlb_max_tag_check 2
core_0_dtlb_max_fill 2
core_0_stlb_set 128
core_0_stlb_way 12
core_0_stlb_rq_size 32
core_0_stlb_wq_size 32
core_0_stlb_pq_size 0
core_0_stlb_mshr_size 16
core_0_stlb_hit_latency 4
core_0_stlb_fill_latency 4
core_0_stlb_max_tag_check 1
core_0_stlb_max_fill 1
core_0_l1i_set 64
core_0_l1i_way 8
core_0_l1i_rq_size 64
core_0_l1i_wq_size 64
core_0_l1i_pq_size 32
core_0_l1i_mshr_size 8
core_0_l1i_hit_latency 2
core_0_l1i_fill_latency 2
core_0_l1i_max_tag_check 2
core_0_l1i_max_fill 2
core_0_l1d_set 64
core_0_l1d_way 12
core_0_l1d_rq_size 64
core_0_l1d_wq_size 64
core_0_l1d_pq_size 8
core_0_l1d_mshr_size 16
core_0_l1d_hit_latency 2
core_0_l1d_fill_latency 3
core_0_l1d_max_tag_check 2
core_0_l1d_max_fill 2
core_0_l2c_set 1024
core_0_l2c_way 8
core_0_l2c_rq_size 32
core_0_l2c_wq_size 32
core_0_l2c_pq_size 16
core_0_l2c_mshr_size 32
core_0_l2c_hit_latency 5
core_0_l2c_fill_latency 5
core_0_l2c_max_tag_check 1
core_0_l2c_max_fill 1
llc_set 2048
llc_way 16
llc_rq_size 32
llc_wq_size 32
llc_pq_size 32
llc_mshr_size 64
llc_hit_latency 10
llc_fill_latency 10
llc_max_tag_check 1
llc_max_fill 1
dram_channels 1
dram_ranks 1
dram_bankgroups 8
dram_banks 4
dram_rows 65536
dram_columns 1024
dram_channel_width 8
dram_rq_size 64
dram_wq_size 64
dram_size 17179869184
core_0_itlb_prefetcher no
core_0_dtlb_prefetcher no
core_0_stlb_prefetcher no
core_0_l1i_prefetcher next_line
core_0_l1d_prefetcher berti
core_0_l2c_prefetcher pythia
llc_prefetcher no
llc_replacement drrip

Core_0_instructions 50000000
Core_0_cycles 31429619
Core_0_IPC 1.59086
Core_0_branch_prediction_accuracy 99.8822
Core_0_branch_MPKI 0.06242
Core_0_average_ROB_occupancy_at_mispredict 350.339

Core_0_ITLB_total_access 7771176
Core_0_ITLB_total_hit 7771176
Core_0_ITLB_total_miss 0
Core_0_ITLB_total_MPKI 0
Core_0_ITLB_total_miss_rate 0
Core_0_ITLB_demand_access 7771176
Core_0_ITLB_demand_hit 7771176
Core_0_ITLB_demand_miss 0
Core_0_ITLB_demand_MPKI 0
Core_0_ITLB_demand_miss_rate 0
Core_0_ITLB_load_access 7771176
Core_0_ITLB_load_hit 7771176
Core_0_ITLB_load_miss 0
Core_0_ITLB_load_MPKI 0
Core_0_ITLB_load_miss_rate 0
Core_0_ITLB_rfo_access 0
Core_0_ITLB_rfo_hit 0
Core_0_ITLB_rfo_miss 0
Core_0_ITLB_rfo_MPKI 0
Core_0_ITLB_rfo_miss_rate 0
Core_0_ITLB_prefetch_access 0
Core_0_ITLB_prefetch_hit 0
Core_0_ITLB_prefetch_miss 0
Core_0_ITLB_prefetch_MPKI 0
Core_0_ITLB_prefetch_miss_rate 0
Core_0_ITLB_writeback_access 0
Core_0_ITLB_writeback_hit 0
Core_0_ITLB_writeback_miss 0
Core_0_ITLB_writeback_MPKI 0
Core_0_ITLB_writeback_miss_rate 0
Core_0_ITLB_prefetch_requested 0
Core_0_ITLB_prefetch_issued 0
Core_0_ITLB_prefetch_useful 0
Core_0_ITLB_prefetch_useless 0
Core_0_ITLB_prefetch_late 0
Core_0_ITLB_prefetch_accuracy 0
Core_0_ITLB_prefetch_coverage 0

Core_0_DTLB_total_access 13112579
Core_0_DTLB_total_hit 12999214
Core_0_DTLB_total_miss 113365
Core_0_DTLB_total_MPKI 2.2673
Core_0_DTLB_total_miss_rate 0.00864552
Core_0_DTLB_demand_access 13112579
Core_0_DTLB_demand_hit 12999214
Core_0_DTLB_demand_miss 113365
Core_0_DTLB_demand_MPKI 2.2673
Core_0_DTLB_demand_miss_rate 0.00864552
Core_0_DTLB_load_access 13112579
Core_0_DTLB_load_hit 12999214
Core_0_DTLB_load_miss 113365
Core_0_DTLB_load_MPKI 2.2673
Core_0_DTLB_load_miss_rate 0.00864552
Core_0_DTLB_rfo_access 0
Core_0_DTLB_rfo_hit 0
Core_0_DTLB_rfo_miss 0
Core_0_DTLB_rfo_MPKI 0
Core_0_DTLB_rfo_miss_rate 0
Core_0_DTLB_prefetch_access 0
Core_0_DTLB_prefetch_hit 0
Core_0_DTLB_prefetch_miss 0
Core_0_DTLB_prefetch_MPKI 0
Core_0_DTLB_prefetch_miss_rate 0
Core_0_DTLB_writeback_access 0
Core_0_DTLB_writeback_hit 0
Core_0_DTLB_writeback_miss 0
Core_0_DTLB_writeback_MPKI 0
Core_0_DTLB_writeback_miss_rate 0
Core_0_DTLB_prefetch_requested 0
Core_0_DTLB_prefetch_issued 0
Core_0_DTLB_prefetch_useful 0
Core_0_DTLB_prefetch_useless 0
Core_0_DTLB_prefetch_late 0
Core_0_DTLB_prefetch_accuracy 0
Core_0_DTLB_prefetch_coverage 0

Core_0_STLB_total_access 24195
Core_0_STLB_total_hit 19
Core_0_STLB_total_miss 24176
Core_0_STLB_total_MPKI 0.48352
Core_0_STLB_total_miss_rate 0.999215
Core_0_STLB_demand_access 24195
Core_0_STLB_demand_hit 19
Core_0_STLB_demand_miss 24176
Core_0_STLB_demand_MPKI 0.48352
Core_0_STLB_demand_miss_rate 0.999215
Core_0_STLB_load_access 24195
Core_0_STLB_load_hit 19
Core_0_STLB_load_miss 24176
Core_0_STLB_load_MPKI 0.48352
Core_0_STLB_load_miss_rate 0.999215
Core_0_STLB_rfo_access 0
Core_0_STLB_rfo_hit 0
Core_0_STLB_rfo_miss 0
Core_0_STLB_rfo_MPKI 0
Core_0_STLB_rfo_miss_rate 0
Core_0_STLB_prefetch_access 0
Core_0_STLB_prefetch_hit 0
Core_0_STLB_prefetch_miss 0
Core_0_STLB_prefetch_MPKI 0
Core_0_STLB_prefetch_miss_rate 0
Core_0_STLB_writeback_access 0
Core_0_STLB_writeback_hit 0
Core_0_STLB_writeback_miss 0
Core_0_STLB_writeback_MPKI 0
Core_0_STLB_writeback_miss_rate 0
Core_0_STLB_prefetch_requested 0
Core_0_STLB_prefetch_issued 0
Core_0_STLB_prefetch_useful 0
Core_0_STLB_prefetch_useless 0
Core_0_STLB_prefetch_late 0
Core_0_STLB_prefetch_accuracy 0
Core_0_STLB_prefetch_coverage 0

Core_0_L1I_total_access 9193417
Core_0_L1I_total_hit 9193417
Core_0_L1I_total_miss 0
Core_0_L1I_total_MPKI 0
Core_0_L1I_total_miss_rate 0
Core_0_L1I_demand_access 9193417
Core_0_L1I_demand_hit 9193417
Core_0_L1I_demand_miss 0
Core_0_L1I_demand_MPKI 0
Core_0_L1I_demand_miss_rate 0
Core_0_L1I_load_access 9193417
Core_0_L1I_load_hit 9193417
Core_0_L1I_load_miss 0
Core_0_L1I_load_MPKI 0
Core_0_L1I_load_miss_rate 0
Core_0_L1I_rfo_access 0
Core_0_L1I_rfo_hit 0
Core_0_L1I_rfo_miss 0
Core_0_L1I_rfo_MPKI 0
Core_0_L1I_rfo_miss_rate 0
Core_0_L1I_prefetch_access 0
Core_0_L1I_prefetch_hit 0
Core_0_L1I_prefetch_miss 0
Core_0_L1I_prefetch_MPKI 0
Core_0_L1I_prefetch_miss_rate 0
Core_0_L1I_writeback_access 0
Core_0_L1I_writeback_hit 0
Core_0_L1I_writeback_miss 0
Core_0_L1I_writeback_MPKI 0
Core_0_L1I_writeback_miss_rate 0
Core_0_L1I_prefetch_requested 0
Core_0_L1I_prefetch_issued 0
Core_0_L1I_prefetch_useful 0
Core_0_L1I_prefetch_useless 0
Core_0_L1I_prefetch_late 0
Core_0_L1I_prefetch_accuracy 0
Core_0_L1I_prefetch_coverage 0

Core_0_L1D_total_access 13405559
Core_0_L1D_total_hit 9835287
Core_0_L1D_total_miss 3570272
Core_0_L1D_total_MPKI 71.4054
Core_0_L1D_total_miss_rate 0.266328
Core_0_L1D_demand_access 10025153
Core_0_L1D_demand_hit 9754297
Core_0_L1D_demand_miss 270856
Core_0_L1D_demand_MPKI 5.41712
Core_0_L1D_demand_miss_rate 0.0270176
Core_0_L1D_load_access 10025153
Core_0_L1D_load_hit 9754297
Core_0_L1D_load_miss 270856
Core_0_L1D_load_MPKI 5.41712
Core_0_L1D_load_miss_rate 0.0270176
Core_0_L1D_rfo_access 0
Core_0_L1D_rfo_hit 0
Core_0_L1D_rfo_miss 0
Core_0_L1D_rfo_MPKI 0
Core_0_L1D_rfo_miss_rate 0
Core_0_L1D_prefetch_access 722285
Core_0_L1D_prefetch_hit 21210
Core_0_L1D_prefetch_miss 701075
Core_0_L1D_prefetch_MPKI 14.0215
Core_0_L1D_prefetch_miss_rate 0.970635
Core_0_L1D_writeback_access 2658121
Core_0_L1D_writeback_hit 59780
Core_0_L1D_writeback_miss 2598341
Core_0_L1D_writeback_MPKI 51.9668
Core_0_L1D_writeback_miss_rate 0.97751
Core_0_L1D_prefetch_requested 732725
Core_0_L1D_prefetch_issued 722280
Core_0_L1D_prefetch_useful 683564
Core_0_L1D_prefetch_useless 9709
Core_0_L1D_prefetch_late 35647
Core_0_L1D_prefetch_accuracy 0.946398
Core_0_L1D_prefetch_coverage 0.716209

Core_0_L2C_total_access 4970907
Core_0_L2C_total_hit 2351016
Core_0_L2C_total_miss 2619891
Core_0_L2C_total_MPKI 52.3978
Core_0_L2C_total_miss_rate 0.527045
Core_0_L2C_demand_access 398972
Core_0_L2C_demand_hit 34509
Core_0_L2C_demand_miss 364463
Core_0_L2C_demand_MPKI 7.28926
Core_0_L2C_demand_miss_rate 0.913505
Core_0_L2C_load_access 64788
Core_0_L2C_load_hit 34505
Core_0_L2C_load_miss 30283
Core_0_L2C_load_MPKI 0.60566
Core_0_L2C_load_miss_rate 0.467417
Core_0_L2C_rfo_access 334184
Core_0_L2C_rfo_hit 4
Core_0_L2C_rfo_miss 334180
Core_0_L2C_rfo_MPKI 6.6836
Core_0_L2C_rfo_miss_rate 0.999988
Core_0_L2C_prefetch_access 4237715
Core_0_L2C_prefetch_hit 1982291
Core_0_L2C_prefetch_miss 2255424
Core_0_L2C_prefetch_MPKI 45.1085
Core_0_L2C_prefetch_miss_rate 0.532226
Core_0_L2C_writeback_access 334220
Core_0_L2C_writeback_hit 334216
Core_0_L2C_writeback_miss 4
Core_0_L2C_writeback_MPKI 8e-05
Core_0_L2C_writeback_miss_rate 1.19682e-05
Core_0_L2C_prefetch_requested 3731371
Core_0_L2C_prefetch_issued 3544445
Core_0_L2C_prefetch_useful 592881
Core_0_L2C_prefetch_useless 146773
Core_0_L2C_prefetch_late 11202
Core_0_L2C_prefetch_accuracy 0.16727
Core_0_L2C_prefetch_coverage 0.619298

Core_0_LLC_total_access 1462314
Core_0_LLC_total_hit 53830
Core_0_LLC_total_miss 1408484
Core_0_LLC_total_MPKI 28.1697
Core_0_LLC_total_miss_rate 0.963188
Core_0_LLC_demand_access 353261
Core_0_LLC_demand_hit 120
Core_0_LLC_demand_miss 353141
Core_0_LLC_demand_MPKI 7.06282
Core_0_LLC_demand_miss_rate 0.99966
Core_0_LLC_load_access 19081
Core_0_LLC_load_hit 50
Core_0_LLC_load_miss 19031
Core_0_LLC_load_MPKI 0.38062
Core_0_LLC_load_miss_rate 0.99738
Core_0_LLC_rfo_access 334180
Core_0_LLC_rfo_hit 70
Core_0_LLC_rfo_miss 334110
Core_0_LLC_rfo_MPKI 6.6822
Core_0_LLC_rfo_miss_rate 0.999791
Core_0_LLC_prefetch_access 774826
Core_0_LLC_prefetch_hit 2203
Core_0_LLC_prefetch_miss 772623
Core_0_LLC_prefetch_MPKI 15.4525
Core_0_LLC_prefetch_miss_rate 0.997157
Core_0_LLC_writeback_access 334227
Core_0_LLC_writeback_hit 51507
Core_0_LLC_writeback_miss 282720
Core_0_LLC_writeback_MPKI 5.6544
Core_0_LLC_writeback_miss_rate 0.845892
Core_0_LLC_prefetch_requested 0
Core_0_LLC_prefetch_issued 0
Core_0_LLC_prefetch_useful 0
Core_0_LLC_prefetch_useless 0
Core_0_LLC_prefetch_late 0
Core_0_LLC_prefetch_accuracy 0
Core_0_LLC_prefetch_coverage 0

[DRAM Statistics]
Channel_0_RQ_row_buffer_hit 30685
Channel_0_RQ_row_buffer_miss 1099971
Channel_0_WQ_row_buffer_hit 26776
Channel_0_WQ_row_buffer_miss 307666
Channel_0_WQ_full 0
Channel_0_dbus_congested 4164872
DRAM_total_RQ_row_buffer_hit 30685
DRAM_total_RQ_row_buffer_miss 1099971
DRAM_total_WQ_row_buffer_hit 26776
DRAM_total_WQ_row_buffer_miss 307666
DRAM_total_WQ_full 0
DRAM_total_dbus_congested 4164872
DRAM_avg_congested_cycle 5.80923

======STLB miss causes ========
Core_0_STLB_miss_cause_breakdown
Core_0_STLB_cause_Demand_Data_miss 18984
Core_0_STLB_cause_Demand_Data_miss_rate 0.784625
Core_0_STLB_cause_Demand_Instruction_miss 0
Core_0_STLB_cause_Demand_Instruction_miss_rate 0
Core_0_STLB_cause_L1D_Prefetch_miss 5192
Core_0_STLB_cause_L1D_Prefetch_miss_rate 0.21459
Core_0_STLB_cause_L1I_Prefetch_miss 0
Core_0_STLB_cause_L1I_Prefetch_miss_rate 0
Core_0_STLB_cause_Other_miss 0
Core_0_STLB_cause_Other_miss_rate 0
Core_0_STLB_Demand_miss 18984
Core_0_STLB_Demand_miss_rate 0.784625
Core_0_STLB_L1D_Prefetch_miss 5192
Core_0_STLB_L1D_Prefetch_miss_rate 0.21459
Core_0_STLB_Other_miss 0
Core_0_STLB_Other_miss_rate 0
