[VMEM] WARNING: physical memory size is smaller than virtual memory size.

*** ChampSim Multicore Out-of-Order Simulator ***
Warmup Instructions: 20000000
Simulation Instructions: 50000000
Number of CPUs: 1
Page size: 4096
Core 0: /data0/tzh/champsim_traces/SPEC17/657.xz_s-2302B.champsimtrace.xz
 L1D Berti prefetcher
Off-chip DRAM Size: 16 GiB Channels: 1 Width: 64-bit Data Rate: 3205 MT/s
Warmup halting CPU 0 at instruction 20000001 cycle 4529089 for remainder of phase
Warmup finished CPU 0 instructions: 20000001 cycles: 4529089 cumulative IPC: 4.416 (Simulation time: 00 hr 01 min 00 sec)
Warmup complete CPU 0 instructions: 20000001 cycles: 4529089 cumulative IPC: 4.416 (Simulation time: 00 hr 01 min 00 sec)
Simulation finished CPU 0 instructions: 50000003 cycles: 45285492 cumulative IPC: 1.104 (Simulation time: 00 hr 05 min 18 sec)
Simulation complete CPU 0 instructions: 50000003 cycles: 45285492 cumulative IPC: 1.104 (Simulation time: 00 hr 05 min 18 sec)

ChampSim completed all CPUs

=== Simulation ===
CPU 0 runs /data0/tzh/champsim_traces/SPEC17/657.xz_s-2302B.champsimtrace.xz

Region of Interest Statistics

CPU 0 cumulative IPC: 1.104 instructions: 50000003 cycles: 45285492
CPU 0 Branch Prediction Accuracy: 90.76% MPKI: 12.08 Average ROB Occupancy at Mispredict: 39.29
Branch type MPKI
BRANCH_DIRECT_JUMP: 0.119
BRANCH_INDIRECT: 1.066
BRANCH_CONDITIONAL: 10.89
BRANCH_DIRECT_CALL: 8e-05
BRANCH_INDIRECT_CALL: 0.00396
BRANCH_RETURN: 8e-05

cpu0->cpu0_STLB TOTAL        ACCESS:     312584 HIT:     265874 MISS:      46710 MSHR_MERGE:          0
cpu0->cpu0_STLB LOAD         ACCESS:     312584 HIT:     265874 MISS:      46710 MSHR_MERGE:          0
cpu0->cpu0_STLB RFO          ACCESS:          0 HIT:          0 MISS:          0 MSHR_MERGE:          0
cpu0->cpu0_STLB PREFETCH     ACCESS:          0 HIT:          0 MISS:          0 MSHR_MERGE:          0
cpu0->cpu0_STLB WRITE        ACCESS:          0 HIT:          0 MISS:          0 MSHR_MERGE:          0
cpu0->cpu0_STLB TRANSLATION  ACCESS:          0 HIT:          0 MISS:          0 MSHR_MERGE:          0
cpu0->cpu0_STLB PREFETCH REQUESTED:          0 ISSUED:          0 USEFUL:          0 USELESS:          0 LATE:          0
cpu0->cpu0_STLB AVERAGE MISS LATENCY: 38.55 cycles
cpu0->cpu0_L2C TOTAL        ACCESS:    1205984 HIT:     770133 MISS:     435851 MSHR_MERGE:      20462
cpu0->cpu0_L2C LOAD         ACCESS:     296653 HIT:     143962 MISS:     152691 MSHR_MERGE:        153
cpu0->cpu0_L2C RFO          ACCESS:      40578 HIT:      25177 MISS:      15401 MSHR_MERGE:          1
cpu0->cpu0_L2C PREFETCH     ACCESS:     597540 HIT:     347590 MISS:     249950 MSHR_MERGE:      20308
cpu0->cpu0_L2C WRITE        ACCESS:     230225 HIT:     229731 MISS:        494 MSHR_MERGE:          0
cpu0->cpu0_L2C TRANSLATION  ACCESS:      40988 HIT:      23673 MISS:      17315 MSHR_MERGE:          0
cpu0->cpu0_L2C PREFETCH REQUESTED:     508617 ISSUED:     506500 USEFUL:      38572 USELESS:     158896 LATE:        154
cpu0->cpu0_L2C AVERAGE MISS LATENCY: 93.39 cycles
cpu0->cpu0_L1I TOTAL        ACCESS:    2079917 HIT:    2079721 MISS:        196 MSHR_MERGE:         99
cpu0->cpu0_L1I LOAD         ACCESS:    2079917 HIT:    2079721 MISS:        196 MSHR_MERGE:         99
cpu0->cpu0_L1I RFO          ACCESS:          0 HIT:          0 MISS:          0 MSHR_MERGE:          0
cpu0->cpu0_L1I PREFETCH     ACCESS:          0 HIT:          0 MISS:          0 MSHR_MERGE:          0
cpu0->cpu0_L1I WRITE        ACCESS:          0 HIT:          0 MISS:          0 MSHR_MERGE:          0
cpu0->cpu0_L1I TRANSLATION  ACCESS:          0 HIT:          0 MISS:          0 MSHR_MERGE:          0
cpu0->cpu0_L1I PREFETCH REQUESTED:          0 ISSUED:          0 USEFUL:          0 USELESS:          0 LATE:          0
cpu0->cpu0_L1I AVERAGE MISS LATENCY: 192.9 cycles
cpu0->cpu0_L1D TOTAL        ACCESS:   13069942 HIT:   12480693 MISS:     589249 MSHR_MERGE:     120048
cpu0->cpu0_L1D LOAD         ACCESS:    8796812 HIT:    8404380 MISS:     392432 MSHR_MERGE:      95864
cpu0->cpu0_L1D RFO          ACCESS:          0 HIT:          0 MISS:          0 MSHR_MERGE:          0
cpu0->cpu0_L1D PREFETCH     ACCESS:     312141 HIT:     220662 MISS:      91479 MSHR_MERGE:        439
cpu0->cpu0_L1D WRITE        ACCESS:    3867724 HIT:    3803512 MISS:      64212 MSHR_MERGE:      23607
cpu0->cpu0_L1D TRANSLATION  ACCESS:      93265 HIT:      52139 MISS:      41126 MSHR_MERGE:        138
cpu0->cpu0_L1D PREFETCH REQUESTED:     317989 ISSUED:     312135 USEFUL:      18135 USELESS:      72865 LATE:        361
cpu0->cpu0_L1D AVERAGE MISS LATENCY: 54.37 cycles
cpu0->cpu0_ITLB TOTAL        ACCESS:    1769482 HIT:    1769482 MISS:          0 MSHR_MERGE:          0
cpu0->cpu0_ITLB LOAD         ACCESS:    1769482 HIT:    1769482 MISS:          0 MSHR_MERGE:          0
cpu0->cpu0_ITLB RFO          ACCESS:          0 HIT:          0 MISS:          0 MSHR_MERGE:          0
cpu0->cpu0_ITLB PREFETCH     ACCESS:          0 HIT:          0 MISS:          0 MSHR_MERGE:          0
cpu0->cpu0_ITLB WRITE        ACCESS:          0 HIT:          0 MISS:          0 MSHR_MERGE:          0
cpu0->cpu0_ITLB TRANSLATION  ACCESS:          0 HIT:          0 MISS:          0 MSHR_MERGE:          0
cpu0->cpu0_ITLB PREFETCH REQUESTED:          0 ISSUED:          0 USEFUL:          0 USELESS:          0 LATE:          0
cpu0->cpu0_ITLB AVERAGE MISS LATENCY: - cycles
cpu0->cpu0_DTLB TOTAL        ACCESS:   12419559 HIT:   12040831 MISS:     378728 MSHR_MERGE:      66144
cpu0->cpu0_DTLB LOAD         ACCESS:   12419559 HIT:   12040831 MISS:     378728 MSHR_MERGE:      66144
cpu0->cpu0_DTLB RFO          ACCESS:          0 HIT:          0 MISS:          0 MSHR_MERGE:          0
cpu0->cpu0_DTLB PREFETCH     ACCESS:          0 HIT:          0 MISS:          0 MSHR_MERGE:          0
cpu0->cpu0_DTLB WRITE        ACCESS:          0 HIT:          0 MISS:          0 MSHR_MERGE:          0
cpu0->cpu0_DTLB TRANSLATION  ACCESS:          0 HIT:          0 MISS:          0 MSHR_MERGE:          0
cpu0->cpu0_DTLB PREFETCH REQUESTED:          0 ISSUED:          0 USEFUL:          0 USELESS:          0 LATE:          0
cpu0->cpu0_DTLB AVERAGE MISS LATENCY: 10.91 cycles
cpu0->LLC TOTAL        ACCESS:     558758 HIT:     330097 MISS:     228661 MSHR_MERGE:          0
cpu0->LLC LOAD         ACCESS:     152538 HIT:      86972 MISS:      65566 MSHR_MERGE:          0
cpu0->LLC RFO          ACCESS:      15400 HIT:       7199 MISS:       8201 MSHR_MERGE:          0
cpu0->LLC PREFETCH     ACCESS:     229642 HIT:     122903 MISS:     106739 MSHR_MERGE:          0
cpu0->LLC WRITE        ACCESS:     143863 HIT:      97457 MISS:      46406 MSHR_MERGE:          0
cpu0->LLC TRANSLATION  ACCESS:      17315 HIT:      15566 MISS:       1749 MSHR_MERGE:          0
cpu0->LLC PREFETCH REQUESTED:          0 ISSUED:          0 USEFUL:          0 USELESS:          0 LATE:          0
cpu0->LLC AVERAGE MISS LATENCY: 122.3 cycles

DRAM Statistics

Channel 0 RQ ROW_BUFFER_HIT:       1335
  ROW_BUFFER_MISS:     180915
  AVG DBUS CONGESTED CYCLE: 15.93
Channel 0 WQ ROW_BUFFER_HIT:      12292
  ROW_BUFFER_MISS:      51685
  FULL:          0
Channel 0 REFRESHES ISSUED:       3774

[ROI Statistics]
[System Configuration]
num_cpus 1
cpu_freq 4000
fetch_width 6
decode_width 6
dispatch_width 6
execute_width 6
lq_width 2
sq_width 2
retire_width 6
scheduler_size 128
branch_mispredict_penalty 15
rob_size 352
lq_size 128
sq_size 72
ifetch_buffer_size 64
decode_buffer_size 32
dispatch_buffer_size 32
register_file_size 288
decode_latency 1
dispatch_latency 1
schedule_latency 1
execute_latency 1
page_size 4096
block_size 64
core_0_itlb_set 16
core_0_itlb_way 4
core_0_itlb_rq_size 16
core_0_itlb_wq_size 16
core_0_itlb_pq_size 0
core_0_itlb_mshr_size 8
core_0_itlb_hit_latency 1
core_0_itlb_fill_latency 1
core_0_itlb_max_tag_check 2
core_0_itlb_max_fill 2
core_0_dtlb_set 16
core_0_dtlb_way 4
core_0_dtlb_rq_size 16
core_0_dtlb_wq_size 16
core_0_dtlb_pq_size 0
core_0_dtlb_mshr_size 8
core_0_dtlb_hit_latency 1
core_0_dtlb_fill_latency 1
core_0_dtlb_max_tag_check 2
core_0_dtlb_max_fill 2
core_0_stlb_set 128
core_0_stlb_way 12
core_0_stlb_rq_size 32
core_0_stlb_wq_size 32
core_0_stlb_pq_size 0
core_0_stlb_mshr_size 16
core_0_stlb_hit_latency 4
core_0_stlb_fill_latency 4
core_0_stlb_max_tag_check 1
core_0_stlb_max_fill 1
core_0_l1i_set 64
core_0_l1i_way 8
core_0_l1i_rq_size 64
core_0_l1i_wq_size 64
core_0_l1i_pq_size 32
core_0_l1i_mshr_size 8
core_0_l1i_hit_latency 2
core_0_l1i_fill_latency 2
core_0_l1i_max_tag_check 2
core_0_l1i_max_fill 2
core_0_l1d_set 64
core_0_l1d_way 12
core_0_l1d_rq_size 64
core_0_l1d_wq_size 64
core_0_l1d_pq_size 8
core_0_l1d_mshr_size 16
core_0_l1d_hit_latency 2
core_0_l1d_fill_latency 3
core_0_l1d_max_tag_check 2
core_0_l1d_max_fill 2
core_0_l2c_set 1024
core_0_l2c_way 8
core_0_l2c_rq_size 32
core_0_l2c_wq_size 32
core_0_l2c_pq_size 16
core_0_l2c_mshr_size 32
core_0_l2c_hit_latency 5
core_0_l2c_fill_latency 5
core_0_l2c_max_tag_check 1
core_0_l2c_max_fill 1
llc_set 2048
llc_way 16
llc_rq_size 32
llc_wq_size 32
llc_pq_size 32
llc_mshr_size 64
llc_hit_latency 10
llc_fill_latency 10
llc_max_tag_check 1
llc_max_fill 1
dram_channels 1
dram_ranks 1
dram_bankgroups 8
dram_banks 4
dram_rows 65536
dram_columns 1024
dram_channel_width 8
dram_rq_size 64
dram_wq_size 64
dram_size 17179869184
core_0_itlb_prefetcher no
core_0_dtlb_prefetcher no
core_0_stlb_prefetcher no
core_0_l1i_prefetcher next_line
core_0_l1d_prefetcher berti
core_0_l2c_prefetcher pythia
llc_prefetcher no
llc_replacement drrip

Core_0_instructions 50000003
Core_0_cycles 45285492
Core_0_IPC 1.10411
Core_0_branch_prediction_accuracy 90.7566
Core_0_branch_MPKI 12.0796
Core_0_average_ROB_occupancy_at_mispredict 39.2873

Core_0_ITLB_total_access 1769482
Core_0_ITLB_total_hit 1769482
Core_0_ITLB_total_miss 0
Core_0_ITLB_total_MPKI 0
Core_0_ITLB_total_miss_rate 0
Core_0_ITLB_demand_access 1769482
Core_0_ITLB_demand_hit 1769482
Core_0_ITLB_demand_miss 0
Core_0_ITLB_demand_MPKI 0
Core_0_ITLB_demand_miss_rate 0
Core_0_ITLB_load_access 1769482
Core_0_ITLB_load_hit 1769482
Core_0_ITLB_load_miss 0
Core_0_ITLB_load_MPKI 0
Core_0_ITLB_load_miss_rate 0
Core_0_ITLB_rfo_access 0
Core_0_ITLB_rfo_hit 0
Core_0_ITLB_rfo_miss 0
Core_0_ITLB_rfo_MPKI 0
Core_0_ITLB_rfo_miss_rate 0
Core_0_ITLB_prefetch_access 0
Core_0_ITLB_prefetch_hit 0
Core_0_ITLB_prefetch_miss 0
Core_0_ITLB_prefetch_MPKI 0
Core_0_ITLB_prefetch_miss_rate 0
Core_0_ITLB_writeback_access 0
Core_0_ITLB_writeback_hit 0
Core_0_ITLB_writeback_miss 0
Core_0_ITLB_writeback_MPKI 0
Core_0_ITLB_writeback_miss_rate 0
Core_0_ITLB_prefetch_requested 0
Core_0_ITLB_prefetch_issued 0
Core_0_ITLB_prefetch_useful 0
Core_0_ITLB_prefetch_useless 0
Core_0_ITLB_prefetch_late 0
Core_0_ITLB_prefetch_accuracy 0
Core_0_ITLB_prefetch_coverage 0

Core_0_DTLB_total_access 12419559
Core_0_DTLB_total_hit 12040831
Core_0_DTLB_total_miss 378728
Core_0_DTLB_total_MPKI 7.57456
Core_0_DTLB_total_miss_rate 0.0304945
Core_0_DTLB_demand_access 12419559
Core_0_DTLB_demand_hit 12040831
Core_0_DTLB_demand_miss 378728
Core_0_DTLB_demand_MPKI 7.57456
Core_0_DTLB_demand_miss_rate 0.0304945
Core_0_DTLB_load_access 12419559
Core_0_DTLB_load_hit 12040831
Core_0_DTLB_load_miss 378728
Core_0_DTLB_load_MPKI 7.57456
Core_0_DTLB_load_miss_rate 0.0304945
Core_0_DTLB_rfo_access 0
Core_0_DTLB_rfo_hit 0
Core_0_DTLB_rfo_miss 0
Core_0_DTLB_rfo_MPKI 0
Core_0_DTLB_rfo_miss_rate 0
Core_0_DTLB_prefetch_access 0
Core_0_DTLB_prefetch_hit 0
Core_0_DTLB_prefetch_miss 0
Core_0_DTLB_prefetch_MPKI 0
Core_0_DTLB_prefetch_miss_rate 0
Core_0_DTLB_writeback_access 0
Core_0_DTLB_writeback_hit 0
Core_0_DTLB_writeback_miss 0
Core_0_DTLB_writeback_MPKI 0
Core_0_DTLB_writeback_miss_rate 0
Core_0_DTLB_prefetch_requested 0
Core_0_DTLB_prefetch_issued 0
Core_0_DTLB_prefetch_useful 0
Core_0_DTLB_prefetch_useless 0
Core_0_DTLB_prefetch_late 0
Core_0_DTLB_prefetch_accuracy 0
Core_0_DTLB_prefetch_coverage 0

Core_0_STLB_total_access 312584
Core_0_STLB_total_hit 265874
Core_0_STLB_total_miss 46710
Core_0_STLB_total_MPKI 0.9342
Core_0_STLB_total_miss_rate 0.149432
Core_0_STLB_demand_access 312584
Core_0_STLB_demand_hit 265874
Core_0_STLB_demand_miss 46710
Core_0_STLB_demand_MPKI 0.9342
Core_0_STLB_demand_miss_rate 0.149432
Core_0_STLB_load_access 312584
Core_0_STLB_load_hit 265874
Core_0_STLB_load_miss 46710
Core_0_STLB_load_MPKI 0.9342
Core_0_STLB_load_miss_rate 0.149432
Core_0_STLB_rfo_access 0
Core_0_STLB_rfo_hit 0
Core_0_STLB_rfo_miss 0
Core_0_STLB_rfo_MPKI 0
Core_0_STLB_rfo_miss_rate 0
Core_0_STLB_prefetch_access 0
Core_0_STLB_prefetch_hit 0
Core_0_STLB_prefetch_miss 0
Core_0_STLB_prefetch_MPKI 0
Core_0_STLB_prefetch_miss_rate 0
Core_0_STLB_writeback_access 0
Core_0_STLB_writeback_hit 0
Core_0_STLB_writeback_miss 0
Core_0_STLB_writeback_MPKI 0
Core_0_STLB_writeback_miss_rate 0
Core_0_STLB_prefetch_requested 0
Core_0_STLB_prefetch_issued 0
Core_0_STLB_prefetch_useful 0
Core_0_STLB_prefetch_useless 0
Core_0_STLB_prefetch_late 0
Core_0_STLB_prefetch_accuracy 0
Core_0_STLB_prefetch_coverage 0

Core_0_L1I_total_access 2079917
Core_0_L1I_total_hit 2079721
Core_0_L1I_total_miss 196
Core_0_L1I_total_MPKI 0.00392
Core_0_L1I_total_miss_rate 9.42345e-05
Core_0_L1I_demand_access 2079917
Core_0_L1I_demand_hit 2079721
Core_0_L1I_demand_miss 196
Core_0_L1I_demand_MPKI 0.00392
Core_0_L1I_demand_miss_rate 9.42345e-05
Core_0_L1I_load_access 2079917
Core_0_L1I_load_hit 2079721
Core_0_L1I_load_miss 196
Core_0_L1I_load_MPKI 0.00392
Core_0_L1I_load_miss_rate 9.42345e-05
Core_0_L1I_rfo_access 0
Core_0_L1I_rfo_hit 0
Core_0_L1I_rfo_miss 0
Core_0_L1I_rfo_MPKI 0
Core_0_L1I_rfo_miss_rate 0
Core_0_L1I_prefetch_access 0
Core_0_L1I_prefetch_hit 0
Core_0_L1I_prefetch_miss 0
Core_0_L1I_prefetch_MPKI 0
Core_0_L1I_prefetch_miss_rate 0
Core_0_L1I_writeback_access 0
Core_0_L1I_writeback_hit 0
Core_0_L1I_writeback_miss 0
Core_0_L1I_writeback_MPKI 0
Core_0_L1I_writeback_miss_rate 0
Core_0_L1I_prefetch_requested 0
Core_0_L1I_prefetch_issued 0
Core_0_L1I_prefetch_useful 0
Core_0_L1I_prefetch_useless 0
Core_0_L1I_prefetch_late 0
Core_0_L1I_prefetch_accuracy 0
Core_0_L1I_prefetch_coverage 0

Core_0_L1D_total_access 12976677
Core_0_L1D_total_hit 12428554
Core_0_L1D_total_miss 548123
Core_0_L1D_total_MPKI 10.9625
Core_0_L1D_total_miss_rate 0.0422391
Core_0_L1D_demand_access 8796812
Core_0_L1D_demand_hit 8404380
Core_0_L1D_demand_miss 392432
Core_0_L1D_demand_MPKI 7.84864
Core_0_L1D_demand_miss_rate 0.0446107
Core_0_L1D_load_access 8796812
Core_0_L1D_load_hit 8404380
Core_0_L1D_load_miss 392432
Core_0_L1D_load_MPKI 7.84864
Core_0_L1D_load_miss_rate 0.0446107
Core_0_L1D_rfo_access 0
Core_0_L1D_rfo_hit 0
Core_0_L1D_rfo_miss 0
Core_0_L1D_rfo_MPKI 0
Core_0_L1D_rfo_miss_rate 0
Core_0_L1D_prefetch_access 312141
Core_0_L1D_prefetch_hit 220662
Core_0_L1D_prefetch_miss 91479
Core_0_L1D_prefetch_MPKI 1.82958
Core_0_L1D_prefetch_miss_rate 0.293069
Core_0_L1D_writeback_access 3867724
Core_0_L1D_writeback_hit 3803512
Core_0_L1D_writeback_miss 64212
Core_0_L1D_writeback_MPKI 1.28424
Core_0_L1D_writeback_miss_rate 0.016602
Core_0_L1D_prefetch_requested 317989
Core_0_L1D_prefetch_issued 312135
Core_0_L1D_prefetch_useful 18135
Core_0_L1D_prefetch_useless 72865
Core_0_L1D_prefetch_late 361
Core_0_L1D_prefetch_accuracy 0.0580999
Core_0_L1D_prefetch_coverage 0.0441706

Core_0_L2C_total_access 1164996
Core_0_L2C_total_hit 746460
Core_0_L2C_total_miss 418536
Core_0_L2C_total_MPKI 8.37072
Core_0_L2C_total_miss_rate 0.35926
Core_0_L2C_demand_access 337231
Core_0_L2C_demand_hit 169139
Core_0_L2C_demand_miss 168092
Core_0_L2C_demand_MPKI 3.36184
Core_0_L2C_demand_miss_rate 0.498448
Core_0_L2C_load_access 296653
Core_0_L2C_load_hit 143962
Core_0_L2C_load_miss 152691
Core_0_L2C_load_MPKI 3.05382
Core_0_L2C_load_miss_rate 0.514712
Core_0_L2C_rfo_access 40578
Core_0_L2C_rfo_hit 25177
Core_0_L2C_rfo_miss 15401
Core_0_L2C_rfo_MPKI 0.30802
Core_0_L2C_rfo_miss_rate 0.379541
Core_0_L2C_prefetch_access 597540
Core_0_L2C_prefetch_hit 347590
Core_0_L2C_prefetch_miss 249950
Core_0_L2C_prefetch_MPKI 4.999
Core_0_L2C_prefetch_miss_rate 0.418298
Core_0_L2C_writeback_access 230225
Core_0_L2C_writeback_hit 229731
Core_0_L2C_writeback_miss 494
Core_0_L2C_writeback_MPKI 0.00988
Core_0_L2C_writeback_miss_rate 0.00214573
Core_0_L2C_prefetch_requested 508617
Core_0_L2C_prefetch_issued 506500
Core_0_L2C_prefetch_useful 38572
Core_0_L2C_prefetch_useless 158896
Core_0_L2C_prefetch_late 154
Core_0_L2C_prefetch_accuracy 0.076154
Core_0_L2C_prefetch_coverage 0.186641

Core_0_LLC_total_access 541443
Core_0_LLC_total_hit 314531
Core_0_LLC_total_miss 226912
Core_0_LLC_total_MPKI 4.53824
Core_0_LLC_total_miss_rate 0.419088
Core_0_LLC_demand_access 167938
Core_0_LLC_demand_hit 94171
Core_0_LLC_demand_miss 73767
Core_0_LLC_demand_MPKI 1.47534
Core_0_LLC_demand_miss_rate 0.439251
Core_0_LLC_load_access 152538
Core_0_LLC_load_hit 86972
Core_0_LLC_load_miss 65566
Core_0_LLC_load_MPKI 1.31132
Core_0_LLC_load_miss_rate 0.429834
Core_0_LLC_rfo_access 15400
Core_0_LLC_rfo_hit 7199
Core_0_LLC_rfo_miss 8201
Core_0_LLC_rfo_MPKI 0.16402
Core_0_LLC_rfo_miss_rate 0.532532
Core_0_LLC_prefetch_access 229642
Core_0_LLC_prefetch_hit 122903
Core_0_LLC_prefetch_miss 106739
Core_0_LLC_prefetch_MPKI 2.13478
Core_0_LLC_prefetch_miss_rate 0.464806
Core_0_LLC_writeback_access 143863
Core_0_LLC_writeback_hit 97457
Core_0_LLC_writeback_miss 46406
Core_0_LLC_writeback_MPKI 0.92812
Core_0_LLC_writeback_miss_rate 0.322571
Core_0_LLC_prefetch_requested 0
Core_0_LLC_prefetch_issued 0
Core_0_LLC_prefetch_useful 0
Core_0_LLC_prefetch_useless 0
Core_0_LLC_prefetch_late 0
Core_0_LLC_prefetch_accuracy 0
Core_0_LLC_prefetch_coverage 0

[DRAM Statistics]
Channel_0_RQ_row_buffer_hit 1335
Channel_0_RQ_row_buffer_miss 180915
Channel_0_WQ_row_buffer_hit 12292
Channel_0_WQ_row_buffer_miss 51685
Channel_0_WQ_full 0
Channel_0_dbus_congested 607452
DRAM_total_RQ_row_buffer_hit 1335
DRAM_total_RQ_row_buffer_miss 180915
DRAM_total_WQ_row_buffer_hit 12292
DRAM_total_WQ_row_buffer_miss 51685
DRAM_total_WQ_full 0
DRAM_total_dbus_congested 607452
DRAM_avg_congested_cycle 15.928

======STLB miss causes ========
Core_0_STLB_miss_cause_breakdown
Core_0_STLB_cause_Demand_Data_miss 45536
Core_0_STLB_cause_Demand_Data_miss_rate 0.145676
Core_0_STLB_cause_Demand_Instruction_miss 0
Core_0_STLB_cause_Demand_Instruction_miss_rate 0
Core_0_STLB_cause_L1D_Prefetch_miss 1174
Core_0_STLB_cause_L1D_Prefetch_miss_rate 0.00375579
Core_0_STLB_cause_L1I_Prefetch_miss 0
Core_0_STLB_cause_L1I_Prefetch_miss_rate 0
Core_0_STLB_cause_Other_miss 0
Core_0_STLB_cause_Other_miss_rate 0
Core_0_STLB_Demand_miss 45536
Core_0_STLB_Demand_miss_rate 0.145676
Core_0_STLB_L1D_Prefetch_miss 1174
Core_0_STLB_L1D_Prefetch_miss_rate 0.00375579
Core_0_STLB_Other_miss 0
Core_0_STLB_Other_miss_rate 0
