[VMEM] WARNING: physical memory size is smaller than virtual memory size.

*** ChampSim Multicore Out-of-Order Simulator ***
Warmup Instructions: 20000000
Simulation Instructions: 50000000
Number of CPUs: 1
Page size: 4096
Core 0: /data0/tzh/champsim_traces/GAP/gap.cc.twitter-10B.champsimtrace.xz
 L1D Berti prefetcher
Off-chip DRAM Size: 16 GiB Channels: 1 Width: 64-bit Data Rate: 3205 MT/s
Warmup halting CPU 0 at instruction 20000004 cycle 6476282 for remainder of phase
Warmup finished CPU 0 instructions: 20000004 cycles: 6476282 cumulative IPC: 3.088 (Simulation time: 00 hr 01 min 07 sec)
Warmup complete CPU 0 instructions: 20000004 cycles: 6476282 cumulative IPC: 3.088 (Simulation time: 00 hr 01 min 07 sec)
Simulation finished CPU 0 instructions: 50000002 cycles: 93802674 cumulative IPC: 0.533 (Simulation time: 00 hr 07 min 25 sec)
Simulation complete CPU 0 instructions: 50000002 cycles: 93802674 cumulative IPC: 0.533 (Simulation time: 00 hr 07 min 25 sec)

ChampSim completed all CPUs

=== Simulation ===
CPU 0 runs /data0/tzh/champsim_traces/GAP/gap.cc.twitter-10B.champsimtrace.xz

Region of Interest Statistics

CPU 0 cumulative IPC: 0.533 instructions: 50000002 cycles: 93802674
CPU 0 Branch Prediction Accuracy: 91.43% MPKI: 25.63 Average ROB Occupancy at Mispredict: 19.32
Branch type MPKI
BRANCH_DIRECT_JUMP: 0
BRANCH_INDIRECT: 0
BRANCH_CONDITIONAL: 25.63
BRANCH_DIRECT_CALL: 0
BRANCH_INDIRECT_CALL: 0
BRANCH_RETURN: 0

cpu0->cpu0_STLB TOTAL        ACCESS:     179674 HIT:      51135 MISS:     128539 MSHR_MERGE:          0
cpu0->cpu0_STLB LOAD         ACCESS:     179674 HIT:      51135 MISS:     128539 MSHR_MERGE:          0
cpu0->cpu0_STLB RFO          ACCESS:          0 HIT:          0 MISS:          0 MSHR_MERGE:          0
cpu0->cpu0_STLB PREFETCH     ACCESS:          0 HIT:          0 MISS:          0 MSHR_MERGE:          0
cpu0->cpu0_STLB WRITE        ACCESS:          0 HIT:          0 MISS:          0 MSHR_MERGE:          0
cpu0->cpu0_STLB TRANSLATION  ACCESS:          0 HIT:          0 MISS:          0 MSHR_MERGE:          0
cpu0->cpu0_STLB PREFETCH REQUESTED:          0 ISSUED:          0 USEFUL:          0 USELESS:          0 LATE:          0
cpu0->cpu0_STLB AVERAGE MISS LATENCY: 69.25 cycles
cpu0->cpu0_L2C TOTAL        ACCESS:    2586139 HIT:    1895649 MISS:     690490 MSHR_MERGE:     147021
cpu0->cpu0_L2C LOAD         ACCESS:     188077 HIT:      49117 MISS:     138960 MSHR_MERGE:        136
cpu0->cpu0_L2C RFO          ACCESS:          0 HIT:          0 MISS:          0 MSHR_MERGE:          0
cpu0->cpu0_L2C PREFETCH     ACCESS:    1975579 HIT:    1503193 MISS:     472386 MSHR_MERGE:     146885
cpu0->cpu0_L2C WRITE        ACCESS:     303497 HIT:     303497 MISS:          0 MSHR_MERGE:          0
cpu0->cpu0_L2C TRANSLATION  ACCESS:     118986 HIT:      39842 MISS:      79144 MSHR_MERGE:          0
cpu0->cpu0_L2C PREFETCH REQUESTED:    1643058 ISSUED:    1643058 USEFUL:     304114 USELESS:       9239 LATE:        136
cpu0->cpu0_L2C AVERAGE MISS LATENCY: 127.6 cycles
cpu0->cpu0_L1I TOTAL        ACCESS:         12 HIT:         12 MISS:          0 MSHR_MERGE:          0
cpu0->cpu0_L1I LOAD         ACCESS:         12 HIT:         12 MISS:          0 MSHR_MERGE:          0
cpu0->cpu0_L1I RFO          ACCESS:          0 HIT:          0 MISS:          0 MSHR_MERGE:          0
cpu0->cpu0_L1I PREFETCH     ACCESS:          0 HIT:          0 MISS:          0 MSHR_MERGE:          0
cpu0->cpu0_L1I WRITE        ACCESS:          0 HIT:          0 MISS:          0 MSHR_MERGE:          0
cpu0->cpu0_L1I TRANSLATION  ACCESS:          0 HIT:          0 MISS:          0 MSHR_MERGE:          0
cpu0->cpu0_L1I PREFETCH REQUESTED:          0 ISSUED:          0 USEFUL:          0 USELESS:          0 LATE:          0
cpu0->cpu0_L1I AVERAGE MISS LATENCY: - cycles
cpu0->cpu0_L1D TOTAL        ACCESS:   12231748 HIT:   11572482 MISS:     659266 MSHR_MERGE:      19682
cpu0->cpu0_L1D LOAD         ACCESS:   10243195 HIT:   10035645 MISS:     207550 MSHR_MERGE:      19473
cpu0->cpu0_L1D RFO          ACCESS:          0 HIT:          0 MISS:          0 MSHR_MERGE:          0
cpu0->cpu0_L1D PREFETCH     ACCESS:     387527 HIT:      54797 MISS:     332730 MSHR_MERGE:        209
cpu0->cpu0_L1D WRITE        ACCESS:    1281827 HIT:    1281827 MISS:          0 MSHR_MERGE:          0
cpu0->cpu0_L1D TRANSLATION  ACCESS:     319199 HIT:     200213 MISS:     118986 MSHR_MERGE:          0
cpu0->cpu0_L1D PREFETCH REQUESTED:     387526 ISSUED:     387526 USEFUL:     308327 USELESS:      24200 LATE:        812
cpu0->cpu0_L1D AVERAGE MISS LATENCY: 99.27 cycles
cpu0->cpu0_ITLB TOTAL        ACCESS:          6 HIT:          6 MISS:          0 MSHR_MERGE:          0
cpu0->cpu0_ITLB LOAD         ACCESS:          6 HIT:          6 MISS:          0 MSHR_MERGE:          0
cpu0->cpu0_ITLB RFO          ACCESS:          0 HIT:          0 MISS:          0 MSHR_MERGE:          0
cpu0->cpu0_ITLB PREFETCH     ACCESS:          0 HIT:          0 MISS:          0 MSHR_MERGE:          0
cpu0->cpu0_ITLB WRITE        ACCESS:          0 HIT:          0 MISS:          0 MSHR_MERGE:          0
cpu0->cpu0_ITLB TRANSLATION  ACCESS:          0 HIT:          0 MISS:          0 MSHR_MERGE:          0
cpu0->cpu0_ITLB PREFETCH REQUESTED:          0 ISSUED:          0 USEFUL:          0 USELESS:          0 LATE:          0
cpu0->cpu0_ITLB AVERAGE MISS LATENCY: - cycles
cpu0->cpu0_DTLB TOTAL        ACCESS:   11806274 HIT:   11610506 MISS:     195768 MSHR_MERGE:      16094
cpu0->cpu0_DTLB LOAD         ACCESS:   11806274 HIT:   11610506 MISS:     195768 MSHR_MERGE:      16094
cpu0->cpu0_DTLB RFO          ACCESS:          0 HIT:          0 MISS:          0 MSHR_MERGE:          0
cpu0->cpu0_DTLB PREFETCH     ACCESS:          0 HIT:          0 MISS:          0 MSHR_MERGE:          0
cpu0->cpu0_DTLB WRITE        ACCESS:          0 HIT:          0 MISS:          0 MSHR_MERGE:          0
cpu0->cpu0_DTLB TRANSLATION  ACCESS:          0 HIT:          0 MISS:          0 MSHR_MERGE:          0
cpu0->cpu0_DTLB PREFETCH REQUESTED:          0 ISSUED:          0 USEFUL:          0 USELESS:          0 LATE:          0
cpu0->cpu0_DTLB AVERAGE MISS LATENCY: 55.26 cycles
cpu0->LLC TOTAL        ACCESS:     846760 HIT:     369855 MISS:     476905 MSHR_MERGE:          0
cpu0->LLC LOAD         ACCESS:     138824 HIT:      28043 MISS:     110781 MSHR_MERGE:          0
cpu0->LLC RFO          ACCESS:          0 HIT:          0 MISS:          0 MSHR_MERGE:          0
cpu0->LLC PREFETCH     ACCESS:     325501 HIT:      10045 MISS:     315456 MSHR_MERGE:          0
cpu0->LLC WRITE        ACCESS:     303291 HIT:     266324 MISS:      36967 MSHR_MERGE:          0
cpu0->LLC TRANSLATION  ACCESS:      79144 HIT:      65443 MISS:      13701 MSHR_MERGE:          0
cpu0->LLC PREFETCH REQUESTED:          0 ISSUED:          0 USEFUL:          0 USELESS:          0 LATE:          0
cpu0->LLC AVERAGE MISS LATENCY: 153.2 cycles

DRAM Statistics

Channel 0 RQ ROW_BUFFER_HIT:      10027
  ROW_BUFFER_MISS:     429905
  AVG DBUS CONGESTED CYCLE: 20.05
Channel 0 WQ ROW_BUFFER_HIT:      90361
  ROW_BUFFER_MISS:     212598
  FULL:          0
Channel 0 REFRESHES ISSUED:       7817

[ROI Statistics]
[System Configuration]
num_cpus 1
cpu_freq 4000
fetch_width 6
decode_width 6
dispatch_width 6
execute_width 6
lq_width 2
sq_width 2
retire_width 6
scheduler_size 128
branch_mispredict_penalty 15
rob_size 352
lq_size 128
sq_size 72
ifetch_buffer_size 64
decode_buffer_size 32
dispatch_buffer_size 32
register_file_size 288
decode_latency 1
dispatch_latency 1
schedule_latency 1
execute_latency 1
page_size 4096
block_size 64
core_0_itlb_set 16
core_0_itlb_way 4
core_0_itlb_rq_size 16
core_0_itlb_wq_size 16
core_0_itlb_pq_size 0
core_0_itlb_mshr_size 8
core_0_itlb_hit_latency 1
core_0_itlb_fill_latency 1
core_0_itlb_max_tag_check 2
core_0_itlb_max_fill 2
core_0_dtlb_set 16
core_0_dtlb_way 4
core_0_dtlb_rq_size 16
core_0_dtlb_wq_size 16
core_0_dtlb_pq_size 0
core_0_dtlb_mshr_size 8
core_0_dtlb_hit_latency 1
core_0_dtlb_fill_latency 1
core_0_dtlb_max_tag_check 2
core_0_dtlb_max_fill 2
core_0_stlb_set 128
core_0_stlb_way 12
core_0_stlb_rq_size 32
core_0_stlb_wq_size 32
core_0_stlb_pq_size 0
core_0_stlb_mshr_size 16
core_0_stlb_hit_latency 4
core_0_stlb_fill_latency 4
core_0_stlb_max_tag_check 1
core_0_stlb_max_fill 1
core_0_l1i_set 64
core_0_l1i_way 8
core_0_l1i_rq_size 64
core_0_l1i_wq_size 64
core_0_l1i_pq_size 32
core_0_l1i_mshr_size 8
core_0_l1i_hit_latency 2
core_0_l1i_fill_latency 2
core_0_l1i_max_tag_check 2
core_0_l1i_max_fill 2
core_0_l1d_set 64
core_0_l1d_way 12
core_0_l1d_rq_size 64
core_0_l1d_wq_size 64
core_0_l1d_pq_size 8
core_0_l1d_mshr_size 16
core_0_l1d_hit_latency 2
core_0_l1d_fill_latency 3
core_0_l1d_max_tag_check 2
core_0_l1d_max_fill 2
core_0_l2c_set 1024
core_0_l2c_way 8
core_0_l2c_rq_size 32
core_0_l2c_wq_size 32
core_0_l2c_pq_size 16
core_0_l2c_mshr_size 32
core_0_l2c_hit_latency 5
core_0_l2c_fill_latency 5
core_0_l2c_max_tag_check 1
core_0_l2c_max_fill 1
llc_set 2048
llc_way 16
llc_rq_size 32
llc_wq_size 32
llc_pq_size 32
llc_mshr_size 64
llc_hit_latency 10
llc_fill_latency 10
llc_max_tag_check 1
llc_max_fill 1
dram_channels 1
dram_ranks 1
dram_bankgroups 8
dram_banks 4
dram_rows 65536
dram_columns 1024
dram_channel_width 8
dram_rq_size 64
dram_wq_size 64
dram_size 17179869184
core_0_itlb_prefetcher no
core_0_dtlb_prefetcher no
core_0_stlb_prefetcher no
core_0_l1i_prefetcher next_line
core_0_l1d_prefetcher berti
core_0_l2c_prefetcher pythia
llc_prefetcher no
llc_replacement drrip

Core_0_instructions 50000002
Core_0_cycles 93802674
Core_0_IPC 0.533034
Core_0_branch_prediction_accuracy 91.4313
Core_0_branch_MPKI 25.6332
Core_0_average_ROB_occupancy_at_mispredict 19.3236

Core_0_ITLB_total_access 6
Core_0_ITLB_total_hit 6
Core_0_ITLB_total_miss 0
Core_0_ITLB_total_MPKI 0
Core_0_ITLB_total_miss_rate 0
Core_0_ITLB_demand_access 6
Core_0_ITLB_demand_hit 6
Core_0_ITLB_demand_miss 0
Core_0_ITLB_demand_MPKI 0
Core_0_ITLB_demand_miss_rate 0
Core_0_ITLB_load_access 6
Core_0_ITLB_load_hit 6
Core_0_ITLB_load_miss 0
Core_0_ITLB_load_MPKI 0
Core_0_ITLB_load_miss_rate 0
Core_0_ITLB_rfo_access 0
Core_0_ITLB_rfo_hit 0
Core_0_ITLB_rfo_miss 0
Core_0_ITLB_rfo_MPKI 0
Core_0_ITLB_rfo_miss_rate 0
Core_0_ITLB_prefetch_access 0
Core_0_ITLB_prefetch_hit 0
Core_0_ITLB_prefetch_miss 0
Core_0_ITLB_prefetch_MPKI 0
Core_0_ITLB_prefetch_miss_rate 0
Core_0_ITLB_writeback_access 0
Core_0_ITLB_writeback_hit 0
Core_0_ITLB_writeback_miss 0
Core_0_ITLB_writeback_MPKI 0
Core_0_ITLB_writeback_miss_rate 0
Core_0_ITLB_prefetch_requested 0
Core_0_ITLB_prefetch_issued 0
Core_0_ITLB_prefetch_useful 0
Core_0_ITLB_prefetch_useless 0
Core_0_ITLB_prefetch_late 0
Core_0_ITLB_prefetch_accuracy 0
Core_0_ITLB_prefetch_coverage 0

Core_0_DTLB_total_access 11806274
Core_0_DTLB_total_hit 11610506
Core_0_DTLB_total_miss 195768
Core_0_DTLB_total_MPKI 3.91536
Core_0_DTLB_total_miss_rate 0.0165817
Core_0_DTLB_demand_access 11806274
Core_0_DTLB_demand_hit 11610506
Core_0_DTLB_demand_miss 195768
Core_0_DTLB_demand_MPKI 3.91536
Core_0_DTLB_demand_miss_rate 0.0165817
Core_0_DTLB_load_access 11806274
Core_0_DTLB_load_hit 11610506
Core_0_DTLB_load_miss 195768
Core_0_DTLB_load_MPKI 3.91536
Core_0_DTLB_load_miss_rate 0.0165817
Core_0_DTLB_rfo_access 0
Core_0_DTLB_rfo_hit 0
Core_0_DTLB_rfo_miss 0
Core_0_DTLB_rfo_MPKI 0
Core_0_DTLB_rfo_miss_rate 0
Core_0_DTLB_prefetch_access 0
Core_0_DTLB_prefetch_hit 0
Core_0_DTLB_prefetch_miss 0
Core_0_DTLB_prefetch_MPKI 0
Core_0_DTLB_prefetch_miss_rate 0
Core_0_DTLB_writeback_access 0
Core_0_DTLB_writeback_hit 0
Core_0_DTLB_writeback_miss 0
Core_0_DTLB_writeback_MPKI 0
Core_0_DTLB_writeback_miss_rate 0
Core_0_DTLB_prefetch_requested 0
Core_0_DTLB_prefetch_issued 0
Core_0_DTLB_prefetch_useful 0
Core_0_DTLB_prefetch_useless 0
Core_0_DTLB_prefetch_late 0
Core_0_DTLB_prefetch_accuracy 0
Core_0_DTLB_prefetch_coverage 0

Core_0_STLB_total_access 179674
Core_0_STLB_total_hit 51135
Core_0_STLB_total_miss 128539
Core_0_STLB_total_MPKI 2.57078
Core_0_STLB_total_miss_rate 0.715401
Core_0_STLB_demand_access 179674
Core_0_STLB_demand_hit 51135
Core_0_STLB_demand_miss 128539
Core_0_STLB_demand_MPKI 2.57078
Core_0_STLB_demand_miss_rate 0.715401
Core_0_STLB_load_access 179674
Core_0_STLB_load_hit 51135
Core_0_STLB_load_miss 128539
Core_0_STLB_load_MPKI 2.57078
Core_0_STLB_load_miss_rate 0.715401
Core_0_STLB_rfo_access 0
Core_0_STLB_rfo_hit 0
Core_0_STLB_rfo_miss 0
Core_0_STLB_rfo_MPKI 0
Core_0_STLB_rfo_miss_rate 0
Core_0_STLB_prefetch_access 0
Core_0_STLB_prefetch_hit 0
Core_0_STLB_prefetch_miss 0
Core_0_STLB_prefetch_MPKI 0
Core_0_STLB_prefetch_miss_rate 0
Core_0_STLB_writeback_access 0
Core_0_STLB_writeback_hit 0
Core_0_STLB_writeback_miss 0
Core_0_STLB_writeback_MPKI 0
Core_0_STLB_writeback_miss_rate 0
Core_0_STLB_prefetch_requested 0
Core_0_STLB_prefetch_issued 0
Core_0_STLB_prefetch_useful 0
Core_0_STLB_prefetch_useless 0
Core_0_STLB_prefetch_late 0
Core_0_STLB_prefetch_accuracy 0
Core_0_STLB_prefetch_coverage 0

Core_0_L1I_total_access 12
Core_0_L1I_total_hit 12
Core_0_L1I_total_miss 0
Core_0_L1I_total_MPKI 0
Core_0_L1I_total_miss_rate 0
Core_0_L1I_demand_access 12
Core_0_L1I_demand_hit 12
Core_0_L1I_demand_miss 0
Core_0_L1I_demand_MPKI 0
Core_0_L1I_demand_miss_rate 0
Core_0_L1I_load_access 12
Core_0_L1I_load_hit 12
Core_0_L1I_load_miss 0
Core_0_L1I_load_MPKI 0
Core_0_L1I_load_miss_rate 0
Core_0_L1I_rfo_access 0
Core_0_L1I_rfo_hit 0
Core_0_L1I_rfo_miss 0
Core_0_L1I_rfo_MPKI 0
Core_0_L1I_rfo_miss_rate 0
Core_0_L1I_prefetch_access 0
Core_0_L1I_prefetch_hit 0
Core_0_L1I_prefetch_miss 0
Core_0_L1I_prefetch_MPKI 0
Core_0_L1I_prefetch_miss_rate 0
Core_0_L1I_writeback_access 0
Core_0_L1I_writeback_hit 0
Core_0_L1I_writeback_miss 0
Core_0_L1I_writeback_MPKI 0
Core_0_L1I_writeback_miss_rate 0
Core_0_L1I_prefetch_requested 0
Core_0_L1I_prefetch_issued 0
Core_0_L1I_prefetch_useful 0
Core_0_L1I_prefetch_useless 0
Core_0_L1I_prefetch_late 0
Core_0_L1I_prefetch_accuracy 0
Core_0_L1I_prefetch_coverage 0

Core_0_L1D_total_access 11912549
Core_0_L1D_total_hit 11372269
Core_0_L1D_total_miss 540280
Core_0_L1D_total_MPKI 10.8056
Core_0_L1D_total_miss_rate 0.0453539
Core_0_L1D_demand_access 10243195
Core_0_L1D_demand_hit 10035645
Core_0_L1D_demand_miss 207550
Core_0_L1D_demand_MPKI 4.151
Core_0_L1D_demand_miss_rate 0.0202622
Core_0_L1D_load_access 10243195
Core_0_L1D_load_hit 10035645
Core_0_L1D_load_miss 207550
Core_0_L1D_load_MPKI 4.151
Core_0_L1D_load_miss_rate 0.0202622
Core_0_L1D_rfo_access 0
Core_0_L1D_rfo_hit 0
Core_0_L1D_rfo_miss 0
Core_0_L1D_rfo_MPKI 0
Core_0_L1D_rfo_miss_rate 0
Core_0_L1D_prefetch_access 387527
Core_0_L1D_prefetch_hit 54797
Core_0_L1D_prefetch_miss 332730
Core_0_L1D_prefetch_MPKI 6.6546
Core_0_L1D_prefetch_miss_rate 0.858598
Core_0_L1D_writeback_access 1281827
Core_0_L1D_writeback_hit 1281827
Core_0_L1D_writeback_miss 0
Core_0_L1D_writeback_MPKI 0
Core_0_L1D_writeback_miss_rate 0
Core_0_L1D_prefetch_requested 387526
Core_0_L1D_prefetch_issued 387526
Core_0_L1D_prefetch_useful 308327
Core_0_L1D_prefetch_useless 24200
Core_0_L1D_prefetch_late 812
Core_0_L1D_prefetch_accuracy 0.795629
Core_0_L1D_prefetch_coverage 0.597675

Core_0_L2C_total_access 2467153
Core_0_L2C_total_hit 1855807
Core_0_L2C_total_miss 611346
Core_0_L2C_total_MPKI 12.2269
Core_0_L2C_total_miss_rate 0.247794
Core_0_L2C_demand_access 188077
Core_0_L2C_demand_hit 49117
Core_0_L2C_demand_miss 138960
Core_0_L2C_demand_MPKI 2.7792
Core_0_L2C_demand_miss_rate 0.738846
Core_0_L2C_load_access 188077
Core_0_L2C_load_hit 49117
Core_0_L2C_load_miss 138960
Core_0_L2C_load_MPKI 2.7792
Core_0_L2C_load_miss_rate 0.738846
Core_0_L2C_rfo_access 0
Core_0_L2C_rfo_hit 0
Core_0_L2C_rfo_miss 0
Core_0_L2C_rfo_MPKI 0
Core_0_L2C_rfo_miss_rate 0
Core_0_L2C_prefetch_access 1975579
Core_0_L2C_prefetch_hit 1503193
Core_0_L2C_prefetch_miss 472386
Core_0_L2C_prefetch_MPKI 9.44772
Core_0_L2C_prefetch_miss_rate 0.239113
Core_0_L2C_writeback_access 303497
Core_0_L2C_writeback_hit 303497
Core_0_L2C_writeback_miss 0
Core_0_L2C_writeback_MPKI 0
Core_0_L2C_writeback_miss_rate 0
Core_0_L2C_prefetch_requested 1643058
Core_0_L2C_prefetch_issued 1643058
Core_0_L2C_prefetch_useful 304114
Core_0_L2C_prefetch_useless 9239
Core_0_L2C_prefetch_late 136
Core_0_L2C_prefetch_accuracy 0.18509
Core_0_L2C_prefetch_coverage 0.686373

Core_0_LLC_total_access 767616
Core_0_LLC_total_hit 304412
Core_0_LLC_total_miss 463204
Core_0_LLC_total_MPKI 9.26408
Core_0_LLC_total_miss_rate 0.603432
Core_0_LLC_demand_access 138824
Core_0_LLC_demand_hit 28043
Core_0_LLC_demand_miss 110781
Core_0_LLC_demand_MPKI 2.21562
Core_0_LLC_demand_miss_rate 0.797996
Core_0_LLC_load_access 138824
Core_0_LLC_load_hit 28043
Core_0_LLC_load_miss 110781
Core_0_LLC_load_MPKI 2.21562
Core_0_LLC_load_miss_rate 0.797996
Core_0_LLC_rfo_access 0
Core_0_LLC_rfo_hit 0
Core_0_LLC_rfo_miss 0
Core_0_LLC_rfo_MPKI 0
Core_0_LLC_rfo_miss_rate 0
Core_0_LLC_prefetch_access 325501
Core_0_LLC_prefetch_hit 10045
Core_0_LLC_prefetch_miss 315456
Core_0_LLC_prefetch_MPKI 6.30912
Core_0_LLC_prefetch_miss_rate 0.96914
Core_0_LLC_writeback_access 303291
Core_0_LLC_writeback_hit 266324
Core_0_LLC_writeback_miss 36967
Core_0_LLC_writeback_MPKI 0.73934
Core_0_LLC_writeback_miss_rate 0.121886
Core_0_LLC_prefetch_requested 0
Core_0_LLC_prefetch_issued 0
Core_0_LLC_prefetch_useful 0
Core_0_LLC_prefetch_useless 0
Core_0_LLC_prefetch_late 0
Core_0_LLC_prefetch_accuracy 0
Core_0_LLC_prefetch_coverage 0

[DRAM Statistics]
Channel_0_RQ_row_buffer_hit 10027
Channel_0_RQ_row_buffer_miss 429905
Channel_0_WQ_row_buffer_hit 90361
Channel_0_WQ_row_buffer_miss 212598
Channel_0_WQ_full 0
Channel_0_dbus_congested 3071637
DRAM_total_RQ_row_buffer_hit 10027
DRAM_total_RQ_row_buffer_miss 429905
DRAM_total_WQ_row_buffer_hit 90361
DRAM_total_WQ_row_buffer_miss 212598
DRAM_total_WQ_full 0
DRAM_total_dbus_congested 3071637
DRAM_avg_congested_cycle 20.0463

======STLB miss causes ========
Core_0_STLB_miss_cause_breakdown
Core_0_STLB_cause_Demand_Data_miss 127468
Core_0_STLB_cause_Demand_Data_miss_rate 0.70944
Core_0_STLB_cause_Demand_Instruction_miss 0
Core_0_STLB_cause_Demand_Instruction_miss_rate 0
Core_0_STLB_cause_L1D_Prefetch_miss 1071
Core_0_STLB_cause_L1D_Prefetch_miss_rate 0.0059608
Core_0_STLB_cause_L1I_Prefetch_miss 0
Core_0_STLB_cause_L1I_Prefetch_miss_rate 0
Core_0_STLB_cause_Other_miss 0
Core_0_STLB_cause_Other_miss_rate 0
Core_0_STLB_Demand_miss 127468
Core_0_STLB_Demand_miss_rate 0.70944
Core_0_STLB_L1D_Prefetch_miss 1071
Core_0_STLB_L1D_Prefetch_miss_rate 0.0059608
Core_0_STLB_Other_miss 0
Core_0_STLB_Other_miss_rate 0
