[VMEM] WARNING: physical memory size is smaller than virtual memory size.

*** ChampSim Multicore Out-of-Order Simulator ***
Warmup Instructions: 20000000
Simulation Instructions: 50000000
Number of CPUs: 1
Page size: 4096
Core 0: /data0/tzh/champsim_traces/Ligra/ligra_Components-Shortcut.com-lj.ungraph.gcc_6.3.0_O3.drop_22000M.length_250M.champsimtrace.xz
 L1D Berti prefetcher
Off-chip DRAM Size: 16 GiB Channels: 1 Width: 64-bit Data Rate: 3205 MT/s
Warmup halting CPU 0 at instruction 20000003 cycle 5503726 for remainder of phase
Warmup finished CPU 0 instructions: 20000003 cycles: 5503726 cumulative IPC: 3.634 (Simulation time: 00 hr 01 min 42 sec)
Warmup complete CPU 0 instructions: 20000003 cycles: 5503726 cumulative IPC: 3.634 (Simulation time: 00 hr 01 min 42 sec)
Simulation finished CPU 0 instructions: 50000000 cycles: 90790634 cumulative IPC: 0.5507 (Simulation time: 00 hr 12 min 51 sec)
Simulation complete CPU 0 instructions: 50000000 cycles: 90790634 cumulative IPC: 0.5507 (Simulation time: 00 hr 12 min 51 sec)

ChampSim completed all CPUs

=== Simulation ===
CPU 0 runs /data0/tzh/champsim_traces/Ligra/ligra_Components-Shortcut.com-lj.ungraph.gcc_6.3.0_O3.drop_22000M.length_250M.champsimtrace.xz

Region of Interest Statistics

CPU 0 cumulative IPC: 0.5507 instructions: 50000000 cycles: 90790634
CPU 0 Branch Prediction Accuracy: 97.52% MPKI: 6.55 Average ROB Occupancy at Mispredict: 104.6
Branch type MPKI
BRANCH_DIRECT_JUMP: 0
BRANCH_INDIRECT: 0
BRANCH_CONDITIONAL: 6.55
BRANCH_DIRECT_CALL: 0
BRANCH_INDIRECT_CALL: 0
BRANCH_RETURN: 0

cpu0->cpu0_STLB TOTAL        ACCESS:    3782987 HIT:    3776670 MISS:       6317 MSHR_MERGE:          0
cpu0->cpu0_STLB LOAD         ACCESS:    3782987 HIT:    3776670 MISS:       6317 MSHR_MERGE:          0
cpu0->cpu0_STLB RFO          ACCESS:          0 HIT:          0 MISS:          0 MSHR_MERGE:          0
cpu0->cpu0_STLB PREFETCH     ACCESS:          0 HIT:          0 MISS:          0 MSHR_MERGE:          0
cpu0->cpu0_STLB WRITE        ACCESS:          0 HIT:          0 MISS:          0 MSHR_MERGE:          0
cpu0->cpu0_STLB TRANSLATION  ACCESS:          0 HIT:          0 MISS:          0 MSHR_MERGE:          0
cpu0->cpu0_STLB PREFETCH REQUESTED:          0 ISSUED:          0 USEFUL:          0 USELESS:          0 LATE:          0
cpu0->cpu0_STLB AVERAGE MISS LATENCY: 262.1 cycles
cpu0->cpu0_L2C TOTAL        ACCESS:   10980593 HIT:    5002881 MISS:    5977712 MSHR_MERGE:     211076
cpu0->cpu0_L2C LOAD         ACCESS:    4040269 HIT:    1547891 MISS:    2492378 MSHR_MERGE:       6778
cpu0->cpu0_L2C RFO          ACCESS:          0 HIT:          0 MISS:          0 MSHR_MERGE:          0
cpu0->cpu0_L2C PREFETCH     ACCESS:    6913938 HIT:    3429998 MISS:    3483940 MSHR_MERGE:     204298
cpu0->cpu0_L2C WRITE        ACCESS:      20501 HIT:      20401 MISS:        100 MSHR_MERGE:          0
cpu0->cpu0_L2C TRANSLATION  ACCESS:       5885 HIT:       4591 MISS:       1294 MSHR_MERGE:          0
cpu0->cpu0_L2C PREFETCH REQUESTED:    6527109 ISSUED:    6106419 USEFUL:     815449 USELESS:    2187054 LATE:       6778
cpu0->cpu0_L2C AVERAGE MISS LATENCY: 90.87 cycles
cpu0->cpu0_L1I TOTAL        ACCESS:     465356 HIT:     465356 MISS:          0 MSHR_MERGE:          0
cpu0->cpu0_L1I LOAD         ACCESS:     465356 HIT:     465356 MISS:          0 MSHR_MERGE:          0
cpu0->cpu0_L1I RFO          ACCESS:          0 HIT:          0 MISS:          0 MSHR_MERGE:          0
cpu0->cpu0_L1I PREFETCH     ACCESS:          0 HIT:          0 MISS:          0 MSHR_MERGE:          0
cpu0->cpu0_L1I WRITE        ACCESS:          0 HIT:          0 MISS:          0 MSHR_MERGE:          0
cpu0->cpu0_L1I TRANSLATION  ACCESS:          0 HIT:          0 MISS:          0 MSHR_MERGE:          0
cpu0->cpu0_L1I PREFETCH REQUESTED:          0 ISSUED:          0 USEFUL:          0 USELESS:          0 LATE:          0
cpu0->cpu0_L1I AVERAGE MISS LATENCY: - cycles
cpu0->cpu0_L1D TOTAL        ACCESS:   15276893 HIT:   10241394 MISS:    5035499 MSHR_MERGE:     181824
cpu0->cpu0_L1D LOAD         ACCESS:   13626368 HIT:    9411225 MISS:    4215143 MSHR_MERGE:     174872
cpu0->cpu0_L1D RFO          ACCESS:          0 HIT:          0 MISS:          0 MSHR_MERGE:          0
cpu0->cpu0_L1D PREFETCH     ACCESS:    1309997 HIT:     495526 MISS:     814471 MSHR_MERGE:       6952
cpu0->cpu0_L1D WRITE        ACCESS:     327882 HIT:     327882 MISS:          0 MSHR_MERGE:          0
cpu0->cpu0_L1D TRANSLATION  ACCESS:      12646 HIT:       6761 MISS:       5885 MSHR_MERGE:          0
cpu0->cpu0_L1D PREFETCH REQUESTED:    1319482 ISSUED:    1309989 USEFUL:     335831 USELESS:     471621 LATE:       5654
cpu0->cpu0_L1D AVERAGE MISS LATENCY: 65.01 cycles
cpu0->cpu0_ITLB TOTAL        ACCESS:     334671 HIT:     334671 MISS:          0 MSHR_MERGE:          0
cpu0->cpu0_ITLB LOAD         ACCESS:     334671 HIT:     334671 MISS:          0 MSHR_MERGE:          0
cpu0->cpu0_ITLB RFO          ACCESS:          0 HIT:          0 MISS:          0 MSHR_MERGE:          0
cpu0->cpu0_ITLB PREFETCH     ACCESS:          0 HIT:          0 MISS:          0 MSHR_MERGE:          0
cpu0->cpu0_ITLB WRITE        ACCESS:          0 HIT:          0 MISS:          0 MSHR_MERGE:          0
cpu0->cpu0_ITLB TRANSLATION  ACCESS:          0 HIT:          0 MISS:          0 MSHR_MERGE:          0
cpu0->cpu0_ITLB PREFETCH REQUESTED:          0 ISSUED:          0 USEFUL:          0 USELESS:          0 LATE:          0
cpu0->cpu0_ITLB AVERAGE MISS LATENCY: - cycles
cpu0->cpu0_DTLB TOTAL        ACCESS:   15095051 HIT:   10960451 MISS:    4134600 MSHR_MERGE:     351613
cpu0->cpu0_DTLB LOAD         ACCESS:   15095051 HIT:   10960451 MISS:    4134600 MSHR_MERGE:     351613
cpu0->cpu0_DTLB RFO          ACCESS:          0 HIT:          0 MISS:          0 MSHR_MERGE:          0
cpu0->cpu0_DTLB PREFETCH     ACCESS:          0 HIT:          0 MISS:          0 MSHR_MERGE:          0
cpu0->cpu0_DTLB WRITE        ACCESS:          0 HIT:          0 MISS:          0 MSHR_MERGE:          0
cpu0->cpu0_DTLB TRANSLATION  ACCESS:          0 HIT:          0 MISS:          0 MSHR_MERGE:          0
cpu0->cpu0_DTLB PREFETCH REQUESTED:          0 ISSUED:          0 USEFUL:          0 USELESS:          0 LATE:          0
cpu0->cpu0_DTLB AVERAGE MISS LATENCY: 5.469 cycles
cpu0->LLC TOTAL        ACCESS:    5786861 HIT:    3740498 MISS:    2046363 MSHR_MERGE:          0
cpu0->LLC LOAD         ACCESS:    2485600 HIT:    1732681 MISS:     752919 MSHR_MERGE:          0
cpu0->LLC RFO          ACCESS:          0 HIT:          0 MISS:          0 MSHR_MERGE:          0
cpu0->LLC PREFETCH     ACCESS:    3279641 HIT:    1999208 MISS:    1280433 MSHR_MERGE:          0
cpu0->LLC WRITE        ACCESS:      20326 HIT:       8418 MISS:      11908 MSHR_MERGE:          0
cpu0->LLC TRANSLATION  ACCESS:       1294 HIT:        191 MISS:       1103 MSHR_MERGE:          0
cpu0->LLC PREFETCH REQUESTED:          0 ISSUED:          0 USEFUL:          0 USELESS:          0 LATE:          0
cpu0->LLC AVERAGE MISS LATENCY: 245.1 cycles

DRAM Statistics

Channel 0 RQ ROW_BUFFER_HIT:       7858
  ROW_BUFFER_MISS:    2026354
  AVG DBUS CONGESTED CYCLE: 6.592
Channel 0 WQ ROW_BUFFER_HIT:       7270
  ROW_BUFFER_MISS:      13236
  FULL:          0
Channel 0 REFRESHES ISSUED:       7566

[ROI Statistics]
[System Configuration]
num_cpus 1
cpu_freq 4000
fetch_width 6
decode_width 6
dispatch_width 6
execute_width 6
lq_width 2
sq_width 2
retire_width 6
scheduler_size 128
branch_mispredict_penalty 15
rob_size 352
lq_size 128
sq_size 72
ifetch_buffer_size 64
decode_buffer_size 32
dispatch_buffer_size 32
register_file_size 288
decode_latency 1
dispatch_latency 1
schedule_latency 1
execute_latency 1
page_size 4096
block_size 64
core_0_itlb_set 16
core_0_itlb_way 4
core_0_itlb_rq_size 16
core_0_itlb_wq_size 16
core_0_itlb_pq_size 0
core_0_itlb_mshr_size 8
core_0_itlb_hit_latency 1
core_0_itlb_fill_latency 1
core_0_itlb_max_tag_check 2
core_0_itlb_max_fill 2
core_0_dtlb_set 16
core_0_dtlb_way 4
core_0_dtlb_rq_size 16
core_0_dtlb_wq_size 16
core_0_dtlb_pq_size 0
core_0_dtlb_mshr_size 8
core_0_dtlb_hit_latency 1
core_0_dtlb_fill_latency 1
core_0_dtlb_max_tag_check 2
core_0_dtlb_max_fill 2
core_0_stlb_set 128
core_0_stlb_way 12
core_0_stlb_rq_size 32
core_0_stlb_wq_size 32
core_0_stlb_pq_size 0
core_0_stlb_mshr_size 16
core_0_stlb_hit_latency 4
core_0_stlb_fill_latency 4
core_0_stlb_max_tag_check 1
core_0_stlb_max_fill 1
core_0_l1i_set 64
core_0_l1i_way 8
core_0_l1i_rq_size 64
core_0_l1i_wq_size 64
core_0_l1i_pq_size 32
core_0_l1i_mshr_size 8
core_0_l1i_hit_latency 2
core_0_l1i_fill_latency 2
core_0_l1i_max_tag_check 2
core_0_l1i_max_fill 2
core_0_l1d_set 64
core_0_l1d_way 12
core_0_l1d_rq_size 64
core_0_l1d_wq_size 64
core_0_l1d_pq_size 8
core_0_l1d_mshr_size 16
core_0_l1d_hit_latency 2
core_0_l1d_fill_latency 3
core_0_l1d_max_tag_check 2
core_0_l1d_max_fill 2
core_0_l2c_set 1024
core_0_l2c_way 8
core_0_l2c_rq_size 32
core_0_l2c_wq_size 32
core_0_l2c_pq_size 16
core_0_l2c_mshr_size 32
core_0_l2c_hit_latency 5
core_0_l2c_fill_latency 5
core_0_l2c_max_tag_check 1
core_0_l2c_max_fill 1
llc_set 2048
llc_way 16
llc_rq_size 32
llc_wq_size 32
llc_pq_size 32
llc_mshr_size 64
llc_hit_latency 10
llc_fill_latency 10
llc_max_tag_check 1
llc_max_fill 1
dram_channels 1
dram_ranks 1
dram_bankgroups 8
dram_banks 4
dram_rows 65536
dram_columns 1024
dram_channel_width 8
dram_rq_size 64
dram_wq_size 64
dram_size 17179869184
core_0_itlb_prefetcher no
core_0_dtlb_prefetcher no
core_0_stlb_prefetcher no
core_0_l1i_prefetcher next_line
core_0_l1d_prefetcher berti
core_0_l2c_prefetcher pythia
llc_prefetcher no
llc_replacement drrip

Core_0_instructions 50000000
Core_0_cycles 90790634
Core_0_IPC 0.550718
Core_0_branch_prediction_accuracy 97.5167
Core_0_branch_MPKI 6.55046
Core_0_average_ROB_occupancy_at_mispredict 104.62

Core_0_ITLB_total_access 334671
Core_0_ITLB_total_hit 334671
Core_0_ITLB_total_miss 0
Core_0_ITLB_total_MPKI 0
Core_0_ITLB_total_miss_rate 0
Core_0_ITLB_demand_access 334671
Core_0_ITLB_demand_hit 334671
Core_0_ITLB_demand_miss 0
Core_0_ITLB_demand_MPKI 0
Core_0_ITLB_demand_miss_rate 0
Core_0_ITLB_load_access 334671
Core_0_ITLB_load_hit 334671
Core_0_ITLB_load_miss 0
Core_0_ITLB_load_MPKI 0
Core_0_ITLB_load_miss_rate 0
Core_0_ITLB_rfo_access 0
Core_0_ITLB_rfo_hit 0
Core_0_ITLB_rfo_miss 0
Core_0_ITLB_rfo_MPKI 0
Core_0_ITLB_rfo_miss_rate 0
Core_0_ITLB_prefetch_access 0
Core_0_ITLB_prefetch_hit 0
Core_0_ITLB_prefetch_miss 0
Core_0_ITLB_prefetch_MPKI 0
Core_0_ITLB_prefetch_miss_rate 0
Core_0_ITLB_writeback_access 0
Core_0_ITLB_writeback_hit 0
Core_0_ITLB_writeback_miss 0
Core_0_ITLB_writeback_MPKI 0
Core_0_ITLB_writeback_miss_rate 0
Core_0_ITLB_prefetch_requested 0
Core_0_ITLB_prefetch_issued 0
Core_0_ITLB_prefetch_useful 0
Core_0_ITLB_prefetch_useless 0
Core_0_ITLB_prefetch_late 0
Core_0_ITLB_prefetch_accuracy 0
Core_0_ITLB_prefetch_coverage 0

Core_0_DTLB_total_access 15095051
Core_0_DTLB_total_hit 10960451
Core_0_DTLB_total_miss 4134600
Core_0_DTLB_total_MPKI 82.692
Core_0_DTLB_total_miss_rate 0.273904
Core_0_DTLB_demand_access 15095051
Core_0_DTLB_demand_hit 10960451
Core_0_DTLB_demand_miss 4134600
Core_0_DTLB_demand_MPKI 82.692
Core_0_DTLB_demand_miss_rate 0.273904
Core_0_DTLB_load_access 15095051
Core_0_DTLB_load_hit 10960451
Core_0_DTLB_load_miss 4134600
Core_0_DTLB_load_MPKI 82.692
Core_0_DTLB_load_miss_rate 0.273904
Core_0_DTLB_rfo_access 0
Core_0_DTLB_rfo_hit 0
Core_0_DTLB_rfo_miss 0
Core_0_DTLB_rfo_MPKI 0
Core_0_DTLB_rfo_miss_rate 0
Core_0_DTLB_prefetch_access 0
Core_0_DTLB_prefetch_hit 0
Core_0_DTLB_prefetch_miss 0
Core_0_DTLB_prefetch_MPKI 0
Core_0_DTLB_prefetch_miss_rate 0
Core_0_DTLB_writeback_access 0
Core_0_DTLB_writeback_hit 0
Core_0_DTLB_writeback_miss 0
Core_0_DTLB_writeback_MPKI 0
Core_0_DTLB_writeback_miss_rate 0
Core_0_DTLB_prefetch_requested 0
Core_0_DTLB_prefetch_issued 0
Core_0_DTLB_prefetch_useful 0
Core_0_DTLB_prefetch_useless 0
Core_0_DTLB_prefetch_late 0
Core_0_DTLB_prefetch_accuracy 0
Core_0_DTLB_prefetch_coverage 0

Core_0_STLB_total_access 3782987
Core_0_STLB_total_hit 3776670
Core_0_STLB_total_miss 6317
Core_0_STLB_total_MPKI 0.12634
Core_0_STLB_total_miss_rate 0.00166984
Core_0_STLB_demand_access 3782987
Core_0_STLB_demand_hit 3776670
Core_0_STLB_demand_miss 6317
Core_0_STLB_demand_MPKI 0.12634
Core_0_STLB_demand_miss_rate 0.00166984
Core_0_STLB_load_access 3782987
Core_0_STLB_load_hit 3776670
Core_0_STLB_load_miss 6317
Core_0_STLB_load_MPKI 0.12634
Core_0_STLB_load_miss_rate 0.00166984
Core_0_STLB_rfo_access 0
Core_0_STLB_rfo_hit 0
Core_0_STLB_rfo_miss 0
Core_0_STLB_rfo_MPKI 0
Core_0_STLB_rfo_miss_rate 0
Core_0_STLB_prefetch_access 0
Core_0_STLB_prefetch_hit 0
Core_0_STLB_prefetch_miss 0
Core_0_STLB_prefetch_MPKI 0
Core_0_STLB_prefetch_miss_rate 0
Core_0_STLB_writeback_access 0
Core_0_STLB_writeback_hit 0
Core_0_STLB_writeback_miss 0
Core_0_STLB_writeback_MPKI 0
Core_0_STLB_writeback_miss_rate 0
Core_0_STLB_prefetch_requested 0
Core_0_STLB_prefetch_issued 0
Core_0_STLB_prefetch_useful 0
Core_0_STLB_prefetch_useless 0
Core_0_STLB_prefetch_late 0
Core_0_STLB_prefetch_accuracy 0
Core_0_STLB_prefetch_coverage 0

Core_0_L1I_total_access 465356
Core_0_L1I_total_hit 465356
Core_0_L1I_total_miss 0
Core_0_L1I_total_MPKI 0
Core_0_L1I_total_miss_rate 0
Core_0_L1I_demand_access 465356
Core_0_L1I_demand_hit 465356
Core_0_L1I_demand_miss 0
Core_0_L1I_demand_MPKI 0
Core_0_L1I_demand_miss_rate 0
Core_0_L1I_load_access 465356
Core_0_L1I_load_hit 465356
Core_0_L1I_load_miss 0
Core_0_L1I_load_MPKI 0
Core_0_L1I_load_miss_rate 0
Core_0_L1I_rfo_access 0
Core_0_L1I_rfo_hit 0
Core_0_L1I_rfo_miss 0
Core_0_L1I_rfo_MPKI 0
Core_0_L1I_rfo_miss_rate 0
Core_0_L1I_prefetch_access 0
Core_0_L1I_prefetch_hit 0
Core_0_L1I_prefetch_miss 0
Core_0_L1I_prefetch_MPKI 0
Core_0_L1I_prefetch_miss_rate 0
Core_0_L1I_writeback_access 0
Core_0_L1I_writeback_hit 0
Core_0_L1I_writeback_miss 0
Core_0_L1I_writeback_MPKI 0
Core_0_L1I_writeback_miss_rate 0
Core_0_L1I_prefetch_requested 0
Core_0_L1I_prefetch_issued 0
Core_0_L1I_prefetch_useful 0
Core_0_L1I_prefetch_useless 0
Core_0_L1I_prefetch_late 0
Core_0_L1I_prefetch_accuracy 0
Core_0_L1I_prefetch_coverage 0

Core_0_L1D_total_access 15264247
Core_0_L1D_total_hit 10234633
Core_0_L1D_total_miss 5029614
Core_0_L1D_total_MPKI 100.592
Core_0_L1D_total_miss_rate 0.329503
Core_0_L1D_demand_access 13626368
Core_0_L1D_demand_hit 9411225
Core_0_L1D_demand_miss 4215143
Core_0_L1D_demand_MPKI 84.3029
Core_0_L1D_demand_miss_rate 0.309337
Core_0_L1D_load_access 13626368
Core_0_L1D_load_hit 9411225
Core_0_L1D_load_miss 4215143
Core_0_L1D_load_MPKI 84.3029
Core_0_L1D_load_miss_rate 0.309337
Core_0_L1D_rfo_access 0
Core_0_L1D_rfo_hit 0
Core_0_L1D_rfo_miss 0
Core_0_L1D_rfo_MPKI 0
Core_0_L1D_rfo_miss_rate 0
Core_0_L1D_prefetch_access 1309997
Core_0_L1D_prefetch_hit 495526
Core_0_L1D_prefetch_miss 814471
Core_0_L1D_prefetch_MPKI 16.2894
Core_0_L1D_prefetch_miss_rate 0.621735
Core_0_L1D_writeback_access 327882
Core_0_L1D_writeback_hit 327882
Core_0_L1D_writeback_miss 0
Core_0_L1D_writeback_MPKI 0
Core_0_L1D_writeback_miss_rate 0
Core_0_L1D_prefetch_requested 1319482
Core_0_L1D_prefetch_issued 1309989
Core_0_L1D_prefetch_useful 335831
Core_0_L1D_prefetch_useless 471621
Core_0_L1D_prefetch_late 5654
Core_0_L1D_prefetch_accuracy 0.256362
Core_0_L1D_prefetch_coverage 0.0737932

Core_0_L2C_total_access 10974708
Core_0_L2C_total_hit 4998290
Core_0_L2C_total_miss 5976418
Core_0_L2C_total_MPKI 119.528
Core_0_L2C_total_miss_rate 0.544563
Core_0_L2C_demand_access 4040269
Core_0_L2C_demand_hit 1547891
Core_0_L2C_demand_miss 2492378
Core_0_L2C_demand_MPKI 49.8476
Core_0_L2C_demand_miss_rate 0.616884
Core_0_L2C_load_access 4040269
Core_0_L2C_load_hit 1547891
Core_0_L2C_load_miss 2492378
Core_0_L2C_load_MPKI 49.8476
Core_0_L2C_load_miss_rate 0.616884
Core_0_L2C_rfo_access 0
Core_0_L2C_rfo_hit 0
Core_0_L2C_rfo_miss 0
Core_0_L2C_rfo_MPKI 0
Core_0_L2C_rfo_miss_rate 0
Core_0_L2C_prefetch_access 6913938
Core_0_L2C_prefetch_hit 3429998
Core_0_L2C_prefetch_miss 3483940
Core_0_L2C_prefetch_MPKI 69.6788
Core_0_L2C_prefetch_miss_rate 0.503901
Core_0_L2C_writeback_access 20501
Core_0_L2C_writeback_hit 20401
Core_0_L2C_writeback_miss 100
Core_0_L2C_writeback_MPKI 0.002
Core_0_L2C_writeback_miss_rate 0.00487781
Core_0_L2C_prefetch_requested 6527109
Core_0_L2C_prefetch_issued 6106419
Core_0_L2C_prefetch_useful 815449
Core_0_L2C_prefetch_useless 2187054
Core_0_L2C_prefetch_late 6778
Core_0_L2C_prefetch_accuracy 0.13354
Core_0_L2C_prefetch_coverage 0.246521

Core_0_LLC_total_access 5785567
Core_0_LLC_total_hit 3740307
Core_0_LLC_total_miss 2045260
Core_0_LLC_total_MPKI 40.9052
Core_0_LLC_total_miss_rate 0.353511
Core_0_LLC_demand_access 2485600
Core_0_LLC_demand_hit 1732681
Core_0_LLC_demand_miss 752919
Core_0_LLC_demand_MPKI 15.0584
Core_0_LLC_demand_miss_rate 0.302912
Core_0_LLC_load_access 2485600
Core_0_LLC_load_hit 1732681
Core_0_LLC_load_miss 752919
Core_0_LLC_load_MPKI 15.0584
Core_0_LLC_load_miss_rate 0.302912
Core_0_LLC_rfo_access 0
Core_0_LLC_rfo_hit 0
Core_0_LLC_rfo_miss 0
Core_0_LLC_rfo_MPKI 0
Core_0_LLC_rfo_miss_rate 0
Core_0_LLC_prefetch_access 3279641
Core_0_LLC_prefetch_hit 1999208
Core_0_LLC_prefetch_miss 1280433
Core_0_LLC_prefetch_MPKI 25.6087
Core_0_LLC_prefetch_miss_rate 0.390419
Core_0_LLC_writeback_access 20326
Core_0_LLC_writeback_hit 8418
Core_0_LLC_writeback_miss 11908
Core_0_LLC_writeback_MPKI 0.23816
Core_0_LLC_writeback_miss_rate 0.585851
Core_0_LLC_prefetch_requested 0
Core_0_LLC_prefetch_issued 0
Core_0_LLC_prefetch_useful 0
Core_0_LLC_prefetch_useless 0
Core_0_LLC_prefetch_late 0
Core_0_LLC_prefetch_accuracy 0
Core_0_LLC_prefetch_coverage 0

[DRAM Statistics]
Channel_0_RQ_row_buffer_hit 7858
Channel_0_RQ_row_buffer_miss 2026354
Channel_0_WQ_row_buffer_hit 7270
Channel_0_WQ_row_buffer_miss 13236
Channel_0_WQ_full 0
Channel_0_dbus_congested 3880762
DRAM_total_RQ_row_buffer_hit 7858
DRAM_total_RQ_row_buffer_miss 2026354
DRAM_total_WQ_row_buffer_hit 7270
DRAM_total_WQ_row_buffer_miss 13236
DRAM_total_WQ_full 0
DRAM_total_dbus_congested 3880762
DRAM_avg_congested_cycle 6.59152

======STLB miss causes ========
Core_0_STLB_miss_cause_breakdown
Core_0_STLB_cause_Demand_Data_miss 2200
Core_0_STLB_cause_Demand_Data_miss_rate 0.000581551
Core_0_STLB_cause_Demand_Instruction_miss 0
Core_0_STLB_cause_Demand_Instruction_miss_rate 0
Core_0_STLB_cause_L1D_Prefetch_miss 4117
Core_0_STLB_cause_L1D_Prefetch_miss_rate 0.00108829
Core_0_STLB_cause_L1I_Prefetch_miss 0
Core_0_STLB_cause_L1I_Prefetch_miss_rate 0
Core_0_STLB_cause_Other_miss 0
Core_0_STLB_cause_Other_miss_rate 0
Core_0_STLB_Demand_miss 2200
Core_0_STLB_Demand_miss_rate 0.000581551
Core_0_STLB_L1D_Prefetch_miss 4117
Core_0_STLB_L1D_Prefetch_miss_rate 0.00108829
Core_0_STLB_Other_miss 0
Core_0_STLB_Other_miss_rate 0
