[VMEM] WARNING: physical memory size is smaller than virtual memory size.

*** ChampSim Multicore Out-of-Order Simulator ***
Warmup Instructions: 20000000
Simulation Instructions: 50000000
Number of CPUs: 1
Page size: 4096
Core 0: /data0/tzh/champsim_traces/Ligra/ligra_BC.com-lj.ungraph.gcc_6.3.0_O3.drop_17000M.length_250M.champsimtrace.xz
 L1D Berti prefetcher
Off-chip DRAM Size: 16 GiB Channels: 1 Width: 64-bit Data Rate: 3205 MT/s
Warmup halting CPU 0 at instruction 20000002 cycle 6205857 for remainder of phase
Warmup finished CPU 0 instructions: 20000002 cycles: 6205857 cumulative IPC: 3.223 (Simulation time: 00 hr 01 min 04 sec)
Warmup complete CPU 0 instructions: 20000002 cycles: 6205857 cumulative IPC: 3.223 (Simulation time: 00 hr 01 min 04 sec)
Simulation finished CPU 0 instructions: 50000001 cycles: 33230532 cumulative IPC: 1.505 (Simulation time: 00 hr 06 min 23 sec)
Simulation complete CPU 0 instructions: 50000001 cycles: 33230532 cumulative IPC: 1.505 (Simulation time: 00 hr 06 min 23 sec)

ChampSim completed all CPUs

=== Simulation ===
CPU 0 runs /data0/tzh/champsim_traces/Ligra/ligra_BC.com-lj.ungraph.gcc_6.3.0_O3.drop_17000M.length_250M.champsimtrace.xz

Region of Interest Statistics

CPU 0 cumulative IPC: 1.505 instructions: 50000001 cycles: 33230532
CPU 0 Branch Prediction Accuracy: 99.32% MPKI: 0.681 Average ROB Occupancy at Mispredict: 180.7
Branch type MPKI
BRANCH_DIRECT_JUMP: 2e-05
BRANCH_INDIRECT: 0
BRANCH_CONDITIONAL: 0.6808
BRANCH_DIRECT_CALL: 4e-05
BRANCH_INDIRECT_CALL: 0
BRANCH_RETURN: 0.00012

cpu0->cpu0_STLB TOTAL        ACCESS:      22000 HIT:      11417 MISS:      10583 MSHR_MERGE:          0
cpu0->cpu0_STLB LOAD         ACCESS:      22000 HIT:      11417 MISS:      10583 MSHR_MERGE:          0
cpu0->cpu0_STLB RFO          ACCESS:          0 HIT:          0 MISS:          0 MSHR_MERGE:          0
cpu0->cpu0_STLB PREFETCH     ACCESS:          0 HIT:          0 MISS:          0 MSHR_MERGE:          0
cpu0->cpu0_STLB WRITE        ACCESS:          0 HIT:          0 MISS:          0 MSHR_MERGE:          0
cpu0->cpu0_STLB TRANSLATION  ACCESS:          0 HIT:          0 MISS:          0 MSHR_MERGE:          0
cpu0->cpu0_STLB PREFETCH REQUESTED:          0 ISSUED:          0 USEFUL:          0 USELESS:          0 LATE:          0
cpu0->cpu0_STLB AVERAGE MISS LATENCY: 193.4 cycles
cpu0->cpu0_L2C TOTAL        ACCESS:    3811535 HIT:    1514491 MISS:    2297044 MSHR_MERGE:    1400822
cpu0->cpu0_L2C LOAD         ACCESS:     366218 HIT:     265592 MISS:     100626 MSHR_MERGE:      75922
cpu0->cpu0_L2C RFO          ACCESS:     485383 HIT:      34591 MISS:     450792 MSHR_MERGE:         34
cpu0->cpu0_L2C PREFETCH     ACCESS:    2431021 HIT:     687570 MISS:    1743451 MSHR_MERGE:    1324866
cpu0->cpu0_L2C WRITE        ACCESS:     524866 HIT:     524808 MISS:         58 MSHR_MERGE:          0
cpu0->cpu0_L2C TRANSLATION  ACCESS:       4047 HIT:       1930 MISS:       2117 MSHR_MERGE:          0
cpu0->cpu0_L2C PREFETCH REQUESTED:    2346534 ISSUED:    2185426 USEFUL:     283394 USELESS:      98114 LATE:      75956
cpu0->cpu0_L2C AVERAGE MISS LATENCY: 457.5 cycles
cpu0->cpu0_L1I TOTAL        ACCESS:    8093397 HIT:    8093392 MISS:          5 MSHR_MERGE:          2
cpu0->cpu0_L1I LOAD         ACCESS:    8093397 HIT:    8093392 MISS:          5 MSHR_MERGE:          2
cpu0->cpu0_L1I RFO          ACCESS:          0 HIT:          0 MISS:          0 MSHR_MERGE:          0
cpu0->cpu0_L1I PREFETCH     ACCESS:          0 HIT:          0 MISS:          0 MSHR_MERGE:          0
cpu0->cpu0_L1I WRITE        ACCESS:          0 HIT:          0 MISS:          0 MSHR_MERGE:          0
cpu0->cpu0_L1I TRANSLATION  ACCESS:          0 HIT:          0 MISS:          0 MSHR_MERGE:          0
cpu0->cpu0_L1I PREFETCH REQUESTED:          0 ISSUED:          0 USEFUL:          0 USELESS:          0 LATE:          0
cpu0->cpu0_L1I AVERAGE MISS LATENCY: 401.3 cycles
cpu0->cpu0_L1D TOTAL        ACCESS:   14705703 HIT:   10174284 MISS:    4531419 MSHR_MERGE:    3430158
cpu0->cpu0_L1D LOAD         ACCESS:    4156470 HIT:    3531291 MISS:     625179 MSHR_MERGE:     258962
cpu0->cpu0_L1D RFO          ACCESS:          0 HIT:          0 MISS:          0 MSHR_MERGE:          0
cpu0->cpu0_L1D PREFETCH     ACCESS:     433272 HIT:     133565 MISS:     299707 MSHR_MERGE:      54107
cpu0->cpu0_L1D WRITE        ACCESS:   10095479 HIT:    6493747 MISS:    3601732 MSHR_MERGE:    3116335
cpu0->cpu0_L1D TRANSLATION  ACCESS:      20482 HIT:      15681 MISS:       4801 MSHR_MERGE:        754
cpu0->cpu0_L1D PREFETCH REQUESTED:     668005 ISSUED:     433279 USEFUL:     236428 USELESS:       9178 LATE:      66149
cpu0->cpu0_L1D AVERAGE MISS LATENCY: 298.7 cycles
cpu0->cpu0_ITLB TOTAL        ACCESS:    6282352 HIT:    6282352 MISS:          0 MSHR_MERGE:          0
cpu0->cpu0_ITLB LOAD         ACCESS:    6282352 HIT:    6282352 MISS:          0 MSHR_MERGE:          0
cpu0->cpu0_ITLB RFO          ACCESS:          0 HIT:          0 MISS:          0 MSHR_MERGE:          0
cpu0->cpu0_ITLB PREFETCH     ACCESS:          0 HIT:          0 MISS:          0 MSHR_MERGE:          0
cpu0->cpu0_ITLB WRITE        ACCESS:          0 HIT:          0 MISS:          0 MSHR_MERGE:          0
cpu0->cpu0_ITLB TRANSLATION  ACCESS:          0 HIT:          0 MISS:          0 MSHR_MERGE:          0
cpu0->cpu0_ITLB PREFETCH REQUESTED:          0 ISSUED:          0 USEFUL:          0 USELESS:          0 LATE:          0
cpu0->cpu0_ITLB AVERAGE MISS LATENCY: - cycles
cpu0->cpu0_DTLB TOTAL        ACCESS:   13113044 HIT:   13012681 MISS:     100363 MSHR_MERGE:      78363
cpu0->cpu0_DTLB LOAD         ACCESS:   13113044 HIT:   13012681 MISS:     100363 MSHR_MERGE:      78363
cpu0->cpu0_DTLB RFO          ACCESS:          0 HIT:          0 MISS:          0 MSHR_MERGE:          0
cpu0->cpu0_DTLB PREFETCH     ACCESS:          0 HIT:          0 MISS:          0 MSHR_MERGE:          0
cpu0->cpu0_DTLB WRITE        ACCESS:          0 HIT:          0 MISS:          0 MSHR_MERGE:          0
cpu0->cpu0_DTLB TRANSLATION  ACCESS:          0 HIT:          0 MISS:          0 MSHR_MERGE:          0
cpu0->cpu0_DTLB PREFETCH REQUESTED:          0 ISSUED:          0 USEFUL:          0 USELESS:          0 LATE:          0
cpu0->cpu0_DTLB AVERAGE MISS LATENCY: 98.49 cycles
cpu0->LLC TOTAL        ACCESS:    1391918 HIT:     112040 MISS:    1279878 MSHR_MERGE:          0
cpu0->LLC LOAD         ACCESS:      24704 HIT:       1867 MISS:      22837 MSHR_MERGE:          0
cpu0->LLC RFO          ACCESS:     450758 HIT:       3589 MISS:     447169 MSHR_MERGE:          0
cpu0->LLC PREFETCH     ACCESS:     418584 HIT:      27053 MISS:     391531 MSHR_MERGE:          0
cpu0->LLC WRITE        ACCESS:     495755 HIT:      79463 MISS:     416292 MSHR_MERGE:          0
cpu0->LLC TRANSLATION  ACCESS:       2117 HIT:         68 MISS:       2049 MSHR_MERGE:          0
cpu0->LLC PREFETCH REQUESTED:          0 ISSUED:          0 USEFUL:          0 USELESS:          0 LATE:          0
cpu0->LLC AVERAGE MISS LATENCY: 257.7 cycles

DRAM Statistics

Channel 0 RQ ROW_BUFFER_HIT:      65500
  ROW_BUFFER_MISS:     798007
  AVG DBUS CONGESTED CYCLE: 6.909
Channel 0 WQ ROW_BUFFER_HIT:      55547
  ROW_BUFFER_MISS:     438785
  FULL:       4264
Channel 0 REFRESHES ISSUED:       2769

[ROI Statistics]
[System Configuration]
num_cpus 1
cpu_freq 4000
fetch_width 6
decode_width 6
dispatch_width 6
execute_width 6
lq_width 2
sq_width 2
retire_width 6
scheduler_size 128
branch_mispredict_penalty 15
rob_size 352
lq_size 128
sq_size 72
ifetch_buffer_size 64
decode_buffer_size 32
dispatch_buffer_size 32
register_file_size 288
decode_latency 1
dispatch_latency 1
schedule_latency 1
execute_latency 1
page_size 4096
block_size 64
core_0_itlb_set 16
core_0_itlb_way 4
core_0_itlb_rq_size 16
core_0_itlb_wq_size 16
core_0_itlb_pq_size 0
core_0_itlb_mshr_size 8
core_0_itlb_hit_latency 1
core_0_itlb_fill_latency 1
core_0_itlb_max_tag_check 2
core_0_itlb_max_fill 2
core_0_dtlb_set 16
core_0_dtlb_way 4
core_0_dtlb_rq_size 16
core_0_dtlb_wq_size 16
core_0_dtlb_pq_size 0
core_0_dtlb_mshr_size 8
core_0_dtlb_hit_latency 1
core_0_dtlb_fill_latency 1
core_0_dtlb_max_tag_check 2
core_0_dtlb_max_fill 2
core_0_stlb_set 128
core_0_stlb_way 12
core_0_stlb_rq_size 32
core_0_stlb_wq_size 32
core_0_stlb_pq_size 0
core_0_stlb_mshr_size 16
core_0_stlb_hit_latency 4
core_0_stlb_fill_latency 4
core_0_stlb_max_tag_check 1
core_0_stlb_max_fill 1
core_0_l1i_set 64
core_0_l1i_way 8
core_0_l1i_rq_size 64
core_0_l1i_wq_size 64
core_0_l1i_pq_size 32
core_0_l1i_mshr_size 8
core_0_l1i_hit_latency 2
core_0_l1i_fill_latency 2
core_0_l1i_max_tag_check 2
core_0_l1i_max_fill 2
core_0_l1d_set 64
core_0_l1d_way 12
core_0_l1d_rq_size 64
core_0_l1d_wq_size 64
core_0_l1d_pq_size 8
core_0_l1d_mshr_size 16
core_0_l1d_hit_latency 2
core_0_l1d_fill_latency 3
core_0_l1d_max_tag_check 2
core_0_l1d_max_fill 2
core_0_l2c_set 1024
core_0_l2c_way 8
core_0_l2c_rq_size 32
core_0_l2c_wq_size 32
core_0_l2c_pq_size 16
core_0_l2c_mshr_size 32
core_0_l2c_hit_latency 5
core_0_l2c_fill_latency 5
core_0_l2c_max_tag_check 1
core_0_l2c_max_fill 1
llc_set 2048
llc_way 16
llc_rq_size 32
llc_wq_size 32
llc_pq_size 32
llc_mshr_size 64
llc_hit_latency 10
llc_fill_latency 10
llc_max_tag_check 1
llc_max_fill 1
dram_channels 1
dram_ranks 1
dram_bankgroups 8
dram_banks 4
dram_rows 65536
dram_columns 1024
dram_channel_width 8
dram_rq_size 64
dram_wq_size 64
dram_size 17179869184
core_0_itlb_prefetcher no
core_0_dtlb_prefetcher no
core_0_stlb_prefetcher no
core_0_l1i_prefetcher next_line
core_0_l1d_prefetcher berti
core_0_l2c_prefetcher pythia
llc_prefetcher no
llc_replacement drrip

Core_0_instructions 50000001
Core_0_cycles 33230532
Core_0_IPC 1.50464
Core_0_branch_prediction_accuracy 99.3178
Core_0_branch_MPKI 0.681
Core_0_average_ROB_occupancy_at_mispredict 180.67

Core_0_ITLB_total_access 6282352
Core_0_ITLB_total_hit 6282352
Core_0_ITLB_total_miss 0
Core_0_ITLB_total_MPKI 0
Core_0_ITLB_total_miss_rate 0
Core_0_ITLB_demand_access 6282352
Core_0_ITLB_demand_hit 6282352
Core_0_ITLB_demand_miss 0
Core_0_ITLB_demand_MPKI 0
Core_0_ITLB_demand_miss_rate 0
Core_0_ITLB_load_access 6282352
Core_0_ITLB_load_hit 6282352
Core_0_ITLB_load_miss 0
Core_0_ITLB_load_MPKI 0
Core_0_ITLB_load_miss_rate 0
Core_0_ITLB_rfo_access 0
Core_0_ITLB_rfo_hit 0
Core_0_ITLB_rfo_miss 0
Core_0_ITLB_rfo_MPKI 0
Core_0_ITLB_rfo_miss_rate 0
Core_0_ITLB_prefetch_access 0
Core_0_ITLB_prefetch_hit 0
Core_0_ITLB_prefetch_miss 0
Core_0_ITLB_prefetch_MPKI 0
Core_0_ITLB_prefetch_miss_rate 0
Core_0_ITLB_writeback_access 0
Core_0_ITLB_writeback_hit 0
Core_0_ITLB_writeback_miss 0
Core_0_ITLB_writeback_MPKI 0
Core_0_ITLB_writeback_miss_rate 0
Core_0_ITLB_prefetch_requested 0
Core_0_ITLB_prefetch_issued 0
Core_0_ITLB_prefetch_useful 0
Core_0_ITLB_prefetch_useless 0
Core_0_ITLB_prefetch_late 0
Core_0_ITLB_prefetch_accuracy 0
Core_0_ITLB_prefetch_coverage 0

Core_0_DTLB_total_access 13113044
Core_0_DTLB_total_hit 13012681
Core_0_DTLB_total_miss 100363
Core_0_DTLB_total_MPKI 2.00726
Core_0_DTLB_total_miss_rate 0.00765368
Core_0_DTLB_demand_access 13113044
Core_0_DTLB_demand_hit 13012681
Core_0_DTLB_demand_miss 100363
Core_0_DTLB_demand_MPKI 2.00726
Core_0_DTLB_demand_miss_rate 0.00765368
Core_0_DTLB_load_access 13113044
Core_0_DTLB_load_hit 13012681
Core_0_DTLB_load_miss 100363
Core_0_DTLB_load_MPKI 2.00726
Core_0_DTLB_load_miss_rate 0.00765368
Core_0_DTLB_rfo_access 0
Core_0_DTLB_rfo_hit 0
Core_0_DTLB_rfo_miss 0
Core_0_DTLB_rfo_MPKI 0
Core_0_DTLB_rfo_miss_rate 0
Core_0_DTLB_prefetch_access 0
Core_0_DTLB_prefetch_hit 0
Core_0_DTLB_prefetch_miss 0
Core_0_DTLB_prefetch_MPKI 0
Core_0_DTLB_prefetch_miss_rate 0
Core_0_DTLB_writeback_access 0
Core_0_DTLB_writeback_hit 0
Core_0_DTLB_writeback_miss 0
Core_0_DTLB_writeback_MPKI 0
Core_0_DTLB_writeback_miss_rate 0
Core_0_DTLB_prefetch_requested 0
Core_0_DTLB_prefetch_issued 0
Core_0_DTLB_prefetch_useful 0
Core_0_DTLB_prefetch_useless 0
Core_0_DTLB_prefetch_late 0
Core_0_DTLB_prefetch_accuracy 0
Core_0_DTLB_prefetch_coverage 0

Core_0_STLB_total_access 22000
Core_0_STLB_total_hit 11417
Core_0_STLB_total_miss 10583
Core_0_STLB_total_MPKI 0.21166
Core_0_STLB_total_miss_rate 0.481045
Core_0_STLB_demand_access 22000
Core_0_STLB_demand_hit 11417
Core_0_STLB_demand_miss 10583
Core_0_STLB_demand_MPKI 0.21166
Core_0_STLB_demand_miss_rate 0.481045
Core_0_STLB_load_access 22000
Core_0_STLB_load_hit 11417
Core_0_STLB_load_miss 10583
Core_0_STLB_load_MPKI 0.21166
Core_0_STLB_load_miss_rate 0.481045
Core_0_STLB_rfo_access 0
Core_0_STLB_rfo_hit 0
Core_0_STLB_rfo_miss 0
Core_0_STLB_rfo_MPKI 0
Core_0_STLB_rfo_miss_rate 0
Core_0_STLB_prefetch_access 0
Core_0_STLB_prefetch_hit 0
Core_0_STLB_prefetch_miss 0
Core_0_STLB_prefetch_MPKI 0
Core_0_STLB_prefetch_miss_rate 0
Core_0_STLB_writeback_access 0
Core_0_STLB_writeback_hit 0
Core_0_STLB_writeback_miss 0
Core_0_STLB_writeback_MPKI 0
Core_0_STLB_writeback_miss_rate 0
Core_0_STLB_prefetch_requested 0
Core_0_STLB_prefetch_issued 0
Core_0_STLB_prefetch_useful 0
Core_0_STLB_prefetch_useless 0
Core_0_STLB_prefetch_late 0
Core_0_STLB_prefetch_accuracy 0
Core_0_STLB_prefetch_coverage 0

Core_0_L1I_total_access 8093397
Core_0_L1I_total_hit 8093392
Core_0_L1I_total_miss 5
Core_0_L1I_total_MPKI 0.0001
Core_0_L1I_total_miss_rate 6.17788e-07
Core_0_L1I_demand_access 8093397
Core_0_L1I_demand_hit 8093392
Core_0_L1I_demand_miss 5
Core_0_L1I_demand_MPKI 0.0001
Core_0_L1I_demand_miss_rate 6.17788e-07
Core_0_L1I_load_access 8093397
Core_0_L1I_load_hit 8093392
Core_0_L1I_load_miss 5
Core_0_L1I_load_MPKI 0.0001
Core_0_L1I_load_miss_rate 6.17788e-07
Core_0_L1I_rfo_access 0
Core_0_L1I_rfo_hit 0
Core_0_L1I_rfo_miss 0
Core_0_L1I_rfo_MPKI 0
Core_0_L1I_rfo_miss_rate 0
Core_0_L1I_prefetch_access 0
Core_0_L1I_prefetch_hit 0
Core_0_L1I_prefetch_miss 0
Core_0_L1I_prefetch_MPKI 0
Core_0_L1I_prefetch_miss_rate 0
Core_0_L1I_writeback_access 0
Core_0_L1I_writeback_hit 0
Core_0_L1I_writeback_miss 0
Core_0_L1I_writeback_MPKI 0
Core_0_L1I_writeback_miss_rate 0
Core_0_L1I_prefetch_requested 0
Core_0_L1I_prefetch_issued 0
Core_0_L1I_prefetch_useful 0
Core_0_L1I_prefetch_useless 0
Core_0_L1I_prefetch_late 0
Core_0_L1I_prefetch_accuracy 0
Core_0_L1I_prefetch_coverage 0

Core_0_L1D_total_access 14685221
Core_0_L1D_total_hit 10158603
Core_0_L1D_total_miss 4526618
Core_0_L1D_total_MPKI 90.5324
Core_0_L1D_total_miss_rate 0.308243
Core_0_L1D_demand_access 4156470
Core_0_L1D_demand_hit 3531291
Core_0_L1D_demand_miss 625179
Core_0_L1D_demand_MPKI 12.5036
Core_0_L1D_demand_miss_rate 0.150411
Core_0_L1D_load_access 4156470
Core_0_L1D_load_hit 3531291
Core_0_L1D_load_miss 625179
Core_0_L1D_load_MPKI 12.5036
Core_0_L1D_load_miss_rate 0.150411
Core_0_L1D_rfo_access 0
Core_0_L1D_rfo_hit 0
Core_0_L1D_rfo_miss 0
Core_0_L1D_rfo_MPKI 0
Core_0_L1D_rfo_miss_rate 0
Core_0_L1D_prefetch_access 433272
Core_0_L1D_prefetch_hit 133565
Core_0_L1D_prefetch_miss 299707
Core_0_L1D_prefetch_MPKI 5.99414
Core_0_L1D_prefetch_miss_rate 0.691729
Core_0_L1D_writeback_access 10095479
Core_0_L1D_writeback_hit 6493747
Core_0_L1D_writeback_miss 3601732
Core_0_L1D_writeback_MPKI 72.0346
Core_0_L1D_writeback_miss_rate 0.356767
Core_0_L1D_prefetch_requested 668005
Core_0_L1D_prefetch_issued 433279
Core_0_L1D_prefetch_useful 236428
Core_0_L1D_prefetch_useless 9178
Core_0_L1D_prefetch_late 66149
Core_0_L1D_prefetch_accuracy 0.545671
Core_0_L1D_prefetch_coverage 0.274404

Core_0_L2C_total_access 3807488
Core_0_L2C_total_hit 1512561
Core_0_L2C_total_miss 2294927
Core_0_L2C_total_MPKI 45.8985
Core_0_L2C_total_miss_rate 0.60274
Core_0_L2C_demand_access 851601
Core_0_L2C_demand_hit 300183
Core_0_L2C_demand_miss 551418
Core_0_L2C_demand_MPKI 11.0284
Core_0_L2C_demand_miss_rate 0.647507
Core_0_L2C_load_access 366218
Core_0_L2C_load_hit 265592
Core_0_L2C_load_miss 100626
Core_0_L2C_load_MPKI 2.01252
Core_0_L2C_load_miss_rate 0.274771
Core_0_L2C_rfo_access 485383
Core_0_L2C_rfo_hit 34591
Core_0_L2C_rfo_miss 450792
Core_0_L2C_rfo_MPKI 9.01584
Core_0_L2C_rfo_miss_rate 0.928735
Core_0_L2C_prefetch_access 2431021
Core_0_L2C_prefetch_hit 687570
Core_0_L2C_prefetch_miss 1743451
Core_0_L2C_prefetch_MPKI 34.869
Core_0_L2C_prefetch_miss_rate 0.717168
Core_0_L2C_writeback_access 524866
Core_0_L2C_writeback_hit 524808
Core_0_L2C_writeback_miss 58
Core_0_L2C_writeback_MPKI 0.00116
Core_0_L2C_writeback_miss_rate 0.000110504
Core_0_L2C_prefetch_requested 2346534
Core_0_L2C_prefetch_issued 2185426
Core_0_L2C_prefetch_useful 283394
Core_0_L2C_prefetch_useless 98114
Core_0_L2C_prefetch_late 75956
Core_0_L2C_prefetch_accuracy 0.129674
Core_0_L2C_prefetch_coverage 0.33947

Core_0_LLC_total_access 1389801
Core_0_LLC_total_hit 111972
Core_0_LLC_total_miss 1277829
Core_0_LLC_total_MPKI 25.5566
Core_0_LLC_total_miss_rate 0.919433
Core_0_LLC_demand_access 475462
Core_0_LLC_demand_hit 5456
Core_0_LLC_demand_miss 470006
Core_0_LLC_demand_MPKI 9.40012
Core_0_LLC_demand_miss_rate 0.988525
Core_0_LLC_load_access 24704
Core_0_LLC_load_hit 1867
Core_0_LLC_load_miss 22837
Core_0_LLC_load_MPKI 0.45674
Core_0_LLC_load_miss_rate 0.924425
Core_0_LLC_rfo_access 450758
Core_0_LLC_rfo_hit 3589
Core_0_LLC_rfo_miss 447169
Core_0_LLC_rfo_MPKI 8.94338
Core_0_LLC_rfo_miss_rate 0.992038
Core_0_LLC_prefetch_access 418584
Core_0_LLC_prefetch_hit 27053
Core_0_LLC_prefetch_miss 391531
Core_0_LLC_prefetch_MPKI 7.83062
Core_0_LLC_prefetch_miss_rate 0.93537
Core_0_LLC_writeback_access 495755
Core_0_LLC_writeback_hit 79463
Core_0_LLC_writeback_miss 416292
Core_0_LLC_writeback_MPKI 8.32584
Core_0_LLC_writeback_miss_rate 0.839713
Core_0_LLC_prefetch_requested 0
Core_0_LLC_prefetch_issued 0
Core_0_LLC_prefetch_useful 0
Core_0_LLC_prefetch_useless 0
Core_0_LLC_prefetch_late 0
Core_0_LLC_prefetch_accuracy 0
Core_0_LLC_prefetch_coverage 0

[DRAM Statistics]
Channel_0_RQ_row_buffer_hit 65500
Channel_0_RQ_row_buffer_miss 798007
Channel_0_WQ_row_buffer_hit 55547
Channel_0_WQ_row_buffer_miss 438785
Channel_0_WQ_full 4264
Channel_0_dbus_congested 4567621
DRAM_total_RQ_row_buffer_hit 65500
DRAM_total_RQ_row_buffer_miss 798007
DRAM_total_WQ_row_buffer_hit 55547
DRAM_total_WQ_row_buffer_miss 438785
DRAM_total_WQ_full 4264
DRAM_total_dbus_congested 4567621
DRAM_avg_congested_cycle 6.90867

======STLB miss causes ========
Core_0_STLB_miss_cause_breakdown
Core_0_STLB_cause_Demand_Data_miss 10120
Core_0_STLB_cause_Demand_Data_miss_rate 0.46
Core_0_STLB_cause_Demand_Instruction_miss 0
Core_0_STLB_cause_Demand_Instruction_miss_rate 0
Core_0_STLB_cause_L1D_Prefetch_miss 463
Core_0_STLB_cause_L1D_Prefetch_miss_rate 0.0210455
Core_0_STLB_cause_L1I_Prefetch_miss 0
Core_0_STLB_cause_L1I_Prefetch_miss_rate 0
Core_0_STLB_cause_Other_miss 0
Core_0_STLB_cause_Other_miss_rate 0
Core_0_STLB_Demand_miss 10120
Core_0_STLB_Demand_miss_rate 0.46
Core_0_STLB_L1D_Prefetch_miss 463
Core_0_STLB_L1D_Prefetch_miss_rate 0.0210455
Core_0_STLB_Other_miss 0
Core_0_STLB_Other_miss_rate 0
