[VMEM] WARNING: physical memory size is smaller than virtual memory size.

*** ChampSim Multicore Out-of-Order Simulator ***
Warmup Instructions: 20000000
Simulation Instructions: 50000000
Number of CPUs: 1
Page size: 4096
Core 0: /data0/tzh/champsim_traces/Ligra/ligra_Radii.com-lj.ungraph.gcc_6.3.0_O3.drop_18000M.length_250M.champsimtrace.xz
 L1D Berti prefetcher
Off-chip DRAM Size: 16 GiB Channels: 1 Width: 64-bit Data Rate: 3205 MT/s
Warmup halting CPU 0 at instruction 20000001 cycle 6278869 for remainder of phase
Warmup finished CPU 0 instructions: 20000001 cycles: 6278869 cumulative IPC: 3.185 (Simulation time: 00 hr 01 min 07 sec)
Warmup complete CPU 0 instructions: 20000001 cycles: 6278869 cumulative IPC: 3.185 (Simulation time: 00 hr 01 min 07 sec)
Simulation finished CPU 0 instructions: 50000002 cycles: 27629170 cumulative IPC: 1.81 (Simulation time: 00 hr 05 min 52 sec)
Simulation complete CPU 0 instructions: 50000002 cycles: 27629170 cumulative IPC: 1.81 (Simulation time: 00 hr 05 min 52 sec)

ChampSim completed all CPUs

=== Simulation ===
CPU 0 runs /data0/tzh/champsim_traces/Ligra/ligra_Radii.com-lj.ungraph.gcc_6.3.0_O3.drop_18000M.length_250M.champsimtrace.xz

Region of Interest Statistics

CPU 0 cumulative IPC: 1.81 instructions: 50000002 cycles: 27629170
CPU 0 Branch Prediction Accuracy: 99.03% MPKI: 0.9868 Average ROB Occupancy at Mispredict: 145.4
Branch type MPKI
BRANCH_DIRECT_JUMP: 0
BRANCH_INDIRECT: 0
BRANCH_CONDITIONAL: 0.9865
BRANCH_DIRECT_CALL: 0
BRANCH_INDIRECT_CALL: 0
BRANCH_RETURN: 0.00028

cpu0->cpu0_STLB TOTAL        ACCESS:      23680 HIT:      19701 MISS:       3979 MSHR_MERGE:          0
cpu0->cpu0_STLB LOAD         ACCESS:      23680 HIT:      19701 MISS:       3979 MSHR_MERGE:          0
cpu0->cpu0_STLB RFO          ACCESS:          0 HIT:          0 MISS:          0 MSHR_MERGE:          0
cpu0->cpu0_STLB PREFETCH     ACCESS:          0 HIT:          0 MISS:          0 MSHR_MERGE:          0
cpu0->cpu0_STLB WRITE        ACCESS:          0 HIT:          0 MISS:          0 MSHR_MERGE:          0
cpu0->cpu0_STLB TRANSLATION  ACCESS:          0 HIT:          0 MISS:          0 MSHR_MERGE:          0
cpu0->cpu0_STLB PREFETCH REQUESTED:          0 ISSUED:          0 USEFUL:          0 USELESS:          0 LATE:          0
cpu0->cpu0_STLB AVERAGE MISS LATENCY: 283.6 cycles
cpu0->cpu0_L2C TOTAL        ACCESS:    4345002 HIT:    2165383 MISS:    2179619 MSHR_MERGE:    1153294
cpu0->cpu0_L2C LOAD         ACCESS:     423058 HIT:     336387 MISS:      86671 MSHR_MERGE:      61306
cpu0->cpu0_L2C RFO          ACCESS:     554985 HIT:      36081 MISS:     518904 MSHR_MERGE:         39
cpu0->cpu0_L2C PREFETCH     ACCESS:    2808513 HIT:    1235085 MISS:    1573428 MSHR_MERGE:    1091949
cpu0->cpu0_L2C WRITE        ACCESS:     557579 HIT:     557530 MISS:         49 MSHR_MERGE:          0
cpu0->cpu0_L2C TRANSLATION  ACCESS:        867 HIT:        300 MISS:        567 MSHR_MERGE:          0
cpu0->cpu0_L2C PREFETCH REQUESTED:    2851283 ISSUED:    2531201 USEFUL:     349629 USELESS:      79687 LATE:      61345
cpu0->cpu0_L2C AVERAGE MISS LATENCY: 305.3 cycles
cpu0->cpu0_L1I TOTAL        ACCESS:    5466277 HIT:    5466277 MISS:          0 MSHR_MERGE:          0
cpu0->cpu0_L1I LOAD         ACCESS:    5466277 HIT:    5466277 MISS:          0 MSHR_MERGE:          0
cpu0->cpu0_L1I RFO          ACCESS:          0 HIT:          0 MISS:          0 MSHR_MERGE:          0
cpu0->cpu0_L1I PREFETCH     ACCESS:          0 HIT:          0 MISS:          0 MSHR_MERGE:          0
cpu0->cpu0_L1I WRITE        ACCESS:          0 HIT:          0 MISS:          0 MSHR_MERGE:          0
cpu0->cpu0_L1I TRANSLATION  ACCESS:          0 HIT:          0 MISS:          0 MSHR_MERGE:          0
cpu0->cpu0_L1I PREFETCH REQUESTED:          0 ISSUED:          0 USEFUL:          0 USELESS:          0 LATE:          0
cpu0->cpu0_L1I AVERAGE MISS LATENCY: - cycles
cpu0->cpu0_L1D TOTAL        ACCESS:   14500159 HIT:    9863484 MISS:    4636675 MSHR_MERGE:    3380428
cpu0->cpu0_L1D LOAD         ACCESS:    4200300 HIT:    3477344 MISS:     722956 MSHR_MERGE:     299897
cpu0->cpu0_L1D RFO          ACCESS:          0 HIT:          0 MISS:          0 MSHR_MERGE:          0
cpu0->cpu0_L1D PREFETCH     ACCESS:     465112 HIT:     143020 MISS:     322092 MSHR_MERGE:      44776
cpu0->cpu0_L1D WRITE        ACCESS:    9827187 HIT:    6236841 MISS:    3590346 MSHR_MERGE:    3035341
cpu0->cpu0_L1D TRANSLATION  ACCESS:       7560 HIT:       6279 MISS:       1281 MSHR_MERGE:        414
cpu0->cpu0_L1D PREFETCH REQUESTED:     714710 ISSUED:     465112 USEFUL:     266791 USELESS:      10525 LATE:      60086
cpu0->cpu0_L1D AVERAGE MISS LATENCY: 197.7 cycles
cpu0->cpu0_ITLB TOTAL        ACCESS:    5387523 HIT:    5387523 MISS:          0 MSHR_MERGE:          0
cpu0->cpu0_ITLB LOAD         ACCESS:    5387523 HIT:    5387523 MISS:          0 MSHR_MERGE:          0
cpu0->cpu0_ITLB RFO          ACCESS:          0 HIT:          0 MISS:          0 MSHR_MERGE:          0
cpu0->cpu0_ITLB PREFETCH     ACCESS:          0 HIT:          0 MISS:          0 MSHR_MERGE:          0
cpu0->cpu0_ITLB WRITE        ACCESS:          0 HIT:          0 MISS:          0 MSHR_MERGE:          0
cpu0->cpu0_ITLB TRANSLATION  ACCESS:          0 HIT:          0 MISS:          0 MSHR_MERGE:          0
cpu0->cpu0_ITLB PREFETCH REQUESTED:          0 ISSUED:          0 USEFUL:          0 USELESS:          0 LATE:          0
cpu0->cpu0_ITLB AVERAGE MISS LATENCY: - cycles
cpu0->cpu0_DTLB TOTAL        ACCESS:   12922175 HIT:   12838452 MISS:      83723 MSHR_MERGE:      60043
cpu0->cpu0_DTLB LOAD         ACCESS:   12922175 HIT:   12838452 MISS:      83723 MSHR_MERGE:      60043
cpu0->cpu0_DTLB RFO          ACCESS:          0 HIT:          0 MISS:          0 MSHR_MERGE:          0
cpu0->cpu0_DTLB PREFETCH     ACCESS:          0 HIT:          0 MISS:          0 MSHR_MERGE:          0
cpu0->cpu0_DTLB WRITE        ACCESS:          0 HIT:          0 MISS:          0 MSHR_MERGE:          0
cpu0->cpu0_DTLB TRANSLATION  ACCESS:          0 HIT:          0 MISS:          0 MSHR_MERGE:          0
cpu0->cpu0_DTLB PREFETCH REQUESTED:          0 ISSUED:          0 USEFUL:          0 USELESS:          0 LATE:          0
cpu0->cpu0_DTLB AVERAGE MISS LATENCY: 52.83 cycles
cpu0->LLC TOTAL        ACCESS:    1548190 HIT:     645971 MISS:     902219 MSHR_MERGE:          0
cpu0->LLC LOAD         ACCESS:      25365 HIT:      14634 MISS:      10731 MSHR_MERGE:          0
cpu0->LLC RFO          ACCESS:     518865 HIT:     157119 MISS:     361746 MSHR_MERGE:          0
cpu0->LLC PREFETCH     ACCESS:     481479 HIT:     229656 MISS:     251823 MSHR_MERGE:          0
cpu0->LLC WRITE        ACCESS:     521914 HIT:     244557 MISS:     277357 MSHR_MERGE:          0
cpu0->LLC TRANSLATION  ACCESS:        567 HIT:          5 MISS:        562 MSHR_MERGE:          0
cpu0->LLC PREFETCH REQUESTED:          0 ISSUED:          0 USEFUL:          0 USELESS:          0 LATE:          0
cpu0->LLC AVERAGE MISS LATENCY: 256 cycles

DRAM Statistics

Channel 0 RQ ROW_BUFFER_HIT:      45736
  ROW_BUFFER_MISS:     578055
  AVG DBUS CONGESTED CYCLE: 7.015
Channel 0 WQ ROW_BUFFER_HIT:      48540
  ROW_BUFFER_MISS:     331097
  FULL:      15418
Channel 0 REFRESHES ISSUED:       2302

[ROI Statistics]
[System Configuration]
num_cpus 1
cpu_freq 4000
fetch_width 6
decode_width 6
dispatch_width 6
execute_width 6
lq_width 2
sq_width 2
retire_width 6
scheduler_size 128
branch_mispredict_penalty 15
rob_size 352
lq_size 128
sq_size 72
ifetch_buffer_size 64
decode_buffer_size 32
dispatch_buffer_size 32
register_file_size 288
decode_latency 1
dispatch_latency 1
schedule_latency 1
execute_latency 1
page_size 4096
block_size 64
core_0_itlb_set 16
core_0_itlb_way 4
core_0_itlb_rq_size 16
core_0_itlb_wq_size 16
core_0_itlb_pq_size 0
core_0_itlb_mshr_size 8
core_0_itlb_hit_latency 1
core_0_itlb_fill_latency 1
core_0_itlb_max_tag_check 2
core_0_itlb_max_fill 2
core_0_dtlb_set 16
core_0_dtlb_way 4
core_0_dtlb_rq_size 16
core_0_dtlb_wq_size 16
core_0_dtlb_pq_size 0
core_0_dtlb_mshr_size 8
core_0_dtlb_hit_latency 1
core_0_dtlb_fill_latency 1
core_0_dtlb_max_tag_check 2
core_0_dtlb_max_fill 2
core_0_stlb_set 128
core_0_stlb_way 12
core_0_stlb_rq_size 32
core_0_stlb_wq_size 32
core_0_stlb_pq_size 0
core_0_stlb_mshr_size 16
core_0_stlb_hit_latency 4
core_0_stlb_fill_latency 4
core_0_stlb_max_tag_check 1
core_0_stlb_max_fill 1
core_0_l1i_set 64
core_0_l1i_way 8
core_0_l1i_rq_size 64
core_0_l1i_wq_size 64
core_0_l1i_pq_size 32
core_0_l1i_mshr_size 8
core_0_l1i_hit_latency 2
core_0_l1i_fill_latency 2
core_0_l1i_max_tag_check 2
core_0_l1i_max_fill 2
core_0_l1d_set 64
core_0_l1d_way 12
core_0_l1d_rq_size 64
core_0_l1d_wq_size 64
core_0_l1d_pq_size 8
core_0_l1d_mshr_size 16
core_0_l1d_hit_latency 2
core_0_l1d_fill_latency 3
core_0_l1d_max_tag_check 2
core_0_l1d_max_fill 2
core_0_l2c_set 1024
core_0_l2c_way 8
core_0_l2c_rq_size 32
core_0_l2c_wq_size 32
core_0_l2c_pq_size 16
core_0_l2c_mshr_size 32
core_0_l2c_hit_latency 5
core_0_l2c_fill_latency 5
core_0_l2c_max_tag_check 1
core_0_l2c_max_fill 1
llc_set 2048
llc_way 16
llc_rq_size 32
llc_wq_size 32
llc_pq_size 32
llc_mshr_size 64
llc_hit_latency 10
llc_fill_latency 10
llc_max_tag_check 1
llc_max_fill 1
dram_channels 1
dram_ranks 1
dram_bankgroups 8
dram_banks 4
dram_rows 65536
dram_columns 1024
dram_channel_width 8
dram_rq_size 64
dram_wq_size 64
dram_size 17179869184
core_0_itlb_prefetcher no
core_0_dtlb_prefetcher no
core_0_stlb_prefetcher no
core_0_l1i_prefetcher next_line
core_0_l1d_prefetcher berti
core_0_l2c_prefetcher pythia
llc_prefetcher no
llc_replacement drrip

Core_0_instructions 50000002
Core_0_cycles 27629170
Core_0_IPC 1.80968
Core_0_branch_prediction_accuracy 99.0279
Core_0_branch_MPKI 0.9868
Core_0_average_ROB_occupancy_at_mispredict 145.371

Core_0_ITLB_total_access 5387523
Core_0_ITLB_total_hit 5387523
Core_0_ITLB_total_miss 0
Core_0_ITLB_total_MPKI 0
Core_0_ITLB_total_miss_rate 0
Core_0_ITLB_demand_access 5387523
Core_0_ITLB_demand_hit 5387523
Core_0_ITLB_demand_miss 0
Core_0_ITLB_demand_MPKI 0
Core_0_ITLB_demand_miss_rate 0
Core_0_ITLB_load_access 5387523
Core_0_ITLB_load_hit 5387523
Core_0_ITLB_load_miss 0
Core_0_ITLB_load_MPKI 0
Core_0_ITLB_load_miss_rate 0
Core_0_ITLB_rfo_access 0
Core_0_ITLB_rfo_hit 0
Core_0_ITLB_rfo_miss 0
Core_0_ITLB_rfo_MPKI 0
Core_0_ITLB_rfo_miss_rate 0
Core_0_ITLB_prefetch_access 0
Core_0_ITLB_prefetch_hit 0
Core_0_ITLB_prefetch_miss 0
Core_0_ITLB_prefetch_MPKI 0
Core_0_ITLB_prefetch_miss_rate 0
Core_0_ITLB_writeback_access 0
Core_0_ITLB_writeback_hit 0
Core_0_ITLB_writeback_miss 0
Core_0_ITLB_writeback_MPKI 0
Core_0_ITLB_writeback_miss_rate 0
Core_0_ITLB_prefetch_requested 0
Core_0_ITLB_prefetch_issued 0
Core_0_ITLB_prefetch_useful 0
Core_0_ITLB_prefetch_useless 0
Core_0_ITLB_prefetch_late 0
Core_0_ITLB_prefetch_accuracy 0
Core_0_ITLB_prefetch_coverage 0

Core_0_DTLB_total_access 12922175
Core_0_DTLB_total_hit 12838452
Core_0_DTLB_total_miss 83723
Core_0_DTLB_total_MPKI 1.67446
Core_0_DTLB_total_miss_rate 0.00647902
Core_0_DTLB_demand_access 12922175
Core_0_DTLB_demand_hit 12838452
Core_0_DTLB_demand_miss 83723
Core_0_DTLB_demand_MPKI 1.67446
Core_0_DTLB_demand_miss_rate 0.00647902
Core_0_DTLB_load_access 12922175
Core_0_DTLB_load_hit 12838452
Core_0_DTLB_load_miss 83723
Core_0_DTLB_load_MPKI 1.67446
Core_0_DTLB_load_miss_rate 0.00647902
Core_0_DTLB_rfo_access 0
Core_0_DTLB_rfo_hit 0
Core_0_DTLB_rfo_miss 0
Core_0_DTLB_rfo_MPKI 0
Core_0_DTLB_rfo_miss_rate 0
Core_0_DTLB_prefetch_access 0
Core_0_DTLB_prefetch_hit 0
Core_0_DTLB_prefetch_miss 0
Core_0_DTLB_prefetch_MPKI 0
Core_0_DTLB_prefetch_miss_rate 0
Core_0_DTLB_writeback_access 0
Core_0_DTLB_writeback_hit 0
Core_0_DTLB_writeback_miss 0
Core_0_DTLB_writeback_MPKI 0
Core_0_DTLB_writeback_miss_rate 0
Core_0_DTLB_prefetch_requested 0
Core_0_DTLB_prefetch_issued 0
Core_0_DTLB_prefetch_useful 0
Core_0_DTLB_prefetch_useless 0
Core_0_DTLB_prefetch_late 0
Core_0_DTLB_prefetch_accuracy 0
Core_0_DTLB_prefetch_coverage 0

Core_0_STLB_total_access 23680
Core_0_STLB_total_hit 19701
Core_0_STLB_total_miss 3979
Core_0_STLB_total_MPKI 0.07958
Core_0_STLB_total_miss_rate 0.168032
Core_0_STLB_demand_access 23680
Core_0_STLB_demand_hit 19701
Core_0_STLB_demand_miss 3979
Core_0_STLB_demand_MPKI 0.07958
Core_0_STLB_demand_miss_rate 0.168032
Core_0_STLB_load_access 23680
Core_0_STLB_load_hit 19701
Core_0_STLB_load_miss 3979
Core_0_STLB_load_MPKI 0.07958
Core_0_STLB_load_miss_rate 0.168032
Core_0_STLB_rfo_access 0
Core_0_STLB_rfo_hit 0
Core_0_STLB_rfo_miss 0
Core_0_STLB_rfo_MPKI 0
Core_0_STLB_rfo_miss_rate 0
Core_0_STLB_prefetch_access 0
Core_0_STLB_prefetch_hit 0
Core_0_STLB_prefetch_miss 0
Core_0_STLB_prefetch_MPKI 0
Core_0_STLB_prefetch_miss_rate 0
Core_0_STLB_writeback_access 0
Core_0_STLB_writeback_hit 0
Core_0_STLB_writeback_miss 0
Core_0_STLB_writeback_MPKI 0
Core_0_STLB_writeback_miss_rate 0
Core_0_STLB_prefetch_requested 0
Core_0_STLB_prefetch_issued 0
Core_0_STLB_prefetch_useful 0
Core_0_STLB_prefetch_useless 0
Core_0_STLB_prefetch_late 0
Core_0_STLB_prefetch_accuracy 0
Core_0_STLB_prefetch_coverage 0

Core_0_L1I_total_access 5466277
Core_0_L1I_total_hit 5466277
Core_0_L1I_total_miss 0
Core_0_L1I_total_MPKI 0
Core_0_L1I_total_miss_rate 0
Core_0_L1I_demand_access 5466277
Core_0_L1I_demand_hit 5466277
Core_0_L1I_demand_miss 0
Core_0_L1I_demand_MPKI 0
Core_0_L1I_demand_miss_rate 0
Core_0_L1I_load_access 5466277
Core_0_L1I_load_hit 5466277
Core_0_L1I_load_miss 0
Core_0_L1I_load_MPKI 0
Core_0_L1I_load_miss_rate 0
Core_0_L1I_rfo_access 0
Core_0_L1I_rfo_hit 0
Core_0_L1I_rfo_miss 0
Core_0_L1I_rfo_MPKI 0
Core_0_L1I_rfo_miss_rate 0
Core_0_L1I_prefetch_access 0
Core_0_L1I_prefetch_hit 0
Core_0_L1I_prefetch_miss 0
Core_0_L1I_prefetch_MPKI 0
Core_0_L1I_prefetch_miss_rate 0
Core_0_L1I_writeback_access 0
Core_0_L1I_writeback_hit 0
Core_0_L1I_writeback_miss 0
Core_0_L1I_writeback_MPKI 0
Core_0_L1I_writeback_miss_rate 0
Core_0_L1I_prefetch_requested 0
Core_0_L1I_prefetch_issued 0
Core_0_L1I_prefetch_useful 0
Core_0_L1I_prefetch_useless 0
Core_0_L1I_prefetch_late 0
Core_0_L1I_prefetch_accuracy 0
Core_0_L1I_prefetch_coverage 0

Core_0_L1D_total_access 14492599
Core_0_L1D_total_hit 9857205
Core_0_L1D_total_miss 4635394
Core_0_L1D_total_MPKI 92.7079
Core_0_L1D_total_miss_rate 0.319846
Core_0_L1D_demand_access 4200300
Core_0_L1D_demand_hit 3477344
Core_0_L1D_demand_miss 722956
Core_0_L1D_demand_MPKI 14.4591
Core_0_L1D_demand_miss_rate 0.17212
Core_0_L1D_load_access 4200300
Core_0_L1D_load_hit 3477344
Core_0_L1D_load_miss 722956
Core_0_L1D_load_MPKI 14.4591
Core_0_L1D_load_miss_rate 0.17212
Core_0_L1D_rfo_access 0
Core_0_L1D_rfo_hit 0
Core_0_L1D_rfo_miss 0
Core_0_L1D_rfo_MPKI 0
Core_0_L1D_rfo_miss_rate 0
Core_0_L1D_prefetch_access 465112
Core_0_L1D_prefetch_hit 143020
Core_0_L1D_prefetch_miss 322092
Core_0_L1D_prefetch_MPKI 6.44184
Core_0_L1D_prefetch_miss_rate 0.692504
Core_0_L1D_writeback_access 9827187
Core_0_L1D_writeback_hit 6236841
Core_0_L1D_writeback_miss 3590346
Core_0_L1D_writeback_MPKI 71.8069
Core_0_L1D_writeback_miss_rate 0.365348
Core_0_L1D_prefetch_requested 714710
Core_0_L1D_prefetch_issued 465112
Core_0_L1D_prefetch_useful 266791
Core_0_L1D_prefetch_useless 10525
Core_0_L1D_prefetch_late 60086
Core_0_L1D_prefetch_accuracy 0.573606
Core_0_L1D_prefetch_coverage 0.269555

Core_0_L2C_total_access 4344135
Core_0_L2C_total_hit 2165083
Core_0_L2C_total_miss 2179052
Core_0_L2C_total_MPKI 43.581
Core_0_L2C_total_miss_rate 0.501608
Core_0_L2C_demand_access 978043
Core_0_L2C_demand_hit 372468
Core_0_L2C_demand_miss 605575
Core_0_L2C_demand_MPKI 12.1115
Core_0_L2C_demand_miss_rate 0.61917
Core_0_L2C_load_access 423058
Core_0_L2C_load_hit 336387
Core_0_L2C_load_miss 86671
Core_0_L2C_load_MPKI 1.73342
Core_0_L2C_load_miss_rate 0.204868
Core_0_L2C_rfo_access 554985
Core_0_L2C_rfo_hit 36081
Core_0_L2C_rfo_miss 518904
Core_0_L2C_rfo_MPKI 10.3781
Core_0_L2C_rfo_miss_rate 0.934987
Core_0_L2C_prefetch_access 2808513
Core_0_L2C_prefetch_hit 1235085
Core_0_L2C_prefetch_miss 1573428
Core_0_L2C_prefetch_MPKI 31.4686
Core_0_L2C_prefetch_miss_rate 0.560235
Core_0_L2C_writeback_access 557579
Core_0_L2C_writeback_hit 557530
Core_0_L2C_writeback_miss 49
Core_0_L2C_writeback_MPKI 0.00098
Core_0_L2C_writeback_miss_rate 8.78799e-05
Core_0_L2C_prefetch_requested 2851283
Core_0_L2C_prefetch_issued 2531201
Core_0_L2C_prefetch_useful 349629
Core_0_L2C_prefetch_useless 79687
Core_0_L2C_prefetch_late 61345
Core_0_L2C_prefetch_accuracy 0.138128
Core_0_L2C_prefetch_coverage 0.366025

Core_0_LLC_total_access 1547623
Core_0_LLC_total_hit 645966
Core_0_LLC_total_miss 901657
Core_0_LLC_total_MPKI 18.0331
Core_0_LLC_total_miss_rate 0.582608
Core_0_LLC_demand_access 544230
Core_0_LLC_demand_hit 171753
Core_0_LLC_demand_miss 372477
Core_0_LLC_demand_MPKI 7.44954
Core_0_LLC_demand_miss_rate 0.684411
Core_0_LLC_load_access 25365
Core_0_LLC_load_hit 14634
Core_0_LLC_load_miss 10731
Core_0_LLC_load_MPKI 0.21462
Core_0_LLC_load_miss_rate 0.423063
Core_0_LLC_rfo_access 518865
Core_0_LLC_rfo_hit 157119
Core_0_LLC_rfo_miss 361746
Core_0_LLC_rfo_MPKI 7.23492
Core_0_LLC_rfo_miss_rate 0.697187
Core_0_LLC_prefetch_access 481479
Core_0_LLC_prefetch_hit 229656
Core_0_LLC_prefetch_miss 251823
Core_0_LLC_prefetch_MPKI 5.03646
Core_0_LLC_prefetch_miss_rate 0.52302
Core_0_LLC_writeback_access 521914
Core_0_LLC_writeback_hit 244557
Core_0_LLC_writeback_miss 277357
Core_0_LLC_writeback_MPKI 5.54714
Core_0_LLC_writeback_miss_rate 0.531423
Core_0_LLC_prefetch_requested 0
Core_0_LLC_prefetch_issued 0
Core_0_LLC_prefetch_useful 0
Core_0_LLC_prefetch_useless 0
Core_0_LLC_prefetch_late 0
Core_0_LLC_prefetch_accuracy 0
Core_0_LLC_prefetch_coverage 0

[DRAM Statistics]
Channel_0_RQ_row_buffer_hit 45736
Channel_0_RQ_row_buffer_miss 578055
Channel_0_WQ_row_buffer_hit 48540
Channel_0_WQ_row_buffer_miss 331097
Channel_0_WQ_full 15418
Channel_0_dbus_congested 3274739
DRAM_total_RQ_row_buffer_hit 45736
DRAM_total_RQ_row_buffer_miss 578055
DRAM_total_WQ_row_buffer_hit 48540
DRAM_total_WQ_row_buffer_miss 331097
DRAM_total_WQ_full 15418
DRAM_total_dbus_congested 3274739
DRAM_avg_congested_cycle 7.01548

======STLB miss causes ========
Core_0_STLB_miss_cause_breakdown
Core_0_STLB_cause_Demand_Data_miss 3908
Core_0_STLB_cause_Demand_Data_miss_rate 0.165034
Core_0_STLB_cause_Demand_Instruction_miss 0
Core_0_STLB_cause_Demand_Instruction_miss_rate 0
Core_0_STLB_cause_L1D_Prefetch_miss 71
Core_0_STLB_cause_L1D_Prefetch_miss_rate 0.00299831
Core_0_STLB_cause_L1I_Prefetch_miss 0
Core_0_STLB_cause_L1I_Prefetch_miss_rate 0
Core_0_STLB_cause_Other_miss 0
Core_0_STLB_cause_Other_miss_rate 0
Core_0_STLB_Demand_miss 3908
Core_0_STLB_Demand_miss_rate 0.165034
Core_0_STLB_L1D_Prefetch_miss 71
Core_0_STLB_L1D_Prefetch_miss_rate 0.00299831
Core_0_STLB_Other_miss 0
Core_0_STLB_Other_miss_rate 0
