[VMEM] WARNING: physical memory size is smaller than virtual memory size.

*** ChampSim Multicore Out-of-Order Simulator ***
Warmup Instructions: 20000000
Simulation Instructions: 50000000
Number of CPUs: 1
Page size: 4096
Core 0: /data0/tzh/champsim_traces/Ligra/ligra_BellmanFord.com-lj.ungraph.gcc_6.3.0_O3.drop_22250M.length_250M.champsimtrace.xz
 L1D Berti prefetcher
Off-chip DRAM Size: 16 GiB Channels: 1 Width: 64-bit Data Rate: 3205 MT/s
Warmup halting CPU 0 at instruction 20000001 cycle 5859078 for remainder of phase
Warmup finished CPU 0 instructions: 20000001 cycles: 5859078 cumulative IPC: 3.414 (Simulation time: 00 hr 01 min 10 sec)
Warmup complete CPU 0 instructions: 20000001 cycles: 5859078 cumulative IPC: 3.414 (Simulation time: 00 hr 01 min 10 sec)
Simulation finished CPU 0 instructions: 50000000 cycles: 39323273 cumulative IPC: 1.272 (Simulation time: 00 hr 06 min 53 sec)
Simulation complete CPU 0 instructions: 50000000 cycles: 39323273 cumulative IPC: 1.272 (Simulation time: 00 hr 06 min 53 sec)

ChampSim completed all CPUs

=== Simulation ===
CPU 0 runs /data0/tzh/champsim_traces/Ligra/ligra_BellmanFord.com-lj.ungraph.gcc_6.3.0_O3.drop_22250M.length_250M.champsimtrace.xz

Region of Interest Statistics

CPU 0 cumulative IPC: 1.272 instructions: 50000000 cycles: 39323273
CPU 0 Branch Prediction Accuracy: 94.2% MPKI: 4.445 Average ROB Occupancy at Mispredict: 104.3
Branch type MPKI
BRANCH_DIRECT_JUMP: 0
BRANCH_INDIRECT: 0
BRANCH_CONDITIONAL: 4.445
BRANCH_DIRECT_CALL: 0
BRANCH_INDIRECT_CALL: 0
BRANCH_RETURN: 0

cpu0->cpu0_STLB TOTAL        ACCESS:      18030 HIT:          0 MISS:      18030 MSHR_MERGE:          0
cpu0->cpu0_STLB LOAD         ACCESS:      18030 HIT:          0 MISS:      18030 MSHR_MERGE:          0
cpu0->cpu0_STLB RFO          ACCESS:          0 HIT:          0 MISS:          0 MSHR_MERGE:          0
cpu0->cpu0_STLB PREFETCH     ACCESS:          0 HIT:          0 MISS:          0 MSHR_MERGE:          0
cpu0->cpu0_STLB WRITE        ACCESS:          0 HIT:          0 MISS:          0 MSHR_MERGE:          0
cpu0->cpu0_STLB TRANSLATION  ACCESS:          0 HIT:          0 MISS:          0 MSHR_MERGE:          0
cpu0->cpu0_STLB PREFETCH REQUESTED:          0 ISSUED:          0 USEFUL:          0 USELESS:          0 LATE:          0
cpu0->cpu0_STLB AVERAGE MISS LATENCY: 278.5 cycles
cpu0->cpu0_L2C TOTAL        ACCESS:    4419668 HIT:    1482657 MISS:    2937011 MSHR_MERGE:    1780846
cpu0->cpu0_L2C LOAD         ACCESS:      43835 HIT:      20509 MISS:      23326 MSHR_MERGE:       8334
cpu0->cpu0_L2C RFO          ACCESS:     632237 HIT:          0 MISS:     632237 MSHR_MERGE:          0
cpu0->cpu0_L2C PREFETCH     ACCESS:    3108048 HIT:     828926 MISS:    2279122 MSHR_MERGE:    1772512
cpu0->cpu0_L2C WRITE        ACCESS:     632252 HIT:     632252 MISS:          0 MSHR_MERGE:          0
cpu0->cpu0_L2C TRANSLATION  ACCESS:       3296 HIT:        970 MISS:       2326 MSHR_MERGE:          0
cpu0->cpu0_L2C PREFETCH REQUESTED:    2682361 ISSUED:    2630272 USEFUL:     257872 USELESS:     212494 LATE:       8334
cpu0->cpu0_L2C AVERAGE MISS LATENCY: 534.7 cycles
cpu0->cpu0_L1I TOTAL        ACCESS:    1748691 HIT:    1748691 MISS:          0 MSHR_MERGE:          0
cpu0->cpu0_L1I LOAD         ACCESS:    1748691 HIT:    1748691 MISS:          0 MSHR_MERGE:          0
cpu0->cpu0_L1I RFO          ACCESS:          0 HIT:          0 MISS:          0 MSHR_MERGE:          0
cpu0->cpu0_L1I PREFETCH     ACCESS:          0 HIT:          0 MISS:          0 MSHR_MERGE:          0
cpu0->cpu0_L1I WRITE        ACCESS:          0 HIT:          0 MISS:          0 MSHR_MERGE:          0
cpu0->cpu0_L1I TRANSLATION  ACCESS:          0 HIT:          0 MISS:          0 MSHR_MERGE:          0
cpu0->cpu0_L1I PREFETCH REQUESTED:          0 ISSUED:          0 USEFUL:          0 USELESS:          0 LATE:          0
cpu0->cpu0_L1I AVERAGE MISS LATENCY: - cycles
cpu0->cpu0_L1D TOTAL        ACCESS:   13692605 HIT:    2757144 MISS:   10935461 MSHR_MERGE:    9778316
cpu0->cpu0_L1D LOAD         ACCESS:    3029769 HIT:    2651914 MISS:     377855 MSHR_MERGE:     334020
cpu0->cpu0_L1D RFO          ACCESS:          0 HIT:          0 MISS:          0 MSHR_MERGE:          0
cpu0->cpu0_L1D PREFETCH     ACCESS:     510947 HIT:      11213 MISS:     499734 MSHR_MERGE:      21957
cpu0->cpu0_L1D WRITE        ACCESS:   10115793 HIT:      61217 MISS:   10054576 MSHR_MERGE:    9422339
cpu0->cpu0_L1D TRANSLATION  ACCESS:      36096 HIT:      32800 MISS:       3296 MSHR_MERGE:          0
cpu0->cpu0_L1D PREFETCH REQUESTED:     522800 ISSUED:     510941 USEFUL:     477756 USELESS:         12 LATE:      50752
cpu0->cpu0_L1D AVERAGE MISS LATENCY: 510.3 cycles
cpu0->cpu0_ITLB TOTAL        ACCESS:    1182629 HIT:    1182629 MISS:          0 MSHR_MERGE:          0
cpu0->cpu0_ITLB LOAD         ACCESS:    1182629 HIT:    1182629 MISS:          0 MSHR_MERGE:          0
cpu0->cpu0_ITLB RFO          ACCESS:          0 HIT:          0 MISS:          0 MSHR_MERGE:          0
cpu0->cpu0_ITLB PREFETCH     ACCESS:          0 HIT:          0 MISS:          0 MSHR_MERGE:          0
cpu0->cpu0_ITLB WRITE        ACCESS:          0 HIT:          0 MISS:          0 MSHR_MERGE:          0
cpu0->cpu0_ITLB TRANSLATION  ACCESS:          0 HIT:          0 MISS:          0 MSHR_MERGE:          0
cpu0->cpu0_ITLB PREFETCH REQUESTED:          0 ISSUED:          0 USEFUL:          0 USELESS:          0 LATE:          0
cpu0->cpu0_ITLB AVERAGE MISS LATENCY: - cycles
cpu0->cpu0_DTLB TOTAL        ACCESS:   12174207 HIT:   11921740 MISS:     252467 MSHR_MERGE:     234437
cpu0->cpu0_DTLB LOAD         ACCESS:   12174207 HIT:   11921740 MISS:     252467 MSHR_MERGE:     234437
cpu0->cpu0_DTLB RFO          ACCESS:          0 HIT:          0 MISS:          0 MSHR_MERGE:          0
cpu0->cpu0_DTLB PREFETCH     ACCESS:          0 HIT:          0 MISS:          0 MSHR_MERGE:          0
cpu0->cpu0_DTLB WRITE        ACCESS:          0 HIT:          0 MISS:          0 MSHR_MERGE:          0
cpu0->cpu0_DTLB TRANSLATION  ACCESS:          0 HIT:          0 MISS:          0 MSHR_MERGE:          0
cpu0->cpu0_DTLB PREFETCH REQUESTED:          0 ISSUED:          0 USEFUL:          0 USELESS:          0 LATE:          0
cpu0->cpu0_DTLB AVERAGE MISS LATENCY: 284.5 cycles
cpu0->LLC TOTAL        ACCESS:    1788994 HIT:     221911 MISS:    1567083 MSHR_MERGE:          0
cpu0->LLC LOAD         ACCESS:      14992 HIT:          0 MISS:      14992 MSHR_MERGE:          0
cpu0->LLC RFO          ACCESS:     632236 HIT:          0 MISS:     632236 MSHR_MERGE:          0
cpu0->LLC PREFETCH     ACCESS:     506610 HIT:          0 MISS:     506610 MSHR_MERGE:          0
cpu0->LLC WRITE        ACCESS:     632830 HIT:     221899 MISS:     410931 MSHR_MERGE:          0
cpu0->LLC TRANSLATION  ACCESS:       2326 HIT:         12 MISS:       2314 MSHR_MERGE:          0
cpu0->LLC PREFETCH REQUESTED:          0 ISSUED:          0 USEFUL:          0 USELESS:          0 LATE:          0
cpu0->LLC AVERAGE MISS LATENCY: 322.6 cycles

DRAM Statistics

Channel 0 RQ ROW_BUFFER_HIT:      64598
  ROW_BUFFER_MISS:    1091539
  AVG DBUS CONGESTED CYCLE: 6.476
Channel 0 WQ ROW_BUFFER_HIT:      55882
  ROW_BUFFER_MISS:     565453
  FULL:          0
Channel 0 REFRESHES ISSUED:       3277

[ROI Statistics]
[System Configuration]
num_cpus 1
cpu_freq 4000
fetch_width 6
decode_width 6
dispatch_width 6
execute_width 6
lq_width 2
sq_width 2
retire_width 6
scheduler_size 128
branch_mispredict_penalty 15
rob_size 352
lq_size 128
sq_size 72
ifetch_buffer_size 64
decode_buffer_size 32
dispatch_buffer_size 32
register_file_size 288
decode_latency 1
dispatch_latency 1
schedule_latency 1
execute_latency 1
page_size 4096
block_size 64
core_0_itlb_set 16
core_0_itlb_way 4
core_0_itlb_rq_size 16
core_0_itlb_wq_size 16
core_0_itlb_pq_size 0
core_0_itlb_mshr_size 8
core_0_itlb_hit_latency 1
core_0_itlb_fill_latency 1
core_0_itlb_max_tag_check 2
core_0_itlb_max_fill 2
core_0_dtlb_set 16
core_0_dtlb_way 4
core_0_dtlb_rq_size 16
core_0_dtlb_wq_size 16
core_0_dtlb_pq_size 0
core_0_dtlb_mshr_size 8
core_0_dtlb_hit_latency 1
core_0_dtlb_fill_latency 1
core_0_dtlb_max_tag_check 2
core_0_dtlb_max_fill 2
core_0_stlb_set 128
core_0_stlb_way 12
core_0_stlb_rq_size 32
core_0_stlb_wq_size 32
core_0_stlb_pq_size 0
core_0_stlb_mshr_size 16
core_0_stlb_hit_latency 4
core_0_stlb_fill_latency 4
core_0_stlb_max_tag_check 1
core_0_stlb_max_fill 1
core_0_l1i_set 64
core_0_l1i_way 8
core_0_l1i_rq_size 64
core_0_l1i_wq_size 64
core_0_l1i_pq_size 32
core_0_l1i_mshr_size 8
core_0_l1i_hit_latency 2
core_0_l1i_fill_latency 2
core_0_l1i_max_tag_check 2
core_0_l1i_max_fill 2
core_0_l1d_set 64
core_0_l1d_way 12
core_0_l1d_rq_size 64
core_0_l1d_wq_size 64
core_0_l1d_pq_size 8
core_0_l1d_mshr_size 16
core_0_l1d_hit_latency 2
core_0_l1d_fill_latency 3
core_0_l1d_max_tag_check 2
core_0_l1d_max_fill 2
core_0_l2c_set 1024
core_0_l2c_way 8
core_0_l2c_rq_size 32
core_0_l2c_wq_size 32
core_0_l2c_pq_size 16
core_0_l2c_mshr_size 32
core_0_l2c_hit_latency 5
core_0_l2c_fill_latency 5
core_0_l2c_max_tag_check 1
core_0_l2c_max_fill 1
llc_set 2048
llc_way 16
llc_rq_size 32
llc_wq_size 32
llc_pq_size 32
llc_mshr_size 64
llc_hit_latency 10
llc_fill_latency 10
llc_max_tag_check 1
llc_max_fill 1
dram_channels 1
dram_ranks 1
dram_bankgroups 8
dram_banks 4
dram_rows 65536
dram_columns 1024
dram_channel_width 8
dram_rq_size 64
dram_wq_size 64
dram_size 17179869184
core_0_itlb_prefetcher no
core_0_dtlb_prefetcher no
core_0_stlb_prefetcher no
core_0_l1i_prefetcher next_line
core_0_l1d_prefetcher berti
core_0_l2c_prefetcher pythia
llc_prefetcher no
llc_replacement drrip

Core_0_instructions 50000000
Core_0_cycles 39323273
Core_0_IPC 1.27151
Core_0_branch_prediction_accuracy 94.197
Core_0_branch_MPKI 4.44456
Core_0_average_ROB_occupancy_at_mispredict 104.311

Core_0_ITLB_total_access 1182629
Core_0_ITLB_total_hit 1182629
Core_0_ITLB_total_miss 0
Core_0_ITLB_total_MPKI 0
Core_0_ITLB_total_miss_rate 0
Core_0_ITLB_demand_access 1182629
Core_0_ITLB_demand_hit 1182629
Core_0_ITLB_demand_miss 0
Core_0_ITLB_demand_MPKI 0
Core_0_ITLB_demand_miss_rate 0
Core_0_ITLB_load_access 1182629
Core_0_ITLB_load_hit 1182629
Core_0_ITLB_load_miss 0
Core_0_ITLB_load_MPKI 0
Core_0_ITLB_load_miss_rate 0
Core_0_ITLB_rfo_access 0
Core_0_ITLB_rfo_hit 0
Core_0_ITLB_rfo_miss 0
Core_0_ITLB_rfo_MPKI 0
Core_0_ITLB_rfo_miss_rate 0
Core_0_ITLB_prefetch_access 0
Core_0_ITLB_prefetch_hit 0
Core_0_ITLB_prefetch_miss 0
Core_0_ITLB_prefetch_MPKI 0
Core_0_ITLB_prefetch_miss_rate 0
Core_0_ITLB_writeback_access 0
Core_0_ITLB_writeback_hit 0
Core_0_ITLB_writeback_miss 0
Core_0_ITLB_writeback_MPKI 0
Core_0_ITLB_writeback_miss_rate 0
Core_0_ITLB_prefetch_requested 0
Core_0_ITLB_prefetch_issued 0
Core_0_ITLB_prefetch_useful 0
Core_0_ITLB_prefetch_useless 0
Core_0_ITLB_prefetch_late 0
Core_0_ITLB_prefetch_accuracy 0
Core_0_ITLB_prefetch_coverage 0

Core_0_DTLB_total_access 12174207
Core_0_DTLB_total_hit 11921740
Core_0_DTLB_total_miss 252467
Core_0_DTLB_total_MPKI 5.04934
Core_0_DTLB_total_miss_rate 0.0207379
Core_0_DTLB_demand_access 12174207
Core_0_DTLB_demand_hit 11921740
Core_0_DTLB_demand_miss 252467
Core_0_DTLB_demand_MPKI 5.04934
Core_0_DTLB_demand_miss_rate 0.0207379
Core_0_DTLB_load_access 12174207
Core_0_DTLB_load_hit 11921740
Core_0_DTLB_load_miss 252467
Core_0_DTLB_load_MPKI 5.04934
Core_0_DTLB_load_miss_rate 0.0207379
Core_0_DTLB_rfo_access 0
Core_0_DTLB_rfo_hit 0
Core_0_DTLB_rfo_miss 0
Core_0_DTLB_rfo_MPKI 0
Core_0_DTLB_rfo_miss_rate 0
Core_0_DTLB_prefetch_access 0
Core_0_DTLB_prefetch_hit 0
Core_0_DTLB_prefetch_miss 0
Core_0_DTLB_prefetch_MPKI 0
Core_0_DTLB_prefetch_miss_rate 0
Core_0_DTLB_writeback_access 0
Core_0_DTLB_writeback_hit 0
Core_0_DTLB_writeback_miss 0
Core_0_DTLB_writeback_MPKI 0
Core_0_DTLB_writeback_miss_rate 0
Core_0_DTLB_prefetch_requested 0
Core_0_DTLB_prefetch_issued 0
Core_0_DTLB_prefetch_useful 0
Core_0_DTLB_prefetch_useless 0
Core_0_DTLB_prefetch_late 0
Core_0_DTLB_prefetch_accuracy 0
Core_0_DTLB_prefetch_coverage 0

Core_0_STLB_total_access 18030
Core_0_STLB_total_hit 0
Core_0_STLB_total_miss 18030
Core_0_STLB_total_MPKI 0.3606
Core_0_STLB_total_miss_rate 1
Core_0_STLB_demand_access 18030
Core_0_STLB_demand_hit 0
Core_0_STLB_demand_miss 18030
Core_0_STLB_demand_MPKI 0.3606
Core_0_STLB_demand_miss_rate 1
Core_0_STLB_load_access 18030
Core_0_STLB_load_hit 0
Core_0_STLB_load_miss 18030
Core_0_STLB_load_MPKI 0.3606
Core_0_STLB_load_miss_rate 1
Core_0_STLB_rfo_access 0
Core_0_STLB_rfo_hit 0
Core_0_STLB_rfo_miss 0
Core_0_STLB_rfo_MPKI 0
Core_0_STLB_rfo_miss_rate 0
Core_0_STLB_prefetch_access 0
Core_0_STLB_prefetch_hit 0
Core_0_STLB_prefetch_miss 0
Core_0_STLB_prefetch_MPKI 0
Core_0_STLB_prefetch_miss_rate 0
Core_0_STLB_writeback_access 0
Core_0_STLB_writeback_hit 0
Core_0_STLB_writeback_miss 0
Core_0_STLB_writeback_MPKI 0
Core_0_STLB_writeback_miss_rate 0
Core_0_STLB_prefetch_requested 0
Core_0_STLB_prefetch_issued 0
Core_0_STLB_prefetch_useful 0
Core_0_STLB_prefetch_useless 0
Core_0_STLB_prefetch_late 0
Core_0_STLB_prefetch_accuracy 0
Core_0_STLB_prefetch_coverage 0

Core_0_L1I_total_access 1748691
Core_0_L1I_total_hit 1748691
Core_0_L1I_total_miss 0
Core_0_L1I_total_MPKI 0
Core_0_L1I_total_miss_rate 0
Core_0_L1I_demand_access 1748691
Core_0_L1I_demand_hit 1748691
Core_0_L1I_demand_miss 0
Core_0_L1I_demand_MPKI 0
Core_0_L1I_demand_miss_rate 0
Core_0_L1I_load_access 1748691
Core_0_L1I_load_hit 1748691
Core_0_L1I_load_miss 0
Core_0_L1I_load_MPKI 0
Core_0_L1I_load_miss_rate 0
Core_0_L1I_rfo_access 0
Core_0_L1I_rfo_hit 0
Core_0_L1I_rfo_miss 0
Core_0_L1I_rfo_MPKI 0
Core_0_L1I_rfo_miss_rate 0
Core_0_L1I_prefetch_access 0
Core_0_L1I_prefetch_hit 0
Core_0_L1I_prefetch_miss 0
Core_0_L1I_prefetch_MPKI 0
Core_0_L1I_prefetch_miss_rate 0
Core_0_L1I_writeback_access 0
Core_0_L1I_writeback_hit 0
Core_0_L1I_writeback_miss 0
Core_0_L1I_writeback_MPKI 0
Core_0_L1I_writeback_miss_rate 0
Core_0_L1I_prefetch_requested 0
Core_0_L1I_prefetch_issued 0
Core_0_L1I_prefetch_useful 0
Core_0_L1I_prefetch_useless 0
Core_0_L1I_prefetch_late 0
Core_0_L1I_prefetch_accuracy 0
Core_0_L1I_prefetch_coverage 0

Core_0_L1D_total_access 13656509
Core_0_L1D_total_hit 2724344
Core_0_L1D_total_miss 10932165
Core_0_L1D_total_MPKI 218.643
Core_0_L1D_total_miss_rate 0.800509
Core_0_L1D_demand_access 3029769
Core_0_L1D_demand_hit 2651914
Core_0_L1D_demand_miss 377855
Core_0_L1D_demand_MPKI 7.5571
Core_0_L1D_demand_miss_rate 0.124714
Core_0_L1D_load_access 3029769
Core_0_L1D_load_hit 2651914
Core_0_L1D_load_miss 377855
Core_0_L1D_load_MPKI 7.5571
Core_0_L1D_load_miss_rate 0.124714
Core_0_L1D_rfo_access 0
Core_0_L1D_rfo_hit 0
Core_0_L1D_rfo_miss 0
Core_0_L1D_rfo_MPKI 0
Core_0_L1D_rfo_miss_rate 0
Core_0_L1D_prefetch_access 510947
Core_0_L1D_prefetch_hit 11213
Core_0_L1D_prefetch_miss 499734
Core_0_L1D_prefetch_MPKI 9.99468
Core_0_L1D_prefetch_miss_rate 0.978054
Core_0_L1D_writeback_access 10115793
Core_0_L1D_writeback_hit 61217
Core_0_L1D_writeback_miss 10054576
Core_0_L1D_writeback_MPKI 201.092
Core_0_L1D_writeback_miss_rate 0.993948
Core_0_L1D_prefetch_requested 522800
Core_0_L1D_prefetch_issued 510941
Core_0_L1D_prefetch_useful 477756
Core_0_L1D_prefetch_useless 12
Core_0_L1D_prefetch_late 50752
Core_0_L1D_prefetch_accuracy 0.935051
Core_0_L1D_prefetch_coverage 0.55838

Core_0_L2C_total_access 4416372
Core_0_L2C_total_hit 1481687
Core_0_L2C_total_miss 2934685
Core_0_L2C_total_MPKI 58.6937
Core_0_L2C_total_miss_rate 0.664501
Core_0_L2C_demand_access 676072
Core_0_L2C_demand_hit 20509
Core_0_L2C_demand_miss 655563
Core_0_L2C_demand_MPKI 13.1113
Core_0_L2C_demand_miss_rate 0.969664
Core_0_L2C_load_access 43835
Core_0_L2C_load_hit 20509
Core_0_L2C_load_miss 23326
Core_0_L2C_load_MPKI 0.46652
Core_0_L2C_load_miss_rate 0.532132
Core_0_L2C_rfo_access 632237
Core_0_L2C_rfo_hit 0
Core_0_L2C_rfo_miss 632237
Core_0_L2C_rfo_MPKI 12.6447
Core_0_L2C_rfo_miss_rate 1
Core_0_L2C_prefetch_access 3108048
Core_0_L2C_prefetch_hit 828926
Core_0_L2C_prefetch_miss 2279122
Core_0_L2C_prefetch_MPKI 45.5824
Core_0_L2C_prefetch_miss_rate 0.733297
Core_0_L2C_writeback_access 632252
Core_0_L2C_writeback_hit 632252
Core_0_L2C_writeback_miss 0
Core_0_L2C_writeback_MPKI 0
Core_0_L2C_writeback_miss_rate 0
Core_0_L2C_prefetch_requested 2682361
Core_0_L2C_prefetch_issued 2630272
Core_0_L2C_prefetch_useful 257872
Core_0_L2C_prefetch_useless 212494
Core_0_L2C_prefetch_late 8334
Core_0_L2C_prefetch_accuracy 0.0980401
Core_0_L2C_prefetch_coverage 0.28231

Core_0_LLC_total_access 1786668
Core_0_LLC_total_hit 221899
Core_0_LLC_total_miss 1564769
Core_0_LLC_total_MPKI 31.2954
Core_0_LLC_total_miss_rate 0.875803
Core_0_LLC_demand_access 647228
Core_0_LLC_demand_hit 0
Core_0_LLC_demand_miss 647228
Core_0_LLC_demand_MPKI 12.9446
Core_0_LLC_demand_miss_rate 1
Core_0_LLC_load_access 14992
Core_0_LLC_load_hit 0
Core_0_LLC_load_miss 14992
Core_0_LLC_load_MPKI 0.29984
Core_0_LLC_load_miss_rate 1
Core_0_LLC_rfo_access 632236
Core_0_LLC_rfo_hit 0
Core_0_LLC_rfo_miss 632236
Core_0_LLC_rfo_MPKI 12.6447
Core_0_LLC_rfo_miss_rate 1
Core_0_LLC_prefetch_access 506610
Core_0_LLC_prefetch_hit 0
Core_0_LLC_prefetch_miss 506610
Core_0_LLC_prefetch_MPKI 10.1322
Core_0_LLC_prefetch_miss_rate 1
Core_0_LLC_writeback_access 632830
Core_0_LLC_writeback_hit 221899
Core_0_LLC_writeback_miss 410931
Core_0_LLC_writeback_MPKI 8.21862
Core_0_LLC_writeback_miss_rate 0.649354
Core_0_LLC_prefetch_requested 0
Core_0_LLC_prefetch_issued 0
Core_0_LLC_prefetch_useful 0
Core_0_LLC_prefetch_useless 0
Core_0_LLC_prefetch_late 0
Core_0_LLC_prefetch_accuracy 0
Core_0_LLC_prefetch_coverage 0

[DRAM Statistics]
Channel_0_RQ_row_buffer_hit 64598
Channel_0_RQ_row_buffer_miss 1091539
Channel_0_WQ_row_buffer_hit 55882
Channel_0_WQ_row_buffer_miss 565453
Channel_0_WQ_full 0
Channel_0_dbus_congested 6061525
DRAM_total_RQ_row_buffer_hit 64598
DRAM_total_RQ_row_buffer_miss 1091539
DRAM_total_WQ_row_buffer_hit 55882
DRAM_total_WQ_row_buffer_miss 565453
DRAM_total_WQ_full 0
DRAM_total_dbus_congested 6061525
DRAM_avg_congested_cycle 6.47582

======STLB miss causes ========
Core_0_STLB_miss_cause_breakdown
Core_0_STLB_cause_Demand_Data_miss 17198
Core_0_STLB_cause_Demand_Data_miss_rate 0.953855
Core_0_STLB_cause_Demand_Instruction_miss 0
Core_0_STLB_cause_Demand_Instruction_miss_rate 0
Core_0_STLB_cause_L1D_Prefetch_miss 832
Core_0_STLB_cause_L1D_Prefetch_miss_rate 0.0461453
Core_0_STLB_cause_L1I_Prefetch_miss 0
Core_0_STLB_cause_L1I_Prefetch_miss_rate 0
Core_0_STLB_cause_Other_miss 0
Core_0_STLB_cause_Other_miss_rate 0
Core_0_STLB_Demand_miss 17198
Core_0_STLB_Demand_miss_rate 0.953855
Core_0_STLB_L1D_Prefetch_miss 832
Core_0_STLB_L1D_Prefetch_miss_rate 0.0461453
Core_0_STLB_Other_miss 0
Core_0_STLB_Other_miss_rate 0
