[VMEM] WARNING: physical memory size is smaller than virtual memory size.

*** ChampSim Multicore Out-of-Order Simulator ***
Warmup Instructions: 20000000
Simulation Instructions: 50000000
Number of CPUs: 1
Page size: 4096
Core 0: /data0/tzh/champsim_traces/Ligra/ligra_BFS.com-lj.ungraph.gcc_6.3.0_O3.drop_21500M.length_250M.champsimtrace.xz
 L1D Berti prefetcher
Off-chip DRAM Size: 16 GiB Channels: 1 Width: 64-bit Data Rate: 3205 MT/s
Warmup halting CPU 0 at instruction 20000001 cycle 4140308 for remainder of phase
Warmup finished CPU 0 instructions: 20000001 cycles: 4140308 cumulative IPC: 4.831 (Simulation time: 00 hr 00 min 44 sec)
Warmup complete CPU 0 instructions: 20000001 cycles: 4140308 cumulative IPC: 4.831 (Simulation time: 00 hr 00 min 44 sec)
Simulation finished CPU 0 instructions: 50000001 cycles: 41270838 cumulative IPC: 1.212 (Simulation time: 00 hr 05 min 28 sec)
Simulation complete CPU 0 instructions: 50000001 cycles: 41270838 cumulative IPC: 1.212 (Simulation time: 00 hr 05 min 28 sec)

ChampSim completed all CPUs

=== Simulation ===
CPU 0 runs /data0/tzh/champsim_traces/Ligra/ligra_BFS.com-lj.ungraph.gcc_6.3.0_O3.drop_21500M.length_250M.champsimtrace.xz

Region of Interest Statistics

CPU 0 cumulative IPC: 1.212 instructions: 50000001 cycles: 41270838
CPU 0 Branch Prediction Accuracy: 97.35% MPKI: 6.593 Average ROB Occupancy at Mispredict: 14.68
Branch type MPKI
BRANCH_DIRECT_JUMP: 0.2467
BRANCH_INDIRECT: 0
BRANCH_CONDITIONAL: 6.346
BRANCH_DIRECT_CALL: 0.00038
BRANCH_INDIRECT_CALL: 0
BRANCH_RETURN: 0.00038

cpu0->cpu0_STLB TOTAL        ACCESS:      59200 HIT:      24251 MISS:      34949 MSHR_MERGE:          0
cpu0->cpu0_STLB LOAD         ACCESS:      59200 HIT:      24251 MISS:      34949 MSHR_MERGE:          0
cpu0->cpu0_STLB RFO          ACCESS:          0 HIT:          0 MISS:          0 MSHR_MERGE:          0
cpu0->cpu0_STLB PREFETCH     ACCESS:          0 HIT:          0 MISS:          0 MSHR_MERGE:          0
cpu0->cpu0_STLB WRITE        ACCESS:          0 HIT:          0 MISS:          0 MSHR_MERGE:          0
cpu0->cpu0_STLB TRANSLATION  ACCESS:          0 HIT:          0 MISS:          0 MSHR_MERGE:          0
cpu0->cpu0_STLB PREFETCH REQUESTED:          0 ISSUED:          0 USEFUL:          0 USELESS:          0 LATE:          0
cpu0->cpu0_STLB AVERAGE MISS LATENCY: 240 cycles
cpu0->cpu0_L2C TOTAL        ACCESS:    2846354 HIT:    1197191 MISS:    1649163 MSHR_MERGE:     741281
cpu0->cpu0_L2C LOAD         ACCESS:     247504 HIT:      38384 MISS:     209120 MSHR_MERGE:      63307
cpu0->cpu0_L2C RFO          ACCESS:     128945 HIT:         76 MISS:     128869 MSHR_MERGE:          0
cpu0->cpu0_L2C PREFETCH     ACCESS:    2304361 HIT:    1000563 MISS:    1303798 MSHR_MERGE:     677974
cpu0->cpu0_L2C WRITE        ACCESS:     150246 HIT:     150244 MISS:          2 MSHR_MERGE:          0
cpu0->cpu0_L2C TRANSLATION  ACCESS:      15298 HIT:       7924 MISS:       7374 MSHR_MERGE:          0
cpu0->cpu0_L2C PREFETCH REQUESTED:    2076692 ISSUED:    2005889 USEFUL:     291106 USELESS:     280437 LATE:      63307
cpu0->cpu0_L2C AVERAGE MISS LATENCY: 364.1 cycles
cpu0->cpu0_L1I TOTAL        ACCESS:    2405581 HIT:    2405498 MISS:         83 MSHR_MERGE:         13
cpu0->cpu0_L1I LOAD         ACCESS:    2405581 HIT:    2405498 MISS:         83 MSHR_MERGE:         13
cpu0->cpu0_L1I RFO          ACCESS:          0 HIT:          0 MISS:          0 MSHR_MERGE:          0
cpu0->cpu0_L1I PREFETCH     ACCESS:          0 HIT:          0 MISS:          0 MSHR_MERGE:          0
cpu0->cpu0_L1I WRITE        ACCESS:          0 HIT:          0 MISS:          0 MSHR_MERGE:          0
cpu0->cpu0_L1I TRANSLATION  ACCESS:          0 HIT:          0 MISS:          0 MSHR_MERGE:          0
cpu0->cpu0_L1I PREFETCH REQUESTED:          0 ISSUED:          0 USEFUL:          0 USELESS:          0 LATE:          0
cpu0->cpu0_L1I AVERAGE MISS LATENCY: 244.8 cycles
cpu0->cpu0_L1D TOTAL        ACCESS:   10755833 HIT:    8717925 MISS:    2037908 MSHR_MERGE:    1347758
cpu0->cpu0_L1D LOAD         ACCESS:    8514834 HIT:    8085798 MISS:     429036 MSHR_MERGE:     181602
cpu0->cpu0_L1D RFO          ACCESS:          0 HIT:          0 MISS:          0 MSHR_MERGE:          0
cpu0->cpu0_L1D PREFETCH     ACCESS:     339010 HIT:      17979 MISS:     321031 MSHR_MERGE:      22558
cpu0->cpu0_L1D WRITE        ACCESS:    1833725 HIT:     563114 MISS:    1270611 MSHR_MERGE:    1141666
cpu0->cpu0_L1D TRANSLATION  ACCESS:      68264 HIT:      51034 MISS:      17230 MSHR_MERGE:       1932
cpu0->cpu0_L1D PREFETCH REQUESTED:     365843 ISSUED:     339003 USEFUL:     219498 USELESS:      78880 LATE:      16289
cpu0->cpu0_L1D AVERAGE MISS LATENCY: 327.5 cycles
cpu0->cpu0_ITLB TOTAL        ACCESS:    2401516 HIT:    2401506 MISS:         10 MSHR_MERGE:          6
cpu0->cpu0_ITLB LOAD         ACCESS:    2401516 HIT:    2401506 MISS:         10 MSHR_MERGE:          6
cpu0->cpu0_ITLB RFO          ACCESS:          0 HIT:          0 MISS:          0 MSHR_MERGE:          0
cpu0->cpu0_ITLB PREFETCH     ACCESS:          0 HIT:          0 MISS:          0 MSHR_MERGE:          0
cpu0->cpu0_ITLB WRITE        ACCESS:          0 HIT:          0 MISS:          0 MSHR_MERGE:          0
cpu0->cpu0_ITLB TRANSLATION  ACCESS:          0 HIT:          0 MISS:          0 MSHR_MERGE:          0
cpu0->cpu0_ITLB PREFETCH REQUESTED:          0 ISSUED:          0 USEFUL:          0 USELESS:          0 LATE:          0
cpu0->cpu0_ITLB AVERAGE MISS LATENCY: 422.5 cycles
cpu0->cpu0_DTLB TOTAL        ACCESS:   10365890 HIT:   10184728 MISS:     181162 MSHR_MERGE:     121966
cpu0->cpu0_DTLB LOAD         ACCESS:   10365890 HIT:   10184728 MISS:     181162 MSHR_MERGE:     121966
cpu0->cpu0_DTLB RFO          ACCESS:          0 HIT:          0 MISS:          0 MSHR_MERGE:          0
cpu0->cpu0_DTLB PREFETCH     ACCESS:          0 HIT:          0 MISS:          0 MSHR_MERGE:          0
cpu0->cpu0_DTLB WRITE        ACCESS:          0 HIT:          0 MISS:          0 MSHR_MERGE:          0
cpu0->cpu0_DTLB TRANSLATION  ACCESS:          0 HIT:          0 MISS:          0 MSHR_MERGE:          0
cpu0->cpu0_DTLB PREFETCH REQUESTED:          0 ISSUED:          0 USEFUL:          0 USELESS:          0 LATE:          0
cpu0->cpu0_DTLB AVERAGE MISS LATENCY: 147.2 cycles
cpu0->LLC TOTAL        ACCESS:    1057484 HIT:     128356 MISS:     929128 MSHR_MERGE:          0
cpu0->LLC LOAD         ACCESS:     145813 HIT:       5906 MISS:     139907 MSHR_MERGE:          0
cpu0->LLC RFO          ACCESS:     128869 HIT:         39 MISS:     128830 MSHR_MERGE:          0
cpu0->LLC PREFETCH     ACCESS:     625824 HIT:      74974 MISS:     550850 MSHR_MERGE:          0
cpu0->LLC WRITE        ACCESS:     149604 HIT:      45117 MISS:     104487 MSHR_MERGE:          0
cpu0->LLC TRANSLATION  ACCESS:       7374 HIT:       2320 MISS:       5054 MSHR_MERGE:          0
cpu0->LLC PREFETCH REQUESTED:          0 ISSUED:          0 USEFUL:          0 USELESS:          0 LATE:          0
cpu0->LLC AVERAGE MISS LATENCY: 270.4 cycles

DRAM Statistics

Channel 0 RQ ROW_BUFFER_HIT:      99218
  ROW_BUFFER_MISS:     725417
  AVG DBUS CONGESTED CYCLE: 5.748
Channel 0 WQ ROW_BUFFER_HIT:      13096
  ROW_BUFFER_MISS:     127263
  FULL:          0
Channel 0 REFRESHES ISSUED:       3439

[ROI Statistics]
[System Configuration]
num_cpus 1
cpu_freq 4000
fetch_width 6
decode_width 6
dispatch_width 6
execute_width 6
lq_width 2
sq_width 2
retire_width 6
scheduler_size 128
branch_mispredict_penalty 15
rob_size 352
lq_size 128
sq_size 72
ifetch_buffer_size 64
decode_buffer_size 32
dispatch_buffer_size 32
register_file_size 288
decode_latency 1
dispatch_latency 1
schedule_latency 1
execute_latency 1
page_size 4096
block_size 64
core_0_itlb_set 16
core_0_itlb_way 4
core_0_itlb_rq_size 16
core_0_itlb_wq_size 16
core_0_itlb_pq_size 0
core_0_itlb_mshr_size 8
core_0_itlb_hit_latency 1
core_0_itlb_fill_latency 1
core_0_itlb_max_tag_check 2
core_0_itlb_max_fill 2
core_0_dtlb_set 16
core_0_dtlb_way 4
core_0_dtlb_rq_size 16
core_0_dtlb_wq_size 16
core_0_dtlb_pq_size 0
core_0_dtlb_mshr_size 8
core_0_dtlb_hit_latency 1
core_0_dtlb_fill_latency 1
core_0_dtlb_max_tag_check 2
core_0_dtlb_max_fill 2
core_0_stlb_set 128
core_0_stlb_way 12
core_0_stlb_rq_size 32
core_0_stlb_wq_size 32
core_0_stlb_pq_size 0
core_0_stlb_mshr_size 16
core_0_stlb_hit_latency 4
core_0_stlb_fill_latency 4
core_0_stlb_max_tag_check 1
core_0_stlb_max_fill 1
core_0_l1i_set 64
core_0_l1i_way 8
core_0_l1i_rq_size 64
core_0_l1i_wq_size 64
core_0_l1i_pq_size 32
core_0_l1i_mshr_size 8
core_0_l1i_hit_latency 2
core_0_l1i_fill_latency 2
core_0_l1i_max_tag_check 2
core_0_l1i_max_fill 2
core_0_l1d_set 64
core_0_l1d_way 12
core_0_l1d_rq_size 64
core_0_l1d_wq_size 64
core_0_l1d_pq_size 8
core_0_l1d_mshr_size 16
core_0_l1d_hit_latency 2
core_0_l1d_fill_latency 3
core_0_l1d_max_tag_check 2
core_0_l1d_max_fill 2
core_0_l2c_set 1024
core_0_l2c_way 8
core_0_l2c_rq_size 32
core_0_l2c_wq_size 32
core_0_l2c_pq_size 16
core_0_l2c_mshr_size 32
core_0_l2c_hit_latency 5
core_0_l2c_fill_latency 5
core_0_l2c_max_tag_check 1
core_0_l2c_max_fill 1
llc_set 2048
llc_way 16
llc_rq_size 32
llc_wq_size 32
llc_pq_size 32
llc_mshr_size 64
llc_hit_latency 10
llc_fill_latency 10
llc_max_tag_check 1
llc_max_fill 1
dram_channels 1
dram_ranks 1
dram_bankgroups 8
dram_banks 4
dram_rows 65536
dram_columns 1024
dram_channel_width 8
dram_rq_size 64
dram_wq_size 64
dram_size 17179869184
core_0_itlb_prefetcher no
core_0_dtlb_prefetcher no
core_0_stlb_prefetcher no
core_0_l1i_prefetcher next_line
core_0_l1d_prefetcher berti
core_0_l2c_prefetcher pythia
llc_prefetcher no
llc_replacement drrip

Core_0_instructions 50000001
Core_0_cycles 41270838
Core_0_IPC 1.21151
Core_0_branch_prediction_accuracy 97.3524
Core_0_branch_MPKI 6.59346
Core_0_average_ROB_occupancy_at_mispredict 14.6783

Core_0_ITLB_total_access 2401516
Core_0_ITLB_total_hit 2401506
Core_0_ITLB_total_miss 10
Core_0_ITLB_total_MPKI 0.0002
Core_0_ITLB_total_miss_rate 4.16404e-06
Core_0_ITLB_demand_access 2401516
Core_0_ITLB_demand_hit 2401506
Core_0_ITLB_demand_miss 10
Core_0_ITLB_demand_MPKI 0.0002
Core_0_ITLB_demand_miss_rate 4.16404e-06
Core_0_ITLB_load_access 2401516
Core_0_ITLB_load_hit 2401506
Core_0_ITLB_load_miss 10
Core_0_ITLB_load_MPKI 0.0002
Core_0_ITLB_load_miss_rate 4.16404e-06
Core_0_ITLB_rfo_access 0
Core_0_ITLB_rfo_hit 0
Core_0_ITLB_rfo_miss 0
Core_0_ITLB_rfo_MPKI 0
Core_0_ITLB_rfo_miss_rate 0
Core_0_ITLB_prefetch_access 0
Core_0_ITLB_prefetch_hit 0
Core_0_ITLB_prefetch_miss 0
Core_0_ITLB_prefetch_MPKI 0
Core_0_ITLB_prefetch_miss_rate 0
Core_0_ITLB_writeback_access 0
Core_0_ITLB_writeback_hit 0
Core_0_ITLB_writeback_miss 0
Core_0_ITLB_writeback_MPKI 0
Core_0_ITLB_writeback_miss_rate 0
Core_0_ITLB_prefetch_requested 0
Core_0_ITLB_prefetch_issued 0
Core_0_ITLB_prefetch_useful 0
Core_0_ITLB_prefetch_useless 0
Core_0_ITLB_prefetch_late 0
Core_0_ITLB_prefetch_accuracy 0
Core_0_ITLB_prefetch_coverage 0

Core_0_DTLB_total_access 10365890
Core_0_DTLB_total_hit 10184728
Core_0_DTLB_total_miss 181162
Core_0_DTLB_total_MPKI 3.62324
Core_0_DTLB_total_miss_rate 0.0174767
Core_0_DTLB_demand_access 10365890
Core_0_DTLB_demand_hit 10184728
Core_0_DTLB_demand_miss 181162
Core_0_DTLB_demand_MPKI 3.62324
Core_0_DTLB_demand_miss_rate 0.0174767
Core_0_DTLB_load_access 10365890
Core_0_DTLB_load_hit 10184728
Core_0_DTLB_load_miss 181162
Core_0_DTLB_load_MPKI 3.62324
Core_0_DTLB_load_miss_rate 0.0174767
Core_0_DTLB_rfo_access 0
Core_0_DTLB_rfo_hit 0
Core_0_DTLB_rfo_miss 0
Core_0_DTLB_rfo_MPKI 0
Core_0_DTLB_rfo_miss_rate 0
Core_0_DTLB_prefetch_access 0
Core_0_DTLB_prefetch_hit 0
Core_0_DTLB_prefetch_miss 0
Core_0_DTLB_prefetch_MPKI 0
Core_0_DTLB_prefetch_miss_rate 0
Core_0_DTLB_writeback_access 0
Core_0_DTLB_writeback_hit 0
Core_0_DTLB_writeback_miss 0
Core_0_DTLB_writeback_MPKI 0
Core_0_DTLB_writeback_miss_rate 0
Core_0_DTLB_prefetch_requested 0
Core_0_DTLB_prefetch_issued 0
Core_0_DTLB_prefetch_useful 0
Core_0_DTLB_prefetch_useless 0
Core_0_DTLB_prefetch_late 0
Core_0_DTLB_prefetch_accuracy 0
Core_0_DTLB_prefetch_coverage 0

Core_0_STLB_total_access 59200
Core_0_STLB_total_hit 24251
Core_0_STLB_total_miss 34949
Core_0_STLB_total_MPKI 0.69898
Core_0_STLB_total_miss_rate 0.590355
Core_0_STLB_demand_access 59200
Core_0_STLB_demand_hit 24251
Core_0_STLB_demand_miss 34949
Core_0_STLB_demand_MPKI 0.69898
Core_0_STLB_demand_miss_rate 0.590355
Core_0_STLB_load_access 59200
Core_0_STLB_load_hit 24251
Core_0_STLB_load_miss 34949
Core_0_STLB_load_MPKI 0.69898
Core_0_STLB_load_miss_rate 0.590355
Core_0_STLB_rfo_access 0
Core_0_STLB_rfo_hit 0
Core_0_STLB_rfo_miss 0
Core_0_STLB_rfo_MPKI 0
Core_0_STLB_rfo_miss_rate 0
Core_0_STLB_prefetch_access 0
Core_0_STLB_prefetch_hit 0
Core_0_STLB_prefetch_miss 0
Core_0_STLB_prefetch_MPKI 0
Core_0_STLB_prefetch_miss_rate 0
Core_0_STLB_writeback_access 0
Core_0_STLB_writeback_hit 0
Core_0_STLB_writeback_miss 0
Core_0_STLB_writeback_MPKI 0
Core_0_STLB_writeback_miss_rate 0
Core_0_STLB_prefetch_requested 0
Core_0_STLB_prefetch_issued 0
Core_0_STLB_prefetch_useful 0
Core_0_STLB_prefetch_useless 0
Core_0_STLB_prefetch_late 0
Core_0_STLB_prefetch_accuracy 0
Core_0_STLB_prefetch_coverage 0

Core_0_L1I_total_access 2405581
Core_0_L1I_total_hit 2405498
Core_0_L1I_total_miss 83
Core_0_L1I_total_MPKI 0.00166
Core_0_L1I_total_miss_rate 3.45031e-05
Core_0_L1I_demand_access 2405581
Core_0_L1I_demand_hit 2405498
Core_0_L1I_demand_miss 83
Core_0_L1I_demand_MPKI 0.00166
Core_0_L1I_demand_miss_rate 3.45031e-05
Core_0_L1I_load_access 2405581
Core_0_L1I_load_hit 2405498
Core_0_L1I_load_miss 83
Core_0_L1I_load_MPKI 0.00166
Core_0_L1I_load_miss_rate 3.45031e-05
Core_0_L1I_rfo_access 0
Core_0_L1I_rfo_hit 0
Core_0_L1I_rfo_miss 0
Core_0_L1I_rfo_MPKI 0
Core_0_L1I_rfo_miss_rate 0
Core_0_L1I_prefetch_access 0
Core_0_L1I_prefetch_hit 0
Core_0_L1I_prefetch_miss 0
Core_0_L1I_prefetch_MPKI 0
Core_0_L1I_prefetch_miss_rate 0
Core_0_L1I_writeback_access 0
Core_0_L1I_writeback_hit 0
Core_0_L1I_writeback_miss 0
Core_0_L1I_writeback_MPKI 0
Core_0_L1I_writeback_miss_rate 0
Core_0_L1I_prefetch_requested 0
Core_0_L1I_prefetch_issued 0
Core_0_L1I_prefetch_useful 0
Core_0_L1I_prefetch_useless 0
Core_0_L1I_prefetch_late 0
Core_0_L1I_prefetch_accuracy 0
Core_0_L1I_prefetch_coverage 0

Core_0_L1D_total_access 10687569
Core_0_L1D_total_hit 8666891
Core_0_L1D_total_miss 2020678
Core_0_L1D_total_MPKI 40.4136
Core_0_L1D_total_miss_rate 0.189068
Core_0_L1D_demand_access 8514834
Core_0_L1D_demand_hit 8085798
Core_0_L1D_demand_miss 429036
Core_0_L1D_demand_MPKI 8.58072
Core_0_L1D_demand_miss_rate 0.0503869
Core_0_L1D_load_access 8514834
Core_0_L1D_load_hit 8085798
Core_0_L1D_load_miss 429036
Core_0_L1D_load_MPKI 8.58072
Core_0_L1D_load_miss_rate 0.0503869
Core_0_L1D_rfo_access 0
Core_0_L1D_rfo_hit 0
Core_0_L1D_rfo_miss 0
Core_0_L1D_rfo_MPKI 0
Core_0_L1D_rfo_miss_rate 0
Core_0_L1D_prefetch_access 339010
Core_0_L1D_prefetch_hit 17979
Core_0_L1D_prefetch_miss 321031
Core_0_L1D_prefetch_MPKI 6.42062
Core_0_L1D_prefetch_miss_rate 0.946966
Core_0_L1D_writeback_access 1833725
Core_0_L1D_writeback_hit 563114
Core_0_L1D_writeback_miss 1270611
Core_0_L1D_writeback_MPKI 25.4122
Core_0_L1D_writeback_miss_rate 0.692913
Core_0_L1D_prefetch_requested 365843
Core_0_L1D_prefetch_issued 339003
Core_0_L1D_prefetch_useful 219498
Core_0_L1D_prefetch_useless 78880
Core_0_L1D_prefetch_late 16289
Core_0_L1D_prefetch_accuracy 0.647481
Core_0_L1D_prefetch_coverage 0.338453

Core_0_L2C_total_access 2831056
Core_0_L2C_total_hit 1189267
Core_0_L2C_total_miss 1641789
Core_0_L2C_total_MPKI 32.8358
Core_0_L2C_total_miss_rate 0.579921
Core_0_L2C_demand_access 376449
Core_0_L2C_demand_hit 38460
Core_0_L2C_demand_miss 337989
Core_0_L2C_demand_MPKI 6.75978
Core_0_L2C_demand_miss_rate 0.897835
Core_0_L2C_load_access 247504
Core_0_L2C_load_hit 38384
Core_0_L2C_load_miss 209120
Core_0_L2C_load_MPKI 4.1824
Core_0_L2C_load_miss_rate 0.844916
Core_0_L2C_rfo_access 128945
Core_0_L2C_rfo_hit 76
Core_0_L2C_rfo_miss 128869
Core_0_L2C_rfo_MPKI 2.57738
Core_0_L2C_rfo_miss_rate 0.999411
Core_0_L2C_prefetch_access 2304361
Core_0_L2C_prefetch_hit 1000563
Core_0_L2C_prefetch_miss 1303798
Core_0_L2C_prefetch_MPKI 26.076
Core_0_L2C_prefetch_miss_rate 0.565796
Core_0_L2C_writeback_access 150246
Core_0_L2C_writeback_hit 150244
Core_0_L2C_writeback_miss 2
Core_0_L2C_writeback_MPKI 4e-05
Core_0_L2C_writeback_miss_rate 1.33115e-05
Core_0_L2C_prefetch_requested 2076692
Core_0_L2C_prefetch_issued 2005889
Core_0_L2C_prefetch_useful 291106
Core_0_L2C_prefetch_useless 280437
Core_0_L2C_prefetch_late 63307
Core_0_L2C_prefetch_accuracy 0.145126
Core_0_L2C_prefetch_coverage 0.462738

Core_0_LLC_total_access 1050110
Core_0_LLC_total_hit 126036
Core_0_LLC_total_miss 924074
Core_0_LLC_total_MPKI 18.4815
Core_0_LLC_total_miss_rate 0.879978
Core_0_LLC_demand_access 274682
Core_0_LLC_demand_hit 5945
Core_0_LLC_demand_miss 268737
Core_0_LLC_demand_MPKI 5.37474
Core_0_LLC_demand_miss_rate 0.978357
Core_0_LLC_load_access 145813
Core_0_LLC_load_hit 5906
Core_0_LLC_load_miss 139907
Core_0_LLC_load_MPKI 2.79814
Core_0_LLC_load_miss_rate 0.959496
Core_0_LLC_rfo_access 128869
Core_0_LLC_rfo_hit 39
Core_0_LLC_rfo_miss 128830
Core_0_LLC_rfo_MPKI 2.5766
Core_0_LLC_rfo_miss_rate 0.999697
Core_0_LLC_prefetch_access 625824
Core_0_LLC_prefetch_hit 74974
Core_0_LLC_prefetch_miss 550850
Core_0_LLC_prefetch_MPKI 11.017
Core_0_LLC_prefetch_miss_rate 0.8802
Core_0_LLC_writeback_access 149604
Core_0_LLC_writeback_hit 45117
Core_0_LLC_writeback_miss 104487
Core_0_LLC_writeback_MPKI 2.08974
Core_0_LLC_writeback_miss_rate 0.698424
Core_0_LLC_prefetch_requested 0
Core_0_LLC_prefetch_issued 0
Core_0_LLC_prefetch_useful 0
Core_0_LLC_prefetch_useless 0
Core_0_LLC_prefetch_late 0
Core_0_LLC_prefetch_accuracy 0
Core_0_LLC_prefetch_coverage 0

[DRAM Statistics]
Channel_0_RQ_row_buffer_hit 99218
Channel_0_RQ_row_buffer_miss 725417
Channel_0_WQ_row_buffer_hit 13096
Channel_0_WQ_row_buffer_miss 127263
Channel_0_WQ_full 0
Channel_0_dbus_congested 2555536
DRAM_total_RQ_row_buffer_hit 99218
DRAM_total_RQ_row_buffer_miss 725417
DRAM_total_WQ_row_buffer_hit 13096
DRAM_total_WQ_row_buffer_miss 127263
DRAM_total_WQ_full 0
DRAM_total_dbus_congested 2555536
DRAM_avg_congested_cycle 5.74793

======STLB miss causes ========
Core_0_STLB_miss_cause_breakdown
Core_0_STLB_cause_Demand_Data_miss 31915
Core_0_STLB_cause_Demand_Data_miss_rate 0.539105
Core_0_STLB_cause_Demand_Instruction_miss 4
Core_0_STLB_cause_Demand_Instruction_miss_rate 6.75676e-05
Core_0_STLB_cause_L1D_Prefetch_miss 3030
Core_0_STLB_cause_L1D_Prefetch_miss_rate 0.0511824
Core_0_STLB_cause_L1I_Prefetch_miss 0
Core_0_STLB_cause_L1I_Prefetch_miss_rate 0
Core_0_STLB_cause_Other_miss 0
Core_0_STLB_cause_Other_miss_rate 0
Core_0_STLB_Demand_miss 31919
Core_0_STLB_Demand_miss_rate 0.539172
Core_0_STLB_L1D_Prefetch_miss 3030
Core_0_STLB_L1D_Prefetch_miss_rate 0.0511824
Core_0_STLB_Other_miss 0
Core_0_STLB_Other_miss_rate 0
