[VMEM] WARNING: physical memory size is smaller than virtual memory size.

*** ChampSim Multicore Out-of-Order Simulator ***
Warmup Instructions: 20000000
Simulation Instructions: 50000000
Number of CPUs: 1
Page size: 4096
Core 0: /data0/tzh/champsim_traces/Ligra/ligra_MIS.com-lj.ungraph.gcc_6.3.0_O3.drop_750M.length_250M.champsimtrace.xz
 L1D Berti prefetcher
Off-chip DRAM Size: 16 GiB Channels: 1 Width: 64-bit Data Rate: 3205 MT/s
Warmup halting CPU 0 at instruction 20000001 cycle 6032594 for remainder of phase
Warmup finished CPU 0 instructions: 20000001 cycles: 6032594 cumulative IPC: 3.315 (Simulation time: 00 hr 00 min 46 sec)
Warmup complete CPU 0 instructions: 20000001 cycles: 6032594 cumulative IPC: 3.315 (Simulation time: 00 hr 00 min 46 sec)
Simulation finished CPU 0 instructions: 50000001 cycles: 17648785 cumulative IPC: 2.833 (Simulation time: 00 hr 03 min 17 sec)
Simulation complete CPU 0 instructions: 50000001 cycles: 17648785 cumulative IPC: 2.833 (Simulation time: 00 hr 03 min 17 sec)

ChampSim completed all CPUs

=== Simulation ===
CPU 0 runs /data0/tzh/champsim_traces/Ligra/ligra_MIS.com-lj.ungraph.gcc_6.3.0_O3.drop_750M.length_250M.champsimtrace.xz

Region of Interest Statistics

CPU 0 cumulative IPC: 2.833 instructions: 50000001 cycles: 17648785
CPU 0 Branch Prediction Accuracy: 99.75% MPKI: 0.8116 Average ROB Occupancy at Mispredict: 97.23
Branch type MPKI
BRANCH_DIRECT_JUMP: 0
BRANCH_INDIRECT: 0
BRANCH_CONDITIONAL: 0.8116
BRANCH_DIRECT_CALL: 0
BRANCH_INDIRECT_CALL: 0
BRANCH_RETURN: 0

cpu0->cpu0_STLB TOTAL        ACCESS:       1827 HIT:          0 MISS:       1827 MSHR_MERGE:          0
cpu0->cpu0_STLB LOAD         ACCESS:       1827 HIT:          0 MISS:       1827 MSHR_MERGE:          0
cpu0->cpu0_STLB RFO          ACCESS:          0 HIT:          0 MISS:          0 MSHR_MERGE:          0
cpu0->cpu0_STLB PREFETCH     ACCESS:          0 HIT:          0 MISS:          0 MSHR_MERGE:          0
cpu0->cpu0_STLB WRITE        ACCESS:          0 HIT:          0 MISS:          0 MSHR_MERGE:          0
cpu0->cpu0_STLB TRANSLATION  ACCESS:          0 HIT:          0 MISS:          0 MSHR_MERGE:          0
cpu0->cpu0_STLB PREFETCH REQUESTED:          0 ISSUED:          0 USEFUL:          0 USELESS:          0 LATE:          0
cpu0->cpu0_STLB AVERAGE MISS LATENCY: 240.2 cycles
cpu0->cpu0_L2C TOTAL        ACCESS:     834969 HIT:     607335 MISS:     227634 MSHR_MERGE:     110510
cpu0->cpu0_L2C LOAD         ACCESS:       1856 HIT:         29 MISS:       1827 MSHR_MERGE:          0
cpu0->cpu0_L2C RFO          ACCESS:          0 HIT:          0 MISS:          0 MSHR_MERGE:          0
cpu0->cpu0_L2C PREFETCH     ACCESS:     715985 HIT:     490411 MISS:     225574 MSHR_MERGE:     110510
cpu0->cpu0_L2C WRITE        ACCESS:     116895 HIT:     116895 MISS:          0 MSHR_MERGE:          0
cpu0->cpu0_L2C TRANSLATION  ACCESS:        233 HIT:          0 MISS:        233 MSHR_MERGE:          0
cpu0->cpu0_L2C PREFETCH REQUESTED:     600946 ISSUED:     600946 USEFUL:     114983 USELESS:          0 LATE:          0
cpu0->cpu0_L2C AVERAGE MISS LATENCY: 220.2 cycles
cpu0->cpu0_L1I TOTAL        ACCESS:     431527 HIT:     431527 MISS:          0 MSHR_MERGE:          0
cpu0->cpu0_L1I LOAD         ACCESS:     431527 HIT:     431527 MISS:          0 MSHR_MERGE:          0
cpu0->cpu0_L1I RFO          ACCESS:          0 HIT:          0 MISS:          0 MSHR_MERGE:          0
cpu0->cpu0_L1I PREFETCH     ACCESS:          0 HIT:          0 MISS:          0 MSHR_MERGE:          0
cpu0->cpu0_L1I WRITE        ACCESS:          0 HIT:          0 MISS:          0 MSHR_MERGE:          0
cpu0->cpu0_L1I TRANSLATION  ACCESS:          0 HIT:          0 MISS:          0 MSHR_MERGE:          0
cpu0->cpu0_L1I PREFETCH REQUESTED:          0 ISSUED:          0 USEFUL:          0 USELESS:          0 LATE:          0
cpu0->cpu0_L1I AVERAGE MISS LATENCY: - cycles
cpu0->cpu0_L1D TOTAL        ACCESS:    8588823 HIT:    8433588 MISS:     155235 MSHR_MERGE:      38107
cpu0->cpu0_L1D LOAD         ACCESS:    7447629 HIT:    7407666 MISS:      39963 MSHR_MERGE:      38107
cpu0->cpu0_L1D RFO          ACCESS:          0 HIT:          0 MISS:          0 MSHR_MERGE:          0
cpu0->cpu0_L1D PREFETCH     ACCESS:     115068 HIT:         29 MISS:     115039 MSHR_MERGE:          0
cpu0->cpu0_L1D WRITE        ACCESS:    1022468 HIT:    1022468 MISS:          0 MSHR_MERGE:          0
cpu0->cpu0_L1D TRANSLATION  ACCESS:       3658 HIT:       3425 MISS:        233 MSHR_MERGE:          0
cpu0->cpu0_L1D PREFETCH REQUESTED:     115068 ISSUED:     115068 USEFUL:     115039 USELESS:          0 LATE:        844
cpu0->cpu0_L1D AVERAGE MISS LATENCY: 172.1 cycles
cpu0->cpu0_ITLB TOTAL        ACCESS:     431527 HIT:     431527 MISS:          0 MSHR_MERGE:          0
cpu0->cpu0_ITLB LOAD         ACCESS:     431527 HIT:     431527 MISS:          0 MSHR_MERGE:          0
cpu0->cpu0_ITLB RFO          ACCESS:          0 HIT:          0 MISS:          0 MSHR_MERGE:          0
cpu0->cpu0_ITLB PREFETCH     ACCESS:          0 HIT:          0 MISS:          0 MSHR_MERGE:          0
cpu0->cpu0_ITLB WRITE        ACCESS:          0 HIT:          0 MISS:          0 MSHR_MERGE:          0
cpu0->cpu0_ITLB TRANSLATION  ACCESS:          0 HIT:          0 MISS:          0 MSHR_MERGE:          0
cpu0->cpu0_ITLB PREFETCH REQUESTED:          0 ISSUED:          0 USEFUL:          0 USELESS:          0 LATE:          0
cpu0->cpu0_ITLB AVERAGE MISS LATENCY: - cycles
cpu0->cpu0_DTLB TOTAL        ACCESS:    8144172 HIT:    8113151 MISS:      31021 MSHR_MERGE:      29194
cpu0->cpu0_DTLB LOAD         ACCESS:    8144172 HIT:    8113151 MISS:      31021 MSHR_MERGE:      29194
cpu0->cpu0_DTLB RFO          ACCESS:          0 HIT:          0 MISS:          0 MSHR_MERGE:          0
cpu0->cpu0_DTLB PREFETCH     ACCESS:          0 HIT:          0 MISS:          0 MSHR_MERGE:          0
cpu0->cpu0_DTLB WRITE        ACCESS:          0 HIT:          0 MISS:          0 MSHR_MERGE:          0
cpu0->cpu0_DTLB TRANSLATION  ACCESS:          0 HIT:          0 MISS:          0 MSHR_MERGE:          0
cpu0->cpu0_DTLB PREFETCH REQUESTED:          0 ISSUED:          0 USEFUL:          0 USELESS:          0 LATE:          0
cpu0->cpu0_DTLB AVERAGE MISS LATENCY: 246.2 cycles
cpu0->LLC TOTAL        ACCESS:     234013 HIT:      18182 MISS:     215831 MSHR_MERGE:          0
cpu0->LLC LOAD         ACCESS:       1827 HIT:          0 MISS:       1827 MSHR_MERGE:          0
cpu0->LLC RFO          ACCESS:          0 HIT:          0 MISS:          0 MSHR_MERGE:          0
cpu0->LLC PREFETCH     ACCESS:     115064 HIT:          0 MISS:     115064 MSHR_MERGE:          0
cpu0->LLC WRITE        ACCESS:     116889 HIT:      18178 MISS:      98711 MSHR_MERGE:          0
cpu0->LLC TRANSLATION  ACCESS:        233 HIT:          4 MISS:        229 MSHR_MERGE:          0
cpu0->LLC PREFETCH REQUESTED:          0 ISSUED:          0 USEFUL:          0 USELESS:          0 LATE:          0
cpu0->LLC AVERAGE MISS LATENCY: 12.99 cycles

DRAM Statistics

Channel 0 RQ ROW_BUFFER_HIT:       9089
  ROW_BUFFER_MISS:     108029
  AVG DBUS CONGESTED CYCLE: 11.36
Channel 0 WQ ROW_BUFFER_HIT:      28314
  ROW_BUFFER_MISS:      87809
  FULL:          0
Channel 0 REFRESHES ISSUED:       1471

[ROI Statistics]
[System Configuration]
num_cpus 1
cpu_freq 4000
fetch_width 6
decode_width 6
dispatch_width 6
execute_width 6
lq_width 2
sq_width 2
retire_width 6
scheduler_size 128
branch_mispredict_penalty 15
rob_size 352
lq_size 128
sq_size 72
ifetch_buffer_size 64
decode_buffer_size 32
dispatch_buffer_size 32
register_file_size 288
decode_latency 1
dispatch_latency 1
schedule_latency 1
execute_latency 1
page_size 4096
block_size 64
core_0_itlb_set 16
core_0_itlb_way 4
core_0_itlb_rq_size 16
core_0_itlb_wq_size 16
core_0_itlb_pq_size 0
core_0_itlb_mshr_size 8
core_0_itlb_hit_latency 1
core_0_itlb_fill_latency 1
core_0_itlb_max_tag_check 2
core_0_itlb_max_fill 2
core_0_dtlb_set 16
core_0_dtlb_way 4
core_0_dtlb_rq_size 16
core_0_dtlb_wq_size 16
core_0_dtlb_pq_size 0
core_0_dtlb_mshr_size 8
core_0_dtlb_hit_latency 1
core_0_dtlb_fill_latency 1
core_0_dtlb_max_tag_check 2
core_0_dtlb_max_fill 2
core_0_stlb_set 128
core_0_stlb_way 12
core_0_stlb_rq_size 32
core_0_stlb_wq_size 32
core_0_stlb_pq_size 0
core_0_stlb_mshr_size 16
core_0_stlb_hit_latency 4
core_0_stlb_fill_latency 4
core_0_stlb_max_tag_check 1
core_0_stlb_max_fill 1
core_0_l1i_set 64
core_0_l1i_way 8
core_0_l1i_rq_size 64
core_0_l1i_wq_size 64
core_0_l1i_pq_size 32
core_0_l1i_mshr_size 8
core_0_l1i_hit_latency 2
core_0_l1i_fill_latency 2
core_0_l1i_max_tag_check 2
core_0_l1i_max_fill 2
core_0_l1d_set 64
core_0_l1d_way 12
core_0_l1d_rq_size 64
core_0_l1d_wq_size 64
core_0_l1d_pq_size 8
core_0_l1d_mshr_size 16
core_0_l1d_hit_latency 2
core_0_l1d_fill_latency 3
core_0_l1d_max_tag_check 2
core_0_l1d_max_fill 2
core_0_l2c_set 1024
core_0_l2c_way 8
core_0_l2c_rq_size 32
core_0_l2c_wq_size 32
core_0_l2c_pq_size 16
core_0_l2c_mshr_size 32
core_0_l2c_hit_latency 5
core_0_l2c_fill_latency 5
core_0_l2c_max_tag_check 1
core_0_l2c_max_fill 1
llc_set 2048
llc_way 16
llc_rq_size 32
llc_wq_size 32
llc_pq_size 32
llc_mshr_size 64
llc_hit_latency 10
llc_fill_latency 10
llc_max_tag_check 1
llc_max_fill 1
dram_channels 1
dram_ranks 1
dram_bankgroups 8
dram_banks 4
dram_rows 65536
dram_columns 1024
dram_channel_width 8
dram_rq_size 64
dram_wq_size 64
dram_size 17179869184
core_0_itlb_prefetcher no
core_0_dtlb_prefetcher no
core_0_stlb_prefetcher no
core_0_l1i_prefetcher next_line
core_0_l1d_prefetcher berti
core_0_l2c_prefetcher pythia
llc_prefetcher no
llc_replacement drrip

Core_0_instructions 50000001
Core_0_cycles 17648785
Core_0_IPC 2.83306
Core_0_branch_prediction_accuracy 99.7461
Core_0_branch_MPKI 0.81158
Core_0_average_ROB_occupancy_at_mispredict 97.2347

Core_0_ITLB_total_access 431527
Core_0_ITLB_total_hit 431527
Core_0_ITLB_total_miss 0
Core_0_ITLB_total_MPKI 0
Core_0_ITLB_total_miss_rate 0
Core_0_ITLB_demand_access 431527
Core_0_ITLB_demand_hit 431527
Core_0_ITLB_demand_miss 0
Core_0_ITLB_demand_MPKI 0
Core_0_ITLB_demand_miss_rate 0
Core_0_ITLB_load_access 431527
Core_0_ITLB_load_hit 431527
Core_0_ITLB_load_miss 0
Core_0_ITLB_load_MPKI 0
Core_0_ITLB_load_miss_rate 0
Core_0_ITLB_rfo_access 0
Core_0_ITLB_rfo_hit 0
Core_0_ITLB_rfo_miss 0
Core_0_ITLB_rfo_MPKI 0
Core_0_ITLB_rfo_miss_rate 0
Core_0_ITLB_prefetch_access 0
Core_0_ITLB_prefetch_hit 0
Core_0_ITLB_prefetch_miss 0
Core_0_ITLB_prefetch_MPKI 0
Core_0_ITLB_prefetch_miss_rate 0
Core_0_ITLB_writeback_access 0
Core_0_ITLB_writeback_hit 0
Core_0_ITLB_writeback_miss 0
Core_0_ITLB_writeback_MPKI 0
Core_0_ITLB_writeback_miss_rate 0
Core_0_ITLB_prefetch_requested 0
Core_0_ITLB_prefetch_issued 0
Core_0_ITLB_prefetch_useful 0
Core_0_ITLB_prefetch_useless 0
Core_0_ITLB_prefetch_late 0
Core_0_ITLB_prefetch_accuracy 0
Core_0_ITLB_prefetch_coverage 0

Core_0_DTLB_total_access 8144172
Core_0_DTLB_total_hit 8113151
Core_0_DTLB_total_miss 31021
Core_0_DTLB_total_MPKI 0.62042
Core_0_DTLB_total_miss_rate 0.00380898
Core_0_DTLB_demand_access 8144172
Core_0_DTLB_demand_hit 8113151
Core_0_DTLB_demand_miss 31021
Core_0_DTLB_demand_MPKI 0.62042
Core_0_DTLB_demand_miss_rate 0.00380898
Core_0_DTLB_load_access 8144172
Core_0_DTLB_load_hit 8113151
Core_0_DTLB_load_miss 31021
Core_0_DTLB_load_MPKI 0.62042
Core_0_DTLB_load_miss_rate 0.00380898
Core_0_DTLB_rfo_access 0
Core_0_DTLB_rfo_hit 0
Core_0_DTLB_rfo_miss 0
Core_0_DTLB_rfo_MPKI 0
Core_0_DTLB_rfo_miss_rate 0
Core_0_DTLB_prefetch_access 0
Core_0_DTLB_prefetch_hit 0
Core_0_DTLB_prefetch_miss 0
Core_0_DTLB_prefetch_MPKI 0
Core_0_DTLB_prefetch_miss_rate 0
Core_0_DTLB_writeback_access 0
Core_0_DTLB_writeback_hit 0
Core_0_DTLB_writeback_miss 0
Core_0_DTLB_writeback_MPKI 0
Core_0_DTLB_writeback_miss_rate 0
Core_0_DTLB_prefetch_requested 0
Core_0_DTLB_prefetch_issued 0
Core_0_DTLB_prefetch_useful 0
Core_0_DTLB_prefetch_useless 0
Core_0_DTLB_prefetch_late 0
Core_0_DTLB_prefetch_accuracy 0
Core_0_DTLB_prefetch_coverage 0

Core_0_STLB_total_access 1827
Core_0_STLB_total_hit 0
Core_0_STLB_total_miss 1827
Core_0_STLB_total_MPKI 0.03654
Core_0_STLB_total_miss_rate 1
Core_0_STLB_demand_access 1827
Core_0_STLB_demand_hit 0
Core_0_STLB_demand_miss 1827
Core_0_STLB_demand_MPKI 0.03654
Core_0_STLB_demand_miss_rate 1
Core_0_STLB_load_access 1827
Core_0_STLB_load_hit 0
Core_0_STLB_load_miss 1827
Core_0_STLB_load_MPKI 0.03654
Core_0_STLB_load_miss_rate 1
Core_0_STLB_rfo_access 0
Core_0_STLB_rfo_hit 0
Core_0_STLB_rfo_miss 0
Core_0_STLB_rfo_MPKI 0
Core_0_STLB_rfo_miss_rate 0
Core_0_STLB_prefetch_access 0
Core_0_STLB_prefetch_hit 0
Core_0_STLB_prefetch_miss 0
Core_0_STLB_prefetch_MPKI 0
Core_0_STLB_prefetch_miss_rate 0
Core_0_STLB_writeback_access 0
Core_0_STLB_writeback_hit 0
Core_0_STLB_writeback_miss 0
Core_0_STLB_writeback_MPKI 0
Core_0_STLB_writeback_miss_rate 0
Core_0_STLB_prefetch_requested 0
Core_0_STLB_prefetch_issued 0
Core_0_STLB_prefetch_useful 0
Core_0_STLB_prefetch_useless 0
Core_0_STLB_prefetch_late 0
Core_0_STLB_prefetch_accuracy 0
Core_0_STLB_prefetch_coverage 0

Core_0_L1I_total_access 431527
Core_0_L1I_total_hit 431527
Core_0_L1I_total_miss 0
Core_0_L1I_total_MPKI 0
Core_0_L1I_total_miss_rate 0
Core_0_L1I_demand_access 431527
Core_0_L1I_demand_hit 431527
Core_0_L1I_demand_miss 0
Core_0_L1I_demand_MPKI 0
Core_0_L1I_demand_miss_rate 0
Core_0_L1I_load_access 431527
Core_0_L1I_load_hit 431527
Core_0_L1I_load_miss 0
Core_0_L1I_load_MPKI 0
Core_0_L1I_load_miss_rate 0
Core_0_L1I_rfo_access 0
Core_0_L1I_rfo_hit 0
Core_0_L1I_rfo_miss 0
Core_0_L1I_rfo_MPKI 0
Core_0_L1I_rfo_miss_rate 0
Core_0_L1I_prefetch_access 0
Core_0_L1I_prefetch_hit 0
Core_0_L1I_prefetch_miss 0
Core_0_L1I_prefetch_MPKI 0
Core_0_L1I_prefetch_miss_rate 0
Core_0_L1I_writeback_access 0
Core_0_L1I_writeback_hit 0
Core_0_L1I_writeback_miss 0
Core_0_L1I_writeback_MPKI 0
Core_0_L1I_writeback_miss_rate 0
Core_0_L1I_prefetch_requested 0
Core_0_L1I_prefetch_issued 0
Core_0_L1I_prefetch_useful 0
Core_0_L1I_prefetch_useless 0
Core_0_L1I_prefetch_late 0
Core_0_L1I_prefetch_accuracy 0
Core_0_L1I_prefetch_coverage 0

Core_0_L1D_total_access 8585165
Core_0_L1D_total_hit 8430163
Core_0_L1D_total_miss 155002
Core_0_L1D_total_MPKI 3.10004
Core_0_L1D_total_miss_rate 0.0180546
Core_0_L1D_demand_access 7447629
Core_0_L1D_demand_hit 7407666
Core_0_L1D_demand_miss 39963
Core_0_L1D_demand_MPKI 0.79926
Core_0_L1D_demand_miss_rate 0.00536587
Core_0_L1D_load_access 7447629
Core_0_L1D_load_hit 7407666
Core_0_L1D_load_miss 39963
Core_0_L1D_load_MPKI 0.79926
Core_0_L1D_load_miss_rate 0.00536587
Core_0_L1D_rfo_access 0
Core_0_L1D_rfo_hit 0
Core_0_L1D_rfo_miss 0
Core_0_L1D_rfo_MPKI 0
Core_0_L1D_rfo_miss_rate 0
Core_0_L1D_prefetch_access 115068
Core_0_L1D_prefetch_hit 29
Core_0_L1D_prefetch_miss 115039
Core_0_L1D_prefetch_MPKI 2.30078
Core_0_L1D_prefetch_miss_rate 0.999748
Core_0_L1D_writeback_access 1022468
Core_0_L1D_writeback_hit 1022468
Core_0_L1D_writeback_miss 0
Core_0_L1D_writeback_MPKI 0
Core_0_L1D_writeback_miss_rate 0
Core_0_L1D_prefetch_requested 115068
Core_0_L1D_prefetch_issued 115068
Core_0_L1D_prefetch_useful 115039
Core_0_L1D_prefetch_useless 0
Core_0_L1D_prefetch_late 844
Core_0_L1D_prefetch_accuracy 0.999748
Core_0_L1D_prefetch_coverage 0.742178

Core_0_L2C_total_access 834736
Core_0_L2C_total_hit 607335
Core_0_L2C_total_miss 227401
Core_0_L2C_total_MPKI 4.54802
Core_0_L2C_total_miss_rate 0.272423
Core_0_L2C_demand_access 1856
Core_0_L2C_demand_hit 29
Core_0_L2C_demand_miss 1827
Core_0_L2C_demand_MPKI 0.03654
Core_0_L2C_demand_miss_rate 0.984375
Core_0_L2C_load_access 1856
Core_0_L2C_load_hit 29
Core_0_L2C_load_miss 1827
Core_0_L2C_load_MPKI 0.03654
Core_0_L2C_load_miss_rate 0.984375
Core_0_L2C_rfo_access 0
Core_0_L2C_rfo_hit 0
Core_0_L2C_rfo_miss 0
Core_0_L2C_rfo_MPKI 0
Core_0_L2C_rfo_miss_rate 0
Core_0_L2C_prefetch_access 715985
Core_0_L2C_prefetch_hit 490411
Core_0_L2C_prefetch_miss 225574
Core_0_L2C_prefetch_MPKI 4.51148
Core_0_L2C_prefetch_miss_rate 0.315054
Core_0_L2C_writeback_access 116895
Core_0_L2C_writeback_hit 116895
Core_0_L2C_writeback_miss 0
Core_0_L2C_writeback_MPKI 0
Core_0_L2C_writeback_miss_rate 0
Core_0_L2C_prefetch_requested 600946
Core_0_L2C_prefetch_issued 600946
Core_0_L2C_prefetch_useful 114983
Core_0_L2C_prefetch_useless 0
Core_0_L2C_prefetch_late 0
Core_0_L2C_prefetch_accuracy 0.191337
Core_0_L2C_prefetch_coverage 0.984359

Core_0_LLC_total_access 233780
Core_0_LLC_total_hit 18178
Core_0_LLC_total_miss 215602
Core_0_LLC_total_MPKI 4.31204
Core_0_LLC_total_miss_rate 0.922243
Core_0_LLC_demand_access 1827
Core_0_LLC_demand_hit 0
Core_0_LLC_demand_miss 1827
Core_0_LLC_demand_MPKI 0.03654
Core_0_LLC_demand_miss_rate 1
Core_0_LLC_load_access 1827
Core_0_LLC_load_hit 0
Core_0_LLC_load_miss 1827
Core_0_LLC_load_MPKI 0.03654
Core_0_LLC_load_miss_rate 1
Core_0_LLC_rfo_access 0
Core_0_LLC_rfo_hit 0
Core_0_LLC_rfo_miss 0
Core_0_LLC_rfo_MPKI 0
Core_0_LLC_rfo_miss_rate 0
Core_0_LLC_prefetch_access 115064
Core_0_LLC_prefetch_hit 0
Core_0_LLC_prefetch_miss 115064
Core_0_LLC_prefetch_MPKI 2.30128
Core_0_LLC_prefetch_miss_rate 1
Core_0_LLC_writeback_access 116889
Core_0_LLC_writeback_hit 18178
Core_0_LLC_writeback_miss 98711
Core_0_LLC_writeback_MPKI 1.97422
Core_0_LLC_writeback_miss_rate 0.844485
Core_0_LLC_prefetch_requested 0
Core_0_LLC_prefetch_issued 0
Core_0_LLC_prefetch_useful 0
Core_0_LLC_prefetch_useless 0
Core_0_LLC_prefetch_late 0
Core_0_LLC_prefetch_accuracy 0
Core_0_LLC_prefetch_coverage 0

[DRAM Statistics]
Channel_0_RQ_row_buffer_hit 9089
Channel_0_RQ_row_buffer_miss 108029
Channel_0_WQ_row_buffer_hit 28314
Channel_0_WQ_row_buffer_miss 87809
Channel_0_WQ_full 0
Channel_0_dbus_congested 665770
DRAM_total_RQ_row_buffer_hit 9089
DRAM_total_RQ_row_buffer_miss 108029
DRAM_total_WQ_row_buffer_hit 28314
DRAM_total_WQ_row_buffer_miss 87809
DRAM_total_WQ_full 0
DRAM_total_dbus_congested 665770
DRAM_avg_congested_cycle 11.3566

======STLB miss causes ========
Core_0_STLB_miss_cause_breakdown
Core_0_STLB_cause_Demand_Data_miss 1827
Core_0_STLB_cause_Demand_Data_miss_rate 1
Core_0_STLB_cause_Demand_Instruction_miss 0
Core_0_STLB_cause_Demand_Instruction_miss_rate 0
Core_0_STLB_cause_L1D_Prefetch_miss 0
Core_0_STLB_cause_L1D_Prefetch_miss_rate 0
Core_0_STLB_cause_L1I_Prefetch_miss 0
Core_0_STLB_cause_L1I_Prefetch_miss_rate 0
Core_0_STLB_cause_Other_miss 0
Core_0_STLB_cause_Other_miss_rate 0
Core_0_STLB_Demand_miss 1827
Core_0_STLB_Demand_miss_rate 1
Core_0_STLB_L1D_Prefetch_miss 0
Core_0_STLB_L1D_Prefetch_miss_rate 0
Core_0_STLB_Other_miss 0
Core_0_STLB_Other_miss_rate 0
