[VMEM] WARNING: physical memory size is smaller than virtual memory size.

*** ChampSim Multicore Out-of-Order Simulator ***
Warmup Instructions: 20000000
Simulation Instructions: 50000000
Number of CPUs: 1
Page size: 4096
Core 0: /data0/tzh/champsim_traces/Ligra/ligra_BFSCC.com-lj.ungraph.gcc_6.3.0_O3.drop_17000M.length_250M.champsimtrace.xz
 L1D Berti prefetcher
Off-chip DRAM Size: 16 GiB Channels: 1 Width: 64-bit Data Rate: 3205 MT/s
Warmup halting CPU 0 at instruction 20000000 cycle 6427814 for remainder of phase
Warmup finished CPU 0 instructions: 20000000 cycles: 6427814 cumulative IPC: 3.111 (Simulation time: 00 hr 01 min 16 sec)
Warmup complete CPU 0 instructions: 20000000 cycles: 6427814 cumulative IPC: 3.111 (Simulation time: 00 hr 01 min 16 sec)
Simulation finished CPU 0 instructions: 50000005 cycles: 33082395 cumulative IPC: 1.511 (Simulation time: 00 hr 07 min 30 sec)
Simulation complete CPU 0 instructions: 50000005 cycles: 33082395 cumulative IPC: 1.511 (Simulation time: 00 hr 07 min 30 sec)

ChampSim completed all CPUs

=== Simulation ===
CPU 0 runs /data0/tzh/champsim_traces/Ligra/ligra_BFSCC.com-lj.ungraph.gcc_6.3.0_O3.drop_17000M.length_250M.champsimtrace.xz

Region of Interest Statistics

CPU 0 cumulative IPC: 1.511 instructions: 50000005 cycles: 33082395
CPU 0 Branch Prediction Accuracy: 99.31% MPKI: 0.683 Average ROB Occupancy at Mispredict: 180.2
Branch type MPKI
BRANCH_DIRECT_JUMP: 2e-05
BRANCH_INDIRECT: 0
BRANCH_CONDITIONAL: 0.6829
BRANCH_DIRECT_CALL: 4e-05
BRANCH_INDIRECT_CALL: 0
BRANCH_RETURN: 0.0001

cpu0->cpu0_STLB TOTAL        ACCESS:      21834 HIT:      11100 MISS:      10734 MSHR_MERGE:          0
cpu0->cpu0_STLB LOAD         ACCESS:      21834 HIT:      11100 MISS:      10734 MSHR_MERGE:          0
cpu0->cpu0_STLB RFO          ACCESS:          0 HIT:          0 MISS:          0 MSHR_MERGE:          0
cpu0->cpu0_STLB PREFETCH     ACCESS:          0 HIT:          0 MISS:          0 MSHR_MERGE:          0
cpu0->cpu0_STLB WRITE        ACCESS:          0 HIT:          0 MISS:          0 MSHR_MERGE:          0
cpu0->cpu0_STLB TRANSLATION  ACCESS:          0 HIT:          0 MISS:          0 MSHR_MERGE:          0
cpu0->cpu0_STLB PREFETCH REQUESTED:          0 ISSUED:          0 USEFUL:          0 USELESS:          0 LATE:          0
cpu0->cpu0_STLB AVERAGE MISS LATENCY: 194.7 cycles
cpu0->cpu0_L2C TOTAL        ACCESS:    3884384 HIT:    1482400 MISS:    2401984 MSHR_MERGE:    1514373
cpu0->cpu0_L2C LOAD         ACCESS:     345942 HIT:     245996 MISS:      99946 MSHR_MERGE:      80692
cpu0->cpu0_L2C RFO          ACCESS:     480373 HIT:      33909 MISS:     446464 MSHR_MERGE:         42
cpu0->cpu0_L2C PREFETCH     ACCESS:    2523261 HIT:     669892 MISS:    1853369 MSHR_MERGE:    1433639
cpu0->cpu0_L2C WRITE        ACCESS:     530738 HIT:     530684 MISS:         54 MSHR_MERGE:          0
cpu0->cpu0_L2C TRANSLATION  ACCESS:       4070 HIT:       1919 MISS:       2151 MSHR_MERGE:          0
cpu0->cpu0_L2C PREFETCH REQUESTED:    2446980 ISSUED:    2272083 USEFUL:     286647 USELESS:      96955 LATE:      80734
cpu0->cpu0_L2C AVERAGE MISS LATENCY: 460.4 cycles
cpu0->cpu0_L1I TOTAL        ACCESS:    6329518 HIT:    6329515 MISS:          3 MSHR_MERGE:          1
cpu0->cpu0_L1I LOAD         ACCESS:    6329518 HIT:    6329515 MISS:          3 MSHR_MERGE:          1
cpu0->cpu0_L1I RFO          ACCESS:          0 HIT:          0 MISS:          0 MSHR_MERGE:          0
cpu0->cpu0_L1I PREFETCH     ACCESS:          0 HIT:          0 MISS:          0 MSHR_MERGE:          0
cpu0->cpu0_L1I WRITE        ACCESS:          0 HIT:          0 MISS:          0 MSHR_MERGE:          0
cpu0->cpu0_L1I TRANSLATION  ACCESS:          0 HIT:          0 MISS:          0 MSHR_MERGE:          0
cpu0->cpu0_L1I PREFETCH REQUESTED:          0 ISSUED:          0 USEFUL:          0 USELESS:          0 LATE:          0
cpu0->cpu0_L1I AVERAGE MISS LATENCY: 224 cycles
cpu0->cpu0_L1D TOTAL        ACCESS:   14762763 HIT:   10254941 MISS:    4507822 MSHR_MERGE:    3426252
cpu0->cpu0_L1D LOAD         ACCESS:    4329744 HIT:    3710387 MISS:     619357 MSHR_MERGE:     273417
cpu0->cpu0_L1D RFO          ACCESS:          0 HIT:          0 MISS:          0 MSHR_MERGE:          0
cpu0->cpu0_L1D PREFETCH     ACCESS:     427058 HIT:     121773 MISS:     305285 MSHR_MERGE:      54107
cpu0->cpu0_L1D WRITE        ACCESS:    9985231 HIT:    6406911 MISS:    3578320 MSHR_MERGE:    3097938
cpu0->cpu0_L1D TRANSLATION  ACCESS:      20730 HIT:      15870 MISS:       4860 MSHR_MERGE:        790
cpu0->cpu0_L1D PREFETCH REQUESTED:     666682 ISSUED:     427058 USEFUL:     242167 USELESS:       9011 LATE:      69680
cpu0->cpu0_L1D AVERAGE MISS LATENCY: 306 cycles
cpu0->cpu0_ITLB TOTAL        ACCESS:    6130812 HIT:    6130812 MISS:          0 MSHR_MERGE:          0
cpu0->cpu0_ITLB LOAD         ACCESS:    6130812 HIT:    6130812 MISS:          0 MSHR_MERGE:          0
cpu0->cpu0_ITLB RFO          ACCESS:          0 HIT:          0 MISS:          0 MSHR_MERGE:          0
cpu0->cpu0_ITLB PREFETCH     ACCESS:          0 HIT:          0 MISS:          0 MSHR_MERGE:          0
cpu0->cpu0_ITLB WRITE        ACCESS:          0 HIT:          0 MISS:          0 MSHR_MERGE:          0
cpu0->cpu0_ITLB TRANSLATION  ACCESS:          0 HIT:          0 MISS:          0 MSHR_MERGE:          0
cpu0->cpu0_ITLB PREFETCH REQUESTED:          0 ISSUED:          0 USEFUL:          0 USELESS:          0 LATE:          0
cpu0->cpu0_ITLB AVERAGE MISS LATENCY: - cycles
cpu0->cpu0_DTLB TOTAL        ACCESS:   13256746 HIT:   13155946 MISS:     100800 MSHR_MERGE:      78966
cpu0->cpu0_DTLB LOAD         ACCESS:   13256746 HIT:   13155946 MISS:     100800 MSHR_MERGE:      78966
cpu0->cpu0_DTLB RFO          ACCESS:          0 HIT:          0 MISS:          0 MSHR_MERGE:          0
cpu0->cpu0_DTLB PREFETCH     ACCESS:          0 HIT:          0 MISS:          0 MSHR_MERGE:          0
cpu0->cpu0_DTLB WRITE        ACCESS:          0 HIT:          0 MISS:          0 MSHR_MERGE:          0
cpu0->cpu0_DTLB TRANSLATION  ACCESS:          0 HIT:          0 MISS:          0 MSHR_MERGE:          0
cpu0->cpu0_DTLB PREFETCH REQUESTED:          0 ISSUED:          0 USEFUL:          0 USELESS:          0 LATE:          0
cpu0->cpu0_DTLB AVERAGE MISS LATENCY: 101.2 cycles
cpu0->LLC TOTAL        ACCESS:    1391336 HIT:     109067 MISS:    1282269 MSHR_MERGE:          0
cpu0->LLC LOAD         ACCESS:      19254 HIT:       1754 MISS:      17500 MSHR_MERGE:          0
cpu0->LLC RFO          ACCESS:     446422 HIT:       2353 MISS:     444069 MSHR_MERGE:          0
cpu0->LLC PREFETCH     ACCESS:     419730 HIT:      25558 MISS:     394172 MSHR_MERGE:          0
cpu0->LLC WRITE        ACCESS:     503779 HIT:      79312 MISS:     424467 MSHR_MERGE:          0
cpu0->LLC TRANSLATION  ACCESS:       2151 HIT:         90 MISS:       2061 MSHR_MERGE:          0
cpu0->LLC PREFETCH REQUESTED:          0 ISSUED:          0 USEFUL:          0 USELESS:          0 LATE:          0
cpu0->LLC AVERAGE MISS LATENCY: 255.6 cycles

DRAM Statistics

Channel 0 RQ ROW_BUFFER_HIT:      62931
  ROW_BUFFER_MISS:     794788
  AVG DBUS CONGESTED CYCLE: 6.893
Channel 0 WQ ROW_BUFFER_HIT:      55971
  ROW_BUFFER_MISS:     447730
  FULL:       3659
Channel 0 REFRESHES ISSUED:       2757

[ROI Statistics]
[System Configuration]
num_cpus 1
cpu_freq 4000
fetch_width 6
decode_width 6
dispatch_width 6
execute_width 6
lq_width 2
sq_width 2
retire_width 6
scheduler_size 128
branch_mispredict_penalty 15
rob_size 352
lq_size 128
sq_size 72
ifetch_buffer_size 64
decode_buffer_size 32
dispatch_buffer_size 32
register_file_size 288
decode_latency 1
dispatch_latency 1
schedule_latency 1
execute_latency 1
page_size 4096
block_size 64
core_0_itlb_set 16
core_0_itlb_way 4
core_0_itlb_rq_size 16
core_0_itlb_wq_size 16
core_0_itlb_pq_size 0
core_0_itlb_mshr_size 8
core_0_itlb_hit_latency 1
core_0_itlb_fill_latency 1
core_0_itlb_max_tag_check 2
core_0_itlb_max_fill 2
core_0_dtlb_set 16
core_0_dtlb_way 4
core_0_dtlb_rq_size 16
core_0_dtlb_wq_size 16
core_0_dtlb_pq_size 0
core_0_dtlb_mshr_size 8
core_0_dtlb_hit_latency 1
core_0_dtlb_fill_latency 1
core_0_dtlb_max_tag_check 2
core_0_dtlb_max_fill 2
core_0_stlb_set 128
core_0_stlb_way 12
core_0_stlb_rq_size 32
core_0_stlb_wq_size 32
core_0_stlb_pq_size 0
core_0_stlb_mshr_size 16
core_0_stlb_hit_latency 4
core_0_stlb_fill_latency 4
core_0_stlb_max_tag_check 1
core_0_stlb_max_fill 1
core_0_l1i_set 64
core_0_l1i_way 8
core_0_l1i_rq_size 64
core_0_l1i_wq_size 64
core_0_l1i_pq_size 32
core_0_l1i_mshr_size 8
core_0_l1i_hit_latency 2
core_0_l1i_fill_latency 2
core_0_l1i_max_tag_check 2
core_0_l1i_max_fill 2
core_0_l1d_set 64
core_0_l1d_way 12
core_0_l1d_rq_size 64
core_0_l1d_wq_size 64
core_0_l1d_pq_size 8
core_0_l1d_mshr_size 16
core_0_l1d_hit_latency 2
core_0_l1d_fill_latency 3
core_0_l1d_max_tag_check 2
core_0_l1d_max_fill 2
core_0_l2c_set 1024
core_0_l2c_way 8
core_0_l2c_rq_size 32
core_0_l2c_wq_size 32
core_0_l2c_pq_size 16
core_0_l2c_mshr_size 32
core_0_l2c_hit_latency 5
core_0_l2c_fill_latency 5
core_0_l2c_max_tag_check 1
core_0_l2c_max_fill 1
llc_set 2048
llc_way 16
llc_rq_size 32
llc_wq_size 32
llc_pq_size 32
llc_mshr_size 64
llc_hit_latency 10
llc_fill_latency 10
llc_max_tag_check 1
llc_max_fill 1
dram_channels 1
dram_ranks 1
dram_bankgroups 8
dram_banks 4
dram_rows 65536
dram_columns 1024
dram_channel_width 8
dram_rq_size 64
dram_wq_size 64
dram_size 17179869184
core_0_itlb_prefetcher no
core_0_dtlb_prefetcher no
core_0_stlb_prefetcher no
core_0_l1i_prefetcher next_line
core_0_l1d_prefetcher berti
core_0_l2c_prefetcher pythia
llc_prefetcher no
llc_replacement drrip

Core_0_instructions 50000005
Core_0_cycles 33082395
Core_0_IPC 1.51138
Core_0_branch_prediction_accuracy 99.3138
Core_0_branch_MPKI 0.68304
Core_0_average_ROB_occupancy_at_mispredict 180.179

Core_0_ITLB_total_access 6130812
Core_0_ITLB_total_hit 6130812
Core_0_ITLB_total_miss 0
Core_0_ITLB_total_MPKI 0
Core_0_ITLB_total_miss_rate 0
Core_0_ITLB_demand_access 6130812
Core_0_ITLB_demand_hit 6130812
Core_0_ITLB_demand_miss 0
Core_0_ITLB_demand_MPKI 0
Core_0_ITLB_demand_miss_rate 0
Core_0_ITLB_load_access 6130812
Core_0_ITLB_load_hit 6130812
Core_0_ITLB_load_miss 0
Core_0_ITLB_load_MPKI 0
Core_0_ITLB_load_miss_rate 0
Core_0_ITLB_rfo_access 0
Core_0_ITLB_rfo_hit 0
Core_0_ITLB_rfo_miss 0
Core_0_ITLB_rfo_MPKI 0
Core_0_ITLB_rfo_miss_rate 0
Core_0_ITLB_prefetch_access 0
Core_0_ITLB_prefetch_hit 0
Core_0_ITLB_prefetch_miss 0
Core_0_ITLB_prefetch_MPKI 0
Core_0_ITLB_prefetch_miss_rate 0
Core_0_ITLB_writeback_access 0
Core_0_ITLB_writeback_hit 0
Core_0_ITLB_writeback_miss 0
Core_0_ITLB_writeback_MPKI 0
Core_0_ITLB_writeback_miss_rate 0
Core_0_ITLB_prefetch_requested 0
Core_0_ITLB_prefetch_issued 0
Core_0_ITLB_prefetch_useful 0
Core_0_ITLB_prefetch_useless 0
Core_0_ITLB_prefetch_late 0
Core_0_ITLB_prefetch_accuracy 0
Core_0_ITLB_prefetch_coverage 0

Core_0_DTLB_total_access 13256746
Core_0_DTLB_total_hit 13155946
Core_0_DTLB_total_miss 100800
Core_0_DTLB_total_MPKI 2.016
Core_0_DTLB_total_miss_rate 0.00760368
Core_0_DTLB_demand_access 13256746
Core_0_DTLB_demand_hit 13155946
Core_0_DTLB_demand_miss 100800
Core_0_DTLB_demand_MPKI 2.016
Core_0_DTLB_demand_miss_rate 0.00760368
Core_0_DTLB_load_access 13256746
Core_0_DTLB_load_hit 13155946
Core_0_DTLB_load_miss 100800
Core_0_DTLB_load_MPKI 2.016
Core_0_DTLB_load_miss_rate 0.00760368
Core_0_DTLB_rfo_access 0
Core_0_DTLB_rfo_hit 0
Core_0_DTLB_rfo_miss 0
Core_0_DTLB_rfo_MPKI 0
Core_0_DTLB_rfo_miss_rate 0
Core_0_DTLB_prefetch_access 0
Core_0_DTLB_prefetch_hit 0
Core_0_DTLB_prefetch_miss 0
Core_0_DTLB_prefetch_MPKI 0
Core_0_DTLB_prefetch_miss_rate 0
Core_0_DTLB_writeback_access 0
Core_0_DTLB_writeback_hit 0
Core_0_DTLB_writeback_miss 0
Core_0_DTLB_writeback_MPKI 0
Core_0_DTLB_writeback_miss_rate 0
Core_0_DTLB_prefetch_requested 0
Core_0_DTLB_prefetch_issued 0
Core_0_DTLB_prefetch_useful 0
Core_0_DTLB_prefetch_useless 0
Core_0_DTLB_prefetch_late 0
Core_0_DTLB_prefetch_accuracy 0
Core_0_DTLB_prefetch_coverage 0

Core_0_STLB_total_access 21834
Core_0_STLB_total_hit 11100
Core_0_STLB_total_miss 10734
Core_0_STLB_total_MPKI 0.21468
Core_0_STLB_total_miss_rate 0.491619
Core_0_STLB_demand_access 21834
Core_0_STLB_demand_hit 11100
Core_0_STLB_demand_miss 10734
Core_0_STLB_demand_MPKI 0.21468
Core_0_STLB_demand_miss_rate 0.491619
Core_0_STLB_load_access 21834
Core_0_STLB_load_hit 11100
Core_0_STLB_load_miss 10734
Core_0_STLB_load_MPKI 0.21468
Core_0_STLB_load_miss_rate 0.491619
Core_0_STLB_rfo_access 0
Core_0_STLB_rfo_hit 0
Core_0_STLB_rfo_miss 0
Core_0_STLB_rfo_MPKI 0
Core_0_STLB_rfo_miss_rate 0
Core_0_STLB_prefetch_access 0
Core_0_STLB_prefetch_hit 0
Core_0_STLB_prefetch_miss 0
Core_0_STLB_prefetch_MPKI 0
Core_0_STLB_prefetch_miss_rate 0
Core_0_STLB_writeback_access 0
Core_0_STLB_writeback_hit 0
Core_0_STLB_writeback_miss 0
Core_0_STLB_writeback_MPKI 0
Core_0_STLB_writeback_miss_rate 0
Core_0_STLB_prefetch_requested 0
Core_0_STLB_prefetch_issued 0
Core_0_STLB_prefetch_useful 0
Core_0_STLB_prefetch_useless 0
Core_0_STLB_prefetch_late 0
Core_0_STLB_prefetch_accuracy 0
Core_0_STLB_prefetch_coverage 0

Core_0_L1I_total_access 6329518
Core_0_L1I_total_hit 6329515
Core_0_L1I_total_miss 3
Core_0_L1I_total_MPKI 6e-05
Core_0_L1I_total_miss_rate 4.7397e-07
Core_0_L1I_demand_access 6329518
Core_0_L1I_demand_hit 6329515
Core_0_L1I_demand_miss 3
Core_0_L1I_demand_MPKI 6e-05
Core_0_L1I_demand_miss_rate 4.7397e-07
Core_0_L1I_load_access 6329518
Core_0_L1I_load_hit 6329515
Core_0_L1I_load_miss 3
Core_0_L1I_load_MPKI 6e-05
Core_0_L1I_load_miss_rate 4.7397e-07
Core_0_L1I_rfo_access 0
Core_0_L1I_rfo_hit 0
Core_0_L1I_rfo_miss 0
Core_0_L1I_rfo_MPKI 0
Core_0_L1I_rfo_miss_rate 0
Core_0_L1I_prefetch_access 0
Core_0_L1I_prefetch_hit 0
Core_0_L1I_prefetch_miss 0
Core_0_L1I_prefetch_MPKI 0
Core_0_L1I_prefetch_miss_rate 0
Core_0_L1I_writeback_access 0
Core_0_L1I_writeback_hit 0
Core_0_L1I_writeback_miss 0
Core_0_L1I_writeback_MPKI 0
Core_0_L1I_writeback_miss_rate 0
Core_0_L1I_prefetch_requested 0
Core_0_L1I_prefetch_issued 0
Core_0_L1I_prefetch_useful 0
Core_0_L1I_prefetch_useless 0
Core_0_L1I_prefetch_late 0
Core_0_L1I_prefetch_accuracy 0
Core_0_L1I_prefetch_coverage 0

Core_0_L1D_total_access 14742033
Core_0_L1D_total_hit 10239071
Core_0_L1D_total_miss 4502962
Core_0_L1D_total_MPKI 90.0592
Core_0_L1D_total_miss_rate 0.305451
Core_0_L1D_demand_access 4329744
Core_0_L1D_demand_hit 3710387
Core_0_L1D_demand_miss 619357
Core_0_L1D_demand_MPKI 12.3871
Core_0_L1D_demand_miss_rate 0.143047
Core_0_L1D_load_access 4329744
Core_0_L1D_load_hit 3710387
Core_0_L1D_load_miss 619357
Core_0_L1D_load_MPKI 12.3871
Core_0_L1D_load_miss_rate 0.143047
Core_0_L1D_rfo_access 0
Core_0_L1D_rfo_hit 0
Core_0_L1D_rfo_miss 0
Core_0_L1D_rfo_MPKI 0
Core_0_L1D_rfo_miss_rate 0
Core_0_L1D_prefetch_access 427058
Core_0_L1D_prefetch_hit 121773
Core_0_L1D_prefetch_miss 305285
Core_0_L1D_prefetch_MPKI 6.1057
Core_0_L1D_prefetch_miss_rate 0.714856
Core_0_L1D_writeback_access 9985231
Core_0_L1D_writeback_hit 6406911
Core_0_L1D_writeback_miss 3578320
Core_0_L1D_writeback_MPKI 71.5664
Core_0_L1D_writeback_miss_rate 0.358361
Core_0_L1D_prefetch_requested 666682
Core_0_L1D_prefetch_issued 427058
Core_0_L1D_prefetch_useful 242167
Core_0_L1D_prefetch_useless 9011
Core_0_L1D_prefetch_late 69680
Core_0_L1D_prefetch_accuracy 0.567059
Core_0_L1D_prefetch_coverage 0.281091

Core_0_L2C_total_access 3880314
Core_0_L2C_total_hit 1480481
Core_0_L2C_total_miss 2399833
Core_0_L2C_total_MPKI 47.9967
Core_0_L2C_total_miss_rate 0.618464
Core_0_L2C_demand_access 826315
Core_0_L2C_demand_hit 279905
Core_0_L2C_demand_miss 546410
Core_0_L2C_demand_MPKI 10.9282
Core_0_L2C_demand_miss_rate 0.661261
Core_0_L2C_load_access 345942
Core_0_L2C_load_hit 245996
Core_0_L2C_load_miss 99946
Core_0_L2C_load_MPKI 1.99892
Core_0_L2C_load_miss_rate 0.28891
Core_0_L2C_rfo_access 480373
Core_0_L2C_rfo_hit 33909
Core_0_L2C_rfo_miss 446464
Core_0_L2C_rfo_MPKI 8.92928
Core_0_L2C_rfo_miss_rate 0.929411
Core_0_L2C_prefetch_access 2523261
Core_0_L2C_prefetch_hit 669892
Core_0_L2C_prefetch_miss 1853369
Core_0_L2C_prefetch_MPKI 37.0674
Core_0_L2C_prefetch_miss_rate 0.734513
Core_0_L2C_writeback_access 530738
Core_0_L2C_writeback_hit 530684
Core_0_L2C_writeback_miss 54
Core_0_L2C_writeback_MPKI 0.00108
Core_0_L2C_writeback_miss_rate 0.000101745
Core_0_L2C_prefetch_requested 2446980
Core_0_L2C_prefetch_issued 2272083
Core_0_L2C_prefetch_useful 286647
Core_0_L2C_prefetch_useless 96955
Core_0_L2C_prefetch_late 80734
Core_0_L2C_prefetch_accuracy 0.12616
Core_0_L2C_prefetch_coverage 0.344091

Core_0_LLC_total_access 1389185
Core_0_LLC_total_hit 108977
Core_0_LLC_total_miss 1280208
Core_0_LLC_total_MPKI 25.6042
Core_0_LLC_total_miss_rate 0.921553
Core_0_LLC_demand_access 465676
Core_0_LLC_demand_hit 4107
Core_0_LLC_demand_miss 461569
Core_0_LLC_demand_MPKI 9.23138
Core_0_LLC_demand_miss_rate 0.991181
Core_0_LLC_load_access 19254
Core_0_LLC_load_hit 1754
Core_0_LLC_load_miss 17500
Core_0_LLC_load_MPKI 0.35
Core_0_LLC_load_miss_rate 0.908902
Core_0_LLC_rfo_access 446422
Core_0_LLC_rfo_hit 2353
Core_0_LLC_rfo_miss 444069
Core_0_LLC_rfo_MPKI 8.88138
Core_0_LLC_rfo_miss_rate 0.994729
Core_0_LLC_prefetch_access 419730
Core_0_LLC_prefetch_hit 25558
Core_0_LLC_prefetch_miss 394172
Core_0_LLC_prefetch_MPKI 7.88344
Core_0_LLC_prefetch_miss_rate 0.939108
Core_0_LLC_writeback_access 503779
Core_0_LLC_writeback_hit 79312
Core_0_LLC_writeback_miss 424467
Core_0_LLC_writeback_MPKI 8.48934
Core_0_LLC_writeback_miss_rate 0.842566
Core_0_LLC_prefetch_requested 0
Core_0_LLC_prefetch_issued 0
Core_0_LLC_prefetch_useful 0
Core_0_LLC_prefetch_useless 0
Core_0_LLC_prefetch_late 0
Core_0_LLC_prefetch_accuracy 0
Core_0_LLC_prefetch_coverage 0

[DRAM Statistics]
Channel_0_RQ_row_buffer_hit 62931
Channel_0_RQ_row_buffer_miss 794788
Channel_0_WQ_row_buffer_hit 55971
Channel_0_WQ_row_buffer_miss 447730
Channel_0_WQ_full 3659
Channel_0_dbus_congested 4599088
DRAM_total_RQ_row_buffer_hit 62931
DRAM_total_RQ_row_buffer_miss 794788
DRAM_total_WQ_row_buffer_hit 55971
DRAM_total_WQ_row_buffer_miss 447730
DRAM_total_WQ_full 3659
DRAM_total_dbus_congested 4599088
DRAM_avg_congested_cycle 6.89349

======STLB miss causes ========
Core_0_STLB_miss_cause_breakdown
Core_0_STLB_cause_Demand_Data_miss 10267
Core_0_STLB_cause_Demand_Data_miss_rate 0.47023
Core_0_STLB_cause_Demand_Instruction_miss 0
Core_0_STLB_cause_Demand_Instruction_miss_rate 0
Core_0_STLB_cause_L1D_Prefetch_miss 467
Core_0_STLB_cause_L1D_Prefetch_miss_rate 0.0213887
Core_0_STLB_cause_L1I_Prefetch_miss 0
Core_0_STLB_cause_L1I_Prefetch_miss_rate 0
Core_0_STLB_cause_Other_miss 0
Core_0_STLB_cause_Other_miss_rate 0
Core_0_STLB_Demand_miss 10267
Core_0_STLB_Demand_miss_rate 0.47023
Core_0_STLB_L1D_Prefetch_miss 467
Core_0_STLB_L1D_Prefetch_miss_rate 0.0213887
Core_0_STLB_Other_miss 0
Core_0_STLB_Other_miss_rate 0
