[VMEM] WARNING: physical memory size is smaller than virtual memory size.

*** ChampSim Multicore Out-of-Order Simulator ***
Warmup Instructions: 20000000
Simulation Instructions: 50000000
Number of CPUs: 1
Page size: 4096
Core 0: /data0/tzh/champsim_traces/Ligra/ligra_Radii.com-lj.ungraph.gcc_6.3.0_O3.drop_24500M.length_250M.champsimtrace.xz
 L1D Berti prefetcher
Off-chip DRAM Size: 16 GiB Channels: 1 Width: 64-bit Data Rate: 3205 MT/s
Warmup halting CPU 0 at instruction 20000005 cycle 5082519 for remainder of phase
Warmup finished CPU 0 instructions: 20000005 cycles: 5082519 cumulative IPC: 3.935 (Simulation time: 00 hr 00 min 41 sec)
Warmup complete CPU 0 instructions: 20000005 cycles: 5082519 cumulative IPC: 3.935 (Simulation time: 00 hr 00 min 41 sec)
Simulation finished CPU 0 instructions: 50000001 cycles: 52737576 cumulative IPC: 0.9481 (Simulation time: 00 hr 07 min 11 sec)
Simulation complete CPU 0 instructions: 50000001 cycles: 52737576 cumulative IPC: 0.9481 (Simulation time: 00 hr 07 min 11 sec)

ChampSim completed all CPUs

=== Simulation ===
CPU 0 runs /data0/tzh/champsim_traces/Ligra/ligra_Radii.com-lj.ungraph.gcc_6.3.0_O3.drop_24500M.length_250M.champsimtrace.xz

Region of Interest Statistics

CPU 0 cumulative IPC: 0.9481 instructions: 50000001 cycles: 52737576
CPU 0 Branch Prediction Accuracy: 96.27% MPKI: 10.3 Average ROB Occupancy at Mispredict: 33.1
Branch type MPKI
BRANCH_DIRECT_JUMP: 0.00032
BRANCH_INDIRECT: 0
BRANCH_CONDITIONAL: 10.3
BRANCH_DIRECT_CALL: 0.00024
BRANCH_INDIRECT_CALL: 0
BRANCH_RETURN: 0.00026

cpu0->cpu0_STLB TOTAL        ACCESS:      28745 HIT:       1180 MISS:      27565 MSHR_MERGE:          0
cpu0->cpu0_STLB LOAD         ACCESS:      28745 HIT:       1180 MISS:      27565 MSHR_MERGE:          0
cpu0->cpu0_STLB RFO          ACCESS:          0 HIT:          0 MISS:          0 MSHR_MERGE:          0
cpu0->cpu0_STLB PREFETCH     ACCESS:          0 HIT:          0 MISS:          0 MSHR_MERGE:          0
cpu0->cpu0_STLB WRITE        ACCESS:          0 HIT:          0 MISS:          0 MSHR_MERGE:          0
cpu0->cpu0_STLB TRANSLATION  ACCESS:          0 HIT:          0 MISS:          0 MSHR_MERGE:          0
cpu0->cpu0_STLB PREFETCH REQUESTED:          0 ISSUED:          0 USEFUL:          0 USELESS:          0 LATE:          0
cpu0->cpu0_STLB AVERAGE MISS LATENCY: 291.4 cycles
cpu0->cpu0_L2C TOTAL        ACCESS:    5240322 HIT:    2680135 MISS:    2560187 MSHR_MERGE:    1125900
cpu0->cpu0_L2C LOAD         ACCESS:     601760 HIT:     290766 MISS:     310994 MSHR_MERGE:     127747
cpu0->cpu0_L2C RFO          ACCESS:     215246 HIT:        809 MISS:     214437 MSHR_MERGE:          0
cpu0->cpu0_L2C PREFETCH     ACCESS:    4202719 HIT:    2171741 MISS:    2030978 MSHR_MERGE:     998153
cpu0->cpu0_L2C WRITE        ACCESS:     215447 HIT:     215443 MISS:          4 MSHR_MERGE:          0
cpu0->cpu0_L2C TRANSLATION  ACCESS:       5150 HIT:       1376 MISS:       3774 MSHR_MERGE:          0
cpu0->cpu0_L2C PREFETCH REQUESTED:    3758311 ISSUED:    3593020 USEFUL:     508558 USELESS:     436028 LATE:     127747
cpu0->cpu0_L2C AVERAGE MISS LATENCY: 402.5 cycles
cpu0->cpu0_L1I TOTAL        ACCESS:    3822443 HIT:    3822368 MISS:         75 MSHR_MERGE:          9
cpu0->cpu0_L1I LOAD         ACCESS:    3822443 HIT:    3822368 MISS:         75 MSHR_MERGE:          9
cpu0->cpu0_L1I RFO          ACCESS:          0 HIT:          0 MISS:          0 MSHR_MERGE:          0
cpu0->cpu0_L1I PREFETCH     ACCESS:          0 HIT:          0 MISS:          0 MSHR_MERGE:          0
cpu0->cpu0_L1I WRITE        ACCESS:          0 HIT:          0 MISS:          0 MSHR_MERGE:          0
cpu0->cpu0_L1I TRANSLATION  ACCESS:          0 HIT:          0 MISS:          0 MSHR_MERGE:          0
cpu0->cpu0_L1I PREFETCH REQUESTED:          0 ISSUED:          0 USEFUL:          0 USELESS:          0 LATE:          0
cpu0->cpu0_L1I AVERAGE MISS LATENCY: 227.3 cycles
cpu0->cpu0_L1D TOTAL        ACCESS:   12675713 HIT:    9125362 MISS:    3550351 MSHR_MERGE:    2118562
cpu0->cpu0_L1D LOAD         ACCESS:    8682192 HIT:    7918789 MISS:     763403 MSHR_MERGE:     161709
cpu0->cpu0_L1D RFO          ACCESS:          0 HIT:          0 MISS:          0 MSHR_MERGE:          0
cpu0->cpu0_L1D PREFETCH     ACCESS:    1132748 HIT:     472952 MISS:     659796 MSHR_MERGE:      50097
cpu0->cpu0_L1D WRITE        ACCESS:    2806257 HIT:     684981 MISS:    2121276 MSHR_MERGE:    1906030
cpu0->cpu0_L1D TRANSLATION  ACCESS:      54516 HIT:      48640 MISS:       5876 MSHR_MERGE:        726
cpu0->cpu0_L1D PREFETCH REQUESTED:    1394049 ISSUED:    1132749 USEFUL:     405837 USELESS:     203782 LATE:      29982
cpu0->cpu0_L1D AVERAGE MISS LATENCY: 269.5 cycles
cpu0->cpu0_ITLB TOTAL        ACCESS:    3099418 HIT:    3099413 MISS:          5 MSHR_MERGE:          2
cpu0->cpu0_ITLB LOAD         ACCESS:    3099418 HIT:    3099413 MISS:          5 MSHR_MERGE:          2
cpu0->cpu0_ITLB RFO          ACCESS:          0 HIT:          0 MISS:          0 MSHR_MERGE:          0
cpu0->cpu0_ITLB PREFETCH     ACCESS:          0 HIT:          0 MISS:          0 MSHR_MERGE:          0
cpu0->cpu0_ITLB WRITE        ACCESS:          0 HIT:          0 MISS:          0 MSHR_MERGE:          0
cpu0->cpu0_ITLB TRANSLATION  ACCESS:          0 HIT:          0 MISS:          0 MSHR_MERGE:          0
cpu0->cpu0_ITLB PREFETCH REQUESTED:          0 ISSUED:          0 USEFUL:          0 USELESS:          0 LATE:          0
cpu0->cpu0_ITLB AVERAGE MISS LATENCY: 915 cycles
cpu0->cpu0_DTLB TOTAL        ACCESS:   11906443 HIT:   11661143 MISS:     245300 MSHR_MERGE:     216558
cpu0->cpu0_DTLB LOAD         ACCESS:   11906443 HIT:   11661143 MISS:     245300 MSHR_MERGE:     216558
cpu0->cpu0_DTLB RFO          ACCESS:          0 HIT:          0 MISS:          0 MSHR_MERGE:          0
cpu0->cpu0_DTLB PREFETCH     ACCESS:          0 HIT:          0 MISS:          0 MSHR_MERGE:          0
cpu0->cpu0_DTLB WRITE        ACCESS:          0 HIT:          0 MISS:          0 MSHR_MERGE:          0
cpu0->cpu0_DTLB TRANSLATION  ACCESS:          0 HIT:          0 MISS:          0 MSHR_MERGE:          0
cpu0->cpu0_DTLB PREFETCH REQUESTED:          0 ISSUED:          0 USEFUL:          0 USELESS:          0 LATE:          0
cpu0->cpu0_DTLB AVERAGE MISS LATENCY: 285.3 cycles
cpu0->LLC TOTAL        ACCESS:    1649935 HIT:      43252 MISS:    1606683 MSHR_MERGE:          0
cpu0->LLC LOAD         ACCESS:     183247 HIT:        646 MISS:     182601 MSHR_MERGE:          0
cpu0->LLC RFO          ACCESS:     214437 HIT:         78 MISS:     214359 MSHR_MERGE:          0
cpu0->LLC PREFETCH     ACCESS:    1032825 HIT:       6863 MISS:    1025962 MSHR_MERGE:          0
cpu0->LLC WRITE        ACCESS:     215652 HIT:      35656 MISS:     179996 MSHR_MERGE:          0
cpu0->LLC TRANSLATION  ACCESS:       3774 HIT:          9 MISS:       3765 MSHR_MERGE:          0
cpu0->LLC PREFETCH REQUESTED:          0 ISSUED:          0 USEFUL:          0 USELESS:          0 LATE:          0
cpu0->LLC AVERAGE MISS LATENCY: 284.9 cycles

DRAM Statistics

Channel 0 RQ ROW_BUFFER_HIT:     294666
  ROW_BUFFER_MISS:    1132016
  AVG DBUS CONGESTED CYCLE: 5.542
Channel 0 WQ ROW_BUFFER_HIT:       9166
  ROW_BUFFER_MISS:     200313
  FULL:          0
Channel 0 REFRESHES ISSUED:       4395

[ROI Statistics]
[System Configuration]
num_cpus 1
cpu_freq 4000
fetch_width 6
decode_width 6
dispatch_width 6
execute_width 6
lq_width 2
sq_width 2
retire_width 6
scheduler_size 128
branch_mispredict_penalty 15
rob_size 352
lq_size 128
sq_size 72
ifetch_buffer_size 64
decode_buffer_size 32
dispatch_buffer_size 32
register_file_size 288
decode_latency 1
dispatch_latency 1
schedule_latency 1
execute_latency 1
page_size 4096
block_size 64
core_0_itlb_set 16
core_0_itlb_way 4
core_0_itlb_rq_size 16
core_0_itlb_wq_size 16
core_0_itlb_pq_size 0
core_0_itlb_mshr_size 8
core_0_itlb_hit_latency 1
core_0_itlb_fill_latency 1
core_0_itlb_max_tag_check 2
core_0_itlb_max_fill 2
core_0_dtlb_set 16
core_0_dtlb_way 4
core_0_dtlb_rq_size 16
core_0_dtlb_wq_size 16
core_0_dtlb_pq_size 0
core_0_dtlb_mshr_size 8
core_0_dtlb_hit_latency 1
core_0_dtlb_fill_latency 1
core_0_dtlb_max_tag_check 2
core_0_dtlb_max_fill 2
core_0_stlb_set 128
core_0_stlb_way 12
core_0_stlb_rq_size 32
core_0_stlb_wq_size 32
core_0_stlb_pq_size 0
core_0_stlb_mshr_size 16
core_0_stlb_hit_latency 4
core_0_stlb_fill_latency 4
core_0_stlb_max_tag_check 1
core_0_stlb_max_fill 1
core_0_l1i_set 64
core_0_l1i_way 8
core_0_l1i_rq_size 64
core_0_l1i_wq_size 64
core_0_l1i_pq_size 32
core_0_l1i_mshr_size 8
core_0_l1i_hit_latency 2
core_0_l1i_fill_latency 2
core_0_l1i_max_tag_check 2
core_0_l1i_max_fill 2
core_0_l1d_set 64
core_0_l1d_way 12
core_0_l1d_rq_size 64
core_0_l1d_wq_size 64
core_0_l1d_pq_size 8
core_0_l1d_mshr_size 16
core_0_l1d_hit_latency 2
core_0_l1d_fill_latency 3
core_0_l1d_max_tag_check 2
core_0_l1d_max_fill 2
core_0_l2c_set 1024
core_0_l2c_way 8
core_0_l2c_rq_size 32
core_0_l2c_wq_size 32
core_0_l2c_pq_size 16
core_0_l2c_mshr_size 32
core_0_l2c_hit_latency 5
core_0_l2c_fill_latency 5
core_0_l2c_max_tag_check 1
core_0_l2c_max_fill 1
llc_set 2048
llc_way 16
llc_rq_size 32
llc_wq_size 32
llc_pq_size 32
llc_mshr_size 64
llc_hit_latency 10
llc_fill_latency 10
llc_max_tag_check 1
llc_max_fill 1
dram_channels 1
dram_ranks 1
dram_bankgroups 8
dram_banks 4
dram_rows 65536
dram_columns 1024
dram_channel_width 8
dram_rq_size 64
dram_wq_size 64
dram_size 17179869184
core_0_itlb_prefetcher no
core_0_dtlb_prefetcher no
core_0_stlb_prefetcher no
core_0_l1i_prefetcher next_line
core_0_l1d_prefetcher berti
core_0_l2c_prefetcher pythia
llc_prefetcher no
llc_replacement drrip

Core_0_instructions 50000001
Core_0_cycles 52737576
Core_0_IPC 0.948091
Core_0_branch_prediction_accuracy 96.2658
Core_0_branch_MPKI 10.3003
Core_0_average_ROB_occupancy_at_mispredict 33.0977

Core_0_ITLB_total_access 3099418
Core_0_ITLB_total_hit 3099413
Core_0_ITLB_total_miss 5
Core_0_ITLB_total_MPKI 0.0001
Core_0_ITLB_total_miss_rate 1.61321e-06
Core_0_ITLB_demand_access 3099418
Core_0_ITLB_demand_hit 3099413
Core_0_ITLB_demand_miss 5
Core_0_ITLB_demand_MPKI 0.0001
Core_0_ITLB_demand_miss_rate 1.61321e-06
Core_0_ITLB_load_access 3099418
Core_0_ITLB_load_hit 3099413
Core_0_ITLB_load_miss 5
Core_0_ITLB_load_MPKI 0.0001
Core_0_ITLB_load_miss_rate 1.61321e-06
Core_0_ITLB_rfo_access 0
Core_0_ITLB_rfo_hit 0
Core_0_ITLB_rfo_miss 0
Core_0_ITLB_rfo_MPKI 0
Core_0_ITLB_rfo_miss_rate 0
Core_0_ITLB_prefetch_access 0
Core_0_ITLB_prefetch_hit 0
Core_0_ITLB_prefetch_miss 0
Core_0_ITLB_prefetch_MPKI 0
Core_0_ITLB_prefetch_miss_rate 0
Core_0_ITLB_writeback_access 0
Core_0_ITLB_writeback_hit 0
Core_0_ITLB_writeback_miss 0
Core_0_ITLB_writeback_MPKI 0
Core_0_ITLB_writeback_miss_rate 0
Core_0_ITLB_prefetch_requested 0
Core_0_ITLB_prefetch_issued 0
Core_0_ITLB_prefetch_useful 0
Core_0_ITLB_prefetch_useless 0
Core_0_ITLB_prefetch_late 0
Core_0_ITLB_prefetch_accuracy 0
Core_0_ITLB_prefetch_coverage 0

Core_0_DTLB_total_access 11906443
Core_0_DTLB_total_hit 11661143
Core_0_DTLB_total_miss 245300
Core_0_DTLB_total_MPKI 4.906
Core_0_DTLB_total_miss_rate 0.0206023
Core_0_DTLB_demand_access 11906443
Core_0_DTLB_demand_hit 11661143
Core_0_DTLB_demand_miss 245300
Core_0_DTLB_demand_MPKI 4.906
Core_0_DTLB_demand_miss_rate 0.0206023
Core_0_DTLB_load_access 11906443
Core_0_DTLB_load_hit 11661143
Core_0_DTLB_load_miss 245300
Core_0_DTLB_load_MPKI 4.906
Core_0_DTLB_load_miss_rate 0.0206023
Core_0_DTLB_rfo_access 0
Core_0_DTLB_rfo_hit 0
Core_0_DTLB_rfo_miss 0
Core_0_DTLB_rfo_MPKI 0
Core_0_DTLB_rfo_miss_rate 0
Core_0_DTLB_prefetch_access 0
Core_0_DTLB_prefetch_hit 0
Core_0_DTLB_prefetch_miss 0
Core_0_DTLB_prefetch_MPKI 0
Core_0_DTLB_prefetch_miss_rate 0
Core_0_DTLB_writeback_access 0
Core_0_DTLB_writeback_hit 0
Core_0_DTLB_writeback_miss 0
Core_0_DTLB_writeback_MPKI 0
Core_0_DTLB_writeback_miss_rate 0
Core_0_DTLB_prefetch_requested 0
Core_0_DTLB_prefetch_issued 0
Core_0_DTLB_prefetch_useful 0
Core_0_DTLB_prefetch_useless 0
Core_0_DTLB_prefetch_late 0
Core_0_DTLB_prefetch_accuracy 0
Core_0_DTLB_prefetch_coverage 0

Core_0_STLB_total_access 28745
Core_0_STLB_total_hit 1180
Core_0_STLB_total_miss 27565
Core_0_STLB_total_MPKI 0.5513
Core_0_STLB_total_miss_rate 0.958949
Core_0_STLB_demand_access 28745
Core_0_STLB_demand_hit 1180
Core_0_STLB_demand_miss 27565
Core_0_STLB_demand_MPKI 0.5513
Core_0_STLB_demand_miss_rate 0.958949
Core_0_STLB_load_access 28745
Core_0_STLB_load_hit 1180
Core_0_STLB_load_miss 27565
Core_0_STLB_load_MPKI 0.5513
Core_0_STLB_load_miss_rate 0.958949
Core_0_STLB_rfo_access 0
Core_0_STLB_rfo_hit 0
Core_0_STLB_rfo_miss 0
Core_0_STLB_rfo_MPKI 0
Core_0_STLB_rfo_miss_rate 0
Core_0_STLB_prefetch_access 0
Core_0_STLB_prefetch_hit 0
Core_0_STLB_prefetch_miss 0
Core_0_STLB_prefetch_MPKI 0
Core_0_STLB_prefetch_miss_rate 0
Core_0_STLB_writeback_access 0
Core_0_STLB_writeback_hit 0
Core_0_STLB_writeback_miss 0
Core_0_STLB_writeback_MPKI 0
Core_0_STLB_writeback_miss_rate 0
Core_0_STLB_prefetch_requested 0
Core_0_STLB_prefetch_issued 0
Core_0_STLB_prefetch_useful 0
Core_0_STLB_prefetch_useless 0
Core_0_STLB_prefetch_late 0
Core_0_STLB_prefetch_accuracy 0
Core_0_STLB_prefetch_coverage 0

Core_0_L1I_total_access 3822443
Core_0_L1I_total_hit 3822368
Core_0_L1I_total_miss 75
Core_0_L1I_total_MPKI 0.0015
Core_0_L1I_total_miss_rate 1.9621e-05
Core_0_L1I_demand_access 3822443
Core_0_L1I_demand_hit 3822368
Core_0_L1I_demand_miss 75
Core_0_L1I_demand_MPKI 0.0015
Core_0_L1I_demand_miss_rate 1.9621e-05
Core_0_L1I_load_access 3822443
Core_0_L1I_load_hit 3822368
Core_0_L1I_load_miss 75
Core_0_L1I_load_MPKI 0.0015
Core_0_L1I_load_miss_rate 1.9621e-05
Core_0_L1I_rfo_access 0
Core_0_L1I_rfo_hit 0
Core_0_L1I_rfo_miss 0
Core_0_L1I_rfo_MPKI 0
Core_0_L1I_rfo_miss_rate 0
Core_0_L1I_prefetch_access 0
Core_0_L1I_prefetch_hit 0
Core_0_L1I_prefetch_miss 0
Core_0_L1I_prefetch_MPKI 0
Core_0_L1I_prefetch_miss_rate 0
Core_0_L1I_writeback_access 0
Core_0_L1I_writeback_hit 0
Core_0_L1I_writeback_miss 0
Core_0_L1I_writeback_MPKI 0
Core_0_L1I_writeback_miss_rate 0
Core_0_L1I_prefetch_requested 0
Core_0_L1I_prefetch_issued 0
Core_0_L1I_prefetch_useful 0
Core_0_L1I_prefetch_useless 0
Core_0_L1I_prefetch_late 0
Core_0_L1I_prefetch_accuracy 0
Core_0_L1I_prefetch_coverage 0

Core_0_L1D_total_access 12621197
Core_0_L1D_total_hit 9076722
Core_0_L1D_total_miss 3544475
Core_0_L1D_total_MPKI 70.8895
Core_0_L1D_total_miss_rate 0.280835
Core_0_L1D_demand_access 8682192
Core_0_L1D_demand_hit 7918789
Core_0_L1D_demand_miss 763403
Core_0_L1D_demand_MPKI 15.2681
Core_0_L1D_demand_miss_rate 0.0879274
Core_0_L1D_load_access 8682192
Core_0_L1D_load_hit 7918789
Core_0_L1D_load_miss 763403
Core_0_L1D_load_MPKI 15.2681
Core_0_L1D_load_miss_rate 0.0879274
Core_0_L1D_rfo_access 0
Core_0_L1D_rfo_hit 0
Core_0_L1D_rfo_miss 0
Core_0_L1D_rfo_MPKI 0
Core_0_L1D_rfo_miss_rate 0
Core_0_L1D_prefetch_access 1132748
Core_0_L1D_prefetch_hit 472952
Core_0_L1D_prefetch_miss 659796
Core_0_L1D_prefetch_MPKI 13.1959
Core_0_L1D_prefetch_miss_rate 0.582474
Core_0_L1D_writeback_access 2806257
Core_0_L1D_writeback_hit 684981
Core_0_L1D_writeback_miss 2121276
Core_0_L1D_writeback_MPKI 42.4255
Core_0_L1D_writeback_miss_rate 0.755909
Core_0_L1D_prefetch_requested 1394049
Core_0_L1D_prefetch_issued 1132749
Core_0_L1D_prefetch_useful 405837
Core_0_L1D_prefetch_useless 203782
Core_0_L1D_prefetch_late 29982
Core_0_L1D_prefetch_accuracy 0.358276
Core_0_L1D_prefetch_coverage 0.347095

Core_0_L2C_total_access 5235172
Core_0_L2C_total_hit 2678759
Core_0_L2C_total_miss 2556413
Core_0_L2C_total_MPKI 51.1283
Core_0_L2C_total_miss_rate 0.488315
Core_0_L2C_demand_access 817006
Core_0_L2C_demand_hit 291575
Core_0_L2C_demand_miss 525431
Core_0_L2C_demand_MPKI 10.5086
Core_0_L2C_demand_miss_rate 0.643118
Core_0_L2C_load_access 601760
Core_0_L2C_load_hit 290766
Core_0_L2C_load_miss 310994
Core_0_L2C_load_MPKI 6.21988
Core_0_L2C_load_miss_rate 0.516807
Core_0_L2C_rfo_access 215246
Core_0_L2C_rfo_hit 809
Core_0_L2C_rfo_miss 214437
Core_0_L2C_rfo_MPKI 4.28874
Core_0_L2C_rfo_miss_rate 0.996242
Core_0_L2C_prefetch_access 4202719
Core_0_L2C_prefetch_hit 2171741
Core_0_L2C_prefetch_miss 2030978
Core_0_L2C_prefetch_MPKI 40.6196
Core_0_L2C_prefetch_miss_rate 0.483253
Core_0_L2C_writeback_access 215447
Core_0_L2C_writeback_hit 215443
Core_0_L2C_writeback_miss 4
Core_0_L2C_writeback_MPKI 8e-05
Core_0_L2C_writeback_miss_rate 1.85661e-05
Core_0_L2C_prefetch_requested 3758311
Core_0_L2C_prefetch_issued 3593020
Core_0_L2C_prefetch_useful 508558
Core_0_L2C_prefetch_useless 436028
Core_0_L2C_prefetch_late 127747
Core_0_L2C_prefetch_accuracy 0.141541
Core_0_L2C_prefetch_coverage 0.491841

Core_0_LLC_total_access 1646161
Core_0_LLC_total_hit 43243
Core_0_LLC_total_miss 1602918
Core_0_LLC_total_MPKI 32.0584
Core_0_LLC_total_miss_rate 0.973731
Core_0_LLC_demand_access 397684
Core_0_LLC_demand_hit 724
Core_0_LLC_demand_miss 396960
Core_0_LLC_demand_MPKI 7.9392
Core_0_LLC_demand_miss_rate 0.998179
Core_0_LLC_load_access 183247
Core_0_LLC_load_hit 646
Core_0_LLC_load_miss 182601
Core_0_LLC_load_MPKI 3.65202
Core_0_LLC_load_miss_rate 0.996475
Core_0_LLC_rfo_access 214437
Core_0_LLC_rfo_hit 78
Core_0_LLC_rfo_miss 214359
Core_0_LLC_rfo_MPKI 4.28718
Core_0_LLC_rfo_miss_rate 0.999636
Core_0_LLC_prefetch_access 1032825
Core_0_LLC_prefetch_hit 6863
Core_0_LLC_prefetch_miss 1025962
Core_0_LLC_prefetch_MPKI 20.5192
Core_0_LLC_prefetch_miss_rate 0.993355
Core_0_LLC_writeback_access 215652
Core_0_LLC_writeback_hit 35656
Core_0_LLC_writeback_miss 179996
Core_0_LLC_writeback_MPKI 3.59992
Core_0_LLC_writeback_miss_rate 0.83466
Core_0_LLC_prefetch_requested 0
Core_0_LLC_prefetch_issued 0
Core_0_LLC_prefetch_useful 0
Core_0_LLC_prefetch_useless 0
Core_0_LLC_prefetch_late 0
Core_0_LLC_prefetch_accuracy 0
Core_0_LLC_prefetch_coverage 0

[DRAM Statistics]
Channel_0_RQ_row_buffer_hit 294666
Channel_0_RQ_row_buffer_miss 1132016
Channel_0_WQ_row_buffer_hit 9166
Channel_0_WQ_row_buffer_miss 200313
Channel_0_WQ_full 0
Channel_0_dbus_congested 4702585
DRAM_total_RQ_row_buffer_hit 294666
DRAM_total_RQ_row_buffer_miss 1132016
DRAM_total_WQ_row_buffer_hit 9166
DRAM_total_WQ_row_buffer_miss 200313
DRAM_total_WQ_full 0
DRAM_total_dbus_congested 4702585
DRAM_avg_congested_cycle 5.54169

======STLB miss causes ========
Core_0_STLB_miss_cause_breakdown
Core_0_STLB_cause_Demand_Data_miss 22257
Core_0_STLB_cause_Demand_Data_miss_rate 0.774291
Core_0_STLB_cause_Demand_Instruction_miss 3
Core_0_STLB_cause_Demand_Instruction_miss_rate 0.000104366
Core_0_STLB_cause_L1D_Prefetch_miss 5305
Core_0_STLB_cause_L1D_Prefetch_miss_rate 0.184554
Core_0_STLB_cause_L1I_Prefetch_miss 0
Core_0_STLB_cause_L1I_Prefetch_miss_rate 0
Core_0_STLB_cause_Other_miss 0
Core_0_STLB_cause_Other_miss_rate 0
Core_0_STLB_Demand_miss 22260
Core_0_STLB_Demand_miss_rate 0.774396
Core_0_STLB_L1D_Prefetch_miss 5305
Core_0_STLB_L1D_Prefetch_miss_rate 0.184554
Core_0_STLB_Other_miss 0
Core_0_STLB_Other_miss_rate 0
