[VMEM] WARNING: physical memory size is smaller than virtual memory size.

*** ChampSim Multicore Out-of-Order Simulator ***
Warmup Instructions: 20000000
Simulation Instructions: 50000000
Number of CPUs: 1
Page size: 4096
Core 0: /data0/tzh/champsim_traces/Ligra/ligra_BFSCC.com-lj.ungraph.gcc_6.3.0_O3.drop_6750M.length_250M.champsimtrace.xz
 L1D Berti prefetcher
Off-chip DRAM Size: 16 GiB Channels: 1 Width: 64-bit Data Rate: 3205 MT/s
Warmup halting CPU 0 at instruction 20000001 cycle 4493754 for remainder of phase
Warmup finished CPU 0 instructions: 20000001 cycles: 4493754 cumulative IPC: 4.451 (Simulation time: 00 hr 00 min 37 sec)
Warmup complete CPU 0 instructions: 20000001 cycles: 4493754 cumulative IPC: 4.451 (Simulation time: 00 hr 00 min 37 sec)
Simulation finished CPU 0 instructions: 50000004 cycles: 17084045 cumulative IPC: 2.927 (Simulation time: 00 hr 03 min 11 sec)
Simulation complete CPU 0 instructions: 50000004 cycles: 17084045 cumulative IPC: 2.927 (Simulation time: 00 hr 03 min 11 sec)

ChampSim completed all CPUs

=== Simulation ===
CPU 0 runs /data0/tzh/champsim_traces/Ligra/ligra_BFSCC.com-lj.ungraph.gcc_6.3.0_O3.drop_6750M.length_250M.champsimtrace.xz

Region of Interest Statistics

CPU 0 cumulative IPC: 2.927 instructions: 50000004 cycles: 17084045
CPU 0 Branch Prediction Accuracy: 99.51% MPKI: 1.49 Average ROB Occupancy at Mispredict: 209.3
Branch type MPKI
BRANCH_DIRECT_JUMP: 0
BRANCH_INDIRECT: 0
BRANCH_CONDITIONAL: 1.49
BRANCH_DIRECT_CALL: 0
BRANCH_INDIRECT_CALL: 0
BRANCH_RETURN: 0

cpu0->cpu0_STLB TOTAL        ACCESS:        964 HIT:          0 MISS:        964 MSHR_MERGE:          0
cpu0->cpu0_STLB LOAD         ACCESS:        964 HIT:          0 MISS:        964 MSHR_MERGE:          0
cpu0->cpu0_STLB RFO          ACCESS:          0 HIT:          0 MISS:          0 MSHR_MERGE:          0
cpu0->cpu0_STLB PREFETCH     ACCESS:          0 HIT:          0 MISS:          0 MSHR_MERGE:          0
cpu0->cpu0_STLB WRITE        ACCESS:          0 HIT:          0 MISS:          0 MSHR_MERGE:          0
cpu0->cpu0_STLB TRANSLATION  ACCESS:          0 HIT:          0 MISS:          0 MSHR_MERGE:          0
cpu0->cpu0_STLB PREFETCH REQUESTED:          0 ISSUED:          0 USEFUL:          0 USELESS:          0 LATE:          0
cpu0->cpu0_STLB AVERAGE MISS LATENCY: 236 cycles
cpu0->cpu0_L2C TOTAL        ACCESS:     330382 HIT:     267539 MISS:      62843 MSHR_MERGE:       1019
cpu0->cpu0_L2C LOAD         ACCESS:        780 HIT:          0 MISS:        780 MSHR_MERGE:          0
cpu0->cpu0_L2C RFO          ACCESS:      11753 HIT:          0 MISS:      11753 MSHR_MERGE:          0
cpu0->cpu0_L2C PREFETCH     ACCESS:     305983 HIT:     255795 MISS:      50188 MSHR_MERGE:       1019
cpu0->cpu0_L2C WRITE        ACCESS:      11744 HIT:      11744 MISS:          0 MSHR_MERGE:          0
cpu0->cpu0_L2C TRANSLATION  ACCESS:        122 HIT:          0 MISS:        122 MSHR_MERGE:          0
cpu0->cpu0_L2C PREFETCH REQUESTED:     256813 ISSUED:     256813 USEFUL:      48379 USELESS:         55 LATE:          0
cpu0->cpu0_L2C AVERAGE MISS LATENCY: 198.9 cycles
cpu0->cpu0_L1I TOTAL        ACCESS:      54196 HIT:      54196 MISS:          0 MSHR_MERGE:          0
cpu0->cpu0_L1I LOAD         ACCESS:      54196 HIT:      54196 MISS:          0 MSHR_MERGE:          0
cpu0->cpu0_L1I RFO          ACCESS:          0 HIT:          0 MISS:          0 MSHR_MERGE:          0
cpu0->cpu0_L1I PREFETCH     ACCESS:          0 HIT:          0 MISS:          0 MSHR_MERGE:          0
cpu0->cpu0_L1I WRITE        ACCESS:          0 HIT:          0 MISS:          0 MSHR_MERGE:          0
cpu0->cpu0_L1I TRANSLATION  ACCESS:          0 HIT:          0 MISS:          0 MSHR_MERGE:          0
cpu0->cpu0_L1I PREFETCH REQUESTED:          0 ISSUED:          0 USEFUL:          0 USELESS:          0 LATE:          0
cpu0->cpu0_L1I AVERAGE MISS LATENCY: - cycles
cpu0->cpu0_L1D TOTAL        ACCESS:    6136156 HIT:    6049215 MISS:      86941 MSHR_MERGE:      25116
cpu0->cpu0_L1D LOAD         ACCESS:    3828427 HIT:    3826045 MISS:       2382 MSHR_MERGE:       1602
cpu0->cpu0_L1D RFO          ACCESS:          0 HIT:          0 MISS:          0 MSHR_MERGE:          0
cpu0->cpu0_L1D PREFETCH     ACCESS:      49211 HIT:         41 MISS:      49170 MSHR_MERGE:          0
cpu0->cpu0_L1D WRITE        ACCESS:    2256588 HIT:    2221321 MISS:      35267 MSHR_MERGE:      23514
cpu0->cpu0_L1D TRANSLATION  ACCESS:       1930 HIT:       1808 MISS:        122 MSHR_MERGE:          0
cpu0->cpu0_L1D PREFETCH REQUESTED:      49211 ISSUED:      49211 USEFUL:      49170 USELESS:          0 LATE:          0
cpu0->cpu0_L1D AVERAGE MISS LATENCY: 207.9 cycles
cpu0->cpu0_ITLB TOTAL        ACCESS:      51592 HIT:      51592 MISS:          0 MSHR_MERGE:          0
cpu0->cpu0_ITLB LOAD         ACCESS:      51592 HIT:      51592 MISS:          0 MSHR_MERGE:          0
cpu0->cpu0_ITLB RFO          ACCESS:          0 HIT:          0 MISS:          0 MSHR_MERGE:          0
cpu0->cpu0_ITLB PREFETCH     ACCESS:          0 HIT:          0 MISS:          0 MSHR_MERGE:          0
cpu0->cpu0_ITLB WRITE        ACCESS:          0 HIT:          0 MISS:          0 MSHR_MERGE:          0
cpu0->cpu0_ITLB TRANSLATION  ACCESS:          0 HIT:          0 MISS:          0 MSHR_MERGE:          0
cpu0->cpu0_ITLB PREFETCH REQUESTED:          0 ISSUED:          0 USEFUL:          0 USELESS:          0 LATE:          0
cpu0->cpu0_ITLB AVERAGE MISS LATENCY: - cycles
cpu0->cpu0_DTLB TOTAL        ACCESS:    5922912 HIT:    5919929 MISS:       2983 MSHR_MERGE:       2019
cpu0->cpu0_DTLB LOAD         ACCESS:    5922912 HIT:    5919929 MISS:       2983 MSHR_MERGE:       2019
cpu0->cpu0_DTLB RFO          ACCESS:          0 HIT:          0 MISS:          0 MSHR_MERGE:          0
cpu0->cpu0_DTLB PREFETCH     ACCESS:          0 HIT:          0 MISS:          0 MSHR_MERGE:          0
cpu0->cpu0_DTLB WRITE        ACCESS:          0 HIT:          0 MISS:          0 MSHR_MERGE:          0
cpu0->cpu0_DTLB TRANSLATION  ACCESS:          0 HIT:          0 MISS:          0 MSHR_MERGE:          0
cpu0->cpu0_DTLB PREFETCH REQUESTED:          0 ISSUED:          0 USEFUL:          0 USELESS:          0 LATE:          0
cpu0->cpu0_DTLB AVERAGE MISS LATENCY: 242 cycles
cpu0->LLC TOTAL        ACCESS:      73546 HIT:       4908 MISS:      68638 MSHR_MERGE:          0
cpu0->LLC LOAD         ACCESS:        780 HIT:          0 MISS:        780 MSHR_MERGE:          0
cpu0->LLC RFO          ACCESS:      11753 HIT:          0 MISS:      11753 MSHR_MERGE:          0
cpu0->LLC PREFETCH     ACCESS:      49169 HIT:          0 MISS:      49169 MSHR_MERGE:          0
cpu0->LLC WRITE        ACCESS:      11722 HIT:       4907 MISS:       6815 MSHR_MERGE:          0
cpu0->LLC TRANSLATION  ACCESS:        122 HIT:          1 MISS:        121 MSHR_MERGE:          0
cpu0->LLC PREFETCH REQUESTED:          0 ISSUED:          0 USEFUL:          0 USELESS:          0 LATE:          0
cpu0->LLC AVERAGE MISS LATENCY: 122.1 cycles

DRAM Statistics

Channel 0 RQ ROW_BUFFER_HIT:          3
  ROW_BUFFER_MISS:      61820
  AVG DBUS CONGESTED CYCLE: 7.697
Channel 0 WQ ROW_BUFFER_HIT:        163
  ROW_BUFFER_MISS:       1090
  FULL:          0
Channel 0 REFRESHES ISSUED:       1424

[ROI Statistics]
[System Configuration]
num_cpus 1
cpu_freq 4000
fetch_width 6
decode_width 6
dispatch_width 6
execute_width 6
lq_width 2
sq_width 2
retire_width 6
scheduler_size 128
branch_mispredict_penalty 15
rob_size 352
lq_size 128
sq_size 72
ifetch_buffer_size 64
decode_buffer_size 32
dispatch_buffer_size 32
register_file_size 288
decode_latency 1
dispatch_latency 1
schedule_latency 1
execute_latency 1
page_size 4096
block_size 64
core_0_itlb_set 16
core_0_itlb_way 4
core_0_itlb_rq_size 16
core_0_itlb_wq_size 16
core_0_itlb_pq_size 0
core_0_itlb_mshr_size 8
core_0_itlb_hit_latency 1
core_0_itlb_fill_latency 1
core_0_itlb_max_tag_check 2
core_0_itlb_max_fill 2
core_0_dtlb_set 16
core_0_dtlb_way 4
core_0_dtlb_rq_size 16
core_0_dtlb_wq_size 16
core_0_dtlb_pq_size 0
core_0_dtlb_mshr_size 8
core_0_dtlb_hit_latency 1
core_0_dtlb_fill_latency 1
core_0_dtlb_max_tag_check 2
core_0_dtlb_max_fill 2
core_0_stlb_set 128
core_0_stlb_way 12
core_0_stlb_rq_size 32
core_0_stlb_wq_size 32
core_0_stlb_pq_size 0
core_0_stlb_mshr_size 16
core_0_stlb_hit_latency 4
core_0_stlb_fill_latency 4
core_0_stlb_max_tag_check 1
core_0_stlb_max_fill 1
core_0_l1i_set 64
core_0_l1i_way 8
core_0_l1i_rq_size 64
core_0_l1i_wq_size 64
core_0_l1i_pq_size 32
core_0_l1i_mshr_size 8
core_0_l1i_hit_latency 2
core_0_l1i_fill_latency 2
core_0_l1i_max_tag_check 2
core_0_l1i_max_fill 2
core_0_l1d_set 64
core_0_l1d_way 12
core_0_l1d_rq_size 64
core_0_l1d_wq_size 64
core_0_l1d_pq_size 8
core_0_l1d_mshr_size 16
core_0_l1d_hit_latency 2
core_0_l1d_fill_latency 3
core_0_l1d_max_tag_check 2
core_0_l1d_max_fill 2
core_0_l2c_set 1024
core_0_l2c_way 8
core_0_l2c_rq_size 32
core_0_l2c_wq_size 32
core_0_l2c_pq_size 16
core_0_l2c_mshr_size 32
core_0_l2c_hit_latency 5
core_0_l2c_fill_latency 5
core_0_l2c_max_tag_check 1
core_0_l2c_max_fill 1
llc_set 2048
llc_way 16
llc_rq_size 32
llc_wq_size 32
llc_pq_size 32
llc_mshr_size 64
llc_hit_latency 10
llc_fill_latency 10
llc_max_tag_check 1
llc_max_fill 1
dram_channels 1
dram_ranks 1
dram_bankgroups 8
dram_banks 4
dram_rows 65536
dram_columns 1024
dram_channel_width 8
dram_rq_size 64
dram_wq_size 64
dram_size 17179869184
core_0_itlb_prefetcher no
core_0_dtlb_prefetcher no
core_0_stlb_prefetcher no
core_0_l1i_prefetcher next_line
core_0_l1d_prefetcher berti
core_0_l2c_prefetcher pythia
llc_prefetcher no
llc_replacement drrip

Core_0_instructions 50000004
Core_0_cycles 17084045
Core_0_IPC 2.92671
Core_0_branch_prediction_accuracy 99.5135
Core_0_branch_MPKI 1.4901
Core_0_average_ROB_occupancy_at_mispredict 209.321

Core_0_ITLB_total_access 51592
Core_0_ITLB_total_hit 51592
Core_0_ITLB_total_miss 0
Core_0_ITLB_total_MPKI 0
Core_0_ITLB_total_miss_rate 0
Core_0_ITLB_demand_access 51592
Core_0_ITLB_demand_hit 51592
Core_0_ITLB_demand_miss 0
Core_0_ITLB_demand_MPKI 0
Core_0_ITLB_demand_miss_rate 0
Core_0_ITLB_load_access 51592
Core_0_ITLB_load_hit 51592
Core_0_ITLB_load_miss 0
Core_0_ITLB_load_MPKI 0
Core_0_ITLB_load_miss_rate 0
Core_0_ITLB_rfo_access 0
Core_0_ITLB_rfo_hit 0
Core_0_ITLB_rfo_miss 0
Core_0_ITLB_rfo_MPKI 0
Core_0_ITLB_rfo_miss_rate 0
Core_0_ITLB_prefetch_access 0
Core_0_ITLB_prefetch_hit 0
Core_0_ITLB_prefetch_miss 0
Core_0_ITLB_prefetch_MPKI 0
Core_0_ITLB_prefetch_miss_rate 0
Core_0_ITLB_writeback_access 0
Core_0_ITLB_writeback_hit 0
Core_0_ITLB_writeback_miss 0
Core_0_ITLB_writeback_MPKI 0
Core_0_ITLB_writeback_miss_rate 0
Core_0_ITLB_prefetch_requested 0
Core_0_ITLB_prefetch_issued 0
Core_0_ITLB_prefetch_useful 0
Core_0_ITLB_prefetch_useless 0
Core_0_ITLB_prefetch_late 0
Core_0_ITLB_prefetch_accuracy 0
Core_0_ITLB_prefetch_coverage 0

Core_0_DTLB_total_access 5922912
Core_0_DTLB_total_hit 5919929
Core_0_DTLB_total_miss 2983
Core_0_DTLB_total_MPKI 0.05966
Core_0_DTLB_total_miss_rate 0.000503637
Core_0_DTLB_demand_access 5922912
Core_0_DTLB_demand_hit 5919929
Core_0_DTLB_demand_miss 2983
Core_0_DTLB_demand_MPKI 0.05966
Core_0_DTLB_demand_miss_rate 0.000503637
Core_0_DTLB_load_access 5922912
Core_0_DTLB_load_hit 5919929
Core_0_DTLB_load_miss 2983
Core_0_DTLB_load_MPKI 0.05966
Core_0_DTLB_load_miss_rate 0.000503637
Core_0_DTLB_rfo_access 0
Core_0_DTLB_rfo_hit 0
Core_0_DTLB_rfo_miss 0
Core_0_DTLB_rfo_MPKI 0
Core_0_DTLB_rfo_miss_rate 0
Core_0_DTLB_prefetch_access 0
Core_0_DTLB_prefetch_hit 0
Core_0_DTLB_prefetch_miss 0
Core_0_DTLB_prefetch_MPKI 0
Core_0_DTLB_prefetch_miss_rate 0
Core_0_DTLB_writeback_access 0
Core_0_DTLB_writeback_hit 0
Core_0_DTLB_writeback_miss 0
Core_0_DTLB_writeback_MPKI 0
Core_0_DTLB_writeback_miss_rate 0
Core_0_DTLB_prefetch_requested 0
Core_0_DTLB_prefetch_issued 0
Core_0_DTLB_prefetch_useful 0
Core_0_DTLB_prefetch_useless 0
Core_0_DTLB_prefetch_late 0
Core_0_DTLB_prefetch_accuracy 0
Core_0_DTLB_prefetch_coverage 0

Core_0_STLB_total_access 964
Core_0_STLB_total_hit 0
Core_0_STLB_total_miss 964
Core_0_STLB_total_MPKI 0.01928
Core_0_STLB_total_miss_rate 1
Core_0_STLB_demand_access 964
Core_0_STLB_demand_hit 0
Core_0_STLB_demand_miss 964
Core_0_STLB_demand_MPKI 0.01928
Core_0_STLB_demand_miss_rate 1
Core_0_STLB_load_access 964
Core_0_STLB_load_hit 0
Core_0_STLB_load_miss 964
Core_0_STLB_load_MPKI 0.01928
Core_0_STLB_load_miss_rate 1
Core_0_STLB_rfo_access 0
Core_0_STLB_rfo_hit 0
Core_0_STLB_rfo_miss 0
Core_0_STLB_rfo_MPKI 0
Core_0_STLB_rfo_miss_rate 0
Core_0_STLB_prefetch_access 0
Core_0_STLB_prefetch_hit 0
Core_0_STLB_prefetch_miss 0
Core_0_STLB_prefetch_MPKI 0
Core_0_STLB_prefetch_miss_rate 0
Core_0_STLB_writeback_access 0
Core_0_STLB_writeback_hit 0
Core_0_STLB_writeback_miss 0
Core_0_STLB_writeback_MPKI 0
Core_0_STLB_writeback_miss_rate 0
Core_0_STLB_prefetch_requested 0
Core_0_STLB_prefetch_issued 0
Core_0_STLB_prefetch_useful 0
Core_0_STLB_prefetch_useless 0
Core_0_STLB_prefetch_late 0
Core_0_STLB_prefetch_accuracy 0
Core_0_STLB_prefetch_coverage 0

Core_0_L1I_total_access 54196
Core_0_L1I_total_hit 54196
Core_0_L1I_total_miss 0
Core_0_L1I_total_MPKI 0
Core_0_L1I_total_miss_rate 0
Core_0_L1I_demand_access 54196
Core_0_L1I_demand_hit 54196
Core_0_L1I_demand_miss 0
Core_0_L1I_demand_MPKI 0
Core_0_L1I_demand_miss_rate 0
Core_0_L1I_load_access 54196
Core_0_L1I_load_hit 54196
Core_0_L1I_load_miss 0
Core_0_L1I_load_MPKI 0
Core_0_L1I_load_miss_rate 0
Core_0_L1I_rfo_access 0
Core_0_L1I_rfo_hit 0
Core_0_L1I_rfo_miss 0
Core_0_L1I_rfo_MPKI 0
Core_0_L1I_rfo_miss_rate 0
Core_0_L1I_prefetch_access 0
Core_0_L1I_prefetch_hit 0
Core_0_L1I_prefetch_miss 0
Core_0_L1I_prefetch_MPKI 0
Core_0_L1I_prefetch_miss_rate 0
Core_0_L1I_writeback_access 0
Core_0_L1I_writeback_hit 0
Core_0_L1I_writeback_miss 0
Core_0_L1I_writeback_MPKI 0
Core_0_L1I_writeback_miss_rate 0
Core_0_L1I_prefetch_requested 0
Core_0_L1I_prefetch_issued 0
Core_0_L1I_prefetch_useful 0
Core_0_L1I_prefetch_useless 0
Core_0_L1I_prefetch_late 0
Core_0_L1I_prefetch_accuracy 0
Core_0_L1I_prefetch_coverage 0

Core_0_L1D_total_access 6134226
Core_0_L1D_total_hit 6047407
Core_0_L1D_total_miss 86819
Core_0_L1D_total_MPKI 1.73638
Core_0_L1D_total_miss_rate 0.0141532
Core_0_L1D_demand_access 3828427
Core_0_L1D_demand_hit 3826045
Core_0_L1D_demand_miss 2382
Core_0_L1D_demand_MPKI 0.04764
Core_0_L1D_demand_miss_rate 0.000622188
Core_0_L1D_load_access 3828427
Core_0_L1D_load_hit 3826045
Core_0_L1D_load_miss 2382
Core_0_L1D_load_MPKI 0.04764
Core_0_L1D_load_miss_rate 0.000622188
Core_0_L1D_rfo_access 0
Core_0_L1D_rfo_hit 0
Core_0_L1D_rfo_miss 0
Core_0_L1D_rfo_MPKI 0
Core_0_L1D_rfo_miss_rate 0
Core_0_L1D_prefetch_access 49211
Core_0_L1D_prefetch_hit 41
Core_0_L1D_prefetch_miss 49170
Core_0_L1D_prefetch_MPKI 0.9834
Core_0_L1D_prefetch_miss_rate 0.999167
Core_0_L1D_writeback_access 2256588
Core_0_L1D_writeback_hit 2221321
Core_0_L1D_writeback_miss 35267
Core_0_L1D_writeback_MPKI 0.70534
Core_0_L1D_writeback_miss_rate 0.0156285
Core_0_L1D_prefetch_requested 49211
Core_0_L1D_prefetch_issued 49211
Core_0_L1D_prefetch_useful 49170
Core_0_L1D_prefetch_useless 0
Core_0_L1D_prefetch_late 0
Core_0_L1D_prefetch_accuracy 0.999167
Core_0_L1D_prefetch_coverage 0.953794

Core_0_L2C_total_access 330260
Core_0_L2C_total_hit 267539
Core_0_L2C_total_miss 62721
Core_0_L2C_total_MPKI 1.25442
Core_0_L2C_total_miss_rate 0.189914
Core_0_L2C_demand_access 12533
Core_0_L2C_demand_hit 0
Core_0_L2C_demand_miss 12533
Core_0_L2C_demand_MPKI 0.25066
Core_0_L2C_demand_miss_rate 1
Core_0_L2C_load_access 780
Core_0_L2C_load_hit 0
Core_0_L2C_load_miss 780
Core_0_L2C_load_MPKI 0.0156
Core_0_L2C_load_miss_rate 1
Core_0_L2C_rfo_access 11753
Core_0_L2C_rfo_hit 0
Core_0_L2C_rfo_miss 11753
Core_0_L2C_rfo_MPKI 0.23506
Core_0_L2C_rfo_miss_rate 1
Core_0_L2C_prefetch_access 305983
Core_0_L2C_prefetch_hit 255795
Core_0_L2C_prefetch_miss 50188
Core_0_L2C_prefetch_MPKI 1.00376
Core_0_L2C_prefetch_miss_rate 0.164022
Core_0_L2C_writeback_access 11744
Core_0_L2C_writeback_hit 11744
Core_0_L2C_writeback_miss 0
Core_0_L2C_writeback_MPKI 0
Core_0_L2C_writeback_miss_rate 0
Core_0_L2C_prefetch_requested 256813
Core_0_L2C_prefetch_issued 256813
Core_0_L2C_prefetch_useful 48379
Core_0_L2C_prefetch_useless 55
Core_0_L2C_prefetch_late 0
Core_0_L2C_prefetch_accuracy 0.188382
Core_0_L2C_prefetch_coverage 0.794244

Core_0_LLC_total_access 73424
Core_0_LLC_total_hit 4907
Core_0_LLC_total_miss 68517
Core_0_LLC_total_MPKI 1.37034
Core_0_LLC_total_miss_rate 0.933169
Core_0_LLC_demand_access 12533
Core_0_LLC_demand_hit 0
Core_0_LLC_demand_miss 12533
Core_0_LLC_demand_MPKI 0.25066
Core_0_LLC_demand_miss_rate 1
Core_0_LLC_load_access 780
Core_0_LLC_load_hit 0
Core_0_LLC_load_miss 780
Core_0_LLC_load_MPKI 0.0156
Core_0_LLC_load_miss_rate 1
Core_0_LLC_rfo_access 11753
Core_0_LLC_rfo_hit 0
Core_0_LLC_rfo_miss 11753
Core_0_LLC_rfo_MPKI 0.23506
Core_0_LLC_rfo_miss_rate 1
Core_0_LLC_prefetch_access 49169
Core_0_LLC_prefetch_hit 0
Core_0_LLC_prefetch_miss 49169
Core_0_LLC_prefetch_MPKI 0.98338
Core_0_LLC_prefetch_miss_rate 1
Core_0_LLC_writeback_access 11722
Core_0_LLC_writeback_hit 4907
Core_0_LLC_writeback_miss 6815
Core_0_LLC_writeback_MPKI 0.1363
Core_0_LLC_writeback_miss_rate 0.581385
Core_0_LLC_prefetch_requested 0
Core_0_LLC_prefetch_issued 0
Core_0_LLC_prefetch_useful 0
Core_0_LLC_prefetch_useless 0
Core_0_LLC_prefetch_late 0
Core_0_LLC_prefetch_accuracy 0
Core_0_LLC_prefetch_coverage 0

[DRAM Statistics]
Channel_0_RQ_row_buffer_hit 3
Channel_0_RQ_row_buffer_miss 61820
Channel_0_WQ_row_buffer_hit 163
Channel_0_WQ_row_buffer_miss 1090
Channel_0_WQ_full 0
Channel_0_dbus_congested 28421
DRAM_total_RQ_row_buffer_hit 3
DRAM_total_RQ_row_buffer_miss 61820
DRAM_total_WQ_row_buffer_hit 163
DRAM_total_WQ_row_buffer_miss 1090
DRAM_total_WQ_full 0
DRAM_total_dbus_congested 28421
DRAM_avg_congested_cycle 7.69653

======STLB miss causes ========
Core_0_STLB_miss_cause_breakdown
Core_0_STLB_cause_Demand_Data_miss 964
Core_0_STLB_cause_Demand_Data_miss_rate 1
Core_0_STLB_cause_Demand_Instruction_miss 0
Core_0_STLB_cause_Demand_Instruction_miss_rate 0
Core_0_STLB_cause_L1D_Prefetch_miss 0
Core_0_STLB_cause_L1D_Prefetch_miss_rate 0
Core_0_STLB_cause_L1I_Prefetch_miss 0
Core_0_STLB_cause_L1I_Prefetch_miss_rate 0
Core_0_STLB_cause_Other_miss 0
Core_0_STLB_cause_Other_miss_rate 0
Core_0_STLB_Demand_miss 964
Core_0_STLB_Demand_miss_rate 1
Core_0_STLB_L1D_Prefetch_miss 0
Core_0_STLB_L1D_Prefetch_miss_rate 0
Core_0_STLB_Other_miss 0
Core_0_STLB_Other_miss_rate 0
