[VMEM] WARNING: physical memory size is smaller than virtual memory size.

*** ChampSim Multicore Out-of-Order Simulator ***
Warmup Instructions: 100000000
Simulation Instructions: 200000000
Number of CPUs: 1
Page size: 4096
STLB ideal mode: demand
Core 0: /data0/tzh/champsim_traces/GAP/gap.cc.twitter-10B.champsimtrace.xz
 L1D Berti prefetcher
Off-chip DRAM Size: 16 GiB Channels: 1 Width: 64-bit Data Rate: 3205 MT/s
Warmup halting CPU 0 at instruction 100000004 cycle 22504056 for remainder of phase
Warmup finished CPU 0 instructions: 100000004 cycles: 22504056 cumulative IPC: 4.444 (Simulation time: 00 hr 04 min 14 sec)
Warmup complete CPU 0 instructions: 100000004 cycles: 22504056 cumulative IPC: 4.444 (Simulation time: 00 hr 04 min 14 sec)
Simulation finished CPU 0 instructions: 200000002 cycles: 223270727 cumulative IPC: 0.8958 (Simulation time: 00 hr 24 min 04 sec)
Simulation complete CPU 0 instructions: 200000002 cycles: 223270727 cumulative IPC: 0.8958 (Simulation time: 00 hr 24 min 04 sec)

ChampSim completed all CPUs

=== Simulation ===
CPU 0 runs /data0/tzh/champsim_traces/GAP/gap.cc.twitter-10B.champsimtrace.xz

Region of Interest Statistics

CPU 0 cumulative IPC: 0.8958 instructions: 200000002 cycles: 223270727
CPU 0 Branch Prediction Accuracy: 94.14% MPKI: 17 Average ROB Occupancy at Mispredict: 24.81
Branch type MPKI
BRANCH_DIRECT_JUMP: 0.00051
BRANCH_INDIRECT: 0
BRANCH_CONDITIONAL: 17
BRANCH_DIRECT_CALL: 0.000105
BRANCH_INDIRECT_CALL: 0
BRANCH_RETURN: 0.00012

cpu0->cpu0_STLB TOTAL        ACCESS:     341944 HIT:     339254 MISS:       2690 MSHR_MERGE:          0
cpu0->cpu0_STLB LOAD         ACCESS:     341944 HIT:     339254 MISS:       2690 MSHR_MERGE:          0
cpu0->cpu0_STLB RFO          ACCESS:          0 HIT:          0 MISS:          0 MSHR_MERGE:          0
cpu0->cpu0_STLB PREFETCH     ACCESS:          0 HIT:          0 MISS:          0 MSHR_MERGE:          0
cpu0->cpu0_STLB WRITE        ACCESS:          0 HIT:          0 MISS:          0 MSHR_MERGE:          0
cpu0->cpu0_STLB TRANSLATION  ACCESS:          0 HIT:          0 MISS:          0 MSHR_MERGE:          0
cpu0->cpu0_STLB PREFETCH REQUESTED:          0 ISSUED:          0 USEFUL:          0 USELESS:          0 LATE:          0
cpu0->cpu0_STLB AVERAGE MISS LATENCY: 254.6 cycles
cpu0->cpu0_L2C TOTAL        ACCESS:   11680271 HIT:    8295477 MISS:    3384794 MSHR_MERGE:    1174413
cpu0->cpu0_L2C LOAD         ACCESS:     368764 HIT:     111676 MISS:     257088 MSHR_MERGE:        411
cpu0->cpu0_L2C RFO          ACCESS:        237 HIT:          9 MISS:        228 MSHR_MERGE:          2
cpu0->cpu0_L2C PREFETCH     ACCESS:   10411823 HIT:    7287558 MISS:    3124265 MSHR_MERGE:    1174000
cpu0->cpu0_L2C WRITE        ACCESS:     895720 HIT:     895686 MISS:         34 MSHR_MERGE:          0
cpu0->cpu0_L2C TRANSLATION  ACCESS:       3727 HIT:        548 MISS:       3179 MSHR_MERGE:          0
cpu0->cpu0_L2C PREFETCH REQUESTED:    8679246 ISSUED:    8458156 USEFUL:    1784508 USELESS:      61436 LATE:        413
cpu0->cpu0_L2C AVERAGE MISS LATENCY: 176 cycles
cpu0->cpu0_L1I TOTAL        ACCESS:    1446263 HIT:    1446098 MISS:        165 MSHR_MERGE:         25
cpu0->cpu0_L1I LOAD         ACCESS:    1446263 HIT:    1446098 MISS:        165 MSHR_MERGE:         25
cpu0->cpu0_L1I RFO          ACCESS:          0 HIT:          0 MISS:          0 MSHR_MERGE:          0
cpu0->cpu0_L1I PREFETCH     ACCESS:          0 HIT:          0 MISS:          0 MSHR_MERGE:          0
cpu0->cpu0_L1I WRITE        ACCESS:          0 HIT:          0 MISS:          0 MSHR_MERGE:          0
cpu0->cpu0_L1I TRANSLATION  ACCESS:          0 HIT:          0 MISS:          0 MSHR_MERGE:          0
cpu0->cpu0_L1I PREFETCH REQUESTED:          0 ISSUED:          0 USEFUL:          0 USELESS:          0 LATE:          0
cpu0->cpu0_L1I AVERAGE MISS LATENCY: 224 cycles
cpu0->cpu0_L1D TOTAL        ACCESS:   46135642 HIT:   43255449 MISS:    2880193 MSHR_MERGE:     553936
cpu0->cpu0_L1D LOAD         ACCESS:   40572046 HIT:   39660601 MISS:     911445 MSHR_MERGE:     542821
cpu0->cpu0_L1D RFO          ACCESS:          0 HIT:          0 MISS:          0 MSHR_MERGE:          0
cpu0->cpu0_L1D PREFETCH     ACCESS:    2087975 HIT:     131172 MISS:    1956803 MSHR_MERGE:       3134
cpu0->cpu0_L1D WRITE        ACCESS:    3469109 HIT:    3460893 MISS:       8216 MSHR_MERGE:       7979
cpu0->cpu0_L1D TRANSLATION  ACCESS:       6512 HIT:       2783 MISS:       3729 MSHR_MERGE:          2
cpu0->cpu0_L1D PREFETCH REQUESTED:    2088097 ISSUED:    2087969 USEFUL:    1899941 USELESS:      53757 LATE:      48233
cpu0->cpu0_L1D AVERAGE MISS LATENCY: 133.9 cycles
cpu0->cpu0_ITLB TOTAL        ACCESS:    1443785 HIT:    1443762 MISS:         23 MSHR_MERGE:          8
cpu0->cpu0_ITLB LOAD         ACCESS:    1443785 HIT:    1443762 MISS:         23 MSHR_MERGE:          8
cpu0->cpu0_ITLB RFO          ACCESS:          0 HIT:          0 MISS:          0 MSHR_MERGE:          0
cpu0->cpu0_ITLB PREFETCH     ACCESS:          0 HIT:          0 MISS:          0 MSHR_MERGE:          0
cpu0->cpu0_ITLB WRITE        ACCESS:          0 HIT:          0 MISS:          0 MSHR_MERGE:          0
cpu0->cpu0_ITLB TRANSLATION  ACCESS:          0 HIT:          0 MISS:          0 MSHR_MERGE:          0
cpu0->cpu0_ITLB PREFETCH REQUESTED:          0 ISSUED:          0 USEFUL:          0 USELESS:          0 LATE:          0
cpu0->cpu0_ITLB AVERAGE MISS LATENCY: 5 cycles
cpu0->cpu0_DTLB TOTAL        ACCESS:   45321543 HIT:   44946907 MISS:     374636 MSHR_MERGE:      32707
cpu0->cpu0_DTLB LOAD         ACCESS:   45321543 HIT:   44946907 MISS:     374636 MSHR_MERGE:      32707
cpu0->cpu0_DTLB RFO          ACCESS:          0 HIT:          0 MISS:          0 MSHR_MERGE:          0
cpu0->cpu0_DTLB PREFETCH     ACCESS:          0 HIT:          0 MISS:          0 MSHR_MERGE:          0
cpu0->cpu0_DTLB WRITE        ACCESS:          0 HIT:          0 MISS:          0 MSHR_MERGE:          0
cpu0->cpu0_DTLB TRANSLATION  ACCESS:          0 HIT:          0 MISS:          0 MSHR_MERGE:          0
cpu0->cpu0_DTLB PREFETCH REQUESTED:          0 ISSUED:          0 USEFUL:          0 USELESS:          0 LATE:          0
cpu0->cpu0_DTLB AVERAGE MISS LATENCY: 7.011 cycles
cpu0->LLC TOTAL        ACCESS:    3110940 HIT:     873308 MISS:    2237632 MSHR_MERGE:          0
cpu0->LLC LOAD         ACCESS:     256677 HIT:      55691 MISS:     200986 MSHR_MERGE:          0
cpu0->LLC RFO          ACCESS:        226 HIT:          0 MISS:        226 MSHR_MERGE:          0
cpu0->LLC PREFETCH     ACCESS:    1950265 HIT:      26166 MISS:    1924099 MSHR_MERGE:          0
cpu0->LLC WRITE        ACCESS:     900593 HIT:     790782 MISS:     109811 MSHR_MERGE:          0
cpu0->LLC TRANSLATION  ACCESS:       3179 HIT:        669 MISS:       2510 MSHR_MERGE:          0
cpu0->LLC PREFETCH REQUESTED:          0 ISSUED:          0 USEFUL:          0 USELESS:          0 LATE:          0
cpu0->LLC AVERAGE MISS LATENCY: 136 cycles

DRAM Statistics

Channel 0 RQ ROW_BUFFER_HIT:     101772
  ROW_BUFFER_MISS:    2026041
  AVG DBUS CONGESTED CYCLE: 14.03
Channel 0 WQ ROW_BUFFER_HIT:     241512
  ROW_BUFFER_MISS:     678959
  FULL:          0
Channel 0 REFRESHES ISSUED:      18606

[ROI Statistics]
[System Configuration]
num_cpus 1
cpu_freq 4000
fetch_width 6
decode_width 6
dispatch_width 6
execute_width 6
lq_width 2
sq_width 2
retire_width 6
scheduler_size 128
branch_mispredict_penalty 15
rob_size 352
lq_size 128
sq_size 72
ifetch_buffer_size 64
decode_buffer_size 32
dispatch_buffer_size 32
register_file_size 288
decode_latency 1
dispatch_latency 1
schedule_latency 1
execute_latency 1
page_size 4096
block_size 64
core_0_itlb_set 16
core_0_itlb_way 4
core_0_itlb_rq_size 16
core_0_itlb_wq_size 16
core_0_itlb_pq_size 0
core_0_itlb_mshr_size 8
core_0_itlb_hit_latency 1
core_0_itlb_fill_latency 1
core_0_itlb_max_tag_check 2
core_0_itlb_max_fill 2
core_0_dtlb_set 16
core_0_dtlb_way 4
core_0_dtlb_rq_size 16
core_0_dtlb_wq_size 16
core_0_dtlb_pq_size 0
core_0_dtlb_mshr_size 8
core_0_dtlb_hit_latency 1
core_0_dtlb_fill_latency 1
core_0_dtlb_max_tag_check 2
core_0_dtlb_max_fill 2
core_0_stlb_set 128
core_0_stlb_way 12
core_0_stlb_rq_size 32
core_0_stlb_wq_size 32
core_0_stlb_pq_size 0
core_0_stlb_mshr_size 16
core_0_stlb_hit_latency 4
core_0_stlb_fill_latency 4
core_0_stlb_max_tag_check 1
core_0_stlb_max_fill 1
core_0_l1i_set 64
core_0_l1i_way 8
core_0_l1i_rq_size 64
core_0_l1i_wq_size 64
core_0_l1i_pq_size 32
core_0_l1i_mshr_size 8
core_0_l1i_hit_latency 2
core_0_l1i_fill_latency 2
core_0_l1i_max_tag_check 2
core_0_l1i_max_fill 2
core_0_l1d_set 64
core_0_l1d_way 12
core_0_l1d_rq_size 64
core_0_l1d_wq_size 64
core_0_l1d_pq_size 8
core_0_l1d_mshr_size 16
core_0_l1d_hit_latency 2
core_0_l1d_fill_latency 3
core_0_l1d_max_tag_check 2
core_0_l1d_max_fill 2
core_0_l2c_set 1024
core_0_l2c_way 8
core_0_l2c_rq_size 32
core_0_l2c_wq_size 32
core_0_l2c_pq_size 16
core_0_l2c_mshr_size 32
core_0_l2c_hit_latency 5
core_0_l2c_fill_latency 5
core_0_l2c_max_tag_check 1
core_0_l2c_max_fill 1
llc_set 2048
llc_way 16
llc_rq_size 32
llc_wq_size 32
llc_pq_size 32
llc_mshr_size 64
llc_hit_latency 10
llc_fill_latency 10
llc_max_tag_check 1
llc_max_fill 1
dram_channels 1
dram_ranks 1
dram_bankgroups 8
dram_banks 4
dram_rows 65536
dram_columns 1024
dram_channel_width 8
dram_rq_size 64
dram_wq_size 64
dram_size 17179869184
core_0_itlb_prefetcher no
core_0_dtlb_prefetcher no
core_0_stlb_prefetcher no
core_0_l1i_prefetcher next_line
core_0_l1d_prefetcher berti
core_0_l2c_prefetcher pythia
llc_prefetcher no
llc_replacement drrip

Core_0_instructions 200000002
Core_0_cycles 223270727
Core_0_IPC 0.895774
Core_0_branch_prediction_accuracy 94.1352
Core_0_branch_MPKI 17.0015
Core_0_average_ROB_occupancy_at_mispredict 24.814

Core_0_ITLB_total_access 1443785
Core_0_ITLB_total_hit 1443762
Core_0_ITLB_total_miss 23
Core_0_ITLB_total_MPKI 0.000115
Core_0_ITLB_total_miss_rate 1.59303e-05
Core_0_ITLB_demand_access 1443785
Core_0_ITLB_demand_hit 1443762
Core_0_ITLB_demand_miss 23
Core_0_ITLB_demand_MPKI 0.000115
Core_0_ITLB_demand_miss_rate 1.59303e-05
Core_0_ITLB_load_access 1443785
Core_0_ITLB_load_hit 1443762
Core_0_ITLB_load_miss 23
Core_0_ITLB_load_MPKI 0.000115
Core_0_ITLB_load_miss_rate 1.59303e-05
Core_0_ITLB_rfo_access 0
Core_0_ITLB_rfo_hit 0
Core_0_ITLB_rfo_miss 0
Core_0_ITLB_rfo_MPKI 0
Core_0_ITLB_rfo_miss_rate 0
Core_0_ITLB_prefetch_access 0
Core_0_ITLB_prefetch_hit 0
Core_0_ITLB_prefetch_miss 0
Core_0_ITLB_prefetch_MPKI 0
Core_0_ITLB_prefetch_miss_rate 0
Core_0_ITLB_writeback_access 0
Core_0_ITLB_writeback_hit 0
Core_0_ITLB_writeback_miss 0
Core_0_ITLB_writeback_MPKI 0
Core_0_ITLB_writeback_miss_rate 0
Core_0_ITLB_prefetch_requested 0
Core_0_ITLB_prefetch_issued 0
Core_0_ITLB_prefetch_useful 0
Core_0_ITLB_prefetch_useless 0
Core_0_ITLB_prefetch_late 0
Core_0_ITLB_prefetch_accuracy 0
Core_0_ITLB_prefetch_coverage 0

Core_0_DTLB_total_access 45321543
Core_0_DTLB_total_hit 44946907
Core_0_DTLB_total_miss 374636
Core_0_DTLB_total_MPKI 1.87318
Core_0_DTLB_total_miss_rate 0.00826618
Core_0_DTLB_demand_access 45321543
Core_0_DTLB_demand_hit 44946907
Core_0_DTLB_demand_miss 374636
Core_0_DTLB_demand_MPKI 1.87318
Core_0_DTLB_demand_miss_rate 0.00826618
Core_0_DTLB_load_access 45321543
Core_0_DTLB_load_hit 44946907
Core_0_DTLB_load_miss 374636
Core_0_DTLB_load_MPKI 1.87318
Core_0_DTLB_load_miss_rate 0.00826618
Core_0_DTLB_rfo_access 0
Core_0_DTLB_rfo_hit 0
Core_0_DTLB_rfo_miss 0
Core_0_DTLB_rfo_MPKI 0
Core_0_DTLB_rfo_miss_rate 0
Core_0_DTLB_prefetch_access 0
Core_0_DTLB_prefetch_hit 0
Core_0_DTLB_prefetch_miss 0
Core_0_DTLB_prefetch_MPKI 0
Core_0_DTLB_prefetch_miss_rate 0
Core_0_DTLB_writeback_access 0
Core_0_DTLB_writeback_hit 0
Core_0_DTLB_writeback_miss 0
Core_0_DTLB_writeback_MPKI 0
Core_0_DTLB_writeback_miss_rate 0
Core_0_DTLB_prefetch_requested 0
Core_0_DTLB_prefetch_issued 0
Core_0_DTLB_prefetch_useful 0
Core_0_DTLB_prefetch_useless 0
Core_0_DTLB_prefetch_late 0
Core_0_DTLB_prefetch_accuracy 0
Core_0_DTLB_prefetch_coverage 0

Core_0_STLB_total_access 341944
Core_0_STLB_total_hit 339254
Core_0_STLB_total_miss 2690
Core_0_STLB_total_MPKI 0.01345
Core_0_STLB_total_miss_rate 0.00786679
Core_0_STLB_demand_access 341944
Core_0_STLB_demand_hit 339254
Core_0_STLB_demand_miss 2690
Core_0_STLB_demand_MPKI 0.01345
Core_0_STLB_demand_miss_rate 0.00786679
Core_0_STLB_load_access 341944
Core_0_STLB_load_hit 339254
Core_0_STLB_load_miss 2690
Core_0_STLB_load_MPKI 0.01345
Core_0_STLB_load_miss_rate 0.00786679
Core_0_STLB_rfo_access 0
Core_0_STLB_rfo_hit 0
Core_0_STLB_rfo_miss 0
Core_0_STLB_rfo_MPKI 0
Core_0_STLB_rfo_miss_rate 0
Core_0_STLB_prefetch_access 0
Core_0_STLB_prefetch_hit 0
Core_0_STLB_prefetch_miss 0
Core_0_STLB_prefetch_MPKI 0
Core_0_STLB_prefetch_miss_rate 0
Core_0_STLB_writeback_access 0
Core_0_STLB_writeback_hit 0
Core_0_STLB_writeback_miss 0
Core_0_STLB_writeback_MPKI 0
Core_0_STLB_writeback_miss_rate 0
Core_0_STLB_prefetch_requested 0
Core_0_STLB_prefetch_issued 0
Core_0_STLB_prefetch_useful 0
Core_0_STLB_prefetch_useless 0
Core_0_STLB_prefetch_late 0
Core_0_STLB_prefetch_accuracy 0
Core_0_STLB_prefetch_coverage 0

Core_0_L1I_total_access 1446263
Core_0_L1I_total_hit 1446098
Core_0_L1I_total_miss 165
Core_0_L1I_total_MPKI 0.000825
Core_0_L1I_total_miss_rate 0.000114087
Core_0_L1I_demand_access 1446263
Core_0_L1I_demand_hit 1446098
Core_0_L1I_demand_miss 165
Core_0_L1I_demand_MPKI 0.000825
Core_0_L1I_demand_miss_rate 0.000114087
Core_0_L1I_load_access 1446263
Core_0_L1I_load_hit 1446098
Core_0_L1I_load_miss 165
Core_0_L1I_load_MPKI 0.000825
Core_0_L1I_load_miss_rate 0.000114087
Core_0_L1I_rfo_access 0
Core_0_L1I_rfo_hit 0
Core_0_L1I_rfo_miss 0
Core_0_L1I_rfo_MPKI 0
Core_0_L1I_rfo_miss_rate 0
Core_0_L1I_prefetch_access 0
Core_0_L1I_prefetch_hit 0
Core_0_L1I_prefetch_miss 0
Core_0_L1I_prefetch_MPKI 0
Core_0_L1I_prefetch_miss_rate 0
Core_0_L1I_writeback_access 0
Core_0_L1I_writeback_hit 0
Core_0_L1I_writeback_miss 0
Core_0_L1I_writeback_MPKI 0
Core_0_L1I_writeback_miss_rate 0
Core_0_L1I_prefetch_requested 0
Core_0_L1I_prefetch_issued 0
Core_0_L1I_prefetch_useful 0
Core_0_L1I_prefetch_useless 0
Core_0_L1I_prefetch_late 0
Core_0_L1I_prefetch_accuracy 0
Core_0_L1I_prefetch_coverage 0

Core_0_L1D_total_access 46129130
Core_0_L1D_total_hit 43252666
Core_0_L1D_total_miss 2876464
Core_0_L1D_total_MPKI 14.3823
Core_0_L1D_total_miss_rate 0.0623568
Core_0_L1D_demand_access 40572046
Core_0_L1D_demand_hit 39660601
Core_0_L1D_demand_miss 911445
Core_0_L1D_demand_MPKI 4.55722
Core_0_L1D_demand_miss_rate 0.0224649
Core_0_L1D_load_access 40572046
Core_0_L1D_load_hit 39660601
Core_0_L1D_load_miss 911445
Core_0_L1D_load_MPKI 4.55722
Core_0_L1D_load_miss_rate 0.0224649
Core_0_L1D_rfo_access 0
Core_0_L1D_rfo_hit 0
Core_0_L1D_rfo_miss 0
Core_0_L1D_rfo_MPKI 0
Core_0_L1D_rfo_miss_rate 0
Core_0_L1D_prefetch_access 2087975
Core_0_L1D_prefetch_hit 131172
Core_0_L1D_prefetch_miss 1956803
Core_0_L1D_prefetch_MPKI 9.78401
Core_0_L1D_prefetch_miss_rate 0.937177
Core_0_L1D_writeback_access 3469109
Core_0_L1D_writeback_hit 3460893
Core_0_L1D_writeback_miss 8216
Core_0_L1D_writeback_MPKI 0.04108
Core_0_L1D_writeback_miss_rate 0.00236833
Core_0_L1D_prefetch_requested 2088097
Core_0_L1D_prefetch_issued 2087969
Core_0_L1D_prefetch_useful 1899941
Core_0_L1D_prefetch_useless 53757
Core_0_L1D_prefetch_late 48233
Core_0_L1D_prefetch_accuracy 0.909947
Core_0_L1D_prefetch_coverage 0.675802

Core_0_L2C_total_access 11676544
Core_0_L2C_total_hit 8294929
Core_0_L2C_total_miss 3381615
Core_0_L2C_total_MPKI 16.9081
Core_0_L2C_total_miss_rate 0.289608
Core_0_L2C_demand_access 369001
Core_0_L2C_demand_hit 111685
Core_0_L2C_demand_miss 257316
Core_0_L2C_demand_MPKI 1.28658
Core_0_L2C_demand_miss_rate 0.697331
Core_0_L2C_load_access 368764
Core_0_L2C_load_hit 111676
Core_0_L2C_load_miss 257088
Core_0_L2C_load_MPKI 1.28544
Core_0_L2C_load_miss_rate 0.697161
Core_0_L2C_rfo_access 237
Core_0_L2C_rfo_hit 9
Core_0_L2C_rfo_miss 228
Core_0_L2C_rfo_MPKI 0.00114
Core_0_L2C_rfo_miss_rate 0.962025
Core_0_L2C_prefetch_access 10411823
Core_0_L2C_prefetch_hit 7287558
Core_0_L2C_prefetch_miss 3124265
Core_0_L2C_prefetch_MPKI 15.6213
Core_0_L2C_prefetch_miss_rate 0.300069
Core_0_L2C_writeback_access 895720
Core_0_L2C_writeback_hit 895686
Core_0_L2C_writeback_miss 34
Core_0_L2C_writeback_MPKI 0.00017
Core_0_L2C_writeback_miss_rate 3.79583e-05
Core_0_L2C_prefetch_requested 8679246
Core_0_L2C_prefetch_issued 8458156
Core_0_L2C_prefetch_useful 1784508
Core_0_L2C_prefetch_useless 61436
Core_0_L2C_prefetch_late 413
Core_0_L2C_prefetch_accuracy 0.210981
Core_0_L2C_prefetch_coverage 0.873977

Core_0_LLC_total_access 3107761
Core_0_LLC_total_hit 872639
Core_0_LLC_total_miss 2235122
Core_0_LLC_total_MPKI 11.1756
Core_0_LLC_total_miss_rate 0.719207
Core_0_LLC_demand_access 256903
Core_0_LLC_demand_hit 55691
Core_0_LLC_demand_miss 201212
Core_0_LLC_demand_MPKI 1.00606
Core_0_LLC_demand_miss_rate 0.783222
Core_0_LLC_load_access 256677
Core_0_LLC_load_hit 55691
Core_0_LLC_load_miss 200986
Core_0_LLC_load_MPKI 1.00493
Core_0_LLC_load_miss_rate 0.783031
Core_0_LLC_rfo_access 226
Core_0_LLC_rfo_hit 0
Core_0_LLC_rfo_miss 226
Core_0_LLC_rfo_MPKI 0.00113
Core_0_LLC_rfo_miss_rate 1
Core_0_LLC_prefetch_access 1950265
Core_0_LLC_prefetch_hit 26166
Core_0_LLC_prefetch_miss 1924099
Core_0_LLC_prefetch_MPKI 9.62049
Core_0_LLC_prefetch_miss_rate 0.986583
Core_0_LLC_writeback_access 900593
Core_0_LLC_writeback_hit 790782
Core_0_LLC_writeback_miss 109811
Core_0_LLC_writeback_MPKI 0.549055
Core_0_LLC_writeback_miss_rate 0.121932
Core_0_LLC_prefetch_requested 0
Core_0_LLC_prefetch_issued 0
Core_0_LLC_prefetch_useful 0
Core_0_LLC_prefetch_useless 0
Core_0_LLC_prefetch_late 0
Core_0_LLC_prefetch_accuracy 0
Core_0_LLC_prefetch_coverage 0

[DRAM Statistics]
Channel_0_RQ_row_buffer_hit 101772
Channel_0_RQ_row_buffer_miss 2026041
Channel_0_WQ_row_buffer_hit 241512
Channel_0_WQ_row_buffer_miss 678959
Channel_0_WQ_full 0
Channel_0_dbus_congested 10121315
DRAM_total_RQ_row_buffer_hit 101772
DRAM_total_RQ_row_buffer_miss 2026041
DRAM_total_WQ_row_buffer_hit 241512
DRAM_total_WQ_row_buffer_miss 678959
DRAM_total_WQ_full 0
DRAM_total_dbus_congested 10121315
DRAM_avg_congested_cycle 14.0311

======STLB miss causes ========
Core_0_STLB_miss_cause_breakdown
Core_0_STLB_cause_Demand_Data_miss 0
Core_0_STLB_cause_Demand_Data_miss_rate 0
Core_0_STLB_cause_Demand_Instruction_miss 0
Core_0_STLB_cause_Demand_Instruction_miss_rate 0
Core_0_STLB_cause_L1D_Prefetch_miss 2690
Core_0_STLB_cause_L1D_Prefetch_miss_rate 0.00786679
Core_0_STLB_cause_L1I_Prefetch_miss 0
Core_0_STLB_cause_L1I_Prefetch_miss_rate 0
Core_0_STLB_cause_Other_miss 0
Core_0_STLB_cause_Other_miss_rate 0
Core_0_STLB_Demand_miss 0
Core_0_STLB_Demand_miss_rate 0
Core_0_STLB_L1D_Prefetch_miss 2690
Core_0_STLB_L1D_Prefetch_miss_rate 0.00786679
Core_0_STLB_Other_miss 0
Core_0_STLB_Other_miss_rate 0
