[VMEM] WARNING: physical memory size is smaller than virtual memory size.

*** ChampSim Multicore Out-of-Order Simulator ***
Warmup Instructions: 20000000
Simulation Instructions: 50000000
Number of CPUs: 1
Page size: 4096
STLB ideal mode: off
STLB ideal fill: off
Core 0: /data0/tzh/champsim_traces/QMM/compute_fp_1_new.xz
 L1D Berti prefetcher
Off-chip DRAM Size: 16 GiB Channels: 1 Width: 64-bit Data Rate: 3205 MT/s
Warmup halting CPU 0 at instruction 20000001 cycle 5609792 for remainder of phase
Warmup finished CPU 0 instructions: 20000001 cycles: 5609792 cumulative IPC: 3.565 (Simulation time: 00 hr 01 min 05 sec)
Warmup complete CPU 0 instructions: 20000001 cycles: 5609792 cumulative IPC: 3.565 (Simulation time: 00 hr 01 min 05 sec)
*** Reached end of trace: (0, "/data0/tzh/champsim_traces/QMM/compute_fp_1_new.xz")
*** Reached end of trace: (0, "/data0/tzh/champsim_traces/QMM/compute_fp_1_new.xz")
Simulation finished CPU 0 instructions: 50000001 cycles: 88253633 cumulative IPC: 0.5665 (Simulation time: 00 hr 12 min 01 sec)
Simulation complete CPU 0 instructions: 50000001 cycles: 88253633 cumulative IPC: 0.5665 (Simulation time: 00 hr 12 min 01 sec)

ChampSim completed all CPUs

=== Simulation ===
CPU 0 runs /data0/tzh/champsim_traces/QMM/compute_fp_1_new.xz

Region of Interest Statistics

CPU 0 cumulative IPC: 0.5665 instructions: 50000001 cycles: 88253633
CPU 0 Branch Prediction Accuracy: 95.38% MPKI: 6.524 Average ROB Occupancy at Mispredict: 38.76
Branch type MPKI
BRANCH_DIRECT_JUMP: 6e-05
BRANCH_INDIRECT: 0
BRANCH_CONDITIONAL: 6.523
BRANCH_DIRECT_CALL: 0
BRANCH_INDIRECT_CALL: 0
BRANCH_RETURN: 4e-05

cpu0->cpu0_STLB TOTAL        ACCESS:     208384 HIT:     150758 MISS:      57626 MSHR_MERGE:          0
cpu0->cpu0_STLB LOAD         ACCESS:     208384 HIT:     150758 MISS:      57626 MSHR_MERGE:          0
cpu0->cpu0_STLB RFO          ACCESS:          0 HIT:          0 MISS:          0 MSHR_MERGE:          0
cpu0->cpu0_STLB PREFETCH     ACCESS:          0 HIT:          0 MISS:          0 MSHR_MERGE:          0
cpu0->cpu0_STLB WRITE        ACCESS:          0 HIT:          0 MISS:          0 MSHR_MERGE:          0
cpu0->cpu0_STLB TRANSLATION  ACCESS:          0 HIT:          0 MISS:          0 MSHR_MERGE:          0
cpu0->cpu0_STLB PREFETCH REQUESTED:          0 ISSUED:          0 USEFUL:          0 USELESS:          0 LATE:          0
cpu0->cpu0_STLB AVERAGE MISS LATENCY: 147.8 cycles
cpu0->cpu0_L2C TOTAL        ACCESS:    4993361 HIT:    1402978 MISS:    3590383 MSHR_MERGE:     721409
cpu0->cpu0_L2C LOAD         ACCESS:    1179091 HIT:     148916 MISS:    1030175 MSHR_MERGE:      51042
cpu0->cpu0_L2C RFO          ACCESS:      26788 HIT:       8123 MISS:      18665 MSHR_MERGE:          0
cpu0->cpu0_L2C PREFETCH     ACCESS:    2781982 HIT:     258289 MISS:    2523693 MSHR_MERGE:     670367
cpu0->cpu0_L2C WRITE        ACCESS:     983172 HIT:     983158 MISS:         14 MSHR_MERGE:          0
cpu0->cpu0_L2C TRANSLATION  ACCESS:      22328 HIT:       4492 MISS:      17836 MSHR_MERGE:          0
cpu0->cpu0_L2C PREFETCH REQUESTED:    1115202 ISSUED:    1113961 USEFUL:     182726 USELESS:     244357 LATE:      51042
cpu0->cpu0_L2C AVERAGE MISS LATENCY: 287.4 cycles
cpu0->cpu0_L1I TOTAL        ACCESS:    4202822 HIT:    4201108 MISS:       1714 MSHR_MERGE:        658
cpu0->cpu0_L1I LOAD         ACCESS:    4202822 HIT:    4201108 MISS:       1714 MSHR_MERGE:        658
cpu0->cpu0_L1I RFO          ACCESS:          0 HIT:          0 MISS:          0 MSHR_MERGE:          0
cpu0->cpu0_L1I PREFETCH     ACCESS:          0 HIT:          0 MISS:          0 MSHR_MERGE:          0
cpu0->cpu0_L1I WRITE        ACCESS:          0 HIT:          0 MISS:          0 MSHR_MERGE:          0
cpu0->cpu0_L1I TRANSLATION  ACCESS:          0 HIT:          0 MISS:          0 MSHR_MERGE:          0
cpu0->cpu0_L1I PREFETCH REQUESTED:          0 ISSUED:          0 USEFUL:          0 USELESS:          0 LATE:          0
cpu0->cpu0_L1I AVERAGE MISS LATENCY: 251.6 cycles
cpu0->cpu0_L1D TOTAL        ACCESS:   14093793 HIT:    8920487 MISS:    5173306 MSHR_MERGE:    2278148
cpu0->cpu0_L1D LOAD         ACCESS:    8495700 HIT:    5275451 MISS:    3220249 MSHR_MERGE:    2042214
cpu0->cpu0_L1D RFO          ACCESS:          0 HIT:          0 MISS:          0 MSHR_MERGE:          0
cpu0->cpu0_L1D PREFETCH     ACCESS:    1884846 HIT:     113456 MISS:    1771390 MSHR_MERGE:     103383
cpu0->cpu0_L1D WRITE        ACCESS:    3601681 HIT:    3445936 MISS:     155745 MSHR_MERGE:     128957
cpu0->cpu0_L1D TRANSLATION  ACCESS:     111566 HIT:      85644 MISS:      25922 MSHR_MERGE:       3594
cpu0->cpu0_L1D PREFETCH REQUESTED:    2017110 ISSUED:    1884838 USEFUL:    1306671 USELESS:     361231 LATE:     358431
cpu0->cpu0_L1D AVERAGE MISS LATENCY: 243.4 cycles
cpu0->cpu0_ITLB TOTAL        ACCESS:    4022539 HIT:    4022240 MISS:        299 MSHR_MERGE:        200
cpu0->cpu0_ITLB LOAD         ACCESS:    4022539 HIT:    4022240 MISS:        299 MSHR_MERGE:        200
cpu0->cpu0_ITLB RFO          ACCESS:          0 HIT:          0 MISS:          0 MSHR_MERGE:          0
cpu0->cpu0_ITLB PREFETCH     ACCESS:          0 HIT:          0 MISS:          0 MSHR_MERGE:          0
cpu0->cpu0_ITLB WRITE        ACCESS:          0 HIT:          0 MISS:          0 MSHR_MERGE:          0
cpu0->cpu0_ITLB TRANSLATION  ACCESS:          0 HIT:          0 MISS:          0 MSHR_MERGE:          0
cpu0->cpu0_ITLB PREFETCH REQUESTED:          0 ISSUED:          0 USEFUL:          0 USELESS:          0 LATE:          0
cpu0->cpu0_ITLB AVERAGE MISS LATENCY: 233.2 cycles
cpu0->cpu0_DTLB TOTAL        ACCESS:   12733931 HIT:   12248277 MISS:     485654 MSHR_MERGE:     277369
cpu0->cpu0_DTLB LOAD         ACCESS:   12733931 HIT:   12248277 MISS:     485654 MSHR_MERGE:     277369
cpu0->cpu0_DTLB RFO          ACCESS:          0 HIT:          0 MISS:          0 MSHR_MERGE:          0
cpu0->cpu0_DTLB PREFETCH     ACCESS:          0 HIT:          0 MISS:          0 MSHR_MERGE:          0
cpu0->cpu0_DTLB WRITE        ACCESS:          0 HIT:          0 MISS:          0 MSHR_MERGE:          0
cpu0->cpu0_DTLB TRANSLATION  ACCESS:          0 HIT:          0 MISS:          0 MSHR_MERGE:          0
cpu0->cpu0_DTLB PREFETCH REQUESTED:          0 ISSUED:          0 USEFUL:          0 USELESS:          0 LATE:          0
cpu0->cpu0_DTLB AVERAGE MISS LATENCY: 46.06 cycles
cpu0->LLC TOTAL        ACCESS:    3777209 HIT:     807963 MISS:    2969246 MSHR_MERGE:      92123
cpu0->LLC LOAD         ACCESS:     979130 HIT:     242684 MISS:     736446 MSHR_MERGE:       5690
cpu0->LLC RFO          ACCESS:      18665 HIT:       4416 MISS:      14249 MSHR_MERGE:          0
cpu0->LLC PREFETCH     ACCESS:    1853317 HIT:     157798 MISS:    1695519 MSHR_MERGE:      86433
cpu0->LLC WRITE        ACCESS:     908261 HIT:     397746 MISS:     510515 MSHR_MERGE:          0
cpu0->LLC TRANSLATION  ACCESS:      17836 HIT:       5319 MISS:      12517 MSHR_MERGE:          0
cpu0->LLC PREFETCH REQUESTED:          0 ISSUED:          0 USEFUL:          0 USELESS:          0 LATE:          0
cpu0->LLC AVERAGE MISS LATENCY: 222.1 cycles

DRAM Statistics

Channel 0 RQ ROW_BUFFER_HIT:     117649
  ROW_BUFFER_MISS:    2248266
  AVG DBUS CONGESTED CYCLE: 6.241
Channel 0 WQ ROW_BUFFER_HIT:      57853
  ROW_BUFFER_MISS:     579780
  FULL:          2
Channel 0 REFRESHES ISSUED:       7354

[ROI Statistics]
[System Configuration]
num_cpus 1
cpu_freq 4000
fetch_width 6
decode_width 6
dispatch_width 6
execute_width 6
lq_width 2
sq_width 2
retire_width 6
scheduler_size 128
branch_mispredict_penalty 15
rob_size 352
lq_size 128
sq_size 72
ifetch_buffer_size 64
decode_buffer_size 32
dispatch_buffer_size 32
register_file_size 288
decode_latency 1
dispatch_latency 1
schedule_latency 1
execute_latency 1
page_size 4096
block_size 64
core_0_itlb_set 16
core_0_itlb_way 4
core_0_itlb_rq_size 16
core_0_itlb_wq_size 16
core_0_itlb_pq_size 0
core_0_itlb_mshr_size 8
core_0_itlb_hit_latency 1
core_0_itlb_fill_latency 1
core_0_itlb_max_tag_check 2
core_0_itlb_max_fill 2
core_0_dtlb_set 16
core_0_dtlb_way 4
core_0_dtlb_rq_size 16
core_0_dtlb_wq_size 16
core_0_dtlb_pq_size 0
core_0_dtlb_mshr_size 8
core_0_dtlb_hit_latency 1
core_0_dtlb_fill_latency 1
core_0_dtlb_max_tag_check 2
core_0_dtlb_max_fill 2
core_0_stlb_set 128
core_0_stlb_way 12
core_0_stlb_rq_size 32
core_0_stlb_wq_size 32
core_0_stlb_pq_size 0
core_0_stlb_mshr_size 16
core_0_stlb_hit_latency 4
core_0_stlb_fill_latency 4
core_0_stlb_max_tag_check 1
core_0_stlb_max_fill 1
core_0_l1i_set 64
core_0_l1i_way 8
core_0_l1i_rq_size 64
core_0_l1i_wq_size 64
core_0_l1i_pq_size 32
core_0_l1i_mshr_size 8
core_0_l1i_hit_latency 2
core_0_l1i_fill_latency 2
core_0_l1i_max_tag_check 2
core_0_l1i_max_fill 2
core_0_l1d_set 64
core_0_l1d_way 12
core_0_l1d_rq_size 64
core_0_l1d_wq_size 64
core_0_l1d_pq_size 8
core_0_l1d_mshr_size 16
core_0_l1d_hit_latency 2
core_0_l1d_fill_latency 3
core_0_l1d_max_tag_check 2
core_0_l1d_max_fill 2
core_0_l2c_set 1024
core_0_l2c_way 8
core_0_l2c_rq_size 32
core_0_l2c_wq_size 32
core_0_l2c_pq_size 16
core_0_l2c_mshr_size 32
core_0_l2c_hit_latency 5
core_0_l2c_fill_latency 5
core_0_l2c_max_tag_check 1
core_0_l2c_max_fill 1
llc_set 2048
llc_way 16
llc_rq_size 32
llc_wq_size 32
llc_pq_size 32
llc_mshr_size 64
llc_hit_latency 10
llc_fill_latency 10
llc_max_tag_check 1
llc_max_fill 1
dram_channels 1
dram_ranks 1
dram_bankgroups 8
dram_banks 4
dram_rows 65536
dram_columns 1024
dram_channel_width 8
dram_rq_size 64
dram_wq_size 64
dram_size 17179869184
core_0_itlb_prefetcher no
core_0_dtlb_prefetcher no
core_0_stlb_prefetcher no
core_0_l1i_prefetcher next_line
core_0_l1d_prefetcher berti
core_0_l2c_prefetcher ip_stride
llc_prefetcher no
llc_replacement drrip

Core_0_instructions 50000001
Core_0_cycles 88253633
Core_0_IPC 0.566549
Core_0_branch_prediction_accuracy 95.3771
Core_0_branch_MPKI 6.52356
Core_0_average_ROB_occupancy_at_mispredict 38.7581

Core_0_ITLB_total_access 4022539
Core_0_ITLB_total_hit 4022240
Core_0_ITLB_total_miss 299
Core_0_ITLB_total_MPKI 0.00598
Core_0_ITLB_total_miss_rate 7.43312e-05
Core_0_ITLB_demand_access 4022539
Core_0_ITLB_demand_hit 4022240
Core_0_ITLB_demand_miss 299
Core_0_ITLB_demand_MPKI 0.00598
Core_0_ITLB_demand_miss_rate 7.43312e-05
Core_0_ITLB_load_access 4022539
Core_0_ITLB_load_hit 4022240
Core_0_ITLB_load_miss 299
Core_0_ITLB_load_MPKI 0.00598
Core_0_ITLB_load_miss_rate 7.43312e-05
Core_0_ITLB_rfo_access 0
Core_0_ITLB_rfo_hit 0
Core_0_ITLB_rfo_miss 0
Core_0_ITLB_rfo_MPKI 0
Core_0_ITLB_rfo_miss_rate 0
Core_0_ITLB_prefetch_access 0
Core_0_ITLB_prefetch_hit 0
Core_0_ITLB_prefetch_miss 0
Core_0_ITLB_prefetch_MPKI 0
Core_0_ITLB_prefetch_miss_rate 0
Core_0_ITLB_writeback_access 0
Core_0_ITLB_writeback_hit 0
Core_0_ITLB_writeback_miss 0
Core_0_ITLB_writeback_MPKI 0
Core_0_ITLB_writeback_miss_rate 0
Core_0_ITLB_prefetch_requested 0
Core_0_ITLB_prefetch_issued 0
Core_0_ITLB_prefetch_useful 0
Core_0_ITLB_prefetch_useless 0
Core_0_ITLB_prefetch_late 0
Core_0_ITLB_prefetch_accuracy 0
Core_0_ITLB_prefetch_coverage 0

Core_0_DTLB_total_access 12733931
Core_0_DTLB_total_hit 12248277
Core_0_DTLB_total_miss 485654
Core_0_DTLB_total_MPKI 9.71308
Core_0_DTLB_total_miss_rate 0.0381386
Core_0_DTLB_demand_access 12733931
Core_0_DTLB_demand_hit 12248277
Core_0_DTLB_demand_miss 485654
Core_0_DTLB_demand_MPKI 9.71308
Core_0_DTLB_demand_miss_rate 0.0381386
Core_0_DTLB_load_access 12733931
Core_0_DTLB_load_hit 12248277
Core_0_DTLB_load_miss 485654
Core_0_DTLB_load_MPKI 9.71308
Core_0_DTLB_load_miss_rate 0.0381386
Core_0_DTLB_rfo_access 0
Core_0_DTLB_rfo_hit 0
Core_0_DTLB_rfo_miss 0
Core_0_DTLB_rfo_MPKI 0
Core_0_DTLB_rfo_miss_rate 0
Core_0_DTLB_prefetch_access 0
Core_0_DTLB_prefetch_hit 0
Core_0_DTLB_prefetch_miss 0
Core_0_DTLB_prefetch_MPKI 0
Core_0_DTLB_prefetch_miss_rate 0
Core_0_DTLB_writeback_access 0
Core_0_DTLB_writeback_hit 0
Core_0_DTLB_writeback_miss 0
Core_0_DTLB_writeback_MPKI 0
Core_0_DTLB_writeback_miss_rate 0
Core_0_DTLB_prefetch_requested 0
Core_0_DTLB_prefetch_issued 0
Core_0_DTLB_prefetch_useful 0
Core_0_DTLB_prefetch_useless 0
Core_0_DTLB_prefetch_late 0
Core_0_DTLB_prefetch_accuracy 0
Core_0_DTLB_prefetch_coverage 0

Core_0_STLB_total_access 208384
Core_0_STLB_total_hit 150758
Core_0_STLB_total_miss 57626
Core_0_STLB_total_MPKI 1.15252
Core_0_STLB_total_miss_rate 0.276538
Core_0_STLB_demand_access 208384
Core_0_STLB_demand_hit 150758
Core_0_STLB_demand_miss 57626
Core_0_STLB_demand_MPKI 1.15252
Core_0_STLB_demand_miss_rate 0.276538
Core_0_STLB_load_access 208384
Core_0_STLB_load_hit 150758
Core_0_STLB_load_miss 57626
Core_0_STLB_load_MPKI 1.15252
Core_0_STLB_load_miss_rate 0.276538
Core_0_STLB_rfo_access 0
Core_0_STLB_rfo_hit 0
Core_0_STLB_rfo_miss 0
Core_0_STLB_rfo_MPKI 0
Core_0_STLB_rfo_miss_rate 0
Core_0_STLB_prefetch_access 0
Core_0_STLB_prefetch_hit 0
Core_0_STLB_prefetch_miss 0
Core_0_STLB_prefetch_MPKI 0
Core_0_STLB_prefetch_miss_rate 0
Core_0_STLB_writeback_access 0
Core_0_STLB_writeback_hit 0
Core_0_STLB_writeback_miss 0
Core_0_STLB_writeback_MPKI 0
Core_0_STLB_writeback_miss_rate 0
Core_0_STLB_prefetch_requested 0
Core_0_STLB_prefetch_issued 0
Core_0_STLB_prefetch_useful 0
Core_0_STLB_prefetch_useless 0
Core_0_STLB_prefetch_late 0
Core_0_STLB_prefetch_accuracy 0
Core_0_STLB_prefetch_coverage 0

Core_0_L1I_total_access 4202822
Core_0_L1I_total_hit 4201108
Core_0_L1I_total_miss 1714
Core_0_L1I_total_MPKI 0.03428
Core_0_L1I_total_miss_rate 0.000407821
Core_0_L1I_demand_access 4202822
Core_0_L1I_demand_hit 4201108
Core_0_L1I_demand_miss 1714
Core_0_L1I_demand_MPKI 0.03428
Core_0_L1I_demand_miss_rate 0.000407821
Core_0_L1I_load_access 4202822
Core_0_L1I_load_hit 4201108
Core_0_L1I_load_miss 1714
Core_0_L1I_load_MPKI 0.03428
Core_0_L1I_load_miss_rate 0.000407821
Core_0_L1I_rfo_access 0
Core_0_L1I_rfo_hit 0
Core_0_L1I_rfo_miss 0
Core_0_L1I_rfo_MPKI 0
Core_0_L1I_rfo_miss_rate 0
Core_0_L1I_prefetch_access 0
Core_0_L1I_prefetch_hit 0
Core_0_L1I_prefetch_miss 0
Core_0_L1I_prefetch_MPKI 0
Core_0_L1I_prefetch_miss_rate 0
Core_0_L1I_writeback_access 0
Core_0_L1I_writeback_hit 0
Core_0_L1I_writeback_miss 0
Core_0_L1I_writeback_MPKI 0
Core_0_L1I_writeback_miss_rate 0
Core_0_L1I_prefetch_requested 0
Core_0_L1I_prefetch_issued 0
Core_0_L1I_prefetch_useful 0
Core_0_L1I_prefetch_useless 0
Core_0_L1I_prefetch_late 0
Core_0_L1I_prefetch_accuracy 0
Core_0_L1I_prefetch_coverage 0

Core_0_L1D_total_access 13982227
Core_0_L1D_total_hit 8834843
Core_0_L1D_total_miss 5147384
Core_0_L1D_total_MPKI 102.948
Core_0_L1D_total_miss_rate 0.368138
Core_0_L1D_demand_access 8495700
Core_0_L1D_demand_hit 5275451
Core_0_L1D_demand_miss 3220249
Core_0_L1D_demand_MPKI 64.405
Core_0_L1D_demand_miss_rate 0.379045
Core_0_L1D_load_access 8495700
Core_0_L1D_load_hit 5275451
Core_0_L1D_load_miss 3220249
Core_0_L1D_load_MPKI 64.405
Core_0_L1D_load_miss_rate 0.379045
Core_0_L1D_rfo_access 0
Core_0_L1D_rfo_hit 0
Core_0_L1D_rfo_miss 0
Core_0_L1D_rfo_MPKI 0
Core_0_L1D_rfo_miss_rate 0
Core_0_L1D_prefetch_access 1884846
Core_0_L1D_prefetch_hit 113456
Core_0_L1D_prefetch_miss 1771390
Core_0_L1D_prefetch_MPKI 35.4278
Core_0_L1D_prefetch_miss_rate 0.939806
Core_0_L1D_writeback_access 3601681
Core_0_L1D_writeback_hit 3445936
Core_0_L1D_writeback_miss 155745
Core_0_L1D_writeback_MPKI 3.1149
Core_0_L1D_writeback_miss_rate 0.0432423
Core_0_L1D_prefetch_requested 2017110
Core_0_L1D_prefetch_issued 1884838
Core_0_L1D_prefetch_useful 1306671
Core_0_L1D_prefetch_useless 361231
Core_0_L1D_prefetch_late 358431
Core_0_L1D_prefetch_accuracy 0.693254
Core_0_L1D_prefetch_coverage 0.288645

Core_0_L2C_total_access 4971033
Core_0_L2C_total_hit 1398486
Core_0_L2C_total_miss 3572547
Core_0_L2C_total_MPKI 71.4509
Core_0_L2C_total_miss_rate 0.718673
Core_0_L2C_demand_access 1205879
Core_0_L2C_demand_hit 157039
Core_0_L2C_demand_miss 1048840
Core_0_L2C_demand_MPKI 20.9768
Core_0_L2C_demand_miss_rate 0.869772
Core_0_L2C_load_access 1179091
Core_0_L2C_load_hit 148916
Core_0_L2C_load_miss 1030175
Core_0_L2C_load_MPKI 20.6035
Core_0_L2C_load_miss_rate 0.873703
Core_0_L2C_rfo_access 26788
Core_0_L2C_rfo_hit 8123
Core_0_L2C_rfo_miss 18665
Core_0_L2C_rfo_MPKI 0.3733
Core_0_L2C_rfo_miss_rate 0.696767
Core_0_L2C_prefetch_access 2781982
Core_0_L2C_prefetch_hit 258289
Core_0_L2C_prefetch_miss 2523693
Core_0_L2C_prefetch_MPKI 50.4739
Core_0_L2C_prefetch_miss_rate 0.907156
Core_0_L2C_writeback_access 983172
Core_0_L2C_writeback_hit 983158
Core_0_L2C_writeback_miss 14
Core_0_L2C_writeback_MPKI 0.00028
Core_0_L2C_writeback_miss_rate 1.42396e-05
Core_0_L2C_prefetch_requested 1115202
Core_0_L2C_prefetch_issued 1113961
Core_0_L2C_prefetch_useful 182726
Core_0_L2C_prefetch_useless 244357
Core_0_L2C_prefetch_late 51042
Core_0_L2C_prefetch_accuracy 0.164033
Core_0_L2C_prefetch_coverage 0.148369

Core_0_LLC_total_access 3759373
Core_0_LLC_total_hit 802644
Core_0_LLC_total_miss 2956729
Core_0_LLC_total_MPKI 59.1346
Core_0_LLC_total_miss_rate 0.786495
Core_0_LLC_demand_access 997795
Core_0_LLC_demand_hit 247100
Core_0_LLC_demand_miss 750695
Core_0_LLC_demand_MPKI 15.0139
Core_0_LLC_demand_miss_rate 0.752354
Core_0_LLC_load_access 979130
Core_0_LLC_load_hit 242684
Core_0_LLC_load_miss 736446
Core_0_LLC_load_MPKI 14.7289
Core_0_LLC_load_miss_rate 0.752143
Core_0_LLC_rfo_access 18665
Core_0_LLC_rfo_hit 4416
Core_0_LLC_rfo_miss 14249
Core_0_LLC_rfo_MPKI 0.28498
Core_0_LLC_rfo_miss_rate 0.763407
Core_0_LLC_prefetch_access 1853317
Core_0_LLC_prefetch_hit 157798
Core_0_LLC_prefetch_miss 1695519
Core_0_LLC_prefetch_MPKI 33.9104
Core_0_LLC_prefetch_miss_rate 0.914856
Core_0_LLC_writeback_access 908261
Core_0_LLC_writeback_hit 397746
Core_0_LLC_writeback_miss 510515
Core_0_LLC_writeback_MPKI 10.2103
Core_0_LLC_writeback_miss_rate 0.56208
Core_0_LLC_prefetch_requested 0
Core_0_LLC_prefetch_issued 0
Core_0_LLC_prefetch_useful 0
Core_0_LLC_prefetch_useless 0
Core_0_LLC_prefetch_late 0
Core_0_LLC_prefetch_accuracy 0
Core_0_LLC_prefetch_coverage 0

[DRAM Statistics]
Channel_0_RQ_row_buffer_hit 117649
Channel_0_RQ_row_buffer_miss 2248266
Channel_0_WQ_row_buffer_hit 57853
Channel_0_WQ_row_buffer_miss 579780
Channel_0_WQ_full 2
Channel_0_dbus_congested 8309156
DRAM_total_RQ_row_buffer_hit 117649
DRAM_total_RQ_row_buffer_miss 2248266
DRAM_total_WQ_row_buffer_hit 57853
DRAM_total_WQ_row_buffer_miss 579780
DRAM_total_WQ_full 2
DRAM_total_dbus_congested 8309156
DRAM_avg_congested_cycle 6.24145

======STLB miss causes ========
Core_0_STLB_miss_cause_breakdown
Core_0_STLB_cause_Demand_Data_miss 49206
Core_0_STLB_cause_Demand_Data_miss_rate 0.236131
Core_0_STLB_cause_Demand_Instruction_miss 99
Core_0_STLB_cause_Demand_Instruction_miss_rate 0.000475084
Core_0_STLB_cause_L1D_Prefetch_miss 8321
Core_0_STLB_cause_L1D_Prefetch_miss_rate 0.0399311
Core_0_STLB_cause_L1I_Prefetch_miss 0
Core_0_STLB_cause_L1I_Prefetch_miss_rate 0
Core_0_STLB_cause_Other_miss 0
Core_0_STLB_cause_Other_miss_rate 0
Core_0_STLB_Demand_miss 49305
Core_0_STLB_Demand_miss_rate 0.236606
Core_0_STLB_L1D_Prefetch_miss 8321
Core_0_STLB_L1D_Prefetch_miss_rate 0.0399311
Core_0_STLB_Other_miss 0
Core_0_STLB_Other_miss_rate 0
