[VMEM] WARNING: physical memory size is smaller than virtual memory size.

*** ChampSim Multicore Out-of-Order Simulator ***
Warmup Instructions: 20000000
Simulation Instructions: 50000000
Number of CPUs: 1
Page size: 4096
STLB ideal mode: off
STLB ideal fill: off
Core 0: /data2/zcq/champsim_traces_xsbench/xs.XL64unionized-28B.champsimtrace.xz
 L1D Berti prefetcher
Off-chip DRAM Size: 16 GiB Channels: 1 Width: 64-bit Data Rate: 3205 MT/s
Warmup halting CPU 0 at instruction 20000003 cycle 5165655 for remainder of phase
Warmup finished CPU 0 instructions: 20000003 cycles: 5165655 cumulative IPC: 3.872 (Simulation time: 00 hr 01 min 07 sec)
Warmup complete CPU 0 instructions: 20000003 cycles: 5165655 cumulative IPC: 3.872 (Simulation time: 00 hr 01 min 07 sec)
Simulation finished CPU 0 instructions: 50000000 cycles: 82961786 cumulative IPC: 0.6027 (Simulation time: 00 hr 08 min 11 sec)
Simulation complete CPU 0 instructions: 50000000 cycles: 82961786 cumulative IPC: 0.6027 (Simulation time: 00 hr 08 min 11 sec)

ChampSim completed all CPUs

=== Simulation ===
CPU 0 runs /data2/zcq/champsim_traces_xsbench/xs.XL64unionized-28B.champsimtrace.xz

Region of Interest Statistics

CPU 0 cumulative IPC: 0.6027 instructions: 50000000 cycles: 82961786
CPU 0 Branch Prediction Accuracy: 93.15% MPKI: 16.48 Average ROB Occupancy at Mispredict: 33.57
Branch type MPKI
BRANCH_DIRECT_JUMP: 0.00026
BRANCH_INDIRECT: 0
BRANCH_CONDITIONAL: 16.48
BRANCH_DIRECT_CALL: 0.00016
BRANCH_INDIRECT_CALL: 0.0005
BRANCH_RETURN: 0.00064

cpu0->cpu0_STLB TOTAL        ACCESS:     406409 HIT:     345691 MISS:      60718 MSHR_MERGE:          0
cpu0->cpu0_STLB LOAD         ACCESS:     406409 HIT:     345691 MISS:      60718 MSHR_MERGE:          0
cpu0->cpu0_STLB RFO          ACCESS:          0 HIT:          0 MISS:          0 MSHR_MERGE:          0
cpu0->cpu0_STLB PREFETCH     ACCESS:          0 HIT:          0 MISS:          0 MSHR_MERGE:          0
cpu0->cpu0_STLB WRITE        ACCESS:          0 HIT:          0 MISS:          0 MSHR_MERGE:          0
cpu0->cpu0_STLB TRANSLATION  ACCESS:          0 HIT:          0 MISS:          0 MSHR_MERGE:          0
cpu0->cpu0_STLB PREFETCH REQUESTED:          0 ISSUED:          0 USEFUL:          0 USELESS:          0 LATE:          0
cpu0->cpu0_STLB AVERAGE MISS LATENCY: 25.13 cycles
cpu0->cpu0_L2C TOTAL        ACCESS:    1972553 HIT:    1211567 MISS:     760986 MSHR_MERGE:      53893
cpu0->cpu0_L2C LOAD         ACCESS:     801838 HIT:     346005 MISS:     455833 MSHR_MERGE:       7035
cpu0->cpu0_L2C RFO          ACCESS:     126127 HIT:      62912 MISS:      63215 MSHR_MERGE:          0
cpu0->cpu0_L2C PREFETCH     ACCESS:     593641 HIT:     353194 MISS:     240447 MSHR_MERGE:      46858
cpu0->cpu0_L2C WRITE        ACCESS:     409888 HIT:     409870 MISS:         18 MSHR_MERGE:          0
cpu0->cpu0_L2C TRANSLATION  ACCESS:      41059 HIT:      39586 MISS:       1473 MSHR_MERGE:          0
cpu0->cpu0_L2C PREFETCH REQUESTED:     267682 ISSUED:     253498 USEFUL:      65342 USELESS:       4680 LATE:       7035
cpu0->cpu0_L2C AVERAGE MISS LATENCY: 158.3 cycles
cpu0->cpu0_L1I TOTAL        ACCESS:    1331522 HIT:    1331465 MISS:         57 MSHR_MERGE:          6
cpu0->cpu0_L1I LOAD         ACCESS:    1331522 HIT:    1331465 MISS:         57 MSHR_MERGE:          6
cpu0->cpu0_L1I RFO          ACCESS:          0 HIT:          0 MISS:          0 MSHR_MERGE:          0
cpu0->cpu0_L1I PREFETCH     ACCESS:          0 HIT:          0 MISS:          0 MSHR_MERGE:          0
cpu0->cpu0_L1I WRITE        ACCESS:          0 HIT:          0 MISS:          0 MSHR_MERGE:          0
cpu0->cpu0_L1I TRANSLATION  ACCESS:          0 HIT:          0 MISS:          0 MSHR_MERGE:          0
cpu0->cpu0_L1I PREFETCH REQUESTED:          0 ISSUED:          0 USEFUL:          0 USELESS:          0 LATE:          0
cpu0->cpu0_L1I AVERAGE MISS LATENCY: 246.3 cycles
cpu0->cpu0_L1D TOTAL        ACCESS:   17687313 HIT:   15755582 MISS:    1931731 MSHR_MERGE:     622612
cpu0->cpu0_L1D LOAD         ACCESS:   10449629 HIT:    9367660 MISS:    1081969 MSHR_MERGE:     280182
cpu0->cpu0_L1D RFO          ACCESS:          0 HIT:          0 MISS:          0 MSHR_MERGE:          0
cpu0->cpu0_L1D PREFETCH     ACCESS:     488766 HIT:     132150 MISS:     356616 MSHR_MERGE:      16473
cpu0->cpu0_L1D WRITE        ACCESS:    6627695 HIT:    6175772 MISS:     451923 MSHR_MERGE:     325793
cpu0->cpu0_L1D TRANSLATION  ACCESS:     121223 HIT:      80000 MISS:      41223 MSHR_MERGE:        164
cpu0->cpu0_L1D PREFETCH REQUESTED:     522745 ISSUED:     488766 USEFUL:     221512 USELESS:     118629 LATE:      12850
cpu0->cpu0_L1D AVERAGE MISS LATENCY: 93.84 cycles
cpu0->cpu0_ITLB TOTAL        ACCESS:    1145016 HIT:    1145008 MISS:          8 MSHR_MERGE:          1
cpu0->cpu0_ITLB LOAD         ACCESS:    1145016 HIT:    1145008 MISS:          8 MSHR_MERGE:          1
cpu0->cpu0_ITLB RFO          ACCESS:          0 HIT:          0 MISS:          0 MSHR_MERGE:          0
cpu0->cpu0_ITLB PREFETCH     ACCESS:          0 HIT:          0 MISS:          0 MSHR_MERGE:          0
cpu0->cpu0_ITLB WRITE        ACCESS:          0 HIT:          0 MISS:          0 MSHR_MERGE:          0
cpu0->cpu0_ITLB TRANSLATION  ACCESS:          0 HIT:          0 MISS:          0 MSHR_MERGE:          0
cpu0->cpu0_ITLB PREFETCH REQUESTED:          0 ISSUED:          0 USEFUL:          0 USELESS:          0 LATE:          0
cpu0->cpu0_ITLB AVERAGE MISS LATENCY: 299 cycles
cpu0->cpu0_DTLB TOTAL        ACCESS:   16824165 HIT:   16230854 MISS:     593311 MSHR_MERGE:     186909
cpu0->cpu0_DTLB LOAD         ACCESS:   16824165 HIT:   16230854 MISS:     593311 MSHR_MERGE:     186909
cpu0->cpu0_DTLB RFO          ACCESS:          0 HIT:          0 MISS:          0 MSHR_MERGE:          0
cpu0->cpu0_DTLB PREFETCH     ACCESS:          0 HIT:          0 MISS:          0 MSHR_MERGE:          0
cpu0->cpu0_DTLB WRITE        ACCESS:          0 HIT:          0 MISS:          0 MSHR_MERGE:          0
cpu0->cpu0_DTLB TRANSLATION  ACCESS:          0 HIT:          0 MISS:          0 MSHR_MERGE:          0
cpu0->cpu0_DTLB PREFETCH REQUESTED:          0 ISSUED:          0 USEFUL:          0 USELESS:          0 LATE:          0
cpu0->cpu0_DTLB AVERAGE MISS LATENCY: 8.899 cycles
cpu0->LLC TOTAL        ACCESS:    1029473 HIT:     443626 MISS:     585847 MSHR_MERGE:       1121
cpu0->LLC LOAD         ACCESS:     448798 HIT:     181676 MISS:     267122 MSHR_MERGE:        182
cpu0->LLC RFO          ACCESS:      63215 HIT:      33065 MISS:      30150 MSHR_MERGE:          0
cpu0->LLC PREFETCH     ACCESS:     193589 HIT:      75562 MISS:     118027 MSHR_MERGE:        939
cpu0->LLC WRITE        ACCESS:     322398 HIT:     153094 MISS:     169304 MSHR_MERGE:          0
cpu0->LLC TRANSLATION  ACCESS:       1473 HIT:        229 MISS:       1244 MSHR_MERGE:          0
cpu0->LLC PREFETCH REQUESTED:          0 ISSUED:          0 USEFUL:          0 USELESS:          0 LATE:          0
cpu0->LLC AVERAGE MISS LATENCY: 160.3 cycles

DRAM Statistics

Channel 0 RQ ROW_BUFFER_HIT:      12527
  ROW_BUFFER_MISS:     402671
  AVG DBUS CONGESTED CYCLE: 7.985
Channel 0 WQ ROW_BUFFER_HIT:      69734
  ROW_BUFFER_MISS:     184065
  FULL:       1683
Channel 0 REFRESHES ISSUED:       6913

[ROI Statistics]
[System Configuration]
num_cpus 1
cpu_freq 4000
fetch_width 6
decode_width 6
dispatch_width 6
execute_width 6
lq_width 2
sq_width 2
retire_width 6
scheduler_size 128
branch_mispredict_penalty 15
rob_size 352
lq_size 128
sq_size 72
ifetch_buffer_size 64
decode_buffer_size 32
dispatch_buffer_size 32
register_file_size 288
decode_latency 1
dispatch_latency 1
schedule_latency 1
execute_latency 1
page_size 4096
block_size 64
core_0_itlb_set 16
core_0_itlb_way 4
core_0_itlb_rq_size 16
core_0_itlb_wq_size 16
core_0_itlb_pq_size 0
core_0_itlb_mshr_size 8
core_0_itlb_hit_latency 1
core_0_itlb_fill_latency 1
core_0_itlb_max_tag_check 2
core_0_itlb_max_fill 2
core_0_dtlb_set 16
core_0_dtlb_way 4
core_0_dtlb_rq_size 16
core_0_dtlb_wq_size 16
core_0_dtlb_pq_size 0
core_0_dtlb_mshr_size 8
core_0_dtlb_hit_latency 1
core_0_dtlb_fill_latency 1
core_0_dtlb_max_tag_check 2
core_0_dtlb_max_fill 2
core_0_stlb_set 128
core_0_stlb_way 12
core_0_stlb_rq_size 32
core_0_stlb_wq_size 32
core_0_stlb_pq_size 0
core_0_stlb_mshr_size 16
core_0_stlb_hit_latency 4
core_0_stlb_fill_latency 4
core_0_stlb_max_tag_check 1
core_0_stlb_max_fill 1
core_0_l1i_set 64
core_0_l1i_way 8
core_0_l1i_rq_size 64
core_0_l1i_wq_size 64
core_0_l1i_pq_size 32
core_0_l1i_mshr_size 8
core_0_l1i_hit_latency 2
core_0_l1i_fill_latency 2
core_0_l1i_max_tag_check 2
core_0_l1i_max_fill 2
core_0_l1d_set 64
core_0_l1d_way 12
core_0_l1d_rq_size 64
core_0_l1d_wq_size 64
core_0_l1d_pq_size 8
core_0_l1d_mshr_size 16
core_0_l1d_hit_latency 2
core_0_l1d_fill_latency 3
core_0_l1d_max_tag_check 2
core_0_l1d_max_fill 2
core_0_l2c_set 1024
core_0_l2c_way 8
core_0_l2c_rq_size 32
core_0_l2c_wq_size 32
core_0_l2c_pq_size 16
core_0_l2c_mshr_size 32
core_0_l2c_hit_latency 5
core_0_l2c_fill_latency 5
core_0_l2c_max_tag_check 1
core_0_l2c_max_fill 1
llc_set 2048
llc_way 16
llc_rq_size 32
llc_wq_size 32
llc_pq_size 32
llc_mshr_size 64
llc_hit_latency 10
llc_fill_latency 10
llc_max_tag_check 1
llc_max_fill 1
dram_channels 1
dram_ranks 1
dram_bankgroups 8
dram_banks 4
dram_rows 65536
dram_columns 1024
dram_channel_width 8
dram_rq_size 64
dram_wq_size 64
dram_size 17179869184
core_0_itlb_prefetcher no
core_0_dtlb_prefetcher no
core_0_stlb_prefetcher no
core_0_l1i_prefetcher next_line
core_0_l1d_prefetcher berti
core_0_l2c_prefetcher ip_stride
llc_prefetcher no
llc_replacement drrip

Core_0_instructions 50000000
Core_0_cycles 82961786
Core_0_IPC 0.602687
Core_0_branch_prediction_accuracy 93.1495
Core_0_branch_MPKI 16.4771
Core_0_average_ROB_occupancy_at_mispredict 33.5718

Core_0_ITLB_total_access 1145016
Core_0_ITLB_total_hit 1145008
Core_0_ITLB_total_miss 8
Core_0_ITLB_total_MPKI 0.00016
Core_0_ITLB_total_miss_rate 6.9868e-06
Core_0_ITLB_demand_access 1145016
Core_0_ITLB_demand_hit 1145008
Core_0_ITLB_demand_miss 8
Core_0_ITLB_demand_MPKI 0.00016
Core_0_ITLB_demand_miss_rate 6.9868e-06
Core_0_ITLB_load_access 1145016
Core_0_ITLB_load_hit 1145008
Core_0_ITLB_load_miss 8
Core_0_ITLB_load_MPKI 0.00016
Core_0_ITLB_load_miss_rate 6.9868e-06
Core_0_ITLB_rfo_access 0
Core_0_ITLB_rfo_hit 0
Core_0_ITLB_rfo_miss 0
Core_0_ITLB_rfo_MPKI 0
Core_0_ITLB_rfo_miss_rate 0
Core_0_ITLB_prefetch_access 0
Core_0_ITLB_prefetch_hit 0
Core_0_ITLB_prefetch_miss 0
Core_0_ITLB_prefetch_MPKI 0
Core_0_ITLB_prefetch_miss_rate 0
Core_0_ITLB_writeback_access 0
Core_0_ITLB_writeback_hit 0
Core_0_ITLB_writeback_miss 0
Core_0_ITLB_writeback_MPKI 0
Core_0_ITLB_writeback_miss_rate 0
Core_0_ITLB_prefetch_requested 0
Core_0_ITLB_prefetch_issued 0
Core_0_ITLB_prefetch_useful 0
Core_0_ITLB_prefetch_useless 0
Core_0_ITLB_prefetch_late 0
Core_0_ITLB_prefetch_accuracy 0
Core_0_ITLB_prefetch_coverage 0
Core_0_ITLB_total_eviction 0

Core_0_DTLB_total_access 16824165
Core_0_DTLB_total_hit 16230854
Core_0_DTLB_total_miss 593311
Core_0_DTLB_total_MPKI 11.8662
Core_0_DTLB_total_miss_rate 0.0352654
Core_0_DTLB_demand_access 16824165
Core_0_DTLB_demand_hit 16230854
Core_0_DTLB_demand_miss 593311
Core_0_DTLB_demand_MPKI 11.8662
Core_0_DTLB_demand_miss_rate 0.0352654
Core_0_DTLB_load_access 16824165
Core_0_DTLB_load_hit 16230854
Core_0_DTLB_load_miss 593311
Core_0_DTLB_load_MPKI 11.8662
Core_0_DTLB_load_miss_rate 0.0352654
Core_0_DTLB_rfo_access 0
Core_0_DTLB_rfo_hit 0
Core_0_DTLB_rfo_miss 0
Core_0_DTLB_rfo_MPKI 0
Core_0_DTLB_rfo_miss_rate 0
Core_0_DTLB_prefetch_access 0
Core_0_DTLB_prefetch_hit 0
Core_0_DTLB_prefetch_miss 0
Core_0_DTLB_prefetch_MPKI 0
Core_0_DTLB_prefetch_miss_rate 0
Core_0_DTLB_writeback_access 0
Core_0_DTLB_writeback_hit 0
Core_0_DTLB_writeback_miss 0
Core_0_DTLB_writeback_MPKI 0
Core_0_DTLB_writeback_miss_rate 0
Core_0_DTLB_prefetch_requested 0
Core_0_DTLB_prefetch_issued 0
Core_0_DTLB_prefetch_useful 0
Core_0_DTLB_prefetch_useless 0
Core_0_DTLB_prefetch_late 0
Core_0_DTLB_prefetch_accuracy 0
Core_0_DTLB_prefetch_coverage 0
Core_0_DTLB_total_eviction 406402

Core_0_STLB_total_access 406409
Core_0_STLB_total_hit 345691
Core_0_STLB_total_miss 60718
Core_0_STLB_total_MPKI 1.21436
Core_0_STLB_total_miss_rate 0.149401
Core_0_STLB_demand_access 406409
Core_0_STLB_demand_hit 345691
Core_0_STLB_demand_miss 60718
Core_0_STLB_demand_MPKI 1.21436
Core_0_STLB_demand_miss_rate 0.149401
Core_0_STLB_load_access 406409
Core_0_STLB_load_hit 345691
Core_0_STLB_load_miss 60718
Core_0_STLB_load_MPKI 1.21436
Core_0_STLB_load_miss_rate 0.149401
Core_0_STLB_rfo_access 0
Core_0_STLB_rfo_hit 0
Core_0_STLB_rfo_miss 0
Core_0_STLB_rfo_MPKI 0
Core_0_STLB_rfo_miss_rate 0
Core_0_STLB_prefetch_access 0
Core_0_STLB_prefetch_hit 0
Core_0_STLB_prefetch_miss 0
Core_0_STLB_prefetch_MPKI 0
Core_0_STLB_prefetch_miss_rate 0
Core_0_STLB_writeback_access 0
Core_0_STLB_writeback_hit 0
Core_0_STLB_writeback_miss 0
Core_0_STLB_writeback_MPKI 0
Core_0_STLB_writeback_miss_rate 0
Core_0_STLB_prefetch_requested 0
Core_0_STLB_prefetch_issued 0
Core_0_STLB_prefetch_useful 0
Core_0_STLB_prefetch_useless 0
Core_0_STLB_prefetch_late 0
Core_0_STLB_prefetch_accuracy 0
Core_0_STLB_prefetch_coverage 0
Core_0_STLB_total_eviction 60718

Core_0_L1I_total_access 1331522
Core_0_L1I_total_hit 1331465
Core_0_L1I_total_miss 57
Core_0_L1I_total_MPKI 0.00114
Core_0_L1I_total_miss_rate 4.28082e-05
Core_0_L1I_demand_access 1331522
Core_0_L1I_demand_hit 1331465
Core_0_L1I_demand_miss 57
Core_0_L1I_demand_MPKI 0.00114
Core_0_L1I_demand_miss_rate 4.28082e-05
Core_0_L1I_load_access 1331522
Core_0_L1I_load_hit 1331465
Core_0_L1I_load_miss 57
Core_0_L1I_load_MPKI 0.00114
Core_0_L1I_load_miss_rate 4.28082e-05
Core_0_L1I_rfo_access 0
Core_0_L1I_rfo_hit 0
Core_0_L1I_rfo_miss 0
Core_0_L1I_rfo_MPKI 0
Core_0_L1I_rfo_miss_rate 0
Core_0_L1I_prefetch_access 0
Core_0_L1I_prefetch_hit 0
Core_0_L1I_prefetch_miss 0
Core_0_L1I_prefetch_MPKI 0
Core_0_L1I_prefetch_miss_rate 0
Core_0_L1I_writeback_access 0
Core_0_L1I_writeback_hit 0
Core_0_L1I_writeback_miss 0
Core_0_L1I_writeback_MPKI 0
Core_0_L1I_writeback_miss_rate 0
Core_0_L1I_prefetch_requested 0
Core_0_L1I_prefetch_issued 0
Core_0_L1I_prefetch_useful 0
Core_0_L1I_prefetch_useless 0
Core_0_L1I_prefetch_late 0
Core_0_L1I_prefetch_accuracy 0
Core_0_L1I_prefetch_coverage 0
Core_0_L1I_total_eviction 0

Core_0_L1D_total_access 17566090
Core_0_L1D_total_hit 15675582
Core_0_L1D_total_miss 1890508
Core_0_L1D_total_MPKI 37.8102
Core_0_L1D_total_miss_rate 0.107623
Core_0_L1D_demand_access 10449629
Core_0_L1D_demand_hit 9367660
Core_0_L1D_demand_miss 1081969
Core_0_L1D_demand_MPKI 21.6394
Core_0_L1D_demand_miss_rate 0.103541
Core_0_L1D_load_access 10449629
Core_0_L1D_load_hit 9367660
Core_0_L1D_load_miss 1081969
Core_0_L1D_load_MPKI 21.6394
Core_0_L1D_load_miss_rate 0.103541
Core_0_L1D_rfo_access 0
Core_0_L1D_rfo_hit 0
Core_0_L1D_rfo_miss 0
Core_0_L1D_rfo_MPKI 0
Core_0_L1D_rfo_miss_rate 0
Core_0_L1D_prefetch_access 488766
Core_0_L1D_prefetch_hit 132150
Core_0_L1D_prefetch_miss 356616
Core_0_L1D_prefetch_MPKI 7.13232
Core_0_L1D_prefetch_miss_rate 0.729625
Core_0_L1D_writeback_access 6627695
Core_0_L1D_writeback_hit 6175772
Core_0_L1D_writeback_miss 451923
Core_0_L1D_writeback_MPKI 9.03846
Core_0_L1D_writeback_miss_rate 0.0681871
Core_0_L1D_prefetch_requested 522745
Core_0_L1D_prefetch_issued 488766
Core_0_L1D_prefetch_useful 221512
Core_0_L1D_prefetch_useless 118629
Core_0_L1D_prefetch_late 12850
Core_0_L1D_prefetch_accuracy 0.453207
Core_0_L1D_prefetch_coverage 0.169939
Core_0_L1D_total_eviction 1309118

Core_0_L2C_total_access 1931494
Core_0_L2C_total_hit 1171981
Core_0_L2C_total_miss 759513
Core_0_L2C_total_MPKI 15.1903
Core_0_L2C_total_miss_rate 0.393226
Core_0_L2C_demand_access 927965
Core_0_L2C_demand_hit 408917
Core_0_L2C_demand_miss 519048
Core_0_L2C_demand_MPKI 10.381
Core_0_L2C_demand_miss_rate 0.55934
Core_0_L2C_load_access 801838
Core_0_L2C_load_hit 346005
Core_0_L2C_load_miss 455833
Core_0_L2C_load_MPKI 9.11666
Core_0_L2C_load_miss_rate 0.568485
Core_0_L2C_rfo_access 126127
Core_0_L2C_rfo_hit 62912
Core_0_L2C_rfo_miss 63215
Core_0_L2C_rfo_MPKI 1.2643
Core_0_L2C_rfo_miss_rate 0.501201
Core_0_L2C_prefetch_access 593641
Core_0_L2C_prefetch_hit 353194
Core_0_L2C_prefetch_miss 240447
Core_0_L2C_prefetch_MPKI 4.80894
Core_0_L2C_prefetch_miss_rate 0.405038
Core_0_L2C_writeback_access 409888
Core_0_L2C_writeback_hit 409870
Core_0_L2C_writeback_miss 18
Core_0_L2C_writeback_MPKI 0.00036
Core_0_L2C_writeback_miss_rate 4.39144e-05
Core_0_L2C_prefetch_requested 267682
Core_0_L2C_prefetch_issued 253498
Core_0_L2C_prefetch_useful 65342
Core_0_L2C_prefetch_useless 4680
Core_0_L2C_prefetch_late 7035
Core_0_L2C_prefetch_accuracy 0.257761
Core_0_L2C_prefetch_coverage 0.111812
Core_0_L2C_total_eviction 705295

Core_0_LLC_total_access 1028000
Core_0_LLC_total_hit 443397
Core_0_LLC_total_miss 584603
Core_0_LLC_total_MPKI 11.6921
Core_0_LLC_total_miss_rate 0.56868
Core_0_LLC_demand_access 512013
Core_0_LLC_demand_hit 214741
Core_0_LLC_demand_miss 297272
Core_0_LLC_demand_MPKI 5.94544
Core_0_LLC_demand_miss_rate 0.580595
Core_0_LLC_load_access 448798
Core_0_LLC_load_hit 181676
Core_0_LLC_load_miss 267122
Core_0_LLC_load_MPKI 5.34244
Core_0_LLC_load_miss_rate 0.595194
Core_0_LLC_rfo_access 63215
Core_0_LLC_rfo_hit 33065
Core_0_LLC_rfo_miss 30150
Core_0_LLC_rfo_MPKI 0.603
Core_0_LLC_rfo_miss_rate 0.476944
Core_0_LLC_prefetch_access 193589
Core_0_LLC_prefetch_hit 75562
Core_0_LLC_prefetch_miss 118027
Core_0_LLC_prefetch_MPKI 2.36054
Core_0_LLC_prefetch_miss_rate 0.609678
Core_0_LLC_writeback_access 322398
Core_0_LLC_writeback_hit 153094
Core_0_LLC_writeback_miss 169304
Core_0_LLC_writeback_MPKI 3.38608
Core_0_LLC_writeback_miss_rate 0.52514
Core_0_LLC_prefetch_requested 0
Core_0_LLC_prefetch_issued 0
Core_0_LLC_prefetch_useful 0
Core_0_LLC_prefetch_useless 0
Core_0_LLC_prefetch_late 0
Core_0_LLC_prefetch_accuracy 0
Core_0_LLC_prefetch_coverage 0
Core_0_LLC_total_eviction 584725

[DRAM Statistics]
Channel_0_RQ_row_buffer_hit 12527
Channel_0_RQ_row_buffer_miss 402671
Channel_0_WQ_row_buffer_hit 69734
Channel_0_WQ_row_buffer_miss 184065
Channel_0_WQ_full 1683
Channel_0_dbus_congested 2148181
DRAM_total_RQ_row_buffer_hit 12527
DRAM_total_RQ_row_buffer_miss 402671
DRAM_total_WQ_row_buffer_hit 69734
DRAM_total_WQ_row_buffer_miss 184065
DRAM_total_WQ_full 1683
DRAM_total_dbus_congested 2148181
DRAM_avg_congested_cycle 7.98466

======STLB miss causes ========
Core_0_STLB_miss_cause_breakdown
Core_0_STLB_cause_Demand_Data_miss 60327
Core_0_STLB_cause_Demand_Data_miss_rate 0.148439
Core_0_STLB_cause_Demand_Instruction_miss 7
Core_0_STLB_cause_Demand_Instruction_miss_rate 1.7224e-05
Core_0_STLB_cause_L1D_Prefetch_miss 384
Core_0_STLB_cause_L1D_Prefetch_miss_rate 0.000944861
Core_0_STLB_cause_L1I_Prefetch_miss 0
Core_0_STLB_cause_L1I_Prefetch_miss_rate 0
Core_0_STLB_cause_Other_miss 0
Core_0_STLB_cause_Other_miss_rate 0
Core_0_STLB_Demand_miss 60334
Core_0_STLB_Demand_miss_rate 0.148456
Core_0_STLB_L1D_Prefetch_miss 384
Core_0_STLB_L1D_Prefetch_miss_rate 0.000944861
Core_0_STLB_Other_miss 0
Core_0_STLB_Other_miss_rate 0
