[VMEM] WARNING: physical memory size is smaller than virtual memory size.

*** ChampSim Multicore Out-of-Order Simulator ***
Warmup Instructions: 50000000
Simulation Instructions: 100000000
Number of CPUs: 1
Page size: 4096
Core 0: /data2/zcq/champsim_traces_xsbench/xs.XXL64nuclide-531B.champsimtrace.xz
VBerti Prefetcher
BERTI HASH ENTANGLING
BERTI IP MASK ffff
Off-chip DRAM Size: 16 GiB Channels: 1 Width: 64-bit Data Rate: 3205 MT/s
Warmup halting CPU 0 at instruction 50000002 cycle 36973187 for remainder of phase
Warmup finished CPU 0 instructions: 50000002 cycles: 36973187 cumulative IPC: 1.352 (Simulation time: 00 hr 06 min 50 sec)
Warmup complete CPU 0 instructions: 50000002 cycles: 36973187 cumulative IPC: 1.352 (Simulation time: 00 hr 06 min 50 sec)
Simulation finished CPU 0 instructions: 100000005 cycles: 692550471 cumulative IPC: 0.1444 (Simulation time: 00 hr 50 min 20 sec)
Simulation complete CPU 0 instructions: 100000005 cycles: 692550471 cumulative IPC: 0.1444 (Simulation time: 00 hr 50 min 20 sec)

ChampSim completed all CPUs

=== Simulation ===
CPU 0 runs /data2/zcq/champsim_traces_xsbench/xs.XXL64nuclide-531B.champsimtrace.xz

Region of Interest Statistics

CPU 0 cumulative IPC: 0.1444 instructions: 100000005 cycles: 692550471
CPU 0 Branch Prediction Accuracy: 87.24% MPKI: 21.5 Average ROB Occupancy at Mispredict: 25.73
Branch type MPKI
BRANCH_DIRECT_JUMP: 0
BRANCH_INDIRECT: 0
BRANCH_CONDITIONAL: 21.5
BRANCH_DIRECT_CALL: 0
BRANCH_INDIRECT_CALL: 0
BRANCH_RETURN: 0

cpu0->cpu0_STLB TOTAL        ACCESS:    3997000 HIT:     138608 MISS:    3858392 MSHR_MERGE:          0
cpu0->cpu0_STLB LOAD         ACCESS:    3997000 HIT:     138608 MISS:    3858392 MSHR_MERGE:          0
cpu0->cpu0_STLB RFO          ACCESS:          0 HIT:          0 MISS:          0 MSHR_MERGE:          0
cpu0->cpu0_STLB PREFETCH     ACCESS:          0 HIT:          0 MISS:          0 MSHR_MERGE:          0
cpu0->cpu0_STLB WRITE        ACCESS:          0 HIT:          0 MISS:          0 MSHR_MERGE:          0
cpu0->cpu0_STLB TRANSLATION  ACCESS:          0 HIT:          0 MISS:          0 MSHR_MERGE:          0
cpu0->cpu0_STLB PREFETCH REQUESTED:          0 ISSUED:          0 USEFUL:          0 USELESS:          0 LATE:          0
cpu0->cpu0_STLB AVERAGE MISS LATENCY: 174.9 cycles
cpu0->cpu0_L2C TOTAL        ACCESS:   10607493 HIT:    1482565 MISS:    9124928 MSHR_MERGE:       8626
cpu0->cpu0_L2C LOAD         ACCESS:    5976194 HIT:     204374 MISS:    5771820 MSHR_MERGE:          0
cpu0->cpu0_L2C RFO          ACCESS:      13540 HIT:      12297 MISS:       1243 MSHR_MERGE:          0
cpu0->cpu0_L2C PREFETCH     ACCESS:    1274794 HIT:    1046338 MISS:     228456 MSHR_MERGE:       8626
cpu0->cpu0_L2C WRITE        ACCESS:      19708 HIT:      19595 MISS:        113 MSHR_MERGE:          0
cpu0->cpu0_L2C TRANSLATION  ACCESS:    3323257 HIT:     199961 MISS:    3123296 MSHR_MERGE:          0
cpu0->cpu0_L2C PREFETCH REQUESTED:     342151 ISSUED:     342151 USEFUL:      12837 USELESS:     136983 LATE:          0
cpu0->cpu0_L2C AVERAGE MISS LATENCY: 149.9 cycles
cpu0->cpu0_L1I TOTAL        ACCESS:      21139 HIT:      21139 MISS:          0 MSHR_MERGE:          0
cpu0->cpu0_L1I LOAD         ACCESS:      21139 HIT:      21139 MISS:          0 MSHR_MERGE:          0
cpu0->cpu0_L1I RFO          ACCESS:          0 HIT:          0 MISS:          0 MSHR_MERGE:          0
cpu0->cpu0_L1I PREFETCH     ACCESS:          0 HIT:          0 MISS:          0 MSHR_MERGE:          0
cpu0->cpu0_L1I WRITE        ACCESS:          0 HIT:          0 MISS:          0 MSHR_MERGE:          0
cpu0->cpu0_L1I TRANSLATION  ACCESS:          0 HIT:          0 MISS:          0 MSHR_MERGE:          0
cpu0->cpu0_L1I PREFETCH REQUESTED:          0 ISSUED:          0 USEFUL:          0 USELESS:          0 LATE:          0
cpu0->cpu0_L1I AVERAGE MISS LATENCY: - cycles
cpu0->cpu0_L1D TOTAL        ACCESS:   21937762 HIT:    9764668 MISS:   12173094 MSHR_MERGE:    1927394
cpu0->cpu0_L1D LOAD         ACCESS:    9559508 HIT:    3481947 MISS:    6077561 MSHR_MERGE:     101367
cpu0->cpu0_L1D RFO          ACCESS:          0 HIT:          0 MISS:          0 MSHR_MERGE:          0
cpu0->cpu0_L1D PREFETCH     ACCESS:    2110157 HIT:    1175837 MISS:     934320 MSHR_MERGE:       1677
cpu0->cpu0_L1D WRITE        ACCESS:    1810173 HIT:    1754826 MISS:      55347 MSHR_MERGE:      41740
cpu0->cpu0_L1D TRANSLATION  ACCESS:    8457924 HIT:    3352058 MISS:    5105866 MSHR_MERGE:    1782610
cpu0->cpu0_L1D PREFETCH REQUESTED:    2420527 ISSUED:    2110155 USEFUL:      36673 USELESS:      45752 LATE:        172
cpu0->cpu0_L1D AVERAGE MISS LATENCY: 152.2 cycles
cpu0->cpu0_ITLB TOTAL        ACCESS:      17145 HIT:      17145 MISS:          0 MSHR_MERGE:          0
cpu0->cpu0_ITLB LOAD         ACCESS:      17145 HIT:      17145 MISS:          0 MSHR_MERGE:          0
cpu0->cpu0_ITLB RFO          ACCESS:          0 HIT:          0 MISS:          0 MSHR_MERGE:          0
cpu0->cpu0_ITLB PREFETCH     ACCESS:          0 HIT:          0 MISS:          0 MSHR_MERGE:          0
cpu0->cpu0_ITLB WRITE        ACCESS:          0 HIT:          0 MISS:          0 MSHR_MERGE:          0
cpu0->cpu0_ITLB TRANSLATION  ACCESS:          0 HIT:          0 MISS:          0 MSHR_MERGE:          0
cpu0->cpu0_ITLB PREFETCH REQUESTED:          0 ISSUED:          0 USEFUL:          0 USELESS:          0 LATE:          0
cpu0->cpu0_ITLB AVERAGE MISS LATENCY: - cycles
cpu0->cpu0_DTLB TOTAL        ACCESS:   12821341 HIT:    8611936 MISS:    4209405 MSHR_MERGE:     212406
cpu0->cpu0_DTLB LOAD         ACCESS:   12821341 HIT:    8611936 MISS:    4209405 MSHR_MERGE:     212406
cpu0->cpu0_DTLB RFO          ACCESS:          0 HIT:          0 MISS:          0 MSHR_MERGE:          0
cpu0->cpu0_DTLB PREFETCH     ACCESS:          0 HIT:          0 MISS:          0 MSHR_MERGE:          0
cpu0->cpu0_DTLB WRITE        ACCESS:          0 HIT:          0 MISS:          0 MSHR_MERGE:          0
cpu0->cpu0_DTLB TRANSLATION  ACCESS:          0 HIT:          0 MISS:          0 MSHR_MERGE:          0
cpu0->cpu0_DTLB PREFETCH REQUESTED:          0 ISSUED:          0 USEFUL:          0 USELESS:          0 LATE:          0
cpu0->cpu0_DTLB AVERAGE MISS LATENCY: 174.8 cycles
cpu0->LLC TOTAL        ACCESS:    9120473 HIT:    3060976 MISS:    6059497 MSHR_MERGE:          0
cpu0->LLC LOAD         ACCESS:    5771820 HIT:    1329435 MISS:    4442385 MSHR_MERGE:          0
cpu0->LLC RFO          ACCESS:       1243 HIT:       1241 MISS:          2 MSHR_MERGE:          0
cpu0->LLC PREFETCH     ACCESS:     219830 HIT:      83953 MISS:     135877 MSHR_MERGE:          0
cpu0->LLC WRITE        ACCESS:       4284 HIT:       4275 MISS:          9 MSHR_MERGE:          0
cpu0->LLC TRANSLATION  ACCESS:    3123296 HIT:    1642072 MISS:    1481224 MSHR_MERGE:          0
cpu0->LLC PREFETCH REQUESTED:          0 ISSUED:          0 USEFUL:          0 USELESS:          0 LATE:          0
cpu0->LLC AVERAGE MISS LATENCY: 201.6 cycles

DRAM Statistics

Channel 0 RQ ROW_BUFFER_HIT:      30843
  ROW_BUFFER_MISS:    6028645
  AVG DBUS CONGESTED CYCLE: 2.931
Channel 0 WQ ROW_BUFFER_HIT:          1
  ROW_BUFFER_MISS:          7
  FULL:          0
Channel 0 REFRESHES ISSUED:      57712

[ROI Statistics]
[System Configuration]
num_cpus 1
cpu_freq 4000
fetch_width 6
decode_width 6
dispatch_width 6
execute_width 6
lq_width 2
sq_width 2
retire_width 6
scheduler_size 128
branch_mispredict_penalty 15
rob_size 352
lq_size 128
sq_size 72
ifetch_buffer_size 64
decode_buffer_size 32
dispatch_buffer_size 32
register_file_size 288
decode_latency 1
dispatch_latency 1
schedule_latency 1
execute_latency 1
page_size 4096
block_size 64
core_0_itlb_set 16
core_0_itlb_way 4
core_0_itlb_rq_size 16
core_0_itlb_wq_size 16
core_0_itlb_pq_size 0
core_0_itlb_mshr_size 8
core_0_itlb_hit_latency 1
core_0_itlb_fill_latency 1
core_0_itlb_max_tag_check 2
core_0_itlb_max_fill 2
core_0_dtlb_set 16
core_0_dtlb_way 4
core_0_dtlb_rq_size 16
core_0_dtlb_wq_size 16
core_0_dtlb_pq_size 0
core_0_dtlb_mshr_size 8
core_0_dtlb_hit_latency 1
core_0_dtlb_fill_latency 1
core_0_dtlb_max_tag_check 2
core_0_dtlb_max_fill 2
core_0_stlb_set 128
core_0_stlb_way 12
core_0_stlb_rq_size 32
core_0_stlb_wq_size 32
core_0_stlb_pq_size 0
core_0_stlb_mshr_size 16
core_0_stlb_hit_latency 4
core_0_stlb_fill_latency 4
core_0_stlb_max_tag_check 1
core_0_stlb_max_fill 1
core_0_l1i_set 64
core_0_l1i_way 8
core_0_l1i_rq_size 64
core_0_l1i_wq_size 64
core_0_l1i_pq_size 32
core_0_l1i_mshr_size 8
core_0_l1i_hit_latency 2
core_0_l1i_fill_latency 2
core_0_l1i_max_tag_check 2
core_0_l1i_max_fill 2
core_0_l1d_set 64
core_0_l1d_way 12
core_0_l1d_rq_size 64
core_0_l1d_wq_size 64
core_0_l1d_pq_size 8
core_0_l1d_mshr_size 16
core_0_l1d_hit_latency 2
core_0_l1d_fill_latency 3
core_0_l1d_max_tag_check 2
core_0_l1d_max_fill 2
core_0_l2c_set 1024
core_0_l2c_way 8
core_0_l2c_rq_size 32
core_0_l2c_wq_size 32
core_0_l2c_pq_size 16
core_0_l2c_mshr_size 32
core_0_l2c_hit_latency 5
core_0_l2c_fill_latency 5
core_0_l2c_max_tag_check 1
core_0_l2c_max_fill 1
llc_set 2048
llc_way 16
llc_rq_size 32
llc_wq_size 32
llc_pq_size 32
llc_mshr_size 64
llc_hit_latency 10
llc_fill_latency 10
llc_max_tag_check 1
llc_max_fill 1
dram_channels 1
dram_ranks 1
dram_bankgroups 8
dram_banks 4
dram_rows 65536
dram_columns 1024
dram_channel_width 8
dram_rq_size 64
dram_wq_size 64
dram_size 17179869184
core_0_itlb_prefetcher no
core_0_dtlb_prefetcher no
core_0_stlb_prefetcher no
core_0_l1i_prefetcher next_line
core_0_l1d_prefetcher vberti
core_0_l2c_prefetcher ip_stride
llc_prefetcher no
llc_replacement drrip

Core_0_instructions 100000005
Core_0_cycles 692550471
Core_0_IPC 0.144394
Core_0_branch_prediction_accuracy 87.2432
Core_0_branch_MPKI 21.4968
Core_0_average_ROB_occupancy_at_mispredict 25.7251

Core_0_ITLB_total_access 17145
Core_0_ITLB_total_hit 17145
Core_0_ITLB_total_miss 0
Core_0_ITLB_total_MPKI 0
Core_0_ITLB_total_miss_rate 0
Core_0_ITLB_demand_access 17145
Core_0_ITLB_demand_hit 17145
Core_0_ITLB_demand_miss 0
Core_0_ITLB_demand_MPKI 0
Core_0_ITLB_demand_miss_rate 0
Core_0_ITLB_load_access 17145
Core_0_ITLB_load_hit 17145
Core_0_ITLB_load_miss 0
Core_0_ITLB_load_MPKI 0
Core_0_ITLB_load_miss_rate 0
Core_0_ITLB_rfo_access 0
Core_0_ITLB_rfo_hit 0
Core_0_ITLB_rfo_miss 0
Core_0_ITLB_rfo_MPKI 0
Core_0_ITLB_rfo_miss_rate 0
Core_0_ITLB_prefetch_access 0
Core_0_ITLB_prefetch_hit 0
Core_0_ITLB_prefetch_miss 0
Core_0_ITLB_prefetch_MPKI 0
Core_0_ITLB_prefetch_miss_rate 0
Core_0_ITLB_writeback_access 0
Core_0_ITLB_writeback_hit 0
Core_0_ITLB_writeback_miss 0
Core_0_ITLB_writeback_MPKI 0
Core_0_ITLB_writeback_miss_rate 0
Core_0_ITLB_prefetch_requested 0
Core_0_ITLB_prefetch_issued 0
Core_0_ITLB_prefetch_useful 0
Core_0_ITLB_prefetch_useless 0
Core_0_ITLB_prefetch_late 0
Core_0_ITLB_prefetch_accuracy 0
Core_0_ITLB_prefetch_coverage 0

Core_0_DTLB_total_access 12821341
Core_0_DTLB_total_hit 8611936
Core_0_DTLB_total_miss 4209405
Core_0_DTLB_total_MPKI 42.094
Core_0_DTLB_total_miss_rate 0.328312
Core_0_DTLB_demand_access 12821341
Core_0_DTLB_demand_hit 8611936
Core_0_DTLB_demand_miss 4209405
Core_0_DTLB_demand_MPKI 42.094
Core_0_DTLB_demand_miss_rate 0.328312
Core_0_DTLB_load_access 12821341
Core_0_DTLB_load_hit 8611936
Core_0_DTLB_load_miss 4209405
Core_0_DTLB_load_MPKI 42.094
Core_0_DTLB_load_miss_rate 0.328312
Core_0_DTLB_rfo_access 0
Core_0_DTLB_rfo_hit 0
Core_0_DTLB_rfo_miss 0
Core_0_DTLB_rfo_MPKI 0
Core_0_DTLB_rfo_miss_rate 0
Core_0_DTLB_prefetch_access 0
Core_0_DTLB_prefetch_hit 0
Core_0_DTLB_prefetch_miss 0
Core_0_DTLB_prefetch_MPKI 0
Core_0_DTLB_prefetch_miss_rate 0
Core_0_DTLB_writeback_access 0
Core_0_DTLB_writeback_hit 0
Core_0_DTLB_writeback_miss 0
Core_0_DTLB_writeback_MPKI 0
Core_0_DTLB_writeback_miss_rate 0
Core_0_DTLB_prefetch_requested 0
Core_0_DTLB_prefetch_issued 0
Core_0_DTLB_prefetch_useful 0
Core_0_DTLB_prefetch_useless 0
Core_0_DTLB_prefetch_late 0
Core_0_DTLB_prefetch_accuracy 0
Core_0_DTLB_prefetch_coverage 0

Core_0_STLB_total_access 3997000
Core_0_STLB_total_hit 138608
Core_0_STLB_total_miss 3858392
Core_0_STLB_total_MPKI 38.5839
Core_0_STLB_total_miss_rate 0.965322
Core_0_STLB_demand_access 3997000
Core_0_STLB_demand_hit 138608
Core_0_STLB_demand_miss 3858392
Core_0_STLB_demand_MPKI 38.5839
Core_0_STLB_demand_miss_rate 0.965322
Core_0_STLB_load_access 3997000
Core_0_STLB_load_hit 138608
Core_0_STLB_load_miss 3858392
Core_0_STLB_load_MPKI 38.5839
Core_0_STLB_load_miss_rate 0.965322
Core_0_STLB_rfo_access 0
Core_0_STLB_rfo_hit 0
Core_0_STLB_rfo_miss 0
Core_0_STLB_rfo_MPKI 0
Core_0_STLB_rfo_miss_rate 0
Core_0_STLB_prefetch_access 0
Core_0_STLB_prefetch_hit 0
Core_0_STLB_prefetch_miss 0
Core_0_STLB_prefetch_MPKI 0
Core_0_STLB_prefetch_miss_rate 0
Core_0_STLB_writeback_access 0
Core_0_STLB_writeback_hit 0
Core_0_STLB_writeback_miss 0
Core_0_STLB_writeback_MPKI 0
Core_0_STLB_writeback_miss_rate 0
Core_0_STLB_prefetch_requested 0
Core_0_STLB_prefetch_issued 0
Core_0_STLB_prefetch_useful 0
Core_0_STLB_prefetch_useless 0
Core_0_STLB_prefetch_late 0
Core_0_STLB_prefetch_accuracy 0
Core_0_STLB_prefetch_coverage 0

Core_0_L1I_total_access 21139
Core_0_L1I_total_hit 21139
Core_0_L1I_total_miss 0
Core_0_L1I_total_MPKI 0
Core_0_L1I_total_miss_rate 0
Core_0_L1I_demand_access 21139
Core_0_L1I_demand_hit 21139
Core_0_L1I_demand_miss 0
Core_0_L1I_demand_MPKI 0
Core_0_L1I_demand_miss_rate 0
Core_0_L1I_load_access 21139
Core_0_L1I_load_hit 21139
Core_0_L1I_load_miss 0
Core_0_L1I_load_MPKI 0
Core_0_L1I_load_miss_rate 0
Core_0_L1I_rfo_access 0
Core_0_L1I_rfo_hit 0
Core_0_L1I_rfo_miss 0
Core_0_L1I_rfo_MPKI 0
Core_0_L1I_rfo_miss_rate 0
Core_0_L1I_prefetch_access 0
Core_0_L1I_prefetch_hit 0
Core_0_L1I_prefetch_miss 0
Core_0_L1I_prefetch_MPKI 0
Core_0_L1I_prefetch_miss_rate 0
Core_0_L1I_writeback_access 0
Core_0_L1I_writeback_hit 0
Core_0_L1I_writeback_miss 0
Core_0_L1I_writeback_MPKI 0
Core_0_L1I_writeback_miss_rate 0
Core_0_L1I_prefetch_requested 0
Core_0_L1I_prefetch_issued 0
Core_0_L1I_prefetch_useful 0
Core_0_L1I_prefetch_useless 0
Core_0_L1I_prefetch_late 0
Core_0_L1I_prefetch_accuracy 0
Core_0_L1I_prefetch_coverage 0

Core_0_L1D_total_access 13479838
Core_0_L1D_total_hit 6412610
Core_0_L1D_total_miss 7067228
Core_0_L1D_total_MPKI 70.6723
Core_0_L1D_total_miss_rate 0.524281
Core_0_L1D_demand_access 9559508
Core_0_L1D_demand_hit 3481947
Core_0_L1D_demand_miss 6077561
Core_0_L1D_demand_MPKI 60.7756
Core_0_L1D_demand_miss_rate 0.635761
Core_0_L1D_load_access 9559508
Core_0_L1D_load_hit 3481947
Core_0_L1D_load_miss 6077561
Core_0_L1D_load_MPKI 60.7756
Core_0_L1D_load_miss_rate 0.635761
Core_0_L1D_rfo_access 0
Core_0_L1D_rfo_hit 0
Core_0_L1D_rfo_miss 0
Core_0_L1D_rfo_MPKI 0
Core_0_L1D_rfo_miss_rate 0
Core_0_L1D_prefetch_access 2110157
Core_0_L1D_prefetch_hit 1175837
Core_0_L1D_prefetch_miss 934320
Core_0_L1D_prefetch_MPKI 9.3432
Core_0_L1D_prefetch_miss_rate 0.442773
Core_0_L1D_writeback_access 1810173
Core_0_L1D_writeback_hit 1754826
Core_0_L1D_writeback_miss 55347
Core_0_L1D_writeback_MPKI 0.55347
Core_0_L1D_writeback_miss_rate 0.0305755
Core_0_L1D_prefetch_requested 2420527
Core_0_L1D_prefetch_issued 2110155
Core_0_L1D_prefetch_useful 36673
Core_0_L1D_prefetch_useless 45752
Core_0_L1D_prefetch_late 172
Core_0_L1D_prefetch_accuracy 0.0173793
Core_0_L1D_prefetch_coverage 0.00599797

Core_0_L2C_total_access 7284236
Core_0_L2C_total_hit 1282604
Core_0_L2C_total_miss 6001632
Core_0_L2C_total_MPKI 60.0163
Core_0_L2C_total_miss_rate 0.823921
Core_0_L2C_demand_access 5989734
Core_0_L2C_demand_hit 216671
Core_0_L2C_demand_miss 5773063
Core_0_L2C_demand_MPKI 57.7306
Core_0_L2C_demand_miss_rate 0.963826
Core_0_L2C_load_access 5976194
Core_0_L2C_load_hit 204374
Core_0_L2C_load_miss 5771820
Core_0_L2C_load_MPKI 57.7182
Core_0_L2C_load_miss_rate 0.965802
Core_0_L2C_rfo_access 13540
Core_0_L2C_rfo_hit 12297
Core_0_L2C_rfo_miss 1243
Core_0_L2C_rfo_MPKI 0.01243
Core_0_L2C_rfo_miss_rate 0.0918021
Core_0_L2C_prefetch_access 1274794
Core_0_L2C_prefetch_hit 1046338
Core_0_L2C_prefetch_miss 228456
Core_0_L2C_prefetch_MPKI 2.28456
Core_0_L2C_prefetch_miss_rate 0.17921
Core_0_L2C_writeback_access 19708
Core_0_L2C_writeback_hit 19595
Core_0_L2C_writeback_miss 113
Core_0_L2C_writeback_MPKI 0.00113
Core_0_L2C_writeback_miss_rate 0.00573371
Core_0_L2C_prefetch_requested 342151
Core_0_L2C_prefetch_issued 342151
Core_0_L2C_prefetch_useful 12837
Core_0_L2C_prefetch_useless 136983
Core_0_L2C_prefetch_late 0
Core_0_L2C_prefetch_accuracy 0.0375185
Core_0_L2C_prefetch_coverage 0.00221867

Core_0_LLC_total_access 5997177
Core_0_LLC_total_hit 1418904
Core_0_LLC_total_miss 4578273
Core_0_LLC_total_MPKI 45.7827
Core_0_LLC_total_miss_rate 0.763405
Core_0_LLC_demand_access 5773063
Core_0_LLC_demand_hit 1330676
Core_0_LLC_demand_miss 4442387
Core_0_LLC_demand_MPKI 44.4239
Core_0_LLC_demand_miss_rate 0.769503
Core_0_LLC_load_access 5771820
Core_0_LLC_load_hit 1329435
Core_0_LLC_load_miss 4442385
Core_0_LLC_load_MPKI 44.4238
Core_0_LLC_load_miss_rate 0.769668
Core_0_LLC_rfo_access 1243
Core_0_LLC_rfo_hit 1241
Core_0_LLC_rfo_miss 2
Core_0_LLC_rfo_MPKI 2e-05
Core_0_LLC_rfo_miss_rate 0.00160901
Core_0_LLC_prefetch_access 219830
Core_0_LLC_prefetch_hit 83953
Core_0_LLC_prefetch_miss 135877
Core_0_LLC_prefetch_MPKI 1.35877
Core_0_LLC_prefetch_miss_rate 0.6181
Core_0_LLC_writeback_access 4284
Core_0_LLC_writeback_hit 4275
Core_0_LLC_writeback_miss 9
Core_0_LLC_writeback_MPKI 9e-05
Core_0_LLC_writeback_miss_rate 0.00210084
Core_0_LLC_prefetch_requested 0
Core_0_LLC_prefetch_issued 0
Core_0_LLC_prefetch_useful 0
Core_0_LLC_prefetch_useless 0
Core_0_LLC_prefetch_late 0
Core_0_LLC_prefetch_accuracy 0
Core_0_LLC_prefetch_coverage 0

[DRAM Statistics]
Channel_0_RQ_row_buffer_hit 30843
Channel_0_RQ_row_buffer_miss 6028645
Channel_0_WQ_row_buffer_hit 1
Channel_0_WQ_row_buffer_miss 7
Channel_0_WQ_full 0
Channel_0_dbus_congested 6327436
DRAM_total_RQ_row_buffer_hit 30843
DRAM_total_RQ_row_buffer_miss 6028645
DRAM_total_WQ_row_buffer_hit 1
DRAM_total_WQ_row_buffer_miss 7
DRAM_total_WQ_full 0
DRAM_total_dbus_congested 6327436
DRAM_avg_congested_cycle 2.9312

====== DRAM_RQ_TRAFFIC ========
DRAM_RQ_READ_TRAFFIC_BREAKDOWN:
data_demand_read.count = 4442387
data_demand_read.share = 73.31%

inst_demand_read.count = 0
inst_demand_read.share = 0.00%

cache_inst_prefetch.count = 0
cache_inst_prefetch.share = 0.00%

cache_data_prefetch.count = 135877
cache_data_prefetch.share = 2.24%

stlb_data_demand.count = 1481224
stlb_data_demand.share = 24.44%

stlb_inst_demand.count = 0
stlb_inst_demand.share = 0.00%

stlb_l1i_pref.count = 0
stlb_l1i_pref.share = 0.00%

stlb_l1d_pref.count = 0
stlb_l1d_pref.share = 0.00%

DRAM_RQ_READ_TRAFFIC_SUMMARY:
cache_demand.count = 4442387
cache_demand.share = 73.31%

cache_prefetch.count = 135877
cache_prefetch.share = 2.24%

stlb_demand.count = 1481224
stlb_demand.share = 24.44%

stlb_prefetch.count = 0
stlb_prefetch.share = 0.00%

DRAM_RQ_READ_TRAFFIC_DEBUG:
total_classified_read.count = 6059488
unclassified_read.count = 0
total_read_with_other.count = 6059488

classified_plus_unclassified_check.count = 6059488
dram_rq_read_total_observed.count = 6059488
dram_rq_read_total_observed.per_1K_instructions = 60.5949

STLB_MISS_PTW_DRAM_TOUCH_BREAKDOWN:
stlb_miss_total.count = 3858392

stlb_miss_touch_dram.count = 1483085
stlb_miss_touch_dram.share = 38.44%

stlb_miss_no_dram_touch.count = 2375307
stlb_miss_no_dram_touch.share = 61.56%

STLB_MISS_PTW_DRAM_TOUCH_DEBUG:
stlb_miss_touch_plus_no_touch.count = 3858392
stlb_miss_total_check.count = 3858392

======STLB miss causes ========
Core_0_STLB_miss_cause_breakdown
Core_0_STLB_cause_Demand_Data_miss 3856774
Core_0_STLB_cause_Demand_Data_miss_rate 0.964917
Core_0_STLB_cause_Demand_Instruction_miss 0
Core_0_STLB_cause_Demand_Instruction_miss_rate 0
Core_0_STLB_cause_L1D_Prefetch_miss 1618
Core_0_STLB_cause_L1D_Prefetch_miss_rate 0.000404804
Core_0_STLB_cause_L1I_Prefetch_miss 0
Core_0_STLB_cause_L1I_Prefetch_miss_rate 0
Core_0_STLB_cause_Other_miss 0
Core_0_STLB_cause_Other_miss_rate 0
Core_0_STLB_Demand_miss 3856774
Core_0_STLB_Demand_miss_rate 0.964917
Core_0_STLB_L1D_Prefetch_miss 1618
Core_0_STLB_L1D_Prefetch_miss_rate 0.000404804
Core_0_STLB_Other_miss 0
Core_0_STLB_Other_miss_rate 0
BERTI TO_L1: 1477517 TO_L2: 1630583 TO_L2_BC_MSHR: 0
BERTI AVG_LAT: 119.95 NUM_TRACK_LATENCY: 9072492 NUM_CANT_TRACK_LATENCY: 0
BERTI CROSS_PAGE 323118 NO_CROSS_PAGE: 2784982
BERTI FOUND_BERTI: 12486991 NO_FOUND_BERTI: 3993953
BERTI AVERAGE_ISSUED: 2.89841
