[VMEM] WARNING: physical memory size is smaller than virtual memory size.

*** ChampSim Multicore Out-of-Order Simulator ***
Warmup Instructions: 50000000
Simulation Instructions: 100000000
Number of CPUs: 1
Page size: 4096
Core 0: /data0/tzh/champsim_traces/SPEC06/429.mcf-51B.champsimtrace.xz
VBerti Prefetcher
BERTI HASH ENTANGLING
BERTI IP MASK ffff
Off-chip DRAM Size: 16 GiB Channels: 1 Width: 64-bit Data Rate: 3205 MT/s
Warmup halting CPU 0 at instruction 50000004 cycle 14160647 for remainder of phase
Warmup finished CPU 0 instructions: 50000004 cycles: 14160647 cumulative IPC: 3.531 (Simulation time: 00 hr 04 min 03 sec)
Warmup complete CPU 0 instructions: 50000004 cycles: 14160647 cumulative IPC: 3.531 (Simulation time: 00 hr 04 min 03 sec)
Simulation CPU 0 warning: IPC 0.039031 < 0.05
Simulation finished CPU 0 instructions: 100000005 cycles: 634233979 cumulative IPC: 0.1577 (Simulation time: 01 hr 08 min 46 sec)
Simulation complete CPU 0 instructions: 100000005 cycles: 634233979 cumulative IPC: 0.1577 (Simulation time: 01 hr 08 min 46 sec)

ChampSim completed all CPUs

=== Simulation ===
CPU 0 runs /data0/tzh/champsim_traces/SPEC06/429.mcf-51B.champsimtrace.xz

Region of Interest Statistics

CPU 0 cumulative IPC: 0.1577 instructions: 100000005 cycles: 634233979
CPU 0 Branch Prediction Accuracy: 94.42% MPKI: 13.38 Average ROB Occupancy at Mispredict: 50.02
Branch type MPKI
BRANCH_DIRECT_JUMP: 0.7003
BRANCH_INDIRECT: 0
BRANCH_CONDITIONAL: 12.68
BRANCH_DIRECT_CALL: 0
BRANCH_INDIRECT_CALL: 0
BRANCH_RETURN: 0

cpu0->cpu0_STLB TOTAL        ACCESS:    7963716 HIT:    6911680 MISS:    1052036 MSHR_MERGE:          0
cpu0->cpu0_STLB LOAD         ACCESS:    7963716 HIT:    6911680 MISS:    1052036 MSHR_MERGE:          0
cpu0->cpu0_STLB RFO          ACCESS:          0 HIT:          0 MISS:          0 MSHR_MERGE:          0
cpu0->cpu0_STLB PREFETCH     ACCESS:          0 HIT:          0 MISS:          0 MSHR_MERGE:          0
cpu0->cpu0_STLB WRITE        ACCESS:          0 HIT:          0 MISS:          0 MSHR_MERGE:          0
cpu0->cpu0_STLB TRANSLATION  ACCESS:          0 HIT:          0 MISS:          0 MSHR_MERGE:          0
cpu0->cpu0_STLB PREFETCH REQUESTED:          0 ISSUED:          0 USEFUL:          0 USELESS:          0 LATE:          0 TOO_EARLY:          0
cpu0->cpu0_STLB AVERAGE MISS LATENCY: 115 cycles
cpu0->cpu0_L2C TOTAL        ACCESS:   13832522 HIT:    6572458 MISS:    7260064 MSHR_MERGE:       4418
cpu0->cpu0_L2C LOAD         ACCESS:    9728126 HIT:    3166929 MISS:    6561197 MSHR_MERGE:        276
cpu0->cpu0_L2C RFO          ACCESS:     318685 HIT:     173461 MISS:     145224 MSHR_MERGE:          0
cpu0->cpu0_L2C PREFETCH     ACCESS:     411931 HIT:     362211 MISS:      49720 MSHR_MERGE:       4142
cpu0->cpu0_L2C WRITE        ACCESS:    2412063 HIT:    2411814 MISS:        249 MSHR_MERGE:          0
cpu0->cpu0_L2C TRANSLATION  ACCESS:     961717 HIT:     458043 MISS:     503674 MSHR_MERGE:          0
cpu0->cpu0_L2C PREFETCH REQUESTED:      35238 ISSUED:      35238 USEFUL:       5649 USELESS:       9273 LATE:        228 TOO_EARLY:       1168
cpu0->cpu0_L2C AVERAGE MISS LATENCY: 196.3 cycles
cpu0->cpu0_L1I TOTAL        ACCESS:    3274646 HIT:    3274646 MISS:          0 MSHR_MERGE:          0
cpu0->cpu0_L1I LOAD         ACCESS:    3274646 HIT:    3274646 MISS:          0 MSHR_MERGE:          0
cpu0->cpu0_L1I RFO          ACCESS:          0 HIT:          0 MISS:          0 MSHR_MERGE:          0
cpu0->cpu0_L1I PREFETCH     ACCESS:          0 HIT:          0 MISS:          0 MSHR_MERGE:          0
cpu0->cpu0_L1I WRITE        ACCESS:          0 HIT:          0 MISS:          0 MSHR_MERGE:          0
cpu0->cpu0_L1I TRANSLATION  ACCESS:          0 HIT:          0 MISS:          0 MSHR_MERGE:          0
cpu0->cpu0_L1I PREFETCH REQUESTED:          0 ISSUED:          0 USEFUL:          0 USELESS:          0 LATE:          0 TOO_EARLY:          0
cpu0->cpu0_L1I AVERAGE MISS LATENCY: - cycles
cpu0->cpu0_L1D TOTAL        ACCESS:   35829760 HIT:   20825242 MISS:   15004518 MSHR_MERGE:    3605851
cpu0->cpu0_L1D LOAD         ACCESS:   24921230 HIT:   11834882 MISS:   13086348 MSHR_MERGE:    3358142
cpu0->cpu0_L1D RFO          ACCESS:          0 HIT:          0 MISS:          0 MSHR_MERGE:          0
cpu0->cpu0_L1D PREFETCH     ACCESS:    3605984 HIT:    3206153 MISS:     399831 MSHR_MERGE:       9779
cpu0->cpu0_L1D WRITE        ACCESS:    4884415 HIT:    4337584 MISS:     546831 MSHR_MERGE:     228139
cpu0->cpu0_L1D TRANSLATION  ACCESS:    2418131 HIT:    1446623 MISS:     971508 MSHR_MERGE:       9791
cpu0->cpu0_L1D PREFETCH REQUESTED:    4197624 ISSUED:    3605980 USEFUL:      21889 USELESS:      27682 LATE:        832 TOO_EARLY:       1961
cpu0->cpu0_L1D AVERAGE MISS LATENCY: 137.3 cycles
cpu0->cpu0_ITLB TOTAL        ACCESS:    3013907 HIT:    3013907 MISS:          0 MSHR_MERGE:          0
cpu0->cpu0_ITLB LOAD         ACCESS:    3013907 HIT:    3013907 MISS:          0 MSHR_MERGE:          0
cpu0->cpu0_ITLB RFO          ACCESS:          0 HIT:          0 MISS:          0 MSHR_MERGE:          0
cpu0->cpu0_ITLB PREFETCH     ACCESS:          0 HIT:          0 MISS:          0 MSHR_MERGE:          0
cpu0->cpu0_ITLB WRITE        ACCESS:          0 HIT:          0 MISS:          0 MSHR_MERGE:          0
cpu0->cpu0_ITLB TRANSLATION  ACCESS:          0 HIT:          0 MISS:          0 MSHR_MERGE:          0
cpu0->cpu0_ITLB PREFETCH REQUESTED:          0 ISSUED:          0 USEFUL:          0 USELESS:          0 LATE:          0 TOO_EARLY:          0
cpu0->cpu0_ITLB AVERAGE MISS LATENCY: - cycles
cpu0->cpu0_DTLB TOTAL        ACCESS:   31826654 HIT:   19275674 MISS:   12550980 MSHR_MERGE:    4587264
cpu0->cpu0_DTLB LOAD         ACCESS:   31826654 HIT:   19275674 MISS:   12550980 MSHR_MERGE:    4587264
cpu0->cpu0_DTLB RFO          ACCESS:          0 HIT:          0 MISS:          0 MSHR_MERGE:          0
cpu0->cpu0_DTLB PREFETCH     ACCESS:          0 HIT:          0 MISS:          0 MSHR_MERGE:          0
cpu0->cpu0_DTLB WRITE        ACCESS:          0 HIT:          0 MISS:          0 MSHR_MERGE:          0
cpu0->cpu0_DTLB TRANSLATION  ACCESS:          0 HIT:          0 MISS:          0 MSHR_MERGE:          0
cpu0->cpu0_DTLB PREFETCH REQUESTED:          0 ISSUED:          0 USEFUL:          0 USELESS:          0 LATE:          0 TOO_EARLY:          0
cpu0->cpu0_DTLB AVERAGE MISS LATENCY: 20.33 cycles
cpu0->LLC TOTAL        ACCESS:    8793220 HIT:    2267910 MISS:    6525310 MSHR_MERGE:         13
cpu0->LLC LOAD         ACCESS:    6560921 HIT:    1275413 MISS:    5285508 MSHR_MERGE:          0
cpu0->LLC RFO          ACCESS:     145224 HIT:      46120 MISS:      99104 MSHR_MERGE:          0
cpu0->LLC PREFETCH     ACCESS:      45578 HIT:       7650 MISS:      37928 MSHR_MERGE:         13
cpu0->LLC WRITE        ACCESS:    1537823 HIT:     797014 MISS:     740809 MSHR_MERGE:          0
cpu0->LLC TRANSLATION  ACCESS:     503674 HIT:     141713 MISS:     361961 MSHR_MERGE:          0
cpu0->LLC PREFETCH REQUESTED:          0 ISSUED:          0 USEFUL:          0 USELESS:          0 LATE:          0 TOO_EARLY:          0
cpu0->LLC AVERAGE MISS LATENCY: 201.7 cycles

DRAM Statistics

Channel 0 RQ ROW_BUFFER_HIT:       8610
  ROW_BUFFER_MISS:    5775140
  AVG DBUS CONGESTED CYCLE: 8.64
Channel 0 WQ ROW_BUFFER_HIT:     379486
  ROW_BUFFER_MISS:     899276
  FULL:          0
Channel 0 REFRESHES ISSUED:      52852

[ROI Statistics]
[System Configuration]
num_cpus 1
cpu_freq 4000
fetch_width 6
decode_width 6
dispatch_width 6
execute_width 6
lq_width 2
sq_width 2
retire_width 6
scheduler_size 128
branch_mispredict_penalty 15
rob_size 352
lq_size 128
sq_size 72
ifetch_buffer_size 64
decode_buffer_size 32
dispatch_buffer_size 32
register_file_size 288
decode_latency 1
dispatch_latency 1
schedule_latency 1
execute_latency 1
page_size 4096
block_size 64
core_0_itlb_set 16
core_0_itlb_way 4
core_0_itlb_rq_size 16
core_0_itlb_wq_size 16
core_0_itlb_pq_size 0
core_0_itlb_mshr_size 8
core_0_itlb_hit_latency 1
core_0_itlb_fill_latency 1
core_0_itlb_max_tag_check 2
core_0_itlb_max_fill 2
core_0_dtlb_set 16
core_0_dtlb_way 4
core_0_dtlb_rq_size 16
core_0_dtlb_wq_size 16
core_0_dtlb_pq_size 0
core_0_dtlb_mshr_size 8
core_0_dtlb_hit_latency 1
core_0_dtlb_fill_latency 1
core_0_dtlb_max_tag_check 2
core_0_dtlb_max_fill 2
core_0_stlb_set 128
core_0_stlb_way 12
core_0_stlb_rq_size 32
core_0_stlb_wq_size 32
core_0_stlb_pq_size 0
core_0_stlb_mshr_size 16
core_0_stlb_hit_latency 4
core_0_stlb_fill_latency 4
core_0_stlb_max_tag_check 1
core_0_stlb_max_fill 1
core_0_l1i_set 64
core_0_l1i_way 8
core_0_l1i_rq_size 64
core_0_l1i_wq_size 64
core_0_l1i_pq_size 32
core_0_l1i_mshr_size 8
core_0_l1i_hit_latency 2
core_0_l1i_fill_latency 2
core_0_l1i_max_tag_check 2
core_0_l1i_max_fill 2
core_0_l1d_set 64
core_0_l1d_way 12
core_0_l1d_rq_size 64
core_0_l1d_wq_size 64
core_0_l1d_pq_size 8
core_0_l1d_mshr_size 16
core_0_l1d_hit_latency 2
core_0_l1d_fill_latency 3
core_0_l1d_max_tag_check 2
core_0_l1d_max_fill 2
core_0_l2c_set 1024
core_0_l2c_way 8
core_0_l2c_rq_size 32
core_0_l2c_wq_size 32
core_0_l2c_pq_size 16
core_0_l2c_mshr_size 32
core_0_l2c_hit_latency 5
core_0_l2c_fill_latency 5
core_0_l2c_max_tag_check 1
core_0_l2c_max_fill 1
llc_set 2048
llc_way 16
llc_rq_size 32
llc_wq_size 32
llc_pq_size 32
llc_mshr_size 64
llc_hit_latency 10
llc_fill_latency 10
llc_max_tag_check 1
llc_max_fill 1
dram_channels 1
dram_ranks 1
dram_bankgroups 8
dram_banks 4
dram_rows 65536
dram_columns 1024
dram_channel_width 8
dram_rq_size 64
dram_wq_size 64
dram_size 17179869184
core_0_itlb_prefetcher no
core_0_dtlb_prefetcher no
core_0_stlb_prefetcher no
core_0_l1i_prefetcher next_line
core_0_l1d_prefetcher vberti
core_0_l2c_prefetcher ip_stride
llc_prefetcher no
llc_replacement drrip

Core_0_instructions 100000005
Core_0_cycles 634233979
Core_0_IPC 0.157671
Core_0_branch_prediction_accuracy 94.423
Core_0_branch_MPKI 13.38
Core_0_average_ROB_occupancy_at_mispredict 50.0172

Core_0_ITLB_total_access 3013907
Core_0_ITLB_total_hit 3013907
Core_0_ITLB_total_miss 0
Core_0_ITLB_total_MPKI 0
Core_0_ITLB_total_miss_rate 0
Core_0_ITLB_demand_access 3013907
Core_0_ITLB_demand_hit 3013907
Core_0_ITLB_demand_miss 0
Core_0_ITLB_demand_MPKI 0
Core_0_ITLB_demand_miss_rate 0
Core_0_ITLB_load_access 3013907
Core_0_ITLB_load_hit 3013907
Core_0_ITLB_load_miss 0
Core_0_ITLB_load_MPKI 0
Core_0_ITLB_load_miss_rate 0
Core_0_ITLB_rfo_access 0
Core_0_ITLB_rfo_hit 0
Core_0_ITLB_rfo_miss 0
Core_0_ITLB_rfo_MPKI 0
Core_0_ITLB_rfo_miss_rate 0
Core_0_ITLB_prefetch_access 0
Core_0_ITLB_prefetch_hit 0
Core_0_ITLB_prefetch_miss 0
Core_0_ITLB_prefetch_MPKI 0
Core_0_ITLB_prefetch_miss_rate 0
Core_0_ITLB_writeback_access 0
Core_0_ITLB_writeback_hit 0
Core_0_ITLB_writeback_miss 0
Core_0_ITLB_writeback_MPKI 0
Core_0_ITLB_writeback_miss_rate 0
Core_0_ITLB_prefetch_requested 0
Core_0_ITLB_prefetch_issued 0
Core_0_ITLB_prefetch_useful 0
Core_0_ITLB_prefetch_useless 0
Core_0_ITLB_prefetch_late 0
Core_0_ITLB_prefetch_fill 0
Core_0_ITLB_prefetch_too_early 0
Core_0_ITLB_prefetch_too_early_among_fill 0
Core_0_ITLB_prefetch_too_early_among_useless 0
Core_0_ITLB_prefetch_pollution_evict 0
Core_0_ITLB_prefetch_pollution_demand 0
Core_0_ITLB_prefetch_pollution_among_prefetch_fill 0
Core_0_ITLB_prefetch_accuracy 0
Core_0_ITLB_prefetch_coverage 0

Core_0_DTLB_total_access 31826654
Core_0_DTLB_total_hit 19275674
Core_0_DTLB_total_miss 12550980
Core_0_DTLB_total_MPKI 125.51
Core_0_DTLB_total_miss_rate 0.394354
Core_0_DTLB_demand_access 31826654
Core_0_DTLB_demand_hit 19275674
Core_0_DTLB_demand_miss 12550980
Core_0_DTLB_demand_MPKI 125.51
Core_0_DTLB_demand_miss_rate 0.394354
Core_0_DTLB_load_access 31826654
Core_0_DTLB_load_hit 19275674
Core_0_DTLB_load_miss 12550980
Core_0_DTLB_load_MPKI 125.51
Core_0_DTLB_load_miss_rate 0.394354
Core_0_DTLB_rfo_access 0
Core_0_DTLB_rfo_hit 0
Core_0_DTLB_rfo_miss 0
Core_0_DTLB_rfo_MPKI 0
Core_0_DTLB_rfo_miss_rate 0
Core_0_DTLB_prefetch_access 0
Core_0_DTLB_prefetch_hit 0
Core_0_DTLB_prefetch_miss 0
Core_0_DTLB_prefetch_MPKI 0
Core_0_DTLB_prefetch_miss_rate 0
Core_0_DTLB_writeback_access 0
Core_0_DTLB_writeback_hit 0
Core_0_DTLB_writeback_miss 0
Core_0_DTLB_writeback_MPKI 0
Core_0_DTLB_writeback_miss_rate 0
Core_0_DTLB_prefetch_requested 0
Core_0_DTLB_prefetch_issued 0
Core_0_DTLB_prefetch_useful 0
Core_0_DTLB_prefetch_useless 0
Core_0_DTLB_prefetch_late 0
Core_0_DTLB_prefetch_fill 0
Core_0_DTLB_prefetch_too_early 0
Core_0_DTLB_prefetch_too_early_among_fill 0
Core_0_DTLB_prefetch_too_early_among_useless 0
Core_0_DTLB_prefetch_pollution_evict 0
Core_0_DTLB_prefetch_pollution_demand 0
Core_0_DTLB_prefetch_pollution_among_prefetch_fill 0
Core_0_DTLB_prefetch_accuracy 0
Core_0_DTLB_prefetch_coverage 0

Core_0_STLB_total_access 7963716
Core_0_STLB_total_hit 6911680
Core_0_STLB_total_miss 1052036
Core_0_STLB_total_MPKI 10.5204
Core_0_STLB_total_miss_rate 0.132104
Core_0_STLB_demand_access 7963716
Core_0_STLB_demand_hit 6911680
Core_0_STLB_demand_miss 1052036
Core_0_STLB_demand_MPKI 10.5204
Core_0_STLB_demand_miss_rate 0.132104
Core_0_STLB_load_access 7963716
Core_0_STLB_load_hit 6911680
Core_0_STLB_load_miss 1052036
Core_0_STLB_load_MPKI 10.5204
Core_0_STLB_load_miss_rate 0.132104
Core_0_STLB_rfo_access 0
Core_0_STLB_rfo_hit 0
Core_0_STLB_rfo_miss 0
Core_0_STLB_rfo_MPKI 0
Core_0_STLB_rfo_miss_rate 0
Core_0_STLB_prefetch_access 0
Core_0_STLB_prefetch_hit 0
Core_0_STLB_prefetch_miss 0
Core_0_STLB_prefetch_MPKI 0
Core_0_STLB_prefetch_miss_rate 0
Core_0_STLB_writeback_access 0
Core_0_STLB_writeback_hit 0
Core_0_STLB_writeback_miss 0
Core_0_STLB_writeback_MPKI 0
Core_0_STLB_writeback_miss_rate 0
Core_0_STLB_prefetch_requested 0
Core_0_STLB_prefetch_issued 0
Core_0_STLB_prefetch_useful 0
Core_0_STLB_prefetch_useless 0
Core_0_STLB_prefetch_late 0
Core_0_STLB_prefetch_fill 0
Core_0_STLB_prefetch_too_early 0
Core_0_STLB_prefetch_too_early_among_fill 0
Core_0_STLB_prefetch_too_early_among_useless 0
Core_0_STLB_prefetch_pollution_evict 0
Core_0_STLB_prefetch_pollution_demand 0
Core_0_STLB_prefetch_pollution_among_prefetch_fill 0
Core_0_STLB_prefetch_accuracy 0
Core_0_STLB_prefetch_coverage 0

Core_0_L1I_total_access 3274646
Core_0_L1I_total_hit 3274646
Core_0_L1I_total_miss 0
Core_0_L1I_total_MPKI 0
Core_0_L1I_total_miss_rate 0
Core_0_L1I_demand_access 3274646
Core_0_L1I_demand_hit 3274646
Core_0_L1I_demand_miss 0
Core_0_L1I_demand_MPKI 0
Core_0_L1I_demand_miss_rate 0
Core_0_L1I_load_access 3274646
Core_0_L1I_load_hit 3274646
Core_0_L1I_load_miss 0
Core_0_L1I_load_MPKI 0
Core_0_L1I_load_miss_rate 0
Core_0_L1I_rfo_access 0
Core_0_L1I_rfo_hit 0
Core_0_L1I_rfo_miss 0
Core_0_L1I_rfo_MPKI 0
Core_0_L1I_rfo_miss_rate 0
Core_0_L1I_prefetch_access 0
Core_0_L1I_prefetch_hit 0
Core_0_L1I_prefetch_miss 0
Core_0_L1I_prefetch_MPKI 0
Core_0_L1I_prefetch_miss_rate 0
Core_0_L1I_writeback_access 0
Core_0_L1I_writeback_hit 0
Core_0_L1I_writeback_miss 0
Core_0_L1I_writeback_MPKI 0
Core_0_L1I_writeback_miss_rate 0
Core_0_L1I_prefetch_requested 0
Core_0_L1I_prefetch_issued 0
Core_0_L1I_prefetch_useful 0
Core_0_L1I_prefetch_useless 0
Core_0_L1I_prefetch_late 0
Core_0_L1I_prefetch_fill 0
Core_0_L1I_prefetch_too_early 0
Core_0_L1I_prefetch_too_early_among_fill 0
Core_0_L1I_prefetch_too_early_among_useless 0
Core_0_L1I_prefetch_pollution_evict 0
Core_0_L1I_prefetch_pollution_demand 0
Core_0_L1I_prefetch_pollution_among_prefetch_fill 0
Core_0_L1I_prefetch_accuracy 0
Core_0_L1I_prefetch_coverage 0

Core_0_L1D_total_access 33411629
Core_0_L1D_total_hit 19378619
Core_0_L1D_total_miss 14033010
Core_0_L1D_total_MPKI 140.33
Core_0_L1D_total_miss_rate 0.420004
Core_0_L1D_demand_access 24921230
Core_0_L1D_demand_hit 11834882
Core_0_L1D_demand_miss 13086348
Core_0_L1D_demand_MPKI 130.863
Core_0_L1D_demand_miss_rate 0.525108
Core_0_L1D_load_access 24921230
Core_0_L1D_load_hit 11834882
Core_0_L1D_load_miss 13086348
Core_0_L1D_load_MPKI 130.863
Core_0_L1D_load_miss_rate 0.525108
Core_0_L1D_rfo_access 0
Core_0_L1D_rfo_hit 0
Core_0_L1D_rfo_miss 0
Core_0_L1D_rfo_MPKI 0
Core_0_L1D_rfo_miss_rate 0
Core_0_L1D_prefetch_access 3605984
Core_0_L1D_prefetch_hit 3206153
Core_0_L1D_prefetch_miss 399831
Core_0_L1D_prefetch_MPKI 3.99831
Core_0_L1D_prefetch_miss_rate 0.11088
Core_0_L1D_writeback_access 4884415
Core_0_L1D_writeback_hit 4337584
Core_0_L1D_writeback_miss 546831
Core_0_L1D_writeback_MPKI 5.46831
Core_0_L1D_writeback_miss_rate 0.111954
Core_0_L1D_prefetch_requested 4197624
Core_0_L1D_prefetch_issued 3605980
Core_0_L1D_prefetch_useful 21889
Core_0_L1D_prefetch_useless 27682
Core_0_L1D_prefetch_late 832
Core_0_L1D_prefetch_fill 48737
Core_0_L1D_prefetch_too_early 1961
Core_0_L1D_prefetch_too_early_among_fill 0.0402364
Core_0_L1D_prefetch_too_early_among_useless 0.0708403
Core_0_L1D_prefetch_pollution_evict 31354
Core_0_L1D_prefetch_pollution_demand 31311
Core_0_L1D_prefetch_pollution_among_prefetch_fill 0.643331
Core_0_L1D_prefetch_accuracy 0.00607019
Core_0_L1D_prefetch_coverage 0.00166987

Core_0_L2C_total_access 12870805
Core_0_L2C_total_hit 6114415
Core_0_L2C_total_miss 6756390
Core_0_L2C_total_MPKI 67.5639
Core_0_L2C_total_miss_rate 0.524939
Core_0_L2C_demand_access 10046811
Core_0_L2C_demand_hit 3340390
Core_0_L2C_demand_miss 6706421
Core_0_L2C_demand_MPKI 67.0642
Core_0_L2C_demand_miss_rate 0.667517
Core_0_L2C_load_access 9728126
Core_0_L2C_load_hit 3166929
Core_0_L2C_load_miss 6561197
Core_0_L2C_load_MPKI 65.612
Core_0_L2C_load_miss_rate 0.674456
Core_0_L2C_rfo_access 318685
Core_0_L2C_rfo_hit 173461
Core_0_L2C_rfo_miss 145224
Core_0_L2C_rfo_MPKI 1.45224
Core_0_L2C_rfo_miss_rate 0.455698
Core_0_L2C_prefetch_access 411931
Core_0_L2C_prefetch_hit 362211
Core_0_L2C_prefetch_miss 49720
Core_0_L2C_prefetch_MPKI 0.4972
Core_0_L2C_prefetch_miss_rate 0.1207
Core_0_L2C_writeback_access 2412063
Core_0_L2C_writeback_hit 2411814
Core_0_L2C_writeback_miss 249
Core_0_L2C_writeback_MPKI 0.00249
Core_0_L2C_writeback_miss_rate 0.000103231
Core_0_L2C_prefetch_requested 35238
Core_0_L2C_prefetch_issued 35238
Core_0_L2C_prefetch_useful 5649
Core_0_L2C_prefetch_useless 9273
Core_0_L2C_prefetch_late 228
Core_0_L2C_prefetch_fill 45051
Core_0_L2C_prefetch_too_early 1168
Core_0_L2C_prefetch_too_early_among_fill 0.0259262
Core_0_L2C_prefetch_too_early_among_useless 0.125957
Core_0_L2C_prefetch_pollution_evict 33692
Core_0_L2C_prefetch_pollution_demand 33683
Core_0_L2C_prefetch_pollution_among_prefetch_fill 0.747864
Core_0_L2C_prefetch_accuracy 0.16031
Core_0_L2C_prefetch_coverage 0.000841618

Core_0_LLC_total_access 8289546
Core_0_LLC_total_hit 2126197
Core_0_LLC_total_miss 6163349
Core_0_LLC_total_MPKI 61.6335
Core_0_LLC_total_miss_rate 0.743509
Core_0_LLC_demand_access 6706145
Core_0_LLC_demand_hit 1321533
Core_0_LLC_demand_miss 5384612
Core_0_LLC_demand_MPKI 53.8461
Core_0_LLC_demand_miss_rate 0.802937
Core_0_LLC_load_access 6560921
Core_0_LLC_load_hit 1275413
Core_0_LLC_load_miss 5285508
Core_0_LLC_load_MPKI 52.8551
Core_0_LLC_load_miss_rate 0.805605
Core_0_LLC_rfo_access 145224
Core_0_LLC_rfo_hit 46120
Core_0_LLC_rfo_miss 99104
Core_0_LLC_rfo_MPKI 0.99104
Core_0_LLC_rfo_miss_rate 0.682422
Core_0_LLC_prefetch_access 45578
Core_0_LLC_prefetch_hit 7650
Core_0_LLC_prefetch_miss 37928
Core_0_LLC_prefetch_MPKI 0.37928
Core_0_LLC_prefetch_miss_rate 0.832156
Core_0_LLC_writeback_access 1537823
Core_0_LLC_writeback_hit 797014
Core_0_LLC_writeback_miss 740809
Core_0_LLC_writeback_MPKI 7.40809
Core_0_LLC_writeback_miss_rate 0.481726
Core_0_LLC_prefetch_requested 0
Core_0_LLC_prefetch_issued 0
Core_0_LLC_prefetch_useful 0
Core_0_LLC_prefetch_useless 0
Core_0_LLC_prefetch_late 0
Core_0_LLC_prefetch_fill 37915
Core_0_LLC_prefetch_too_early 0
Core_0_LLC_prefetch_too_early_among_fill 0
Core_0_LLC_prefetch_too_early_among_useless 0
Core_0_LLC_prefetch_pollution_evict 24268
Core_0_LLC_prefetch_pollution_demand 24268
Core_0_LLC_prefetch_pollution_among_prefetch_fill 0.640063
Core_0_LLC_prefetch_accuracy 0
Core_0_LLC_prefetch_coverage 0

[DRAM Statistics]
Channel_0_RQ_row_buffer_hit 8610
Channel_0_RQ_row_buffer_miss 5775140
Channel_0_WQ_row_buffer_hit 379486
Channel_0_WQ_row_buffer_miss 899276
Channel_0_WQ_full 0
Channel_0_dbus_congested 16724255
DRAM_total_RQ_row_buffer_hit 8610
DRAM_total_RQ_row_buffer_miss 5775140
DRAM_total_WQ_row_buffer_hit 379486
DRAM_total_WQ_row_buffer_miss 899276
DRAM_total_WQ_full 0
DRAM_total_dbus_congested 16724255
DRAM_avg_congested_cycle 8.63961

====== DRAM_RQ_TRAFFIC ========
DRAM_RQ_READ_TRAFFIC_BREAKDOWN:
data_demand_read.count = 5384612
data_demand_read.share = 93.09%

inst_demand_read.count = 0
inst_demand_read.share = 0.00%

cache_inst_prefetch.count = 0
cache_inst_prefetch.share = 0.00%

cache_data_prefetch.count = 37915
cache_data_prefetch.share = 0.66%

stlb_data_demand.count = 361868
stlb_data_demand.share = 6.26%

stlb_inst_demand.count = 0
stlb_inst_demand.share = 0.00%

stlb_l1i_pref.count = 0
stlb_l1i_pref.share = 0.00%

stlb_l1d_pref.count = 93
stlb_l1d_pref.share = 0.00%

DRAM_RQ_READ_TRAFFIC_SUMMARY:
cache_demand.count = 5384612
cache_demand.share = 93.09%

cache_prefetch.count = 37915
cache_prefetch.share = 0.66%

stlb_demand.count = 361868
stlb_demand.share = 6.26%

stlb_prefetch.count = 93
stlb_prefetch.share = 0.00%

DRAM_RQ_READ_TRAFFIC_DEBUG:
total_classified_read.count = 5784488
unclassified_read.count = 0
total_read_with_other.count = 5784488

classified_plus_unclassified_check.count = 5784488
dram_rq_read_total_observed.count = 5784488
dram_rq_read_total_observed.per_1K_instructions = 57.8449

STLB_MISS_PTW_DRAM_TOUCH_BREAKDOWN:
stlb_miss_total.count = 1052035

stlb_miss_touch_dram.count = 363268
stlb_miss_touch_dram.share = 34.53%

stlb_miss_no_dram_touch.count = 688767
stlb_miss_no_dram_touch.share = 65.47%

STLB_MISS_PTW_DRAM_TOUCH_DEBUG:
stlb_miss_touch_plus_no_touch.count = 1052035
stlb_miss_total_check.count = 1052035

======STLB miss causes ========
Core_0_STLB_miss_cause_breakdown
Core_0_STLB_cause_Demand_Data_miss 1050406
Core_0_STLB_cause_Demand_Data_miss_rate 0.131899
Core_0_STLB_cause_Demand_Instruction_miss 0
Core_0_STLB_cause_Demand_Instruction_miss_rate 0
Core_0_STLB_cause_L1D_Prefetch_miss 1630
Core_0_STLB_cause_L1D_Prefetch_miss_rate 0.000204678
Core_0_STLB_cause_L1D_Prefetch_Same_Page_miss 0
Core_0_STLB_cause_L1D_Prefetch_Same_Page_miss_rate 0
Core_0_STLB_cause_L1D_Prefetch_Cross_Page_miss 1630
Core_0_STLB_cause_L1D_Prefetch_Cross_Page_miss_rate 0.000204678
Core_0_STLB_cause_L1I_Prefetch_miss 0
Core_0_STLB_cause_L1I_Prefetch_miss_rate 0
Core_0_STLB_cause_Other_miss 0
Core_0_STLB_cause_Other_miss_rate 0
Core_0_STLB_Demand_miss 1050406
Core_0_STLB_Demand_miss_rate 0.131899
Core_0_STLB_L1D_Prefetch_miss 1630
Core_0_STLB_L1D_Prefetch_miss_rate 0.000204678
Core_0_STLB_Other_miss 0
Core_0_STLB_Other_miss_rate 0

========== vBerti-TLB Cross-page Flow Stats ==========

Core_0_vBerti_Requested 4197624
Core_0_vBerti_Cross_page_prefetch_in_Requested 1031266
Core_0_vBerti_Same_page_prefetch_in_Requested 3166358
Core_0_vBerti_Cross_page_prefetch_of_Requested 0.245679
Core_0_vBerti_Issued 3605980
Core_0_vBerti_InPQ_Same_page_prefetch 2811989
Core_0_vBerti_InPQ_Cross_page_prefetch 793991
Core_0_vBerti_PQ_Drop_Rate 0.140947
Core_0_vBerti_InPQ_Cross_page_prefetch_of_Requested 0.189152
Core_0_vBerti_Cross_page_PQ_Drop_rate 0.230081
Core_0_vBerti_Cross_page_prefetch_of_Issued 0.220187
Core_0_CP_PF_PQFULL_drop 237275
Core_0_CP_PF_PQFULL_TLB_rescue_enqueued 0
Core_0_CP_PF_PQFULL_TLB_rescue_issued 0
Core_0_CP_PF_PQFULL_TLB_rescue_translated 0

========= DTLB_vBerti Prefetch Stats =========
Core_0_DTLB_demand_access 29255891
Core_0_DTLB_demand_hit 16793497
Core_0_DTLB_demand_miss 12462394
Core_0_DTLB_demand_mshr_merge 4578435
Core_0_DTLB_demand_fill 7883969
Core_0_DTLB_demand_miss_rate 0.425979
Core_0_DTLB_demand_mpki 124.624
Core_0_DTLB_vberti_prefetch_access 2570763
Core_0_DTLB_vberti_prefetch_hit 2482177
Core_0_DTLB_vberti_prefetch_miss 88586
Core_0_DTLB_vberti_prefetch_mshr_merge 8829
Core_0_DTLB_vberti_prefetch_fill 79746
Core_0_DTLB_vberti_prefetch_miss_rate 0.034459
Core_0_DTLB_vberti_prefetch_mpki 0.88586

=== DTLB_vBerti Same/Cross-page Prefetch Stats ===
Core_0_DTLB_vberti_same_page_prefetch 1910689
Core_0_DTLB_vberti_same_page_prefetch_hit 1910686
Core_0_DTLB_vberti_same_page_prefetch_miss 3
Core_0_DTLB_vberti_same_page_prefetch_mshr_merge 0
Core_0_DTLB_vberti_same_page_prefetch_fill 1
Core_0_DTLB_vberti_same_page_prefetch_miss_rate 1.57011e-06
Core_0_DTLB_vberti_same_page_prefetch_mpki 3e-05
Core_0_DTLB_vberti_cross_page_prefetch 660074
Core_0_DTLB_vberti_cross_page_prefetch_hit 571491
Core_0_DTLB_vberti_cross_page_prefetch_miss 88583
Core_0_DTLB_vberti_cross_page_prefetch_mshr_merge 8829
Core_0_DTLB_vberti_cross_page_prefetch_fill 79745
Core_0_DTLB_vberti_cross_page_prefetch_miss_rate 0.134202
Core_0_DTLB_vberti_cross_page_prefetch_mpki 0.88583
Core_0_DTLB_same_page_prefetch_miss_rate 1.57011e-06
Core_0_DTLB_same_page_prefetch_mpki 3e-05
Core_0_DTLB_cross_page_prefetch_miss_rate 0.134202
Core_0_DTLB_cross_page_prefetch_mpki 0.88583
Core_0_DTLB_cross_page_prefetch_issued 660074
Core_0_DTLB_cross_page_prefetch_lookups 660074
Core_0_DTLB_cross_page_prefetch_useful 13462
Core_0_DTLB_cross_page_prefetch_useless 66292
Core_0_DTLB_cross_page_prefetch_late 10
Core_0_DTLB_cross_page_prefetch_too_early 19175
Core_0_DTLB_cross_page_prefetch_too_early_among_fill 0.240454
Core_0_DTLB_cross_page_prefetch_too_early_among_useless 0.289251
Core_0_DTLB_cross_page_prefetch_pollution_evict 49472
Core_0_DTLB_cross_page_prefetch_pollution_demand 42297
Core_0_DTLB_cross_page_prefetch_pollution_among_prefetch_fill 0.620377
Core_0_DTLB_cross_page_prefetch_accuracy 0.0203947
Core_0_DTLB_cross_page_prefetch_coverage 0.00107904

========= STLB_vBerti Prefetch Stats =========
Core_0_STLB_demand_access 7883959
Core_0_STLB_demand_hit 6833553
Core_0_STLB_demand_miss 1050406
Core_0_STLB_demand_mshr_merge 0
Core_0_STLB_demand_fill 1050405
Core_0_STLB_demand_miss_rate 0.133233
Core_0_STLB_demand_mpki 10.5041
Core_0_STLB_vberti_prefetch_access 79757
Core_0_STLB_vberti_prefetch_hit 78127
Core_0_STLB_vberti_prefetch_miss 1630
Core_0_STLB_vberti_prefetch_mshr_merge 0
Core_0_STLB_vberti_prefetch_fill 1630
Core_0_STLB_vberti_prefetch_miss_rate 0.0204371
Core_0_STLB_vberti_prefetch_mpki 0.0163

=== STLB_vBerti Same/Cross-page Prefetch Stats ===
Core_0_STLB_vberti_same_page_prefetch 3
Core_0_STLB_vberti_same_page_prefetch_hit 3
Core_0_STLB_vberti_same_page_prefetch_miss 0
Core_0_STLB_vberti_same_page_prefetch_mshr_merge 0
Core_0_STLB_vberti_same_page_prefetch_fill 0
Core_0_STLB_vberti_same_page_prefetch_miss_rate 0
Core_0_STLB_vberti_same_page_prefetch_mpki 0
Core_0_STLB_vberti_cross_page_prefetch 79754
Core_0_STLB_vberti_cross_page_prefetch_hit 78124
Core_0_STLB_vberti_cross_page_prefetch_miss 1630
Core_0_STLB_vberti_cross_page_prefetch_mshr_merge 0
Core_0_STLB_vberti_cross_page_prefetch_fill 1630
Core_0_STLB_vberti_cross_page_prefetch_miss_rate 0.0204378
Core_0_STLB_vberti_cross_page_prefetch_mpki 0.0163
Core_0_STLB_same_page_prefetch_miss_rate 0
Core_0_STLB_same_page_prefetch_mpki 0
Core_0_STLB_cross_page_prefetch_miss_rate 0.0204378
Core_0_STLB_cross_page_prefetch_mpki 0.0163
Core_0_STLB_cross_page_prefetch_issued 79754
Core_0_STLB_cross_page_prefetch_lookups 79754
Core_0_STLB_cross_page_prefetch_useful 817
Core_0_STLB_cross_page_prefetch_useless 813
Core_0_STLB_cross_page_prefetch_late 0
Core_0_STLB_cross_page_prefetch_too_early 386
Core_0_STLB_cross_page_prefetch_too_early_among_fill 0.23681
Core_0_STLB_cross_page_prefetch_too_early_among_useless 0.474785
Core_0_STLB_cross_page_prefetch_pollution_evict 1451
Core_0_STLB_cross_page_prefetch_pollution_demand 1445
Core_0_STLB_cross_page_prefetch_pollution_among_prefetch_fill 0.890184
Core_0_STLB_cross_page_prefetch_accuracy 0.010244
Core_0_STLB_cross_page_prefetch_coverage 0.00077719

========= STLB Cross-page Prefetch Buffer Stats =========
Core_0_STLB_raw_demand_miss 1050406
Core_0_CP_PB_insert 0
Core_0_CP_PB_demand_hit 0
Core_0_STLB_PB_demand_miss 1050406
Core_0_CP_PB_coverage 0
Core_0_STLB_raw_demand_mpki 10.5041
Core_0_STLB_PB_demand_mpki 10.5041
Core_0_CP_PB_demand_hit_mpki 0

Core_0_TLB_demand_miss_rate 0.0359041
Core_0_TLB_demand_mpki 10.5041
Core_0_TLB_same_page_prefetch_miss_rate 0
Core_0_TLB_same_page_prefetch_mpki 0
Core_0_TLB_cross_page_prefetch_miss_rate 0.00246942
Core_0_TLB_cross_page_prefetch_mpki 0.0163
Core_0_TLB_cross_page_prefetch_issued 660074
Core_0_TLB_cross_page_prefetch_lookups 660074
Core_0_TLB_cross_page_prefetch_useful 415
Core_0_TLB_cross_page_prefetch_useless 51582
Core_0_TLB_cross_page_prefetch_late 3
Core_0_TLB_cross_page_prefetch_too_early 14149
Core_0_TLB_cross_page_prefetch_too_early_among_fill 0.173874
Core_0_TLB_cross_page_prefetch_too_early_among_useless 0.274301
Core_0_TLB_cross_page_prefetch_accuracy 0.000628717
Core_0_TLB_cross_page_prefetch_coverage 0.000394929
BERTI TO_L1: 1748043 TO_L2: 3332899 TO_L2_BC_MSHR: 1742
BERTI AVG_LAT: 89.0129 NUM_TRACK_LATENCY: 15259796 NUM_CANT_TRACK_LATENCY: 3
BERTI CROSS_PAGE 1223061 NO_CROSS_PAGE: 3857881
BERTI FOUND_BERTI: 31036862 NO_FOUND_BERTI: 9569624
BERTI AVERAGE_ISSUED: 1.84679
