[VMEM] WARNING: physical memory size is smaller than virtual memory size.

*** ChampSim Multicore Out-of-Order Simulator ***
Warmup Instructions: 50000000
Simulation Instructions: 100000000
Number of CPUs: 1
Page size: 4096
Core 0: /data0/tzh/champsim_traces/SPEC06/433.milc-274B.champsimtrace.xz
VBerti Prefetcher
BERTI HASH ENTANGLING
BERTI IP MASK ffff
Off-chip DRAM Size: 16 GiB Channels: 1 Width: 64-bit Data Rate: 3205 MT/s
Warmup halting CPU 0 at instruction 50000003 cycle 10329265 for remainder of phase
Warmup finished CPU 0 instructions: 50000003 cycles: 10329265 cumulative IPC: 4.841 (Simulation time: 00 hr 02 min 25 sec)
Warmup complete CPU 0 instructions: 50000003 cycles: 10329265 cumulative IPC: 4.841 (Simulation time: 00 hr 02 min 25 sec)
Simulation finished CPU 0 instructions: 100000004 cycles: 55490243 cumulative IPC: 1.802 (Simulation time: 00 hr 14 min 26 sec)
Simulation complete CPU 0 instructions: 100000004 cycles: 55490243 cumulative IPC: 1.802 (Simulation time: 00 hr 14 min 26 sec)

ChampSim completed all CPUs

=== Simulation ===
CPU 0 runs /data0/tzh/champsim_traces/SPEC06/433.milc-274B.champsimtrace.xz

Region of Interest Statistics

CPU 0 cumulative IPC: 1.802 instructions: 100000004 cycles: 55490243
CPU 0 Branch Prediction Accuracy: 99.34% MPKI: 0.1931 Average ROB Occupancy at Mispredict: 131.7
Branch type MPKI
BRANCH_DIRECT_JUMP: 7e-05
BRANCH_INDIRECT: 0
BRANCH_CONDITIONAL: 0.09661
BRANCH_DIRECT_CALL: 9e-05
BRANCH_INDIRECT_CALL: 0
BRANCH_RETURN: 0.09631

cpu0->cpu0_STLB TOTAL        ACCESS:     126011 HIT:       4917 MISS:     121094 MSHR_MERGE:          0
cpu0->cpu0_STLB LOAD         ACCESS:     126011 HIT:       4917 MISS:     121094 MSHR_MERGE:          0
cpu0->cpu0_STLB RFO          ACCESS:          0 HIT:          0 MISS:          0 MSHR_MERGE:          0
cpu0->cpu0_STLB PREFETCH     ACCESS:          0 HIT:          0 MISS:          0 MSHR_MERGE:          0
cpu0->cpu0_STLB WRITE        ACCESS:          0 HIT:          0 MISS:          0 MSHR_MERGE:          0
cpu0->cpu0_STLB TRANSLATION  ACCESS:          0 HIT:          0 MISS:          0 MSHR_MERGE:          0
cpu0->cpu0_STLB PREFETCH REQUESTED:          0 ISSUED:          0 USEFUL:          0 USELESS:          0 LATE:          0 TOO_EARLY:          0
cpu0->cpu0_STLB AVERAGE MISS LATENCY: 139.3 cycles
cpu0->cpu0_L2C TOTAL        ACCESS:    5444979 HIT:    1814332 MISS:    3630647 MSHR_MERGE:    1721799
cpu0->cpu0_L2C LOAD         ACCESS:     276210 HIT:     219334 MISS:      56876 MSHR_MERGE:      12526
cpu0->cpu0_L2C RFO          ACCESS:     337605 HIT:      23935 MISS:     313670 MSHR_MERGE:     267482
cpu0->cpu0_L2C PREFETCH     ACCESS:    4181338 HIT:     936911 MISS:    3244427 MSHR_MERGE:    1441791
cpu0->cpu0_L2C WRITE        ACCESS:     633525 HIT:     633191 MISS:        334 MSHR_MERGE:          0
cpu0->cpu0_L2C TRANSLATION  ACCESS:      16301 HIT:        961 MISS:      15340 MSHR_MERGE:          0
cpu0->cpu0_L2C PREFETCH REQUESTED:     716688 ISSUED:     599586 USEFUL:      91427 USELESS:      10404 LATE:       2615 TOO_EARLY:          6
cpu0->cpu0_L2C AVERAGE MISS LATENCY: 647 cycles
cpu0->cpu0_L1I TOTAL        ACCESS:   16067120 HIT:   16067056 MISS:         64 MSHR_MERGE:         14
cpu0->cpu0_L1I LOAD         ACCESS:   16067120 HIT:   16067056 MISS:         64 MSHR_MERGE:         14
cpu0->cpu0_L1I RFO          ACCESS:          0 HIT:          0 MISS:          0 MSHR_MERGE:          0
cpu0->cpu0_L1I PREFETCH     ACCESS:          0 HIT:          0 MISS:          0 MSHR_MERGE:          0
cpu0->cpu0_L1I WRITE        ACCESS:          0 HIT:          0 MISS:          0 MSHR_MERGE:          0
cpu0->cpu0_L1I TRANSLATION  ACCESS:          0 HIT:          0 MISS:          0 MSHR_MERGE:          0
cpu0->cpu0_L1I PREFETCH REQUESTED:          0 ISSUED:          0 USEFUL:          0 USELESS:          0 LATE:          0 TOO_EARLY:          0
cpu0->cpu0_L1I AVERAGE MISS LATENCY: 280.6 cycles
cpu0->cpu0_L1D TOTAL        ACCESS:   26293877 HIT:   18552950 MISS:    7740927 MSHR_MERGE:    3457535
cpu0->cpu0_L1D LOAD         ACCESS:   10947124 HIT:   10115863 MISS:     831261 MSHR_MERGE:     555101
cpu0->cpu0_L1D RFO          ACCESS:          0 HIT:          0 MISS:          0 MSHR_MERGE:          0
cpu0->cpu0_L1D PREFETCH     ACCESS:    7728401 HIT:    3694213 MISS:    4034188 MSHR_MERGE:     380862
cpu0->cpu0_L1D WRITE        ACCESS:    7383362 HIT:    4528521 MISS:    2854841 MSHR_MERGE:    2517236
cpu0->cpu0_L1D TRANSLATION  ACCESS:     234990 HIT:     214353 MISS:      20637 MSHR_MERGE:       4336
cpu0->cpu0_L1D PREFETCH REQUESTED:  103031892 ISSUED:    7728402 USEFUL:    1030103 USELESS:       7265 LATE:      43800 TOO_EARLY:        799
cpu0->cpu0_L1D AVERAGE MISS LATENCY: 407.5 cycles
cpu0->cpu0_ITLB TOTAL        ACCESS:   13305044 HIT:   13305037 MISS:          7 MSHR_MERGE:          2
cpu0->cpu0_ITLB LOAD         ACCESS:   13305044 HIT:   13305037 MISS:          7 MSHR_MERGE:          2
cpu0->cpu0_ITLB RFO          ACCESS:          0 HIT:          0 MISS:          0 MSHR_MERGE:          0
cpu0->cpu0_ITLB PREFETCH     ACCESS:          0 HIT:          0 MISS:          0 MSHR_MERGE:          0
cpu0->cpu0_ITLB WRITE        ACCESS:          0 HIT:          0 MISS:          0 MSHR_MERGE:          0
cpu0->cpu0_ITLB TRANSLATION  ACCESS:          0 HIT:          0 MISS:          0 MSHR_MERGE:          0
cpu0->cpu0_ITLB PREFETCH REQUESTED:          0 ISSUED:          0 USEFUL:          0 USELESS:          0 LATE:          0 TOO_EARLY:          0
cpu0->cpu0_ITLB AVERAGE MISS LATENCY: 416.4 cycles
cpu0->cpu0_DTLB TOTAL        ACCESS:   22054799 HIT:   21755310 MISS:     299489 MSHR_MERGE:     173483
cpu0->cpu0_DTLB LOAD         ACCESS:   22054799 HIT:   21755310 MISS:     299489 MSHR_MERGE:     173483
cpu0->cpu0_DTLB RFO          ACCESS:          0 HIT:          0 MISS:          0 MSHR_MERGE:          0
cpu0->cpu0_DTLB PREFETCH     ACCESS:          0 HIT:          0 MISS:          0 MSHR_MERGE:          0
cpu0->cpu0_DTLB WRITE        ACCESS:          0 HIT:          0 MISS:          0 MSHR_MERGE:          0
cpu0->cpu0_DTLB TRANSLATION  ACCESS:          0 HIT:          0 MISS:          0 MSHR_MERGE:          0
cpu0->cpu0_DTLB PREFETCH REQUESTED:          0 ISSUED:          0 USEFUL:          0 USELESS:          0 LATE:          0 TOO_EARLY:          0
cpu0->cpu0_DTLB AVERAGE MISS LATENCY: 139.9 cycles
cpu0->LLC TOTAL        ACCESS:    2540576 HIT:     588713 MISS:    1951863 MSHR_MERGE:     142186
cpu0->LLC LOAD         ACCESS:      44350 HIT:         22 MISS:      44328 MSHR_MERGE:          1
cpu0->LLC RFO          ACCESS:      46188 HIT:       1541 MISS:      44647 MSHR_MERGE:      12128
cpu0->LLC PREFETCH     ACCESS:    1802569 HIT:      29071 MISS:    1773498 MSHR_MERGE:     130057
cpu0->LLC WRITE        ACCESS:     632129 HIT:     557947 MISS:      74182 MSHR_MERGE:          0
cpu0->LLC TRANSLATION  ACCESS:      15340 HIT:        132 MISS:      15208 MSHR_MERGE:          0
cpu0->LLC PREFETCH REQUESTED:          0 ISSUED:          0 USEFUL:          0 USELESS:          0 LATE:          0 TOO_EARLY:          0
cpu0->LLC AVERAGE MISS LATENCY: 315 cycles

DRAM Statistics

Channel 0 RQ ROW_BUFFER_HIT:     356805
  ROW_BUFFER_MISS:    1378675
  AVG DBUS CONGESTED CYCLE: 6.088
Channel 0 WQ ROW_BUFFER_HIT:      45097
  ROW_BUFFER_MISS:     584129
  FULL:          0
Channel 0 REFRESHES ISSUED:       4624

[ROI Statistics]
[System Configuration]
num_cpus 1
cpu_freq 4000
fetch_width 6
decode_width 6
dispatch_width 6
execute_width 6
lq_width 2
sq_width 2
retire_width 6
scheduler_size 128
branch_mispredict_penalty 15
rob_size 352
lq_size 128
sq_size 72
ifetch_buffer_size 64
decode_buffer_size 32
dispatch_buffer_size 32
register_file_size 288
decode_latency 1
dispatch_latency 1
schedule_latency 1
execute_latency 1
page_size 4096
block_size 64
core_0_itlb_set 16
core_0_itlb_way 4
core_0_itlb_rq_size 16
core_0_itlb_wq_size 16
core_0_itlb_pq_size 0
core_0_itlb_mshr_size 8
core_0_itlb_hit_latency 1
core_0_itlb_fill_latency 1
core_0_itlb_max_tag_check 2
core_0_itlb_max_fill 2
core_0_dtlb_set 16
core_0_dtlb_way 4
core_0_dtlb_rq_size 16
core_0_dtlb_wq_size 16
core_0_dtlb_pq_size 0
core_0_dtlb_mshr_size 8
core_0_dtlb_hit_latency 1
core_0_dtlb_fill_latency 1
core_0_dtlb_max_tag_check 2
core_0_dtlb_max_fill 2
core_0_stlb_set 128
core_0_stlb_way 12
core_0_stlb_rq_size 32
core_0_stlb_wq_size 32
core_0_stlb_pq_size 0
core_0_stlb_mshr_size 16
core_0_stlb_hit_latency 4
core_0_stlb_fill_latency 4
core_0_stlb_max_tag_check 1
core_0_stlb_max_fill 1
core_0_l1i_set 64
core_0_l1i_way 8
core_0_l1i_rq_size 64
core_0_l1i_wq_size 64
core_0_l1i_pq_size 32
core_0_l1i_mshr_size 8
core_0_l1i_hit_latency 2
core_0_l1i_fill_latency 2
core_0_l1i_max_tag_check 2
core_0_l1i_max_fill 2
core_0_l1d_set 64
core_0_l1d_way 12
core_0_l1d_rq_size 64
core_0_l1d_wq_size 64
core_0_l1d_pq_size 8
core_0_l1d_mshr_size 16
core_0_l1d_hit_latency 2
core_0_l1d_fill_latency 3
core_0_l1d_max_tag_check 2
core_0_l1d_max_fill 2
core_0_l2c_set 1024
core_0_l2c_way 8
core_0_l2c_rq_size 32
core_0_l2c_wq_size 32
core_0_l2c_pq_size 16
core_0_l2c_mshr_size 32
core_0_l2c_hit_latency 5
core_0_l2c_fill_latency 5
core_0_l2c_max_tag_check 1
core_0_l2c_max_fill 1
llc_set 2048
llc_way 16
llc_rq_size 32
llc_wq_size 32
llc_pq_size 32
llc_mshr_size 64
llc_hit_latency 10
llc_fill_latency 10
llc_max_tag_check 1
llc_max_fill 1
dram_channels 1
dram_ranks 1
dram_bankgroups 8
dram_banks 4
dram_rows 65536
dram_columns 1024
dram_channel_width 8
dram_rq_size 64
dram_wq_size 64
dram_size 17179869184
core_0_itlb_prefetcher no
core_0_dtlb_prefetcher no
core_0_stlb_prefetcher no
core_0_l1i_prefetcher next_line
core_0_l1d_prefetcher vberti
core_0_l2c_prefetcher ip_stride
llc_prefetcher no
llc_replacement drrip

Core_0_instructions 100000004
Core_0_cycles 55490243
Core_0_IPC 1.80212
Core_0_branch_prediction_accuracy 99.3413
Core_0_branch_MPKI 0.19308
Core_0_average_ROB_occupancy_at_mispredict 131.704

Core_0_ITLB_total_access 13305044
Core_0_ITLB_total_hit 13305037
Core_0_ITLB_total_miss 7
Core_0_ITLB_total_MPKI 7e-05
Core_0_ITLB_total_miss_rate 5.26116e-07
Core_0_ITLB_demand_access 13305044
Core_0_ITLB_demand_hit 13305037
Core_0_ITLB_demand_miss 7
Core_0_ITLB_demand_MPKI 7e-05
Core_0_ITLB_demand_miss_rate 5.26116e-07
Core_0_ITLB_load_access 13305044
Core_0_ITLB_load_hit 13305037
Core_0_ITLB_load_miss 7
Core_0_ITLB_load_MPKI 7e-05
Core_0_ITLB_load_miss_rate 5.26116e-07
Core_0_ITLB_rfo_access 0
Core_0_ITLB_rfo_hit 0
Core_0_ITLB_rfo_miss 0
Core_0_ITLB_rfo_MPKI 0
Core_0_ITLB_rfo_miss_rate 0
Core_0_ITLB_prefetch_access 0
Core_0_ITLB_prefetch_hit 0
Core_0_ITLB_prefetch_miss 0
Core_0_ITLB_prefetch_MPKI 0
Core_0_ITLB_prefetch_miss_rate 0
Core_0_ITLB_writeback_access 0
Core_0_ITLB_writeback_hit 0
Core_0_ITLB_writeback_miss 0
Core_0_ITLB_writeback_MPKI 0
Core_0_ITLB_writeback_miss_rate 0
Core_0_ITLB_prefetch_requested 0
Core_0_ITLB_prefetch_issued 0
Core_0_ITLB_prefetch_useful 0
Core_0_ITLB_prefetch_useless 0
Core_0_ITLB_prefetch_late 0
Core_0_ITLB_prefetch_fill 0
Core_0_ITLB_prefetch_too_early 0
Core_0_ITLB_prefetch_too_early_among_fill 0
Core_0_ITLB_prefetch_too_early_among_useless 0
Core_0_ITLB_prefetch_pollution_evict 0
Core_0_ITLB_prefetch_pollution_demand 0
Core_0_ITLB_prefetch_pollution_among_prefetch_fill 0
Core_0_ITLB_prefetch_accuracy 0
Core_0_ITLB_prefetch_coverage 0

Core_0_DTLB_total_access 22054799
Core_0_DTLB_total_hit 21755310
Core_0_DTLB_total_miss 299489
Core_0_DTLB_total_MPKI 2.99489
Core_0_DTLB_total_miss_rate 0.0135793
Core_0_DTLB_demand_access 22054799
Core_0_DTLB_demand_hit 21755310
Core_0_DTLB_demand_miss 299489
Core_0_DTLB_demand_MPKI 2.99489
Core_0_DTLB_demand_miss_rate 0.0135793
Core_0_DTLB_load_access 22054799
Core_0_DTLB_load_hit 21755310
Core_0_DTLB_load_miss 299489
Core_0_DTLB_load_MPKI 2.99489
Core_0_DTLB_load_miss_rate 0.0135793
Core_0_DTLB_rfo_access 0
Core_0_DTLB_rfo_hit 0
Core_0_DTLB_rfo_miss 0
Core_0_DTLB_rfo_MPKI 0
Core_0_DTLB_rfo_miss_rate 0
Core_0_DTLB_prefetch_access 0
Core_0_DTLB_prefetch_hit 0
Core_0_DTLB_prefetch_miss 0
Core_0_DTLB_prefetch_MPKI 0
Core_0_DTLB_prefetch_miss_rate 0
Core_0_DTLB_writeback_access 0
Core_0_DTLB_writeback_hit 0
Core_0_DTLB_writeback_miss 0
Core_0_DTLB_writeback_MPKI 0
Core_0_DTLB_writeback_miss_rate 0
Core_0_DTLB_prefetch_requested 0
Core_0_DTLB_prefetch_issued 0
Core_0_DTLB_prefetch_useful 0
Core_0_DTLB_prefetch_useless 0
Core_0_DTLB_prefetch_late 0
Core_0_DTLB_prefetch_fill 0
Core_0_DTLB_prefetch_too_early 0
Core_0_DTLB_prefetch_too_early_among_fill 0
Core_0_DTLB_prefetch_too_early_among_useless 0
Core_0_DTLB_prefetch_pollution_evict 0
Core_0_DTLB_prefetch_pollution_demand 0
Core_0_DTLB_prefetch_pollution_among_prefetch_fill 0
Core_0_DTLB_prefetch_accuracy 0
Core_0_DTLB_prefetch_coverage 0

Core_0_STLB_total_access 126011
Core_0_STLB_total_hit 4917
Core_0_STLB_total_miss 121094
Core_0_STLB_total_MPKI 1.21094
Core_0_STLB_total_miss_rate 0.96098
Core_0_STLB_demand_access 126011
Core_0_STLB_demand_hit 4917
Core_0_STLB_demand_miss 121094
Core_0_STLB_demand_MPKI 1.21094
Core_0_STLB_demand_miss_rate 0.96098
Core_0_STLB_load_access 126011
Core_0_STLB_load_hit 4917
Core_0_STLB_load_miss 121094
Core_0_STLB_load_MPKI 1.21094
Core_0_STLB_load_miss_rate 0.96098
Core_0_STLB_rfo_access 0
Core_0_STLB_rfo_hit 0
Core_0_STLB_rfo_miss 0
Core_0_STLB_rfo_MPKI 0
Core_0_STLB_rfo_miss_rate 0
Core_0_STLB_prefetch_access 0
Core_0_STLB_prefetch_hit 0
Core_0_STLB_prefetch_miss 0
Core_0_STLB_prefetch_MPKI 0
Core_0_STLB_prefetch_miss_rate 0
Core_0_STLB_writeback_access 0
Core_0_STLB_writeback_hit 0
Core_0_STLB_writeback_miss 0
Core_0_STLB_writeback_MPKI 0
Core_0_STLB_writeback_miss_rate 0
Core_0_STLB_prefetch_requested 0
Core_0_STLB_prefetch_issued 0
Core_0_STLB_prefetch_useful 0
Core_0_STLB_prefetch_useless 0
Core_0_STLB_prefetch_late 0
Core_0_STLB_prefetch_fill 0
Core_0_STLB_prefetch_too_early 0
Core_0_STLB_prefetch_too_early_among_fill 0
Core_0_STLB_prefetch_too_early_among_useless 0
Core_0_STLB_prefetch_pollution_evict 0
Core_0_STLB_prefetch_pollution_demand 0
Core_0_STLB_prefetch_pollution_among_prefetch_fill 0
Core_0_STLB_prefetch_accuracy 0
Core_0_STLB_prefetch_coverage 0

Core_0_L1I_total_access 16067120
Core_0_L1I_total_hit 16067056
Core_0_L1I_total_miss 64
Core_0_L1I_total_MPKI 0.00064
Core_0_L1I_total_miss_rate 3.98329e-06
Core_0_L1I_demand_access 16067120
Core_0_L1I_demand_hit 16067056
Core_0_L1I_demand_miss 64
Core_0_L1I_demand_MPKI 0.00064
Core_0_L1I_demand_miss_rate 3.98329e-06
Core_0_L1I_load_access 16067120
Core_0_L1I_load_hit 16067056
Core_0_L1I_load_miss 64
Core_0_L1I_load_MPKI 0.00064
Core_0_L1I_load_miss_rate 3.98329e-06
Core_0_L1I_rfo_access 0
Core_0_L1I_rfo_hit 0
Core_0_L1I_rfo_miss 0
Core_0_L1I_rfo_MPKI 0
Core_0_L1I_rfo_miss_rate 0
Core_0_L1I_prefetch_access 0
Core_0_L1I_prefetch_hit 0
Core_0_L1I_prefetch_miss 0
Core_0_L1I_prefetch_MPKI 0
Core_0_L1I_prefetch_miss_rate 0
Core_0_L1I_writeback_access 0
Core_0_L1I_writeback_hit 0
Core_0_L1I_writeback_miss 0
Core_0_L1I_writeback_MPKI 0
Core_0_L1I_writeback_miss_rate 0
Core_0_L1I_prefetch_requested 0
Core_0_L1I_prefetch_issued 0
Core_0_L1I_prefetch_useful 0
Core_0_L1I_prefetch_useless 0
Core_0_L1I_prefetch_late 0
Core_0_L1I_prefetch_fill 0
Core_0_L1I_prefetch_too_early 0
Core_0_L1I_prefetch_too_early_among_fill 0
Core_0_L1I_prefetch_too_early_among_useless 0
Core_0_L1I_prefetch_pollution_evict 0
Core_0_L1I_prefetch_pollution_demand 0
Core_0_L1I_prefetch_pollution_among_prefetch_fill 0
Core_0_L1I_prefetch_accuracy 0
Core_0_L1I_prefetch_coverage 0

Core_0_L1D_total_access 26058887
Core_0_L1D_total_hit 18338597
Core_0_L1D_total_miss 7720290
Core_0_L1D_total_MPKI 77.2029
Core_0_L1D_total_miss_rate 0.296263
Core_0_L1D_demand_access 10947124
Core_0_L1D_demand_hit 10115863
Core_0_L1D_demand_miss 831261
Core_0_L1D_demand_MPKI 8.31261
Core_0_L1D_demand_miss_rate 0.0759342
Core_0_L1D_load_access 10947124
Core_0_L1D_load_hit 10115863
Core_0_L1D_load_miss 831261
Core_0_L1D_load_MPKI 8.31261
Core_0_L1D_load_miss_rate 0.0759342
Core_0_L1D_rfo_access 0
Core_0_L1D_rfo_hit 0
Core_0_L1D_rfo_miss 0
Core_0_L1D_rfo_MPKI 0
Core_0_L1D_rfo_miss_rate 0
Core_0_L1D_prefetch_access 7728401
Core_0_L1D_prefetch_hit 3694213
Core_0_L1D_prefetch_miss 4034188
Core_0_L1D_prefetch_MPKI 40.3419
Core_0_L1D_prefetch_miss_rate 0.521995
Core_0_L1D_writeback_access 7383362
Core_0_L1D_writeback_hit 4528521
Core_0_L1D_writeback_miss 2854841
Core_0_L1D_writeback_MPKI 28.5484
Core_0_L1D_writeback_miss_rate 0.386659
Core_0_L1D_prefetch_requested 103031892
Core_0_L1D_prefetch_issued 7728402
Core_0_L1D_prefetch_useful 1030103
Core_0_L1D_prefetch_useless 7265
Core_0_L1D_prefetch_late 43800
Core_0_L1D_prefetch_fill 993516
Core_0_L1D_prefetch_too_early 799
Core_0_L1D_prefetch_too_early_among_fill 0.000804215
Core_0_L1D_prefetch_too_early_among_useless 0.109979
Core_0_L1D_prefetch_pollution_evict 505
Core_0_L1D_prefetch_pollution_demand 0
Core_0_L1D_prefetch_pollution_among_prefetch_fill 0.000508296
Core_0_L1D_prefetch_accuracy 0.133288
Core_0_L1D_prefetch_coverage 0.553413

Core_0_L2C_total_access 5428678
Core_0_L2C_total_hit 1813371
Core_0_L2C_total_miss 3615307
Core_0_L2C_total_MPKI 36.1531
Core_0_L2C_total_miss_rate 0.665965
Core_0_L2C_demand_access 613815
Core_0_L2C_demand_hit 243269
Core_0_L2C_demand_miss 370546
Core_0_L2C_demand_MPKI 3.70546
Core_0_L2C_demand_miss_rate 0.603677
Core_0_L2C_load_access 276210
Core_0_L2C_load_hit 219334
Core_0_L2C_load_miss 56876
Core_0_L2C_load_MPKI 0.56876
Core_0_L2C_load_miss_rate 0.205916
Core_0_L2C_rfo_access 337605
Core_0_L2C_rfo_hit 23935
Core_0_L2C_rfo_miss 313670
Core_0_L2C_rfo_MPKI 3.1367
Core_0_L2C_rfo_miss_rate 0.929104
Core_0_L2C_prefetch_access 4181338
Core_0_L2C_prefetch_hit 936911
Core_0_L2C_prefetch_miss 3244427
Core_0_L2C_prefetch_MPKI 32.4443
Core_0_L2C_prefetch_miss_rate 0.77593
Core_0_L2C_writeback_access 633525
Core_0_L2C_writeback_hit 633191
Core_0_L2C_writeback_miss 334
Core_0_L2C_writeback_MPKI 0.00334
Core_0_L2C_writeback_miss_rate 0.000527209
Core_0_L2C_prefetch_requested 716688
Core_0_L2C_prefetch_issued 599586
Core_0_L2C_prefetch_useful 91427
Core_0_L2C_prefetch_useless 10404
Core_0_L2C_prefetch_late 2615
Core_0_L2C_prefetch_fill 1345154
Core_0_L2C_prefetch_too_early 6
Core_0_L2C_prefetch_too_early_among_fill 4.46046e-06
Core_0_L2C_prefetch_too_early_among_useless 0.000576701
Core_0_L2C_prefetch_pollution_evict 0
Core_0_L2C_prefetch_pollution_demand 0
Core_0_L2C_prefetch_pollution_among_prefetch_fill 0
Core_0_L2C_prefetch_accuracy 0.152484
Core_0_L2C_prefetch_coverage 0.197906

Core_0_LLC_total_access 2525236
Core_0_LLC_total_hit 588581
Core_0_LLC_total_miss 1936655
Core_0_LLC_total_MPKI 19.3665
Core_0_LLC_total_miss_rate 0.76692
Core_0_LLC_demand_access 90538
Core_0_LLC_demand_hit 1563
Core_0_LLC_demand_miss 88975
Core_0_LLC_demand_MPKI 0.88975
Core_0_LLC_demand_miss_rate 0.982737
Core_0_LLC_load_access 44350
Core_0_LLC_load_hit 22
Core_0_LLC_load_miss 44328
Core_0_LLC_load_MPKI 0.44328
Core_0_LLC_load_miss_rate 0.999504
Core_0_LLC_rfo_access 46188
Core_0_LLC_rfo_hit 1541
Core_0_LLC_rfo_miss 44647
Core_0_LLC_rfo_MPKI 0.44647
Core_0_LLC_rfo_miss_rate 0.966636
Core_0_LLC_prefetch_access 1802569
Core_0_LLC_prefetch_hit 29071
Core_0_LLC_prefetch_miss 1773498
Core_0_LLC_prefetch_MPKI 17.735
Core_0_LLC_prefetch_miss_rate 0.983872
Core_0_LLC_writeback_access 632129
Core_0_LLC_writeback_hit 557947
Core_0_LLC_writeback_miss 74182
Core_0_LLC_writeback_MPKI 0.74182
Core_0_LLC_writeback_miss_rate 0.117353
Core_0_LLC_prefetch_requested 0
Core_0_LLC_prefetch_issued 0
Core_0_LLC_prefetch_useful 0
Core_0_LLC_prefetch_useless 0
Core_0_LLC_prefetch_late 0
Core_0_LLC_prefetch_fill 1631301
Core_0_LLC_prefetch_too_early 0
Core_0_LLC_prefetch_too_early_among_fill 0
Core_0_LLC_prefetch_too_early_among_useless 0
Core_0_LLC_prefetch_pollution_evict 6
Core_0_LLC_prefetch_pollution_demand 6
Core_0_LLC_prefetch_pollution_among_prefetch_fill 3.67805e-06
Core_0_LLC_prefetch_accuracy 0
Core_0_LLC_prefetch_coverage 0

[DRAM Statistics]
Channel_0_RQ_row_buffer_hit 356805
Channel_0_RQ_row_buffer_miss 1378675
Channel_0_WQ_row_buffer_hit 45097
Channel_0_WQ_row_buffer_miss 584129
Channel_0_WQ_full 0
Channel_0_dbus_congested 6633735
DRAM_total_RQ_row_buffer_hit 356805
DRAM_total_RQ_row_buffer_miss 1378675
DRAM_total_WQ_row_buffer_hit 45097
DRAM_total_WQ_row_buffer_miss 584129
DRAM_total_WQ_full 0
DRAM_total_dbus_congested 6633735
DRAM_avg_congested_cycle 6.08753

====== DRAM_RQ_TRAFFIC ========
DRAM_RQ_READ_TRAFFIC_BREAKDOWN:
data_demand_read.count = 76796
data_demand_read.share = 4.43%

inst_demand_read.count = 50
inst_demand_read.share = 0.00%

cache_inst_prefetch.count = 0
cache_inst_prefetch.share = 0.00%

cache_data_prefetch.count = 1643441
cache_data_prefetch.share = 94.70%

stlb_data_demand.count = 63
stlb_data_demand.share = 0.00%

stlb_inst_demand.count = 4
stlb_inst_demand.share = 0.00%

stlb_l1i_pref.count = 0
stlb_l1i_pref.share = 0.00%

stlb_l1d_pref.count = 15141
stlb_l1d_pref.share = 0.87%

DRAM_RQ_READ_TRAFFIC_SUMMARY:
cache_demand.count = 76846
cache_demand.share = 4.43%

cache_prefetch.count = 1643441
cache_prefetch.share = 94.70%

stlb_demand.count = 67
stlb_demand.share = 0.00%

stlb_prefetch.count = 15141
stlb_prefetch.share = 0.87%

DRAM_RQ_READ_TRAFFIC_DEBUG:
total_classified_read.count = 1735495
unclassified_read.count = 0
total_read_with_other.count = 1735495

classified_plus_unclassified_check.count = 1735495
dram_rq_read_total_observed.count = 1735495
dram_rq_read_total_observed.per_1K_instructions = 17.3549

STLB_MISS_PTW_DRAM_TOUCH_BREAKDOWN:
stlb_miss_total.count = 121094

stlb_miss_touch_dram.count = 15211
stlb_miss_touch_dram.share = 12.56%

stlb_miss_no_dram_touch.count = 105883
stlb_miss_no_dram_touch.share = 87.44%

STLB_MISS_PTW_DRAM_TOUCH_DEBUG:
stlb_miss_touch_plus_no_touch.count = 121094
stlb_miss_total_check.count = 121094

======STLB miss causes ========
Core_0_STLB_miss_cause_breakdown
Core_0_STLB_cause_Demand_Data_miss 104
Core_0_STLB_cause_Demand_Data_miss_rate 0.000825325
Core_0_STLB_cause_Demand_Instruction_miss 5
Core_0_STLB_cause_Demand_Instruction_miss_rate 3.96791e-05
Core_0_STLB_cause_L1D_Prefetch_miss 120985
Core_0_STLB_cause_L1D_Prefetch_miss_rate 0.960115
Core_0_STLB_cause_L1D_Prefetch_Same_Page_miss 0
Core_0_STLB_cause_L1D_Prefetch_Same_Page_miss_rate 0
Core_0_STLB_cause_L1D_Prefetch_Cross_Page_miss 120985
Core_0_STLB_cause_L1D_Prefetch_Cross_Page_miss_rate 0.960115
Core_0_STLB_cause_L1I_Prefetch_miss 0
Core_0_STLB_cause_L1I_Prefetch_miss_rate 0
Core_0_STLB_cause_Other_miss 0
Core_0_STLB_cause_Other_miss_rate 0
Core_0_STLB_Demand_miss 109
Core_0_STLB_Demand_miss_rate 0.000865004
Core_0_STLB_L1D_Prefetch_miss 120985
Core_0_STLB_L1D_Prefetch_miss_rate 0.960115
Core_0_STLB_Other_miss 0
Core_0_STLB_Other_miss_rate 0

========== vBerti-TLB Cross-page Flow Stats ==========

Core_0_vBerti_Requested 103031892
Core_0_vBerti_Cross_page_prefetch_in_Requested 31304918
Core_0_vBerti_Same_page_prefetch_in_Requested 71726974
Core_0_vBerti_Cross_page_prefetch_of_Requested 0.303837
Core_0_vBerti_Issued 7728402
Core_0_vBerti_InPQ_Same_page_prefetch 3669774
Core_0_vBerti_InPQ_Cross_page_prefetch 4058628
Core_0_vBerti_PQ_Drop_Rate 0.92499
Core_0_vBerti_InPQ_Cross_page_prefetch_of_Requested 0.039392
Core_0_vBerti_Cross_page_PQ_Drop_rate 0.870352
Core_0_vBerti_Cross_page_prefetch_of_Issued 0.525157
Core_0_CP_PF_PQFULL_drop 27246290
Core_0_CP_PF_PQFULL_TLB_rescue_enqueued 0
Core_0_CP_PF_PQFULL_TLB_rescue_issued 0
Core_0_CP_PF_PQFULL_TLB_rescue_translated 0

========= DTLB_vBerti Prefetch Stats =========
Core_0_DTLB_demand_access 16401774
Core_0_DTLB_demand_hit 16385538
Core_0_DTLB_demand_miss 16236
Core_0_DTLB_demand_mshr_merge 15983
Core_0_DTLB_demand_fill 2536
Core_0_DTLB_demand_miss_rate 0.000989893
Core_0_DTLB_demand_mpki 0.16236
Core_0_DTLB_vberti_prefetch_access 5653025
Core_0_DTLB_vberti_prefetch_hit 5369772
Core_0_DTLB_vberti_prefetch_miss 283253
Core_0_DTLB_vberti_prefetch_mshr_merge 157500
Core_0_DTLB_vberti_prefetch_fill 123470
Core_0_DTLB_vberti_prefetch_miss_rate 0.0501064
Core_0_DTLB_vberti_prefetch_mpki 2.83253

=== DTLB_vBerti Same/Cross-page Prefetch Stats ===
Core_0_DTLB_vberti_same_page_prefetch 2022830
Core_0_DTLB_vberti_same_page_prefetch_hit 2022830
Core_0_DTLB_vberti_same_page_prefetch_miss 0
Core_0_DTLB_vberti_same_page_prefetch_mshr_merge 0
Core_0_DTLB_vberti_same_page_prefetch_fill 0
Core_0_DTLB_vberti_same_page_prefetch_miss_rate 0
Core_0_DTLB_vberti_same_page_prefetch_mpki 0
Core_0_DTLB_vberti_cross_page_prefetch 3630195
Core_0_DTLB_vberti_cross_page_prefetch_hit 3346942
Core_0_DTLB_vberti_cross_page_prefetch_miss 283253
Core_0_DTLB_vberti_cross_page_prefetch_mshr_merge 157500
Core_0_DTLB_vberti_cross_page_prefetch_fill 123470
Core_0_DTLB_vberti_cross_page_prefetch_miss_rate 0.0780269
Core_0_DTLB_vberti_cross_page_prefetch_mpki 2.83253
Core_0_DTLB_same_page_prefetch_miss_rate 0
Core_0_DTLB_same_page_prefetch_mpki 0
Core_0_DTLB_cross_page_prefetch_miss_rate 0.0780269
Core_0_DTLB_cross_page_prefetch_mpki 2.83253
Core_0_DTLB_cross_page_prefetch_issued 3630195
Core_0_DTLB_cross_page_prefetch_lookups 3630195
Core_0_DTLB_cross_page_prefetch_useful 125383
Core_0_DTLB_cross_page_prefetch_useless 370
Core_0_DTLB_cross_page_prefetch_late 2283
Core_0_DTLB_cross_page_prefetch_too_early 42
Core_0_DTLB_cross_page_prefetch_too_early_among_fill 0.000340164
Core_0_DTLB_cross_page_prefetch_too_early_among_useless 0.113514
Core_0_DTLB_cross_page_prefetch_pollution_evict 66
Core_0_DTLB_cross_page_prefetch_pollution_demand 37
Core_0_DTLB_cross_page_prefetch_pollution_among_prefetch_fill 0.000534543
Core_0_DTLB_cross_page_prefetch_accuracy 0.0345389
Core_0_DTLB_cross_page_prefetch_coverage 0.885354

========= STLB_vBerti Prefetch Stats =========
Core_0_STLB_demand_access 258
Core_0_STLB_demand_hit 149
Core_0_STLB_demand_miss 109
Core_0_STLB_demand_mshr_merge 0
Core_0_STLB_demand_fill 109
Core_0_STLB_demand_miss_rate 0.422481
Core_0_STLB_demand_mpki 0.00109
Core_0_STLB_vberti_prefetch_access 125753
Core_0_STLB_vberti_prefetch_hit 4768
Core_0_STLB_vberti_prefetch_miss 120985
Core_0_STLB_vberti_prefetch_mshr_merge 0
Core_0_STLB_vberti_prefetch_fill 120985
Core_0_STLB_vberti_prefetch_miss_rate 0.962084
Core_0_STLB_vberti_prefetch_mpki 1.20985

=== STLB_vBerti Same/Cross-page Prefetch Stats ===
Core_0_STLB_vberti_same_page_prefetch 0
Core_0_STLB_vberti_same_page_prefetch_hit 0
Core_0_STLB_vberti_same_page_prefetch_miss 0
Core_0_STLB_vberti_same_page_prefetch_mshr_merge 0
Core_0_STLB_vberti_same_page_prefetch_fill 0
Core_0_STLB_vberti_same_page_prefetch_miss_rate 0
Core_0_STLB_vberti_same_page_prefetch_mpki 0
Core_0_STLB_vberti_cross_page_prefetch 125753
Core_0_STLB_vberti_cross_page_prefetch_hit 4768
Core_0_STLB_vberti_cross_page_prefetch_miss 120985
Core_0_STLB_vberti_cross_page_prefetch_mshr_merge 0
Core_0_STLB_vberti_cross_page_prefetch_fill 120985
Core_0_STLB_vberti_cross_page_prefetch_miss_rate 0.962084
Core_0_STLB_vberti_cross_page_prefetch_mpki 1.20985
Core_0_STLB_same_page_prefetch_miss_rate 0
Core_0_STLB_same_page_prefetch_mpki 0
Core_0_STLB_cross_page_prefetch_miss_rate 0.962084
Core_0_STLB_cross_page_prefetch_mpki 1.20985
Core_0_STLB_cross_page_prefetch_issued 125753
Core_0_STLB_cross_page_prefetch_lookups 125753
Core_0_STLB_cross_page_prefetch_useful 72
Core_0_STLB_cross_page_prefetch_useless 120913
Core_0_STLB_cross_page_prefetch_late 0
Core_0_STLB_cross_page_prefetch_too_early 0
Core_0_STLB_cross_page_prefetch_too_early_among_fill 0
Core_0_STLB_cross_page_prefetch_too_early_among_useless 0
Core_0_STLB_cross_page_prefetch_pollution_evict 0
Core_0_STLB_cross_page_prefetch_pollution_demand 0
Core_0_STLB_cross_page_prefetch_pollution_among_prefetch_fill 0
Core_0_STLB_cross_page_prefetch_accuracy 0.000572551
Core_0_STLB_cross_page_prefetch_coverage 0.39779

========= STLB Cross-page Prefetch Buffer Stats =========
Core_0_STLB_raw_demand_miss 104
Core_0_CP_PB_insert 0
Core_0_CP_PB_demand_hit 0
Core_0_STLB_PB_demand_miss 104
Core_0_CP_PB_coverage 0
Core_0_STLB_raw_demand_mpki 0.00104
Core_0_STLB_PB_demand_mpki 0.00104
Core_0_CP_PB_demand_hit_mpki 0

Core_0_TLB_demand_miss_rate 6.64562e-06
Core_0_TLB_demand_mpki 0.00109
Core_0_TLB_same_page_prefetch_miss_rate 0
Core_0_TLB_same_page_prefetch_mpki 0
Core_0_TLB_cross_page_prefetch_miss_rate 0.0333274
Core_0_TLB_cross_page_prefetch_mpki 1.20985
Core_0_TLB_cross_page_prefetch_issued 3630195
Core_0_TLB_cross_page_prefetch_lookups 3630195
Core_0_TLB_cross_page_prefetch_useful 116265
Core_0_TLB_cross_page_prefetch_useless 344
Core_0_TLB_cross_page_prefetch_late 2283
Core_0_TLB_cross_page_prefetch_too_early 40
Core_0_TLB_cross_page_prefetch_too_early_among_fill 0.000163629
Core_0_TLB_cross_page_prefetch_too_early_among_useless 0.116279
Core_0_TLB_cross_page_prefetch_accuracy 0.0320272
Core_0_TLB_cross_page_prefetch_coverage 0.999063
BERTI TO_L1: 28904597 TO_L2: 89442222 TO_L2_BC_MSHR: 49760629
BERTI AVG_LAT: 267.303 NUM_TRACK_LATENCY: 2237113 NUM_CANT_TRACK_LATENCY: 1392
BERTI CROSS_PAGE 43498215 NO_CROSS_PAGE: 74848604
BERTI FOUND_BERTI: 24980128 NO_FOUND_BERTI: 10260442
BERTI AVERAGE_ISSUED: 1.71501
