[VMEM] WARNING: physical memory size is smaller than virtual memory size.

*** ChampSim Multicore Out-of-Order Simulator ***
Warmup Instructions: 50000000
Simulation Instructions: 100000000
Number of CPUs: 1
Page size: 4096
Core 0: /data0/tzh/champsim_traces/SPEC06/459.GemsFDTD-1491B.champsimtrace.xz
VBerti Prefetcher
BERTI HASH ENTANGLING
BERTI IP MASK ffff
Off-chip DRAM Size: 16 GiB Channels: 1 Width: 64-bit Data Rate: 3205 MT/s
Warmup halting CPU 0 at instruction 50000002 cycle 10833538 for remainder of phase
Warmup finished CPU 0 instructions: 50000002 cycles: 10833538 cumulative IPC: 4.615 (Simulation time: 00 hr 03 min 03 sec)
Warmup complete CPU 0 instructions: 50000002 cycles: 10833538 cumulative IPC: 4.615 (Simulation time: 00 hr 03 min 03 sec)
Simulation finished CPU 0 instructions: 100000003 cycles: 96218436 cumulative IPC: 1.039 (Simulation time: 00 hr 19 min 54 sec)
Simulation complete CPU 0 instructions: 100000003 cycles: 96218436 cumulative IPC: 1.039 (Simulation time: 00 hr 19 min 54 sec)

ChampSim completed all CPUs

=== Simulation ===
CPU 0 runs /data0/tzh/champsim_traces/SPEC06/459.GemsFDTD-1491B.champsimtrace.xz

Region of Interest Statistics

CPU 0 cumulative IPC: 1.039 instructions: 100000003 cycles: 96218436
CPU 0 Branch Prediction Accuracy: 99.53% MPKI: 0.1139 Average ROB Occupancy at Mispredict: 349.6
Branch type MPKI
BRANCH_DIRECT_JUMP: 0
BRANCH_INDIRECT: 0
BRANCH_CONDITIONAL: 0.1139
BRANCH_DIRECT_CALL: 0
BRANCH_INDIRECT_CALL: 0
BRANCH_RETURN: 0

cpu0->cpu0_STLB TOTAL        ACCESS:      42479 HIT:      10918 MISS:      31561 MSHR_MERGE:          0
cpu0->cpu0_STLB LOAD         ACCESS:      42479 HIT:      10918 MISS:      31561 MSHR_MERGE:          0
cpu0->cpu0_STLB RFO          ACCESS:          0 HIT:          0 MISS:          0 MSHR_MERGE:          0
cpu0->cpu0_STLB PREFETCH     ACCESS:          0 HIT:          0 MISS:          0 MSHR_MERGE:          0
cpu0->cpu0_STLB WRITE        ACCESS:          0 HIT:          0 MISS:          0 MSHR_MERGE:          0
cpu0->cpu0_STLB TRANSLATION  ACCESS:          0 HIT:          0 MISS:          0 MSHR_MERGE:          0
cpu0->cpu0_STLB PREFETCH REQUESTED:          0 ISSUED:          0 USEFUL:          0 USELESS:          0 LATE:          0 TOO_EARLY:          0
cpu0->cpu0_STLB AVERAGE MISS LATENCY: 267.7 cycles
cpu0->cpu0_L2C TOTAL        ACCESS:    5703678 HIT:    1949543 MISS:    3754135 MSHR_MERGE:     809478
cpu0->cpu0_L2C LOAD         ACCESS:     437659 HIT:     147114 MISS:     290545 MSHR_MERGE:      13455
cpu0->cpu0_L2C RFO          ACCESS:          0 HIT:          0 MISS:          0 MSHR_MERGE:          0
cpu0->cpu0_L2C PREFETCH     ACCESS:    4342390 HIT:     883104 MISS:    3459286 MSHR_MERGE:     796023
cpu0->cpu0_L2C WRITE        ACCESS:     918060 HIT:     918060 MISS:          0 MSHR_MERGE:          0
cpu0->cpu0_L2C TRANSLATION  ACCESS:       5569 HIT:       1265 MISS:       4304 MSHR_MERGE:          0
cpu0->cpu0_L2C PREFETCH REQUESTED:    1549147 ISSUED:    1548176 USEFUL:     609513 USELESS:      81842 LATE:       4978 TOO_EARLY:       2666
cpu0->cpu0_L2C AVERAGE MISS LATENCY: 337.2 cycles
cpu0->cpu0_L1I TOTAL        ACCESS:   15972675 HIT:   15972675 MISS:          0 MSHR_MERGE:          0
cpu0->cpu0_L1I LOAD         ACCESS:   15972675 HIT:   15972675 MISS:          0 MSHR_MERGE:          0
cpu0->cpu0_L1I RFO          ACCESS:          0 HIT:          0 MISS:          0 MSHR_MERGE:          0
cpu0->cpu0_L1I PREFETCH     ACCESS:          0 HIT:          0 MISS:          0 MSHR_MERGE:          0
cpu0->cpu0_L1I WRITE        ACCESS:          0 HIT:          0 MISS:          0 MSHR_MERGE:          0
cpu0->cpu0_L1I TRANSLATION  ACCESS:          0 HIT:          0 MISS:          0 MSHR_MERGE:          0
cpu0->cpu0_L1I PREFETCH REQUESTED:          0 ISSUED:          0 USEFUL:          0 USELESS:          0 LATE:          0 TOO_EARLY:          0
cpu0->cpu0_L1I AVERAGE MISS LATENCY: - cycles
cpu0->cpu0_L1D TOTAL        ACCESS:   33323307 HIT:   29106225 MISS:    4217082 MSHR_MERGE:     955676
cpu0->cpu0_L1D LOAD         ACCESS:   17083263 HIT:   15758003 MISS:    1325260 MSHR_MERGE:     887601
cpu0->cpu0_L1D RFO          ACCESS:          0 HIT:          0 MISS:          0 MSHR_MERGE:          0
cpu0->cpu0_L1D PREFETCH     ACCESS:    8990216 HIT:    6103984 MISS:    2886232 MSHR_MERGE:      68054
cpu0->cpu0_L1D WRITE        ACCESS:    7186660 HIT:    7186660 MISS:          0 MSHR_MERGE:          0
cpu0->cpu0_L1D TRANSLATION  ACCESS:      63168 HIT:      57578 MISS:       5590 MSHR_MERGE:         21
cpu0->cpu0_L1D PREFETCH REQUESTED:   89599892 ISSUED:    8990219 USEFUL:    2013441 USELESS:     177788 LATE:     146623 TOO_EARLY:          0
cpu0->cpu0_L1D AVERAGE MISS LATENCY: 229.1 cycles
cpu0->cpu0_ITLB TOTAL        ACCESS:   13522604 HIT:   13522604 MISS:          0 MSHR_MERGE:          0
cpu0->cpu0_ITLB LOAD         ACCESS:   13522604 HIT:   13522604 MISS:          0 MSHR_MERGE:          0
cpu0->cpu0_ITLB RFO          ACCESS:          0 HIT:          0 MISS:          0 MSHR_MERGE:          0
cpu0->cpu0_ITLB PREFETCH     ACCESS:          0 HIT:          0 MISS:          0 MSHR_MERGE:          0
cpu0->cpu0_ITLB WRITE        ACCESS:          0 HIT:          0 MISS:          0 MSHR_MERGE:          0
cpu0->cpu0_ITLB TRANSLATION  ACCESS:          0 HIT:          0 MISS:          0 MSHR_MERGE:          0
cpu0->cpu0_ITLB PREFETCH REQUESTED:          0 ISSUED:          0 USEFUL:          0 USELESS:          0 LATE:          0 TOO_EARLY:          0
cpu0->cpu0_ITLB AVERAGE MISS LATENCY: - cycles
cpu0->cpu0_DTLB TOTAL        ACCESS:   30895283 HIT:   30790934 MISS:     104349 MSHR_MERGE:      61870
cpu0->cpu0_DTLB LOAD         ACCESS:   30895283 HIT:   30790934 MISS:     104349 MSHR_MERGE:      61870
cpu0->cpu0_DTLB RFO          ACCESS:          0 HIT:          0 MISS:          0 MSHR_MERGE:          0
cpu0->cpu0_DTLB PREFETCH     ACCESS:          0 HIT:          0 MISS:          0 MSHR_MERGE:          0
cpu0->cpu0_DTLB WRITE        ACCESS:          0 HIT:          0 MISS:          0 MSHR_MERGE:          0
cpu0->cpu0_DTLB TRANSLATION  ACCESS:          0 HIT:          0 MISS:          0 MSHR_MERGE:          0
cpu0->cpu0_DTLB PREFETCH REQUESTED:          0 ISSUED:          0 USEFUL:          0 USELESS:          0 LATE:          0 TOO_EARLY:          0
cpu0->cpu0_DTLB AVERAGE MISS LATENCY: 204.6 cycles
cpu0->LLC TOTAL        ACCESS:    3862788 HIT:     819676 MISS:    3043112 MSHR_MERGE:     116277
cpu0->LLC LOAD         ACCESS:     277090 HIT:      22057 MISS:     255033 MSHR_MERGE:        371
cpu0->LLC RFO          ACCESS:          0 HIT:          0 MISS:          0 MSHR_MERGE:          0
cpu0->LLC PREFETCH     ACCESS:    2663120 HIT:     185821 MISS:    2477299 MSHR_MERGE:     115906
cpu0->LLC WRITE        ACCESS:     918274 HIT:     611794 MISS:     306480 MSHR_MERGE:          0
cpu0->LLC TRANSLATION  ACCESS:       4304 HIT:          4 MISS:       4300 MSHR_MERGE:          0
cpu0->LLC PREFETCH REQUESTED:          0 ISSUED:          0 USEFUL:          0 USELESS:          0 LATE:          0 TOO_EARLY:          0
cpu0->LLC AVERAGE MISS LATENCY: 165.9 cycles

DRAM Statistics

Channel 0 RQ ROW_BUFFER_HIT:      64104
  ROW_BUFFER_MISS:    2556251
  AVG DBUS CONGESTED CYCLE: 5.869
Channel 0 WQ ROW_BUFFER_HIT:     111879
  ROW_BUFFER_MISS:     821113
  FULL:          0
Channel 0 REFRESHES ISSUED:       8018

[ROI Statistics]
[System Configuration]
num_cpus 1
cpu_freq 4000
fetch_width 6
decode_width 6
dispatch_width 6
execute_width 6
lq_width 2
sq_width 2
retire_width 6
scheduler_size 128
branch_mispredict_penalty 15
rob_size 352
lq_size 128
sq_size 72
ifetch_buffer_size 64
decode_buffer_size 32
dispatch_buffer_size 32
register_file_size 288
decode_latency 1
dispatch_latency 1
schedule_latency 1
execute_latency 1
page_size 4096
block_size 64
core_0_itlb_set 16
core_0_itlb_way 4
core_0_itlb_rq_size 16
core_0_itlb_wq_size 16
core_0_itlb_pq_size 0
core_0_itlb_mshr_size 8
core_0_itlb_hit_latency 1
core_0_itlb_fill_latency 1
core_0_itlb_max_tag_check 2
core_0_itlb_max_fill 2
core_0_dtlb_set 16
core_0_dtlb_way 4
core_0_dtlb_rq_size 16
core_0_dtlb_wq_size 16
core_0_dtlb_pq_size 0
core_0_dtlb_mshr_size 8
core_0_dtlb_hit_latency 1
core_0_dtlb_fill_latency 1
core_0_dtlb_max_tag_check 2
core_0_dtlb_max_fill 2
core_0_stlb_set 128
core_0_stlb_way 12
core_0_stlb_rq_size 32
core_0_stlb_wq_size 32
core_0_stlb_pq_size 0
core_0_stlb_mshr_size 16
core_0_stlb_hit_latency 4
core_0_stlb_fill_latency 4
core_0_stlb_max_tag_check 1
core_0_stlb_max_fill 1
core_0_l1i_set 64
core_0_l1i_way 8
core_0_l1i_rq_size 64
core_0_l1i_wq_size 64
core_0_l1i_pq_size 32
core_0_l1i_mshr_size 8
core_0_l1i_hit_latency 2
core_0_l1i_fill_latency 2
core_0_l1i_max_tag_check 2
core_0_l1i_max_fill 2
core_0_l1d_set 64
core_0_l1d_way 12
core_0_l1d_rq_size 64
core_0_l1d_wq_size 64
core_0_l1d_pq_size 8
core_0_l1d_mshr_size 16
core_0_l1d_hit_latency 2
core_0_l1d_fill_latency 3
core_0_l1d_max_tag_check 2
core_0_l1d_max_fill 2
core_0_l2c_set 1024
core_0_l2c_way 8
core_0_l2c_rq_size 32
core_0_l2c_wq_size 32
core_0_l2c_pq_size 16
core_0_l2c_mshr_size 32
core_0_l2c_hit_latency 5
core_0_l2c_fill_latency 5
core_0_l2c_max_tag_check 1
core_0_l2c_max_fill 1
llc_set 2048
llc_way 16
llc_rq_size 32
llc_wq_size 32
llc_pq_size 32
llc_mshr_size 64
llc_hit_latency 10
llc_fill_latency 10
llc_max_tag_check 1
llc_max_fill 1
dram_channels 1
dram_ranks 1
dram_bankgroups 8
dram_banks 4
dram_rows 65536
dram_columns 1024
dram_channel_width 8
dram_rq_size 64
dram_wq_size 64
dram_size 17179869184
core_0_itlb_prefetcher no
core_0_dtlb_prefetcher no
core_0_stlb_prefetcher no
core_0_l1i_prefetcher next_line
core_0_l1d_prefetcher vberti
core_0_l2c_prefetcher ip_stride
llc_prefetcher no
llc_replacement drrip

Core_0_instructions 100000003
Core_0_cycles 96218436
Core_0_IPC 1.0393
Core_0_branch_prediction_accuracy 99.5261
Core_0_branch_MPKI 0.11387
Core_0_average_ROB_occupancy_at_mispredict 349.624

Core_0_ITLB_total_access 13522604
Core_0_ITLB_total_hit 13522604
Core_0_ITLB_total_miss 0
Core_0_ITLB_total_MPKI 0
Core_0_ITLB_total_miss_rate 0
Core_0_ITLB_demand_access 13522604
Core_0_ITLB_demand_hit 13522604
Core_0_ITLB_demand_miss 0
Core_0_ITLB_demand_MPKI 0
Core_0_ITLB_demand_miss_rate 0
Core_0_ITLB_load_access 13522604
Core_0_ITLB_load_hit 13522604
Core_0_ITLB_load_miss 0
Core_0_ITLB_load_MPKI 0
Core_0_ITLB_load_miss_rate 0
Core_0_ITLB_rfo_access 0
Core_0_ITLB_rfo_hit 0
Core_0_ITLB_rfo_miss 0
Core_0_ITLB_rfo_MPKI 0
Core_0_ITLB_rfo_miss_rate 0
Core_0_ITLB_prefetch_access 0
Core_0_ITLB_prefetch_hit 0
Core_0_ITLB_prefetch_miss 0
Core_0_ITLB_prefetch_MPKI 0
Core_0_ITLB_prefetch_miss_rate 0
Core_0_ITLB_writeback_access 0
Core_0_ITLB_writeback_hit 0
Core_0_ITLB_writeback_miss 0
Core_0_ITLB_writeback_MPKI 0
Core_0_ITLB_writeback_miss_rate 0
Core_0_ITLB_prefetch_requested 0
Core_0_ITLB_prefetch_issued 0
Core_0_ITLB_prefetch_useful 0
Core_0_ITLB_prefetch_useless 0
Core_0_ITLB_prefetch_late 0
Core_0_ITLB_prefetch_fill 0
Core_0_ITLB_prefetch_too_early 0
Core_0_ITLB_prefetch_too_early_among_fill 0
Core_0_ITLB_prefetch_too_early_among_useless 0
Core_0_ITLB_prefetch_pollution_evict 0
Core_0_ITLB_prefetch_pollution_demand 0
Core_0_ITLB_prefetch_pollution_among_prefetch_fill 0
Core_0_ITLB_prefetch_accuracy 0
Core_0_ITLB_prefetch_coverage 0

Core_0_DTLB_total_access 30895283
Core_0_DTLB_total_hit 30790934
Core_0_DTLB_total_miss 104349
Core_0_DTLB_total_MPKI 1.04349
Core_0_DTLB_total_miss_rate 0.00337751
Core_0_DTLB_demand_access 30895283
Core_0_DTLB_demand_hit 30790934
Core_0_DTLB_demand_miss 104349
Core_0_DTLB_demand_MPKI 1.04349
Core_0_DTLB_demand_miss_rate 0.00337751
Core_0_DTLB_load_access 30895283
Core_0_DTLB_load_hit 30790934
Core_0_DTLB_load_miss 104349
Core_0_DTLB_load_MPKI 1.04349
Core_0_DTLB_load_miss_rate 0.00337751
Core_0_DTLB_rfo_access 0
Core_0_DTLB_rfo_hit 0
Core_0_DTLB_rfo_miss 0
Core_0_DTLB_rfo_MPKI 0
Core_0_DTLB_rfo_miss_rate 0
Core_0_DTLB_prefetch_access 0
Core_0_DTLB_prefetch_hit 0
Core_0_DTLB_prefetch_miss 0
Core_0_DTLB_prefetch_MPKI 0
Core_0_DTLB_prefetch_miss_rate 0
Core_0_DTLB_writeback_access 0
Core_0_DTLB_writeback_hit 0
Core_0_DTLB_writeback_miss 0
Core_0_DTLB_writeback_MPKI 0
Core_0_DTLB_writeback_miss_rate 0
Core_0_DTLB_prefetch_requested 0
Core_0_DTLB_prefetch_issued 0
Core_0_DTLB_prefetch_useful 0
Core_0_DTLB_prefetch_useless 0
Core_0_DTLB_prefetch_late 0
Core_0_DTLB_prefetch_fill 0
Core_0_DTLB_prefetch_too_early 0
Core_0_DTLB_prefetch_too_early_among_fill 0
Core_0_DTLB_prefetch_too_early_among_useless 0
Core_0_DTLB_prefetch_pollution_evict 0
Core_0_DTLB_prefetch_pollution_demand 0
Core_0_DTLB_prefetch_pollution_among_prefetch_fill 0
Core_0_DTLB_prefetch_accuracy 0
Core_0_DTLB_prefetch_coverage 0

Core_0_STLB_total_access 42479
Core_0_STLB_total_hit 10918
Core_0_STLB_total_miss 31561
Core_0_STLB_total_MPKI 0.31561
Core_0_STLB_total_miss_rate 0.742979
Core_0_STLB_demand_access 42479
Core_0_STLB_demand_hit 10918
Core_0_STLB_demand_miss 31561
Core_0_STLB_demand_MPKI 0.31561
Core_0_STLB_demand_miss_rate 0.742979
Core_0_STLB_load_access 42479
Core_0_STLB_load_hit 10918
Core_0_STLB_load_miss 31561
Core_0_STLB_load_MPKI 0.31561
Core_0_STLB_load_miss_rate 0.742979
Core_0_STLB_rfo_access 0
Core_0_STLB_rfo_hit 0
Core_0_STLB_rfo_miss 0
Core_0_STLB_rfo_MPKI 0
Core_0_STLB_rfo_miss_rate 0
Core_0_STLB_prefetch_access 0
Core_0_STLB_prefetch_hit 0
Core_0_STLB_prefetch_miss 0
Core_0_STLB_prefetch_MPKI 0
Core_0_STLB_prefetch_miss_rate 0
Core_0_STLB_writeback_access 0
Core_0_STLB_writeback_hit 0
Core_0_STLB_writeback_miss 0
Core_0_STLB_writeback_MPKI 0
Core_0_STLB_writeback_miss_rate 0
Core_0_STLB_prefetch_requested 0
Core_0_STLB_prefetch_issued 0
Core_0_STLB_prefetch_useful 0
Core_0_STLB_prefetch_useless 0
Core_0_STLB_prefetch_late 0
Core_0_STLB_prefetch_fill 0
Core_0_STLB_prefetch_too_early 0
Core_0_STLB_prefetch_too_early_among_fill 0
Core_0_STLB_prefetch_too_early_among_useless 0
Core_0_STLB_prefetch_pollution_evict 0
Core_0_STLB_prefetch_pollution_demand 0
Core_0_STLB_prefetch_pollution_among_prefetch_fill 0
Core_0_STLB_prefetch_accuracy 0
Core_0_STLB_prefetch_coverage 0

Core_0_L1I_total_access 15972675
Core_0_L1I_total_hit 15972675
Core_0_L1I_total_miss 0
Core_0_L1I_total_MPKI 0
Core_0_L1I_total_miss_rate 0
Core_0_L1I_demand_access 15972675
Core_0_L1I_demand_hit 15972675
Core_0_L1I_demand_miss 0
Core_0_L1I_demand_MPKI 0
Core_0_L1I_demand_miss_rate 0
Core_0_L1I_load_access 15972675
Core_0_L1I_load_hit 15972675
Core_0_L1I_load_miss 0
Core_0_L1I_load_MPKI 0
Core_0_L1I_load_miss_rate 0
Core_0_L1I_rfo_access 0
Core_0_L1I_rfo_hit 0
Core_0_L1I_rfo_miss 0
Core_0_L1I_rfo_MPKI 0
Core_0_L1I_rfo_miss_rate 0
Core_0_L1I_prefetch_access 0
Core_0_L1I_prefetch_hit 0
Core_0_L1I_prefetch_miss 0
Core_0_L1I_prefetch_MPKI 0
Core_0_L1I_prefetch_miss_rate 0
Core_0_L1I_writeback_access 0
Core_0_L1I_writeback_hit 0
Core_0_L1I_writeback_miss 0
Core_0_L1I_writeback_MPKI 0
Core_0_L1I_writeback_miss_rate 0
Core_0_L1I_prefetch_requested 0
Core_0_L1I_prefetch_issued 0
Core_0_L1I_prefetch_useful 0
Core_0_L1I_prefetch_useless 0
Core_0_L1I_prefetch_late 0
Core_0_L1I_prefetch_fill 0
Core_0_L1I_prefetch_too_early 0
Core_0_L1I_prefetch_too_early_among_fill 0
Core_0_L1I_prefetch_too_early_among_useless 0
Core_0_L1I_prefetch_pollution_evict 0
Core_0_L1I_prefetch_pollution_demand 0
Core_0_L1I_prefetch_pollution_among_prefetch_fill 0
Core_0_L1I_prefetch_accuracy 0
Core_0_L1I_prefetch_coverage 0

Core_0_L1D_total_access 33260139
Core_0_L1D_total_hit 29048647
Core_0_L1D_total_miss 4211492
Core_0_L1D_total_MPKI 42.1149
Core_0_L1D_total_miss_rate 0.126623
Core_0_L1D_demand_access 17083263
Core_0_L1D_demand_hit 15758003
Core_0_L1D_demand_miss 1325260
Core_0_L1D_demand_MPKI 13.2526
Core_0_L1D_demand_miss_rate 0.0775765
Core_0_L1D_load_access 17083263
Core_0_L1D_load_hit 15758003
Core_0_L1D_load_miss 1325260
Core_0_L1D_load_MPKI 13.2526
Core_0_L1D_load_miss_rate 0.0775765
Core_0_L1D_rfo_access 0
Core_0_L1D_rfo_hit 0
Core_0_L1D_rfo_miss 0
Core_0_L1D_rfo_MPKI 0
Core_0_L1D_rfo_miss_rate 0
Core_0_L1D_prefetch_access 8990216
Core_0_L1D_prefetch_hit 6103984
Core_0_L1D_prefetch_miss 2886232
Core_0_L1D_prefetch_MPKI 28.8623
Core_0_L1D_prefetch_miss_rate 0.321041
Core_0_L1D_writeback_access 7186660
Core_0_L1D_writeback_hit 7186660
Core_0_L1D_writeback_miss 0
Core_0_L1D_writeback_MPKI 0
Core_0_L1D_writeback_miss_rate 0
Core_0_L1D_prefetch_requested 89599892
Core_0_L1D_prefetch_issued 8990219
Core_0_L1D_prefetch_useful 2013441
Core_0_L1D_prefetch_useless 177788
Core_0_L1D_prefetch_late 146623
Core_0_L1D_prefetch_fill 2044643
Core_0_L1D_prefetch_too_early 0
Core_0_L1D_prefetch_too_early_among_fill 0
Core_0_L1D_prefetch_too_early_among_useless 0
Core_0_L1D_prefetch_pollution_evict 0
Core_0_L1D_prefetch_pollution_demand 0
Core_0_L1D_prefetch_pollution_among_prefetch_fill 0
Core_0_L1D_prefetch_accuracy 0.223959
Core_0_L1D_prefetch_coverage 0.603061

Core_0_L2C_total_access 5698109
Core_0_L2C_total_hit 1948278
Core_0_L2C_total_miss 3749831
Core_0_L2C_total_MPKI 37.4983
Core_0_L2C_total_miss_rate 0.658083
Core_0_L2C_demand_access 437659
Core_0_L2C_demand_hit 147114
Core_0_L2C_demand_miss 290545
Core_0_L2C_demand_MPKI 2.90545
Core_0_L2C_demand_miss_rate 0.663862
Core_0_L2C_load_access 437659
Core_0_L2C_load_hit 147114
Core_0_L2C_load_miss 290545
Core_0_L2C_load_MPKI 2.90545
Core_0_L2C_load_miss_rate 0.663862
Core_0_L2C_rfo_access 0
Core_0_L2C_rfo_hit 0
Core_0_L2C_rfo_miss 0
Core_0_L2C_rfo_MPKI 0
Core_0_L2C_rfo_miss_rate 0
Core_0_L2C_prefetch_access 4342390
Core_0_L2C_prefetch_hit 883104
Core_0_L2C_prefetch_miss 3459286
Core_0_L2C_prefetch_MPKI 34.5929
Core_0_L2C_prefetch_miss_rate 0.796632
Core_0_L2C_writeback_access 918060
Core_0_L2C_writeback_hit 918060
Core_0_L2C_writeback_miss 0
Core_0_L2C_writeback_MPKI 0
Core_0_L2C_writeback_miss_rate 0
Core_0_L2C_prefetch_requested 1549147
Core_0_L2C_prefetch_issued 1548176
Core_0_L2C_prefetch_useful 609513
Core_0_L2C_prefetch_useless 81842
Core_0_L2C_prefetch_late 4978
Core_0_L2C_prefetch_fill 2358788
Core_0_L2C_prefetch_too_early 2666
Core_0_L2C_prefetch_too_early_among_fill 0.00113024
Core_0_L2C_prefetch_too_early_among_useless 0.032575
Core_0_L2C_prefetch_pollution_evict 1135
Core_0_L2C_prefetch_pollution_demand 1133
Core_0_L2C_prefetch_pollution_among_prefetch_fill 0.000481179
Core_0_L2C_prefetch_accuracy 0.393697
Core_0_L2C_prefetch_coverage 0.677193

Core_0_LLC_total_access 3858484
Core_0_LLC_total_hit 819672
Core_0_LLC_total_miss 3038812
Core_0_LLC_total_MPKI 30.3881
Core_0_LLC_total_miss_rate 0.787566
Core_0_LLC_demand_access 277090
Core_0_LLC_demand_hit 22057
Core_0_LLC_demand_miss 255033
Core_0_LLC_demand_MPKI 2.55033
Core_0_LLC_demand_miss_rate 0.920398
Core_0_LLC_load_access 277090
Core_0_LLC_load_hit 22057
Core_0_LLC_load_miss 255033
Core_0_LLC_load_MPKI 2.55033
Core_0_LLC_load_miss_rate 0.920398
Core_0_LLC_rfo_access 0
Core_0_LLC_rfo_hit 0
Core_0_LLC_rfo_miss 0
Core_0_LLC_rfo_MPKI 0
Core_0_LLC_rfo_miss_rate 0
Core_0_LLC_prefetch_access 2663120
Core_0_LLC_prefetch_hit 185821
Core_0_LLC_prefetch_miss 2477299
Core_0_LLC_prefetch_MPKI 24.773
Core_0_LLC_prefetch_miss_rate 0.930224
Core_0_LLC_writeback_access 918274
Core_0_LLC_writeback_hit 611794
Core_0_LLC_writeback_miss 306480
Core_0_LLC_writeback_MPKI 3.0648
Core_0_LLC_writeback_miss_rate 0.333757
Core_0_LLC_prefetch_requested 0
Core_0_LLC_prefetch_issued 0
Core_0_LLC_prefetch_useful 0
Core_0_LLC_prefetch_useless 0
Core_0_LLC_prefetch_late 0
Core_0_LLC_prefetch_fill 2361022
Core_0_LLC_prefetch_too_early 0
Core_0_LLC_prefetch_too_early_among_fill 0
Core_0_LLC_prefetch_too_early_among_useless 0
Core_0_LLC_prefetch_pollution_evict 41319
Core_0_LLC_prefetch_pollution_demand 41319
Core_0_LLC_prefetch_pollution_among_prefetch_fill 0.0175005
Core_0_LLC_prefetch_accuracy 0
Core_0_LLC_prefetch_coverage 0

[DRAM Statistics]
Channel_0_RQ_row_buffer_hit 64104
Channel_0_RQ_row_buffer_miss 2556251
Channel_0_WQ_row_buffer_hit 111879
Channel_0_WQ_row_buffer_miss 821113
Channel_0_WQ_full 0
Channel_0_dbus_congested 10228029
DRAM_total_RQ_row_buffer_hit 64104
DRAM_total_RQ_row_buffer_miss 2556251
DRAM_total_WQ_row_buffer_hit 111879
DRAM_total_WQ_row_buffer_miss 821113
DRAM_total_WQ_full 0
DRAM_total_dbus_congested 10228029
DRAM_avg_congested_cycle 5.86899

====== DRAM_RQ_TRAFFIC ========
DRAM_RQ_READ_TRAFFIC_BREAKDOWN:
data_demand_read.count = 254662
data_demand_read.share = 9.72%

inst_demand_read.count = 0
inst_demand_read.share = 0.00%

cache_inst_prefetch.count = 0
cache_inst_prefetch.share = 0.00%

cache_data_prefetch.count = 2361393
cache_data_prefetch.share = 90.12%

stlb_data_demand.count = 826
stlb_data_demand.share = 0.03%

stlb_inst_demand.count = 0
stlb_inst_demand.share = 0.00%

stlb_l1i_pref.count = 0
stlb_l1i_pref.share = 0.00%

stlb_l1d_pref.count = 3474
stlb_l1d_pref.share = 0.13%

DRAM_RQ_READ_TRAFFIC_SUMMARY:
cache_demand.count = 254662
cache_demand.share = 9.72%

cache_prefetch.count = 2361393
cache_prefetch.share = 90.12%

stlb_demand.count = 826
stlb_demand.share = 0.03%

stlb_prefetch.count = 3474
stlb_prefetch.share = 0.13%

DRAM_RQ_READ_TRAFFIC_DEBUG:
total_classified_read.count = 2620355
unclassified_read.count = 0
total_read_with_other.count = 2620355

classified_plus_unclassified_check.count = 2620355
dram_rq_read_total_observed.count = 2620355
dram_rq_read_total_observed.per_1K_instructions = 26.2035

STLB_MISS_PTW_DRAM_TOUCH_BREAKDOWN:
stlb_miss_total.count = 31558

stlb_miss_touch_dram.count = 4233
stlb_miss_touch_dram.share = 13.41%

stlb_miss_no_dram_touch.count = 27325
stlb_miss_no_dram_touch.share = 86.59%

STLB_MISS_PTW_DRAM_TOUCH_DEBUG:
stlb_miss_touch_plus_no_touch.count = 31558
stlb_miss_total_check.count = 31558

======STLB miss causes ========
Core_0_STLB_miss_cause_breakdown
Core_0_STLB_cause_Demand_Data_miss 4036
Core_0_STLB_cause_Demand_Data_miss_rate 0.0950117
Core_0_STLB_cause_Demand_Instruction_miss 0
Core_0_STLB_cause_Demand_Instruction_miss_rate 0
Core_0_STLB_cause_L1D_Prefetch_miss 27525
Core_0_STLB_cause_L1D_Prefetch_miss_rate 0.647967
Core_0_STLB_cause_L1D_Prefetch_Same_Page_miss 0
Core_0_STLB_cause_L1D_Prefetch_Same_Page_miss_rate 0
Core_0_STLB_cause_L1D_Prefetch_Cross_Page_miss 27525
Core_0_STLB_cause_L1D_Prefetch_Cross_Page_miss_rate 0.647967
Core_0_STLB_cause_L1I_Prefetch_miss 0
Core_0_STLB_cause_L1I_Prefetch_miss_rate 0
Core_0_STLB_cause_Other_miss 0
Core_0_STLB_cause_Other_miss_rate 0
Core_0_STLB_Demand_miss 4036
Core_0_STLB_Demand_miss_rate 0.0950117
Core_0_STLB_L1D_Prefetch_miss 27525
Core_0_STLB_L1D_Prefetch_miss_rate 0.647967
Core_0_STLB_Other_miss 0
Core_0_STLB_Other_miss_rate 0

========== vBerti-TLB Cross-page Flow Stats ==========

Core_0_vBerti_Requested 89599892
Core_0_vBerti_Cross_page_prefetch_in_Requested 6935700
Core_0_vBerti_Same_page_prefetch_in_Requested 82664192
Core_0_vBerti_Cross_page_prefetch_of_Requested 0.0774075
Core_0_vBerti_Issued 8990219
Core_0_vBerti_PQ_Drop_Rate 0.899663
Core_0_vBerti_InPQ_Cross_page_prefetch_of_Requested 0.00530276
Core_0_vBerti_Cross_page_PQ_Drop_rate 0.931495
Core_0_vBerti_Cross_page_prefetch_of_Issued 0.0528493

========= DTLB_vBerti Prefetch Stats =========
Core_0_DTLB_demand_access 23521097
Core_0_DTLB_demand_hit 23499558
Core_0_DTLB_demand_miss 21539
Core_0_DTLB_demand_mshr_merge 15812
Core_0_DTLB_demand_fill 8325
Core_0_DTLB_demand_miss_rate 0.000915731
Core_0_DTLB_demand_mpki 0.21539
Core_0_DTLB_vberti_prefetch_access 7374186
Core_0_DTLB_vberti_prefetch_hit 7291376
Core_0_DTLB_vberti_prefetch_miss 82810
Core_0_DTLB_vberti_prefetch_mshr_merge 46058
Core_0_DTLB_vberti_prefetch_fill 34151
Core_0_DTLB_vberti_prefetch_miss_rate 0.0112297
Core_0_DTLB_vberti_prefetch_mpki 0.8281

=== DTLB_vBerti Same/Cross-page Prefetch Stats ===
Core_0_DTLB_vberti_same_page_prefetch 6964765
Core_0_DTLB_vberti_same_page_prefetch_hit 6964765
Core_0_DTLB_vberti_same_page_prefetch_miss 0
Core_0_DTLB_vberti_same_page_prefetch_mshr_merge 0
Core_0_DTLB_vberti_same_page_prefetch_fill 0
Core_0_DTLB_vberti_same_page_prefetch_miss_rate 0
Core_0_DTLB_vberti_same_page_prefetch_mpki 0
Core_0_DTLB_vberti_cross_page_prefetch 409421
Core_0_DTLB_vberti_cross_page_prefetch_hit 326611
Core_0_DTLB_vberti_cross_page_prefetch_miss 82810
Core_0_DTLB_vberti_cross_page_prefetch_mshr_merge 46058
Core_0_DTLB_vberti_cross_page_prefetch_fill 34151
Core_0_DTLB_vberti_cross_page_prefetch_miss_rate 0.202261
Core_0_DTLB_vberti_cross_page_prefetch_mpki 0.8281
Core_0_DTLB_same_page_prefetch_miss_rate 0
Core_0_DTLB_same_page_prefetch_mpki 0
Core_0_DTLB_cross_page_prefetch_miss_rate 0.202261
Core_0_DTLB_cross_page_prefetch_mpki 0.8281
Core_0_DTLB_cross_page_prefetch_issued 409421
Core_0_DTLB_cross_page_prefetch_lookups 409421
Core_0_DTLB_cross_page_prefetch_useful 36295
Core_0_DTLB_cross_page_prefetch_useless 457
Core_0_DTLB_cross_page_prefetch_late 2601
Core_0_DTLB_cross_page_prefetch_too_early 178
Core_0_DTLB_cross_page_prefetch_too_early_among_fill 0.00521215
Core_0_DTLB_cross_page_prefetch_too_early_among_useless 0.389497
Core_0_DTLB_cross_page_prefetch_pollution_evict 89
Core_0_DTLB_cross_page_prefetch_pollution_demand 0
Core_0_DTLB_cross_page_prefetch_pollution_among_prefetch_fill 0.00260607
Core_0_DTLB_cross_page_prefetch_accuracy 0.0886496
Core_0_DTLB_cross_page_prefetch_coverage 0.627572

========= STLB_vBerti Prefetch Stats =========
Core_0_STLB_demand_access 5727
Core_0_STLB_demand_hit 1691
Core_0_STLB_demand_miss 4036
Core_0_STLB_demand_mshr_merge 0
Core_0_STLB_demand_fill 4035
Core_0_STLB_demand_miss_rate 0.704732
Core_0_STLB_demand_mpki 0.04036
Core_0_STLB_vberti_prefetch_access 36752
Core_0_STLB_vberti_prefetch_hit 9227
Core_0_STLB_vberti_prefetch_miss 27525
Core_0_STLB_vberti_prefetch_mshr_merge 0
Core_0_STLB_vberti_prefetch_fill 27523
Core_0_STLB_vberti_prefetch_miss_rate 0.748939
Core_0_STLB_vberti_prefetch_mpki 0.27525

=== STLB_vBerti Same/Cross-page Prefetch Stats ===
Core_0_STLB_vberti_same_page_prefetch 0
Core_0_STLB_vberti_same_page_prefetch_hit 0
Core_0_STLB_vberti_same_page_prefetch_miss 0
Core_0_STLB_vberti_same_page_prefetch_mshr_merge 0
Core_0_STLB_vberti_same_page_prefetch_fill 0
Core_0_STLB_vberti_same_page_prefetch_miss_rate 0
Core_0_STLB_vberti_same_page_prefetch_mpki 0
Core_0_STLB_vberti_cross_page_prefetch 36752
Core_0_STLB_vberti_cross_page_prefetch_hit 9227
Core_0_STLB_vberti_cross_page_prefetch_miss 27525
Core_0_STLB_vberti_cross_page_prefetch_mshr_merge 0
Core_0_STLB_vberti_cross_page_prefetch_fill 27523
Core_0_STLB_vberti_cross_page_prefetch_miss_rate 0.748939
Core_0_STLB_vberti_cross_page_prefetch_mpki 0.27525
Core_0_STLB_same_page_prefetch_miss_rate 0
Core_0_STLB_same_page_prefetch_mpki 0
Core_0_STLB_cross_page_prefetch_miss_rate 0.748939
Core_0_STLB_cross_page_prefetch_mpki 0.27525
Core_0_STLB_cross_page_prefetch_issued 36752
Core_0_STLB_cross_page_prefetch_lookups 36752
Core_0_STLB_cross_page_prefetch_useful 873
Core_0_STLB_cross_page_prefetch_useless 26652
Core_0_STLB_cross_page_prefetch_late 0
Core_0_STLB_cross_page_prefetch_too_early 0
Core_0_STLB_cross_page_prefetch_too_early_among_fill 0
Core_0_STLB_cross_page_prefetch_too_early_among_useless 0
Core_0_STLB_cross_page_prefetch_pollution_evict 0
Core_0_STLB_cross_page_prefetch_pollution_demand 0
Core_0_STLB_cross_page_prefetch_pollution_among_prefetch_fill 0
Core_0_STLB_cross_page_prefetch_accuracy 0.0237538
Core_0_STLB_cross_page_prefetch_coverage 0.177837

========= STLB Cross-page Prefetch Buffer Stats =========
Core_0_STLB_raw_demand_miss 4036
Core_0_CP_PB_insert 0
Core_0_CP_PB_demand_hit 0
Core_0_STLB_PB_demand_miss 4036
Core_0_CP_PB_coverage 0
Core_0_STLB_raw_demand_mpki 0.04036
Core_0_STLB_PB_demand_mpki 0.04036
Core_0_CP_PB_demand_hit_mpki 0

Core_0_TLB_demand_miss_rate 0.000171591
Core_0_TLB_demand_mpki 0.04036
Core_0_TLB_same_page_prefetch_miss_rate 0
Core_0_TLB_same_page_prefetch_mpki 0
Core_0_TLB_cross_page_prefetch_miss_rate 0.0672291
Core_0_TLB_cross_page_prefetch_mpki 0.27525
Core_0_TLB_cross_page_prefetch_issued 409421
Core_0_TLB_cross_page_prefetch_lookups 409421
Core_0_TLB_cross_page_prefetch_useful 29980
Core_0_TLB_cross_page_prefetch_useless 456
Core_0_TLB_cross_page_prefetch_late 2574
Core_0_TLB_cross_page_prefetch_too_early 178
Core_0_TLB_cross_page_prefetch_too_early_among_fill 0.00288614
Core_0_TLB_cross_page_prefetch_too_early_among_useless 0.390351
Core_0_TLB_cross_page_prefetch_accuracy 0.0732254
Core_0_TLB_cross_page_prefetch_coverage 0.88135
BERTI TO_L1: 101137110 TO_L2: 23660196 TO_L2_BC_MSHR: 4043808
BERTI AVG_LAT: 198.251 NUM_TRACK_LATENCY: 3871853 NUM_CANT_TRACK_LATENCY: 0
BERTI CROSS_PAGE 10369095 NO_CROSS_PAGE: 114428211
BERTI FOUND_BERTI: 21015031 NO_FOUND_BERTI: 12788685
BERTI AVERAGE_ISSUED: 1.72798
