[VMEM] WARNING: physical memory size is smaller than virtual memory size.

*** ChampSim Multicore Out-of-Order Simulator ***
Warmup Instructions: 50000000
Simulation Instructions: 100000000
Number of CPUs: 1
Page size: 4096
Core 0: /data0/tzh/champsim_traces/SPEC06/473.astar-359B.champsimtrace.xz
VBerti Prefetcher
BERTI HASH ENTANGLING
BERTI IP MASK ffff
Off-chip DRAM Size: 16 GiB Channels: 1 Width: 64-bit Data Rate: 3205 MT/s
Warmup halting CPU 0 at instruction 50000004 cycle 13775545 for remainder of phase
Warmup finished CPU 0 instructions: 50000004 cycles: 13775545 cumulative IPC: 3.63 (Simulation time: 00 hr 03 min 39 sec)
Warmup complete CPU 0 instructions: 50000004 cycles: 13775545 cumulative IPC: 3.63 (Simulation time: 00 hr 03 min 39 sec)
Simulation finished CPU 0 instructions: 100000002 cycles: 515557167 cumulative IPC: 0.194 (Simulation time: 00 hr 58 min 27 sec)
Simulation complete CPU 0 instructions: 100000002 cycles: 515557167 cumulative IPC: 0.194 (Simulation time: 00 hr 58 min 27 sec)

ChampSim completed all CPUs

=== Simulation ===
CPU 0 runs /data0/tzh/champsim_traces/SPEC06/473.astar-359B.champsimtrace.xz

Region of Interest Statistics

CPU 0 cumulative IPC: 0.194 instructions: 100000002 cycles: 515557167
CPU 0 Branch Prediction Accuracy: 93.38% MPKI: 12.98 Average ROB Occupancy at Mispredict: 45.73
Branch type MPKI
BRANCH_DIRECT_JUMP: 4e-05
BRANCH_INDIRECT: 0
BRANCH_CONDITIONAL: 12.98
BRANCH_DIRECT_CALL: 0
BRANCH_INDIRECT_CALL: 0.00021
BRANCH_RETURN: 0

cpu0->cpu0_STLB TOTAL        ACCESS:    3379708 HIT:    1656767 MISS:    1722941 MSHR_MERGE:          0
cpu0->cpu0_STLB LOAD         ACCESS:    3379708 HIT:    1656767 MISS:    1722941 MSHR_MERGE:          0
cpu0->cpu0_STLB RFO          ACCESS:          0 HIT:          0 MISS:          0 MSHR_MERGE:          0
cpu0->cpu0_STLB PREFETCH     ACCESS:          0 HIT:          0 MISS:          0 MSHR_MERGE:          0
cpu0->cpu0_STLB WRITE        ACCESS:          0 HIT:          0 MISS:          0 MSHR_MERGE:          0
cpu0->cpu0_STLB TRANSLATION  ACCESS:          0 HIT:          0 MISS:          0 MSHR_MERGE:          0
cpu0->cpu0_STLB PREFETCH REQUESTED:          0 ISSUED:          0 USEFUL:          0 USELESS:          0 LATE:          0 TOO_EARLY:          0
cpu0->cpu0_STLB AVERAGE MISS LATENCY: 195.6 cycles
cpu0->cpu0_L2C TOTAL        ACCESS:   13003508 HIT:    8485060 MISS:    4518448 MSHR_MERGE:     237051
cpu0->cpu0_L2C LOAD         ACCESS:    3283636 HIT:    1379177 MISS:    1904459 MSHR_MERGE:      45537
cpu0->cpu0_L2C RFO          ACCESS:    1752579 HIT:      18229 MISS:    1734350 MSHR_MERGE:       1303
cpu0->cpu0_L2C PREFETCH     ACCESS:    4473535 HIT:    3960117 MISS:     513418 MSHR_MERGE:     190211
cpu0->cpu0_L2C WRITE        ACCESS:    2609392 HIT:    2609172 MISS:        220 MSHR_MERGE:          0
cpu0->cpu0_L2C TRANSLATION  ACCESS:     884366 HIT:     518365 MISS:     366001 MSHR_MERGE:          0
cpu0->cpu0_L2C PREFETCH REQUESTED:    1456325 ISSUED:    1456233 USEFUL:     137031 USELESS:      12550 LATE:      42197 TOO_EARLY:       7423
cpu0->cpu0_L2C AVERAGE MISS LATENCY: 360.2 cycles
cpu0->cpu0_L1I TOTAL        ACCESS:    1798490 HIT:    1798474 MISS:         16 MSHR_MERGE:          0
cpu0->cpu0_L1I LOAD         ACCESS:    1798490 HIT:    1798474 MISS:         16 MSHR_MERGE:          0
cpu0->cpu0_L1I RFO          ACCESS:          0 HIT:          0 MISS:          0 MSHR_MERGE:          0
cpu0->cpu0_L1I PREFETCH     ACCESS:          0 HIT:          0 MISS:          0 MSHR_MERGE:          0
cpu0->cpu0_L1I WRITE        ACCESS:          0 HIT:          0 MISS:          0 MSHR_MERGE:          0
cpu0->cpu0_L1I TRANSLATION  ACCESS:          0 HIT:          0 MISS:          0 MSHR_MERGE:          0
cpu0->cpu0_L1I PREFETCH REQUESTED:          0 ISSUED:          0 USEFUL:          0 USELESS:          0 LATE:          0 TOO_EARLY:          0
cpu0->cpu0_L1I AVERAGE MISS LATENCY: 228.3 cycles
cpu0->cpu0_L1D TOTAL        ACCESS:   51766269 HIT:   41296863 MISS:   10469406 MSHR_MERGE:    1500615
cpu0->cpu0_L1D LOAD         ACCESS:   26797868 HIT:   22265970 MISS:    4531898 MSHR_MERGE:    1248276
cpu0->cpu0_L1D RFO          ACCESS:          0 HIT:          0 MISS:          0 MSHR_MERGE:          0
cpu0->cpu0_L1D PREFETCH     ACCESS:    9166439 HIT:    6067587 MISS:    3098852 MSHR_MERGE:      50628
cpu0->cpu0_L1D WRITE        ACCESS:   12675560 HIT:   10922804 MISS:    1752756 MSHR_MERGE:        177
cpu0->cpu0_L1D TRANSLATION  ACCESS:    3126402 HIT:    2040502 MISS:    1085900 MSHR_MERGE:     201534
cpu0->cpu0_L1D PREFETCH REQUESTED:  121177713 ISSUED:    9166431 USEFUL:     157919 USELESS:      27982 LATE:       8492 TOO_EARLY:        219
cpu0->cpu0_L1D AVERAGE MISS LATENCY: 252.7 cycles
cpu0->cpu0_ITLB TOTAL        ACCESS:    1798173 HIT:    1798173 MISS:          0 MSHR_MERGE:          0
cpu0->cpu0_ITLB LOAD         ACCESS:    1798173 HIT:    1798173 MISS:          0 MSHR_MERGE:          0
cpu0->cpu0_ITLB RFO          ACCESS:          0 HIT:          0 MISS:          0 MSHR_MERGE:          0
cpu0->cpu0_ITLB PREFETCH     ACCESS:          0 HIT:          0 MISS:          0 MSHR_MERGE:          0
cpu0->cpu0_ITLB WRITE        ACCESS:          0 HIT:          0 MISS:          0 MSHR_MERGE:          0
cpu0->cpu0_ITLB TRANSLATION  ACCESS:          0 HIT:          0 MISS:          0 MSHR_MERGE:          0
cpu0->cpu0_ITLB PREFETCH REQUESTED:          0 ISSUED:          0 USEFUL:          0 USELESS:          0 LATE:          0 TOO_EARLY:          0
cpu0->cpu0_ITLB AVERAGE MISS LATENCY: - cycles
cpu0->cpu0_DTLB TOTAL        ACCESS:   44439275 HIT:   39684386 MISS:    4754889 MSHR_MERGE:    1375181
cpu0->cpu0_DTLB LOAD         ACCESS:   44439275 HIT:   39684386 MISS:    4754889 MSHR_MERGE:    1375181
cpu0->cpu0_DTLB RFO          ACCESS:          0 HIT:          0 MISS:          0 MSHR_MERGE:          0
cpu0->cpu0_DTLB PREFETCH     ACCESS:          0 HIT:          0 MISS:          0 MSHR_MERGE:          0
cpu0->cpu0_DTLB WRITE        ACCESS:          0 HIT:          0 MISS:          0 MSHR_MERGE:          0
cpu0->cpu0_DTLB TRANSLATION  ACCESS:          0 HIT:          0 MISS:          0 MSHR_MERGE:          0
cpu0->cpu0_DTLB PREFETCH REQUESTED:          0 ISSUED:          0 USEFUL:          0 USELESS:          0 LATE:          0 TOO_EARLY:          0
cpu0->cpu0_DTLB AVERAGE MISS LATENCY: 105.3 cycles
cpu0->LLC TOTAL        ACCESS:    6802656 HIT:    1276588 MISS:    5526068 MSHR_MERGE:      45333
cpu0->LLC LOAD         ACCESS:    1858922 HIT:     100017 MISS:    1758905 MSHR_MERGE:       4044
cpu0->LLC RFO          ACCESS:    1733047 HIT:     224894 MISS:    1508153 MSHR_MERGE:          0
cpu0->LLC PREFETCH     ACCESS:     323138 HIT:      47308 MISS:     275830 MSHR_MERGE:      41289
cpu0->LLC WRITE        ACCESS:    2521548 HIT:     663467 MISS:    1858081 MSHR_MERGE:          0
cpu0->LLC TRANSLATION  ACCESS:     366001 HIT:     240902 MISS:     125099 MSHR_MERGE:          0
cpu0->LLC PREFETCH REQUESTED:          0 ISSUED:          0 USEFUL:          0 USELESS:          0 LATE:          0 TOO_EARLY:          0
cpu0->LLC AVERAGE MISS LATENCY: 262.1 cycles

DRAM Statistics

Channel 0 RQ ROW_BUFFER_HIT:     156527
  ROW_BUFFER_MISS:    3465486
  AVG DBUS CONGESTED CYCLE: 15.13
Channel 0 WQ ROW_BUFFER_HIT:     443238
  ROW_BUFFER_MISS:    1780620
  FULL:       3117
Channel 0 REFRESHES ISSUED:      42964

[ROI Statistics]
[System Configuration]
num_cpus 1
cpu_freq 4000
fetch_width 6
decode_width 6
dispatch_width 6
execute_width 6
lq_width 2
sq_width 2
retire_width 6
scheduler_size 128
branch_mispredict_penalty 15
rob_size 352
lq_size 128
sq_size 72
ifetch_buffer_size 64
decode_buffer_size 32
dispatch_buffer_size 32
register_file_size 288
decode_latency 1
dispatch_latency 1
schedule_latency 1
execute_latency 1
page_size 4096
block_size 64
core_0_itlb_set 16
core_0_itlb_way 4
core_0_itlb_rq_size 16
core_0_itlb_wq_size 16
core_0_itlb_pq_size 0
core_0_itlb_mshr_size 8
core_0_itlb_hit_latency 1
core_0_itlb_fill_latency 1
core_0_itlb_max_tag_check 2
core_0_itlb_max_fill 2
core_0_dtlb_set 16
core_0_dtlb_way 4
core_0_dtlb_rq_size 16
core_0_dtlb_wq_size 16
core_0_dtlb_pq_size 0
core_0_dtlb_mshr_size 8
core_0_dtlb_hit_latency 1
core_0_dtlb_fill_latency 1
core_0_dtlb_max_tag_check 2
core_0_dtlb_max_fill 2
core_0_stlb_set 128
core_0_stlb_way 12
core_0_stlb_rq_size 32
core_0_stlb_wq_size 32
core_0_stlb_pq_size 0
core_0_stlb_mshr_size 16
core_0_stlb_hit_latency 4
core_0_stlb_fill_latency 4
core_0_stlb_max_tag_check 1
core_0_stlb_max_fill 1
core_0_l1i_set 64
core_0_l1i_way 8
core_0_l1i_rq_size 64
core_0_l1i_wq_size 64
core_0_l1i_pq_size 32
core_0_l1i_mshr_size 8
core_0_l1i_hit_latency 2
core_0_l1i_fill_latency 2
core_0_l1i_max_tag_check 2
core_0_l1i_max_fill 2
core_0_l1d_set 64
core_0_l1d_way 12
core_0_l1d_rq_size 64
core_0_l1d_wq_size 64
core_0_l1d_pq_size 8
core_0_l1d_mshr_size 16
core_0_l1d_hit_latency 2
core_0_l1d_fill_latency 3
core_0_l1d_max_tag_check 2
core_0_l1d_max_fill 2
core_0_l2c_set 1024
core_0_l2c_way 8
core_0_l2c_rq_size 32
core_0_l2c_wq_size 32
core_0_l2c_pq_size 16
core_0_l2c_mshr_size 32
core_0_l2c_hit_latency 5
core_0_l2c_fill_latency 5
core_0_l2c_max_tag_check 1
core_0_l2c_max_fill 1
llc_set 2048
llc_way 16
llc_rq_size 32
llc_wq_size 32
llc_pq_size 32
llc_mshr_size 64
llc_hit_latency 10
llc_fill_latency 10
llc_max_tag_check 1
llc_max_fill 1
dram_channels 1
dram_ranks 1
dram_bankgroups 8
dram_banks 4
dram_rows 65536
dram_columns 1024
dram_channel_width 8
dram_rq_size 64
dram_wq_size 64
dram_size 17179869184
core_0_itlb_prefetcher no
core_0_dtlb_prefetcher no
core_0_stlb_prefetcher no
core_0_l1i_prefetcher next_line
core_0_l1d_prefetcher vberti
core_0_l2c_prefetcher ip_stride
llc_prefetcher no
llc_replacement drrip

Core_0_instructions 100000002
Core_0_cycles 515557167
Core_0_IPC 0.193965
Core_0_branch_prediction_accuracy 93.3752
Core_0_branch_MPKI 12.9841
Core_0_average_ROB_occupancy_at_mispredict 45.7344

Core_0_ITLB_total_access 1798173
Core_0_ITLB_total_hit 1798173
Core_0_ITLB_total_miss 0
Core_0_ITLB_total_MPKI 0
Core_0_ITLB_total_miss_rate 0
Core_0_ITLB_demand_access 1798173
Core_0_ITLB_demand_hit 1798173
Core_0_ITLB_demand_miss 0
Core_0_ITLB_demand_MPKI 0
Core_0_ITLB_demand_miss_rate 0
Core_0_ITLB_load_access 1798173
Core_0_ITLB_load_hit 1798173
Core_0_ITLB_load_miss 0
Core_0_ITLB_load_MPKI 0
Core_0_ITLB_load_miss_rate 0
Core_0_ITLB_rfo_access 0
Core_0_ITLB_rfo_hit 0
Core_0_ITLB_rfo_miss 0
Core_0_ITLB_rfo_MPKI 0
Core_0_ITLB_rfo_miss_rate 0
Core_0_ITLB_prefetch_access 0
Core_0_ITLB_prefetch_hit 0
Core_0_ITLB_prefetch_miss 0
Core_0_ITLB_prefetch_MPKI 0
Core_0_ITLB_prefetch_miss_rate 0
Core_0_ITLB_writeback_access 0
Core_0_ITLB_writeback_hit 0
Core_0_ITLB_writeback_miss 0
Core_0_ITLB_writeback_MPKI 0
Core_0_ITLB_writeback_miss_rate 0
Core_0_ITLB_prefetch_requested 0
Core_0_ITLB_prefetch_issued 0
Core_0_ITLB_prefetch_useful 0
Core_0_ITLB_prefetch_useless 0
Core_0_ITLB_prefetch_late 0
Core_0_ITLB_prefetch_fill 0
Core_0_ITLB_prefetch_too_early 0
Core_0_ITLB_prefetch_too_early_among_fill 0
Core_0_ITLB_prefetch_too_early_among_useless 0
Core_0_ITLB_prefetch_pollution_evict 0
Core_0_ITLB_prefetch_pollution_demand 0
Core_0_ITLB_prefetch_pollution_among_prefetch_fill 0
Core_0_ITLB_prefetch_accuracy 0
Core_0_ITLB_prefetch_coverage 0

Core_0_DTLB_total_access 44439275
Core_0_DTLB_total_hit 39684386
Core_0_DTLB_total_miss 4754889
Core_0_DTLB_total_MPKI 47.5489
Core_0_DTLB_total_miss_rate 0.106997
Core_0_DTLB_demand_access 44439275
Core_0_DTLB_demand_hit 39684386
Core_0_DTLB_demand_miss 4754889
Core_0_DTLB_demand_MPKI 47.5489
Core_0_DTLB_demand_miss_rate 0.106997
Core_0_DTLB_load_access 44439275
Core_0_DTLB_load_hit 39684386
Core_0_DTLB_load_miss 4754889
Core_0_DTLB_load_MPKI 47.5489
Core_0_DTLB_load_miss_rate 0.106997
Core_0_DTLB_rfo_access 0
Core_0_DTLB_rfo_hit 0
Core_0_DTLB_rfo_miss 0
Core_0_DTLB_rfo_MPKI 0
Core_0_DTLB_rfo_miss_rate 0
Core_0_DTLB_prefetch_access 0
Core_0_DTLB_prefetch_hit 0
Core_0_DTLB_prefetch_miss 0
Core_0_DTLB_prefetch_MPKI 0
Core_0_DTLB_prefetch_miss_rate 0
Core_0_DTLB_writeback_access 0
Core_0_DTLB_writeback_hit 0
Core_0_DTLB_writeback_miss 0
Core_0_DTLB_writeback_MPKI 0
Core_0_DTLB_writeback_miss_rate 0
Core_0_DTLB_prefetch_requested 0
Core_0_DTLB_prefetch_issued 0
Core_0_DTLB_prefetch_useful 0
Core_0_DTLB_prefetch_useless 0
Core_0_DTLB_prefetch_late 0
Core_0_DTLB_prefetch_fill 0
Core_0_DTLB_prefetch_too_early 0
Core_0_DTLB_prefetch_too_early_among_fill 0
Core_0_DTLB_prefetch_too_early_among_useless 0
Core_0_DTLB_prefetch_pollution_evict 0
Core_0_DTLB_prefetch_pollution_demand 0
Core_0_DTLB_prefetch_pollution_among_prefetch_fill 0
Core_0_DTLB_prefetch_accuracy 0
Core_0_DTLB_prefetch_coverage 0

Core_0_STLB_total_access 3379708
Core_0_STLB_total_hit 1656767
Core_0_STLB_total_miss 1722941
Core_0_STLB_total_MPKI 17.2294
Core_0_STLB_total_miss_rate 0.50979
Core_0_STLB_demand_access 3379708
Core_0_STLB_demand_hit 1656767
Core_0_STLB_demand_miss 1722941
Core_0_STLB_demand_MPKI 17.2294
Core_0_STLB_demand_miss_rate 0.50979
Core_0_STLB_load_access 3379708
Core_0_STLB_load_hit 1656767
Core_0_STLB_load_miss 1722941
Core_0_STLB_load_MPKI 17.2294
Core_0_STLB_load_miss_rate 0.50979
Core_0_STLB_rfo_access 0
Core_0_STLB_rfo_hit 0
Core_0_STLB_rfo_miss 0
Core_0_STLB_rfo_MPKI 0
Core_0_STLB_rfo_miss_rate 0
Core_0_STLB_prefetch_access 0
Core_0_STLB_prefetch_hit 0
Core_0_STLB_prefetch_miss 0
Core_0_STLB_prefetch_MPKI 0
Core_0_STLB_prefetch_miss_rate 0
Core_0_STLB_writeback_access 0
Core_0_STLB_writeback_hit 0
Core_0_STLB_writeback_miss 0
Core_0_STLB_writeback_MPKI 0
Core_0_STLB_writeback_miss_rate 0
Core_0_STLB_prefetch_requested 0
Core_0_STLB_prefetch_issued 0
Core_0_STLB_prefetch_useful 0
Core_0_STLB_prefetch_useless 0
Core_0_STLB_prefetch_late 0
Core_0_STLB_prefetch_fill 0
Core_0_STLB_prefetch_too_early 0
Core_0_STLB_prefetch_too_early_among_fill 0
Core_0_STLB_prefetch_too_early_among_useless 0
Core_0_STLB_prefetch_pollution_evict 0
Core_0_STLB_prefetch_pollution_demand 0
Core_0_STLB_prefetch_pollution_among_prefetch_fill 0
Core_0_STLB_prefetch_accuracy 0
Core_0_STLB_prefetch_coverage 0

Core_0_L1I_total_access 1798490
Core_0_L1I_total_hit 1798474
Core_0_L1I_total_miss 16
Core_0_L1I_total_MPKI 0.00016
Core_0_L1I_total_miss_rate 8.89635e-06
Core_0_L1I_demand_access 1798490
Core_0_L1I_demand_hit 1798474
Core_0_L1I_demand_miss 16
Core_0_L1I_demand_MPKI 0.00016
Core_0_L1I_demand_miss_rate 8.89635e-06
Core_0_L1I_load_access 1798490
Core_0_L1I_load_hit 1798474
Core_0_L1I_load_miss 16
Core_0_L1I_load_MPKI 0.00016
Core_0_L1I_load_miss_rate 8.89635e-06
Core_0_L1I_rfo_access 0
Core_0_L1I_rfo_hit 0
Core_0_L1I_rfo_miss 0
Core_0_L1I_rfo_MPKI 0
Core_0_L1I_rfo_miss_rate 0
Core_0_L1I_prefetch_access 0
Core_0_L1I_prefetch_hit 0
Core_0_L1I_prefetch_miss 0
Core_0_L1I_prefetch_MPKI 0
Core_0_L1I_prefetch_miss_rate 0
Core_0_L1I_writeback_access 0
Core_0_L1I_writeback_hit 0
Core_0_L1I_writeback_miss 0
Core_0_L1I_writeback_MPKI 0
Core_0_L1I_writeback_miss_rate 0
Core_0_L1I_prefetch_requested 0
Core_0_L1I_prefetch_issued 0
Core_0_L1I_prefetch_useful 0
Core_0_L1I_prefetch_useless 0
Core_0_L1I_prefetch_late 0
Core_0_L1I_prefetch_fill 0
Core_0_L1I_prefetch_too_early 0
Core_0_L1I_prefetch_too_early_among_fill 0
Core_0_L1I_prefetch_too_early_among_useless 0
Core_0_L1I_prefetch_pollution_evict 0
Core_0_L1I_prefetch_pollution_demand 0
Core_0_L1I_prefetch_pollution_among_prefetch_fill 0
Core_0_L1I_prefetch_accuracy 0
Core_0_L1I_prefetch_coverage 0

Core_0_L1D_total_access 48639867
Core_0_L1D_total_hit 39256361
Core_0_L1D_total_miss 9383506
Core_0_L1D_total_MPKI 93.8351
Core_0_L1D_total_miss_rate 0.192918
Core_0_L1D_demand_access 26797868
Core_0_L1D_demand_hit 22265970
Core_0_L1D_demand_miss 4531898
Core_0_L1D_demand_MPKI 45.319
Core_0_L1D_demand_miss_rate 0.169114
Core_0_L1D_load_access 26797868
Core_0_L1D_load_hit 22265970
Core_0_L1D_load_miss 4531898
Core_0_L1D_load_MPKI 45.319
Core_0_L1D_load_miss_rate 0.169114
Core_0_L1D_rfo_access 0
Core_0_L1D_rfo_hit 0
Core_0_L1D_rfo_miss 0
Core_0_L1D_rfo_MPKI 0
Core_0_L1D_rfo_miss_rate 0
Core_0_L1D_prefetch_access 9166439
Core_0_L1D_prefetch_hit 6067587
Core_0_L1D_prefetch_miss 3098852
Core_0_L1D_prefetch_MPKI 30.9885
Core_0_L1D_prefetch_miss_rate 0.338065
Core_0_L1D_writeback_access 12675560
Core_0_L1D_writeback_hit 10922804
Core_0_L1D_writeback_miss 1752756
Core_0_L1D_writeback_MPKI 17.5276
Core_0_L1D_writeback_miss_rate 0.138278
Core_0_L1D_prefetch_requested 121177713
Core_0_L1D_prefetch_issued 9166431
Core_0_L1D_prefetch_useful 157919
Core_0_L1D_prefetch_useless 27982
Core_0_L1D_prefetch_late 8492
Core_0_L1D_prefetch_fill 177456
Core_0_L1D_prefetch_too_early 219
Core_0_L1D_prefetch_too_early_among_fill 0.00123411
Core_0_L1D_prefetch_too_early_among_useless 0.00782646
Core_0_L1D_prefetch_pollution_evict 56769
Core_0_L1D_prefetch_pollution_demand 56769
Core_0_L1D_prefetch_pollution_among_prefetch_fill 0.319905
Core_0_L1D_prefetch_accuracy 0.017228
Core_0_L1D_prefetch_coverage 0.0336727

Core_0_L2C_total_access 12119142
Core_0_L2C_total_hit 7966695
Core_0_L2C_total_miss 4152447
Core_0_L2C_total_MPKI 41.5245
Core_0_L2C_total_miss_rate 0.342635
Core_0_L2C_demand_access 5036215
Core_0_L2C_demand_hit 1397406
Core_0_L2C_demand_miss 3638809
Core_0_L2C_demand_MPKI 36.3881
Core_0_L2C_demand_miss_rate 0.722529
Core_0_L2C_load_access 3283636
Core_0_L2C_load_hit 1379177
Core_0_L2C_load_miss 1904459
Core_0_L2C_load_MPKI 19.0446
Core_0_L2C_load_miss_rate 0.579985
Core_0_L2C_rfo_access 1752579
Core_0_L2C_rfo_hit 18229
Core_0_L2C_rfo_miss 1734350
Core_0_L2C_rfo_MPKI 17.3435
Core_0_L2C_rfo_miss_rate 0.989599
Core_0_L2C_prefetch_access 4473535
Core_0_L2C_prefetch_hit 3960117
Core_0_L2C_prefetch_miss 513418
Core_0_L2C_prefetch_MPKI 5.13418
Core_0_L2C_prefetch_miss_rate 0.114768
Core_0_L2C_writeback_access 2609392
Core_0_L2C_writeback_hit 2609172
Core_0_L2C_writeback_miss 220
Core_0_L2C_writeback_MPKI 0.0022
Core_0_L2C_writeback_miss_rate 8.43108e-05
Core_0_L2C_prefetch_requested 1456325
Core_0_L2C_prefetch_issued 1456233
Core_0_L2C_prefetch_useful 137031
Core_0_L2C_prefetch_useless 12550
Core_0_L2C_prefetch_late 42197
Core_0_L2C_prefetch_fill 186917
Core_0_L2C_prefetch_too_early 7423
Core_0_L2C_prefetch_too_early_among_fill 0.0397128
Core_0_L2C_prefetch_too_early_among_useless 0.591474
Core_0_L2C_prefetch_pollution_evict 140521
Core_0_L2C_prefetch_pollution_demand 140292
Core_0_L2C_prefetch_pollution_among_prefetch_fill 0.751783
Core_0_L2C_prefetch_accuracy 0.0940996
Core_0_L2C_prefetch_coverage 0.0362915

Core_0_LLC_total_access 6436655
Core_0_LLC_total_hit 1035686
Core_0_LLC_total_miss 5400969
Core_0_LLC_total_MPKI 54.0097
Core_0_LLC_total_miss_rate 0.839096
Core_0_LLC_demand_access 3591969
Core_0_LLC_demand_hit 324911
Core_0_LLC_demand_miss 3267058
Core_0_LLC_demand_MPKI 32.6706
Core_0_LLC_demand_miss_rate 0.909545
Core_0_LLC_load_access 1858922
Core_0_LLC_load_hit 100017
Core_0_LLC_load_miss 1758905
Core_0_LLC_load_MPKI 17.589
Core_0_LLC_load_miss_rate 0.946196
Core_0_LLC_rfo_access 1733047
Core_0_LLC_rfo_hit 224894
Core_0_LLC_rfo_miss 1508153
Core_0_LLC_rfo_MPKI 15.0815
Core_0_LLC_rfo_miss_rate 0.870232
Core_0_LLC_prefetch_access 323138
Core_0_LLC_prefetch_hit 47308
Core_0_LLC_prefetch_miss 275830
Core_0_LLC_prefetch_MPKI 2.7583
Core_0_LLC_prefetch_miss_rate 0.853598
Core_0_LLC_writeback_access 2521548
Core_0_LLC_writeback_hit 663467
Core_0_LLC_writeback_miss 1858081
Core_0_LLC_writeback_MPKI 18.5808
Core_0_LLC_writeback_miss_rate 0.736881
Core_0_LLC_prefetch_requested 0
Core_0_LLC_prefetch_issued 0
Core_0_LLC_prefetch_useful 0
Core_0_LLC_prefetch_useless 0
Core_0_LLC_prefetch_late 0
Core_0_LLC_prefetch_fill 230497
Core_0_LLC_prefetch_too_early 0
Core_0_LLC_prefetch_too_early_among_fill 0
Core_0_LLC_prefetch_too_early_among_useless 0
Core_0_LLC_prefetch_pollution_evict 134380
Core_0_LLC_prefetch_pollution_demand 134380
Core_0_LLC_prefetch_pollution_among_prefetch_fill 0.583001
Core_0_LLC_prefetch_accuracy 0
Core_0_LLC_prefetch_coverage 0

[DRAM Statistics]
Channel_0_RQ_row_buffer_hit 156527
Channel_0_RQ_row_buffer_miss 3465486
Channel_0_WQ_row_buffer_hit 443238
Channel_0_WQ_row_buffer_miss 1780620
Channel_0_WQ_full 3117
Channel_0_dbus_congested 25396095
DRAM_total_RQ_row_buffer_hit 156527
DRAM_total_RQ_row_buffer_miss 3465486
DRAM_total_WQ_row_buffer_hit 443238
DRAM_total_WQ_row_buffer_miss 1780620
DRAM_total_WQ_full 3117
DRAM_total_dbus_congested 25396095
DRAM_avg_congested_cycle 15.1309

====== DRAM_RQ_TRAFFIC ========
DRAM_RQ_READ_TRAFFIC_BREAKDOWN:
data_demand_read.count = 3262998
data_demand_read.share = 90.07%

inst_demand_read.count = 16
inst_demand_read.share = 0.00%

cache_inst_prefetch.count = 0
cache_inst_prefetch.share = 0.00%

cache_data_prefetch.count = 234541
cache_data_prefetch.share = 6.47%

stlb_data_demand.count = 123688
stlb_data_demand.share = 3.41%

stlb_inst_demand.count = 0
stlb_inst_demand.share = 0.00%

stlb_l1i_pref.count = 0
stlb_l1i_pref.share = 0.00%

stlb_l1d_pref.count = 1411
stlb_l1d_pref.share = 0.04%

DRAM_RQ_READ_TRAFFIC_SUMMARY:
cache_demand.count = 3263014
cache_demand.share = 90.07%

cache_prefetch.count = 234541
cache_prefetch.share = 6.47%

stlb_demand.count = 123688
stlb_demand.share = 3.41%

stlb_prefetch.count = 1411
stlb_prefetch.share = 0.04%

DRAM_RQ_READ_TRAFFIC_DEBUG:
total_classified_read.count = 3622654
unclassified_read.count = 0
total_read_with_other.count = 3622654

classified_plus_unclassified_check.count = 3622654
dram_rq_read_total_observed.count = 3622654
dram_rq_read_total_observed.per_1K_instructions = 36.2265

STLB_MISS_PTW_DRAM_TOUCH_BREAKDOWN:
stlb_miss_total.count = 1722941

stlb_miss_touch_dram.count = 151497
stlb_miss_touch_dram.share = 8.79%

stlb_miss_no_dram_touch.count = 1571444
stlb_miss_no_dram_touch.share = 91.21%

STLB_MISS_PTW_DRAM_TOUCH_DEBUG:
stlb_miss_touch_plus_no_touch.count = 1722941
stlb_miss_total_check.count = 1722941

======STLB miss causes ========
Core_0_STLB_miss_cause_breakdown
Core_0_STLB_cause_Demand_Data_miss 1705378
Core_0_STLB_cause_Demand_Data_miss_rate 0.504593
Core_0_STLB_cause_Demand_Instruction_miss 0
Core_0_STLB_cause_Demand_Instruction_miss_rate 0
Core_0_STLB_cause_L1D_Prefetch_miss 17563
Core_0_STLB_cause_L1D_Prefetch_miss_rate 0.0051966
Core_0_STLB_cause_L1D_Prefetch_Same_Page_miss 0
Core_0_STLB_cause_L1D_Prefetch_Same_Page_miss_rate 0
Core_0_STLB_cause_L1D_Prefetch_Cross_Page_miss 17563
Core_0_STLB_cause_L1D_Prefetch_Cross_Page_miss_rate 0.0051966
Core_0_STLB_cause_L1I_Prefetch_miss 0
Core_0_STLB_cause_L1I_Prefetch_miss_rate 0
Core_0_STLB_cause_Other_miss 0
Core_0_STLB_cause_Other_miss_rate 0
Core_0_STLB_Demand_miss 1705378
Core_0_STLB_Demand_miss_rate 0.504593
Core_0_STLB_L1D_Prefetch_miss 17563
Core_0_STLB_L1D_Prefetch_miss_rate 0.0051966
Core_0_STLB_Other_miss 0
Core_0_STLB_Other_miss_rate 0

========== vBerti-TLB Cross-page Flow Stats ==========

Core_0_vBerti_Requested 121177713
Core_0_vBerti_Cross_page_prefetch_in_Requested 44610605
Core_0_vBerti_Same_page_prefetch_in_Requested 76567108
Core_0_vBerti_Cross_page_prefetch_of_Requested 0.368142
Core_0_vBerti_Issued 9166431
Core_0_vBerti_InPQ_Same_page_prefetch 7933070
Core_0_vBerti_InPQ_Cross_page_prefetch 1233361
Core_0_vBerti_PQ_Drop_Rate 0.924355
Core_0_vBerti_InPQ_Cross_page_prefetch_of_Requested 0.0101781
Core_0_vBerti_Cross_page_PQ_Drop_rate 0.972353
Core_0_vBerti_Cross_page_prefetch_of_Issued 0.134552
Core_0_CP_PF_PQFULL_drop 43377244
Core_0_CP_PF_PQFULL_TLB_rescue_enqueued 0
Core_0_CP_PF_PQFULL_TLB_rescue_issued 0
Core_0_CP_PF_PQFULL_TLB_rescue_translated 0

========= DTLB_vBerti Prefetch Stats =========
Core_0_DTLB_demand_access 38175010
Core_0_DTLB_demand_hit 33466214
Core_0_DTLB_demand_miss 4708796
Core_0_DTLB_demand_mshr_merge 1360618
Core_0_DTLB_demand_fill 3349232
Core_0_DTLB_demand_miss_rate 0.123348
Core_0_DTLB_demand_mpki 47.088
Core_0_DTLB_vberti_prefetch_access 6264265
Core_0_DTLB_vberti_prefetch_hit 6218172
Core_0_DTLB_vberti_prefetch_miss 46093
Core_0_DTLB_vberti_prefetch_mshr_merge 14563
Core_0_DTLB_vberti_prefetch_fill 30476
Core_0_DTLB_vberti_prefetch_miss_rate 0.00735809
Core_0_DTLB_vberti_prefetch_mpki 0.46093

=== DTLB_vBerti Same/Cross-page Prefetch Stats ===
Core_0_DTLB_vberti_same_page_prefetch 5310233
Core_0_DTLB_vberti_same_page_prefetch_hit 5309209
Core_0_DTLB_vberti_same_page_prefetch_miss 1024
Core_0_DTLB_vberti_same_page_prefetch_mshr_merge 246
Core_0_DTLB_vberti_same_page_prefetch_fill 776
Core_0_DTLB_vberti_same_page_prefetch_miss_rate 0.000192835
Core_0_DTLB_vberti_same_page_prefetch_mpki 0.01024
Core_0_DTLB_vberti_cross_page_prefetch 954032
Core_0_DTLB_vberti_cross_page_prefetch_hit 908963
Core_0_DTLB_vberti_cross_page_prefetch_miss 45069
Core_0_DTLB_vberti_cross_page_prefetch_mshr_merge 14317
Core_0_DTLB_vberti_cross_page_prefetch_fill 29700
Core_0_DTLB_vberti_cross_page_prefetch_miss_rate 0.0472406
Core_0_DTLB_vberti_cross_page_prefetch_mpki 0.45069
Core_0_DTLB_same_page_prefetch_miss_rate 0.000192835
Core_0_DTLB_same_page_prefetch_mpki 0.01024
Core_0_DTLB_cross_page_prefetch_miss_rate 0.0472406
Core_0_DTLB_cross_page_prefetch_mpki 0.45069
Core_0_DTLB_cross_page_prefetch_issued 954032
Core_0_DTLB_cross_page_prefetch_lookups 954032
Core_0_DTLB_cross_page_prefetch_useful 11862
Core_0_DTLB_cross_page_prefetch_useless 18890
Core_0_DTLB_cross_page_prefetch_late 1052
Core_0_DTLB_cross_page_prefetch_too_early 3083
Core_0_DTLB_cross_page_prefetch_too_early_among_fill 0.103805
Core_0_DTLB_cross_page_prefetch_too_early_among_useless 0.163208
Core_0_DTLB_cross_page_prefetch_pollution_evict 11976
Core_0_DTLB_cross_page_prefetch_pollution_demand 11806
Core_0_DTLB_cross_page_prefetch_pollution_among_prefetch_fill 0.403232
Core_0_DTLB_cross_page_prefetch_accuracy 0.0124335
Core_0_DTLB_cross_page_prefetch_coverage 0.00251279

========= STLB_vBerti Prefetch Stats =========
Core_0_STLB_demand_access 3348178
Core_0_STLB_demand_hit 1642800
Core_0_STLB_demand_miss 1705378
Core_0_STLB_demand_mshr_merge 0
Core_0_STLB_demand_fill 1705378
Core_0_STLB_demand_miss_rate 0.509345
Core_0_STLB_demand_mpki 17.0538
Core_0_STLB_vberti_prefetch_access 31530
Core_0_STLB_vberti_prefetch_hit 13967
Core_0_STLB_vberti_prefetch_miss 17563
Core_0_STLB_vberti_prefetch_mshr_merge 0
Core_0_STLB_vberti_prefetch_fill 17563
Core_0_STLB_vberti_prefetch_miss_rate 0.557025
Core_0_STLB_vberti_prefetch_mpki 0.17563

=== STLB_vBerti Same/Cross-page Prefetch Stats ===
Core_0_STLB_vberti_same_page_prefetch 778
Core_0_STLB_vberti_same_page_prefetch_hit 778
Core_0_STLB_vberti_same_page_prefetch_miss 0
Core_0_STLB_vberti_same_page_prefetch_mshr_merge 0
Core_0_STLB_vberti_same_page_prefetch_fill 0
Core_0_STLB_vberti_same_page_prefetch_miss_rate 0
Core_0_STLB_vberti_same_page_prefetch_mpki 0
Core_0_STLB_vberti_cross_page_prefetch 30752
Core_0_STLB_vberti_cross_page_prefetch_hit 13189
Core_0_STLB_vberti_cross_page_prefetch_miss 17563
Core_0_STLB_vberti_cross_page_prefetch_mshr_merge 0
Core_0_STLB_vberti_cross_page_prefetch_fill 17563
Core_0_STLB_vberti_cross_page_prefetch_miss_rate 0.571117
Core_0_STLB_vberti_cross_page_prefetch_mpki 0.17563
Core_0_STLB_same_page_prefetch_miss_rate 0
Core_0_STLB_same_page_prefetch_mpki 0
Core_0_STLB_cross_page_prefetch_miss_rate 0.571117
Core_0_STLB_cross_page_prefetch_mpki 0.17563
Core_0_STLB_cross_page_prefetch_issued 30752
Core_0_STLB_cross_page_prefetch_lookups 30752
Core_0_STLB_cross_page_prefetch_useful 2598
Core_0_STLB_cross_page_prefetch_useless 14965
Core_0_STLB_cross_page_prefetch_late 0
Core_0_STLB_cross_page_prefetch_too_early 8149
Core_0_STLB_cross_page_prefetch_too_early_among_fill 0.463987
Core_0_STLB_cross_page_prefetch_too_early_among_useless 0.544537
Core_0_STLB_cross_page_prefetch_pollution_evict 16942
Core_0_STLB_cross_page_prefetch_pollution_demand 16782
Core_0_STLB_cross_page_prefetch_pollution_among_prefetch_fill 0.964642
Core_0_STLB_cross_page_prefetch_accuracy 0.0844823
Core_0_STLB_cross_page_prefetch_coverage 0.0015211

========= STLB Cross-page Prefetch Buffer Stats =========
Core_0_STLB_raw_demand_miss 1705378
Core_0_CP_PB_insert 0
Core_0_CP_PB_demand_hit 0
Core_0_STLB_PB_demand_miss 1705378
Core_0_CP_PB_coverage 0
Core_0_STLB_raw_demand_mpki 17.0538
Core_0_STLB_PB_demand_mpki 17.0538
Core_0_CP_PB_demand_hit_mpki 0

Core_0_TLB_demand_miss_rate 0.0446726
Core_0_TLB_demand_mpki 17.0538
Core_0_TLB_same_page_prefetch_miss_rate 0
Core_0_TLB_same_page_prefetch_mpki 0
Core_0_TLB_cross_page_prefetch_miss_rate 0.0184092
Core_0_TLB_cross_page_prefetch_mpki 0.17563
Core_0_TLB_cross_page_prefetch_issued 954032
Core_0_TLB_cross_page_prefetch_lookups 954032
Core_0_TLB_cross_page_prefetch_useful 6825
Core_0_TLB_cross_page_prefetch_useless 16458
Core_0_TLB_cross_page_prefetch_late 1008
Core_0_TLB_cross_page_prefetch_too_early 3091
Core_0_TLB_cross_page_prefetch_too_early_among_fill 0.0654
Core_0_TLB_cross_page_prefetch_too_early_among_useless 0.187811
Core_0_TLB_cross_page_prefetch_accuracy 0.00715385
Core_0_TLB_cross_page_prefetch_coverage 0.00398609
BERTI TO_L1: 11271546 TO_L2: 120759397 TO_L2_BC_MSHR: 63733415
BERTI AVG_LAT: 203.896 NUM_TRACK_LATENCY: 7781713 NUM_CANT_TRACK_LATENCY: 681
BERTI CROSS_PAGE 46352922 NO_CROSS_PAGE: 85678021
BERTI FOUND_BERTI: 114993797 NO_FOUND_BERTI: 32740434
BERTI AVERAGE_ISSUED: 4.75381
