[VMEM] WARNING: physical memory size is smaller than virtual memory size.

*** ChampSim Multicore Out-of-Order Simulator ***
Warmup Instructions: 50000000
Simulation Instructions: 100000000
Number of CPUs: 1
Page size: 4096
Core 0: /data0/tzh/champsim_traces/SPEC17/602.gcc_s-1850B.champsimtrace.xz
VBerti Prefetcher
BERTI HASH ENTANGLING
BERTI IP MASK ffff
Off-chip DRAM Size: 16 GiB Channels: 1 Width: 64-bit Data Rate: 3205 MT/s
Warmup halting CPU 0 at instruction 50000001 cycle 11979131 for remainder of phase
Warmup finished CPU 0 instructions: 50000001 cycles: 11979131 cumulative IPC: 4.174 (Simulation time: 00 hr 02 min 28 sec)
Warmup complete CPU 0 instructions: 50000001 cycles: 11979131 cumulative IPC: 4.174 (Simulation time: 00 hr 02 min 28 sec)
Simulation finished CPU 0 instructions: 100000001 cycles: 53993706 cumulative IPC: 1.852 (Simulation time: 00 hr 13 min 27 sec)
Simulation complete CPU 0 instructions: 100000001 cycles: 53993706 cumulative IPC: 1.852 (Simulation time: 00 hr 13 min 27 sec)

ChampSim completed all CPUs

=== Simulation ===
CPU 0 runs /data0/tzh/champsim_traces/SPEC17/602.gcc_s-1850B.champsimtrace.xz

Region of Interest Statistics

CPU 0 cumulative IPC: 1.852 instructions: 100000001 cycles: 53993706
CPU 0 Branch Prediction Accuracy: 99.95% MPKI: 0.1161 Average ROB Occupancy at Mispredict: 268.8
Branch type MPKI
BRANCH_DIRECT_JUMP: 0.00948
BRANCH_INDIRECT: 0
BRANCH_CONDITIONAL: 0.1066
BRANCH_DIRECT_CALL: 0
BRANCH_INDIRECT_CALL: 0
BRANCH_RETURN: 0

cpu0->cpu0_STLB TOTAL        ACCESS:      37455 HIT:       6289 MISS:      31166 MSHR_MERGE:          0
cpu0->cpu0_STLB LOAD         ACCESS:      37455 HIT:       6289 MISS:      31166 MSHR_MERGE:          0
cpu0->cpu0_STLB RFO          ACCESS:          0 HIT:          0 MISS:          0 MSHR_MERGE:          0
cpu0->cpu0_STLB PREFETCH     ACCESS:          0 HIT:          0 MISS:          0 MSHR_MERGE:          0
cpu0->cpu0_STLB WRITE        ACCESS:          0 HIT:          0 MISS:          0 MSHR_MERGE:          0
cpu0->cpu0_STLB TRANSLATION  ACCESS:          0 HIT:          0 MISS:          0 MSHR_MERGE:          0
cpu0->cpu0_STLB PREFETCH REQUESTED:          0 ISSUED:          0 USEFUL:          0 USELESS:          0 LATE:          0 TOO_EARLY:          0
cpu0->cpu0_STLB AVERAGE MISS LATENCY: 253.6 cycles
cpu0->cpu0_L2C TOTAL        ACCESS:   10698387 HIT:    4973781 MISS:    5724606 MSHR_MERGE:    3720089
cpu0->cpu0_L2C LOAD         ACCESS:     681653 HIT:     663475 MISS:      18178 MSHR_MERGE:       1874
cpu0->cpu0_L2C RFO          ACCESS:       4072 HIT:       3602 MISS:        470 MSHR_MERGE:         25
cpu0->cpu0_L2C PREFETCH     ACCESS:    9995142 HIT:    4294899 MISS:    5700243 MSHR_MERGE:    3718190
cpu0->cpu0_L2C WRITE        ACCESS:      10200 HIT:      10199 MISS:          1 MSHR_MERGE:          0
cpu0->cpu0_L2C TRANSLATION  ACCESS:       7320 HIT:       1606 MISS:       5714 MSHR_MERGE:          0
cpu0->cpu0_L2C PREFETCH REQUESTED:    2696847 ISSUED:    2489132 USEFUL:     175432 USELESS:     379279 LATE:        270 TOO_EARLY:        116
cpu0->cpu0_L2C AVERAGE MISS LATENCY: 201.5 cycles
cpu0->cpu0_L1I TOTAL        ACCESS:   21035629 HIT:   21035629 MISS:          0 MSHR_MERGE:          0
cpu0->cpu0_L1I LOAD         ACCESS:   21035629 HIT:   21035629 MISS:          0 MSHR_MERGE:          0
cpu0->cpu0_L1I RFO          ACCESS:          0 HIT:          0 MISS:          0 MSHR_MERGE:          0
cpu0->cpu0_L1I PREFETCH     ACCESS:          0 HIT:          0 MISS:          0 MSHR_MERGE:          0
cpu0->cpu0_L1I WRITE        ACCESS:          0 HIT:          0 MISS:          0 MSHR_MERGE:          0
cpu0->cpu0_L1I TRANSLATION  ACCESS:          0 HIT:          0 MISS:          0 MSHR_MERGE:          0
cpu0->cpu0_L1I PREFETCH REQUESTED:          0 ISSUED:          0 USEFUL:          0 USELESS:          0 LATE:          0 TOO_EARLY:          0
cpu0->cpu0_L1I AVERAGE MISS LATENCY: - cycles
cpu0->cpu0_L1D TOTAL        ACCESS:   43780574 HIT:   35007692 MISS:    8772882 MSHR_MERGE:     474385
cpu0->cpu0_L1D LOAD         ACCESS:   15225516 HIT:   14113421 MISS:    1112095 MSHR_MERGE:     430442
cpu0->cpu0_L1D RFO          ACCESS:          0 HIT:          0 MISS:          0 MSHR_MERGE:          0
cpu0->cpu0_L1D PREFETCH     ACCESS:   19860974 HIT:   12234538 MISS:    7626436 MSHR_MERGE:      21612
cpu0->cpu0_L1D WRITE        ACCESS:    8631514 HIT:    8604518 MISS:      26996 MSHR_MERGE:      22296
cpu0->cpu0_L1D TRANSLATION  ACCESS:      62570 HIT:      55215 MISS:       7355 MSHR_MERGE:         35
cpu0->cpu0_L1D PREFETCH REQUESTED:   27293800 ISSUED:   19860974 USEFUL:    1651374 USELESS:      68749 LATE:      35199 TOO_EARLY:       3565
cpu0->cpu0_L1D AVERAGE MISS LATENCY: 16.6 cycles
cpu0->cpu0_ITLB TOTAL        ACCESS:   19219483 HIT:   19219483 MISS:          0 MSHR_MERGE:          0
cpu0->cpu0_ITLB LOAD         ACCESS:   19219483 HIT:   19219483 MISS:          0 MSHR_MERGE:          0
cpu0->cpu0_ITLB RFO          ACCESS:          0 HIT:          0 MISS:          0 MSHR_MERGE:          0
cpu0->cpu0_ITLB PREFETCH     ACCESS:          0 HIT:          0 MISS:          0 MSHR_MERGE:          0
cpu0->cpu0_ITLB WRITE        ACCESS:          0 HIT:          0 MISS:          0 MSHR_MERGE:          0
cpu0->cpu0_ITLB TRANSLATION  ACCESS:          0 HIT:          0 MISS:          0 MSHR_MERGE:          0
cpu0->cpu0_ITLB PREFETCH REQUESTED:          0 ISSUED:          0 USEFUL:          0 USELESS:          0 LATE:          0 TOO_EARLY:          0
cpu0->cpu0_ITLB AVERAGE MISS LATENCY: - cycles
cpu0->cpu0_DTLB TOTAL        ACCESS:   34227015 HIT:   33953534 MISS:     273481 MSHR_MERGE:     236026
cpu0->cpu0_DTLB LOAD         ACCESS:   34227015 HIT:   33953534 MISS:     273481 MSHR_MERGE:     236026
cpu0->cpu0_DTLB RFO          ACCESS:          0 HIT:          0 MISS:          0 MSHR_MERGE:          0
cpu0->cpu0_DTLB PREFETCH     ACCESS:          0 HIT:          0 MISS:          0 MSHR_MERGE:          0
cpu0->cpu0_DTLB WRITE        ACCESS:          0 HIT:          0 MISS:          0 MSHR_MERGE:          0
cpu0->cpu0_DTLB TRANSLATION  ACCESS:          0 HIT:          0 MISS:          0 MSHR_MERGE:          0
cpu0->cpu0_DTLB PREFETCH REQUESTED:          0 ISSUED:          0 USEFUL:          0 USELESS:          0 LATE:          0 TOO_EARLY:          0
cpu0->cpu0_DTLB AVERAGE MISS LATENCY: 216.8 cycles
cpu0->LLC TOTAL        ACCESS:    2006887 HIT:      39694 MISS:    1967193 MSHR_MERGE:     126603
cpu0->LLC LOAD         ACCESS:      16304 HIT:       1852 MISS:      14452 MSHR_MERGE:          2
cpu0->LLC RFO          ACCESS:        445 HIT:          2 MISS:        443 MSHR_MERGE:          0
cpu0->LLC PREFETCH     ACCESS:    1982053 HIT:      35356 MISS:    1946697 MSHR_MERGE:     126601
cpu0->LLC WRITE        ACCESS:       2371 HIT:       2098 MISS:        273 MSHR_MERGE:          0
cpu0->LLC TRANSLATION  ACCESS:       5714 HIT:        386 MISS:       5328 MSHR_MERGE:          0
cpu0->LLC PREFETCH REQUESTED:          0 ISSUED:          0 USEFUL:          0 USELESS:          0 LATE:          0 TOO_EARLY:          0
cpu0->LLC AVERAGE MISS LATENCY: 212 cycles

DRAM Statistics

Channel 0 RQ ROW_BUFFER_HIT:     709586
  ROW_BUFFER_MISS:    1130731
  AVG DBUS CONGESTED CYCLE: 3.782
Channel 0 WQ ROW_BUFFER_HIT:        941
  ROW_BUFFER_MISS:       1485
  FULL:          0
Channel 0 REFRESHES ISSUED:       4499

[ROI Statistics]
[System Configuration]
num_cpus 1
cpu_freq 4000
fetch_width 6
decode_width 6
dispatch_width 6
execute_width 6
lq_width 2
sq_width 2
retire_width 6
scheduler_size 128
branch_mispredict_penalty 15
rob_size 352
lq_size 128
sq_size 72
ifetch_buffer_size 64
decode_buffer_size 32
dispatch_buffer_size 32
register_file_size 288
decode_latency 1
dispatch_latency 1
schedule_latency 1
execute_latency 1
page_size 4096
block_size 64
core_0_itlb_set 16
core_0_itlb_way 4
core_0_itlb_rq_size 16
core_0_itlb_wq_size 16
core_0_itlb_pq_size 0
core_0_itlb_mshr_size 8
core_0_itlb_hit_latency 1
core_0_itlb_fill_latency 1
core_0_itlb_max_tag_check 2
core_0_itlb_max_fill 2
core_0_dtlb_set 16
core_0_dtlb_way 4
core_0_dtlb_rq_size 16
core_0_dtlb_wq_size 16
core_0_dtlb_pq_size 0
core_0_dtlb_mshr_size 8
core_0_dtlb_hit_latency 1
core_0_dtlb_fill_latency 1
core_0_dtlb_max_tag_check 2
core_0_dtlb_max_fill 2
core_0_stlb_set 128
core_0_stlb_way 12
core_0_stlb_rq_size 32
core_0_stlb_wq_size 32
core_0_stlb_pq_size 0
core_0_stlb_mshr_size 16
core_0_stlb_hit_latency 4
core_0_stlb_fill_latency 4
core_0_stlb_max_tag_check 1
core_0_stlb_max_fill 1
core_0_l1i_set 64
core_0_l1i_way 8
core_0_l1i_rq_size 64
core_0_l1i_wq_size 64
core_0_l1i_pq_size 32
core_0_l1i_mshr_size 8
core_0_l1i_hit_latency 2
core_0_l1i_fill_latency 2
core_0_l1i_max_tag_check 2
core_0_l1i_max_fill 2
core_0_l1d_set 64
core_0_l1d_way 12
core_0_l1d_rq_size 64
core_0_l1d_wq_size 64
core_0_l1d_pq_size 8
core_0_l1d_mshr_size 16
core_0_l1d_hit_latency 2
core_0_l1d_fill_latency 3
core_0_l1d_max_tag_check 2
core_0_l1d_max_fill 2
core_0_l2c_set 1024
core_0_l2c_way 8
core_0_l2c_rq_size 32
core_0_l2c_wq_size 32
core_0_l2c_pq_size 16
core_0_l2c_mshr_size 32
core_0_l2c_hit_latency 5
core_0_l2c_fill_latency 5
core_0_l2c_max_tag_check 1
core_0_l2c_max_fill 1
llc_set 2048
llc_way 16
llc_rq_size 32
llc_wq_size 32
llc_pq_size 32
llc_mshr_size 64
llc_hit_latency 10
llc_fill_latency 10
llc_max_tag_check 1
llc_max_fill 1
dram_channels 1
dram_ranks 1
dram_bankgroups 8
dram_banks 4
dram_rows 65536
dram_columns 1024
dram_channel_width 8
dram_rq_size 64
dram_wq_size 64
dram_size 17179869184
core_0_itlb_prefetcher no
core_0_dtlb_prefetcher no
core_0_stlb_prefetcher no
core_0_l1i_prefetcher next_line
core_0_l1d_prefetcher vberti
core_0_l2c_prefetcher ip_stride
llc_prefetcher no
llc_replacement drrip

Core_0_instructions 100000001
Core_0_cycles 53993706
Core_0_IPC 1.85207
Core_0_branch_prediction_accuracy 99.9547
Core_0_branch_MPKI 0.11613
Core_0_average_ROB_occupancy_at_mispredict 268.835

Core_0_ITLB_total_access 19219483
Core_0_ITLB_total_hit 19219483
Core_0_ITLB_total_miss 0
Core_0_ITLB_total_MPKI 0
Core_0_ITLB_total_miss_rate 0
Core_0_ITLB_demand_access 19219483
Core_0_ITLB_demand_hit 19219483
Core_0_ITLB_demand_miss 0
Core_0_ITLB_demand_MPKI 0
Core_0_ITLB_demand_miss_rate 0
Core_0_ITLB_load_access 19219483
Core_0_ITLB_load_hit 19219483
Core_0_ITLB_load_miss 0
Core_0_ITLB_load_MPKI 0
Core_0_ITLB_load_miss_rate 0
Core_0_ITLB_rfo_access 0
Core_0_ITLB_rfo_hit 0
Core_0_ITLB_rfo_miss 0
Core_0_ITLB_rfo_MPKI 0
Core_0_ITLB_rfo_miss_rate 0
Core_0_ITLB_prefetch_access 0
Core_0_ITLB_prefetch_hit 0
Core_0_ITLB_prefetch_miss 0
Core_0_ITLB_prefetch_MPKI 0
Core_0_ITLB_prefetch_miss_rate 0
Core_0_ITLB_writeback_access 0
Core_0_ITLB_writeback_hit 0
Core_0_ITLB_writeback_miss 0
Core_0_ITLB_writeback_MPKI 0
Core_0_ITLB_writeback_miss_rate 0
Core_0_ITLB_prefetch_requested 0
Core_0_ITLB_prefetch_issued 0
Core_0_ITLB_prefetch_useful 0
Core_0_ITLB_prefetch_useless 0
Core_0_ITLB_prefetch_late 0
Core_0_ITLB_prefetch_fill 0
Core_0_ITLB_prefetch_too_early 0
Core_0_ITLB_prefetch_too_early_among_fill 0
Core_0_ITLB_prefetch_too_early_among_useless 0
Core_0_ITLB_prefetch_pollution_evict 0
Core_0_ITLB_prefetch_pollution_demand 0
Core_0_ITLB_prefetch_pollution_among_prefetch_fill 0
Core_0_ITLB_prefetch_accuracy 0
Core_0_ITLB_prefetch_coverage 0

Core_0_DTLB_total_access 34227015
Core_0_DTLB_total_hit 33953534
Core_0_DTLB_total_miss 273481
Core_0_DTLB_total_MPKI 2.73481
Core_0_DTLB_total_miss_rate 0.00799021
Core_0_DTLB_demand_access 34227015
Core_0_DTLB_demand_hit 33953534
Core_0_DTLB_demand_miss 273481
Core_0_DTLB_demand_MPKI 2.73481
Core_0_DTLB_demand_miss_rate 0.00799021
Core_0_DTLB_load_access 34227015
Core_0_DTLB_load_hit 33953534
Core_0_DTLB_load_miss 273481
Core_0_DTLB_load_MPKI 2.73481
Core_0_DTLB_load_miss_rate 0.00799021
Core_0_DTLB_rfo_access 0
Core_0_DTLB_rfo_hit 0
Core_0_DTLB_rfo_miss 0
Core_0_DTLB_rfo_MPKI 0
Core_0_DTLB_rfo_miss_rate 0
Core_0_DTLB_prefetch_access 0
Core_0_DTLB_prefetch_hit 0
Core_0_DTLB_prefetch_miss 0
Core_0_DTLB_prefetch_MPKI 0
Core_0_DTLB_prefetch_miss_rate 0
Core_0_DTLB_writeback_access 0
Core_0_DTLB_writeback_hit 0
Core_0_DTLB_writeback_miss 0
Core_0_DTLB_writeback_MPKI 0
Core_0_DTLB_writeback_miss_rate 0
Core_0_DTLB_prefetch_requested 0
Core_0_DTLB_prefetch_issued 0
Core_0_DTLB_prefetch_useful 0
Core_0_DTLB_prefetch_useless 0
Core_0_DTLB_prefetch_late 0
Core_0_DTLB_prefetch_fill 0
Core_0_DTLB_prefetch_too_early 0
Core_0_DTLB_prefetch_too_early_among_fill 0
Core_0_DTLB_prefetch_too_early_among_useless 0
Core_0_DTLB_prefetch_pollution_evict 0
Core_0_DTLB_prefetch_pollution_demand 0
Core_0_DTLB_prefetch_pollution_among_prefetch_fill 0
Core_0_DTLB_prefetch_accuracy 0
Core_0_DTLB_prefetch_coverage 0

Core_0_STLB_total_access 37455
Core_0_STLB_total_hit 6289
Core_0_STLB_total_miss 31166
Core_0_STLB_total_MPKI 0.31166
Core_0_STLB_total_miss_rate 0.832092
Core_0_STLB_demand_access 37455
Core_0_STLB_demand_hit 6289
Core_0_STLB_demand_miss 31166
Core_0_STLB_demand_MPKI 0.31166
Core_0_STLB_demand_miss_rate 0.832092
Core_0_STLB_load_access 37455
Core_0_STLB_load_hit 6289
Core_0_STLB_load_miss 31166
Core_0_STLB_load_MPKI 0.31166
Core_0_STLB_load_miss_rate 0.832092
Core_0_STLB_rfo_access 0
Core_0_STLB_rfo_hit 0
Core_0_STLB_rfo_miss 0
Core_0_STLB_rfo_MPKI 0
Core_0_STLB_rfo_miss_rate 0
Core_0_STLB_prefetch_access 0
Core_0_STLB_prefetch_hit 0
Core_0_STLB_prefetch_miss 0
Core_0_STLB_prefetch_MPKI 0
Core_0_STLB_prefetch_miss_rate 0
Core_0_STLB_writeback_access 0
Core_0_STLB_writeback_hit 0
Core_0_STLB_writeback_miss 0
Core_0_STLB_writeback_MPKI 0
Core_0_STLB_writeback_miss_rate 0
Core_0_STLB_prefetch_requested 0
Core_0_STLB_prefetch_issued 0
Core_0_STLB_prefetch_useful 0
Core_0_STLB_prefetch_useless 0
Core_0_STLB_prefetch_late 0
Core_0_STLB_prefetch_fill 0
Core_0_STLB_prefetch_too_early 0
Core_0_STLB_prefetch_too_early_among_fill 0
Core_0_STLB_prefetch_too_early_among_useless 0
Core_0_STLB_prefetch_pollution_evict 0
Core_0_STLB_prefetch_pollution_demand 0
Core_0_STLB_prefetch_pollution_among_prefetch_fill 0
Core_0_STLB_prefetch_accuracy 0
Core_0_STLB_prefetch_coverage 0

Core_0_L1I_total_access 21035629
Core_0_L1I_total_hit 21035629
Core_0_L1I_total_miss 0
Core_0_L1I_total_MPKI 0
Core_0_L1I_total_miss_rate 0
Core_0_L1I_demand_access 21035629
Core_0_L1I_demand_hit 21035629
Core_0_L1I_demand_miss 0
Core_0_L1I_demand_MPKI 0
Core_0_L1I_demand_miss_rate 0
Core_0_L1I_load_access 21035629
Core_0_L1I_load_hit 21035629
Core_0_L1I_load_miss 0
Core_0_L1I_load_MPKI 0
Core_0_L1I_load_miss_rate 0
Core_0_L1I_rfo_access 0
Core_0_L1I_rfo_hit 0
Core_0_L1I_rfo_miss 0
Core_0_L1I_rfo_MPKI 0
Core_0_L1I_rfo_miss_rate 0
Core_0_L1I_prefetch_access 0
Core_0_L1I_prefetch_hit 0
Core_0_L1I_prefetch_miss 0
Core_0_L1I_prefetch_MPKI 0
Core_0_L1I_prefetch_miss_rate 0
Core_0_L1I_writeback_access 0
Core_0_L1I_writeback_hit 0
Core_0_L1I_writeback_miss 0
Core_0_L1I_writeback_MPKI 0
Core_0_L1I_writeback_miss_rate 0
Core_0_L1I_prefetch_requested 0
Core_0_L1I_prefetch_issued 0
Core_0_L1I_prefetch_useful 0
Core_0_L1I_prefetch_useless 0
Core_0_L1I_prefetch_late 0
Core_0_L1I_prefetch_fill 0
Core_0_L1I_prefetch_too_early 0
Core_0_L1I_prefetch_too_early_among_fill 0
Core_0_L1I_prefetch_too_early_among_useless 0
Core_0_L1I_prefetch_pollution_evict 0
Core_0_L1I_prefetch_pollution_demand 0
Core_0_L1I_prefetch_pollution_among_prefetch_fill 0
Core_0_L1I_prefetch_accuracy 0
Core_0_L1I_prefetch_coverage 0

Core_0_L1D_total_access 43718004
Core_0_L1D_total_hit 34952477
Core_0_L1D_total_miss 8765527
Core_0_L1D_total_MPKI 87.6553
Core_0_L1D_total_miss_rate 0.200502
Core_0_L1D_demand_access 15225516
Core_0_L1D_demand_hit 14113421
Core_0_L1D_demand_miss 1112095
Core_0_L1D_demand_MPKI 11.1209
Core_0_L1D_demand_miss_rate 0.0730415
Core_0_L1D_load_access 15225516
Core_0_L1D_load_hit 14113421
Core_0_L1D_load_miss 1112095
Core_0_L1D_load_MPKI 11.1209
Core_0_L1D_load_miss_rate 0.0730415
Core_0_L1D_rfo_access 0
Core_0_L1D_rfo_hit 0
Core_0_L1D_rfo_miss 0
Core_0_L1D_rfo_MPKI 0
Core_0_L1D_rfo_miss_rate 0
Core_0_L1D_prefetch_access 19860974
Core_0_L1D_prefetch_hit 12234538
Core_0_L1D_prefetch_miss 7626436
Core_0_L1D_prefetch_MPKI 76.2644
Core_0_L1D_prefetch_miss_rate 0.383991
Core_0_L1D_writeback_access 8631514
Core_0_L1D_writeback_hit 8604518
Core_0_L1D_writeback_miss 26996
Core_0_L1D_writeback_MPKI 0.26996
Core_0_L1D_writeback_miss_rate 0.00312761
Core_0_L1D_prefetch_requested 27293800
Core_0_L1D_prefetch_issued 19860974
Core_0_L1D_prefetch_useful 1651374
Core_0_L1D_prefetch_useless 68749
Core_0_L1D_prefetch_late 35199
Core_0_L1D_prefetch_fill 1684952
Core_0_L1D_prefetch_too_early 3565
Core_0_L1D_prefetch_too_early_among_fill 0.00211579
Core_0_L1D_prefetch_too_early_among_useless 0.0518553
Core_0_L1D_prefetch_pollution_evict 363824
Core_0_L1D_prefetch_pollution_demand 361669
Core_0_L1D_prefetch_pollution_among_prefetch_fill 0.215925
Core_0_L1D_prefetch_accuracy 0.0831467
Core_0_L1D_prefetch_coverage 0.597573

Core_0_L2C_total_access 10691067
Core_0_L2C_total_hit 4972175
Core_0_L2C_total_miss 5718892
Core_0_L2C_total_MPKI 57.1889
Core_0_L2C_total_miss_rate 0.534922
Core_0_L2C_demand_access 685725
Core_0_L2C_demand_hit 667077
Core_0_L2C_demand_miss 18648
Core_0_L2C_demand_MPKI 0.18648
Core_0_L2C_demand_miss_rate 0.0271946
Core_0_L2C_load_access 681653
Core_0_L2C_load_hit 663475
Core_0_L2C_load_miss 18178
Core_0_L2C_load_MPKI 0.18178
Core_0_L2C_load_miss_rate 0.0266675
Core_0_L2C_rfo_access 4072
Core_0_L2C_rfo_hit 3602
Core_0_L2C_rfo_miss 470
Core_0_L2C_rfo_MPKI 0.0047
Core_0_L2C_rfo_miss_rate 0.115422
Core_0_L2C_prefetch_access 9995142
Core_0_L2C_prefetch_hit 4294899
Core_0_L2C_prefetch_miss 5700243
Core_0_L2C_prefetch_MPKI 57.0024
Core_0_L2C_prefetch_miss_rate 0.570301
Core_0_L2C_writeback_access 10200
Core_0_L2C_writeback_hit 10199
Core_0_L2C_writeback_miss 1
Core_0_L2C_writeback_MPKI 1e-05
Core_0_L2C_writeback_miss_rate 9.80392e-05
Core_0_L2C_prefetch_requested 2696847
Core_0_L2C_prefetch_issued 2489132
Core_0_L2C_prefetch_useful 175432
Core_0_L2C_prefetch_useless 379279
Core_0_L2C_prefetch_late 270
Core_0_L2C_prefetch_fill 1838685
Core_0_L2C_prefetch_too_early 116
Core_0_L2C_prefetch_too_early_among_fill 6.30886e-05
Core_0_L2C_prefetch_too_early_among_useless 0.000305843
Core_0_L2C_prefetch_pollution_evict 1799
Core_0_L2C_prefetch_pollution_demand 1727
Core_0_L2C_prefetch_pollution_among_prefetch_fill 0.000978417
Core_0_L2C_prefetch_accuracy 0.0704792
Core_0_L2C_prefetch_coverage 0.903916

Core_0_LLC_total_access 2001173
Core_0_LLC_total_hit 39308
Core_0_LLC_total_miss 1961865
Core_0_LLC_total_MPKI 19.6186
Core_0_LLC_total_miss_rate 0.980358
Core_0_LLC_demand_access 16749
Core_0_LLC_demand_hit 1854
Core_0_LLC_demand_miss 14895
Core_0_LLC_demand_MPKI 0.14895
Core_0_LLC_demand_miss_rate 0.889307
Core_0_LLC_load_access 16304
Core_0_LLC_load_hit 1852
Core_0_LLC_load_miss 14452
Core_0_LLC_load_MPKI 0.14452
Core_0_LLC_load_miss_rate 0.886408
Core_0_LLC_rfo_access 445
Core_0_LLC_rfo_hit 2
Core_0_LLC_rfo_miss 443
Core_0_LLC_rfo_MPKI 0.00443
Core_0_LLC_rfo_miss_rate 0.995506
Core_0_LLC_prefetch_access 1982053
Core_0_LLC_prefetch_hit 35356
Core_0_LLC_prefetch_miss 1946697
Core_0_LLC_prefetch_MPKI 19.467
Core_0_LLC_prefetch_miss_rate 0.982162
Core_0_LLC_writeback_access 2371
Core_0_LLC_writeback_hit 2098
Core_0_LLC_writeback_miss 273
Core_0_LLC_writeback_MPKI 0.00273
Core_0_LLC_writeback_miss_rate 0.115141
Core_0_LLC_prefetch_requested 0
Core_0_LLC_prefetch_issued 0
Core_0_LLC_prefetch_useful 0
Core_0_LLC_prefetch_useless 0
Core_0_LLC_prefetch_late 0
Core_0_LLC_prefetch_fill 1820094
Core_0_LLC_prefetch_too_early 0
Core_0_LLC_prefetch_too_early_among_fill 0
Core_0_LLC_prefetch_too_early_among_useless 0
Core_0_LLC_prefetch_pollution_evict 226
Core_0_LLC_prefetch_pollution_demand 226
Core_0_LLC_prefetch_pollution_among_prefetch_fill 0.000124169
Core_0_LLC_prefetch_accuracy 0
Core_0_LLC_prefetch_coverage 0

[DRAM Statistics]
Channel_0_RQ_row_buffer_hit 709586
Channel_0_RQ_row_buffer_miss 1130731
Channel_0_WQ_row_buffer_hit 941
Channel_0_WQ_row_buffer_miss 1485
Channel_0_WQ_full 0
Channel_0_dbus_congested 3426896
DRAM_total_RQ_row_buffer_hit 709586
DRAM_total_RQ_row_buffer_miss 1130731
DRAM_total_WQ_row_buffer_hit 941
DRAM_total_WQ_row_buffer_miss 1485
DRAM_total_WQ_full 0
DRAM_total_dbus_congested 3426896
DRAM_avg_congested_cycle 3.78233

====== DRAM_RQ_TRAFFIC ========
DRAM_RQ_READ_TRAFFIC_BREAKDOWN:
data_demand_read.count = 14893
data_demand_read.share = 0.81%

inst_demand_read.count = 0
inst_demand_read.share = 0.00%

cache_inst_prefetch.count = 0
cache_inst_prefetch.share = 0.00%

cache_data_prefetch.count = 1820096
cache_data_prefetch.share = 98.90%

stlb_data_demand.count = 1878
stlb_data_demand.share = 0.10%

stlb_inst_demand.count = 0
stlb_inst_demand.share = 0.00%

stlb_l1i_pref.count = 0
stlb_l1i_pref.share = 0.00%

stlb_l1d_pref.count = 3450
stlb_l1d_pref.share = 0.19%

DRAM_RQ_READ_TRAFFIC_SUMMARY:
cache_demand.count = 14893
cache_demand.share = 0.81%

cache_prefetch.count = 1820096
cache_prefetch.share = 98.90%

stlb_demand.count = 1878
stlb_demand.share = 0.10%

stlb_prefetch.count = 3450
stlb_prefetch.share = 0.19%

DRAM_RQ_READ_TRAFFIC_DEBUG:
total_classified_read.count = 1840317
unclassified_read.count = 0
total_read_with_other.count = 1840317

classified_plus_unclassified_check.count = 1840317
dram_rq_read_total_observed.count = 1840317
dram_rq_read_total_observed.per_1K_instructions = 18.4032

STLB_MISS_PTW_DRAM_TOUCH_BREAKDOWN:
stlb_miss_total.count = 31166

stlb_miss_touch_dram.count = 5160
stlb_miss_touch_dram.share = 16.56%

stlb_miss_no_dram_touch.count = 26006
stlb_miss_no_dram_touch.share = 83.44%

STLB_MISS_PTW_DRAM_TOUCH_DEBUG:
stlb_miss_touch_plus_no_touch.count = 31166
stlb_miss_total_check.count = 31166

======STLB miss causes ========
Core_0_STLB_miss_cause_breakdown
Core_0_STLB_cause_Demand_Data_miss 2629
Core_0_STLB_cause_Demand_Data_miss_rate 0.0701909
Core_0_STLB_cause_Demand_Instruction_miss 0
Core_0_STLB_cause_Demand_Instruction_miss_rate 0
Core_0_STLB_cause_L1D_Prefetch_miss 28537
Core_0_STLB_cause_L1D_Prefetch_miss_rate 0.761901
Core_0_STLB_cause_L1D_Prefetch_Same_Page_miss 0
Core_0_STLB_cause_L1D_Prefetch_Same_Page_miss_rate 0
Core_0_STLB_cause_L1D_Prefetch_Cross_Page_miss 28537
Core_0_STLB_cause_L1D_Prefetch_Cross_Page_miss_rate 0.761901
Core_0_STLB_cause_L1I_Prefetch_miss 0
Core_0_STLB_cause_L1I_Prefetch_miss_rate 0
Core_0_STLB_cause_Other_miss 0
Core_0_STLB_cause_Other_miss_rate 0
Core_0_STLB_Demand_miss 2629
Core_0_STLB_Demand_miss_rate 0.0701909
Core_0_STLB_L1D_Prefetch_miss 28537
Core_0_STLB_L1D_Prefetch_miss_rate 0.761901
Core_0_STLB_Other_miss 0
Core_0_STLB_Other_miss_rate 0

========== vBerti-TLB Cross-page Flow Stats ==========

Core_0_vBerti_Requested 27293800
Core_0_vBerti_Cross_page_prefetch_in_Requested 5084949
Core_0_vBerti_Same_page_prefetch_in_Requested 22208851
Core_0_vBerti_Cross_page_prefetch_of_Requested 0.186304
Core_0_vBerti_Issued 19860974
Core_0_vBerti_PQ_Drop_Rate 0.272327
Core_0_vBerti_InPQ_Cross_page_prefetch_of_Requested 0.138378
Core_0_vBerti_Cross_page_PQ_Drop_rate 0.257248
Core_0_vBerti_Cross_page_prefetch_of_Issued 0.190165

========= DTLB_vBerti Prefetch Stats =========
Core_0_DTLB_demand_access 22305494
Core_0_DTLB_demand_hit 22293005
Core_0_DTLB_demand_miss 12489
Core_0_DTLB_demand_mshr_merge 6386
Core_0_DTLB_demand_fill 6135
Core_0_DTLB_demand_miss_rate 0.000559907
Core_0_DTLB_demand_mpki 0.12489
Core_0_DTLB_vberti_prefetch_access 11921521
Core_0_DTLB_vberti_prefetch_hit 11660529
Core_0_DTLB_vberti_prefetch_miss 260992
Core_0_DTLB_vberti_prefetch_mshr_merge 229640
Core_0_DTLB_vberti_prefetch_fill 31320
Core_0_DTLB_vberti_prefetch_miss_rate 0.0218925
Core_0_DTLB_vberti_prefetch_mpki 2.60992

=== DTLB_vBerti Same/Cross-page Prefetch Stats ===
Core_0_DTLB_vberti_same_page_prefetch 9100560
Core_0_DTLB_vberti_same_page_prefetch_hit 9100560
Core_0_DTLB_vberti_same_page_prefetch_miss 0
Core_0_DTLB_vberti_same_page_prefetch_mshr_merge 0
Core_0_DTLB_vberti_same_page_prefetch_fill 0
Core_0_DTLB_vberti_same_page_prefetch_miss_rate 0
Core_0_DTLB_vberti_same_page_prefetch_mpki 0
Core_0_DTLB_vberti_cross_page_prefetch 2820961
Core_0_DTLB_vberti_cross_page_prefetch_hit 2559969
Core_0_DTLB_vberti_cross_page_prefetch_miss 260992
Core_0_DTLB_vberti_cross_page_prefetch_mshr_merge 229640
Core_0_DTLB_vberti_cross_page_prefetch_fill 31320
Core_0_DTLB_vberti_cross_page_prefetch_miss_rate 0.0925188
Core_0_DTLB_vberti_cross_page_prefetch_mpki 2.60992
Core_0_DTLB_same_page_prefetch_miss_rate 0
Core_0_DTLB_same_page_prefetch_mpki 0
Core_0_DTLB_cross_page_prefetch_miss_rate 0.0925188
Core_0_DTLB_cross_page_prefetch_mpki 2.60992
Core_0_DTLB_cross_page_prefetch_issued 2820961
Core_0_DTLB_cross_page_prefetch_lookups 2820961
Core_0_DTLB_cross_page_prefetch_useful 28027
Core_0_DTLB_cross_page_prefetch_useless 3325
Core_0_DTLB_cross_page_prefetch_late 32
Core_0_DTLB_cross_page_prefetch_too_early 50
Core_0_DTLB_cross_page_prefetch_too_early_among_fill 0.00159642
Core_0_DTLB_cross_page_prefetch_too_early_among_useless 0.0150376
Core_0_DTLB_cross_page_prefetch_pollution_evict 1829
Core_0_DTLB_cross_page_prefetch_pollution_demand 1695
Core_0_DTLB_cross_page_prefetch_pollution_among_prefetch_fill 0.0583972
Core_0_DTLB_cross_page_prefetch_accuracy 0.00993527
Core_0_DTLB_cross_page_prefetch_coverage 0.691751

========= STLB_vBerti Prefetch Stats =========
Core_0_STLB_demand_access 6103
Core_0_STLB_demand_hit 3474
Core_0_STLB_demand_miss 2629
Core_0_STLB_demand_mshr_merge 0
Core_0_STLB_demand_fill 2629
Core_0_STLB_demand_miss_rate 0.430772
Core_0_STLB_demand_mpki 0.02629
Core_0_STLB_vberti_prefetch_access 31352
Core_0_STLB_vberti_prefetch_hit 2815
Core_0_STLB_vberti_prefetch_miss 28537
Core_0_STLB_vberti_prefetch_mshr_merge 0
Core_0_STLB_vberti_prefetch_fill 28537
Core_0_STLB_vberti_prefetch_miss_rate 0.910213
Core_0_STLB_vberti_prefetch_mpki 0.28537

=== STLB_vBerti Same/Cross-page Prefetch Stats ===
Core_0_STLB_vberti_same_page_prefetch 0
Core_0_STLB_vberti_same_page_prefetch_hit 0
Core_0_STLB_vberti_same_page_prefetch_miss 0
Core_0_STLB_vberti_same_page_prefetch_mshr_merge 0
Core_0_STLB_vberti_same_page_prefetch_fill 0
Core_0_STLB_vberti_same_page_prefetch_miss_rate 0
Core_0_STLB_vberti_same_page_prefetch_mpki 0
Core_0_STLB_vberti_cross_page_prefetch 31352
Core_0_STLB_vberti_cross_page_prefetch_hit 2815
Core_0_STLB_vberti_cross_page_prefetch_miss 28537
Core_0_STLB_vberti_cross_page_prefetch_mshr_merge 0
Core_0_STLB_vberti_cross_page_prefetch_fill 28537
Core_0_STLB_vberti_cross_page_prefetch_miss_rate 0.910213
Core_0_STLB_vberti_cross_page_prefetch_mpki 0.28537
Core_0_STLB_same_page_prefetch_miss_rate 0
Core_0_STLB_same_page_prefetch_mpki 0
Core_0_STLB_cross_page_prefetch_miss_rate 0.910213
Core_0_STLB_cross_page_prefetch_mpki 0.28537
Core_0_STLB_cross_page_prefetch_issued 31352
Core_0_STLB_cross_page_prefetch_lookups 31352
Core_0_STLB_cross_page_prefetch_useful 186
Core_0_STLB_cross_page_prefetch_useless 28351
Core_0_STLB_cross_page_prefetch_late 0
Core_0_STLB_cross_page_prefetch_too_early 2
Core_0_STLB_cross_page_prefetch_too_early_among_fill 7.00845e-05
Core_0_STLB_cross_page_prefetch_too_early_among_useless 7.05442e-05
Core_0_STLB_cross_page_prefetch_pollution_evict 49
Core_0_STLB_cross_page_prefetch_pollution_demand 43
Core_0_STLB_cross_page_prefetch_pollution_among_prefetch_fill 0.00171707
Core_0_STLB_cross_page_prefetch_accuracy 0.00593264
Core_0_STLB_cross_page_prefetch_coverage 0.0660746

========= STLB Cross-page Prefetch Buffer Stats =========
Core_0_STLB_raw_demand_miss 2629
Core_0_CP_PB_insert 0
Core_0_CP_PB_demand_hit 0
Core_0_STLB_PB_demand_miss 2629
Core_0_CP_PB_coverage 0
Core_0_STLB_raw_demand_mpki 0.02629
Core_0_STLB_PB_demand_mpki 0.02629
Core_0_CP_PB_demand_hit_mpki 0

Core_0_TLB_demand_miss_rate 0.000117863
Core_0_TLB_demand_mpki 0.02629
Core_0_TLB_same_page_prefetch_miss_rate 0
Core_0_TLB_same_page_prefetch_mpki 0
Core_0_TLB_cross_page_prefetch_miss_rate 0.0101161
Core_0_TLB_cross_page_prefetch_mpki 0.28537
Core_0_TLB_cross_page_prefetch_issued 2820961
Core_0_TLB_cross_page_prefetch_lookups 2820961
Core_0_TLB_cross_page_prefetch_useful 27750
Core_0_TLB_cross_page_prefetch_useless 3239
Core_0_TLB_cross_page_prefetch_late 25
Core_0_TLB_cross_page_prefetch_too_early 47
Core_0_TLB_cross_page_prefetch_too_early_among_fill 0.000785205
Core_0_TLB_cross_page_prefetch_too_early_among_useless 0.0145107
Core_0_TLB_cross_page_prefetch_accuracy 0.00983707
Core_0_TLB_cross_page_prefetch_coverage 0.91346
BERTI TO_L1: 16589093 TO_L2: 25014182 TO_L2_BC_MSHR: 653360
BERTI AVG_LAT: 79.2178 NUM_TRACK_LATENCY: 3618488 NUM_CANT_TRACK_LATENCY: 0
BERTI CROSS_PAGE 8041171 NO_CROSS_PAGE: 33562104
BERTI FOUND_BERTI: 20464496 NO_FOUND_BERTI: 13136639
BERTI AVERAGE_ISSUED: 3.49958
