[VMEM] WARNING: physical memory size is smaller than virtual memory size.

*** ChampSim Multicore Out-of-Order Simulator ***
Warmup Instructions: 50000000
Simulation Instructions: 100000000
Number of CPUs: 1
Page size: 4096
Core 0: /data0/tzh/champsim_traces/SPEC17/619.lbm_s-4268B.champsimtrace.xz
VBerti Prefetcher
BERTI HASH ENTANGLING
BERTI IP MASK ffff
Off-chip DRAM Size: 16 GiB Channels: 1 Width: 64-bit Data Rate: 3205 MT/s
Warmup halting CPU 0 at instruction 50000005 cycle 13401668 for remainder of phase
Warmup finished CPU 0 instructions: 50000005 cycles: 13401668 cumulative IPC: 3.731 (Simulation time: 00 hr 03 min 20 sec)
Warmup complete CPU 0 instructions: 50000005 cycles: 13401668 cumulative IPC: 3.731 (Simulation time: 00 hr 03 min 20 sec)
Simulation finished CPU 0 instructions: 100000005 cycles: 199601242 cumulative IPC: 0.501 (Simulation time: 00 hr 42 min 52 sec)
Simulation complete CPU 0 instructions: 100000005 cycles: 199601242 cumulative IPC: 0.501 (Simulation time: 00 hr 42 min 52 sec)

ChampSim completed all CPUs

=== Simulation ===
CPU 0 runs /data0/tzh/champsim_traces/SPEC17/619.lbm_s-4268B.champsimtrace.xz

Region of Interest Statistics

CPU 0 cumulative IPC: 0.501 instructions: 100000005 cycles: 199601242
CPU 0 Branch Prediction Accuracy: 97.12% MPKI: 0.5177 Average ROB Occupancy at Mispredict: 237.9
Branch type MPKI
BRANCH_DIRECT_JUMP: 0
BRANCH_INDIRECT: 0
BRANCH_CONDITIONAL: 0.5177
BRANCH_DIRECT_CALL: 0
BRANCH_INDIRECT_CALL: 0
BRANCH_RETURN: 0

cpu0->cpu0_STLB TOTAL        ACCESS:     137175 HIT:      62797 MISS:      74378 MSHR_MERGE:          0
cpu0->cpu0_STLB LOAD         ACCESS:     137175 HIT:      62797 MISS:      74378 MSHR_MERGE:          0
cpu0->cpu0_STLB RFO          ACCESS:          0 HIT:          0 MISS:          0 MSHR_MERGE:          0
cpu0->cpu0_STLB PREFETCH     ACCESS:          0 HIT:          0 MISS:          0 MSHR_MERGE:          0
cpu0->cpu0_STLB WRITE        ACCESS:          0 HIT:          0 MISS:          0 MSHR_MERGE:          0
cpu0->cpu0_STLB TRANSLATION  ACCESS:          0 HIT:          0 MISS:          0 MSHR_MERGE:          0
cpu0->cpu0_STLB PREFETCH REQUESTED:          0 ISSUED:          0 USEFUL:          0 USELESS:          0 LATE:          0 TOO_EARLY:          0
cpu0->cpu0_STLB AVERAGE MISS LATENCY: 258.8 cycles
cpu0->cpu0_L2C TOTAL        ACCESS:   17022707 HIT:   11573505 MISS:    5449202 MSHR_MERGE:     284033
cpu0->cpu0_L2C LOAD         ACCESS:    1023885 HIT:     403835 MISS:     620050 MSHR_MERGE:      57333
cpu0->cpu0_L2C RFO          ACCESS:    6196083 HIT:    3074801 MISS:    3121282 MSHR_MERGE:      72124
cpu0->cpu0_L2C PREFETCH     ACCESS:    3072421 HIT:    1373942 MISS:    1698479 MSHR_MERGE:     154576
cpu0->cpu0_L2C WRITE        ACCESS:    6720922 HIT:    6720922 MISS:          0 MSHR_MERGE:          0
cpu0->cpu0_L2C TRANSLATION  ACCESS:       9396 HIT:          5 MISS:       9391 MSHR_MERGE:          0
cpu0->cpu0_L2C PREFETCH REQUESTED:     946386 ISSUED:     946361 USEFUL:     252707 USELESS:       1392 LATE:      14561 TOO_EARLY:         18
cpu0->cpu0_L2C AVERAGE MISS LATENCY: 603 cycles
cpu0->cpu0_L1I TOTAL        ACCESS:   15835796 HIT:   15835796 MISS:          0 MSHR_MERGE:          0
cpu0->cpu0_L1I LOAD         ACCESS:   15835796 HIT:   15835796 MISS:          0 MSHR_MERGE:          0
cpu0->cpu0_L1I RFO          ACCESS:          0 HIT:          0 MISS:          0 MSHR_MERGE:          0
cpu0->cpu0_L1I PREFETCH     ACCESS:          0 HIT:          0 MISS:          0 MSHR_MERGE:          0
cpu0->cpu0_L1I WRITE        ACCESS:          0 HIT:          0 MISS:          0 MSHR_MERGE:          0
cpu0->cpu0_L1I TRANSLATION  ACCESS:          0 HIT:          0 MISS:          0 MSHR_MERGE:          0
cpu0->cpu0_L1I PREFETCH REQUESTED:          0 ISSUED:          0 USEFUL:          0 USELESS:          0 LATE:          0 TOO_EARLY:          0
cpu0->cpu0_L1I AVERAGE MISS LATENCY: - cycles
cpu0->cpu0_L1D TOTAL        ACCESS:   26460630 HIT:   16090608 MISS:   10370022 MSHR_MERGE:     884363
cpu0->cpu0_L1D LOAD         ACCESS:    5225185 HIT:    3837967 MISS:    1387218 MSHR_MERGE:     363332
cpu0->cpu0_L1D RFO          ACCESS:          0 HIT:          0 MISS:          0 MSHR_MERGE:          0
cpu0->cpu0_L1D PREFETCH     ACCESS:    2908356 HIT:     555567 MISS:    2352789 MSHR_MERGE:      96941
cpu0->cpu0_L1D WRITE        ACCESS:   18178262 HIT:   11557643 MISS:    6620619 MSHR_MERGE:     424090
cpu0->cpu0_L1D TRANSLATION  ACCESS:     148827 HIT:     139431 MISS:       9396 MSHR_MERGE:          0
cpu0->cpu0_L1D PREFETCH REQUESTED:  668076770 ISSUED:    2908356 USEFUL:     690318 USELESS:      25777 LATE:      68619 TOO_EARLY:          0
cpu0->cpu0_L1D AVERAGE MISS LATENCY: 323.6 cycles
cpu0->cpu0_ITLB TOTAL        ACCESS:   11566801 HIT:   11566801 MISS:          0 MSHR_MERGE:          0
cpu0->cpu0_ITLB LOAD         ACCESS:   11566801 HIT:   11566801 MISS:          0 MSHR_MERGE:          0
cpu0->cpu0_ITLB RFO          ACCESS:          0 HIT:          0 MISS:          0 MSHR_MERGE:          0
cpu0->cpu0_ITLB PREFETCH     ACCESS:          0 HIT:          0 MISS:          0 MSHR_MERGE:          0
cpu0->cpu0_ITLB WRITE        ACCESS:          0 HIT:          0 MISS:          0 MSHR_MERGE:          0
cpu0->cpu0_ITLB TRANSLATION  ACCESS:          0 HIT:          0 MISS:          0 MSHR_MERGE:          0
cpu0->cpu0_ITLB PREFETCH REQUESTED:          0 ISSUED:          0 USEFUL:          0 USELESS:          0 LATE:          0 TOO_EARLY:          0
cpu0->cpu0_ITLB AVERAGE MISS LATENCY: - cycles
cpu0->cpu0_DTLB TOTAL        ACCESS:   24313691 HIT:   24088681 MISS:     225010 MSHR_MERGE:      87835
cpu0->cpu0_DTLB LOAD         ACCESS:   24313691 HIT:   24088681 MISS:     225010 MSHR_MERGE:      87835
cpu0->cpu0_DTLB RFO          ACCESS:          0 HIT:          0 MISS:          0 MSHR_MERGE:          0
cpu0->cpu0_DTLB PREFETCH     ACCESS:          0 HIT:          0 MISS:          0 MSHR_MERGE:          0
cpu0->cpu0_DTLB WRITE        ACCESS:          0 HIT:          0 MISS:          0 MSHR_MERGE:          0
cpu0->cpu0_DTLB TRANSLATION  ACCESS:          0 HIT:          0 MISS:          0 MSHR_MERGE:          0
cpu0->cpu0_DTLB PREFETCH REQUESTED:          0 ISSUED:          0 USEFUL:          0 USELESS:          0 LATE:          0 TOO_EARLY:          0
cpu0->cpu0_DTLB AVERAGE MISS LATENCY: 145.9 cycles
cpu0->LLC TOTAL        ACCESS:    8842544 HIT:    3586942 MISS:    5255602 MSHR_MERGE:      51422
cpu0->LLC LOAD         ACCESS:     562717 HIT:      76690 MISS:     486027 MSHR_MERGE:       9053
cpu0->LLC RFO          ACCESS:    3049150 HIT:     128483 MISS:    2920667 MSHR_MERGE:         42
cpu0->LLC PREFETCH     ACCESS:    1543870 HIT:     139161 MISS:    1404709 MSHR_MERGE:      42327
cpu0->LLC WRITE        ACCESS:    3677416 HIT:    3242608 MISS:     434808 MSHR_MERGE:          0
cpu0->LLC TRANSLATION  ACCESS:       9391 HIT:          0 MISS:       9391 MSHR_MERGE:          0
cpu0->LLC PREFETCH REQUESTED:          0 ISSUED:          0 USEFUL:          0 USELESS:          0 LATE:          0 TOO_EARLY:          0
cpu0->LLC AVERAGE MISS LATENCY: 557.4 cycles

DRAM Statistics

Channel 0 RQ ROW_BUFFER_HIT:     385933
  ROW_BUFFER_MISS:    4383429
  AVG DBUS CONGESTED CYCLE: 7.661
Channel 0 WQ ROW_BUFFER_HIT:     449671
  ROW_BUFFER_MISS:    3120579
  FULL:          0
Channel 0 REFRESHES ISSUED:      16634

[ROI Statistics]
[System Configuration]
num_cpus 1
cpu_freq 4000
fetch_width 6
decode_width 6
dispatch_width 6
execute_width 6
lq_width 2
sq_width 2
retire_width 6
scheduler_size 128
branch_mispredict_penalty 15
rob_size 352
lq_size 128
sq_size 72
ifetch_buffer_size 64
decode_buffer_size 32
dispatch_buffer_size 32
register_file_size 288
decode_latency 1
dispatch_latency 1
schedule_latency 1
execute_latency 1
page_size 4096
block_size 64
core_0_itlb_set 16
core_0_itlb_way 4
core_0_itlb_rq_size 16
core_0_itlb_wq_size 16
core_0_itlb_pq_size 0
core_0_itlb_mshr_size 8
core_0_itlb_hit_latency 1
core_0_itlb_fill_latency 1
core_0_itlb_max_tag_check 2
core_0_itlb_max_fill 2
core_0_dtlb_set 16
core_0_dtlb_way 4
core_0_dtlb_rq_size 16
core_0_dtlb_wq_size 16
core_0_dtlb_pq_size 0
core_0_dtlb_mshr_size 8
core_0_dtlb_hit_latency 1
core_0_dtlb_fill_latency 1
core_0_dtlb_max_tag_check 2
core_0_dtlb_max_fill 2
core_0_stlb_set 128
core_0_stlb_way 12
core_0_stlb_rq_size 32
core_0_stlb_wq_size 32
core_0_stlb_pq_size 0
core_0_stlb_mshr_size 16
core_0_stlb_hit_latency 4
core_0_stlb_fill_latency 4
core_0_stlb_max_tag_check 1
core_0_stlb_max_fill 1
core_0_l1i_set 64
core_0_l1i_way 8
core_0_l1i_rq_size 64
core_0_l1i_wq_size 64
core_0_l1i_pq_size 32
core_0_l1i_mshr_size 8
core_0_l1i_hit_latency 2
core_0_l1i_fill_latency 2
core_0_l1i_max_tag_check 2
core_0_l1i_max_fill 2
core_0_l1d_set 64
core_0_l1d_way 12
core_0_l1d_rq_size 64
core_0_l1d_wq_size 64
core_0_l1d_pq_size 8
core_0_l1d_mshr_size 16
core_0_l1d_hit_latency 2
core_0_l1d_fill_latency 3
core_0_l1d_max_tag_check 2
core_0_l1d_max_fill 2
core_0_l2c_set 1024
core_0_l2c_way 8
core_0_l2c_rq_size 32
core_0_l2c_wq_size 32
core_0_l2c_pq_size 16
core_0_l2c_mshr_size 32
core_0_l2c_hit_latency 5
core_0_l2c_fill_latency 5
core_0_l2c_max_tag_check 1
core_0_l2c_max_fill 1
llc_set 2048
llc_way 16
llc_rq_size 32
llc_wq_size 32
llc_pq_size 32
llc_mshr_size 64
llc_hit_latency 10
llc_fill_latency 10
llc_max_tag_check 1
llc_max_fill 1
dram_channels 1
dram_ranks 1
dram_bankgroups 8
dram_banks 4
dram_rows 65536
dram_columns 1024
dram_channel_width 8
dram_rq_size 64
dram_wq_size 64
dram_size 17179869184
core_0_itlb_prefetcher no
core_0_dtlb_prefetcher no
core_0_stlb_prefetcher no
core_0_l1i_prefetcher next_line
core_0_l1d_prefetcher vberti
core_0_l2c_prefetcher ip_stride
llc_prefetcher no
llc_replacement drrip

Core_0_instructions 100000005
Core_0_cycles 199601242
Core_0_IPC 0.500999
Core_0_branch_prediction_accuracy 97.1167
Core_0_branch_MPKI 0.51774
Core_0_average_ROB_occupancy_at_mispredict 237.886

Core_0_ITLB_total_access 11566801
Core_0_ITLB_total_hit 11566801
Core_0_ITLB_total_miss 0
Core_0_ITLB_total_MPKI 0
Core_0_ITLB_total_miss_rate 0
Core_0_ITLB_demand_access 11566801
Core_0_ITLB_demand_hit 11566801
Core_0_ITLB_demand_miss 0
Core_0_ITLB_demand_MPKI 0
Core_0_ITLB_demand_miss_rate 0
Core_0_ITLB_load_access 11566801
Core_0_ITLB_load_hit 11566801
Core_0_ITLB_load_miss 0
Core_0_ITLB_load_MPKI 0
Core_0_ITLB_load_miss_rate 0
Core_0_ITLB_rfo_access 0
Core_0_ITLB_rfo_hit 0
Core_0_ITLB_rfo_miss 0
Core_0_ITLB_rfo_MPKI 0
Core_0_ITLB_rfo_miss_rate 0
Core_0_ITLB_prefetch_access 0
Core_0_ITLB_prefetch_hit 0
Core_0_ITLB_prefetch_miss 0
Core_0_ITLB_prefetch_MPKI 0
Core_0_ITLB_prefetch_miss_rate 0
Core_0_ITLB_writeback_access 0
Core_0_ITLB_writeback_hit 0
Core_0_ITLB_writeback_miss 0
Core_0_ITLB_writeback_MPKI 0
Core_0_ITLB_writeback_miss_rate 0
Core_0_ITLB_prefetch_requested 0
Core_0_ITLB_prefetch_issued 0
Core_0_ITLB_prefetch_useful 0
Core_0_ITLB_prefetch_useless 0
Core_0_ITLB_prefetch_late 0
Core_0_ITLB_prefetch_fill 0
Core_0_ITLB_prefetch_too_early 0
Core_0_ITLB_prefetch_too_early_among_fill 0
Core_0_ITLB_prefetch_too_early_among_useless 0
Core_0_ITLB_prefetch_pollution_evict 0
Core_0_ITLB_prefetch_pollution_demand 0
Core_0_ITLB_prefetch_pollution_among_prefetch_fill 0
Core_0_ITLB_prefetch_accuracy 0
Core_0_ITLB_prefetch_coverage 0

Core_0_DTLB_total_access 24313691
Core_0_DTLB_total_hit 24088681
Core_0_DTLB_total_miss 225010
Core_0_DTLB_total_MPKI 2.2501
Core_0_DTLB_total_miss_rate 0.00925446
Core_0_DTLB_demand_access 24313691
Core_0_DTLB_demand_hit 24088681
Core_0_DTLB_demand_miss 225010
Core_0_DTLB_demand_MPKI 2.2501
Core_0_DTLB_demand_miss_rate 0.00925446
Core_0_DTLB_load_access 24313691
Core_0_DTLB_load_hit 24088681
Core_0_DTLB_load_miss 225010
Core_0_DTLB_load_MPKI 2.2501
Core_0_DTLB_load_miss_rate 0.00925446
Core_0_DTLB_rfo_access 0
Core_0_DTLB_rfo_hit 0
Core_0_DTLB_rfo_miss 0
Core_0_DTLB_rfo_MPKI 0
Core_0_DTLB_rfo_miss_rate 0
Core_0_DTLB_prefetch_access 0
Core_0_DTLB_prefetch_hit 0
Core_0_DTLB_prefetch_miss 0
Core_0_DTLB_prefetch_MPKI 0
Core_0_DTLB_prefetch_miss_rate 0
Core_0_DTLB_writeback_access 0
Core_0_DTLB_writeback_hit 0
Core_0_DTLB_writeback_miss 0
Core_0_DTLB_writeback_MPKI 0
Core_0_DTLB_writeback_miss_rate 0
Core_0_DTLB_prefetch_requested 0
Core_0_DTLB_prefetch_issued 0
Core_0_DTLB_prefetch_useful 0
Core_0_DTLB_prefetch_useless 0
Core_0_DTLB_prefetch_late 0
Core_0_DTLB_prefetch_fill 0
Core_0_DTLB_prefetch_too_early 0
Core_0_DTLB_prefetch_too_early_among_fill 0
Core_0_DTLB_prefetch_too_early_among_useless 0
Core_0_DTLB_prefetch_pollution_evict 0
Core_0_DTLB_prefetch_pollution_demand 0
Core_0_DTLB_prefetch_pollution_among_prefetch_fill 0
Core_0_DTLB_prefetch_accuracy 0
Core_0_DTLB_prefetch_coverage 0

Core_0_STLB_total_access 137175
Core_0_STLB_total_hit 62797
Core_0_STLB_total_miss 74378
Core_0_STLB_total_MPKI 0.74378
Core_0_STLB_total_miss_rate 0.542213
Core_0_STLB_demand_access 137175
Core_0_STLB_demand_hit 62797
Core_0_STLB_demand_miss 74378
Core_0_STLB_demand_MPKI 0.74378
Core_0_STLB_demand_miss_rate 0.542213
Core_0_STLB_load_access 137175
Core_0_STLB_load_hit 62797
Core_0_STLB_load_miss 74378
Core_0_STLB_load_MPKI 0.74378
Core_0_STLB_load_miss_rate 0.542213
Core_0_STLB_rfo_access 0
Core_0_STLB_rfo_hit 0
Core_0_STLB_rfo_miss 0
Core_0_STLB_rfo_MPKI 0
Core_0_STLB_rfo_miss_rate 0
Core_0_STLB_prefetch_access 0
Core_0_STLB_prefetch_hit 0
Core_0_STLB_prefetch_miss 0
Core_0_STLB_prefetch_MPKI 0
Core_0_STLB_prefetch_miss_rate 0
Core_0_STLB_writeback_access 0
Core_0_STLB_writeback_hit 0
Core_0_STLB_writeback_miss 0
Core_0_STLB_writeback_MPKI 0
Core_0_STLB_writeback_miss_rate 0
Core_0_STLB_prefetch_requested 0
Core_0_STLB_prefetch_issued 0
Core_0_STLB_prefetch_useful 0
Core_0_STLB_prefetch_useless 0
Core_0_STLB_prefetch_late 0
Core_0_STLB_prefetch_fill 0
Core_0_STLB_prefetch_too_early 0
Core_0_STLB_prefetch_too_early_among_fill 0
Core_0_STLB_prefetch_too_early_among_useless 0
Core_0_STLB_prefetch_pollution_evict 0
Core_0_STLB_prefetch_pollution_demand 0
Core_0_STLB_prefetch_pollution_among_prefetch_fill 0
Core_0_STLB_prefetch_accuracy 0
Core_0_STLB_prefetch_coverage 0

Core_0_L1I_total_access 15835796
Core_0_L1I_total_hit 15835796
Core_0_L1I_total_miss 0
Core_0_L1I_total_MPKI 0
Core_0_L1I_total_miss_rate 0
Core_0_L1I_demand_access 15835796
Core_0_L1I_demand_hit 15835796
Core_0_L1I_demand_miss 0
Core_0_L1I_demand_MPKI 0
Core_0_L1I_demand_miss_rate 0
Core_0_L1I_load_access 15835796
Core_0_L1I_load_hit 15835796
Core_0_L1I_load_miss 0
Core_0_L1I_load_MPKI 0
Core_0_L1I_load_miss_rate 0
Core_0_L1I_rfo_access 0
Core_0_L1I_rfo_hit 0
Core_0_L1I_rfo_miss 0
Core_0_L1I_rfo_MPKI 0
Core_0_L1I_rfo_miss_rate 0
Core_0_L1I_prefetch_access 0
Core_0_L1I_prefetch_hit 0
Core_0_L1I_prefetch_miss 0
Core_0_L1I_prefetch_MPKI 0
Core_0_L1I_prefetch_miss_rate 0
Core_0_L1I_writeback_access 0
Core_0_L1I_writeback_hit 0
Core_0_L1I_writeback_miss 0
Core_0_L1I_writeback_MPKI 0
Core_0_L1I_writeback_miss_rate 0
Core_0_L1I_prefetch_requested 0
Core_0_L1I_prefetch_issued 0
Core_0_L1I_prefetch_useful 0
Core_0_L1I_prefetch_useless 0
Core_0_L1I_prefetch_late 0
Core_0_L1I_prefetch_fill 0
Core_0_L1I_prefetch_too_early 0
Core_0_L1I_prefetch_too_early_among_fill 0
Core_0_L1I_prefetch_too_early_among_useless 0
Core_0_L1I_prefetch_pollution_evict 0
Core_0_L1I_prefetch_pollution_demand 0
Core_0_L1I_prefetch_pollution_among_prefetch_fill 0
Core_0_L1I_prefetch_accuracy 0
Core_0_L1I_prefetch_coverage 0

Core_0_L1D_total_access 26311803
Core_0_L1D_total_hit 15951177
Core_0_L1D_total_miss 10360626
Core_0_L1D_total_MPKI 103.606
Core_0_L1D_total_miss_rate 0.393763
Core_0_L1D_demand_access 5225185
Core_0_L1D_demand_hit 3837967
Core_0_L1D_demand_miss 1387218
Core_0_L1D_demand_MPKI 13.8722
Core_0_L1D_demand_miss_rate 0.265487
Core_0_L1D_load_access 5225185
Core_0_L1D_load_hit 3837967
Core_0_L1D_load_miss 1387218
Core_0_L1D_load_MPKI 13.8722
Core_0_L1D_load_miss_rate 0.265487
Core_0_L1D_rfo_access 0
Core_0_L1D_rfo_hit 0
Core_0_L1D_rfo_miss 0
Core_0_L1D_rfo_MPKI 0
Core_0_L1D_rfo_miss_rate 0
Core_0_L1D_prefetch_access 2908356
Core_0_L1D_prefetch_hit 555567
Core_0_L1D_prefetch_miss 2352789
Core_0_L1D_prefetch_MPKI 23.5279
Core_0_L1D_prefetch_miss_rate 0.808976
Core_0_L1D_writeback_access 18178262
Core_0_L1D_writeback_hit 11557643
Core_0_L1D_writeback_miss 6620619
Core_0_L1D_writeback_MPKI 66.2062
Core_0_L1D_writeback_miss_rate 0.364205
Core_0_L1D_prefetch_requested 668076770
Core_0_L1D_prefetch_issued 2908356
Core_0_L1D_prefetch_useful 690318
Core_0_L1D_prefetch_useless 25777
Core_0_L1D_prefetch_late 68619
Core_0_L1D_prefetch_fill 647473
Core_0_L1D_prefetch_too_early 0
Core_0_L1D_prefetch_too_early_among_fill 0
Core_0_L1D_prefetch_too_early_among_useless 0
Core_0_L1D_prefetch_pollution_evict 0
Core_0_L1D_prefetch_pollution_demand 0
Core_0_L1D_prefetch_pollution_among_prefetch_fill 0
Core_0_L1D_prefetch_accuracy 0.237357
Core_0_L1D_prefetch_coverage 0.332277

Core_0_L2C_total_access 17013311
Core_0_L2C_total_hit 11573500
Core_0_L2C_total_miss 5439811
Core_0_L2C_total_MPKI 54.3981
Core_0_L2C_total_miss_rate 0.319739
Core_0_L2C_demand_access 7219968
Core_0_L2C_demand_hit 3478636
Core_0_L2C_demand_miss 3741332
Core_0_L2C_demand_MPKI 37.4133
Core_0_L2C_demand_miss_rate 0.518192
Core_0_L2C_load_access 1023885
Core_0_L2C_load_hit 403835
Core_0_L2C_load_miss 620050
Core_0_L2C_load_MPKI 6.2005
Core_0_L2C_load_miss_rate 0.605586
Core_0_L2C_rfo_access 6196083
Core_0_L2C_rfo_hit 3074801
Core_0_L2C_rfo_miss 3121282
Core_0_L2C_rfo_MPKI 31.2128
Core_0_L2C_rfo_miss_rate 0.503751
Core_0_L2C_prefetch_access 3072421
Core_0_L2C_prefetch_hit 1373942
Core_0_L2C_prefetch_miss 1698479
Core_0_L2C_prefetch_MPKI 16.9848
Core_0_L2C_prefetch_miss_rate 0.552815
Core_0_L2C_writeback_access 6720922
Core_0_L2C_writeback_hit 6720922
Core_0_L2C_writeback_miss 0
Core_0_L2C_writeback_MPKI 0
Core_0_L2C_writeback_miss_rate 0
Core_0_L2C_prefetch_requested 946386
Core_0_L2C_prefetch_issued 946361
Core_0_L2C_prefetch_useful 252707
Core_0_L2C_prefetch_useless 1392
Core_0_L2C_prefetch_late 14561
Core_0_L2C_prefetch_fill 1132258
Core_0_L2C_prefetch_too_early 18
Core_0_L2C_prefetch_too_early_among_fill 1.58974e-05
Core_0_L2C_prefetch_too_early_among_useless 0.012931
Core_0_L2C_prefetch_pollution_evict 23372
Core_0_L2C_prefetch_pollution_demand 23368
Core_0_L2C_prefetch_pollution_among_prefetch_fill 0.0206419
Core_0_L2C_prefetch_accuracy 0.26703
Core_0_L2C_prefetch_coverage 0.063271

Core_0_LLC_total_access 8833153
Core_0_LLC_total_hit 3586942
Core_0_LLC_total_miss 5246211
Core_0_LLC_total_MPKI 52.4621
Core_0_LLC_total_miss_rate 0.593923
Core_0_LLC_demand_access 3611867
Core_0_LLC_demand_hit 205173
Core_0_LLC_demand_miss 3406694
Core_0_LLC_demand_MPKI 34.0669
Core_0_LLC_demand_miss_rate 0.943195
Core_0_LLC_load_access 562717
Core_0_LLC_load_hit 76690
Core_0_LLC_load_miss 486027
Core_0_LLC_load_MPKI 4.86027
Core_0_LLC_load_miss_rate 0.863715
Core_0_LLC_rfo_access 3049150
Core_0_LLC_rfo_hit 128483
Core_0_LLC_rfo_miss 2920667
Core_0_LLC_rfo_MPKI 29.2067
Core_0_LLC_rfo_miss_rate 0.957863
Core_0_LLC_prefetch_access 1543870
Core_0_LLC_prefetch_hit 139161
Core_0_LLC_prefetch_miss 1404709
Core_0_LLC_prefetch_MPKI 14.0471
Core_0_LLC_prefetch_miss_rate 0.909862
Core_0_LLC_writeback_access 3677416
Core_0_LLC_writeback_hit 3242608
Core_0_LLC_writeback_miss 434808
Core_0_LLC_writeback_MPKI 4.34808
Core_0_LLC_writeback_miss_rate 0.118237
Core_0_LLC_prefetch_requested 0
Core_0_LLC_prefetch_issued 0
Core_0_LLC_prefetch_useful 0
Core_0_LLC_prefetch_useless 0
Core_0_LLC_prefetch_late 0
Core_0_LLC_prefetch_fill 1353286
Core_0_LLC_prefetch_too_early 0
Core_0_LLC_prefetch_too_early_among_fill 0
Core_0_LLC_prefetch_too_early_among_useless 0
Core_0_LLC_prefetch_pollution_evict 134
Core_0_LLC_prefetch_pollution_demand 134
Core_0_LLC_prefetch_pollution_among_prefetch_fill 9.90182e-05
Core_0_LLC_prefetch_accuracy 0
Core_0_LLC_prefetch_coverage 0

[DRAM Statistics]
Channel_0_RQ_row_buffer_hit 385933
Channel_0_RQ_row_buffer_miss 4383429
Channel_0_WQ_row_buffer_hit 449671
Channel_0_WQ_row_buffer_miss 3120579
Channel_0_WQ_full 0
Channel_0_dbus_congested 32860194
DRAM_total_RQ_row_buffer_hit 385933
DRAM_total_RQ_row_buffer_miss 4383429
DRAM_total_WQ_row_buffer_hit 449671
DRAM_total_WQ_row_buffer_miss 3120579
DRAM_total_WQ_full 0
DRAM_total_dbus_congested 32860194
DRAM_avg_congested_cycle 7.66108

====== DRAM_RQ_TRAFFIC ========
DRAM_RQ_READ_TRAFFIC_BREAKDOWN:
data_demand_read.count = 3397599
data_demand_read.share = 71.24%

inst_demand_read.count = 0
inst_demand_read.share = 0.00%

cache_inst_prefetch.count = 0
cache_inst_prefetch.share = 0.00%

cache_data_prefetch.count = 1362382
cache_data_prefetch.share = 28.57%

stlb_data_demand.count = 6184
stlb_data_demand.share = 0.13%

stlb_inst_demand.count = 0
stlb_inst_demand.share = 0.00%

stlb_l1i_pref.count = 0
stlb_l1i_pref.share = 0.00%

stlb_l1d_pref.count = 3207
stlb_l1d_pref.share = 0.07%

DRAM_RQ_READ_TRAFFIC_SUMMARY:
cache_demand.count = 3397599
cache_demand.share = 71.24%

cache_prefetch.count = 1362382
cache_prefetch.share = 28.57%

stlb_demand.count = 6184
stlb_demand.share = 0.13%

stlb_prefetch.count = 3207
stlb_prefetch.share = 0.07%

DRAM_RQ_READ_TRAFFIC_DEBUG:
total_classified_read.count = 4769372
unclassified_read.count = 0
total_read_with_other.count = 4769372

classified_plus_unclassified_check.count = 4769372
dram_rq_read_total_observed.count = 4769372
dram_rq_read_total_observed.per_1K_instructions = 47.6937

STLB_MISS_PTW_DRAM_TOUCH_BREAKDOWN:
stlb_miss_total.count = 74377

stlb_miss_touch_dram.count = 9318
stlb_miss_touch_dram.share = 12.53%

stlb_miss_no_dram_touch.count = 65059
stlb_miss_no_dram_touch.share = 87.47%

STLB_MISS_PTW_DRAM_TOUCH_DEBUG:
stlb_miss_touch_plus_no_touch.count = 74377
stlb_miss_total_check.count = 74377

======STLB miss causes ========
Core_0_STLB_miss_cause_breakdown
Core_0_STLB_cause_Demand_Data_miss 48949
Core_0_STLB_cause_Demand_Data_miss_rate 0.356836
Core_0_STLB_cause_Demand_Instruction_miss 0
Core_0_STLB_cause_Demand_Instruction_miss_rate 0
Core_0_STLB_cause_L1D_Prefetch_miss 25429
Core_0_STLB_cause_L1D_Prefetch_miss_rate 0.185376
Core_0_STLB_cause_L1D_Prefetch_Same_Page_miss 0
Core_0_STLB_cause_L1D_Prefetch_Same_Page_miss_rate 0
Core_0_STLB_cause_L1D_Prefetch_Cross_Page_miss 25429
Core_0_STLB_cause_L1D_Prefetch_Cross_Page_miss_rate 0.185376
Core_0_STLB_cause_L1I_Prefetch_miss 0
Core_0_STLB_cause_L1I_Prefetch_miss_rate 0
Core_0_STLB_cause_Other_miss 0
Core_0_STLB_cause_Other_miss_rate 0
Core_0_STLB_Demand_miss 48949
Core_0_STLB_Demand_miss_rate 0.356836
Core_0_STLB_L1D_Prefetch_miss 25429
Core_0_STLB_L1D_Prefetch_miss_rate 0.185376
Core_0_STLB_Other_miss 0
Core_0_STLB_Other_miss_rate 0

========== vBerti-TLB Cross-page Flow Stats ==========

Core_0_vBerti_Requested 668076770
Core_0_vBerti_Cross_page_prefetch_in_Requested 82707874
Core_0_vBerti_Same_page_prefetch_in_Requested 585368896
Core_0_vBerti_Cross_page_prefetch_of_Requested 0.1238
Core_0_vBerti_Issued 2908356
Core_0_vBerti_PQ_Drop_Rate 0.995647
Core_0_vBerti_InPQ_Cross_page_prefetch_of_Requested 0.000523259
Core_0_vBerti_Cross_page_PQ_Drop_rate 0.995773
Core_0_vBerti_Cross_page_prefetch_of_Issued 0.120197

========= DTLB_vBerti Prefetch Stats =========
Core_0_DTLB_demand_access 21925473
Core_0_DTLB_demand_hit 21775768
Core_0_DTLB_demand_miss 149705
Core_0_DTLB_demand_mshr_merge 56065
Core_0_DTLB_demand_fill 96926
Core_0_DTLB_demand_miss_rate 0.0068279
Core_0_DTLB_demand_mpki 1.49705
Core_0_DTLB_vberti_prefetch_access 2388218
Core_0_DTLB_vberti_prefetch_hit 2312913
Core_0_DTLB_vberti_prefetch_miss 75305
Core_0_DTLB_vberti_prefetch_mshr_merge 31770
Core_0_DTLB_vberti_prefetch_fill 40248
Core_0_DTLB_vberti_prefetch_miss_rate 0.0315319
Core_0_DTLB_vberti_prefetch_mpki 0.75305

=== DTLB_vBerti Same/Cross-page Prefetch Stats ===
Core_0_DTLB_vberti_same_page_prefetch 2086796
Core_0_DTLB_vberti_same_page_prefetch_hit 2086796
Core_0_DTLB_vberti_same_page_prefetch_miss 0
Core_0_DTLB_vberti_same_page_prefetch_mshr_merge 0
Core_0_DTLB_vberti_same_page_prefetch_fill 0
Core_0_DTLB_vberti_same_page_prefetch_miss_rate 0
Core_0_DTLB_vberti_same_page_prefetch_mpki 0
Core_0_DTLB_vberti_cross_page_prefetch 301422
Core_0_DTLB_vberti_cross_page_prefetch_hit 226117
Core_0_DTLB_vberti_cross_page_prefetch_miss 75305
Core_0_DTLB_vberti_cross_page_prefetch_mshr_merge 31770
Core_0_DTLB_vberti_cross_page_prefetch_fill 40248
Core_0_DTLB_vberti_cross_page_prefetch_miss_rate 0.249832
Core_0_DTLB_vberti_cross_page_prefetch_mpki 0.75305
Core_0_DTLB_same_page_prefetch_miss_rate 0
Core_0_DTLB_same_page_prefetch_mpki 0
Core_0_DTLB_cross_page_prefetch_miss_rate 0.249832
Core_0_DTLB_cross_page_prefetch_mpki 0.75305
Core_0_DTLB_cross_page_prefetch_issued 301422
Core_0_DTLB_cross_page_prefetch_lookups 301422
Core_0_DTLB_cross_page_prefetch_useful 43535
Core_0_DTLB_cross_page_prefetch_useless 0
Core_0_DTLB_cross_page_prefetch_late 3287
Core_0_DTLB_cross_page_prefetch_too_early 0
Core_0_DTLB_cross_page_prefetch_too_early_among_fill 0
Core_0_DTLB_cross_page_prefetch_too_early_among_useless 0
Core_0_DTLB_cross_page_prefetch_pollution_evict 19835
Core_0_DTLB_cross_page_prefetch_pollution_demand 15865
Core_0_DTLB_cross_page_prefetch_pollution_among_prefetch_fill 0.49282
Core_0_DTLB_cross_page_prefetch_accuracy 0.144432
Core_0_DTLB_cross_page_prefetch_coverage 0.22529

========= STLB_vBerti Prefetch Stats =========
Core_0_STLB_demand_access 93640
Core_0_STLB_demand_hit 44691
Core_0_STLB_demand_miss 48949
Core_0_STLB_demand_mshr_merge 0
Core_0_STLB_demand_fill 48948
Core_0_STLB_demand_miss_rate 0.522736
Core_0_STLB_demand_mpki 0.48949
Core_0_STLB_vberti_prefetch_access 43535
Core_0_STLB_vberti_prefetch_hit 18106
Core_0_STLB_vberti_prefetch_miss 25429
Core_0_STLB_vberti_prefetch_mshr_merge 0
Core_0_STLB_vberti_prefetch_fill 25429
Core_0_STLB_vberti_prefetch_miss_rate 0.584105
Core_0_STLB_vberti_prefetch_mpki 0.25429

=== STLB_vBerti Same/Cross-page Prefetch Stats ===
Core_0_STLB_vberti_same_page_prefetch 0
Core_0_STLB_vberti_same_page_prefetch_hit 0
Core_0_STLB_vberti_same_page_prefetch_miss 0
Core_0_STLB_vberti_same_page_prefetch_mshr_merge 0
Core_0_STLB_vberti_same_page_prefetch_fill 0
Core_0_STLB_vberti_same_page_prefetch_miss_rate 0
Core_0_STLB_vberti_same_page_prefetch_mpki 0
Core_0_STLB_vberti_cross_page_prefetch 43535
Core_0_STLB_vberti_cross_page_prefetch_hit 18106
Core_0_STLB_vberti_cross_page_prefetch_miss 25429
Core_0_STLB_vberti_cross_page_prefetch_mshr_merge 0
Core_0_STLB_vberti_cross_page_prefetch_fill 25429
Core_0_STLB_vberti_cross_page_prefetch_miss_rate 0.584105
Core_0_STLB_vberti_cross_page_prefetch_mpki 0.25429
Core_0_STLB_same_page_prefetch_miss_rate 0
Core_0_STLB_same_page_prefetch_mpki 0
Core_0_STLB_cross_page_prefetch_miss_rate 0.584105
Core_0_STLB_cross_page_prefetch_mpki 0.25429
Core_0_STLB_cross_page_prefetch_issued 43535
Core_0_STLB_cross_page_prefetch_lookups 43535
Core_0_STLB_cross_page_prefetch_useful 9297
Core_0_STLB_cross_page_prefetch_useless 16132
Core_0_STLB_cross_page_prefetch_late 0
Core_0_STLB_cross_page_prefetch_too_early 2917
Core_0_STLB_cross_page_prefetch_too_early_among_fill 0.114712
Core_0_STLB_cross_page_prefetch_too_early_among_useless 0.180821
Core_0_STLB_cross_page_prefetch_pollution_evict 0
Core_0_STLB_cross_page_prefetch_pollution_demand 0
Core_0_STLB_cross_page_prefetch_pollution_among_prefetch_fill 0
Core_0_STLB_cross_page_prefetch_accuracy 0.213552
Core_0_STLB_cross_page_prefetch_coverage 0.159616

========= STLB Cross-page Prefetch Buffer Stats =========
Core_0_STLB_raw_demand_miss 48949
Core_0_CP_PB_insert 0
Core_0_CP_PB_demand_hit 0
Core_0_STLB_PB_demand_miss 48949
Core_0_CP_PB_coverage 0
Core_0_STLB_raw_demand_mpki 0.48949
Core_0_STLB_PB_demand_mpki 0.48949
Core_0_CP_PB_demand_hit_mpki 0

Core_0_TLB_demand_miss_rate 0.00223252
Core_0_TLB_demand_mpki 0.48949
Core_0_TLB_same_page_prefetch_miss_rate 0
Core_0_TLB_same_page_prefetch_mpki 0
Core_0_TLB_cross_page_prefetch_miss_rate 0.0843635
Core_0_TLB_cross_page_prefetch_mpki 0.25429
Core_0_TLB_cross_page_prefetch_issued 301422
Core_0_TLB_cross_page_prefetch_lookups 301422
Core_0_TLB_cross_page_prefetch_useful 28268
Core_0_TLB_cross_page_prefetch_useless 0
Core_0_TLB_cross_page_prefetch_late 2925
Core_0_TLB_cross_page_prefetch_too_early 0
Core_0_TLB_cross_page_prefetch_too_early_among_fill 0
Core_0_TLB_cross_page_prefetch_too_early_among_useless 0
Core_0_TLB_cross_page_prefetch_accuracy 0.0937821
Core_0_TLB_cross_page_prefetch_coverage 0.366085
BERTI TO_L1: 9569120 TO_L2: 677299469 TO_L2_BC_MSHR: 354219778
BERTI AVG_LAT: 254.336 NUM_TRACK_LATENCY: 11781400 NUM_CANT_TRACK_LATENCY: 1001
BERTI CROSS_PAGE 85382464 NO_CROSS_PAGE: 601486125
BERTI FOUND_BERTI: 203839752 NO_FOUND_BERTI: 20488529
BERTI AVERAGE_ISSUED: 1.84835
