[VMEM] WARNING: physical memory size is smaller than virtual memory size.

*** ChampSim Multicore Out-of-Order Simulator ***
Warmup Instructions: 50000000
Simulation Instructions: 100000000
Number of CPUs: 1
Page size: 4096
Core 0: /data0/tzh/champsim_traces/SPEC17/625.x264_s-39B.champsimtrace.xz
VBerti Prefetcher
BERTI HASH ENTANGLING
BERTI IP MASK ffff
Off-chip DRAM Size: 16 GiB Channels: 1 Width: 64-bit Data Rate: 3205 MT/s
Warmup halting CPU 0 at instruction 50000004 cycle 10116885 for remainder of phase
Warmup finished CPU 0 instructions: 50000004 cycles: 10116885 cumulative IPC: 4.942 (Simulation time: 00 hr 02 min 00 sec)
Warmup complete CPU 0 instructions: 50000004 cycles: 10116885 cumulative IPC: 4.942 (Simulation time: 00 hr 02 min 00 sec)
Simulation finished CPU 0 instructions: 100000003 cycles: 32076062 cumulative IPC: 3.118 (Simulation time: 00 hr 07 min 31 sec)
Simulation complete CPU 0 instructions: 100000003 cycles: 32076062 cumulative IPC: 3.118 (Simulation time: 00 hr 07 min 31 sec)

ChampSim completed all CPUs

=== Simulation ===
CPU 0 runs /data0/tzh/champsim_traces/SPEC17/625.x264_s-39B.champsimtrace.xz

Region of Interest Statistics

CPU 0 cumulative IPC: 3.118 instructions: 100000003 cycles: 32076062
CPU 0 Branch Prediction Accuracy: 95.83% MPKI: 1.678 Average ROB Occupancy at Mispredict: 62.1
Branch type MPKI
BRANCH_DIRECT_JUMP: 0.0026
BRANCH_INDIRECT: 0.00318
BRANCH_CONDITIONAL: 1.503
BRANCH_DIRECT_CALL: 0.0024
BRANCH_INDIRECT_CALL: 0.06673
BRANCH_RETURN: 0.1004

cpu0->cpu0_STLB TOTAL        ACCESS:     106817 HIT:     104289 MISS:       2528 MSHR_MERGE:          0
cpu0->cpu0_STLB LOAD         ACCESS:     106817 HIT:     104289 MISS:       2528 MSHR_MERGE:          0
cpu0->cpu0_STLB RFO          ACCESS:          0 HIT:          0 MISS:          0 MSHR_MERGE:          0
cpu0->cpu0_STLB PREFETCH     ACCESS:          0 HIT:          0 MISS:          0 MSHR_MERGE:          0
cpu0->cpu0_STLB WRITE        ACCESS:          0 HIT:          0 MISS:          0 MSHR_MERGE:          0
cpu0->cpu0_STLB TRANSLATION  ACCESS:          0 HIT:          0 MISS:          0 MSHR_MERGE:          0
cpu0->cpu0_STLB PREFETCH REQUESTED:          0 ISSUED:          0 USEFUL:          0 USELESS:          0 LATE:          0 TOO_EARLY:          0
cpu0->cpu0_STLB AVERAGE MISS LATENCY: 283.7 cycles
cpu0->cpu0_L2C TOTAL        ACCESS:    1467524 HIT:     992307 MISS:     475217 MSHR_MERGE:     214037
cpu0->cpu0_L2C LOAD         ACCESS:     549649 HIT:     499391 MISS:      50258 MSHR_MERGE:      10787
cpu0->cpu0_L2C RFO          ACCESS:      48797 HIT:      19495 MISS:      29302 MSHR_MERGE:       1419
cpu0->cpu0_L2C PREFETCH     ACCESS:     751864 HIT:     357104 MISS:     394760 MSHR_MERGE:     201831
cpu0->cpu0_L2C WRITE        ACCESS:     116444 HIT:     116103 MISS:        341 MSHR_MERGE:          0
cpu0->cpu0_L2C TRANSLATION  ACCESS:        770 HIT:        214 MISS:        556 MSHR_MERGE:          0
cpu0->cpu0_L2C PREFETCH REQUESTED:     165115 ISSUED:     147404 USEFUL:      33275 USELESS:       3120 LATE:       6709 TOO_EARLY:        246
cpu0->cpu0_L2C AVERAGE MISS LATENCY: 241.9 cycles
cpu0->cpu0_L1I TOTAL        ACCESS:   13025894 HIT:   12289908 MISS:     735986 MSHR_MERGE:     290106
cpu0->cpu0_L1I LOAD         ACCESS:   13025894 HIT:   12289908 MISS:     735986 MSHR_MERGE:     290106
cpu0->cpu0_L1I RFO          ACCESS:          0 HIT:          0 MISS:          0 MSHR_MERGE:          0
cpu0->cpu0_L1I PREFETCH     ACCESS:          0 HIT:          0 MISS:          0 MSHR_MERGE:          0
cpu0->cpu0_L1I WRITE        ACCESS:          0 HIT:          0 MISS:          0 MSHR_MERGE:          0
cpu0->cpu0_L1I TRANSLATION  ACCESS:          0 HIT:          0 MISS:          0 MSHR_MERGE:          0
cpu0->cpu0_L1I PREFETCH REQUESTED:          0 ISSUED:          0 USEFUL:          0 USELESS:          0 LATE:          0 TOO_EARLY:          0
cpu0->cpu0_L1I AVERAGE MISS LATENCY: 8.511 cycles
cpu0->cpu0_L1D TOTAL        ACCESS:   21663319 HIT:   20331215 MISS:    1332104 MSHR_MERGE:     565650
cpu0->cpu0_L1D LOAD         ACCESS:   11607940 HIT:   11419357 MISS:     188583 MSHR_MERGE:      84813
cpu0->cpu0_L1D RFO          ACCESS:          0 HIT:          0 MISS:          0 MSHR_MERGE:          0
cpu0->cpu0_L1D PREFETCH     ACCESS:    3399394 HIT:    2778896 MISS:     620498 MSHR_MERGE:       7395
cpu0->cpu0_L1D WRITE        ACCESS:    6651041 HIT:    6128926 MISS:     522115 MSHR_MERGE:     473304
cpu0->cpu0_L1D TRANSLATION  ACCESS:       4944 HIT:       4036 MISS:        908 MSHR_MERGE:        138
cpu0->cpu0_L1D PREFETCH REQUESTED:   23300727 ISSUED:    3399394 USEFUL:     134531 USELESS:      12828 LATE:      11223 TOO_EARLY:       2359
cpu0->cpu0_L1D AVERAGE MISS LATENCY: 139.2 cycles
cpu0->cpu0_ITLB TOTAL        ACCESS:   10803760 HIT:   10800303 MISS:       3457 MSHR_MERGE:       2436
cpu0->cpu0_ITLB LOAD         ACCESS:   10803760 HIT:   10800303 MISS:       3457 MSHR_MERGE:       2436
cpu0->cpu0_ITLB RFO          ACCESS:          0 HIT:          0 MISS:          0 MSHR_MERGE:          0
cpu0->cpu0_ITLB PREFETCH     ACCESS:          0 HIT:          0 MISS:          0 MSHR_MERGE:          0
cpu0->cpu0_ITLB WRITE        ACCESS:          0 HIT:          0 MISS:          0 MSHR_MERGE:          0
cpu0->cpu0_ITLB TRANSLATION  ACCESS:          0 HIT:          0 MISS:          0 MSHR_MERGE:          0
cpu0->cpu0_ITLB PREFETCH REQUESTED:          0 ISSUED:          0 USEFUL:          0 USELESS:          0 LATE:          0 TOO_EARLY:          0
cpu0->cpu0_ITLB AVERAGE MISS LATENCY: 22.96 cycles
cpu0->cpu0_DTLB TOTAL        ACCESS:   19360394 HIT:   19157710 MISS:     202684 MSHR_MERGE:      96888
cpu0->cpu0_DTLB LOAD         ACCESS:   19360394 HIT:   19157710 MISS:     202684 MSHR_MERGE:      96888
cpu0->cpu0_DTLB RFO          ACCESS:          0 HIT:          0 MISS:          0 MSHR_MERGE:          0
cpu0->cpu0_DTLB PREFETCH     ACCESS:          0 HIT:          0 MISS:          0 MSHR_MERGE:          0
cpu0->cpu0_DTLB WRITE        ACCESS:          0 HIT:          0 MISS:          0 MSHR_MERGE:          0
cpu0->cpu0_DTLB TRANSLATION  ACCESS:          0 HIT:          0 MISS:          0 MSHR_MERGE:          0
cpu0->cpu0_DTLB PREFETCH REQUESTED:          0 ISSUED:          0 USEFUL:          0 USELESS:          0 LATE:          0 TOO_EARLY:          0
cpu0->cpu0_DTLB AVERAGE MISS LATENCY: 11.63 cycles
cpu0->LLC TOTAL        ACCESS:     353840 HIT:     119401 MISS:     234439 MSHR_MERGE:      15323
cpu0->LLC LOAD         ACCESS:      39471 HIT:      12783 MISS:      26688 MSHR_MERGE:       1411
cpu0->LLC RFO          ACCESS:      27883 HIT:        815 MISS:      27068 MSHR_MERGE:         21
cpu0->LLC PREFETCH     ACCESS:     192919 HIT:      50048 MISS:     142871 MSHR_MERGE:      13891
cpu0->LLC WRITE        ACCESS:      93011 HIT:      55681 MISS:      37330 MSHR_MERGE:          0
cpu0->LLC TRANSLATION  ACCESS:        556 HIT:         74 MISS:        482 MSHR_MERGE:          0
cpu0->LLC PREFETCH REQUESTED:          0 ISSUED:          0 USEFUL:          0 USELESS:          0 LATE:          0 TOO_EARLY:          0
cpu0->LLC AVERAGE MISS LATENCY: 164.5 cycles

DRAM Statistics

Channel 0 RQ ROW_BUFFER_HIT:       8610
  ROW_BUFFER_MISS:     173091
  AVG DBUS CONGESTED CYCLE: 8.18
Channel 0 WQ ROW_BUFFER_HIT:       8275
  ROW_BUFFER_MISS:      69798
  FULL:         16
Channel 0 REFRESHES ISSUED:       2673

[ROI Statistics]
[System Configuration]
num_cpus 1
cpu_freq 4000
fetch_width 6
decode_width 6
dispatch_width 6
execute_width 6
lq_width 2
sq_width 2
retire_width 6
scheduler_size 128
branch_mispredict_penalty 15
rob_size 352
lq_size 128
sq_size 72
ifetch_buffer_size 64
decode_buffer_size 32
dispatch_buffer_size 32
register_file_size 288
decode_latency 1
dispatch_latency 1
schedule_latency 1
execute_latency 1
page_size 4096
block_size 64
core_0_itlb_set 16
core_0_itlb_way 4
core_0_itlb_rq_size 16
core_0_itlb_wq_size 16
core_0_itlb_pq_size 0
core_0_itlb_mshr_size 8
core_0_itlb_hit_latency 1
core_0_itlb_fill_latency 1
core_0_itlb_max_tag_check 2
core_0_itlb_max_fill 2
core_0_dtlb_set 16
core_0_dtlb_way 4
core_0_dtlb_rq_size 16
core_0_dtlb_wq_size 16
core_0_dtlb_pq_size 0
core_0_dtlb_mshr_size 8
core_0_dtlb_hit_latency 1
core_0_dtlb_fill_latency 1
core_0_dtlb_max_tag_check 2
core_0_dtlb_max_fill 2
core_0_stlb_set 128
core_0_stlb_way 12
core_0_stlb_rq_size 32
core_0_stlb_wq_size 32
core_0_stlb_pq_size 0
core_0_stlb_mshr_size 16
core_0_stlb_hit_latency 4
core_0_stlb_fill_latency 4
core_0_stlb_max_tag_check 1
core_0_stlb_max_fill 1
core_0_l1i_set 64
core_0_l1i_way 8
core_0_l1i_rq_size 64
core_0_l1i_wq_size 64
core_0_l1i_pq_size 32
core_0_l1i_mshr_size 8
core_0_l1i_hit_latency 2
core_0_l1i_fill_latency 2
core_0_l1i_max_tag_check 2
core_0_l1i_max_fill 2
core_0_l1d_set 64
core_0_l1d_way 12
core_0_l1d_rq_size 64
core_0_l1d_wq_size 64
core_0_l1d_pq_size 8
core_0_l1d_mshr_size 16
core_0_l1d_hit_latency 2
core_0_l1d_fill_latency 3
core_0_l1d_max_tag_check 2
core_0_l1d_max_fill 2
core_0_l2c_set 1024
core_0_l2c_way 8
core_0_l2c_rq_size 32
core_0_l2c_wq_size 32
core_0_l2c_pq_size 16
core_0_l2c_mshr_size 32
core_0_l2c_hit_latency 5
core_0_l2c_fill_latency 5
core_0_l2c_max_tag_check 1
core_0_l2c_max_fill 1
llc_set 2048
llc_way 16
llc_rq_size 32
llc_wq_size 32
llc_pq_size 32
llc_mshr_size 64
llc_hit_latency 10
llc_fill_latency 10
llc_max_tag_check 1
llc_max_fill 1
dram_channels 1
dram_ranks 1
dram_bankgroups 8
dram_banks 4
dram_rows 65536
dram_columns 1024
dram_channel_width 8
dram_rq_size 64
dram_wq_size 64
dram_size 17179869184
core_0_itlb_prefetcher no
core_0_dtlb_prefetcher no
core_0_stlb_prefetcher no
core_0_l1i_prefetcher next_line
core_0_l1d_prefetcher vberti
core_0_l2c_prefetcher ip_stride
llc_prefetcher no
llc_replacement drrip

Core_0_instructions 100000003
Core_0_cycles 32076062
Core_0_IPC 3.11759
Core_0_branch_prediction_accuracy 95.8318
Core_0_branch_MPKI 1.67824
Core_0_average_ROB_occupancy_at_mispredict 62.0967

Core_0_ITLB_total_access 10803760
Core_0_ITLB_total_hit 10800303
Core_0_ITLB_total_miss 3457
Core_0_ITLB_total_MPKI 0.03457
Core_0_ITLB_total_miss_rate 0.000319981
Core_0_ITLB_demand_access 10803760
Core_0_ITLB_demand_hit 10800303
Core_0_ITLB_demand_miss 3457
Core_0_ITLB_demand_MPKI 0.03457
Core_0_ITLB_demand_miss_rate 0.000319981
Core_0_ITLB_load_access 10803760
Core_0_ITLB_load_hit 10800303
Core_0_ITLB_load_miss 3457
Core_0_ITLB_load_MPKI 0.03457
Core_0_ITLB_load_miss_rate 0.000319981
Core_0_ITLB_rfo_access 0
Core_0_ITLB_rfo_hit 0
Core_0_ITLB_rfo_miss 0
Core_0_ITLB_rfo_MPKI 0
Core_0_ITLB_rfo_miss_rate 0
Core_0_ITLB_prefetch_access 0
Core_0_ITLB_prefetch_hit 0
Core_0_ITLB_prefetch_miss 0
Core_0_ITLB_prefetch_MPKI 0
Core_0_ITLB_prefetch_miss_rate 0
Core_0_ITLB_writeback_access 0
Core_0_ITLB_writeback_hit 0
Core_0_ITLB_writeback_miss 0
Core_0_ITLB_writeback_MPKI 0
Core_0_ITLB_writeback_miss_rate 0
Core_0_ITLB_prefetch_requested 0
Core_0_ITLB_prefetch_issued 0
Core_0_ITLB_prefetch_useful 0
Core_0_ITLB_prefetch_useless 0
Core_0_ITLB_prefetch_late 0
Core_0_ITLB_prefetch_fill 0
Core_0_ITLB_prefetch_too_early 0
Core_0_ITLB_prefetch_too_early_among_fill 0
Core_0_ITLB_prefetch_too_early_among_useless 0
Core_0_ITLB_prefetch_pollution_evict 0
Core_0_ITLB_prefetch_pollution_demand 0
Core_0_ITLB_prefetch_pollution_among_prefetch_fill 0
Core_0_ITLB_prefetch_accuracy 0
Core_0_ITLB_prefetch_coverage 0

Core_0_DTLB_total_access 19360394
Core_0_DTLB_total_hit 19157710
Core_0_DTLB_total_miss 202684
Core_0_DTLB_total_MPKI 2.02684
Core_0_DTLB_total_miss_rate 0.010469
Core_0_DTLB_demand_access 19360394
Core_0_DTLB_demand_hit 19157710
Core_0_DTLB_demand_miss 202684
Core_0_DTLB_demand_MPKI 2.02684
Core_0_DTLB_demand_miss_rate 0.010469
Core_0_DTLB_load_access 19360394
Core_0_DTLB_load_hit 19157710
Core_0_DTLB_load_miss 202684
Core_0_DTLB_load_MPKI 2.02684
Core_0_DTLB_load_miss_rate 0.010469
Core_0_DTLB_rfo_access 0
Core_0_DTLB_rfo_hit 0
Core_0_DTLB_rfo_miss 0
Core_0_DTLB_rfo_MPKI 0
Core_0_DTLB_rfo_miss_rate 0
Core_0_DTLB_prefetch_access 0
Core_0_DTLB_prefetch_hit 0
Core_0_DTLB_prefetch_miss 0
Core_0_DTLB_prefetch_MPKI 0
Core_0_DTLB_prefetch_miss_rate 0
Core_0_DTLB_writeback_access 0
Core_0_DTLB_writeback_hit 0
Core_0_DTLB_writeback_miss 0
Core_0_DTLB_writeback_MPKI 0
Core_0_DTLB_writeback_miss_rate 0
Core_0_DTLB_prefetch_requested 0
Core_0_DTLB_prefetch_issued 0
Core_0_DTLB_prefetch_useful 0
Core_0_DTLB_prefetch_useless 0
Core_0_DTLB_prefetch_late 0
Core_0_DTLB_prefetch_fill 0
Core_0_DTLB_prefetch_too_early 0
Core_0_DTLB_prefetch_too_early_among_fill 0
Core_0_DTLB_prefetch_too_early_among_useless 0
Core_0_DTLB_prefetch_pollution_evict 0
Core_0_DTLB_prefetch_pollution_demand 0
Core_0_DTLB_prefetch_pollution_among_prefetch_fill 0
Core_0_DTLB_prefetch_accuracy 0
Core_0_DTLB_prefetch_coverage 0

Core_0_STLB_total_access 106817
Core_0_STLB_total_hit 104289
Core_0_STLB_total_miss 2528
Core_0_STLB_total_MPKI 0.02528
Core_0_STLB_total_miss_rate 0.0236666
Core_0_STLB_demand_access 106817
Core_0_STLB_demand_hit 104289
Core_0_STLB_demand_miss 2528
Core_0_STLB_demand_MPKI 0.02528
Core_0_STLB_demand_miss_rate 0.0236666
Core_0_STLB_load_access 106817
Core_0_STLB_load_hit 104289
Core_0_STLB_load_miss 2528
Core_0_STLB_load_MPKI 0.02528
Core_0_STLB_load_miss_rate 0.0236666
Core_0_STLB_rfo_access 0
Core_0_STLB_rfo_hit 0
Core_0_STLB_rfo_miss 0
Core_0_STLB_rfo_MPKI 0
Core_0_STLB_rfo_miss_rate 0
Core_0_STLB_prefetch_access 0
Core_0_STLB_prefetch_hit 0
Core_0_STLB_prefetch_miss 0
Core_0_STLB_prefetch_MPKI 0
Core_0_STLB_prefetch_miss_rate 0
Core_0_STLB_writeback_access 0
Core_0_STLB_writeback_hit 0
Core_0_STLB_writeback_miss 0
Core_0_STLB_writeback_MPKI 0
Core_0_STLB_writeback_miss_rate 0
Core_0_STLB_prefetch_requested 0
Core_0_STLB_prefetch_issued 0
Core_0_STLB_prefetch_useful 0
Core_0_STLB_prefetch_useless 0
Core_0_STLB_prefetch_late 0
Core_0_STLB_prefetch_fill 0
Core_0_STLB_prefetch_too_early 0
Core_0_STLB_prefetch_too_early_among_fill 0
Core_0_STLB_prefetch_too_early_among_useless 0
Core_0_STLB_prefetch_pollution_evict 0
Core_0_STLB_prefetch_pollution_demand 0
Core_0_STLB_prefetch_pollution_among_prefetch_fill 0
Core_0_STLB_prefetch_accuracy 0
Core_0_STLB_prefetch_coverage 0

Core_0_L1I_total_access 13025894
Core_0_L1I_total_hit 12289908
Core_0_L1I_total_miss 735986
Core_0_L1I_total_MPKI 7.35986
Core_0_L1I_total_miss_rate 0.0565018
Core_0_L1I_demand_access 13025894
Core_0_L1I_demand_hit 12289908
Core_0_L1I_demand_miss 735986
Core_0_L1I_demand_MPKI 7.35986
Core_0_L1I_demand_miss_rate 0.0565018
Core_0_L1I_load_access 13025894
Core_0_L1I_load_hit 12289908
Core_0_L1I_load_miss 735986
Core_0_L1I_load_MPKI 7.35986
Core_0_L1I_load_miss_rate 0.0565018
Core_0_L1I_rfo_access 0
Core_0_L1I_rfo_hit 0
Core_0_L1I_rfo_miss 0
Core_0_L1I_rfo_MPKI 0
Core_0_L1I_rfo_miss_rate 0
Core_0_L1I_prefetch_access 0
Core_0_L1I_prefetch_hit 0
Core_0_L1I_prefetch_miss 0
Core_0_L1I_prefetch_MPKI 0
Core_0_L1I_prefetch_miss_rate 0
Core_0_L1I_writeback_access 0
Core_0_L1I_writeback_hit 0
Core_0_L1I_writeback_miss 0
Core_0_L1I_writeback_MPKI 0
Core_0_L1I_writeback_miss_rate 0
Core_0_L1I_prefetch_requested 0
Core_0_L1I_prefetch_issued 0
Core_0_L1I_prefetch_useful 0
Core_0_L1I_prefetch_useless 0
Core_0_L1I_prefetch_late 0
Core_0_L1I_prefetch_fill 0
Core_0_L1I_prefetch_too_early 0
Core_0_L1I_prefetch_too_early_among_fill 0
Core_0_L1I_prefetch_too_early_among_useless 0
Core_0_L1I_prefetch_pollution_evict 0
Core_0_L1I_prefetch_pollution_demand 0
Core_0_L1I_prefetch_pollution_among_prefetch_fill 0
Core_0_L1I_prefetch_accuracy 0
Core_0_L1I_prefetch_coverage 0

Core_0_L1D_total_access 21658375
Core_0_L1D_total_hit 20327179
Core_0_L1D_total_miss 1331196
Core_0_L1D_total_MPKI 13.312
Core_0_L1D_total_miss_rate 0.0614633
Core_0_L1D_demand_access 11607940
Core_0_L1D_demand_hit 11419357
Core_0_L1D_demand_miss 188583
Core_0_L1D_demand_MPKI 1.88583
Core_0_L1D_demand_miss_rate 0.016246
Core_0_L1D_load_access 11607940
Core_0_L1D_load_hit 11419357
Core_0_L1D_load_miss 188583
Core_0_L1D_load_MPKI 1.88583
Core_0_L1D_load_miss_rate 0.016246
Core_0_L1D_rfo_access 0
Core_0_L1D_rfo_hit 0
Core_0_L1D_rfo_miss 0
Core_0_L1D_rfo_MPKI 0
Core_0_L1D_rfo_miss_rate 0
Core_0_L1D_prefetch_access 3399394
Core_0_L1D_prefetch_hit 2778896
Core_0_L1D_prefetch_miss 620498
Core_0_L1D_prefetch_MPKI 6.20498
Core_0_L1D_prefetch_miss_rate 0.182532
Core_0_L1D_writeback_access 6651041
Core_0_L1D_writeback_hit 6128926
Core_0_L1D_writeback_miss 522115
Core_0_L1D_writeback_MPKI 5.22115
Core_0_L1D_writeback_miss_rate 0.0785012
Core_0_L1D_prefetch_requested 23300727
Core_0_L1D_prefetch_issued 3399394
Core_0_L1D_prefetch_useful 134531
Core_0_L1D_prefetch_useless 12828
Core_0_L1D_prefetch_late 11223
Core_0_L1D_prefetch_fill 136120
Core_0_L1D_prefetch_too_early 2359
Core_0_L1D_prefetch_too_early_among_fill 0.0173303
Core_0_L1D_prefetch_too_early_among_useless 0.183895
Core_0_L1D_prefetch_pollution_evict 3137
Core_0_L1D_prefetch_pollution_demand 3064
Core_0_L1D_prefetch_pollution_among_prefetch_fill 0.0230458
Core_0_L1D_prefetch_accuracy 0.039575
Core_0_L1D_prefetch_coverage 0.416358

Core_0_L2C_total_access 1466754
Core_0_L2C_total_hit 992093
Core_0_L2C_total_miss 474661
Core_0_L2C_total_MPKI 4.74661
Core_0_L2C_total_miss_rate 0.323613
Core_0_L2C_demand_access 598446
Core_0_L2C_demand_hit 518886
Core_0_L2C_demand_miss 79560
Core_0_L2C_demand_MPKI 0.7956
Core_0_L2C_demand_miss_rate 0.132944
Core_0_L2C_load_access 549649
Core_0_L2C_load_hit 499391
Core_0_L2C_load_miss 50258
Core_0_L2C_load_MPKI 0.50258
Core_0_L2C_load_miss_rate 0.0914365
Core_0_L2C_rfo_access 48797
Core_0_L2C_rfo_hit 19495
Core_0_L2C_rfo_miss 29302
Core_0_L2C_rfo_MPKI 0.29302
Core_0_L2C_rfo_miss_rate 0.600488
Core_0_L2C_prefetch_access 751864
Core_0_L2C_prefetch_hit 357104
Core_0_L2C_prefetch_miss 394760
Core_0_L2C_prefetch_MPKI 3.9476
Core_0_L2C_prefetch_miss_rate 0.525042
Core_0_L2C_writeback_access 116444
Core_0_L2C_writeback_hit 116103
Core_0_L2C_writeback_miss 341
Core_0_L2C_writeback_MPKI 0.00341
Core_0_L2C_writeback_miss_rate 0.00292845
Core_0_L2C_prefetch_requested 165115
Core_0_L2C_prefetch_issued 147404
Core_0_L2C_prefetch_useful 33275
Core_0_L2C_prefetch_useless 3120
Core_0_L2C_prefetch_late 6709
Core_0_L2C_prefetch_fill 158991
Core_0_L2C_prefetch_too_early 246
Core_0_L2C_prefetch_too_early_among_fill 0.00154726
Core_0_L2C_prefetch_too_early_among_useless 0.0788462
Core_0_L2C_prefetch_pollution_evict 6619
Core_0_L2C_prefetch_pollution_demand 6573
Core_0_L2C_prefetch_pollution_among_prefetch_fill 0.0416313
Core_0_L2C_prefetch_accuracy 0.22574
Core_0_L2C_prefetch_coverage 0.2949

Core_0_LLC_total_access 353284
Core_0_LLC_total_hit 119327
Core_0_LLC_total_miss 233957
Core_0_LLC_total_MPKI 2.33957
Core_0_LLC_total_miss_rate 0.662235
Core_0_LLC_demand_access 67354
Core_0_LLC_demand_hit 13598
Core_0_LLC_demand_miss 53756
Core_0_LLC_demand_MPKI 0.53756
Core_0_LLC_demand_miss_rate 0.798111
Core_0_LLC_load_access 39471
Core_0_LLC_load_hit 12783
Core_0_LLC_load_miss 26688
Core_0_LLC_load_MPKI 0.26688
Core_0_LLC_load_miss_rate 0.676142
Core_0_LLC_rfo_access 27883
Core_0_LLC_rfo_hit 815
Core_0_LLC_rfo_miss 27068
Core_0_LLC_rfo_MPKI 0.27068
Core_0_LLC_rfo_miss_rate 0.970771
Core_0_LLC_prefetch_access 192919
Core_0_LLC_prefetch_hit 50048
Core_0_LLC_prefetch_miss 142871
Core_0_LLC_prefetch_MPKI 1.42871
Core_0_LLC_prefetch_miss_rate 0.740575
Core_0_LLC_writeback_access 93011
Core_0_LLC_writeback_hit 55681
Core_0_LLC_writeback_miss 37330
Core_0_LLC_writeback_MPKI 0.3733
Core_0_LLC_writeback_miss_rate 0.40135
Core_0_LLC_prefetch_requested 0
Core_0_LLC_prefetch_issued 0
Core_0_LLC_prefetch_useful 0
Core_0_LLC_prefetch_useless 0
Core_0_LLC_prefetch_late 0
Core_0_LLC_prefetch_fill 127548
Core_0_LLC_prefetch_too_early 0
Core_0_LLC_prefetch_too_early_among_fill 0
Core_0_LLC_prefetch_too_early_among_useless 0
Core_0_LLC_prefetch_pollution_evict 3070
Core_0_LLC_prefetch_pollution_demand 3070
Core_0_LLC_prefetch_pollution_among_prefetch_fill 0.0240694
Core_0_LLC_prefetch_accuracy 0
Core_0_LLC_prefetch_coverage 0

[DRAM Statistics]
Channel_0_RQ_row_buffer_hit 8610
Channel_0_RQ_row_buffer_miss 173091
Channel_0_WQ_row_buffer_hit 8275
Channel_0_WQ_row_buffer_miss 69798
Channel_0_WQ_full 16
Channel_0_dbus_congested 696201
DRAM_total_RQ_row_buffer_hit 8610
DRAM_total_RQ_row_buffer_miss 173091
DRAM_total_WQ_row_buffer_hit 8275
DRAM_total_WQ_row_buffer_miss 69798
DRAM_total_WQ_full 16
DRAM_total_dbus_congested 696201
DRAM_avg_congested_cycle 8.17986

====== DRAM_RQ_TRAFFIC ========
DRAM_RQ_READ_TRAFFIC_BREAKDOWN:
data_demand_read.count = 49616
data_demand_read.share = 27.29%

inst_demand_read.count = 2708
inst_demand_read.share = 1.49%

cache_inst_prefetch.count = 0
cache_inst_prefetch.share = 0.00%

cache_data_prefetch.count = 128980
cache_data_prefetch.share = 70.95%

stlb_data_demand.count = 230
stlb_data_demand.share = 0.13%

stlb_inst_demand.count = 40
stlb_inst_demand.share = 0.02%

stlb_l1i_pref.count = 0
stlb_l1i_pref.share = 0.00%

stlb_l1d_pref.count = 212
stlb_l1d_pref.share = 0.12%

DRAM_RQ_READ_TRAFFIC_SUMMARY:
cache_demand.count = 52324
cache_demand.share = 28.78%

cache_prefetch.count = 128980
cache_prefetch.share = 70.95%

stlb_demand.count = 270
stlb_demand.share = 0.15%

stlb_prefetch.count = 212
stlb_prefetch.share = 0.12%

DRAM_RQ_READ_TRAFFIC_DEBUG:
total_classified_read.count = 181786
unclassified_read.count = 0
total_read_with_other.count = 181786

classified_plus_unclassified_check.count = 181786
dram_rq_read_total_observed.count = 181786
dram_rq_read_total_observed.per_1K_instructions = 1.81786

STLB_MISS_PTW_DRAM_TOUCH_BREAKDOWN:
stlb_miss_total.count = 2528

stlb_miss_touch_dram.count = 484
stlb_miss_touch_dram.share = 19.15%

stlb_miss_no_dram_touch.count = 2044
stlb_miss_no_dram_touch.share = 80.85%

STLB_MISS_PTW_DRAM_TOUCH_DEBUG:
stlb_miss_touch_plus_no_touch.count = 2528
stlb_miss_total_check.count = 2528

======STLB miss causes ========
Core_0_STLB_miss_cause_breakdown
Core_0_STLB_cause_Demand_Data_miss 859
Core_0_STLB_cause_Demand_Data_miss_rate 0.00804179
Core_0_STLB_cause_Demand_Instruction_miss 82
Core_0_STLB_cause_Demand_Instruction_miss_rate 0.000767668
Core_0_STLB_cause_L1D_Prefetch_miss 1587
Core_0_STLB_cause_L1D_Prefetch_miss_rate 0.0148572
Core_0_STLB_cause_L1D_Prefetch_Same_Page_miss 0
Core_0_STLB_cause_L1D_Prefetch_Same_Page_miss_rate 0
Core_0_STLB_cause_L1D_Prefetch_Cross_Page_miss 1587
Core_0_STLB_cause_L1D_Prefetch_Cross_Page_miss_rate 0.0148572
Core_0_STLB_cause_L1I_Prefetch_miss 0
Core_0_STLB_cause_L1I_Prefetch_miss_rate 0
Core_0_STLB_cause_Other_miss 0
Core_0_STLB_cause_Other_miss_rate 0
Core_0_STLB_Demand_miss 941
Core_0_STLB_Demand_miss_rate 0.00880946
Core_0_STLB_L1D_Prefetch_miss 1587
Core_0_STLB_L1D_Prefetch_miss_rate 0.0148572
Core_0_STLB_Other_miss 0
Core_0_STLB_Other_miss_rate 0

========== vBerti-TLB Cross-page Flow Stats ==========

Core_0_vBerti_Requested 23300727
Core_0_vBerti_Cross_page_prefetch_in_Requested 6178767
Core_0_vBerti_Same_page_prefetch_in_Requested 17121960
Core_0_vBerti_Cross_page_prefetch_of_Requested 0.265175
Core_0_vBerti_Issued 3399394
Core_0_vBerti_PQ_Drop_Rate 0.854108
Core_0_vBerti_InPQ_Cross_page_prefetch_of_Requested 0.059128
Core_0_vBerti_Cross_page_PQ_Drop_rate 0.777023
Core_0_vBerti_Cross_page_prefetch_of_Issued 0.405285

========= DTLB_vBerti Prefetch Stats =========
Core_0_DTLB_demand_access 16906664
Core_0_DTLB_demand_hit 16745750
Core_0_DTLB_demand_miss 160914
Core_0_DTLB_demand_mshr_merge 79440
Core_0_DTLB_demand_fill 82323
Core_0_DTLB_demand_miss_rate 0.00951779
Core_0_DTLB_demand_mpki 1.60914
Core_0_DTLB_vberti_prefetch_access 2453730
Core_0_DTLB_vberti_prefetch_hit 2411960
Core_0_DTLB_vberti_prefetch_miss 41770
Core_0_DTLB_vberti_prefetch_mshr_merge 17448
Core_0_DTLB_vberti_prefetch_fill 23473
Core_0_DTLB_vberti_prefetch_miss_rate 0.0170231
Core_0_DTLB_vberti_prefetch_mpki 0.4177

=== DTLB_vBerti Same/Cross-page Prefetch Stats ===
Core_0_DTLB_vberti_same_page_prefetch 1283356
Core_0_DTLB_vberti_same_page_prefetch_hit 1283356
Core_0_DTLB_vberti_same_page_prefetch_miss 0
Core_0_DTLB_vberti_same_page_prefetch_mshr_merge 0
Core_0_DTLB_vberti_same_page_prefetch_fill 0
Core_0_DTLB_vberti_same_page_prefetch_miss_rate 0
Core_0_DTLB_vberti_same_page_prefetch_mpki 0
Core_0_DTLB_vberti_cross_page_prefetch 1170374
Core_0_DTLB_vberti_cross_page_prefetch_hit 1128604
Core_0_DTLB_vberti_cross_page_prefetch_miss 41770
Core_0_DTLB_vberti_cross_page_prefetch_mshr_merge 17448
Core_0_DTLB_vberti_cross_page_prefetch_fill 23473
Core_0_DTLB_vberti_cross_page_prefetch_miss_rate 0.0356894
Core_0_DTLB_vberti_cross_page_prefetch_mpki 0.4177
Core_0_DTLB_same_page_prefetch_miss_rate 0
Core_0_DTLB_same_page_prefetch_mpki 0
Core_0_DTLB_cross_page_prefetch_miss_rate 0.0356894
Core_0_DTLB_cross_page_prefetch_mpki 0.4177
Core_0_DTLB_cross_page_prefetch_issued 1170374
Core_0_DTLB_cross_page_prefetch_lookups 1170374
Core_0_DTLB_cross_page_prefetch_useful 15967
Core_0_DTLB_cross_page_prefetch_useless 8355
Core_0_DTLB_cross_page_prefetch_late 849
Core_0_DTLB_cross_page_prefetch_too_early 735
Core_0_DTLB_cross_page_prefetch_too_early_among_fill 0.0313126
Core_0_DTLB_cross_page_prefetch_too_early_among_useless 0.0879713
Core_0_DTLB_cross_page_prefetch_pollution_evict 16209
Core_0_DTLB_cross_page_prefetch_pollution_demand 15472
Core_0_DTLB_cross_page_prefetch_pollution_among_prefetch_fill 0.690538
Core_0_DTLB_cross_page_prefetch_accuracy 0.0136426
Core_0_DTLB_cross_page_prefetch_coverage 0.0902697

========= STLB_vBerti Prefetch Stats =========
Core_0_STLB_demand_access 82495
Core_0_STLB_demand_hit 81554
Core_0_STLB_demand_miss 941
Core_0_STLB_demand_mshr_merge 0
Core_0_STLB_demand_fill 941
Core_0_STLB_demand_miss_rate 0.0114068
Core_0_STLB_demand_mpki 0.00941
Core_0_STLB_vberti_prefetch_access 24322
Core_0_STLB_vberti_prefetch_hit 22735
Core_0_STLB_vberti_prefetch_miss 1587
Core_0_STLB_vberti_prefetch_mshr_merge 0
Core_0_STLB_vberti_prefetch_fill 1587
Core_0_STLB_vberti_prefetch_miss_rate 0.0652496
Core_0_STLB_vberti_prefetch_mpki 0.01587

=== STLB_vBerti Same/Cross-page Prefetch Stats ===
Core_0_STLB_vberti_same_page_prefetch 0
Core_0_STLB_vberti_same_page_prefetch_hit 0
Core_0_STLB_vberti_same_page_prefetch_miss 0
Core_0_STLB_vberti_same_page_prefetch_mshr_merge 0
Core_0_STLB_vberti_same_page_prefetch_fill 0
Core_0_STLB_vberti_same_page_prefetch_miss_rate 0
Core_0_STLB_vberti_same_page_prefetch_mpki 0
Core_0_STLB_vberti_cross_page_prefetch 24322
Core_0_STLB_vberti_cross_page_prefetch_hit 22735
Core_0_STLB_vberti_cross_page_prefetch_miss 1587
Core_0_STLB_vberti_cross_page_prefetch_mshr_merge 0
Core_0_STLB_vberti_cross_page_prefetch_fill 1587
Core_0_STLB_vberti_cross_page_prefetch_miss_rate 0.0652496
Core_0_STLB_vberti_cross_page_prefetch_mpki 0.01587
Core_0_STLB_same_page_prefetch_miss_rate 0
Core_0_STLB_same_page_prefetch_mpki 0
Core_0_STLB_cross_page_prefetch_miss_rate 0.0652496
Core_0_STLB_cross_page_prefetch_mpki 0.01587
Core_0_STLB_cross_page_prefetch_issued 24322
Core_0_STLB_cross_page_prefetch_lookups 24322
Core_0_STLB_cross_page_prefetch_useful 512
Core_0_STLB_cross_page_prefetch_useless 1075
Core_0_STLB_cross_page_prefetch_late 0
Core_0_STLB_cross_page_prefetch_too_early 0
Core_0_STLB_cross_page_prefetch_too_early_among_fill 0
Core_0_STLB_cross_page_prefetch_too_early_among_useless 0
Core_0_STLB_cross_page_prefetch_pollution_evict 44
Core_0_STLB_cross_page_prefetch_pollution_demand 44
Core_0_STLB_cross_page_prefetch_pollution_among_prefetch_fill 0.0277253
Core_0_STLB_cross_page_prefetch_accuracy 0.0210509
Core_0_STLB_cross_page_prefetch_coverage 0.352374

========= STLB Cross-page Prefetch Buffer Stats =========
Core_0_STLB_raw_demand_miss 859
Core_0_CP_PB_insert 0
Core_0_CP_PB_demand_hit 0
Core_0_STLB_PB_demand_miss 859
Core_0_CP_PB_coverage 0
Core_0_STLB_raw_demand_mpki 0.00859
Core_0_STLB_PB_demand_mpki 0.00859
Core_0_CP_PB_demand_hit_mpki 0

Core_0_TLB_demand_miss_rate 5.56585e-05
Core_0_TLB_demand_mpki 0.00941
Core_0_TLB_same_page_prefetch_miss_rate 0
Core_0_TLB_same_page_prefetch_mpki 0
Core_0_TLB_cross_page_prefetch_miss_rate 0.00135598
Core_0_TLB_cross_page_prefetch_mpki 0.01587
Core_0_TLB_cross_page_prefetch_issued 1170374
Core_0_TLB_cross_page_prefetch_lookups 1170374
Core_0_TLB_cross_page_prefetch_useful 1903
Core_0_TLB_cross_page_prefetch_useless 2473
Core_0_TLB_cross_page_prefetch_late 162
Core_0_TLB_cross_page_prefetch_too_early 331
Core_0_TLB_cross_page_prefetch_too_early_among_fill 0.0132083
Core_0_TLB_cross_page_prefetch_too_early_among_useless 0.133846
Core_0_TLB_cross_page_prefetch_accuracy 0.00162598
Core_0_TLB_cross_page_prefetch_coverage 0.669128
BERTI TO_L1: 21270515 TO_L2: 10912389 TO_L2_BC_MSHR: 1686672
BERTI AVG_LAT: 139.713 NUM_TRACK_LATENCY: 368044 NUM_CANT_TRACK_LATENCY: 0
BERTI CROSS_PAGE 7917052 NO_CROSS_PAGE: 24265852
BERTI FOUND_BERTI: 7817818 NO_FOUND_BERTI: 18929681
BERTI AVERAGE_ISSUED: 2.5908
