[VMEM] WARNING: physical memory size is smaller than virtual memory size.

*** ChampSim Multicore Out-of-Order Simulator ***
Warmup Instructions: 50000000
Simulation Instructions: 100000000
Number of CPUs: 1
Page size: 4096
Core 0: /data0/tzh/champsim_traces/SPEC17/649.fotonik3d_s-8225B.champsimtrace.xz
VBerti Prefetcher
BERTI HASH ENTANGLING
BERTI IP MASK ffff
Off-chip DRAM Size: 16 GiB Channels: 1 Width: 64-bit Data Rate: 3205 MT/s
Warmup halting CPU 0 at instruction 50000000 cycle 10537124 for remainder of phase
Warmup finished CPU 0 instructions: 50000000 cycles: 10537124 cumulative IPC: 4.745 (Simulation time: 00 hr 02 min 42 sec)
Warmup complete CPU 0 instructions: 50000000 cycles: 10537124 cumulative IPC: 4.745 (Simulation time: 00 hr 02 min 42 sec)
Simulation finished CPU 0 instructions: 100000000 cycles: 45977378 cumulative IPC: 2.175 (Simulation time: 00 hr 12 min 51 sec)
Simulation complete CPU 0 instructions: 100000000 cycles: 45977378 cumulative IPC: 2.175 (Simulation time: 00 hr 12 min 51 sec)

ChampSim completed all CPUs

=== Simulation ===
CPU 0 runs /data0/tzh/champsim_traces/SPEC17/649.fotonik3d_s-8225B.champsimtrace.xz

Region of Interest Statistics

CPU 0 cumulative IPC: 2.175 instructions: 100000000 cycles: 45977378
CPU 0 Branch Prediction Accuracy: 99.98% MPKI: 0.00438 Average ROB Occupancy at Mispredict: 350.9
Branch type MPKI
BRANCH_DIRECT_JUMP: 0
BRANCH_INDIRECT: 0
BRANCH_CONDITIONAL: 0.00438
BRANCH_DIRECT_CALL: 0
BRANCH_INDIRECT_CALL: 0
BRANCH_RETURN: 0

cpu0->cpu0_STLB TOTAL        ACCESS:      23648 HIT:       9920 MISS:      13728 MSHR_MERGE:          0
cpu0->cpu0_STLB LOAD         ACCESS:      23648 HIT:       9920 MISS:      13728 MSHR_MERGE:          0
cpu0->cpu0_STLB RFO          ACCESS:          0 HIT:          0 MISS:          0 MSHR_MERGE:          0
cpu0->cpu0_STLB PREFETCH     ACCESS:          0 HIT:          0 MISS:          0 MSHR_MERGE:          0
cpu0->cpu0_STLB WRITE        ACCESS:          0 HIT:          0 MISS:          0 MSHR_MERGE:          0
cpu0->cpu0_STLB TRANSLATION  ACCESS:          0 HIT:          0 MISS:          0 MSHR_MERGE:          0
cpu0->cpu0_STLB PREFETCH REQUESTED:          0 ISSUED:          0 USEFUL:          0 USELESS:          0 LATE:          0 TOO_EARLY:          0
cpu0->cpu0_STLB AVERAGE MISS LATENCY: 273.2 cycles
cpu0->cpu0_L2C TOTAL        ACCESS:    4392105 HIT:    2594274 MISS:    1797831 MSHR_MERGE:     809369
cpu0->cpu0_L2C LOAD         ACCESS:     239038 HIT:     203656 MISS:      35382 MSHR_MERGE:      18456
cpu0->cpu0_L2C RFO          ACCESS:       1314 HIT:        974 MISS:        340 MSHR_MERGE:          0
cpu0->cpu0_L2C PREFETCH     ACCESS:    3270846 HIT:    1510534 MISS:    1760312 MSHR_MERGE:     790913
cpu0->cpu0_L2C WRITE        ACCESS:     878730 HIT:     878730 MISS:          0 MSHR_MERGE:          0
cpu0->cpu0_L2C TRANSLATION  ACCESS:       2177 HIT:        380 MISS:       1797 MSHR_MERGE:          0
cpu0->cpu0_L2C PREFETCH REQUESTED:     829713 ISSUED:     829180 USEFUL:     159231 USELESS:        906 LATE:       3898 TOO_EARLY:         27
cpu0->cpu0_L2C AVERAGE MISS LATENCY: 348.6 cycles
cpu0->cpu0_L1I TOTAL        ACCESS:   15446114 HIT:   15446114 MISS:          0 MSHR_MERGE:          0
cpu0->cpu0_L1I LOAD         ACCESS:   15446114 HIT:   15446114 MISS:          0 MSHR_MERGE:          0
cpu0->cpu0_L1I RFO          ACCESS:          0 HIT:          0 MISS:          0 MSHR_MERGE:          0
cpu0->cpu0_L1I PREFETCH     ACCESS:          0 HIT:          0 MISS:          0 MSHR_MERGE:          0
cpu0->cpu0_L1I WRITE        ACCESS:          0 HIT:          0 MISS:          0 MSHR_MERGE:          0
cpu0->cpu0_L1I TRANSLATION  ACCESS:          0 HIT:          0 MISS:          0 MSHR_MERGE:          0
cpu0->cpu0_L1I PREFETCH REQUESTED:          0 ISSUED:          0 USEFUL:          0 USELESS:          0 LATE:          0 TOO_EARLY:          0
cpu0->cpu0_L1I AVERAGE MISS LATENCY: - cycles
cpu0->cpu0_L1D TOTAL        ACCESS:   26256749 HIT:   23075089 MISS:    3181660 MSHR_MERGE:     474559
cpu0->cpu0_L1D LOAD         ACCESS:   14894827 HIT:   14191253 MISS:     703574 MSHR_MERGE:     464536
cpu0->cpu0_L1D RFO          ACCESS:          0 HIT:          0 MISS:          0 MSHR_MERGE:          0
cpu0->cpu0_L1D PREFETCH     ACCESS:    4313874 HIT:    1842666 MISS:    2471208 MSHR_MERGE:       6636
cpu0->cpu0_L1D WRITE        ACCESS:    7020548 HIT:    7015851 MISS:       4697 MSHR_MERGE:       3383
cpu0->cpu0_L1D TRANSLATION  ACCESS:      27500 HIT:      25319 MISS:       2181 MSHR_MERGE:          4
cpu0->cpu0_L1D PREFETCH REQUESTED:   26036513 ISSUED:    4313868 USEFUL:    1083019 USELESS:       7352 LATE:      57234 TOO_EARLY:       4377
cpu0->cpu0_L1D AVERAGE MISS LATENCY: 107.3 cycles
cpu0->cpu0_ITLB TOTAL        ACCESS:   12242321 HIT:   12242321 MISS:          0 MSHR_MERGE:          0
cpu0->cpu0_ITLB LOAD         ACCESS:   12242321 HIT:   12242321 MISS:          0 MSHR_MERGE:          0
cpu0->cpu0_ITLB RFO          ACCESS:          0 HIT:          0 MISS:          0 MSHR_MERGE:          0
cpu0->cpu0_ITLB PREFETCH     ACCESS:          0 HIT:          0 MISS:          0 MSHR_MERGE:          0
cpu0->cpu0_ITLB WRITE        ACCESS:          0 HIT:          0 MISS:          0 MSHR_MERGE:          0
cpu0->cpu0_ITLB TRANSLATION  ACCESS:          0 HIT:          0 MISS:          0 MSHR_MERGE:          0
cpu0->cpu0_ITLB PREFETCH REQUESTED:          0 ISSUED:          0 USEFUL:          0 USELESS:          0 LATE:          0 TOO_EARLY:          0
cpu0->cpu0_ITLB AVERAGE MISS LATENCY: - cycles
cpu0->cpu0_DTLB TOTAL        ACCESS:   22248580 HIT:   22143201 MISS:     105379 MSHR_MERGE:      81731
cpu0->cpu0_DTLB LOAD         ACCESS:   22248580 HIT:   22143201 MISS:     105379 MSHR_MERGE:      81731
cpu0->cpu0_DTLB RFO          ACCESS:          0 HIT:          0 MISS:          0 MSHR_MERGE:          0
cpu0->cpu0_DTLB PREFETCH     ACCESS:          0 HIT:          0 MISS:          0 MSHR_MERGE:          0
cpu0->cpu0_DTLB WRITE        ACCESS:          0 HIT:          0 MISS:          0 MSHR_MERGE:          0
cpu0->cpu0_DTLB TRANSLATION  ACCESS:          0 HIT:          0 MISS:          0 MSHR_MERGE:          0
cpu0->cpu0_DTLB PREFETCH REQUESTED:          0 ISSUED:          0 USEFUL:          0 USELESS:          0 LATE:          0 TOO_EARLY:          0
cpu0->cpu0_DTLB AVERAGE MISS LATENCY: 164.2 cycles
cpu0->LLC TOTAL        ACCESS:    1865455 HIT:     847401 MISS:    1018054 MSHR_MERGE:      23841
cpu0->LLC LOAD         ACCESS:      16926 HIT:       1664 MISS:      15262 MSHR_MERGE:        107
cpu0->LLC RFO          ACCESS:        340 HIT:        337 MISS:          3 MSHR_MERGE:          0
cpu0->LLC PREFETCH     ACCESS:     969370 HIT:      73335 MISS:     896035 MSHR_MERGE:      23734
cpu0->LLC WRITE        ACCESS:     877022 HIT:     772060 MISS:     104962 MSHR_MERGE:          0
cpu0->LLC TRANSLATION  ACCESS:       1797 HIT:          5 MISS:       1792 MSHR_MERGE:          0
cpu0->LLC PREFETCH REQUESTED:          0 ISSUED:          0 USEFUL:          0 USELESS:          0 LATE:          0 TOO_EARLY:          0
cpu0->LLC AVERAGE MISS LATENCY: 67.31 cycles

DRAM Statistics

Channel 0 RQ ROW_BUFFER_HIT:      40100
  ROW_BUFFER_MISS:     849143
  AVG DBUS CONGESTED CYCLE: 6.679
Channel 0 WQ ROW_BUFFER_HIT:     142303
  ROW_BUFFER_MISS:     734143
  FULL:          0
Channel 0 REFRESHES ISSUED:       3831

[ROI Statistics]
[System Configuration]
num_cpus 1
cpu_freq 4000
fetch_width 6
decode_width 6
dispatch_width 6
execute_width 6
lq_width 2
sq_width 2
retire_width 6
scheduler_size 128
branch_mispredict_penalty 15
rob_size 352
lq_size 128
sq_size 72
ifetch_buffer_size 64
decode_buffer_size 32
dispatch_buffer_size 32
register_file_size 288
decode_latency 1
dispatch_latency 1
schedule_latency 1
execute_latency 1
page_size 4096
block_size 64
core_0_itlb_set 16
core_0_itlb_way 4
core_0_itlb_rq_size 16
core_0_itlb_wq_size 16
core_0_itlb_pq_size 0
core_0_itlb_mshr_size 8
core_0_itlb_hit_latency 1
core_0_itlb_fill_latency 1
core_0_itlb_max_tag_check 2
core_0_itlb_max_fill 2
core_0_dtlb_set 16
core_0_dtlb_way 4
core_0_dtlb_rq_size 16
core_0_dtlb_wq_size 16
core_0_dtlb_pq_size 0
core_0_dtlb_mshr_size 8
core_0_dtlb_hit_latency 1
core_0_dtlb_fill_latency 1
core_0_dtlb_max_tag_check 2
core_0_dtlb_max_fill 2
core_0_stlb_set 128
core_0_stlb_way 12
core_0_stlb_rq_size 32
core_0_stlb_wq_size 32
core_0_stlb_pq_size 0
core_0_stlb_mshr_size 16
core_0_stlb_hit_latency 4
core_0_stlb_fill_latency 4
core_0_stlb_max_tag_check 1
core_0_stlb_max_fill 1
core_0_l1i_set 64
core_0_l1i_way 8
core_0_l1i_rq_size 64
core_0_l1i_wq_size 64
core_0_l1i_pq_size 32
core_0_l1i_mshr_size 8
core_0_l1i_hit_latency 2
core_0_l1i_fill_latency 2
core_0_l1i_max_tag_check 2
core_0_l1i_max_fill 2
core_0_l1d_set 64
core_0_l1d_way 12
core_0_l1d_rq_size 64
core_0_l1d_wq_size 64
core_0_l1d_pq_size 8
core_0_l1d_mshr_size 16
core_0_l1d_hit_latency 2
core_0_l1d_fill_latency 3
core_0_l1d_max_tag_check 2
core_0_l1d_max_fill 2
core_0_l2c_set 1024
core_0_l2c_way 8
core_0_l2c_rq_size 32
core_0_l2c_wq_size 32
core_0_l2c_pq_size 16
core_0_l2c_mshr_size 32
core_0_l2c_hit_latency 5
core_0_l2c_fill_latency 5
core_0_l2c_max_tag_check 1
core_0_l2c_max_fill 1
llc_set 2048
llc_way 16
llc_rq_size 32
llc_wq_size 32
llc_pq_size 32
llc_mshr_size 64
llc_hit_latency 10
llc_fill_latency 10
llc_max_tag_check 1
llc_max_fill 1
dram_channels 1
dram_ranks 1
dram_bankgroups 8
dram_banks 4
dram_rows 65536
dram_columns 1024
dram_channel_width 8
dram_rq_size 64
dram_wq_size 64
dram_size 17179869184
core_0_itlb_prefetcher no
core_0_dtlb_prefetcher no
core_0_stlb_prefetcher no
core_0_l1i_prefetcher next_line
core_0_l1d_prefetcher vberti
core_0_l2c_prefetcher ip_stride
llc_prefetcher no
llc_replacement drrip

Core_0_instructions 100000000
Core_0_cycles 45977378
Core_0_IPC 2.17498
Core_0_branch_prediction_accuracy 99.9751
Core_0_branch_MPKI 0.00438
Core_0_average_ROB_occupancy_at_mispredict 350.906

Core_0_ITLB_total_access 12242321
Core_0_ITLB_total_hit 12242321
Core_0_ITLB_total_miss 0
Core_0_ITLB_total_MPKI 0
Core_0_ITLB_total_miss_rate 0
Core_0_ITLB_demand_access 12242321
Core_0_ITLB_demand_hit 12242321
Core_0_ITLB_demand_miss 0
Core_0_ITLB_demand_MPKI 0
Core_0_ITLB_demand_miss_rate 0
Core_0_ITLB_load_access 12242321
Core_0_ITLB_load_hit 12242321
Core_0_ITLB_load_miss 0
Core_0_ITLB_load_MPKI 0
Core_0_ITLB_load_miss_rate 0
Core_0_ITLB_rfo_access 0
Core_0_ITLB_rfo_hit 0
Core_0_ITLB_rfo_miss 0
Core_0_ITLB_rfo_MPKI 0
Core_0_ITLB_rfo_miss_rate 0
Core_0_ITLB_prefetch_access 0
Core_0_ITLB_prefetch_hit 0
Core_0_ITLB_prefetch_miss 0
Core_0_ITLB_prefetch_MPKI 0
Core_0_ITLB_prefetch_miss_rate 0
Core_0_ITLB_writeback_access 0
Core_0_ITLB_writeback_hit 0
Core_0_ITLB_writeback_miss 0
Core_0_ITLB_writeback_MPKI 0
Core_0_ITLB_writeback_miss_rate 0
Core_0_ITLB_prefetch_requested 0
Core_0_ITLB_prefetch_issued 0
Core_0_ITLB_prefetch_useful 0
Core_0_ITLB_prefetch_useless 0
Core_0_ITLB_prefetch_late 0
Core_0_ITLB_prefetch_fill 0
Core_0_ITLB_prefetch_too_early 0
Core_0_ITLB_prefetch_too_early_among_fill 0
Core_0_ITLB_prefetch_too_early_among_useless 0
Core_0_ITLB_prefetch_pollution_evict 0
Core_0_ITLB_prefetch_pollution_demand 0
Core_0_ITLB_prefetch_pollution_among_prefetch_fill 0
Core_0_ITLB_prefetch_accuracy 0
Core_0_ITLB_prefetch_coverage 0

Core_0_DTLB_total_access 22248580
Core_0_DTLB_total_hit 22143201
Core_0_DTLB_total_miss 105379
Core_0_DTLB_total_MPKI 1.05379
Core_0_DTLB_total_miss_rate 0.00473644
Core_0_DTLB_demand_access 22248580
Core_0_DTLB_demand_hit 22143201
Core_0_DTLB_demand_miss 105379
Core_0_DTLB_demand_MPKI 1.05379
Core_0_DTLB_demand_miss_rate 0.00473644
Core_0_DTLB_load_access 22248580
Core_0_DTLB_load_hit 22143201
Core_0_DTLB_load_miss 105379
Core_0_DTLB_load_MPKI 1.05379
Core_0_DTLB_load_miss_rate 0.00473644
Core_0_DTLB_rfo_access 0
Core_0_DTLB_rfo_hit 0
Core_0_DTLB_rfo_miss 0
Core_0_DTLB_rfo_MPKI 0
Core_0_DTLB_rfo_miss_rate 0
Core_0_DTLB_prefetch_access 0
Core_0_DTLB_prefetch_hit 0
Core_0_DTLB_prefetch_miss 0
Core_0_DTLB_prefetch_MPKI 0
Core_0_DTLB_prefetch_miss_rate 0
Core_0_DTLB_writeback_access 0
Core_0_DTLB_writeback_hit 0
Core_0_DTLB_writeback_miss 0
Core_0_DTLB_writeback_MPKI 0
Core_0_DTLB_writeback_miss_rate 0
Core_0_DTLB_prefetch_requested 0
Core_0_DTLB_prefetch_issued 0
Core_0_DTLB_prefetch_useful 0
Core_0_DTLB_prefetch_useless 0
Core_0_DTLB_prefetch_late 0
Core_0_DTLB_prefetch_fill 0
Core_0_DTLB_prefetch_too_early 0
Core_0_DTLB_prefetch_too_early_among_fill 0
Core_0_DTLB_prefetch_too_early_among_useless 0
Core_0_DTLB_prefetch_pollution_evict 0
Core_0_DTLB_prefetch_pollution_demand 0
Core_0_DTLB_prefetch_pollution_among_prefetch_fill 0
Core_0_DTLB_prefetch_accuracy 0
Core_0_DTLB_prefetch_coverage 0

Core_0_STLB_total_access 23648
Core_0_STLB_total_hit 9920
Core_0_STLB_total_miss 13728
Core_0_STLB_total_MPKI 0.13728
Core_0_STLB_total_miss_rate 0.580514
Core_0_STLB_demand_access 23648
Core_0_STLB_demand_hit 9920
Core_0_STLB_demand_miss 13728
Core_0_STLB_demand_MPKI 0.13728
Core_0_STLB_demand_miss_rate 0.580514
Core_0_STLB_load_access 23648
Core_0_STLB_load_hit 9920
Core_0_STLB_load_miss 13728
Core_0_STLB_load_MPKI 0.13728
Core_0_STLB_load_miss_rate 0.580514
Core_0_STLB_rfo_access 0
Core_0_STLB_rfo_hit 0
Core_0_STLB_rfo_miss 0
Core_0_STLB_rfo_MPKI 0
Core_0_STLB_rfo_miss_rate 0
Core_0_STLB_prefetch_access 0
Core_0_STLB_prefetch_hit 0
Core_0_STLB_prefetch_miss 0
Core_0_STLB_prefetch_MPKI 0
Core_0_STLB_prefetch_miss_rate 0
Core_0_STLB_writeback_access 0
Core_0_STLB_writeback_hit 0
Core_0_STLB_writeback_miss 0
Core_0_STLB_writeback_MPKI 0
Core_0_STLB_writeback_miss_rate 0
Core_0_STLB_prefetch_requested 0
Core_0_STLB_prefetch_issued 0
Core_0_STLB_prefetch_useful 0
Core_0_STLB_prefetch_useless 0
Core_0_STLB_prefetch_late 0
Core_0_STLB_prefetch_fill 0
Core_0_STLB_prefetch_too_early 0
Core_0_STLB_prefetch_too_early_among_fill 0
Core_0_STLB_prefetch_too_early_among_useless 0
Core_0_STLB_prefetch_pollution_evict 0
Core_0_STLB_prefetch_pollution_demand 0
Core_0_STLB_prefetch_pollution_among_prefetch_fill 0
Core_0_STLB_prefetch_accuracy 0
Core_0_STLB_prefetch_coverage 0

Core_0_L1I_total_access 15446114
Core_0_L1I_total_hit 15446114
Core_0_L1I_total_miss 0
Core_0_L1I_total_MPKI 0
Core_0_L1I_total_miss_rate 0
Core_0_L1I_demand_access 15446114
Core_0_L1I_demand_hit 15446114
Core_0_L1I_demand_miss 0
Core_0_L1I_demand_MPKI 0
Core_0_L1I_demand_miss_rate 0
Core_0_L1I_load_access 15446114
Core_0_L1I_load_hit 15446114
Core_0_L1I_load_miss 0
Core_0_L1I_load_MPKI 0
Core_0_L1I_load_miss_rate 0
Core_0_L1I_rfo_access 0
Core_0_L1I_rfo_hit 0
Core_0_L1I_rfo_miss 0
Core_0_L1I_rfo_MPKI 0
Core_0_L1I_rfo_miss_rate 0
Core_0_L1I_prefetch_access 0
Core_0_L1I_prefetch_hit 0
Core_0_L1I_prefetch_miss 0
Core_0_L1I_prefetch_MPKI 0
Core_0_L1I_prefetch_miss_rate 0
Core_0_L1I_writeback_access 0
Core_0_L1I_writeback_hit 0
Core_0_L1I_writeback_miss 0
Core_0_L1I_writeback_MPKI 0
Core_0_L1I_writeback_miss_rate 0
Core_0_L1I_prefetch_requested 0
Core_0_L1I_prefetch_issued 0
Core_0_L1I_prefetch_useful 0
Core_0_L1I_prefetch_useless 0
Core_0_L1I_prefetch_late 0
Core_0_L1I_prefetch_fill 0
Core_0_L1I_prefetch_too_early 0
Core_0_L1I_prefetch_too_early_among_fill 0
Core_0_L1I_prefetch_too_early_among_useless 0
Core_0_L1I_prefetch_pollution_evict 0
Core_0_L1I_prefetch_pollution_demand 0
Core_0_L1I_prefetch_pollution_among_prefetch_fill 0
Core_0_L1I_prefetch_accuracy 0
Core_0_L1I_prefetch_coverage 0

Core_0_L1D_total_access 26229249
Core_0_L1D_total_hit 23049770
Core_0_L1D_total_miss 3179479
Core_0_L1D_total_MPKI 31.7948
Core_0_L1D_total_miss_rate 0.121219
Core_0_L1D_demand_access 14894827
Core_0_L1D_demand_hit 14191253
Core_0_L1D_demand_miss 703574
Core_0_L1D_demand_MPKI 7.03574
Core_0_L1D_demand_miss_rate 0.0472361
Core_0_L1D_load_access 14894827
Core_0_L1D_load_hit 14191253
Core_0_L1D_load_miss 703574
Core_0_L1D_load_MPKI 7.03574
Core_0_L1D_load_miss_rate 0.0472361
Core_0_L1D_rfo_access 0
Core_0_L1D_rfo_hit 0
Core_0_L1D_rfo_miss 0
Core_0_L1D_rfo_MPKI 0
Core_0_L1D_rfo_miss_rate 0
Core_0_L1D_prefetch_access 4313874
Core_0_L1D_prefetch_hit 1842666
Core_0_L1D_prefetch_miss 2471208
Core_0_L1D_prefetch_MPKI 24.7121
Core_0_L1D_prefetch_miss_rate 0.572851
Core_0_L1D_writeback_access 7020548
Core_0_L1D_writeback_hit 7015851
Core_0_L1D_writeback_miss 4697
Core_0_L1D_writeback_MPKI 0.04697
Core_0_L1D_writeback_miss_rate 0.000669036
Core_0_L1D_prefetch_requested 26036513
Core_0_L1D_prefetch_issued 4313868
Core_0_L1D_prefetch_useful 1083019
Core_0_L1D_prefetch_useless 7352
Core_0_L1D_prefetch_late 57234
Core_0_L1D_prefetch_fill 1033150
Core_0_L1D_prefetch_too_early 4377
Core_0_L1D_prefetch_too_early_among_fill 0.00423656
Core_0_L1D_prefetch_too_early_among_useless 0.595348
Core_0_L1D_prefetch_pollution_evict 0
Core_0_L1D_prefetch_pollution_demand 0
Core_0_L1D_prefetch_pollution_among_prefetch_fill 0
Core_0_L1D_prefetch_accuracy 0.251055
Core_0_L1D_prefetch_coverage 0.606192

Core_0_L2C_total_access 4389928
Core_0_L2C_total_hit 2593894
Core_0_L2C_total_miss 1796034
Core_0_L2C_total_MPKI 17.9603
Core_0_L2C_total_miss_rate 0.409126
Core_0_L2C_demand_access 240352
Core_0_L2C_demand_hit 204630
Core_0_L2C_demand_miss 35722
Core_0_L2C_demand_MPKI 0.35722
Core_0_L2C_demand_miss_rate 0.148624
Core_0_L2C_load_access 239038
Core_0_L2C_load_hit 203656
Core_0_L2C_load_miss 35382
Core_0_L2C_load_MPKI 0.35382
Core_0_L2C_load_miss_rate 0.148018
Core_0_L2C_rfo_access 1314
Core_0_L2C_rfo_hit 974
Core_0_L2C_rfo_miss 340
Core_0_L2C_rfo_MPKI 0.0034
Core_0_L2C_rfo_miss_rate 0.258752
Core_0_L2C_prefetch_access 3270846
Core_0_L2C_prefetch_hit 1510534
Core_0_L2C_prefetch_miss 1760312
Core_0_L2C_prefetch_MPKI 17.6031
Core_0_L2C_prefetch_miss_rate 0.538182
Core_0_L2C_writeback_access 878730
Core_0_L2C_writeback_hit 878730
Core_0_L2C_writeback_miss 0
Core_0_L2C_writeback_MPKI 0
Core_0_L2C_writeback_miss_rate 0
Core_0_L2C_prefetch_requested 829713
Core_0_L2C_prefetch_issued 829180
Core_0_L2C_prefetch_useful 159231
Core_0_L2C_prefetch_useless 906
Core_0_L2C_prefetch_late 3898
Core_0_L2C_prefetch_fill 910829
Core_0_L2C_prefetch_too_early 27
Core_0_L2C_prefetch_too_early_among_fill 2.96433e-05
Core_0_L2C_prefetch_too_early_among_useless 0.0298013
Core_0_L2C_prefetch_pollution_evict 1459
Core_0_L2C_prefetch_pollution_demand 1454
Core_0_L2C_prefetch_pollution_among_prefetch_fill 0.00160184
Core_0_L2C_prefetch_accuracy 0.192034
Core_0_L2C_prefetch_coverage 0.816766

Core_0_LLC_total_access 1863658
Core_0_LLC_total_hit 847396
Core_0_LLC_total_miss 1016262
Core_0_LLC_total_MPKI 10.1626
Core_0_LLC_total_miss_rate 0.545305
Core_0_LLC_demand_access 17266
Core_0_LLC_demand_hit 2001
Core_0_LLC_demand_miss 15265
Core_0_LLC_demand_MPKI 0.15265
Core_0_LLC_demand_miss_rate 0.884107
Core_0_LLC_load_access 16926
Core_0_LLC_load_hit 1664
Core_0_LLC_load_miss 15262
Core_0_LLC_load_MPKI 0.15262
Core_0_LLC_load_miss_rate 0.90169
Core_0_LLC_rfo_access 340
Core_0_LLC_rfo_hit 337
Core_0_LLC_rfo_miss 3
Core_0_LLC_rfo_MPKI 3e-05
Core_0_LLC_rfo_miss_rate 0.00882353
Core_0_LLC_prefetch_access 969370
Core_0_LLC_prefetch_hit 73335
Core_0_LLC_prefetch_miss 896035
Core_0_LLC_prefetch_MPKI 8.96035
Core_0_LLC_prefetch_miss_rate 0.924348
Core_0_LLC_writeback_access 877022
Core_0_LLC_writeback_hit 772060
Core_0_LLC_writeback_miss 104962
Core_0_LLC_writeback_MPKI 1.04962
Core_0_LLC_writeback_miss_rate 0.11968
Core_0_LLC_prefetch_requested 0
Core_0_LLC_prefetch_issued 0
Core_0_LLC_prefetch_useful 0
Core_0_LLC_prefetch_useless 0
Core_0_LLC_prefetch_late 0
Core_0_LLC_prefetch_fill 872186
Core_0_LLC_prefetch_too_early 0
Core_0_LLC_prefetch_too_early_among_fill 0
Core_0_LLC_prefetch_too_early_among_useless 0
Core_0_LLC_prefetch_pollution_evict 99
Core_0_LLC_prefetch_pollution_demand 99
Core_0_LLC_prefetch_pollution_among_prefetch_fill 0.000113508
Core_0_LLC_prefetch_accuracy 0
Core_0_LLC_prefetch_coverage 0

[DRAM Statistics]
Channel_0_RQ_row_buffer_hit 40100
Channel_0_RQ_row_buffer_miss 849143
Channel_0_WQ_row_buffer_hit 142303
Channel_0_WQ_row_buffer_miss 734143
Channel_0_WQ_full 0
Channel_0_dbus_congested 6484160
DRAM_total_RQ_row_buffer_hit 40100
DRAM_total_RQ_row_buffer_miss 849143
DRAM_total_WQ_row_buffer_hit 142303
DRAM_total_WQ_row_buffer_miss 734143
DRAM_total_WQ_full 0
DRAM_total_dbus_congested 6484160
DRAM_avg_congested_cycle 6.67904

====== DRAM_RQ_TRAFFIC ========
DRAM_RQ_READ_TRAFFIC_BREAKDOWN:
data_demand_read.count = 15158
data_demand_read.share = 1.70%

inst_demand_read.count = 0
inst_demand_read.share = 0.00%

cache_inst_prefetch.count = 0
cache_inst_prefetch.share = 0.00%

cache_data_prefetch.count = 872301
cache_data_prefetch.share = 98.09%

stlb_data_demand.count = 44
stlb_data_demand.share = 0.00%

stlb_inst_demand.count = 0
stlb_inst_demand.share = 0.00%

stlb_l1i_pref.count = 0
stlb_l1i_pref.share = 0.00%

stlb_l1d_pref.count = 1748
stlb_l1d_pref.share = 0.20%

DRAM_RQ_READ_TRAFFIC_SUMMARY:
cache_demand.count = 15158
cache_demand.share = 1.70%

cache_prefetch.count = 872301
cache_prefetch.share = 98.09%

stlb_demand.count = 44
stlb_demand.share = 0.00%

stlb_prefetch.count = 1748
stlb_prefetch.share = 0.20%

DRAM_RQ_READ_TRAFFIC_DEBUG:
total_classified_read.count = 889251
unclassified_read.count = 0
total_read_with_other.count = 889251

classified_plus_unclassified_check.count = 889251
dram_rq_read_total_observed.count = 889251
dram_rq_read_total_observed.per_1K_instructions = 8.89251

STLB_MISS_PTW_DRAM_TOUCH_BREAKDOWN:
stlb_miss_total.count = 13728

stlb_miss_touch_dram.count = 1744
stlb_miss_touch_dram.share = 12.70%

stlb_miss_no_dram_touch.count = 11984
stlb_miss_no_dram_touch.share = 87.30%

STLB_MISS_PTW_DRAM_TOUCH_DEBUG:
stlb_miss_touch_plus_no_touch.count = 13728
stlb_miss_total_check.count = 13728

======STLB miss causes ========
Core_0_STLB_miss_cause_breakdown
Core_0_STLB_cause_Demand_Data_miss 25
Core_0_STLB_cause_Demand_Data_miss_rate 0.00105717
Core_0_STLB_cause_Demand_Instruction_miss 0
Core_0_STLB_cause_Demand_Instruction_miss_rate 0
Core_0_STLB_cause_L1D_Prefetch_miss 13703
Core_0_STLB_cause_L1D_Prefetch_miss_rate 0.579457
Core_0_STLB_cause_L1D_Prefetch_Same_Page_miss 0
Core_0_STLB_cause_L1D_Prefetch_Same_Page_miss_rate 0
Core_0_STLB_cause_L1D_Prefetch_Cross_Page_miss 13703
Core_0_STLB_cause_L1D_Prefetch_Cross_Page_miss_rate 0.579457
Core_0_STLB_cause_L1I_Prefetch_miss 0
Core_0_STLB_cause_L1I_Prefetch_miss_rate 0
Core_0_STLB_cause_Other_miss 0
Core_0_STLB_cause_Other_miss_rate 0
Core_0_STLB_Demand_miss 25
Core_0_STLB_Demand_miss_rate 0.00105717
Core_0_STLB_L1D_Prefetch_miss 13703
Core_0_STLB_L1D_Prefetch_miss_rate 0.579457
Core_0_STLB_Other_miss 0
Core_0_STLB_Other_miss_rate 0

========== vBerti-TLB Cross-page Flow Stats ==========

Core_0_vBerti_Requested 26036513
Core_0_vBerti_Cross_page_prefetch_in_Requested 4388348
Core_0_vBerti_Same_page_prefetch_in_Requested 21648165
Core_0_vBerti_Cross_page_prefetch_of_Requested 0.168546
Core_0_vBerti_Issued 4313868
Core_0_vBerti_PQ_Drop_Rate 0.834315
Core_0_vBerti_InPQ_Cross_page_prefetch_of_Requested 0.0274833
Core_0_vBerti_Cross_page_PQ_Drop_rate 0.836939
Core_0_vBerti_Cross_page_prefetch_of_Issued 0.165876

========= DTLB_vBerti Prefetch Stats =========
Core_0_DTLB_demand_access 18841995
Core_0_DTLB_demand_hit 18837101
Core_0_DTLB_demand_miss 4894
Core_0_DTLB_demand_mshr_merge 1911
Core_0_DTLB_demand_fill 3019
Core_0_DTLB_demand_miss_rate 0.000259739
Core_0_DTLB_demand_mpki 0.04894
Core_0_DTLB_vberti_prefetch_access 3406585
Core_0_DTLB_vberti_prefetch_hit 3306100
Core_0_DTLB_vberti_prefetch_miss 100485
Core_0_DTLB_vberti_prefetch_mshr_merge 79820
Core_0_DTLB_vberti_prefetch_fill 20629
Core_0_DTLB_vberti_prefetch_miss_rate 0.0294973
Core_0_DTLB_vberti_prefetch_mpki 1.00485

=== DTLB_vBerti Same/Cross-page Prefetch Stats ===
Core_0_DTLB_vberti_same_page_prefetch 2750557
Core_0_DTLB_vberti_same_page_prefetch_hit 2750557
Core_0_DTLB_vberti_same_page_prefetch_miss 0
Core_0_DTLB_vberti_same_page_prefetch_mshr_merge 0
Core_0_DTLB_vberti_same_page_prefetch_fill 0
Core_0_DTLB_vberti_same_page_prefetch_miss_rate 0
Core_0_DTLB_vberti_same_page_prefetch_mpki 0
Core_0_DTLB_vberti_cross_page_prefetch 656028
Core_0_DTLB_vberti_cross_page_prefetch_hit 555543
Core_0_DTLB_vberti_cross_page_prefetch_miss 100485
Core_0_DTLB_vberti_cross_page_prefetch_mshr_merge 79820
Core_0_DTLB_vberti_cross_page_prefetch_fill 20629
Core_0_DTLB_vberti_cross_page_prefetch_miss_rate 0.153172
Core_0_DTLB_vberti_cross_page_prefetch_mpki 1.00485
Core_0_DTLB_same_page_prefetch_miss_rate 0
Core_0_DTLB_same_page_prefetch_mpki 0
Core_0_DTLB_cross_page_prefetch_miss_rate 0.153172
Core_0_DTLB_cross_page_prefetch_mpki 1.00485
Core_0_DTLB_cross_page_prefetch_issued 656028
Core_0_DTLB_cross_page_prefetch_lookups 656028
Core_0_DTLB_cross_page_prefetch_useful 20467
Core_0_DTLB_cross_page_prefetch_useless 198
Core_0_DTLB_cross_page_prefetch_late 36
Core_0_DTLB_cross_page_prefetch_too_early 8
Core_0_DTLB_cross_page_prefetch_too_early_among_fill 0.000387804
Core_0_DTLB_cross_page_prefetch_too_early_among_useless 0.040404
Core_0_DTLB_cross_page_prefetch_pollution_evict 2216
Core_0_DTLB_cross_page_prefetch_pollution_demand 2065
Core_0_DTLB_cross_page_prefetch_pollution_among_prefetch_fill 0.107422
Core_0_DTLB_cross_page_prefetch_accuracy 0.0311984
Core_0_DTLB_cross_page_prefetch_coverage 0.807027

========= STLB_vBerti Prefetch Stats =========
Core_0_STLB_demand_access 2983
Core_0_STLB_demand_hit 2958
Core_0_STLB_demand_miss 25
Core_0_STLB_demand_mshr_merge 0
Core_0_STLB_demand_fill 25
Core_0_STLB_demand_miss_rate 0.00838082
Core_0_STLB_demand_mpki 0.00025
Core_0_STLB_vberti_prefetch_access 20665
Core_0_STLB_vberti_prefetch_hit 6962
Core_0_STLB_vberti_prefetch_miss 13703
Core_0_STLB_vberti_prefetch_mshr_merge 0
Core_0_STLB_vberti_prefetch_fill 13703
Core_0_STLB_vberti_prefetch_miss_rate 0.663102
Core_0_STLB_vberti_prefetch_mpki 0.13703

=== STLB_vBerti Same/Cross-page Prefetch Stats ===
Core_0_STLB_vberti_same_page_prefetch 0
Core_0_STLB_vberti_same_page_prefetch_hit 0
Core_0_STLB_vberti_same_page_prefetch_miss 0
Core_0_STLB_vberti_same_page_prefetch_mshr_merge 0
Core_0_STLB_vberti_same_page_prefetch_fill 0
Core_0_STLB_vberti_same_page_prefetch_miss_rate 0
Core_0_STLB_vberti_same_page_prefetch_mpki 0
Core_0_STLB_vberti_cross_page_prefetch 20665
Core_0_STLB_vberti_cross_page_prefetch_hit 6962
Core_0_STLB_vberti_cross_page_prefetch_miss 13703
Core_0_STLB_vberti_cross_page_prefetch_mshr_merge 0
Core_0_STLB_vberti_cross_page_prefetch_fill 13703
Core_0_STLB_vberti_cross_page_prefetch_miss_rate 0.663102
Core_0_STLB_vberti_cross_page_prefetch_mpki 0.13703
Core_0_STLB_same_page_prefetch_miss_rate 0
Core_0_STLB_same_page_prefetch_mpki 0
Core_0_STLB_cross_page_prefetch_miss_rate 0.663102
Core_0_STLB_cross_page_prefetch_mpki 0.13703
Core_0_STLB_cross_page_prefetch_issued 20665
Core_0_STLB_cross_page_prefetch_lookups 20665
Core_0_STLB_cross_page_prefetch_useful 224
Core_0_STLB_cross_page_prefetch_useless 13479
Core_0_STLB_cross_page_prefetch_late 0
Core_0_STLB_cross_page_prefetch_too_early 0
Core_0_STLB_cross_page_prefetch_too_early_among_fill 0
Core_0_STLB_cross_page_prefetch_too_early_among_useless 0
Core_0_STLB_cross_page_prefetch_pollution_evict 1
Core_0_STLB_cross_page_prefetch_pollution_demand 1
Core_0_STLB_cross_page_prefetch_pollution_among_prefetch_fill 7.29767e-05
Core_0_STLB_cross_page_prefetch_accuracy 0.0108396
Core_0_STLB_cross_page_prefetch_coverage 0.899598

========= STLB Cross-page Prefetch Buffer Stats =========
Core_0_STLB_raw_demand_miss 25
Core_0_CP_PB_insert 0
Core_0_CP_PB_demand_hit 0
Core_0_STLB_PB_demand_miss 25
Core_0_CP_PB_coverage 0
Core_0_STLB_raw_demand_mpki 0.00025
Core_0_STLB_PB_demand_mpki 0.00025
Core_0_CP_PB_demand_hit_mpki 0

Core_0_TLB_demand_miss_rate 1.32682e-06
Core_0_TLB_demand_mpki 0.00025
Core_0_TLB_same_page_prefetch_miss_rate 0
Core_0_TLB_same_page_prefetch_mpki 0
Core_0_TLB_cross_page_prefetch_miss_rate 0.0208878
Core_0_TLB_cross_page_prefetch_mpki 0.13703
Core_0_TLB_cross_page_prefetch_issued 656028
Core_0_TLB_cross_page_prefetch_lookups 656028
Core_0_TLB_cross_page_prefetch_useful 13723
Core_0_TLB_cross_page_prefetch_useless 198
Core_0_TLB_cross_page_prefetch_late 32
Core_0_TLB_cross_page_prefetch_too_early 8
Core_0_TLB_cross_page_prefetch_too_early_among_fill 0.000233019
Core_0_TLB_cross_page_prefetch_too_early_among_useless 0.040404
Core_0_TLB_cross_page_prefetch_accuracy 0.0209183
Core_0_TLB_cross_page_prefetch_coverage 0.998182
BERTI TO_L1: 30714852 TO_L2: 15724685 TO_L2_BC_MSHR: 631476
BERTI AVG_LAT: 148.656 NUM_TRACK_LATENCY: 1988588 NUM_CANT_TRACK_LATENCY: 0
BERTI CROSS_PAGE 8188722 NO_CROSS_PAGE: 38250815
BERTI FOUND_BERTI: 7875110 NO_FOUND_BERTI: 23206862
BERTI AVERAGE_ISSUED: 1.81249
