[VMEM] WARNING: physical memory size is smaller than virtual memory size.

*** ChampSim Multicore Out-of-Order Simulator ***
Warmup Instructions: 50000000
Simulation Instructions: 100000000
Number of CPUs: 1
Page size: 4096
Core 0: /data0/tzh/champsim_traces/SPEC17/657.xz_s-2302B.champsimtrace.xz
VBerti Prefetcher
BERTI HASH ENTANGLING
BERTI IP MASK ffff
Off-chip DRAM Size: 16 GiB Channels: 1 Width: 64-bit Data Rate: 3205 MT/s
Warmup halting CPU 0 at instruction 50000002 cycle 10729480 for remainder of phase
Warmup finished CPU 0 instructions: 50000002 cycles: 10729480 cumulative IPC: 4.66 (Simulation time: 00 hr 02 min 17 sec)
Warmup complete CPU 0 instructions: 50000002 cycles: 10729480 cumulative IPC: 4.66 (Simulation time: 00 hr 02 min 17 sec)
Simulation finished CPU 0 instructions: 100000002 cycles: 90544921 cumulative IPC: 1.104 (Simulation time: 00 hr 11 min 08 sec)
Simulation complete CPU 0 instructions: 100000002 cycles: 90544921 cumulative IPC: 1.104 (Simulation time: 00 hr 11 min 08 sec)

ChampSim completed all CPUs

=== Simulation ===
CPU 0 runs /data0/tzh/champsim_traces/SPEC17/657.xz_s-2302B.champsimtrace.xz

Region of Interest Statistics

CPU 0 cumulative IPC: 1.104 instructions: 100000002 cycles: 90544921
CPU 0 Branch Prediction Accuracy: 91.37% MPKI: 11.64 Average ROB Occupancy at Mispredict: 39.82
Branch type MPKI
BRANCH_DIRECT_JUMP: 0.1081
BRANCH_INDIRECT: 0.9852
BRANCH_CONDITIONAL: 10.54
BRANCH_DIRECT_CALL: 0
BRANCH_INDIRECT_CALL: 0.00331
BRANCH_RETURN: 0

cpu0->cpu0_STLB TOTAL        ACCESS:     623616 HIT:     524485 MISS:      99131 MSHR_MERGE:          0
cpu0->cpu0_STLB LOAD         ACCESS:     623616 HIT:     524485 MISS:      99131 MSHR_MERGE:          0
cpu0->cpu0_STLB RFO          ACCESS:          0 HIT:          0 MISS:          0 MSHR_MERGE:          0
cpu0->cpu0_STLB PREFETCH     ACCESS:          0 HIT:          0 MISS:          0 MSHR_MERGE:          0
cpu0->cpu0_STLB WRITE        ACCESS:          0 HIT:          0 MISS:          0 MSHR_MERGE:          0
cpu0->cpu0_STLB TRANSLATION  ACCESS:          0 HIT:          0 MISS:          0 MSHR_MERGE:          0
cpu0->cpu0_STLB PREFETCH REQUESTED:          0 ISSUED:          0 USEFUL:          0 USELESS:          0 LATE:          0 TOO_EARLY:          0
cpu0->cpu0_STLB AVERAGE MISS LATENCY: 29.38 cycles
cpu0->cpu0_L2C TOTAL        ACCESS:    1879019 HIT:    1333261 MISS:     545758 MSHR_MERGE:      28791
cpu0->cpu0_L2C LOAD         ACCESS:     616130 HIT:     279400 MISS:     336730 MSHR_MERGE:        183
cpu0->cpu0_L2C RFO          ACCESS:      87489 HIT:      67420 MISS:      20069 MSHR_MERGE:         60
cpu0->cpu0_L2C PREFETCH     ACCESS:     619366 HIT:     452145 MISS:     167221 MSHR_MERGE:      28548
cpu0->cpu0_L2C WRITE        ACCESS:     470661 HIT:     469898 MISS:        763 MSHR_MERGE:          0
cpu0->cpu0_L2C TRANSLATION  ACCESS:      85373 HIT:      64398 MISS:      20975 MSHR_MERGE:          0
cpu0->cpu0_L2C PREFETCH REQUESTED:     125089 ISSUED:     121603 USEFUL:      11293 USELESS:      14662 LATE:        130 TOO_EARLY:       3774
cpu0->cpu0_L2C AVERAGE MISS LATENCY: 95.92 cycles
cpu0->cpu0_L1I TOTAL        ACCESS:    3805288 HIT:    3804768 MISS:        520 MSHR_MERGE:        313
cpu0->cpu0_L1I LOAD         ACCESS:    3805288 HIT:    3804768 MISS:        520 MSHR_MERGE:        313
cpu0->cpu0_L1I RFO          ACCESS:          0 HIT:          0 MISS:          0 MSHR_MERGE:          0
cpu0->cpu0_L1I PREFETCH     ACCESS:          0 HIT:          0 MISS:          0 MSHR_MERGE:          0
cpu0->cpu0_L1I WRITE        ACCESS:          0 HIT:          0 MISS:          0 MSHR_MERGE:          0
cpu0->cpu0_L1I TRANSLATION  ACCESS:          0 HIT:          0 MISS:          0 MSHR_MERGE:          0
cpu0->cpu0_L1I PREFETCH REQUESTED:          0 ISSUED:          0 USEFUL:          0 USELESS:          0 LATE:          0 TOO_EARLY:          0
cpu0->cpu0_L1I AVERAGE MISS LATENCY: 110.3 cycles
cpu0->cpu0_L1D TOTAL        ACCESS:   25764451 HIT:   24224796 MISS:    1539655 MSHR_MERGE:     251269
cpu0->cpu0_L1D LOAD         ACCESS:   17152059 HIT:   16305844 MISS:     846215 MSHR_MERGE:     230265
cpu0->cpu0_L1D RFO          ACCESS:          0 HIT:          0 MISS:          0 MSHR_MERGE:          0
cpu0->cpu0_L1D PREFETCH     ACCESS:    1063136 HIT:     558298 MISS:     504838 MSHR_MERGE:       5341
cpu0->cpu0_L1D WRITE        ACCESS:    7351260 HIT:    7248229 MISS:     103031 MSHR_MERGE:      15465
cpu0->cpu0_L1D TRANSLATION  ACCESS:     197996 HIT:     112425 MISS:      85571 MSHR_MERGE:        198
cpu0->cpu0_L1D PREFETCH REQUESTED:    1720694 ISSUED:    1063136 USEFUL:      17283 USELESS:      26054 LATE:        193 TOO_EARLY:       5212
cpu0->cpu0_L1D AVERAGE MISS LATENCY: 54.52 cycles
cpu0->cpu0_ITLB TOTAL        ACCESS:    3242313 HIT:    3242313 MISS:          0 MSHR_MERGE:          0
cpu0->cpu0_ITLB LOAD         ACCESS:    3242313 HIT:    3242313 MISS:          0 MSHR_MERGE:          0
cpu0->cpu0_ITLB RFO          ACCESS:          0 HIT:          0 MISS:          0 MSHR_MERGE:          0
cpu0->cpu0_ITLB PREFETCH     ACCESS:          0 HIT:          0 MISS:          0 MSHR_MERGE:          0
cpu0->cpu0_ITLB WRITE        ACCESS:          0 HIT:          0 MISS:          0 MSHR_MERGE:          0
cpu0->cpu0_ITLB TRANSLATION  ACCESS:          0 HIT:          0 MISS:          0 MSHR_MERGE:          0
cpu0->cpu0_ITLB PREFETCH REQUESTED:          0 ISSUED:          0 USEFUL:          0 USELESS:          0 LATE:          0 TOO_EARLY:          0
cpu0->cpu0_ITLB AVERAGE MISS LATENCY: - cycles
cpu0->cpu0_DTLB TOTAL        ACCESS:   24423364 HIT:   23659478 MISS:     763886 MSHR_MERGE:     140270
cpu0->cpu0_DTLB LOAD         ACCESS:   24423364 HIT:   23659478 MISS:     763886 MSHR_MERGE:     140270
cpu0->cpu0_DTLB RFO          ACCESS:          0 HIT:          0 MISS:          0 MSHR_MERGE:          0
cpu0->cpu0_DTLB PREFETCH     ACCESS:          0 HIT:          0 MISS:          0 MSHR_MERGE:          0
cpu0->cpu0_DTLB WRITE        ACCESS:          0 HIT:          0 MISS:          0 MSHR_MERGE:          0
cpu0->cpu0_DTLB TRANSLATION  ACCESS:          0 HIT:          0 MISS:          0 MSHR_MERGE:          0
cpu0->cpu0_DTLB PREFETCH REQUESTED:          0 ISSUED:          0 USEFUL:          0 USELESS:          0 LATE:          0 TOO_EARLY:          0
cpu0->cpu0_DTLB AVERAGE MISS LATENCY: 9.831 cycles
cpu0->LLC TOTAL        ACCESS:     790181 HIT:     447078 MISS:     343103 MSHR_MERGE:        749
cpu0->LLC LOAD         ACCESS:     336547 HIT:     180914 MISS:     155633 MSHR_MERGE:          2
cpu0->LLC RFO          ACCESS:      20009 HIT:      13582 MISS:       6427 MSHR_MERGE:          0
cpu0->LLC PREFETCH     ACCESS:     138673 HIT:      61603 MISS:      77070 MSHR_MERGE:        747
cpu0->LLC WRITE        ACCESS:     273977 HIT:     172585 MISS:     101392 MSHR_MERGE:          0
cpu0->LLC TRANSLATION  ACCESS:      20975 HIT:      18394 MISS:       2581 MSHR_MERGE:          0
cpu0->LLC PREFETCH REQUESTED:          0 ISSUED:          0 USEFUL:          0 USELESS:          0 LATE:          0 TOO_EARLY:          0
cpu0->LLC AVERAGE MISS LATENCY: 117.9 cycles

DRAM Statistics

Channel 0 RQ ROW_BUFFER_HIT:        938
  ROW_BUFFER_MISS:     240018
  AVG DBUS CONGESTED CYCLE: 17.63
Channel 0 WQ ROW_BUFFER_HIT:      24333
  ROW_BUFFER_MISS:     108613
  FULL:          0
Channel 0 REFRESHES ISSUED:       7545

[ROI Statistics]
[System Configuration]
num_cpus 1
cpu_freq 4000
fetch_width 6
decode_width 6
dispatch_width 6
execute_width 6
lq_width 2
sq_width 2
retire_width 6
scheduler_size 128
branch_mispredict_penalty 15
rob_size 352
lq_size 128
sq_size 72
ifetch_buffer_size 64
decode_buffer_size 32
dispatch_buffer_size 32
register_file_size 288
decode_latency 1
dispatch_latency 1
schedule_latency 1
execute_latency 1
page_size 4096
block_size 64
core_0_itlb_set 16
core_0_itlb_way 4
core_0_itlb_rq_size 16
core_0_itlb_wq_size 16
core_0_itlb_pq_size 0
core_0_itlb_mshr_size 8
core_0_itlb_hit_latency 1
core_0_itlb_fill_latency 1
core_0_itlb_max_tag_check 2
core_0_itlb_max_fill 2
core_0_dtlb_set 16
core_0_dtlb_way 4
core_0_dtlb_rq_size 16
core_0_dtlb_wq_size 16
core_0_dtlb_pq_size 0
core_0_dtlb_mshr_size 8
core_0_dtlb_hit_latency 1
core_0_dtlb_fill_latency 1
core_0_dtlb_max_tag_check 2
core_0_dtlb_max_fill 2
core_0_stlb_set 128
core_0_stlb_way 12
core_0_stlb_rq_size 32
core_0_stlb_wq_size 32
core_0_stlb_pq_size 0
core_0_stlb_mshr_size 16
core_0_stlb_hit_latency 4
core_0_stlb_fill_latency 4
core_0_stlb_max_tag_check 1
core_0_stlb_max_fill 1
core_0_l1i_set 64
core_0_l1i_way 8
core_0_l1i_rq_size 64
core_0_l1i_wq_size 64
core_0_l1i_pq_size 32
core_0_l1i_mshr_size 8
core_0_l1i_hit_latency 2
core_0_l1i_fill_latency 2
core_0_l1i_max_tag_check 2
core_0_l1i_max_fill 2
core_0_l1d_set 64
core_0_l1d_way 12
core_0_l1d_rq_size 64
core_0_l1d_wq_size 64
core_0_l1d_pq_size 8
core_0_l1d_mshr_size 16
core_0_l1d_hit_latency 2
core_0_l1d_fill_latency 3
core_0_l1d_max_tag_check 2
core_0_l1d_max_fill 2
core_0_l2c_set 1024
core_0_l2c_way 8
core_0_l2c_rq_size 32
core_0_l2c_wq_size 32
core_0_l2c_pq_size 16
core_0_l2c_mshr_size 32
core_0_l2c_hit_latency 5
core_0_l2c_fill_latency 5
core_0_l2c_max_tag_check 1
core_0_l2c_max_fill 1
llc_set 2048
llc_way 16
llc_rq_size 32
llc_wq_size 32
llc_pq_size 32
llc_mshr_size 64
llc_hit_latency 10
llc_fill_latency 10
llc_max_tag_check 1
llc_max_fill 1
dram_channels 1
dram_ranks 1
dram_bankgroups 8
dram_banks 4
dram_rows 65536
dram_columns 1024
dram_channel_width 8
dram_rq_size 64
dram_wq_size 64
dram_size 17179869184
core_0_itlb_prefetcher no
core_0_dtlb_prefetcher no
core_0_stlb_prefetcher no
core_0_l1i_prefetcher next_line
core_0_l1d_prefetcher vberti
core_0_l2c_prefetcher ip_stride
llc_prefetcher no
llc_replacement drrip

Core_0_instructions 100000002
Core_0_cycles 90544921
Core_0_IPC 1.10442
Core_0_branch_prediction_accuracy 91.3695
Core_0_branch_MPKI 11.6404
Core_0_average_ROB_occupancy_at_mispredict 39.8236

Core_0_ITLB_total_access 3242313
Core_0_ITLB_total_hit 3242313
Core_0_ITLB_total_miss 0
Core_0_ITLB_total_MPKI 0
Core_0_ITLB_total_miss_rate 0
Core_0_ITLB_demand_access 3242313
Core_0_ITLB_demand_hit 3242313
Core_0_ITLB_demand_miss 0
Core_0_ITLB_demand_MPKI 0
Core_0_ITLB_demand_miss_rate 0
Core_0_ITLB_load_access 3242313
Core_0_ITLB_load_hit 3242313
Core_0_ITLB_load_miss 0
Core_0_ITLB_load_MPKI 0
Core_0_ITLB_load_miss_rate 0
Core_0_ITLB_rfo_access 0
Core_0_ITLB_rfo_hit 0
Core_0_ITLB_rfo_miss 0
Core_0_ITLB_rfo_MPKI 0
Core_0_ITLB_rfo_miss_rate 0
Core_0_ITLB_prefetch_access 0
Core_0_ITLB_prefetch_hit 0
Core_0_ITLB_prefetch_miss 0
Core_0_ITLB_prefetch_MPKI 0
Core_0_ITLB_prefetch_miss_rate 0
Core_0_ITLB_writeback_access 0
Core_0_ITLB_writeback_hit 0
Core_0_ITLB_writeback_miss 0
Core_0_ITLB_writeback_MPKI 0
Core_0_ITLB_writeback_miss_rate 0
Core_0_ITLB_prefetch_requested 0
Core_0_ITLB_prefetch_issued 0
Core_0_ITLB_prefetch_useful 0
Core_0_ITLB_prefetch_useless 0
Core_0_ITLB_prefetch_late 0
Core_0_ITLB_prefetch_fill 0
Core_0_ITLB_prefetch_too_early 0
Core_0_ITLB_prefetch_too_early_among_fill 0
Core_0_ITLB_prefetch_too_early_among_useless 0
Core_0_ITLB_prefetch_pollution_evict 0
Core_0_ITLB_prefetch_pollution_demand 0
Core_0_ITLB_prefetch_pollution_among_prefetch_fill 0
Core_0_ITLB_prefetch_accuracy 0
Core_0_ITLB_prefetch_coverage 0

Core_0_DTLB_total_access 24423364
Core_0_DTLB_total_hit 23659478
Core_0_DTLB_total_miss 763886
Core_0_DTLB_total_MPKI 7.63886
Core_0_DTLB_total_miss_rate 0.0312769
Core_0_DTLB_demand_access 24423364
Core_0_DTLB_demand_hit 23659478
Core_0_DTLB_demand_miss 763886
Core_0_DTLB_demand_MPKI 7.63886
Core_0_DTLB_demand_miss_rate 0.0312769
Core_0_DTLB_load_access 24423364
Core_0_DTLB_load_hit 23659478
Core_0_DTLB_load_miss 763886
Core_0_DTLB_load_MPKI 7.63886
Core_0_DTLB_load_miss_rate 0.0312769
Core_0_DTLB_rfo_access 0
Core_0_DTLB_rfo_hit 0
Core_0_DTLB_rfo_miss 0
Core_0_DTLB_rfo_MPKI 0
Core_0_DTLB_rfo_miss_rate 0
Core_0_DTLB_prefetch_access 0
Core_0_DTLB_prefetch_hit 0
Core_0_DTLB_prefetch_miss 0
Core_0_DTLB_prefetch_MPKI 0
Core_0_DTLB_prefetch_miss_rate 0
Core_0_DTLB_writeback_access 0
Core_0_DTLB_writeback_hit 0
Core_0_DTLB_writeback_miss 0
Core_0_DTLB_writeback_MPKI 0
Core_0_DTLB_writeback_miss_rate 0
Core_0_DTLB_prefetch_requested 0
Core_0_DTLB_prefetch_issued 0
Core_0_DTLB_prefetch_useful 0
Core_0_DTLB_prefetch_useless 0
Core_0_DTLB_prefetch_late 0
Core_0_DTLB_prefetch_fill 0
Core_0_DTLB_prefetch_too_early 0
Core_0_DTLB_prefetch_too_early_among_fill 0
Core_0_DTLB_prefetch_too_early_among_useless 0
Core_0_DTLB_prefetch_pollution_evict 0
Core_0_DTLB_prefetch_pollution_demand 0
Core_0_DTLB_prefetch_pollution_among_prefetch_fill 0
Core_0_DTLB_prefetch_accuracy 0
Core_0_DTLB_prefetch_coverage 0

Core_0_STLB_total_access 623616
Core_0_STLB_total_hit 524485
Core_0_STLB_total_miss 99131
Core_0_STLB_total_MPKI 0.99131
Core_0_STLB_total_miss_rate 0.158962
Core_0_STLB_demand_access 623616
Core_0_STLB_demand_hit 524485
Core_0_STLB_demand_miss 99131
Core_0_STLB_demand_MPKI 0.99131
Core_0_STLB_demand_miss_rate 0.158962
Core_0_STLB_load_access 623616
Core_0_STLB_load_hit 524485
Core_0_STLB_load_miss 99131
Core_0_STLB_load_MPKI 0.99131
Core_0_STLB_load_miss_rate 0.158962
Core_0_STLB_rfo_access 0
Core_0_STLB_rfo_hit 0
Core_0_STLB_rfo_miss 0
Core_0_STLB_rfo_MPKI 0
Core_0_STLB_rfo_miss_rate 0
Core_0_STLB_prefetch_access 0
Core_0_STLB_prefetch_hit 0
Core_0_STLB_prefetch_miss 0
Core_0_STLB_prefetch_MPKI 0
Core_0_STLB_prefetch_miss_rate 0
Core_0_STLB_writeback_access 0
Core_0_STLB_writeback_hit 0
Core_0_STLB_writeback_miss 0
Core_0_STLB_writeback_MPKI 0
Core_0_STLB_writeback_miss_rate 0
Core_0_STLB_prefetch_requested 0
Core_0_STLB_prefetch_issued 0
Core_0_STLB_prefetch_useful 0
Core_0_STLB_prefetch_useless 0
Core_0_STLB_prefetch_late 0
Core_0_STLB_prefetch_fill 0
Core_0_STLB_prefetch_too_early 0
Core_0_STLB_prefetch_too_early_among_fill 0
Core_0_STLB_prefetch_too_early_among_useless 0
Core_0_STLB_prefetch_pollution_evict 0
Core_0_STLB_prefetch_pollution_demand 0
Core_0_STLB_prefetch_pollution_among_prefetch_fill 0
Core_0_STLB_prefetch_accuracy 0
Core_0_STLB_prefetch_coverage 0

Core_0_L1I_total_access 3805288
Core_0_L1I_total_hit 3804768
Core_0_L1I_total_miss 520
Core_0_L1I_total_MPKI 0.0052
Core_0_L1I_total_miss_rate 0.000136652
Core_0_L1I_demand_access 3805288
Core_0_L1I_demand_hit 3804768
Core_0_L1I_demand_miss 520
Core_0_L1I_demand_MPKI 0.0052
Core_0_L1I_demand_miss_rate 0.000136652
Core_0_L1I_load_access 3805288
Core_0_L1I_load_hit 3804768
Core_0_L1I_load_miss 520
Core_0_L1I_load_MPKI 0.0052
Core_0_L1I_load_miss_rate 0.000136652
Core_0_L1I_rfo_access 0
Core_0_L1I_rfo_hit 0
Core_0_L1I_rfo_miss 0
Core_0_L1I_rfo_MPKI 0
Core_0_L1I_rfo_miss_rate 0
Core_0_L1I_prefetch_access 0
Core_0_L1I_prefetch_hit 0
Core_0_L1I_prefetch_miss 0
Core_0_L1I_prefetch_MPKI 0
Core_0_L1I_prefetch_miss_rate 0
Core_0_L1I_writeback_access 0
Core_0_L1I_writeback_hit 0
Core_0_L1I_writeback_miss 0
Core_0_L1I_writeback_MPKI 0
Core_0_L1I_writeback_miss_rate 0
Core_0_L1I_prefetch_requested 0
Core_0_L1I_prefetch_issued 0
Core_0_L1I_prefetch_useful 0
Core_0_L1I_prefetch_useless 0
Core_0_L1I_prefetch_late 0
Core_0_L1I_prefetch_fill 0
Core_0_L1I_prefetch_too_early 0
Core_0_L1I_prefetch_too_early_among_fill 0
Core_0_L1I_prefetch_too_early_among_useless 0
Core_0_L1I_prefetch_pollution_evict 0
Core_0_L1I_prefetch_pollution_demand 0
Core_0_L1I_prefetch_pollution_among_prefetch_fill 0
Core_0_L1I_prefetch_accuracy 0
Core_0_L1I_prefetch_coverage 0

Core_0_L1D_total_access 25566455
Core_0_L1D_total_hit 24112371
Core_0_L1D_total_miss 1454084
Core_0_L1D_total_MPKI 14.5408
Core_0_L1D_total_miss_rate 0.0568747
Core_0_L1D_demand_access 17152059
Core_0_L1D_demand_hit 16305844
Core_0_L1D_demand_miss 846215
Core_0_L1D_demand_MPKI 8.46215
Core_0_L1D_demand_miss_rate 0.0493361
Core_0_L1D_load_access 17152059
Core_0_L1D_load_hit 16305844
Core_0_L1D_load_miss 846215
Core_0_L1D_load_MPKI 8.46215
Core_0_L1D_load_miss_rate 0.0493361
Core_0_L1D_rfo_access 0
Core_0_L1D_rfo_hit 0
Core_0_L1D_rfo_miss 0
Core_0_L1D_rfo_MPKI 0
Core_0_L1D_rfo_miss_rate 0
Core_0_L1D_prefetch_access 1063136
Core_0_L1D_prefetch_hit 558298
Core_0_L1D_prefetch_miss 504838
Core_0_L1D_prefetch_MPKI 5.04838
Core_0_L1D_prefetch_miss_rate 0.474857
Core_0_L1D_writeback_access 7351260
Core_0_L1D_writeback_hit 7248229
Core_0_L1D_writeback_miss 103031
Core_0_L1D_writeback_MPKI 1.03031
Core_0_L1D_writeback_miss_rate 0.0140154
Core_0_L1D_prefetch_requested 1720694
Core_0_L1D_prefetch_issued 1063136
Core_0_L1D_prefetch_useful 17283
Core_0_L1D_prefetch_useless 26054
Core_0_L1D_prefetch_late 193
Core_0_L1D_prefetch_fill 43141
Core_0_L1D_prefetch_too_early 5212
Core_0_L1D_prefetch_too_early_among_fill 0.120813
Core_0_L1D_prefetch_too_early_among_useless 0.200046
Core_0_L1D_prefetch_pollution_evict 14129
Core_0_L1D_prefetch_pollution_demand 13797
Core_0_L1D_prefetch_pollution_among_prefetch_fill 0.327507
Core_0_L1D_prefetch_accuracy 0.0162566
Core_0_L1D_prefetch_coverage 0.0200151

Core_0_L2C_total_access 1793646
Core_0_L2C_total_hit 1268863
Core_0_L2C_total_miss 524783
Core_0_L2C_total_MPKI 5.24783
Core_0_L2C_total_miss_rate 0.292579
Core_0_L2C_demand_access 703619
Core_0_L2C_demand_hit 346820
Core_0_L2C_demand_miss 356799
Core_0_L2C_demand_MPKI 3.56799
Core_0_L2C_demand_miss_rate 0.507091
Core_0_L2C_load_access 616130
Core_0_L2C_load_hit 279400
Core_0_L2C_load_miss 336730
Core_0_L2C_load_MPKI 3.3673
Core_0_L2C_load_miss_rate 0.546524
Core_0_L2C_rfo_access 87489
Core_0_L2C_rfo_hit 67420
Core_0_L2C_rfo_miss 20069
Core_0_L2C_rfo_MPKI 0.20069
Core_0_L2C_rfo_miss_rate 0.229389
Core_0_L2C_prefetch_access 619366
Core_0_L2C_prefetch_hit 452145
Core_0_L2C_prefetch_miss 167221
Core_0_L2C_prefetch_MPKI 1.67221
Core_0_L2C_prefetch_miss_rate 0.269987
Core_0_L2C_writeback_access 470661
Core_0_L2C_writeback_hit 469898
Core_0_L2C_writeback_miss 763
Core_0_L2C_writeback_MPKI 0.00763
Core_0_L2C_writeback_miss_rate 0.00162112
Core_0_L2C_prefetch_requested 125089
Core_0_L2C_prefetch_issued 121603
Core_0_L2C_prefetch_useful 11293
Core_0_L2C_prefetch_useless 14662
Core_0_L2C_prefetch_late 130
Core_0_L2C_prefetch_fill 137523
Core_0_L2C_prefetch_too_early 3774
Core_0_L2C_prefetch_too_early_among_fill 0.0274427
Core_0_L2C_prefetch_too_early_among_useless 0.2574
Core_0_L2C_prefetch_pollution_evict 42642
Core_0_L2C_prefetch_pollution_demand 42148
Core_0_L2C_prefetch_pollution_among_prefetch_fill 0.310072
Core_0_L2C_prefetch_accuracy 0.0928678
Core_0_L2C_prefetch_coverage 0.0306798

Core_0_LLC_total_access 769206
Core_0_LLC_total_hit 428684
Core_0_LLC_total_miss 340522
Core_0_LLC_total_MPKI 3.40522
Core_0_LLC_total_miss_rate 0.442693
Core_0_LLC_demand_access 356556
Core_0_LLC_demand_hit 194496
Core_0_LLC_demand_miss 162060
Core_0_LLC_demand_MPKI 1.6206
Core_0_LLC_demand_miss_rate 0.454515
Core_0_LLC_load_access 336547
Core_0_LLC_load_hit 180914
Core_0_LLC_load_miss 155633
Core_0_LLC_load_MPKI 1.55633
Core_0_LLC_load_miss_rate 0.462441
Core_0_LLC_rfo_access 20009
Core_0_LLC_rfo_hit 13582
Core_0_LLC_rfo_miss 6427
Core_0_LLC_rfo_MPKI 0.06427
Core_0_LLC_rfo_miss_rate 0.321205
Core_0_LLC_prefetch_access 138673
Core_0_LLC_prefetch_hit 61603
Core_0_LLC_prefetch_miss 77070
Core_0_LLC_prefetch_MPKI 0.7707
Core_0_LLC_prefetch_miss_rate 0.555768
Core_0_LLC_writeback_access 273977
Core_0_LLC_writeback_hit 172585
Core_0_LLC_writeback_miss 101392
Core_0_LLC_writeback_MPKI 1.01392
Core_0_LLC_writeback_miss_rate 0.370075
Core_0_LLC_prefetch_requested 0
Core_0_LLC_prefetch_issued 0
Core_0_LLC_prefetch_useful 0
Core_0_LLC_prefetch_useless 0
Core_0_LLC_prefetch_late 0
Core_0_LLC_prefetch_fill 76321
Core_0_LLC_prefetch_too_early 0
Core_0_LLC_prefetch_too_early_among_fill 0
Core_0_LLC_prefetch_too_early_among_useless 0
Core_0_LLC_prefetch_pollution_evict 19264
Core_0_LLC_prefetch_pollution_demand 19264
Core_0_LLC_prefetch_pollution_among_prefetch_fill 0.252408
Core_0_LLC_prefetch_accuracy 0
Core_0_LLC_prefetch_coverage 0

[DRAM Statistics]
Channel_0_RQ_row_buffer_hit 938
Channel_0_RQ_row_buffer_miss 240018
Channel_0_WQ_row_buffer_hit 24333
Channel_0_WQ_row_buffer_miss 108613
Channel_0_WQ_full 0
Channel_0_dbus_congested 1117026
DRAM_total_RQ_row_buffer_hit 938
DRAM_total_RQ_row_buffer_miss 240018
DRAM_total_WQ_row_buffer_hit 24333
DRAM_total_WQ_row_buffer_miss 108613
DRAM_total_WQ_full 0
DRAM_total_dbus_congested 1117026
DRAM_avg_congested_cycle 17.6251

====== DRAM_RQ_TRAFFIC ========
DRAM_RQ_READ_TRAFFIC_BREAKDOWN:
data_demand_read.count = 161960
data_demand_read.share = 67.21%

inst_demand_read.count = 98
inst_demand_read.share = 0.04%

cache_inst_prefetch.count = 0
cache_inst_prefetch.share = 0.00%

cache_data_prefetch.count = 76323
cache_data_prefetch.share = 31.67%

stlb_data_demand.count = 2536
stlb_data_demand.share = 1.05%

stlb_inst_demand.count = 0
stlb_inst_demand.share = 0.00%

stlb_l1i_pref.count = 0
stlb_l1i_pref.share = 0.00%

stlb_l1d_pref.count = 45
stlb_l1d_pref.share = 0.02%

DRAM_RQ_READ_TRAFFIC_SUMMARY:
cache_demand.count = 162058
cache_demand.share = 67.25%

cache_prefetch.count = 76323
cache_prefetch.share = 31.67%

stlb_demand.count = 2536
stlb_demand.share = 1.05%

stlb_prefetch.count = 45
stlb_prefetch.share = 0.02%

DRAM_RQ_READ_TRAFFIC_DEBUG:
total_classified_read.count = 240962
unclassified_read.count = 0
total_read_with_other.count = 240962

classified_plus_unclassified_check.count = 240962
dram_rq_read_total_observed.count = 240962
dram_rq_read_total_observed.per_1K_instructions = 2.40962

STLB_MISS_PTW_DRAM_TOUCH_BREAKDOWN:
stlb_miss_total.count = 99131

stlb_miss_touch_dram.count = 2580
stlb_miss_touch_dram.share = 2.60%

stlb_miss_no_dram_touch.count = 96551
stlb_miss_no_dram_touch.share = 97.40%

STLB_MISS_PTW_DRAM_TOUCH_DEBUG:
stlb_miss_touch_plus_no_touch.count = 99131
stlb_miss_total_check.count = 99131

======STLB miss causes ========
Core_0_STLB_miss_cause_breakdown
Core_0_STLB_cause_Demand_Data_miss 98189
Core_0_STLB_cause_Demand_Data_miss_rate 0.157451
Core_0_STLB_cause_Demand_Instruction_miss 0
Core_0_STLB_cause_Demand_Instruction_miss_rate 0
Core_0_STLB_cause_L1D_Prefetch_miss 942
Core_0_STLB_cause_L1D_Prefetch_miss_rate 0.00151054
Core_0_STLB_cause_L1D_Prefetch_Same_Page_miss 0
Core_0_STLB_cause_L1D_Prefetch_Same_Page_miss_rate 0
Core_0_STLB_cause_L1D_Prefetch_Cross_Page_miss 942
Core_0_STLB_cause_L1D_Prefetch_Cross_Page_miss_rate 0.00151054
Core_0_STLB_cause_L1I_Prefetch_miss 0
Core_0_STLB_cause_L1I_Prefetch_miss_rate 0
Core_0_STLB_cause_Other_miss 0
Core_0_STLB_cause_Other_miss_rate 0
Core_0_STLB_Demand_miss 98189
Core_0_STLB_Demand_miss_rate 0.157451
Core_0_STLB_L1D_Prefetch_miss 942
Core_0_STLB_L1D_Prefetch_miss_rate 0.00151054
Core_0_STLB_Other_miss 0
Core_0_STLB_Other_miss_rate 0

========== vBerti-TLB Cross-page Flow Stats ==========

Core_0_vBerti_Requested 1720694
Core_0_vBerti_Cross_page_prefetch_in_Requested 176302
Core_0_vBerti_Same_page_prefetch_in_Requested 1544392
Core_0_vBerti_Cross_page_prefetch_of_Requested 0.10246
Core_0_vBerti_Issued 1063136
Core_0_vBerti_PQ_Drop_Rate 0.382147
Core_0_vBerti_InPQ_Cross_page_prefetch_of_Requested 0.039609
Core_0_vBerti_Cross_page_PQ_Drop_rate 0.613419
Core_0_vBerti_Cross_page_prefetch_of_Issued 0.0641075

========= DTLB_vBerti Prefetch Stats =========
Core_0_DTLB_demand_access 23580341
Core_0_DTLB_demand_hit 22822813
Core_0_DTLB_demand_miss 757528
Core_0_DTLB_demand_mshr_merge 137916
Core_0_DTLB_demand_fill 619623
Core_0_DTLB_demand_miss_rate 0.0321254
Core_0_DTLB_demand_mpki 7.57528
Core_0_DTLB_vberti_prefetch_access 843023
Core_0_DTLB_vberti_prefetch_hit 836665
Core_0_DTLB_vberti_prefetch_miss 6358
Core_0_DTLB_vberti_prefetch_mshr_merge 2354
Core_0_DTLB_vberti_prefetch_fill 3993
Core_0_DTLB_vberti_prefetch_miss_rate 0.00754191
Core_0_DTLB_vberti_prefetch_mpki 0.06358

=== DTLB_vBerti Same/Cross-page Prefetch Stats ===
Core_0_DTLB_vberti_same_page_prefetch 786882
Core_0_DTLB_vberti_same_page_prefetch_hit 786880
Core_0_DTLB_vberti_same_page_prefetch_miss 2
Core_0_DTLB_vberti_same_page_prefetch_mshr_merge 1
Core_0_DTLB_vberti_same_page_prefetch_fill 1
Core_0_DTLB_vberti_same_page_prefetch_miss_rate 2.54168e-06
Core_0_DTLB_vberti_same_page_prefetch_mpki 2e-05
Core_0_DTLB_vberti_cross_page_prefetch 56141
Core_0_DTLB_vberti_cross_page_prefetch_hit 49785
Core_0_DTLB_vberti_cross_page_prefetch_miss 6356
Core_0_DTLB_vberti_cross_page_prefetch_mshr_merge 2353
Core_0_DTLB_vberti_cross_page_prefetch_fill 3992
Core_0_DTLB_vberti_cross_page_prefetch_miss_rate 0.113215
Core_0_DTLB_vberti_cross_page_prefetch_mpki 0.06356
Core_0_DTLB_same_page_prefetch_miss_rate 2.54168e-06
Core_0_DTLB_same_page_prefetch_mpki 2e-05
Core_0_DTLB_cross_page_prefetch_miss_rate 0.113215
Core_0_DTLB_cross_page_prefetch_mpki 0.06356
Core_0_DTLB_cross_page_prefetch_issued 56141
Core_0_DTLB_cross_page_prefetch_lookups 56141
Core_0_DTLB_cross_page_prefetch_useful 916
Core_0_DTLB_cross_page_prefetch_useless 3087
Core_0_DTLB_cross_page_prefetch_late 11
Core_0_DTLB_cross_page_prefetch_too_early 1762
Core_0_DTLB_cross_page_prefetch_too_early_among_fill 0.441383
Core_0_DTLB_cross_page_prefetch_too_early_among_useless 0.570781
Core_0_DTLB_cross_page_prefetch_pollution_evict 3375
Core_0_DTLB_cross_page_prefetch_pollution_demand 3344
Core_0_DTLB_cross_page_prefetch_pollution_among_prefetch_fill 0.845441
Core_0_DTLB_cross_page_prefetch_accuracy 0.0163161
Core_0_DTLB_cross_page_prefetch_coverage 0.00120774

========= STLB_vBerti Prefetch Stats =========
Core_0_STLB_demand_access 619612
Core_0_STLB_demand_hit 521423
Core_0_STLB_demand_miss 98189
Core_0_STLB_demand_mshr_merge 0
Core_0_STLB_demand_fill 98189
Core_0_STLB_demand_miss_rate 0.158469
Core_0_STLB_demand_mpki 0.98189
Core_0_STLB_vberti_prefetch_access 4004
Core_0_STLB_vberti_prefetch_hit 3062
Core_0_STLB_vberti_prefetch_miss 942
Core_0_STLB_vberti_prefetch_mshr_merge 0
Core_0_STLB_vberti_prefetch_fill 942
Core_0_STLB_vberti_prefetch_miss_rate 0.235265
Core_0_STLB_vberti_prefetch_mpki 0.00942

=== STLB_vBerti Same/Cross-page Prefetch Stats ===
Core_0_STLB_vberti_same_page_prefetch 1
Core_0_STLB_vberti_same_page_prefetch_hit 1
Core_0_STLB_vberti_same_page_prefetch_miss 0
Core_0_STLB_vberti_same_page_prefetch_mshr_merge 0
Core_0_STLB_vberti_same_page_prefetch_fill 0
Core_0_STLB_vberti_same_page_prefetch_miss_rate 0
Core_0_STLB_vberti_same_page_prefetch_mpki 0
Core_0_STLB_vberti_cross_page_prefetch 4003
Core_0_STLB_vberti_cross_page_prefetch_hit 3061
Core_0_STLB_vberti_cross_page_prefetch_miss 942
Core_0_STLB_vberti_cross_page_prefetch_mshr_merge 0
Core_0_STLB_vberti_cross_page_prefetch_fill 942
Core_0_STLB_vberti_cross_page_prefetch_miss_rate 0.235324
Core_0_STLB_vberti_cross_page_prefetch_mpki 0.00942
Core_0_STLB_same_page_prefetch_miss_rate 0
Core_0_STLB_same_page_prefetch_mpki 0
Core_0_STLB_cross_page_prefetch_miss_rate 0.235324
Core_0_STLB_cross_page_prefetch_mpki 0.00942
Core_0_STLB_cross_page_prefetch_issued 4003
Core_0_STLB_cross_page_prefetch_lookups 4003
Core_0_STLB_cross_page_prefetch_useful 486
Core_0_STLB_cross_page_prefetch_useless 456
Core_0_STLB_cross_page_prefetch_late 0
Core_0_STLB_cross_page_prefetch_too_early 332
Core_0_STLB_cross_page_prefetch_too_early_among_fill 0.352442
Core_0_STLB_cross_page_prefetch_too_early_among_useless 0.72807
Core_0_STLB_cross_page_prefetch_pollution_evict 845
Core_0_STLB_cross_page_prefetch_pollution_demand 836
Core_0_STLB_cross_page_prefetch_pollution_among_prefetch_fill 0.897028
Core_0_STLB_cross_page_prefetch_accuracy 0.121409
Core_0_STLB_cross_page_prefetch_coverage 0.00492526

========= STLB Cross-page Prefetch Buffer Stats =========
Core_0_STLB_raw_demand_miss 98189
Core_0_CP_PB_insert 0
Core_0_CP_PB_demand_hit 0
Core_0_STLB_PB_demand_miss 98189
Core_0_CP_PB_coverage 0
Core_0_STLB_raw_demand_mpki 0.98189
Core_0_STLB_PB_demand_mpki 0.98189
Core_0_CP_PB_demand_hit_mpki 0

Core_0_TLB_demand_miss_rate 0.00416402
Core_0_TLB_demand_mpki 0.98189
Core_0_TLB_same_page_prefetch_miss_rate 0
Core_0_TLB_same_page_prefetch_mpki 0
Core_0_TLB_cross_page_prefetch_miss_rate 0.0167792
Core_0_TLB_cross_page_prefetch_mpki 0.00942
Core_0_TLB_cross_page_prefetch_issued 56141
Core_0_TLB_cross_page_prefetch_lookups 56141
Core_0_TLB_cross_page_prefetch_useful 389
Core_0_TLB_cross_page_prefetch_useless 1885
Core_0_TLB_cross_page_prefetch_late 5
Core_0_TLB_cross_page_prefetch_too_early 1103
Core_0_TLB_cross_page_prefetch_too_early_among_fill 0.223551
Core_0_TLB_cross_page_prefetch_too_early_among_useless 0.585146
Core_0_TLB_cross_page_prefetch_accuracy 0.00692898
Core_0_TLB_cross_page_prefetch_coverage 0.00394611
BERTI TO_L1: 1437573 TO_L2: 1081532 TO_L2_BC_MSHR: 31733
BERTI AVG_LAT: 43.4082 NUM_TRACK_LATENCY: 1103320 NUM_CANT_TRACK_LATENCY: 0
BERTI CROSS_PAGE 254564 NO_CROSS_PAGE: 2264541
BERTI FOUND_BERTI: 8154857 NO_FOUND_BERTI: 25874018
BERTI AVERAGE_ISSUED: 2.05668
