[VMEM] WARNING: physical memory size is smaller than virtual memory size.

*** ChampSim Multicore Out-of-Order Simulator ***
Warmup Instructions: 50000000
Simulation Instructions: 100000000
Number of CPUs: 1
Page size: 4096
Core 0: /data2/zcq/champsim_traces_gap/bc.kron-2608B.champsimtrace.xz
VBerti Prefetcher
BERTI HASH ENTANGLING
BERTI IP MASK ffff
Off-chip DRAM Size: 16 GiB Channels: 1 Width: 64-bit Data Rate: 3205 MT/s
Warmup halting CPU 0 at instruction 50000002 cycle 21963745 for remainder of phase
Warmup finished CPU 0 instructions: 50000002 cycles: 21963745 cumulative IPC: 2.276 (Simulation time: 00 hr 03 min 51 sec)
Warmup complete CPU 0 instructions: 50000002 cycles: 21963745 cumulative IPC: 2.276 (Simulation time: 00 hr 03 min 51 sec)
Simulation finished CPU 0 instructions: 100000004 cycles: 208337286 cumulative IPC: 0.48 (Simulation time: 00 hr 22 min 43 sec)
Simulation complete CPU 0 instructions: 100000004 cycles: 208337286 cumulative IPC: 0.48 (Simulation time: 00 hr 22 min 43 sec)

ChampSim completed all CPUs

=== Simulation ===
CPU 0 runs /data2/zcq/champsim_traces_gap/bc.kron-2608B.champsimtrace.xz

Region of Interest Statistics

CPU 0 cumulative IPC: 0.48 instructions: 100000004 cycles: 208337286
CPU 0 Branch Prediction Accuracy: 94.53% MPKI: 8.973 Average ROB Occupancy at Mispredict: 177.9
Branch type MPKI
BRANCH_DIRECT_JUMP: 0
BRANCH_INDIRECT: 0
BRANCH_CONDITIONAL: 8.973
BRANCH_DIRECT_CALL: 0
BRANCH_INDIRECT_CALL: 0
BRANCH_RETURN: 0

cpu0->cpu0_STLB TOTAL        ACCESS:    1850929 HIT:      34976 MISS:    1815953 MSHR_MERGE:          0
cpu0->cpu0_STLB LOAD         ACCESS:    1850929 HIT:      34976 MISS:    1815953 MSHR_MERGE:          0
cpu0->cpu0_STLB RFO          ACCESS:          0 HIT:          0 MISS:          0 MSHR_MERGE:          0
cpu0->cpu0_STLB PREFETCH     ACCESS:          0 HIT:          0 MISS:          0 MSHR_MERGE:          0
cpu0->cpu0_STLB WRITE        ACCESS:          0 HIT:          0 MISS:          0 MSHR_MERGE:          0
cpu0->cpu0_STLB TRANSLATION  ACCESS:          0 HIT:          0 MISS:          0 MSHR_MERGE:          0
cpu0->cpu0_STLB PREFETCH REQUESTED:          0 ISSUED:          0 USEFUL:          0 USELESS:          0 LATE:          0 TOO_EARLY:          0
cpu0->cpu0_STLB AVERAGE MISS LATENCY: 112.8 cycles
cpu0->cpu0_L2C TOTAL        ACCESS:    8347268 HIT:    3752858 MISS:    4594410 MSHR_MERGE:     422188
cpu0->cpu0_L2C LOAD         ACCESS:    1952307 HIT:      65305 MISS:    1887002 MSHR_MERGE:        675
cpu0->cpu0_L2C RFO          ACCESS:      24513 HIT:         30 MISS:      24483 MSHR_MERGE:          0
cpu0->cpu0_L2C PREFETCH     ACCESS:    4439875 HIT:    3365061 MISS:    1074814 MSHR_MERGE:     421513
cpu0->cpu0_L2C WRITE        ACCESS:      49790 HIT:      49790 MISS:          0 MSHR_MERGE:          0
cpu0->cpu0_L2C TRANSLATION  ACCESS:    1880783 HIT:     272672 MISS:    1608111 MSHR_MERGE:          0
cpu0->cpu0_L2C PREFETCH REQUESTED:    1267849 ISSUED:    1267849 USEFUL:     321682 USELESS:      57055 LATE:         34 TOO_EARLY:         18
cpu0->cpu0_L2C AVERAGE MISS LATENCY: 166.4 cycles
cpu0->cpu0_L1I TOTAL        ACCESS:     681237 HIT:     681237 MISS:          0 MSHR_MERGE:          0
cpu0->cpu0_L1I LOAD         ACCESS:     681237 HIT:     681237 MISS:          0 MSHR_MERGE:          0
cpu0->cpu0_L1I RFO          ACCESS:          0 HIT:          0 MISS:          0 MSHR_MERGE:          0
cpu0->cpu0_L1I PREFETCH     ACCESS:          0 HIT:          0 MISS:          0 MSHR_MERGE:          0
cpu0->cpu0_L1I WRITE        ACCESS:          0 HIT:          0 MISS:          0 MSHR_MERGE:          0
cpu0->cpu0_L1I TRANSLATION  ACCESS:          0 HIT:          0 MISS:          0 MSHR_MERGE:          0
cpu0->cpu0_L1I PREFETCH REQUESTED:          0 ISSUED:          0 USEFUL:          0 USELESS:          0 LATE:          0 TOO_EARLY:          0
cpu0->cpu0_L1I AVERAGE MISS LATENCY: - cycles
cpu0->cpu0_L1D TOTAL        ACCESS:   23419614 HIT:   16047214 MISS:    7372400 MSHR_MERGE:     293333
cpu0->cpu0_L1D LOAD         ACCESS:   12626831 HIT:   10400068 MISS:    2226763 MSHR_MERGE:     274456
cpu0->cpu0_L1D RFO          ACCESS:          0 HIT:          0 MISS:          0 MSHR_MERGE:          0
cpu0->cpu0_L1D PREFETCH     ACCESS:    5671614 HIT:    2436729 MISS:    3234885 MSHR_MERGE:      13421
cpu0->cpu0_L1D WRITE        ACCESS:      52529 HIT:      28005 MISS:      24524 MSHR_MERGE:         11
cpu0->cpu0_L1D TRANSLATION  ACCESS:    5068640 HIT:    3182412 MISS:    1886228 MSHR_MERGE:       5445
cpu0->cpu0_L1D PREFETCH REQUESTED:    5694844 ISSUED:    5671616 USEFUL:     343957 USELESS:     137619 LATE:        816 TOO_EARLY:        650
cpu0->cpu0_L1D AVERAGE MISS LATENCY: 160.7 cycles
cpu0->cpu0_ITLB TOTAL        ACCESS:     681237 HIT:     681237 MISS:          0 MSHR_MERGE:          0
cpu0->cpu0_ITLB LOAD         ACCESS:     681237 HIT:     681237 MISS:          0 MSHR_MERGE:          0
cpu0->cpu0_ITLB RFO          ACCESS:          0 HIT:          0 MISS:          0 MSHR_MERGE:          0
cpu0->cpu0_ITLB PREFETCH     ACCESS:          0 HIT:          0 MISS:          0 MSHR_MERGE:          0
cpu0->cpu0_ITLB WRITE        ACCESS:          0 HIT:          0 MISS:          0 MSHR_MERGE:          0
cpu0->cpu0_ITLB TRANSLATION  ACCESS:          0 HIT:          0 MISS:          0 MSHR_MERGE:          0
cpu0->cpu0_ITLB PREFETCH REQUESTED:          0 ISSUED:          0 USEFUL:          0 USELESS:          0 LATE:          0 TOO_EARLY:          0
cpu0->cpu0_ITLB AVERAGE MISS LATENCY: - cycles
cpu0->cpu0_DTLB TOTAL        ACCESS:   16183809 HIT:   14226153 MISS:    1957656 MSHR_MERGE:     106727
cpu0->cpu0_DTLB LOAD         ACCESS:   16183809 HIT:   14226153 MISS:    1957656 MSHR_MERGE:     106727
cpu0->cpu0_DTLB RFO          ACCESS:          0 HIT:          0 MISS:          0 MSHR_MERGE:          0
cpu0->cpu0_DTLB PREFETCH     ACCESS:          0 HIT:          0 MISS:          0 MSHR_MERGE:          0
cpu0->cpu0_DTLB WRITE        ACCESS:          0 HIT:          0 MISS:          0 MSHR_MERGE:          0
cpu0->cpu0_DTLB TRANSLATION  ACCESS:          0 HIT:          0 MISS:          0 MSHR_MERGE:          0
cpu0->cpu0_DTLB PREFETCH REQUESTED:          0 ISSUED:          0 USEFUL:          0 USELESS:          0 LATE:          0 TOO_EARLY:          0
cpu0->cpu0_DTLB AVERAGE MISS LATENCY: 116.7 cycles
cpu0->LLC TOTAL        ACCESS:    4221874 HIT:    1085325 MISS:    3136549 MSHR_MERGE:         25
cpu0->LLC LOAD         ACCESS:    1886327 HIT:       4468 MISS:    1881859 MSHR_MERGE:          0
cpu0->LLC RFO          ACCESS:      24483 HIT:          4 MISS:      24479 MSHR_MERGE:          0
cpu0->LLC PREFETCH     ACCESS:     653301 HIT:         93 MISS:     653208 MSHR_MERGE:         25
cpu0->LLC WRITE        ACCESS:      49652 HIT:       9262 MISS:      40390 MSHR_MERGE:          0
cpu0->LLC TRANSLATION  ACCESS:    1608111 HIT:    1071498 MISS:     536613 MSHR_MERGE:          0
cpu0->LLC PREFETCH REQUESTED:          0 ISSUED:          0 USEFUL:          0 USELESS:          0 LATE:          0 TOO_EARLY:          0
cpu0->LLC AVERAGE MISS LATENCY: 213.6 cycles

DRAM Statistics

Channel 0 RQ ROW_BUFFER_HIT:       2355
  ROW_BUFFER_MISS:    3093779
  AVG DBUS CONGESTED CYCLE: 11.8
Channel 0 WQ ROW_BUFFER_HIT:      19024
  ROW_BUFFER_MISS:      31730
  FULL:          0
Channel 0 REFRESHES ISSUED:      17361

[ROI Statistics]
[System Configuration]
num_cpus 1
cpu_freq 4000
fetch_width 6
decode_width 6
dispatch_width 6
execute_width 6
lq_width 2
sq_width 2
retire_width 6
scheduler_size 128
branch_mispredict_penalty 15
rob_size 352
lq_size 128
sq_size 72
ifetch_buffer_size 64
decode_buffer_size 32
dispatch_buffer_size 32
register_file_size 288
decode_latency 1
dispatch_latency 1
schedule_latency 1
execute_latency 1
page_size 4096
block_size 64
core_0_itlb_set 16
core_0_itlb_way 4
core_0_itlb_rq_size 16
core_0_itlb_wq_size 16
core_0_itlb_pq_size 0
core_0_itlb_mshr_size 8
core_0_itlb_hit_latency 1
core_0_itlb_fill_latency 1
core_0_itlb_max_tag_check 2
core_0_itlb_max_fill 2
core_0_dtlb_set 16
core_0_dtlb_way 4
core_0_dtlb_rq_size 16
core_0_dtlb_wq_size 16
core_0_dtlb_pq_size 0
core_0_dtlb_mshr_size 8
core_0_dtlb_hit_latency 1
core_0_dtlb_fill_latency 1
core_0_dtlb_max_tag_check 2
core_0_dtlb_max_fill 2
core_0_stlb_set 128
core_0_stlb_way 12
core_0_stlb_rq_size 32
core_0_stlb_wq_size 32
core_0_stlb_pq_size 0
core_0_stlb_mshr_size 16
core_0_stlb_hit_latency 4
core_0_stlb_fill_latency 4
core_0_stlb_max_tag_check 1
core_0_stlb_max_fill 1
core_0_l1i_set 64
core_0_l1i_way 8
core_0_l1i_rq_size 64
core_0_l1i_wq_size 64
core_0_l1i_pq_size 32
core_0_l1i_mshr_size 8
core_0_l1i_hit_latency 2
core_0_l1i_fill_latency 2
core_0_l1i_max_tag_check 2
core_0_l1i_max_fill 2
core_0_l1d_set 64
core_0_l1d_way 12
core_0_l1d_rq_size 64
core_0_l1d_wq_size 64
core_0_l1d_pq_size 8
core_0_l1d_mshr_size 16
core_0_l1d_hit_latency 2
core_0_l1d_fill_latency 3
core_0_l1d_max_tag_check 2
core_0_l1d_max_fill 2
core_0_l2c_set 1024
core_0_l2c_way 8
core_0_l2c_rq_size 32
core_0_l2c_wq_size 32
core_0_l2c_pq_size 16
core_0_l2c_mshr_size 32
core_0_l2c_hit_latency 5
core_0_l2c_fill_latency 5
core_0_l2c_max_tag_check 1
core_0_l2c_max_fill 1
llc_set 2048
llc_way 16
llc_rq_size 32
llc_wq_size 32
llc_pq_size 32
llc_mshr_size 64
llc_hit_latency 10
llc_fill_latency 10
llc_max_tag_check 1
llc_max_fill 1
dram_channels 1
dram_ranks 1
dram_bankgroups 8
dram_banks 4
dram_rows 65536
dram_columns 1024
dram_channel_width 8
dram_rq_size 64
dram_wq_size 64
dram_size 17179869184
core_0_itlb_prefetcher no
core_0_dtlb_prefetcher no
core_0_stlb_prefetcher no
core_0_l1i_prefetcher next_line
core_0_l1d_prefetcher vberti
core_0_l2c_prefetcher ip_stride
llc_prefetcher no
llc_replacement drrip

Core_0_instructions 100000004
Core_0_cycles 208337286
Core_0_IPC 0.479991
Core_0_branch_prediction_accuracy 94.532
Core_0_branch_MPKI 8.9733
Core_0_average_ROB_occupancy_at_mispredict 177.903

Core_0_ITLB_total_access 681237
Core_0_ITLB_total_hit 681237
Core_0_ITLB_total_miss 0
Core_0_ITLB_total_MPKI 0
Core_0_ITLB_total_miss_rate 0
Core_0_ITLB_demand_access 681237
Core_0_ITLB_demand_hit 681237
Core_0_ITLB_demand_miss 0
Core_0_ITLB_demand_MPKI 0
Core_0_ITLB_demand_miss_rate 0
Core_0_ITLB_load_access 681237
Core_0_ITLB_load_hit 681237
Core_0_ITLB_load_miss 0
Core_0_ITLB_load_MPKI 0
Core_0_ITLB_load_miss_rate 0
Core_0_ITLB_rfo_access 0
Core_0_ITLB_rfo_hit 0
Core_0_ITLB_rfo_miss 0
Core_0_ITLB_rfo_MPKI 0
Core_0_ITLB_rfo_miss_rate 0
Core_0_ITLB_prefetch_access 0
Core_0_ITLB_prefetch_hit 0
Core_0_ITLB_prefetch_miss 0
Core_0_ITLB_prefetch_MPKI 0
Core_0_ITLB_prefetch_miss_rate 0
Core_0_ITLB_writeback_access 0
Core_0_ITLB_writeback_hit 0
Core_0_ITLB_writeback_miss 0
Core_0_ITLB_writeback_MPKI 0
Core_0_ITLB_writeback_miss_rate 0
Core_0_ITLB_prefetch_requested 0
Core_0_ITLB_prefetch_issued 0
Core_0_ITLB_prefetch_useful 0
Core_0_ITLB_prefetch_useless 0
Core_0_ITLB_prefetch_late 0
Core_0_ITLB_prefetch_fill 0
Core_0_ITLB_prefetch_too_early 0
Core_0_ITLB_prefetch_too_early_among_fill 0
Core_0_ITLB_prefetch_too_early_among_useless 0
Core_0_ITLB_prefetch_pollution_evict 0
Core_0_ITLB_prefetch_pollution_demand 0
Core_0_ITLB_prefetch_pollution_among_prefetch_fill 0
Core_0_ITLB_prefetch_accuracy 0
Core_0_ITLB_prefetch_coverage 0

Core_0_DTLB_total_access 16183809
Core_0_DTLB_total_hit 14226153
Core_0_DTLB_total_miss 1957656
Core_0_DTLB_total_MPKI 19.5766
Core_0_DTLB_total_miss_rate 0.120964
Core_0_DTLB_demand_access 16183809
Core_0_DTLB_demand_hit 14226153
Core_0_DTLB_demand_miss 1957656
Core_0_DTLB_demand_MPKI 19.5766
Core_0_DTLB_demand_miss_rate 0.120964
Core_0_DTLB_load_access 16183809
Core_0_DTLB_load_hit 14226153
Core_0_DTLB_load_miss 1957656
Core_0_DTLB_load_MPKI 19.5766
Core_0_DTLB_load_miss_rate 0.120964
Core_0_DTLB_rfo_access 0
Core_0_DTLB_rfo_hit 0
Core_0_DTLB_rfo_miss 0
Core_0_DTLB_rfo_MPKI 0
Core_0_DTLB_rfo_miss_rate 0
Core_0_DTLB_prefetch_access 0
Core_0_DTLB_prefetch_hit 0
Core_0_DTLB_prefetch_miss 0
Core_0_DTLB_prefetch_MPKI 0
Core_0_DTLB_prefetch_miss_rate 0
Core_0_DTLB_writeback_access 0
Core_0_DTLB_writeback_hit 0
Core_0_DTLB_writeback_miss 0
Core_0_DTLB_writeback_MPKI 0
Core_0_DTLB_writeback_miss_rate 0
Core_0_DTLB_prefetch_requested 0
Core_0_DTLB_prefetch_issued 0
Core_0_DTLB_prefetch_useful 0
Core_0_DTLB_prefetch_useless 0
Core_0_DTLB_prefetch_late 0
Core_0_DTLB_prefetch_fill 0
Core_0_DTLB_prefetch_too_early 0
Core_0_DTLB_prefetch_too_early_among_fill 0
Core_0_DTLB_prefetch_too_early_among_useless 0
Core_0_DTLB_prefetch_pollution_evict 0
Core_0_DTLB_prefetch_pollution_demand 0
Core_0_DTLB_prefetch_pollution_among_prefetch_fill 0
Core_0_DTLB_prefetch_accuracy 0
Core_0_DTLB_prefetch_coverage 0

Core_0_STLB_total_access 1850929
Core_0_STLB_total_hit 34976
Core_0_STLB_total_miss 1815953
Core_0_STLB_total_MPKI 18.1595
Core_0_STLB_total_miss_rate 0.981104
Core_0_STLB_demand_access 1850929
Core_0_STLB_demand_hit 34976
Core_0_STLB_demand_miss 1815953
Core_0_STLB_demand_MPKI 18.1595
Core_0_STLB_demand_miss_rate 0.981104
Core_0_STLB_load_access 1850929
Core_0_STLB_load_hit 34976
Core_0_STLB_load_miss 1815953
Core_0_STLB_load_MPKI 18.1595
Core_0_STLB_load_miss_rate 0.981104
Core_0_STLB_rfo_access 0
Core_0_STLB_rfo_hit 0
Core_0_STLB_rfo_miss 0
Core_0_STLB_rfo_MPKI 0
Core_0_STLB_rfo_miss_rate 0
Core_0_STLB_prefetch_access 0
Core_0_STLB_prefetch_hit 0
Core_0_STLB_prefetch_miss 0
Core_0_STLB_prefetch_MPKI 0
Core_0_STLB_prefetch_miss_rate 0
Core_0_STLB_writeback_access 0
Core_0_STLB_writeback_hit 0
Core_0_STLB_writeback_miss 0
Core_0_STLB_writeback_MPKI 0
Core_0_STLB_writeback_miss_rate 0
Core_0_STLB_prefetch_requested 0
Core_0_STLB_prefetch_issued 0
Core_0_STLB_prefetch_useful 0
Core_0_STLB_prefetch_useless 0
Core_0_STLB_prefetch_late 0
Core_0_STLB_prefetch_fill 0
Core_0_STLB_prefetch_too_early 0
Core_0_STLB_prefetch_too_early_among_fill 0
Core_0_STLB_prefetch_too_early_among_useless 0
Core_0_STLB_prefetch_pollution_evict 0
Core_0_STLB_prefetch_pollution_demand 0
Core_0_STLB_prefetch_pollution_among_prefetch_fill 0
Core_0_STLB_prefetch_accuracy 0
Core_0_STLB_prefetch_coverage 0

Core_0_L1I_total_access 681237
Core_0_L1I_total_hit 681237
Core_0_L1I_total_miss 0
Core_0_L1I_total_MPKI 0
Core_0_L1I_total_miss_rate 0
Core_0_L1I_demand_access 681237
Core_0_L1I_demand_hit 681237
Core_0_L1I_demand_miss 0
Core_0_L1I_demand_MPKI 0
Core_0_L1I_demand_miss_rate 0
Core_0_L1I_load_access 681237
Core_0_L1I_load_hit 681237
Core_0_L1I_load_miss 0
Core_0_L1I_load_MPKI 0
Core_0_L1I_load_miss_rate 0
Core_0_L1I_rfo_access 0
Core_0_L1I_rfo_hit 0
Core_0_L1I_rfo_miss 0
Core_0_L1I_rfo_MPKI 0
Core_0_L1I_rfo_miss_rate 0
Core_0_L1I_prefetch_access 0
Core_0_L1I_prefetch_hit 0
Core_0_L1I_prefetch_miss 0
Core_0_L1I_prefetch_MPKI 0
Core_0_L1I_prefetch_miss_rate 0
Core_0_L1I_writeback_access 0
Core_0_L1I_writeback_hit 0
Core_0_L1I_writeback_miss 0
Core_0_L1I_writeback_MPKI 0
Core_0_L1I_writeback_miss_rate 0
Core_0_L1I_prefetch_requested 0
Core_0_L1I_prefetch_issued 0
Core_0_L1I_prefetch_useful 0
Core_0_L1I_prefetch_useless 0
Core_0_L1I_prefetch_late 0
Core_0_L1I_prefetch_fill 0
Core_0_L1I_prefetch_too_early 0
Core_0_L1I_prefetch_too_early_among_fill 0
Core_0_L1I_prefetch_too_early_among_useless 0
Core_0_L1I_prefetch_pollution_evict 0
Core_0_L1I_prefetch_pollution_demand 0
Core_0_L1I_prefetch_pollution_among_prefetch_fill 0
Core_0_L1I_prefetch_accuracy 0
Core_0_L1I_prefetch_coverage 0

Core_0_L1D_total_access 18350974
Core_0_L1D_total_hit 12864802
Core_0_L1D_total_miss 5486172
Core_0_L1D_total_MPKI 54.8617
Core_0_L1D_total_miss_rate 0.298958
Core_0_L1D_demand_access 12626831
Core_0_L1D_demand_hit 10400068
Core_0_L1D_demand_miss 2226763
Core_0_L1D_demand_MPKI 22.2676
Core_0_L1D_demand_miss_rate 0.176352
Core_0_L1D_load_access 12626831
Core_0_L1D_load_hit 10400068
Core_0_L1D_load_miss 2226763
Core_0_L1D_load_MPKI 22.2676
Core_0_L1D_load_miss_rate 0.176352
Core_0_L1D_rfo_access 0
Core_0_L1D_rfo_hit 0
Core_0_L1D_rfo_miss 0
Core_0_L1D_rfo_MPKI 0
Core_0_L1D_rfo_miss_rate 0
Core_0_L1D_prefetch_access 5671614
Core_0_L1D_prefetch_hit 2436729
Core_0_L1D_prefetch_miss 3234885
Core_0_L1D_prefetch_MPKI 32.3488
Core_0_L1D_prefetch_miss_rate 0.570364
Core_0_L1D_writeback_access 52529
Core_0_L1D_writeback_hit 28005
Core_0_L1D_writeback_miss 24524
Core_0_L1D_writeback_MPKI 0.24524
Core_0_L1D_writeback_miss_rate 0.466866
Core_0_L1D_prefetch_requested 5694844
Core_0_L1D_prefetch_issued 5671616
Core_0_L1D_prefetch_useful 343957
Core_0_L1D_prefetch_useless 137619
Core_0_L1D_prefetch_late 816
Core_0_L1D_prefetch_fill 480772
Core_0_L1D_prefetch_too_early 650
Core_0_L1D_prefetch_too_early_among_fill 0.00135199
Core_0_L1D_prefetch_too_early_among_useless 0.00472319
Core_0_L1D_prefetch_pollution_evict 245
Core_0_L1D_prefetch_pollution_demand 223
Core_0_L1D_prefetch_pollution_among_prefetch_fill 0.000509597
Core_0_L1D_prefetch_accuracy 0.0606453
Core_0_L1D_prefetch_coverage 0.133798

Core_0_L2C_total_access 6466485
Core_0_L2C_total_hit 3480186
Core_0_L2C_total_miss 2986299
Core_0_L2C_total_MPKI 29.863
Core_0_L2C_total_miss_rate 0.461812
Core_0_L2C_demand_access 1976820
Core_0_L2C_demand_hit 65335
Core_0_L2C_demand_miss 1911485
Core_0_L2C_demand_MPKI 19.1148
Core_0_L2C_demand_miss_rate 0.966949
Core_0_L2C_load_access 1952307
Core_0_L2C_load_hit 65305
Core_0_L2C_load_miss 1887002
Core_0_L2C_load_MPKI 18.87
Core_0_L2C_load_miss_rate 0.96655
Core_0_L2C_rfo_access 24513
Core_0_L2C_rfo_hit 30
Core_0_L2C_rfo_miss 24483
Core_0_L2C_rfo_MPKI 0.24483
Core_0_L2C_rfo_miss_rate 0.998776
Core_0_L2C_prefetch_access 4439875
Core_0_L2C_prefetch_hit 3365061
Core_0_L2C_prefetch_miss 1074814
Core_0_L2C_prefetch_MPKI 10.7481
Core_0_L2C_prefetch_miss_rate 0.242082
Core_0_L2C_writeback_access 49790
Core_0_L2C_writeback_hit 49790
Core_0_L2C_writeback_miss 0
Core_0_L2C_writeback_MPKI 0
Core_0_L2C_writeback_miss_rate 0
Core_0_L2C_prefetch_requested 1267849
Core_0_L2C_prefetch_issued 1267849
Core_0_L2C_prefetch_useful 321682
Core_0_L2C_prefetch_useless 57055
Core_0_L2C_prefetch_late 34
Core_0_L2C_prefetch_fill 652569
Core_0_L2C_prefetch_too_early 18
Core_0_L2C_prefetch_too_early_among_fill 2.75833e-05
Core_0_L2C_prefetch_too_early_among_useless 0.000315485
Core_0_L2C_prefetch_pollution_evict 1171
Core_0_L2C_prefetch_pollution_demand 1170
Core_0_L2C_prefetch_pollution_among_prefetch_fill 0.00179445
Core_0_L2C_prefetch_accuracy 0.253723
Core_0_L2C_prefetch_coverage 0.144047

Core_0_LLC_total_access 2613763
Core_0_LLC_total_hit 13827
Core_0_LLC_total_miss 2599936
Core_0_LLC_total_MPKI 25.9994
Core_0_LLC_total_miss_rate 0.99471
Core_0_LLC_demand_access 1910810
Core_0_LLC_demand_hit 4472
Core_0_LLC_demand_miss 1906338
Core_0_LLC_demand_MPKI 19.0634
Core_0_LLC_demand_miss_rate 0.99766
Core_0_LLC_load_access 1886327
Core_0_LLC_load_hit 4468
Core_0_LLC_load_miss 1881859
Core_0_LLC_load_MPKI 18.8186
Core_0_LLC_load_miss_rate 0.997631
Core_0_LLC_rfo_access 24483
Core_0_LLC_rfo_hit 4
Core_0_LLC_rfo_miss 24479
Core_0_LLC_rfo_MPKI 0.24479
Core_0_LLC_rfo_miss_rate 0.999837
Core_0_LLC_prefetch_access 653301
Core_0_LLC_prefetch_hit 93
Core_0_LLC_prefetch_miss 653208
Core_0_LLC_prefetch_MPKI 6.53208
Core_0_LLC_prefetch_miss_rate 0.999858
Core_0_LLC_writeback_access 49652
Core_0_LLC_writeback_hit 9262
Core_0_LLC_writeback_miss 40390
Core_0_LLC_writeback_MPKI 0.4039
Core_0_LLC_writeback_miss_rate 0.813462
Core_0_LLC_prefetch_requested 0
Core_0_LLC_prefetch_issued 0
Core_0_LLC_prefetch_useful 0
Core_0_LLC_prefetch_useless 0
Core_0_LLC_prefetch_late 0
Core_0_LLC_prefetch_fill 653183
Core_0_LLC_prefetch_too_early 0
Core_0_LLC_prefetch_too_early_among_fill 0
Core_0_LLC_prefetch_too_early_among_useless 0
Core_0_LLC_prefetch_pollution_evict 3263
Core_0_LLC_prefetch_pollution_demand 3263
Core_0_LLC_prefetch_pollution_among_prefetch_fill 0.00499554
Core_0_LLC_prefetch_accuracy 0
Core_0_LLC_prefetch_coverage 0

[DRAM Statistics]
Channel_0_RQ_row_buffer_hit 2355
Channel_0_RQ_row_buffer_miss 3093779
Channel_0_WQ_row_buffer_hit 19024
Channel_0_WQ_row_buffer_miss 31730
Channel_0_WQ_full 0
Channel_0_dbus_congested 4435014
DRAM_total_RQ_row_buffer_hit 2355
DRAM_total_RQ_row_buffer_miss 3093779
DRAM_total_WQ_row_buffer_hit 19024
DRAM_total_WQ_row_buffer_miss 31730
DRAM_total_WQ_full 0
DRAM_total_dbus_congested 4435014
DRAM_avg_congested_cycle 11.7972

====== DRAM_RQ_TRAFFIC ========
DRAM_RQ_READ_TRAFFIC_BREAKDOWN:
data_demand_read.count = 1906338
data_demand_read.share = 61.57%

inst_demand_read.count = 0
inst_demand_read.share = 0.00%

cache_inst_prefetch.count = 0
cache_inst_prefetch.share = 0.00%

cache_data_prefetch.count = 653183
cache_data_prefetch.share = 21.10%

stlb_data_demand.count = 535377
stlb_data_demand.share = 17.29%

stlb_inst_demand.count = 0
stlb_inst_demand.share = 0.00%

stlb_l1i_pref.count = 0
stlb_l1i_pref.share = 0.00%

stlb_l1d_pref.count = 1236
stlb_l1d_pref.share = 0.04%

DRAM_RQ_READ_TRAFFIC_SUMMARY:
cache_demand.count = 1906338
cache_demand.share = 61.57%

cache_prefetch.count = 653183
cache_prefetch.share = 21.10%

stlb_demand.count = 535377
stlb_demand.share = 17.29%

stlb_prefetch.count = 1236
stlb_prefetch.share = 0.04%

DRAM_RQ_READ_TRAFFIC_DEBUG:
total_classified_read.count = 3096134
unclassified_read.count = 0
total_read_with_other.count = 3096134

classified_plus_unclassified_check.count = 3096134
dram_rq_read_total_observed.count = 3096134
dram_rq_read_total_observed.per_1K_instructions = 30.9613

STLB_MISS_PTW_DRAM_TOUCH_BREAKDOWN:
stlb_miss_total.count = 1815953

stlb_miss_touch_dram.count = 536393
stlb_miss_touch_dram.share = 29.54%

stlb_miss_no_dram_touch.count = 1279560
stlb_miss_no_dram_touch.share = 70.46%

STLB_MISS_PTW_DRAM_TOUCH_DEBUG:
stlb_miss_touch_plus_no_touch.count = 1815953
stlb_miss_total_check.count = 1815953

======STLB miss causes ========
Core_0_STLB_miss_cause_breakdown
Core_0_STLB_cause_Demand_Data_miss 1806585
Core_0_STLB_cause_Demand_Data_miss_rate 0.976042
Core_0_STLB_cause_Demand_Instruction_miss 0
Core_0_STLB_cause_Demand_Instruction_miss_rate 0
Core_0_STLB_cause_L1D_Prefetch_miss 9368
Core_0_STLB_cause_L1D_Prefetch_miss_rate 0.00506124
Core_0_STLB_cause_L1D_Prefetch_Same_Page_miss 0
Core_0_STLB_cause_L1D_Prefetch_Same_Page_miss_rate 0
Core_0_STLB_cause_L1D_Prefetch_Cross_Page_miss 9368
Core_0_STLB_cause_L1D_Prefetch_Cross_Page_miss_rate 0.00506124
Core_0_STLB_cause_L1I_Prefetch_miss 0
Core_0_STLB_cause_L1I_Prefetch_miss_rate 0
Core_0_STLB_cause_Other_miss 0
Core_0_STLB_cause_Other_miss_rate 0
Core_0_STLB_Demand_miss 1806585
Core_0_STLB_Demand_miss_rate 0.976042
Core_0_STLB_L1D_Prefetch_miss 9368
Core_0_STLB_L1D_Prefetch_miss_rate 0.00506124
Core_0_STLB_Other_miss 0
Core_0_STLB_Other_miss_rate 0

========== vBerti-TLB Cross-page Flow Stats ==========

Core_0_vBerti_Requested 5694844
Core_0_vBerti_Cross_page_prefetch_in_Requested 245527
Core_0_vBerti_Same_page_prefetch_in_Requested 5449317
Core_0_vBerti_Cross_page_prefetch_of_Requested 0.0431139
Core_0_vBerti_Issued 5671616
Core_0_vBerti_InPQ_Same_page_prefetch 5427489
Core_0_vBerti_InPQ_Cross_page_prefetch 244127
Core_0_vBerti_PQ_Drop_Rate 0.00407878
Core_0_vBerti_InPQ_Cross_page_prefetch_of_Requested 0.0428681
Core_0_vBerti_Cross_page_PQ_Drop_rate 0.00570202
Core_0_vBerti_Cross_page_prefetch_of_Issued 0.0430436
Core_0_CP_PF_PQFULL_drop 1400
Core_0_CP_PF_PQFULL_TLB_rescue_enqueued 0
Core_0_CP_PF_PQFULL_TLB_rescue_issued 0
Core_0_CP_PF_PQFULL_TLB_rescue_translated 0

========= DTLB_vBerti Prefetch Stats =========
Core_0_DTLB_demand_access 12639477
Core_0_DTLB_demand_hit 10710577
Core_0_DTLB_demand_miss 1928900
Core_0_DTLB_demand_mshr_merge 88505
Core_0_DTLB_demand_fill 1840431
Core_0_DTLB_demand_miss_rate 0.152609
Core_0_DTLB_demand_mpki 19.289
Core_0_DTLB_vberti_prefetch_access 3544332
Core_0_DTLB_vberti_prefetch_hit 3515576
Core_0_DTLB_vberti_prefetch_miss 28756
Core_0_DTLB_vberti_prefetch_mshr_merge 18222
Core_0_DTLB_vberti_prefetch_fill 10498
Core_0_DTLB_vberti_prefetch_miss_rate 0.00811324
Core_0_DTLB_vberti_prefetch_mpki 0.28756

=== DTLB_vBerti Same/Cross-page Prefetch Stats ===
Core_0_DTLB_vberti_same_page_prefetch 3357693
Core_0_DTLB_vberti_same_page_prefetch_hit 3357693
Core_0_DTLB_vberti_same_page_prefetch_miss 0
Core_0_DTLB_vberti_same_page_prefetch_mshr_merge 0
Core_0_DTLB_vberti_same_page_prefetch_fill 0
Core_0_DTLB_vberti_same_page_prefetch_miss_rate 0
Core_0_DTLB_vberti_same_page_prefetch_mpki 0
Core_0_DTLB_vberti_cross_page_prefetch 186639
Core_0_DTLB_vberti_cross_page_prefetch_hit 157883
Core_0_DTLB_vberti_cross_page_prefetch_miss 28756
Core_0_DTLB_vberti_cross_page_prefetch_mshr_merge 18222
Core_0_DTLB_vberti_cross_page_prefetch_fill 10498
Core_0_DTLB_vberti_cross_page_prefetch_miss_rate 0.154073
Core_0_DTLB_vberti_cross_page_prefetch_mpki 0.28756
Core_0_DTLB_same_page_prefetch_miss_rate 0
Core_0_DTLB_same_page_prefetch_mpki 0
Core_0_DTLB_cross_page_prefetch_miss_rate 0.154073
Core_0_DTLB_cross_page_prefetch_mpki 0.28756
Core_0_DTLB_cross_page_prefetch_issued 186639
Core_0_DTLB_cross_page_prefetch_lookups 186639
Core_0_DTLB_cross_page_prefetch_useful 7829
Core_0_DTLB_cross_page_prefetch_useless 2705
Core_0_DTLB_cross_page_prefetch_late 36
Core_0_DTLB_cross_page_prefetch_too_early 10
Core_0_DTLB_cross_page_prefetch_too_early_among_fill 0.000952562
Core_0_DTLB_cross_page_prefetch_too_early_among_useless 0.00369686
Core_0_DTLB_cross_page_prefetch_pollution_evict 534
Core_0_DTLB_cross_page_prefetch_pollution_demand 534
Core_0_DTLB_cross_page_prefetch_pollution_among_prefetch_fill 0.0508668
Core_0_DTLB_cross_page_prefetch_accuracy 0.0419473
Core_0_DTLB_cross_page_prefetch_coverage 0.00404238

========= STLB_vBerti Prefetch Stats =========
Core_0_STLB_demand_access 1840395
Core_0_STLB_demand_hit 33810
Core_0_STLB_demand_miss 1806585
Core_0_STLB_demand_mshr_merge 0
Core_0_STLB_demand_fill 1806585
Core_0_STLB_demand_miss_rate 0.981629
Core_0_STLB_demand_mpki 18.0658
Core_0_STLB_vberti_prefetch_access 10534
Core_0_STLB_vberti_prefetch_hit 1166
Core_0_STLB_vberti_prefetch_miss 9368
Core_0_STLB_vberti_prefetch_mshr_merge 0
Core_0_STLB_vberti_prefetch_fill 9368
Core_0_STLB_vberti_prefetch_miss_rate 0.889311
Core_0_STLB_vberti_prefetch_mpki 0.09368

=== STLB_vBerti Same/Cross-page Prefetch Stats ===
Core_0_STLB_vberti_same_page_prefetch 0
Core_0_STLB_vberti_same_page_prefetch_hit 0
Core_0_STLB_vberti_same_page_prefetch_miss 0
Core_0_STLB_vberti_same_page_prefetch_mshr_merge 0
Core_0_STLB_vberti_same_page_prefetch_fill 0
Core_0_STLB_vberti_same_page_prefetch_miss_rate 0
Core_0_STLB_vberti_same_page_prefetch_mpki 0
Core_0_STLB_vberti_cross_page_prefetch 10534
Core_0_STLB_vberti_cross_page_prefetch_hit 1166
Core_0_STLB_vberti_cross_page_prefetch_miss 9368
Core_0_STLB_vberti_cross_page_prefetch_mshr_merge 0
Core_0_STLB_vberti_cross_page_prefetch_fill 9368
Core_0_STLB_vberti_cross_page_prefetch_miss_rate 0.889311
Core_0_STLB_vberti_cross_page_prefetch_mpki 0.09368
Core_0_STLB_same_page_prefetch_miss_rate 0
Core_0_STLB_same_page_prefetch_mpki 0
Core_0_STLB_cross_page_prefetch_miss_rate 0.889311
Core_0_STLB_cross_page_prefetch_mpki 0.09368
Core_0_STLB_cross_page_prefetch_issued 10534
Core_0_STLB_cross_page_prefetch_lookups 10534
Core_0_STLB_cross_page_prefetch_useful 34
Core_0_STLB_cross_page_prefetch_useless 9334
Core_0_STLB_cross_page_prefetch_late 0
Core_0_STLB_cross_page_prefetch_too_early 17
Core_0_STLB_cross_page_prefetch_too_early_among_fill 0.00181469
Core_0_STLB_cross_page_prefetch_too_early_among_useless 0.0018213
Core_0_STLB_cross_page_prefetch_pollution_evict 5665
Core_0_STLB_cross_page_prefetch_pollution_demand 5665
Core_0_STLB_cross_page_prefetch_pollution_among_prefetch_fill 0.604718
Core_0_STLB_cross_page_prefetch_accuracy 0.00322764
Core_0_STLB_cross_page_prefetch_coverage 1.88197e-05

========= STLB Cross-page Prefetch Buffer Stats =========
Core_0_STLB_raw_demand_miss 1806585
Core_0_CP_PB_insert 0
Core_0_CP_PB_demand_hit 0
Core_0_STLB_PB_demand_miss 1806585
Core_0_CP_PB_coverage 0
Core_0_STLB_raw_demand_mpki 18.0658
Core_0_STLB_PB_demand_mpki 18.0658
Core_0_CP_PB_demand_hit_mpki 0

Core_0_TLB_demand_miss_rate 0.142932
Core_0_TLB_demand_mpki 18.0658
Core_0_TLB_same_page_prefetch_miss_rate 0
Core_0_TLB_same_page_prefetch_mpki 0
Core_0_TLB_cross_page_prefetch_miss_rate 0.0501932
Core_0_TLB_cross_page_prefetch_mpki 0.09368
Core_0_TLB_cross_page_prefetch_issued 186639
Core_0_TLB_cross_page_prefetch_lookups 186639
Core_0_TLB_cross_page_prefetch_useful 7829
Core_0_TLB_cross_page_prefetch_useless 2705
Core_0_TLB_cross_page_prefetch_late 36
Core_0_TLB_cross_page_prefetch_too_early 10
Core_0_TLB_cross_page_prefetch_too_early_among_fill 0.000503373
Core_0_TLB_cross_page_prefetch_too_early_among_useless 0.00369686
Core_0_TLB_cross_page_prefetch_accuracy 0.0419473
Core_0_TLB_cross_page_prefetch_coverage 0.00431489
BERTI TO_L1: 3837671 TO_L2: 4389882 TO_L2_BC_MSHR: 552
BERTI AVG_LAT: 138.79 NUM_TRACK_LATENCY: 3676472 NUM_CANT_TRACK_LATENCY: 0
BERTI CROSS_PAGE 346705 NO_CROSS_PAGE: 7880848
BERTI FOUND_BERTI: 16889411 NO_FOUND_BERTI: 1372268
BERTI AVERAGE_ISSUED: 2.58964
