[VMEM] WARNING: physical memory size is smaller than virtual memory size.

*** ChampSim Multicore Out-of-Order Simulator ***
Warmup Instructions: 50000000
Simulation Instructions: 100000000
Number of CPUs: 1
Page size: 4096
Core 0: /data2/zcq/champsim_traces_gap/bfs.twitter-160B.champsimtrace.xz
VBerti Prefetcher
BERTI HASH ENTANGLING
BERTI IP MASK ffff
Off-chip DRAM Size: 16 GiB Channels: 1 Width: 64-bit Data Rate: 3205 MT/s
Warmup halting CPU 0 at instruction 50000001 cycle 13534925 for remainder of phase
Warmup finished CPU 0 instructions: 50000001 cycles: 13534925 cumulative IPC: 3.694 (Simulation time: 00 hr 02 min 42 sec)
Warmup complete CPU 0 instructions: 50000001 cycles: 13534925 cumulative IPC: 3.694 (Simulation time: 00 hr 02 min 42 sec)
Simulation finished CPU 0 instructions: 100000000 cycles: 497550516 cumulative IPC: 0.201 (Simulation time: 00 hr 33 min 09 sec)
Simulation complete CPU 0 instructions: 100000000 cycles: 497550516 cumulative IPC: 0.201 (Simulation time: 00 hr 33 min 09 sec)

ChampSim completed all CPUs

=== Simulation ===
CPU 0 runs /data2/zcq/champsim_traces_gap/bfs.twitter-160B.champsimtrace.xz

Region of Interest Statistics

CPU 0 cumulative IPC: 0.201 instructions: 100000000 cycles: 497550516
CPU 0 Branch Prediction Accuracy: 82.69% MPKI: 32.56 Average ROB Occupancy at Mispredict: 10.99
Branch type MPKI
BRANCH_DIRECT_JUMP: 0
BRANCH_INDIRECT: 0
BRANCH_CONDITIONAL: 32.56
BRANCH_DIRECT_CALL: 0
BRANCH_INDIRECT_CALL: 0
BRANCH_RETURN: 0

cpu0->cpu0_STLB TOTAL        ACCESS:    3598682 HIT:    3321633 MISS:     277049 MSHR_MERGE:          0
cpu0->cpu0_STLB LOAD         ACCESS:    3598682 HIT:    3321633 MISS:     277049 MSHR_MERGE:          0
cpu0->cpu0_STLB RFO          ACCESS:          0 HIT:          0 MISS:          0 MSHR_MERGE:          0
cpu0->cpu0_STLB PREFETCH     ACCESS:          0 HIT:          0 MISS:          0 MSHR_MERGE:          0
cpu0->cpu0_STLB WRITE        ACCESS:          0 HIT:          0 MISS:          0 MSHR_MERGE:          0
cpu0->cpu0_STLB TRANSLATION  ACCESS:          0 HIT:          0 MISS:          0 MSHR_MERGE:          0
cpu0->cpu0_STLB PREFETCH REQUESTED:          0 ISSUED:          0 USEFUL:          0 USELESS:          0 LATE:          0
cpu0->cpu0_STLB AVERAGE MISS LATENCY: 119.8 cycles
cpu0->cpu0_L2C TOTAL        ACCESS:   18930875 HIT:   13001989 MISS:    5928886 MSHR_MERGE:     661567
cpu0->cpu0_L2C LOAD         ACCESS:    5103451 HIT:    1539104 MISS:    3564347 MSHR_MERGE:      26814
cpu0->cpu0_L2C RFO          ACCESS:          0 HIT:          0 MISS:          0 MSHR_MERGE:          0
cpu0->cpu0_L2C PREFETCH     ACCESS:   13442473 HIT:   11145202 MISS:    2297271 MSHR_MERGE:     634753
cpu0->cpu0_L2C WRITE        ACCESS:     213917 HIT:     213721 MISS:        196 MSHR_MERGE:          0
cpu0->cpu0_L2C TRANSLATION  ACCESS:     171034 HIT:     103962 MISS:      67072 MSHR_MERGE:          0
cpu0->cpu0_L2C PREFETCH REQUESTED:    2240383 ISSUED:    2240218 USEFUL:     133623 USELESS:     159993 LATE:       5736
cpu0->cpu0_L2C AVERAGE MISS LATENCY: 124.4 cycles
cpu0->cpu0_L1I TOTAL        ACCESS:      37908 HIT:      37908 MISS:          0 MSHR_MERGE:          0
cpu0->cpu0_L1I LOAD         ACCESS:      37908 HIT:      37908 MISS:          0 MSHR_MERGE:          0
cpu0->cpu0_L1I RFO          ACCESS:          0 HIT:          0 MISS:          0 MSHR_MERGE:          0
cpu0->cpu0_L1I PREFETCH     ACCESS:          0 HIT:          0 MISS:          0 MSHR_MERGE:          0
cpu0->cpu0_L1I WRITE        ACCESS:          0 HIT:          0 MISS:          0 MSHR_MERGE:          0
cpu0->cpu0_L1I TRANSLATION  ACCESS:          0 HIT:          0 MISS:          0 MSHR_MERGE:          0
cpu0->cpu0_L1I PREFETCH REQUESTED:          0 ISSUED:          0 USEFUL:          0 USELESS:          0 LATE:          0
cpu0->cpu0_L1I AVERAGE MISS LATENCY: - cycles
cpu0->cpu0_L1D TOTAL        ACCESS:   61339498 HIT:   43097335 MISS:   18242163 MSHR_MERGE:    1625338
cpu0->cpu0_L1D LOAD         ACCESS:   25184798 HIT:   18508265 MISS:    6676533 MSHR_MERGE:    1573082
cpu0->cpu0_L1D RFO          ACCESS:          0 HIT:          0 MISS:          0 MSHR_MERGE:          0
cpu0->cpu0_L1D PREFETCH     ACCESS:   32066717 HIT:   20673626 MISS:   11393091 MSHR_MERGE:      50751
cpu0->cpu0_L1D WRITE        ACCESS:    3535444 HIT:    3535444 MISS:          0 MSHR_MERGE:          0
cpu0->cpu0_L1D TRANSLATION  ACCESS:     552539 HIT:     380000 MISS:     172539 MSHR_MERGE:       1505
cpu0->cpu0_L1D PREFETCH REQUESTED:   52743114 ISSUED:   32066707 USEFUL:     632229 USELESS:      19741 LATE:        869
cpu0->cpu0_L1D AVERAGE MISS LATENCY: 94.43 cycles
cpu0->cpu0_ITLB TOTAL        ACCESS:      29639 HIT:      29639 MISS:          0 MSHR_MERGE:          0
cpu0->cpu0_ITLB LOAD         ACCESS:      29639 HIT:      29639 MISS:          0 MSHR_MERGE:          0
cpu0->cpu0_ITLB RFO          ACCESS:          0 HIT:          0 MISS:          0 MSHR_MERGE:          0
cpu0->cpu0_ITLB PREFETCH     ACCESS:          0 HIT:          0 MISS:          0 MSHR_MERGE:          0
cpu0->cpu0_ITLB WRITE        ACCESS:          0 HIT:          0 MISS:          0 MSHR_MERGE:          0
cpu0->cpu0_ITLB TRANSLATION  ACCESS:          0 HIT:          0 MISS:          0 MSHR_MERGE:          0
cpu0->cpu0_ITLB PREFETCH REQUESTED:          0 ISSUED:          0 USEFUL:          0 USELESS:          0 LATE:          0
cpu0->cpu0_ITLB AVERAGE MISS LATENCY: - cycles
cpu0->cpu0_DTLB TOTAL        ACCESS:   48349887 HIT:   44459063 MISS:    3890824 MSHR_MERGE:     292142
cpu0->cpu0_DTLB LOAD         ACCESS:   48349887 HIT:   44459063 MISS:    3890824 MSHR_MERGE:     292142
cpu0->cpu0_DTLB RFO          ACCESS:          0 HIT:          0 MISS:          0 MSHR_MERGE:          0
cpu0->cpu0_DTLB PREFETCH     ACCESS:          0 HIT:          0 MISS:          0 MSHR_MERGE:          0
cpu0->cpu0_DTLB WRITE        ACCESS:          0 HIT:          0 MISS:          0 MSHR_MERGE:          0
cpu0->cpu0_DTLB TRANSLATION  ACCESS:          0 HIT:          0 MISS:          0 MSHR_MERGE:          0
cpu0->cpu0_DTLB PREFETCH REQUESTED:          0 ISSUED:          0 USEFUL:          0 USELESS:          0 LATE:          0
cpu0->cpu0_DTLB AVERAGE MISS LATENCY: 14.35 cycles
cpu0->LLC TOTAL        ACCESS:    5477846 HIT:    1702426 MISS:    3775420 MSHR_MERGE:        676
cpu0->LLC LOAD         ACCESS:    3537532 HIT:    1585043 MISS:    1952489 MSHR_MERGE:         10
cpu0->LLC RFO          ACCESS:          0 HIT:          0 MISS:          0 MSHR_MERGE:          0
cpu0->LLC PREFETCH     ACCESS:    1662518 HIT:       3993 MISS:    1658525 MSHR_MERGE:        666
cpu0->LLC WRITE        ACCESS:     210724 HIT:      67047 MISS:     143677 MSHR_MERGE:          0
cpu0->LLC TRANSLATION  ACCESS:      67072 HIT:      46343 MISS:      20729 MSHR_MERGE:          0
cpu0->LLC PREFETCH REQUESTED:          0 ISSUED:          0 USEFUL:          0 USELESS:          0 LATE:          0
cpu0->LLC AVERAGE MISS LATENCY: 186.1 cycles

DRAM Statistics

Channel 0 RQ ROW_BUFFER_HIT:     114460
  ROW_BUFFER_MISS:    3516607
  AVG DBUS CONGESTED CYCLE: 15.17
Channel 0 WQ ROW_BUFFER_HIT:      59969
  ROW_BUFFER_MISS:     147165
  FULL:          0
Channel 0 REFRESHES ISSUED:      41463

[ROI Statistics]
[System Configuration]
num_cpus 1
cpu_freq 4000
fetch_width 6
decode_width 6
dispatch_width 6
execute_width 6
lq_width 2
sq_width 2
retire_width 6
scheduler_size 128
branch_mispredict_penalty 15
rob_size 352
lq_size 128
sq_size 72
ifetch_buffer_size 64
decode_buffer_size 32
dispatch_buffer_size 32
register_file_size 288
decode_latency 1
dispatch_latency 1
schedule_latency 1
execute_latency 1
page_size 4096
block_size 64
core_0_itlb_set 16
core_0_itlb_way 4
core_0_itlb_rq_size 16
core_0_itlb_wq_size 16
core_0_itlb_pq_size 0
core_0_itlb_mshr_size 8
core_0_itlb_hit_latency 1
core_0_itlb_fill_latency 1
core_0_itlb_max_tag_check 2
core_0_itlb_max_fill 2
core_0_dtlb_set 16
core_0_dtlb_way 4
core_0_dtlb_rq_size 16
core_0_dtlb_wq_size 16
core_0_dtlb_pq_size 0
core_0_dtlb_mshr_size 8
core_0_dtlb_hit_latency 1
core_0_dtlb_fill_latency 1
core_0_dtlb_max_tag_check 2
core_0_dtlb_max_fill 2
core_0_stlb_set 128
core_0_stlb_way 12
core_0_stlb_rq_size 32
core_0_stlb_wq_size 32
core_0_stlb_pq_size 0
core_0_stlb_mshr_size 16
core_0_stlb_hit_latency 4
core_0_stlb_fill_latency 4
core_0_stlb_max_tag_check 1
core_0_stlb_max_fill 1
core_0_l1i_set 64
core_0_l1i_way 8
core_0_l1i_rq_size 64
core_0_l1i_wq_size 64
core_0_l1i_pq_size 32
core_0_l1i_mshr_size 8
core_0_l1i_hit_latency 2
core_0_l1i_fill_latency 2
core_0_l1i_max_tag_check 2
core_0_l1i_max_fill 2
core_0_l1d_set 64
core_0_l1d_way 12
core_0_l1d_rq_size 64
core_0_l1d_wq_size 64
core_0_l1d_pq_size 8
core_0_l1d_mshr_size 16
core_0_l1d_hit_latency 2
core_0_l1d_fill_latency 3
core_0_l1d_max_tag_check 2
core_0_l1d_max_fill 2
core_0_l2c_set 1024
core_0_l2c_way 8
core_0_l2c_rq_size 32
core_0_l2c_wq_size 32
core_0_l2c_pq_size 16
core_0_l2c_mshr_size 32
core_0_l2c_hit_latency 5
core_0_l2c_fill_latency 5
core_0_l2c_max_tag_check 1
core_0_l2c_max_fill 1
llc_set 2048
llc_way 16
llc_rq_size 32
llc_wq_size 32
llc_pq_size 32
llc_mshr_size 64
llc_hit_latency 10
llc_fill_latency 10
llc_max_tag_check 1
llc_max_fill 1
dram_channels 1
dram_ranks 1
dram_bankgroups 8
dram_banks 4
dram_rows 65536
dram_columns 1024
dram_channel_width 8
dram_rq_size 64
dram_wq_size 64
dram_size 17179869184
core_0_itlb_prefetcher no
core_0_dtlb_prefetcher no
core_0_stlb_prefetcher no
core_0_l1i_prefetcher next_line
core_0_l1d_prefetcher vberti
core_0_l2c_prefetcher ip_stride
llc_prefetcher no
llc_replacement drrip

Core_0_instructions 100000000
Core_0_cycles 497550516
Core_0_IPC 0.200985
Core_0_branch_prediction_accuracy 82.6861
Core_0_branch_MPKI 32.5601
Core_0_average_ROB_occupancy_at_mispredict 10.9894

Core_0_ITLB_total_access 29639
Core_0_ITLB_total_hit 29639
Core_0_ITLB_total_miss 0
Core_0_ITLB_total_MPKI 0
Core_0_ITLB_total_miss_rate 0
Core_0_ITLB_demand_access 29639
Core_0_ITLB_demand_hit 29639
Core_0_ITLB_demand_miss 0
Core_0_ITLB_demand_MPKI 0
Core_0_ITLB_demand_miss_rate 0
Core_0_ITLB_load_access 29639
Core_0_ITLB_load_hit 29639
Core_0_ITLB_load_miss 0
Core_0_ITLB_load_MPKI 0
Core_0_ITLB_load_miss_rate 0
Core_0_ITLB_rfo_access 0
Core_0_ITLB_rfo_hit 0
Core_0_ITLB_rfo_miss 0
Core_0_ITLB_rfo_MPKI 0
Core_0_ITLB_rfo_miss_rate 0
Core_0_ITLB_prefetch_access 0
Core_0_ITLB_prefetch_hit 0
Core_0_ITLB_prefetch_miss 0
Core_0_ITLB_prefetch_MPKI 0
Core_0_ITLB_prefetch_miss_rate 0
Core_0_ITLB_writeback_access 0
Core_0_ITLB_writeback_hit 0
Core_0_ITLB_writeback_miss 0
Core_0_ITLB_writeback_MPKI 0
Core_0_ITLB_writeback_miss_rate 0
Core_0_ITLB_prefetch_requested 0
Core_0_ITLB_prefetch_issued 0
Core_0_ITLB_prefetch_useful 0
Core_0_ITLB_prefetch_useless 0
Core_0_ITLB_prefetch_late 0
Core_0_ITLB_prefetch_accuracy 0
Core_0_ITLB_prefetch_coverage 0

Core_0_DTLB_total_access 48349887
Core_0_DTLB_total_hit 44459063
Core_0_DTLB_total_miss 3890824
Core_0_DTLB_total_MPKI 38.9082
Core_0_DTLB_total_miss_rate 0.0804722
Core_0_DTLB_demand_access 48349887
Core_0_DTLB_demand_hit 44459063
Core_0_DTLB_demand_miss 3890824
Core_0_DTLB_demand_MPKI 38.9082
Core_0_DTLB_demand_miss_rate 0.0804722
Core_0_DTLB_load_access 48349887
Core_0_DTLB_load_hit 44459063
Core_0_DTLB_load_miss 3890824
Core_0_DTLB_load_MPKI 38.9082
Core_0_DTLB_load_miss_rate 0.0804722
Core_0_DTLB_rfo_access 0
Core_0_DTLB_rfo_hit 0
Core_0_DTLB_rfo_miss 0
Core_0_DTLB_rfo_MPKI 0
Core_0_DTLB_rfo_miss_rate 0
Core_0_DTLB_prefetch_access 0
Core_0_DTLB_prefetch_hit 0
Core_0_DTLB_prefetch_miss 0
Core_0_DTLB_prefetch_MPKI 0
Core_0_DTLB_prefetch_miss_rate 0
Core_0_DTLB_writeback_access 0
Core_0_DTLB_writeback_hit 0
Core_0_DTLB_writeback_miss 0
Core_0_DTLB_writeback_MPKI 0
Core_0_DTLB_writeback_miss_rate 0
Core_0_DTLB_prefetch_requested 0
Core_0_DTLB_prefetch_issued 0
Core_0_DTLB_prefetch_useful 0
Core_0_DTLB_prefetch_useless 0
Core_0_DTLB_prefetch_late 0
Core_0_DTLB_prefetch_accuracy 0
Core_0_DTLB_prefetch_coverage 0

Core_0_STLB_total_access 3598682
Core_0_STLB_total_hit 3321633
Core_0_STLB_total_miss 277049
Core_0_STLB_total_MPKI 2.77049
Core_0_STLB_total_miss_rate 0.0769862
Core_0_STLB_demand_access 3598682
Core_0_STLB_demand_hit 3321633
Core_0_STLB_demand_miss 277049
Core_0_STLB_demand_MPKI 2.77049
Core_0_STLB_demand_miss_rate 0.0769862
Core_0_STLB_load_access 3598682
Core_0_STLB_load_hit 3321633
Core_0_STLB_load_miss 277049
Core_0_STLB_load_MPKI 2.77049
Core_0_STLB_load_miss_rate 0.0769862
Core_0_STLB_rfo_access 0
Core_0_STLB_rfo_hit 0
Core_0_STLB_rfo_miss 0
Core_0_STLB_rfo_MPKI 0
Core_0_STLB_rfo_miss_rate 0
Core_0_STLB_prefetch_access 0
Core_0_STLB_prefetch_hit 0
Core_0_STLB_prefetch_miss 0
Core_0_STLB_prefetch_MPKI 0
Core_0_STLB_prefetch_miss_rate 0
Core_0_STLB_writeback_access 0
Core_0_STLB_writeback_hit 0
Core_0_STLB_writeback_miss 0
Core_0_STLB_writeback_MPKI 0
Core_0_STLB_writeback_miss_rate 0
Core_0_STLB_prefetch_requested 0
Core_0_STLB_prefetch_issued 0
Core_0_STLB_prefetch_useful 0
Core_0_STLB_prefetch_useless 0
Core_0_STLB_prefetch_late 0
Core_0_STLB_prefetch_accuracy 0
Core_0_STLB_prefetch_coverage 0

Core_0_L1I_total_access 37908
Core_0_L1I_total_hit 37908
Core_0_L1I_total_miss 0
Core_0_L1I_total_MPKI 0
Core_0_L1I_total_miss_rate 0
Core_0_L1I_demand_access 37908
Core_0_L1I_demand_hit 37908
Core_0_L1I_demand_miss 0
Core_0_L1I_demand_MPKI 0
Core_0_L1I_demand_miss_rate 0
Core_0_L1I_load_access 37908
Core_0_L1I_load_hit 37908
Core_0_L1I_load_miss 0
Core_0_L1I_load_MPKI 0
Core_0_L1I_load_miss_rate 0
Core_0_L1I_rfo_access 0
Core_0_L1I_rfo_hit 0
Core_0_L1I_rfo_miss 0
Core_0_L1I_rfo_MPKI 0
Core_0_L1I_rfo_miss_rate 0
Core_0_L1I_prefetch_access 0
Core_0_L1I_prefetch_hit 0
Core_0_L1I_prefetch_miss 0
Core_0_L1I_prefetch_MPKI 0
Core_0_L1I_prefetch_miss_rate 0
Core_0_L1I_writeback_access 0
Core_0_L1I_writeback_hit 0
Core_0_L1I_writeback_miss 0
Core_0_L1I_writeback_MPKI 0
Core_0_L1I_writeback_miss_rate 0
Core_0_L1I_prefetch_requested 0
Core_0_L1I_prefetch_issued 0
Core_0_L1I_prefetch_useful 0
Core_0_L1I_prefetch_useless 0
Core_0_L1I_prefetch_late 0
Core_0_L1I_prefetch_accuracy 0
Core_0_L1I_prefetch_coverage 0

Core_0_L1D_total_access 60786959
Core_0_L1D_total_hit 42717335
Core_0_L1D_total_miss 18069624
Core_0_L1D_total_MPKI 180.696
Core_0_L1D_total_miss_rate 0.297262
Core_0_L1D_demand_access 25184798
Core_0_L1D_demand_hit 18508265
Core_0_L1D_demand_miss 6676533
Core_0_L1D_demand_MPKI 66.7653
Core_0_L1D_demand_miss_rate 0.265102
Core_0_L1D_load_access 25184798
Core_0_L1D_load_hit 18508265
Core_0_L1D_load_miss 6676533
Core_0_L1D_load_MPKI 66.7653
Core_0_L1D_load_miss_rate 0.265102
Core_0_L1D_rfo_access 0
Core_0_L1D_rfo_hit 0
Core_0_L1D_rfo_miss 0
Core_0_L1D_rfo_MPKI 0
Core_0_L1D_rfo_miss_rate 0
Core_0_L1D_prefetch_access 32066717
Core_0_L1D_prefetch_hit 20673626
Core_0_L1D_prefetch_miss 11393091
Core_0_L1D_prefetch_MPKI 113.931
Core_0_L1D_prefetch_miss_rate 0.355293
Core_0_L1D_writeback_access 3535444
Core_0_L1D_writeback_hit 3535444
Core_0_L1D_writeback_miss 0
Core_0_L1D_writeback_MPKI 0
Core_0_L1D_writeback_miss_rate 0
Core_0_L1D_prefetch_requested 52743114
Core_0_L1D_prefetch_issued 32066707
Core_0_L1D_prefetch_useful 632229
Core_0_L1D_prefetch_useless 19741
Core_0_L1D_prefetch_late 869
Core_0_L1D_prefetch_accuracy 0.0197161
Core_0_L1D_prefetch_coverage 0.0865029

Core_0_L2C_total_access 18759841
Core_0_L2C_total_hit 12898027
Core_0_L2C_total_miss 5861814
Core_0_L2C_total_MPKI 58.6181
Core_0_L2C_total_miss_rate 0.312466
Core_0_L2C_demand_access 5103451
Core_0_L2C_demand_hit 1539104
Core_0_L2C_demand_miss 3564347
Core_0_L2C_demand_MPKI 35.6435
Core_0_L2C_demand_miss_rate 0.698419
Core_0_L2C_load_access 5103451
Core_0_L2C_load_hit 1539104
Core_0_L2C_load_miss 3564347
Core_0_L2C_load_MPKI 35.6435
Core_0_L2C_load_miss_rate 0.698419
Core_0_L2C_rfo_access 0
Core_0_L2C_rfo_hit 0
Core_0_L2C_rfo_miss 0
Core_0_L2C_rfo_MPKI 0
Core_0_L2C_rfo_miss_rate 0
Core_0_L2C_prefetch_access 13442473
Core_0_L2C_prefetch_hit 11145202
Core_0_L2C_prefetch_miss 2297271
Core_0_L2C_prefetch_MPKI 22.9727
Core_0_L2C_prefetch_miss_rate 0.170896
Core_0_L2C_writeback_access 213917
Core_0_L2C_writeback_hit 213721
Core_0_L2C_writeback_miss 196
Core_0_L2C_writeback_MPKI 0.00196
Core_0_L2C_writeback_miss_rate 0.000916243
Core_0_L2C_prefetch_requested 2240383
Core_0_L2C_prefetch_issued 2240218
Core_0_L2C_prefetch_useful 133623
Core_0_L2C_prefetch_useless 159993
Core_0_L2C_prefetch_late 5736
Core_0_L2C_prefetch_accuracy 0.0596473
Core_0_L2C_prefetch_coverage 0.0361341

Core_0_LLC_total_access 5410774
Core_0_LLC_total_hit 1656083
Core_0_LLC_total_miss 3754691
Core_0_LLC_total_MPKI 37.5469
Core_0_LLC_total_miss_rate 0.693929
Core_0_LLC_demand_access 3537532
Core_0_LLC_demand_hit 1585043
Core_0_LLC_demand_miss 1952489
Core_0_LLC_demand_MPKI 19.5249
Core_0_LLC_demand_miss_rate 0.551935
Core_0_LLC_load_access 3537532
Core_0_LLC_load_hit 1585043
Core_0_LLC_load_miss 1952489
Core_0_LLC_load_MPKI 19.5249
Core_0_LLC_load_miss_rate 0.551935
Core_0_LLC_rfo_access 0
Core_0_LLC_rfo_hit 0
Core_0_LLC_rfo_miss 0
Core_0_LLC_rfo_MPKI 0
Core_0_LLC_rfo_miss_rate 0
Core_0_LLC_prefetch_access 1662518
Core_0_LLC_prefetch_hit 3993
Core_0_LLC_prefetch_miss 1658525
Core_0_LLC_prefetch_MPKI 16.5852
Core_0_LLC_prefetch_miss_rate 0.997598
Core_0_LLC_writeback_access 210724
Core_0_LLC_writeback_hit 67047
Core_0_LLC_writeback_miss 143677
Core_0_LLC_writeback_MPKI 1.43677
Core_0_LLC_writeback_miss_rate 0.681826
Core_0_LLC_prefetch_requested 0
Core_0_LLC_prefetch_issued 0
Core_0_LLC_prefetch_useful 0
Core_0_LLC_prefetch_useless 0
Core_0_LLC_prefetch_late 0
Core_0_LLC_prefetch_accuracy 0
Core_0_LLC_prefetch_coverage 0

[DRAM Statistics]
Channel_0_RQ_row_buffer_hit 114460
Channel_0_RQ_row_buffer_miss 3516607
Channel_0_WQ_row_buffer_hit 59969
Channel_0_WQ_row_buffer_miss 147165
Channel_0_WQ_full 0
Channel_0_dbus_congested 6731719
DRAM_total_RQ_row_buffer_hit 114460
DRAM_total_RQ_row_buffer_miss 3516607
DRAM_total_WQ_row_buffer_hit 59969
DRAM_total_WQ_row_buffer_miss 147165
DRAM_total_WQ_full 0
DRAM_total_dbus_congested 6731719
DRAM_avg_congested_cycle 15.1697

====== DRAM_RQ_TRAFFIC ========
DRAM_RQ_READ_TRAFFIC_BREAKDOWN:
data_demand_read.count = 1952480
data_demand_read.share = 53.77%

inst_demand_read.count = 0
inst_demand_read.share = 0.00%

cache_inst_prefetch.count = 0
cache_inst_prefetch.share = 0.00%

cache_data_prefetch.count = 1657859
cache_data_prefetch.share = 45.66%

stlb_data_demand.count = 15638
stlb_data_demand.share = 0.43%

stlb_inst_demand.count = 0
stlb_inst_demand.share = 0.00%

stlb_l1i_pref.count = 0
stlb_l1i_pref.share = 0.00%

stlb_l1d_pref.count = 5091
stlb_l1d_pref.share = 0.14%

DRAM_RQ_READ_TRAFFIC_SUMMARY:
cache_demand.count = 1952480
cache_demand.share = 53.77%

cache_prefetch.count = 1657859
cache_prefetch.share = 45.66%

stlb_demand.count = 15638
stlb_demand.share = 0.43%

stlb_prefetch.count = 5091
stlb_prefetch.share = 0.14%

DRAM_RQ_READ_TRAFFIC_DEBUG:
total_classified_read.count = 3631068
unclassified_read.count = 0
total_read_with_other.count = 3631068

classified_plus_unclassified_check.count = 3631068
dram_rq_read_total_observed.count = 3631068
dram_rq_read_total_observed.per_1K_instructions = 36.3107

STLB_MISS_PTW_DRAM_TOUCH_BREAKDOWN:
stlb_miss_total.count = 277049

stlb_miss_touch_dram.count = 20508
stlb_miss_touch_dram.share = 7.40%

stlb_miss_no_dram_touch.count = 256541
stlb_miss_no_dram_touch.share = 92.60%

STLB_MISS_PTW_DRAM_TOUCH_DEBUG:
stlb_miss_touch_plus_no_touch.count = 277049
stlb_miss_total_check.count = 277049

======STLB miss causes ========
Core_0_STLB_miss_cause_breakdown
Core_0_STLB_cause_Demand_Data_miss 238416
Core_0_STLB_cause_Demand_Data_miss_rate 0.0662509
Core_0_STLB_cause_Demand_Instruction_miss 0
Core_0_STLB_cause_Demand_Instruction_miss_rate 0
Core_0_STLB_cause_L1D_Prefetch_miss 38633
Core_0_STLB_cause_L1D_Prefetch_miss_rate 0.0107353
Core_0_STLB_cause_L1I_Prefetch_miss 0
Core_0_STLB_cause_L1I_Prefetch_miss_rate 0
Core_0_STLB_cause_Other_miss 0
Core_0_STLB_cause_Other_miss_rate 0
Core_0_STLB_Demand_miss 238416
Core_0_STLB_Demand_miss_rate 0.0662509
Core_0_STLB_L1D_Prefetch_miss 38633
Core_0_STLB_L1D_Prefetch_miss_rate 0.0107353
Core_0_STLB_Other_miss 0
Core_0_STLB_Other_miss_rate 0
BERTI TO_L1: 54456836 TO_L2: 34366416 TO_L2_BC_MSHR: 32752
BERTI AVG_LAT: 81.7335 NUM_TRACK_LATENCY: 7238799 NUM_CANT_TRACK_LATENCY: 0
BERTI CROSS_PAGE 9666349 NO_CROSS_PAGE: 79156903
BERTI FOUND_BERTI: 25028362 NO_FOUND_BERTI: 12448859
BERTI AVERAGE_ISSUED: 3.15385
