[VMEM] WARNING: physical memory size is smaller than virtual memory size.

*** ChampSim Multicore Out-of-Order Simulator ***
Warmup Instructions: 50000000
Simulation Instructions: 100000000
Number of CPUs: 1
Page size: 4096
Core 0: /data2/zcq/champsim_traces_gap/bfs.road-112B.champsimtrace.xz
VBerti Prefetcher
BERTI HASH ENTANGLING
BERTI IP MASK ffff
Off-chip DRAM Size: 16 GiB Channels: 1 Width: 64-bit Data Rate: 3205 MT/s
Warmup halting CPU 0 at instruction 50000004 cycle 16911884 for remainder of phase
Warmup finished CPU 0 instructions: 50000004 cycles: 16911884 cumulative IPC: 2.957 (Simulation time: 00 hr 04 min 22 sec)
Warmup complete CPU 0 instructions: 50000004 cycles: 16911884 cumulative IPC: 2.957 (Simulation time: 00 hr 04 min 22 sec)
Simulation finished CPU 0 instructions: 100000000 cycles: 524575442 cumulative IPC: 0.1906 (Simulation time: 00 hr 45 min 04 sec)
Simulation complete CPU 0 instructions: 100000000 cycles: 524575442 cumulative IPC: 0.1906 (Simulation time: 00 hr 45 min 04 sec)

ChampSim completed all CPUs

=== Simulation ===
CPU 0 runs /data2/zcq/champsim_traces_gap/bfs.road-112B.champsimtrace.xz

Region of Interest Statistics

CPU 0 cumulative IPC: 0.1906 instructions: 100000000 cycles: 524575442
CPU 0 Branch Prediction Accuracy: 86.4% MPKI: 23.58 Average ROB Occupancy at Mispredict: 20.08
Branch type MPKI
BRANCH_DIRECT_JUMP: 0.00449
BRANCH_INDIRECT: 0.00898
BRANCH_CONDITIONAL: 23.54
BRANCH_DIRECT_CALL: 0
BRANCH_INDIRECT_CALL: 0.00449
BRANCH_RETURN: 0.01796

cpu0->cpu0_STLB TOTAL        ACCESS:    1301913 HIT:     511319 MISS:     790594 MSHR_MERGE:          0
cpu0->cpu0_STLB LOAD         ACCESS:    1301913 HIT:     511319 MISS:     790594 MSHR_MERGE:          0
cpu0->cpu0_STLB RFO          ACCESS:          0 HIT:          0 MISS:          0 MSHR_MERGE:          0
cpu0->cpu0_STLB PREFETCH     ACCESS:          0 HIT:          0 MISS:          0 MSHR_MERGE:          0
cpu0->cpu0_STLB WRITE        ACCESS:          0 HIT:          0 MISS:          0 MSHR_MERGE:          0
cpu0->cpu0_STLB TRANSLATION  ACCESS:          0 HIT:          0 MISS:          0 MSHR_MERGE:          0
cpu0->cpu0_STLB PREFETCH REQUESTED:          0 ISSUED:          0 USEFUL:          0 USELESS:          0 LATE:          0 TOO_EARLY:          0
cpu0->cpu0_STLB AVERAGE MISS LATENCY: 26.95 cycles
cpu0->cpu0_L2C TOTAL        ACCESS:    9606097 HIT:    4101882 MISS:    5504215 MSHR_MERGE:     114452
cpu0->cpu0_L2C LOAD         ACCESS:    4941382 HIT:     290876 MISS:    4650506 MSHR_MERGE:       1057
cpu0->cpu0_L2C RFO          ACCESS:      13322 HIT:       1116 MISS:      12206 MSHR_MERGE:          0
cpu0->cpu0_L2C PREFETCH     ACCESS:    2768807 HIT:    2228062 MISS:     540745 MSHR_MERGE:     113395
cpu0->cpu0_L2C WRITE        ACCESS:    1475191 HIT:    1475189 MISS:          2 MSHR_MERGE:          0
cpu0->cpu0_L2C TRANSLATION  ACCESS:     407395 HIT:     106639 MISS:     300756 MSHR_MERGE:          0
cpu0->cpu0_L2C PREFETCH REQUESTED:     676599 ISSUED:     671547 USEFUL:     129753 USELESS:      53401 LATE:        399 TOO_EARLY:      32590
cpu0->cpu0_L2C AVERAGE MISS LATENCY: 71.3 cycles
cpu0->cpu0_L1I TOTAL        ACCESS:    7240503 HIT:    7217542 MISS:      22961 MSHR_MERGE:       6754
cpu0->cpu0_L1I LOAD         ACCESS:    7240503 HIT:    7217542 MISS:      22961 MSHR_MERGE:       6754
cpu0->cpu0_L1I RFO          ACCESS:          0 HIT:          0 MISS:          0 MSHR_MERGE:          0
cpu0->cpu0_L1I PREFETCH     ACCESS:          0 HIT:          0 MISS:          0 MSHR_MERGE:          0
cpu0->cpu0_L1I WRITE        ACCESS:          0 HIT:          0 MISS:          0 MSHR_MERGE:          0
cpu0->cpu0_L1I TRANSLATION  ACCESS:          0 HIT:          0 MISS:          0 MSHR_MERGE:          0
cpu0->cpu0_L1I PREFETCH REQUESTED:          0 ISSUED:          0 USEFUL:          0 USELESS:          0 LATE:          0 TOO_EARLY:          0
cpu0->cpu0_L1I AVERAGE MISS LATENCY: 22.84 cycles
cpu0->cpu0_L1D TOTAL        ACCESS:   97555388 HIT:   89145723 MISS:    8409665 MSHR_MERGE:     961913
cpu0->cpu0_L1D LOAD         ACCESS:   31485180 HIT:   25628391 MISS:    5856789 MSHR_MERGE:     931613
cpu0->cpu0_L1D RFO          ACCESS:          0 HIT:          0 MISS:          0 MSHR_MERGE:          0
cpu0->cpu0_L1D PREFETCH     ACCESS:   53719057 HIT:   51603757 MISS:    2115300 MSHR_MERGE:      13441
cpu0->cpu0_L1D WRITE        ACCESS:   10711383 HIT:   10683983 MISS:      27400 MSHR_MERGE:      14078
cpu0->cpu0_L1D TRANSLATION  ACCESS:    1639768 HIT:    1229592 MISS:     410176 MSHR_MERGE:       2781
cpu0->cpu0_L1D PREFETCH REQUESTED:  126413554 ISSUED:   53719049 USEFUL:     423102 USELESS:      13406 LATE:         12 TOO_EARLY:       1018
cpu0->cpu0_L1D AVERAGE MISS LATENCY: 75.1 cycles
cpu0->cpu0_ITLB TOTAL        ACCESS:    7187759 HIT:    7184607 MISS:       3152 MSHR_MERGE:       1356
cpu0->cpu0_ITLB LOAD         ACCESS:    7187759 HIT:    7184607 MISS:       3152 MSHR_MERGE:       1356
cpu0->cpu0_ITLB RFO          ACCESS:          0 HIT:          0 MISS:          0 MSHR_MERGE:          0
cpu0->cpu0_ITLB PREFETCH     ACCESS:          0 HIT:          0 MISS:          0 MSHR_MERGE:          0
cpu0->cpu0_ITLB WRITE        ACCESS:          0 HIT:          0 MISS:          0 MSHR_MERGE:          0
cpu0->cpu0_ITLB TRANSLATION  ACCESS:          0 HIT:          0 MISS:          0 MSHR_MERGE:          0
cpu0->cpu0_ITLB PREFETCH REQUESTED:          0 ISSUED:          0 USEFUL:          0 USELESS:          0 LATE:          0 TOO_EARLY:          0
cpu0->cpu0_ITLB AVERAGE MISS LATENCY: 39.38 cycles
cpu0->cpu0_DTLB TOTAL        ACCESS:   73813664 HIT:   72131352 MISS:    1682312 MSHR_MERGE:     382195
cpu0->cpu0_DTLB LOAD         ACCESS:   73813664 HIT:   72131352 MISS:    1682312 MSHR_MERGE:     382195
cpu0->cpu0_DTLB RFO          ACCESS:          0 HIT:          0 MISS:          0 MSHR_MERGE:          0
cpu0->cpu0_DTLB PREFETCH     ACCESS:          0 HIT:          0 MISS:          0 MSHR_MERGE:          0
cpu0->cpu0_DTLB WRITE        ACCESS:          0 HIT:          0 MISS:          0 MSHR_MERGE:          0
cpu0->cpu0_DTLB TRANSLATION  ACCESS:          0 HIT:          0 MISS:          0 MSHR_MERGE:          0
cpu0->cpu0_DTLB PREFETCH REQUESTED:          0 ISSUED:          0 USEFUL:          0 USELESS:          0 LATE:          0 TOO_EARLY:          0
cpu0->cpu0_DTLB AVERAGE MISS LATENCY: 21.95 cycles
cpu0->LLC TOTAL        ACCESS:    6763540 HIT:    4994140 MISS:    1769400 MSHR_MERGE:          5
cpu0->LLC LOAD         ACCESS:    4649448 HIT:    3124417 MISS:    1525031 MSHR_MERGE:          0
cpu0->LLC RFO          ACCESS:      12206 HIT:      12030 MISS:        176 MSHR_MERGE:          0
cpu0->LLC PREFETCH     ACCESS:     427350 HIT:     232398 MISS:     194952 MSHR_MERGE:          5
cpu0->LLC WRITE        ACCESS:    1373780 HIT:    1336385 MISS:      37395 MSHR_MERGE:          0
cpu0->LLC TRANSLATION  ACCESS:     300756 HIT:     288910 MISS:      11846 MSHR_MERGE:          0
cpu0->LLC PREFETCH REQUESTED:          0 ISSUED:          0 USEFUL:          0 USELESS:          0 LATE:          0 TOO_EARLY:          0
cpu0->LLC AVERAGE MISS LATENCY: 176.7 cycles

DRAM Statistics

Channel 0 RQ ROW_BUFFER_HIT:       6519
  ROW_BUFFER_MISS:    1725422
  AVG DBUS CONGESTED CYCLE: 21.04
Channel 0 WQ ROW_BUFFER_HIT:     108144
  ROW_BUFFER_MISS:     259706
  FULL:          0
Channel 0 REFRESHES ISSUED:      43714

[ROI Statistics]
[System Configuration]
num_cpus 1
cpu_freq 4000
fetch_width 6
decode_width 6
dispatch_width 6
execute_width 6
lq_width 2
sq_width 2
retire_width 6
scheduler_size 128
branch_mispredict_penalty 15
rob_size 352
lq_size 128
sq_size 72
ifetch_buffer_size 64
decode_buffer_size 32
dispatch_buffer_size 32
register_file_size 288
decode_latency 1
dispatch_latency 1
schedule_latency 1
execute_latency 1
page_size 4096
block_size 64
core_0_itlb_set 16
core_0_itlb_way 4
core_0_itlb_rq_size 16
core_0_itlb_wq_size 16
core_0_itlb_pq_size 0
core_0_itlb_mshr_size 8
core_0_itlb_hit_latency 1
core_0_itlb_fill_latency 1
core_0_itlb_max_tag_check 2
core_0_itlb_max_fill 2
core_0_dtlb_set 16
core_0_dtlb_way 4
core_0_dtlb_rq_size 16
core_0_dtlb_wq_size 16
core_0_dtlb_pq_size 0
core_0_dtlb_mshr_size 8
core_0_dtlb_hit_latency 1
core_0_dtlb_fill_latency 1
core_0_dtlb_max_tag_check 2
core_0_dtlb_max_fill 2
core_0_stlb_set 128
core_0_stlb_way 12
core_0_stlb_rq_size 32
core_0_stlb_wq_size 32
core_0_stlb_pq_size 0
core_0_stlb_mshr_size 16
core_0_stlb_hit_latency 4
core_0_stlb_fill_latency 4
core_0_stlb_max_tag_check 1
core_0_stlb_max_fill 1
core_0_l1i_set 64
core_0_l1i_way 8
core_0_l1i_rq_size 64
core_0_l1i_wq_size 64
core_0_l1i_pq_size 32
core_0_l1i_mshr_size 8
core_0_l1i_hit_latency 2
core_0_l1i_fill_latency 2
core_0_l1i_max_tag_check 2
core_0_l1i_max_fill 2
core_0_l1d_set 64
core_0_l1d_way 12
core_0_l1d_rq_size 64
core_0_l1d_wq_size 64
core_0_l1d_pq_size 8
core_0_l1d_mshr_size 16
core_0_l1d_hit_latency 2
core_0_l1d_fill_latency 3
core_0_l1d_max_tag_check 2
core_0_l1d_max_fill 2
core_0_l2c_set 1024
core_0_l2c_way 8
core_0_l2c_rq_size 32
core_0_l2c_wq_size 32
core_0_l2c_pq_size 16
core_0_l2c_mshr_size 32
core_0_l2c_hit_latency 5
core_0_l2c_fill_latency 5
core_0_l2c_max_tag_check 1
core_0_l2c_max_fill 1
llc_set 2048
llc_way 16
llc_rq_size 32
llc_wq_size 32
llc_pq_size 32
llc_mshr_size 64
llc_hit_latency 10
llc_fill_latency 10
llc_max_tag_check 1
llc_max_fill 1
dram_channels 1
dram_ranks 1
dram_bankgroups 8
dram_banks 4
dram_rows 65536
dram_columns 1024
dram_channel_width 8
dram_rq_size 64
dram_wq_size 64
dram_size 17179869184
core_0_itlb_prefetcher no
core_0_dtlb_prefetcher no
core_0_stlb_prefetcher no
core_0_l1i_prefetcher next_line
core_0_l1d_prefetcher vberti
core_0_l2c_prefetcher ip_stride
llc_prefetcher no
llc_replacement drrip

Core_0_instructions 100000000
Core_0_cycles 524575442
Core_0_IPC 0.19063
Core_0_branch_prediction_accuracy 86.398
Core_0_branch_MPKI 23.5787
Core_0_average_ROB_occupancy_at_mispredict 20.0798

Core_0_ITLB_total_access 7187759
Core_0_ITLB_total_hit 7184607
Core_0_ITLB_total_miss 3152
Core_0_ITLB_total_MPKI 0.03152
Core_0_ITLB_total_miss_rate 0.000438523
Core_0_ITLB_demand_access 7187759
Core_0_ITLB_demand_hit 7184607
Core_0_ITLB_demand_miss 3152
Core_0_ITLB_demand_MPKI 0.03152
Core_0_ITLB_demand_miss_rate 0.000438523
Core_0_ITLB_load_access 7187759
Core_0_ITLB_load_hit 7184607
Core_0_ITLB_load_miss 3152
Core_0_ITLB_load_MPKI 0.03152
Core_0_ITLB_load_miss_rate 0.000438523
Core_0_ITLB_rfo_access 0
Core_0_ITLB_rfo_hit 0
Core_0_ITLB_rfo_miss 0
Core_0_ITLB_rfo_MPKI 0
Core_0_ITLB_rfo_miss_rate 0
Core_0_ITLB_prefetch_access 0
Core_0_ITLB_prefetch_hit 0
Core_0_ITLB_prefetch_miss 0
Core_0_ITLB_prefetch_MPKI 0
Core_0_ITLB_prefetch_miss_rate 0
Core_0_ITLB_writeback_access 0
Core_0_ITLB_writeback_hit 0
Core_0_ITLB_writeback_miss 0
Core_0_ITLB_writeback_MPKI 0
Core_0_ITLB_writeback_miss_rate 0
Core_0_ITLB_prefetch_requested 0
Core_0_ITLB_prefetch_issued 0
Core_0_ITLB_prefetch_useful 0
Core_0_ITLB_prefetch_useless 0
Core_0_ITLB_prefetch_late 0
Core_0_ITLB_prefetch_fill 0
Core_0_ITLB_prefetch_too_early 0
Core_0_ITLB_prefetch_too_early_among_fill 0
Core_0_ITLB_prefetch_too_early_among_useless 0
Core_0_ITLB_prefetch_pollution_evict 0
Core_0_ITLB_prefetch_pollution_demand 0
Core_0_ITLB_prefetch_pollution_among_prefetch_fill 0
Core_0_ITLB_prefetch_accuracy 0
Core_0_ITLB_prefetch_coverage 0

Core_0_DTLB_total_access 73813664
Core_0_DTLB_total_hit 72131352
Core_0_DTLB_total_miss 1682312
Core_0_DTLB_total_MPKI 16.8231
Core_0_DTLB_total_miss_rate 0.0227913
Core_0_DTLB_demand_access 73813664
Core_0_DTLB_demand_hit 72131352
Core_0_DTLB_demand_miss 1682312
Core_0_DTLB_demand_MPKI 16.8231
Core_0_DTLB_demand_miss_rate 0.0227913
Core_0_DTLB_load_access 73813664
Core_0_DTLB_load_hit 72131352
Core_0_DTLB_load_miss 1682312
Core_0_DTLB_load_MPKI 16.8231
Core_0_DTLB_load_miss_rate 0.0227913
Core_0_DTLB_rfo_access 0
Core_0_DTLB_rfo_hit 0
Core_0_DTLB_rfo_miss 0
Core_0_DTLB_rfo_MPKI 0
Core_0_DTLB_rfo_miss_rate 0
Core_0_DTLB_prefetch_access 0
Core_0_DTLB_prefetch_hit 0
Core_0_DTLB_prefetch_miss 0
Core_0_DTLB_prefetch_MPKI 0
Core_0_DTLB_prefetch_miss_rate 0
Core_0_DTLB_writeback_access 0
Core_0_DTLB_writeback_hit 0
Core_0_DTLB_writeback_miss 0
Core_0_DTLB_writeback_MPKI 0
Core_0_DTLB_writeback_miss_rate 0
Core_0_DTLB_prefetch_requested 0
Core_0_DTLB_prefetch_issued 0
Core_0_DTLB_prefetch_useful 0
Core_0_DTLB_prefetch_useless 0
Core_0_DTLB_prefetch_late 0
Core_0_DTLB_prefetch_fill 0
Core_0_DTLB_prefetch_too_early 0
Core_0_DTLB_prefetch_too_early_among_fill 0
Core_0_DTLB_prefetch_too_early_among_useless 0
Core_0_DTLB_prefetch_pollution_evict 0
Core_0_DTLB_prefetch_pollution_demand 0
Core_0_DTLB_prefetch_pollution_among_prefetch_fill 0
Core_0_DTLB_prefetch_accuracy 0
Core_0_DTLB_prefetch_coverage 0

Core_0_STLB_total_access 1301913
Core_0_STLB_total_hit 511319
Core_0_STLB_total_miss 790594
Core_0_STLB_total_MPKI 7.90594
Core_0_STLB_total_miss_rate 0.607256
Core_0_STLB_demand_access 1301913
Core_0_STLB_demand_hit 511319
Core_0_STLB_demand_miss 790594
Core_0_STLB_demand_MPKI 7.90594
Core_0_STLB_demand_miss_rate 0.607256
Core_0_STLB_load_access 1301913
Core_0_STLB_load_hit 511319
Core_0_STLB_load_miss 790594
Core_0_STLB_load_MPKI 7.90594
Core_0_STLB_load_miss_rate 0.607256
Core_0_STLB_rfo_access 0
Core_0_STLB_rfo_hit 0
Core_0_STLB_rfo_miss 0
Core_0_STLB_rfo_MPKI 0
Core_0_STLB_rfo_miss_rate 0
Core_0_STLB_prefetch_access 0
Core_0_STLB_prefetch_hit 0
Core_0_STLB_prefetch_miss 0
Core_0_STLB_prefetch_MPKI 0
Core_0_STLB_prefetch_miss_rate 0
Core_0_STLB_writeback_access 0
Core_0_STLB_writeback_hit 0
Core_0_STLB_writeback_miss 0
Core_0_STLB_writeback_MPKI 0
Core_0_STLB_writeback_miss_rate 0
Core_0_STLB_prefetch_requested 0
Core_0_STLB_prefetch_issued 0
Core_0_STLB_prefetch_useful 0
Core_0_STLB_prefetch_useless 0
Core_0_STLB_prefetch_late 0
Core_0_STLB_prefetch_fill 0
Core_0_STLB_prefetch_too_early 0
Core_0_STLB_prefetch_too_early_among_fill 0
Core_0_STLB_prefetch_too_early_among_useless 0
Core_0_STLB_prefetch_pollution_evict 0
Core_0_STLB_prefetch_pollution_demand 0
Core_0_STLB_prefetch_pollution_among_prefetch_fill 0
Core_0_STLB_prefetch_accuracy 0
Core_0_STLB_prefetch_coverage 0

Core_0_L1I_total_access 7240503
Core_0_L1I_total_hit 7217542
Core_0_L1I_total_miss 22961
Core_0_L1I_total_MPKI 0.22961
Core_0_L1I_total_miss_rate 0.00317119
Core_0_L1I_demand_access 7240503
Core_0_L1I_demand_hit 7217542
Core_0_L1I_demand_miss 22961
Core_0_L1I_demand_MPKI 0.22961
Core_0_L1I_demand_miss_rate 0.00317119
Core_0_L1I_load_access 7240503
Core_0_L1I_load_hit 7217542
Core_0_L1I_load_miss 22961
Core_0_L1I_load_MPKI 0.22961
Core_0_L1I_load_miss_rate 0.00317119
Core_0_L1I_rfo_access 0
Core_0_L1I_rfo_hit 0
Core_0_L1I_rfo_miss 0
Core_0_L1I_rfo_MPKI 0
Core_0_L1I_rfo_miss_rate 0
Core_0_L1I_prefetch_access 0
Core_0_L1I_prefetch_hit 0
Core_0_L1I_prefetch_miss 0
Core_0_L1I_prefetch_MPKI 0
Core_0_L1I_prefetch_miss_rate 0
Core_0_L1I_writeback_access 0
Core_0_L1I_writeback_hit 0
Core_0_L1I_writeback_miss 0
Core_0_L1I_writeback_MPKI 0
Core_0_L1I_writeback_miss_rate 0
Core_0_L1I_prefetch_requested 0
Core_0_L1I_prefetch_issued 0
Core_0_L1I_prefetch_useful 0
Core_0_L1I_prefetch_useless 0
Core_0_L1I_prefetch_late 0
Core_0_L1I_prefetch_fill 0
Core_0_L1I_prefetch_too_early 0
Core_0_L1I_prefetch_too_early_among_fill 0
Core_0_L1I_prefetch_too_early_among_useless 0
Core_0_L1I_prefetch_pollution_evict 0
Core_0_L1I_prefetch_pollution_demand 0
Core_0_L1I_prefetch_pollution_among_prefetch_fill 0
Core_0_L1I_prefetch_accuracy 0
Core_0_L1I_prefetch_coverage 0

Core_0_L1D_total_access 95915620
Core_0_L1D_total_hit 87916131
Core_0_L1D_total_miss 7999489
Core_0_L1D_total_MPKI 79.9949
Core_0_L1D_total_miss_rate 0.0834013
Core_0_L1D_demand_access 31485180
Core_0_L1D_demand_hit 25628391
Core_0_L1D_demand_miss 5856789
Core_0_L1D_demand_MPKI 58.5679
Core_0_L1D_demand_miss_rate 0.186017
Core_0_L1D_load_access 31485180
Core_0_L1D_load_hit 25628391
Core_0_L1D_load_miss 5856789
Core_0_L1D_load_MPKI 58.5679
Core_0_L1D_load_miss_rate 0.186017
Core_0_L1D_rfo_access 0
Core_0_L1D_rfo_hit 0
Core_0_L1D_rfo_miss 0
Core_0_L1D_rfo_MPKI 0
Core_0_L1D_rfo_miss_rate 0
Core_0_L1D_prefetch_access 53719057
Core_0_L1D_prefetch_hit 51603757
Core_0_L1D_prefetch_miss 2115300
Core_0_L1D_prefetch_MPKI 21.153
Core_0_L1D_prefetch_miss_rate 0.0393771
Core_0_L1D_writeback_access 10711383
Core_0_L1D_writeback_hit 10683983
Core_0_L1D_writeback_miss 27400
Core_0_L1D_writeback_MPKI 0.274
Core_0_L1D_writeback_miss_rate 0.00255803
Core_0_L1D_prefetch_requested 126413554
Core_0_L1D_prefetch_issued 53719049
Core_0_L1D_prefetch_useful 423102
Core_0_L1D_prefetch_useless 13406
Core_0_L1D_prefetch_late 12
Core_0_L1D_prefetch_fill 436508
Core_0_L1D_prefetch_too_early 1018
Core_0_L1D_prefetch_too_early_among_fill 0.00233215
Core_0_L1D_prefetch_too_early_among_useless 0.0759361
Core_0_L1D_prefetch_pollution_evict 76034
Core_0_L1D_prefetch_pollution_demand 76031
Core_0_L1D_prefetch_pollution_among_prefetch_fill 0.174187
Core_0_L1D_prefetch_accuracy 0.0078762
Core_0_L1D_prefetch_coverage 0.0673741

Core_0_L2C_total_access 9198702
Core_0_L2C_total_hit 3995243
Core_0_L2C_total_miss 5203459
Core_0_L2C_total_MPKI 52.0346
Core_0_L2C_total_miss_rate 0.565673
Core_0_L2C_demand_access 4954704
Core_0_L2C_demand_hit 291992
Core_0_L2C_demand_miss 4662712
Core_0_L2C_demand_MPKI 46.6271
Core_0_L2C_demand_miss_rate 0.941068
Core_0_L2C_load_access 4941382
Core_0_L2C_load_hit 290876
Core_0_L2C_load_miss 4650506
Core_0_L2C_load_MPKI 46.5051
Core_0_L2C_load_miss_rate 0.941135
Core_0_L2C_rfo_access 13322
Core_0_L2C_rfo_hit 1116
Core_0_L2C_rfo_miss 12206
Core_0_L2C_rfo_MPKI 0.12206
Core_0_L2C_rfo_miss_rate 0.916229
Core_0_L2C_prefetch_access 2768807
Core_0_L2C_prefetch_hit 2228062
Core_0_L2C_prefetch_miss 540745
Core_0_L2C_prefetch_MPKI 5.40745
Core_0_L2C_prefetch_miss_rate 0.195299
Core_0_L2C_writeback_access 1475191
Core_0_L2C_writeback_hit 1475189
Core_0_L2C_writeback_miss 2
Core_0_L2C_writeback_MPKI 2e-05
Core_0_L2C_writeback_miss_rate 1.35576e-06
Core_0_L2C_prefetch_requested 676599
Core_0_L2C_prefetch_issued 671547
Core_0_L2C_prefetch_useful 129753
Core_0_L2C_prefetch_useless 53401
Core_0_L2C_prefetch_late 399
Core_0_L2C_prefetch_fill 426205
Core_0_L2C_prefetch_too_early 32590
Core_0_L2C_prefetch_too_early_among_fill 0.0764656
Core_0_L2C_prefetch_too_early_among_useless 0.610288
Core_0_L2C_prefetch_pollution_evict 295780
Core_0_L2C_prefetch_pollution_demand 293815
Core_0_L2C_prefetch_pollution_among_prefetch_fill 0.693985
Core_0_L2C_prefetch_accuracy 0.193215
Core_0_L2C_prefetch_coverage 0.0270744

Core_0_LLC_total_access 6462784
Core_0_LLC_total_hit 4705230
Core_0_LLC_total_miss 1757554
Core_0_LLC_total_MPKI 17.5755
Core_0_LLC_total_miss_rate 0.27195
Core_0_LLC_demand_access 4661654
Core_0_LLC_demand_hit 3136447
Core_0_LLC_demand_miss 1525207
Core_0_LLC_demand_MPKI 15.2521
Core_0_LLC_demand_miss_rate 0.327182
Core_0_LLC_load_access 4649448
Core_0_LLC_load_hit 3124417
Core_0_LLC_load_miss 1525031
Core_0_LLC_load_MPKI 15.2503
Core_0_LLC_load_miss_rate 0.328003
Core_0_LLC_rfo_access 12206
Core_0_LLC_rfo_hit 12030
Core_0_LLC_rfo_miss 176
Core_0_LLC_rfo_MPKI 0.00176
Core_0_LLC_rfo_miss_rate 0.0144191
Core_0_LLC_prefetch_access 427350
Core_0_LLC_prefetch_hit 232398
Core_0_LLC_prefetch_miss 194952
Core_0_LLC_prefetch_MPKI 1.94952
Core_0_LLC_prefetch_miss_rate 0.456188
Core_0_LLC_writeback_access 1373780
Core_0_LLC_writeback_hit 1336385
Core_0_LLC_writeback_miss 37395
Core_0_LLC_writeback_MPKI 0.37395
Core_0_LLC_writeback_miss_rate 0.0272205
Core_0_LLC_prefetch_requested 0
Core_0_LLC_prefetch_issued 0
Core_0_LLC_prefetch_useful 0
Core_0_LLC_prefetch_useless 0
Core_0_LLC_prefetch_late 0
Core_0_LLC_prefetch_fill 194947
Core_0_LLC_prefetch_too_early 0
Core_0_LLC_prefetch_too_early_among_fill 0
Core_0_LLC_prefetch_too_early_among_useless 0
Core_0_LLC_prefetch_pollution_evict 98571
Core_0_LLC_prefetch_pollution_demand 98571
Core_0_LLC_prefetch_pollution_among_prefetch_fill 0.50563
Core_0_LLC_prefetch_accuracy 0
Core_0_LLC_prefetch_coverage 0

[DRAM Statistics]
Channel_0_RQ_row_buffer_hit 6519
Channel_0_RQ_row_buffer_miss 1725422
Channel_0_WQ_row_buffer_hit 108144
Channel_0_WQ_row_buffer_miss 259706
Channel_0_WQ_full 0
Channel_0_dbus_congested 5252761
DRAM_total_RQ_row_buffer_hit 6519
DRAM_total_RQ_row_buffer_miss 1725422
DRAM_total_WQ_row_buffer_hit 108144
DRAM_total_WQ_row_buffer_miss 259706
DRAM_total_WQ_full 0
DRAM_total_dbus_congested 5252761
DRAM_avg_congested_cycle 21.0404

====== DRAM_RQ_TRAFFIC ========
DRAM_RQ_READ_TRAFFIC_BREAKDOWN:
data_demand_read.count = 1525144
data_demand_read.share = 88.06%

inst_demand_read.count = 63
inst_demand_read.share = 0.00%

cache_inst_prefetch.count = 0
cache_inst_prefetch.share = 0.00%

cache_data_prefetch.count = 194947
cache_data_prefetch.share = 11.26%

stlb_data_demand.count = 11561
stlb_data_demand.share = 0.67%

stlb_inst_demand.count = 9
stlb_inst_demand.share = 0.00%

stlb_l1i_pref.count = 0
stlb_l1i_pref.share = 0.00%

stlb_l1d_pref.count = 276
stlb_l1d_pref.share = 0.02%

DRAM_RQ_READ_TRAFFIC_SUMMARY:
cache_demand.count = 1525207
cache_demand.share = 88.06%

cache_prefetch.count = 194947
cache_prefetch.share = 11.26%

stlb_demand.count = 11570
stlb_demand.share = 0.67%

stlb_prefetch.count = 276
stlb_prefetch.share = 0.02%

DRAM_RQ_READ_TRAFFIC_DEBUG:
total_classified_read.count = 1732000
unclassified_read.count = 0
total_read_with_other.count = 1732000

classified_plus_unclassified_check.count = 1732000
dram_rq_read_total_observed.count = 1732000
dram_rq_read_total_observed.per_1K_instructions = 17.32

STLB_MISS_PTW_DRAM_TOUCH_BREAKDOWN:
stlb_miss_total.count = 790594

stlb_miss_touch_dram.count = 11841
stlb_miss_touch_dram.share = 1.50%

stlb_miss_no_dram_touch.count = 778753
stlb_miss_no_dram_touch.share = 98.50%

STLB_MISS_PTW_DRAM_TOUCH_DEBUG:
stlb_miss_touch_plus_no_touch.count = 790594
stlb_miss_total_check.count = 790594

======STLB miss causes ========
Core_0_STLB_miss_cause_breakdown
Core_0_STLB_cause_Demand_Data_miss 784024
Core_0_STLB_cause_Demand_Data_miss_rate 0.602209
Core_0_STLB_cause_Demand_Instruction_miss 1613
Core_0_STLB_cause_Demand_Instruction_miss_rate 0.00123895
Core_0_STLB_cause_L1D_Prefetch_miss 4957
Core_0_STLB_cause_L1D_Prefetch_miss_rate 0.00380747
Core_0_STLB_cause_L1D_Prefetch_Same_Page_miss 0
Core_0_STLB_cause_L1D_Prefetch_Same_Page_miss_rate 0
Core_0_STLB_cause_L1D_Prefetch_Cross_Page_miss 4957
Core_0_STLB_cause_L1D_Prefetch_Cross_Page_miss_rate 0.00380747
Core_0_STLB_cause_L1I_Prefetch_miss 0
Core_0_STLB_cause_L1I_Prefetch_miss_rate 0
Core_0_STLB_cause_Other_miss 0
Core_0_STLB_cause_Other_miss_rate 0
Core_0_STLB_Demand_miss 785637
Core_0_STLB_Demand_miss_rate 0.603448
Core_0_STLB_L1D_Prefetch_miss 4957
Core_0_STLB_L1D_Prefetch_miss_rate 0.00380747
Core_0_STLB_Other_miss 0
Core_0_STLB_Other_miss_rate 0

========== vBerti-TLB Cross-page Flow Stats ==========

Core_0_vBerti_Requested 126413554
Core_0_vBerti_Cross_page_prefetch_in_Requested 8848802
Core_0_vBerti_Same_page_prefetch_in_Requested 117564752
Core_0_vBerti_Cross_page_prefetch_of_Requested 0.0699988
Core_0_vBerti_Issued 53719049
Core_0_vBerti_InPQ_Same_page_prefetch 51335251
Core_0_vBerti_InPQ_Cross_page_prefetch 2383798
Core_0_vBerti_PQ_Drop_Rate 0.575053
Core_0_vBerti_InPQ_Cross_page_prefetch_of_Requested 0.0188571
Core_0_vBerti_Cross_page_PQ_Drop_rate 0.730608
Core_0_vBerti_Cross_page_prefetch_of_Issued 0.0443753
Core_0_CP_PF_PQFULL_drop 6465004
Core_0_CP_PF_PQFULL_TLB_rescue_enqueued 0
Core_0_CP_PF_PQFULL_TLB_rescue_issued 0
Core_0_CP_PF_PQFULL_TLB_rescue_translated 0

========= DTLB_vBerti Prefetch Stats =========
Core_0_DTLB_demand_access 38947220
Core_0_DTLB_demand_hit 37280839
Core_0_DTLB_demand_miss 1666381
Core_0_DTLB_demand_mshr_merge 375105
Core_0_DTLB_demand_fill 1291281
Core_0_DTLB_demand_miss_rate 0.0427856
Core_0_DTLB_demand_mpki 16.6638
Core_0_DTLB_vberti_prefetch_access 34866444
Core_0_DTLB_vberti_prefetch_hit 34850513
Core_0_DTLB_vberti_prefetch_miss 15931
Core_0_DTLB_vberti_prefetch_mshr_merge 7090
Core_0_DTLB_vberti_prefetch_fill 8836
Core_0_DTLB_vberti_prefetch_miss_rate 0.000456915
Core_0_DTLB_vberti_prefetch_mpki 0.15931

=== DTLB_vBerti Same/Cross-page Prefetch Stats ===
Core_0_DTLB_vberti_same_page_prefetch 33101188
Core_0_DTLB_vberti_same_page_prefetch_hit 33101182
Core_0_DTLB_vberti_same_page_prefetch_miss 6
Core_0_DTLB_vberti_same_page_prefetch_mshr_merge 0
Core_0_DTLB_vberti_same_page_prefetch_fill 6
Core_0_DTLB_vberti_same_page_prefetch_miss_rate 1.81262e-07
Core_0_DTLB_vberti_same_page_prefetch_mpki 6e-05
Core_0_DTLB_vberti_cross_page_prefetch 1765256
Core_0_DTLB_vberti_cross_page_prefetch_hit 1749331
Core_0_DTLB_vberti_cross_page_prefetch_miss 15925
Core_0_DTLB_vberti_cross_page_prefetch_mshr_merge 7090
Core_0_DTLB_vberti_cross_page_prefetch_fill 8830
Core_0_DTLB_vberti_cross_page_prefetch_miss_rate 0.00902135
Core_0_DTLB_vberti_cross_page_prefetch_mpki 0.15925
Core_0_DTLB_same_page_prefetch_miss_rate 1.81262e-07
Core_0_DTLB_same_page_prefetch_mpki 6e-05
Core_0_DTLB_cross_page_prefetch_miss_rate 0.00902135
Core_0_DTLB_cross_page_prefetch_mpki 0.15925
Core_0_DTLB_cross_page_prefetch_issued 1765256
Core_0_DTLB_cross_page_prefetch_lookups 1765256
Core_0_DTLB_cross_page_prefetch_useful 7358
Core_0_DTLB_cross_page_prefetch_useless 1477
Core_0_DTLB_cross_page_prefetch_late 5
Core_0_DTLB_cross_page_prefetch_too_early 549
Core_0_DTLB_cross_page_prefetch_too_early_among_fill 0.0621744
Core_0_DTLB_cross_page_prefetch_too_early_among_useless 0.371699
Core_0_DTLB_cross_page_prefetch_pollution_evict 8450
Core_0_DTLB_cross_page_prefetch_pollution_demand 8435
Core_0_DTLB_cross_page_prefetch_pollution_among_prefetch_fill 0.956965
Core_0_DTLB_cross_page_prefetch_accuracy 0.00416823
Core_0_DTLB_cross_page_prefetch_coverage 0.00439615

========= STLB_vBerti Prefetch Stats =========
Core_0_STLB_demand_access 1293072
Core_0_STLB_demand_hit 507435
Core_0_STLB_demand_miss 785637
Core_0_STLB_demand_mshr_merge 0
Core_0_STLB_demand_fill 785637
Core_0_STLB_demand_miss_rate 0.607574
Core_0_STLB_demand_mpki 7.85637
Core_0_STLB_vberti_prefetch_access 8841
Core_0_STLB_vberti_prefetch_hit 3884
Core_0_STLB_vberti_prefetch_miss 4957
Core_0_STLB_vberti_prefetch_mshr_merge 0
Core_0_STLB_vberti_prefetch_fill 4957
Core_0_STLB_vberti_prefetch_miss_rate 0.560683
Core_0_STLB_vberti_prefetch_mpki 0.04957

=== STLB_vBerti Same/Cross-page Prefetch Stats ===
Core_0_STLB_vberti_same_page_prefetch 6
Core_0_STLB_vberti_same_page_prefetch_hit 6
Core_0_STLB_vberti_same_page_prefetch_miss 0
Core_0_STLB_vberti_same_page_prefetch_mshr_merge 0
Core_0_STLB_vberti_same_page_prefetch_fill 0
Core_0_STLB_vberti_same_page_prefetch_miss_rate 0
Core_0_STLB_vberti_same_page_prefetch_mpki 0
Core_0_STLB_vberti_cross_page_prefetch 8835
Core_0_STLB_vberti_cross_page_prefetch_hit 3878
Core_0_STLB_vberti_cross_page_prefetch_miss 4957
Core_0_STLB_vberti_cross_page_prefetch_mshr_merge 0
Core_0_STLB_vberti_cross_page_prefetch_fill 4957
Core_0_STLB_vberti_cross_page_prefetch_miss_rate 0.561064
Core_0_STLB_vberti_cross_page_prefetch_mpki 0.04957
Core_0_STLB_same_page_prefetch_miss_rate 0
Core_0_STLB_same_page_prefetch_mpki 0
Core_0_STLB_cross_page_prefetch_miss_rate 0.561064
Core_0_STLB_cross_page_prefetch_mpki 0.04957
Core_0_STLB_cross_page_prefetch_issued 8835
Core_0_STLB_cross_page_prefetch_lookups 8835
Core_0_STLB_cross_page_prefetch_useful 831
Core_0_STLB_cross_page_prefetch_useless 4126
Core_0_STLB_cross_page_prefetch_late 0
Core_0_STLB_cross_page_prefetch_too_early 618
Core_0_STLB_cross_page_prefetch_too_early_among_fill 0.124672
Core_0_STLB_cross_page_prefetch_too_early_among_useless 0.149782
Core_0_STLB_cross_page_prefetch_pollution_evict 4826
Core_0_STLB_cross_page_prefetch_pollution_demand 4821
Core_0_STLB_cross_page_prefetch_pollution_among_prefetch_fill 0.973573
Core_0_STLB_cross_page_prefetch_accuracy 0.0940577
Core_0_STLB_cross_page_prefetch_coverage 0.00105662

========= STLB Cross-page Prefetch Buffer Stats =========
Core_0_STLB_raw_demand_miss 784024
Core_0_CP_PB_insert 0
Core_0_CP_PB_demand_hit 0
Core_0_STLB_PB_demand_miss 784024
Core_0_CP_PB_coverage 0
Core_0_STLB_raw_demand_mpki 7.84024
Core_0_STLB_PB_demand_mpki 7.84024
Core_0_CP_PB_demand_hit_mpki 0

Core_0_TLB_demand_miss_rate 0.0201718
Core_0_TLB_demand_mpki 7.85637
Core_0_TLB_same_page_prefetch_miss_rate 0
Core_0_TLB_same_page_prefetch_mpki 0
Core_0_TLB_cross_page_prefetch_miss_rate 0.00280809
Core_0_TLB_cross_page_prefetch_mpki 0.04957
Core_0_TLB_cross_page_prefetch_issued 1765256
Core_0_TLB_cross_page_prefetch_lookups 1765256
Core_0_TLB_cross_page_prefetch_useful 2890
Core_0_TLB_cross_page_prefetch_useless 1247
Core_0_TLB_cross_page_prefetch_late 4
Core_0_TLB_cross_page_prefetch_too_early 517
Core_0_TLB_cross_page_prefetch_too_early_among_fill 0.0374991
Core_0_TLB_cross_page_prefetch_too_early_among_useless 0.414595
Core_0_TLB_cross_page_prefetch_accuracy 0.00163716
Core_0_TLB_cross_page_prefetch_coverage 0.00366506
BERTI TO_L1: 170495004 TO_L2: 12331386 TO_L2_BC_MSHR: 96
BERTI AVG_LAT: 52.4516 NUM_TRACK_LATENCY: 8039899 NUM_CANT_TRACK_LATENCY: 46
BERTI CROSS_PAGE 12962637 NO_CROSS_PAGE: 169863753
BERTI FOUND_BERTI: 43290054 NO_FOUND_BERTI: 13812175
BERTI AVERAGE_ISSUED: 3.07769
