[VMEM] WARNING: physical memory size is smaller than virtual memory size.

*** ChampSim Multicore Out-of-Order Simulator ***
Warmup Instructions: 50000000
Simulation Instructions: 100000000
Number of CPUs: 1
Page size: 4096
Core 0: /data2/zcq/champsim_traces_gap/cc.twitter-69B.champsimtrace.xz
VBerti Prefetcher
BERTI HASH ENTANGLING
BERTI IP MASK ffff
Off-chip DRAM Size: 16 GiB Channels: 1 Width: 64-bit Data Rate: 3205 MT/s
Warmup halting CPU 0 at instruction 50000002 cycle 20188344 for remainder of phase
Warmup finished CPU 0 instructions: 50000002 cycles: 20188344 cumulative IPC: 2.477 (Simulation time: 00 hr 04 min 38 sec)
Warmup complete CPU 0 instructions: 50000002 cycles: 20188344 cumulative IPC: 2.477 (Simulation time: 00 hr 04 min 38 sec)
Simulation finished CPU 0 instructions: 100000001 cycles: 231139617 cumulative IPC: 0.4326 (Simulation time: 00 hr 33 min 44 sec)
Simulation complete CPU 0 instructions: 100000001 cycles: 231139617 cumulative IPC: 0.4326 (Simulation time: 00 hr 33 min 44 sec)

ChampSim completed all CPUs

=== Simulation ===
CPU 0 runs /data2/zcq/champsim_traces_gap/cc.twitter-69B.champsimtrace.xz

Region of Interest Statistics

CPU 0 cumulative IPC: 0.4326 instructions: 100000001 cycles: 231139617
CPU 0 Branch Prediction Accuracy: 93.92% MPKI: 10.23 Average ROB Occupancy at Mispredict: 49.77
Branch type MPKI
BRANCH_DIRECT_JUMP: 0
BRANCH_INDIRECT: 0
BRANCH_CONDITIONAL: 10.23
BRANCH_DIRECT_CALL: 0
BRANCH_INDIRECT_CALL: 0
BRANCH_RETURN: 0

cpu0->cpu0_STLB TOTAL        ACCESS:    2797697 HIT:     340029 MISS:    2457668 MSHR_MERGE:          0
cpu0->cpu0_STLB LOAD         ACCESS:    2797697 HIT:     340029 MISS:    2457668 MSHR_MERGE:          0
cpu0->cpu0_STLB RFO          ACCESS:          0 HIT:          0 MISS:          0 MSHR_MERGE:          0
cpu0->cpu0_STLB PREFETCH     ACCESS:          0 HIT:          0 MISS:          0 MSHR_MERGE:          0
cpu0->cpu0_STLB WRITE        ACCESS:          0 HIT:          0 MISS:          0 MSHR_MERGE:          0
cpu0->cpu0_STLB TRANSLATION  ACCESS:          0 HIT:          0 MISS:          0 MSHR_MERGE:          0
cpu0->cpu0_STLB PREFETCH REQUESTED:          0 ISSUED:          0 USEFUL:          0 USELESS:          0 LATE:          0 TOO_EARLY:          0
cpu0->cpu0_STLB AVERAGE MISS LATENCY: 59.07 cycles
cpu0->cpu0_L2C TOTAL        ACCESS:   10365875 HIT:    3690476 MISS:    6675399 MSHR_MERGE:     635155
cpu0->cpu0_L2C LOAD         ACCESS:    3746814 HIT:     497847 MISS:    3248967 MSHR_MERGE:      27276
cpu0->cpu0_L2C RFO          ACCESS:          3 HIT:          3 MISS:          0 MSHR_MERGE:          0
cpu0->cpu0_L2C PREFETCH     ACCESS:    4367844 HIT:    2252157 MISS:    2115687 MSHR_MERGE:     607879
cpu0->cpu0_L2C WRITE        ACCESS:     110285 HIT:     109965 MISS:        320 MSHR_MERGE:          0
cpu0->cpu0_L2C TRANSLATION  ACCESS:    2140929 HIT:     830504 MISS:    1310425 MSHR_MERGE:          0
cpu0->cpu0_L2C PREFETCH REQUESTED:    1365328 ISSUED:    1363941 USEFUL:     384698 USELESS:     131406 LATE:      10640 TOO_EARLY:       1957
cpu0->cpu0_L2C AVERAGE MISS LATENCY: 191.3 cycles
cpu0->cpu0_L1I TOTAL        ACCESS:    6518148 HIT:    6518148 MISS:          0 MSHR_MERGE:          0
cpu0->cpu0_L1I LOAD         ACCESS:    6518148 HIT:    6518148 MISS:          0 MSHR_MERGE:          0
cpu0->cpu0_L1I RFO          ACCESS:          0 HIT:          0 MISS:          0 MSHR_MERGE:          0
cpu0->cpu0_L1I PREFETCH     ACCESS:          0 HIT:          0 MISS:          0 MSHR_MERGE:          0
cpu0->cpu0_L1I WRITE        ACCESS:          0 HIT:          0 MISS:          0 MSHR_MERGE:          0
cpu0->cpu0_L1I TRANSLATION  ACCESS:          0 HIT:          0 MISS:          0 MSHR_MERGE:          0
cpu0->cpu0_L1I PREFETCH REQUESTED:          0 ISSUED:          0 USEFUL:          0 USELESS:          0 LATE:          0 TOO_EARLY:          0
cpu0->cpu0_L1I AVERAGE MISS LATENCY: - cycles
cpu0->cpu0_L1D TOTAL        ACCESS:   50451098 HIT:   40256606 MISS:   10194492 MSHR_MERGE:    1210206
cpu0->cpu0_L1D LOAD         ACCESS:   31863365 HIT:   27096970 MISS:    4766395 MSHR_MERGE:    1019582
cpu0->cpu0_L1D RFO          ACCESS:          0 HIT:          0 MISS:          0 MSHR_MERGE:          0
cpu0->cpu0_L1D PREFETCH     ACCESS:   12823988 HIT:    9627080 MISS:    3196908 MSHR_MERGE:     100367
cpu0->cpu0_L1D WRITE        ACCESS:     170743 HIT:     170734 MISS:          9 MSHR_MERGE:          6
cpu0->cpu0_L1D TRANSLATION  ACCESS:    5593002 HIT:    3361822 MISS:    2231180 MSHR_MERGE:      90251
cpu0->cpu0_L1D PREFETCH REQUESTED:   29354031 ISSUED:   12823996 USEFUL:     724687 USELESS:     116670 LATE:      21226 TOO_EARLY:       1367
cpu0->cpu0_L1D AVERAGE MISS LATENCY: 157.1 cycles
cpu0->cpu0_ITLB TOTAL        ACCESS:    4734792 HIT:    4734792 MISS:          0 MSHR_MERGE:          0
cpu0->cpu0_ITLB LOAD         ACCESS:    4734792 HIT:    4734792 MISS:          0 MSHR_MERGE:          0
cpu0->cpu0_ITLB RFO          ACCESS:          0 HIT:          0 MISS:          0 MSHR_MERGE:          0
cpu0->cpu0_ITLB PREFETCH     ACCESS:          0 HIT:          0 MISS:          0 MSHR_MERGE:          0
cpu0->cpu0_ITLB WRITE        ACCESS:          0 HIT:          0 MISS:          0 MSHR_MERGE:          0
cpu0->cpu0_ITLB TRANSLATION  ACCESS:          0 HIT:          0 MISS:          0 MSHR_MERGE:          0
cpu0->cpu0_ITLB PREFETCH REQUESTED:          0 ISSUED:          0 USEFUL:          0 USELESS:          0 LATE:          0 TOO_EARLY:          0
cpu0->cpu0_ITLB AVERAGE MISS LATENCY: - cycles
cpu0->cpu0_DTLB TOTAL        ACCESS:   39929024 HIT:   36365096 MISS:    3563928 MSHR_MERGE:     766231
cpu0->cpu0_DTLB LOAD         ACCESS:   39929024 HIT:   36365096 MISS:    3563928 MSHR_MERGE:     766231
cpu0->cpu0_DTLB RFO          ACCESS:          0 HIT:          0 MISS:          0 MSHR_MERGE:          0
cpu0->cpu0_DTLB PREFETCH     ACCESS:          0 HIT:          0 MISS:          0 MSHR_MERGE:          0
cpu0->cpu0_DTLB WRITE        ACCESS:          0 HIT:          0 MISS:          0 MSHR_MERGE:          0
cpu0->cpu0_DTLB TRANSLATION  ACCESS:          0 HIT:          0 MISS:          0 MSHR_MERGE:          0
cpu0->cpu0_DTLB PREFETCH REQUESTED:          0 ISSUED:          0 USEFUL:          0 USELESS:          0 LATE:          0 TOO_EARLY:          0
cpu0->cpu0_DTLB AVERAGE MISS LATENCY: 57.83 cycles
cpu0->LLC TOTAL        ACCESS:    6148331 HIT:    1429839 MISS:    4718492 MSHR_MERGE:       6757
cpu0->LLC LOAD         ACCESS:    3221691 HIT:     146680 MISS:    3075011 MSHR_MERGE:       2372
cpu0->LLC RFO          ACCESS:          0 HIT:          0 MISS:          0 MSHR_MERGE:          0
cpu0->LLC PREFETCH     ACCESS:    1507808 HIT:      17551 MISS:    1490257 MSHR_MERGE:       4385
cpu0->LLC WRITE        ACCESS:     108407 HIT:      35802 MISS:      72605 MSHR_MERGE:          0
cpu0->LLC TRANSLATION  ACCESS:    1310425 HIT:    1229806 MISS:      80619 MSHR_MERGE:          0
cpu0->LLC PREFETCH REQUESTED:          0 ISSUED:          0 USEFUL:          0 USELESS:          0 LATE:          0 TOO_EARLY:          0
cpu0->LLC AVERAGE MISS LATENCY: 247.1 cycles

DRAM Statistics

Channel 0 RQ ROW_BUFFER_HIT:      30309
  ROW_BUFFER_MISS:    4608809
  AVG DBUS CONGESTED CYCLE: 5.222
Channel 0 WQ ROW_BUFFER_HIT:      25493
  ROW_BUFFER_MISS:      74822
  FULL:          0
Channel 0 REFRESHES ISSUED:      19261

[ROI Statistics]
[System Configuration]
num_cpus 1
cpu_freq 4000
fetch_width 6
decode_width 6
dispatch_width 6
execute_width 6
lq_width 2
sq_width 2
retire_width 6
scheduler_size 128
branch_mispredict_penalty 15
rob_size 352
lq_size 128
sq_size 72
ifetch_buffer_size 64
decode_buffer_size 32
dispatch_buffer_size 32
register_file_size 288
decode_latency 1
dispatch_latency 1
schedule_latency 1
execute_latency 1
page_size 4096
block_size 64
core_0_itlb_set 16
core_0_itlb_way 4
core_0_itlb_rq_size 16
core_0_itlb_wq_size 16
core_0_itlb_pq_size 0
core_0_itlb_mshr_size 8
core_0_itlb_hit_latency 1
core_0_itlb_fill_latency 1
core_0_itlb_max_tag_check 2
core_0_itlb_max_fill 2
core_0_dtlb_set 16
core_0_dtlb_way 4
core_0_dtlb_rq_size 16
core_0_dtlb_wq_size 16
core_0_dtlb_pq_size 0
core_0_dtlb_mshr_size 8
core_0_dtlb_hit_latency 1
core_0_dtlb_fill_latency 1
core_0_dtlb_max_tag_check 2
core_0_dtlb_max_fill 2
core_0_stlb_set 128
core_0_stlb_way 12
core_0_stlb_rq_size 32
core_0_stlb_wq_size 32
core_0_stlb_pq_size 0
core_0_stlb_mshr_size 16
core_0_stlb_hit_latency 4
core_0_stlb_fill_latency 4
core_0_stlb_max_tag_check 1
core_0_stlb_max_fill 1
core_0_l1i_set 64
core_0_l1i_way 8
core_0_l1i_rq_size 64
core_0_l1i_wq_size 64
core_0_l1i_pq_size 32
core_0_l1i_mshr_size 8
core_0_l1i_hit_latency 2
core_0_l1i_fill_latency 2
core_0_l1i_max_tag_check 2
core_0_l1i_max_fill 2
core_0_l1d_set 64
core_0_l1d_way 12
core_0_l1d_rq_size 64
core_0_l1d_wq_size 64
core_0_l1d_pq_size 8
core_0_l1d_mshr_size 16
core_0_l1d_hit_latency 2
core_0_l1d_fill_latency 3
core_0_l1d_max_tag_check 2
core_0_l1d_max_fill 2
core_0_l2c_set 1024
core_0_l2c_way 8
core_0_l2c_rq_size 32
core_0_l2c_wq_size 32
core_0_l2c_pq_size 16
core_0_l2c_mshr_size 32
core_0_l2c_hit_latency 5
core_0_l2c_fill_latency 5
core_0_l2c_max_tag_check 1
core_0_l2c_max_fill 1
llc_set 2048
llc_way 16
llc_rq_size 32
llc_wq_size 32
llc_pq_size 32
llc_mshr_size 64
llc_hit_latency 10
llc_fill_latency 10
llc_max_tag_check 1
llc_max_fill 1
dram_channels 1
dram_ranks 1
dram_bankgroups 8
dram_banks 4
dram_rows 65536
dram_columns 1024
dram_channel_width 8
dram_rq_size 64
dram_wq_size 64
dram_size 17179869184
core_0_itlb_prefetcher no
core_0_dtlb_prefetcher no
core_0_stlb_prefetcher no
core_0_l1i_prefetcher next_line
core_0_l1d_prefetcher vberti
core_0_l2c_prefetcher ip_stride
llc_prefetcher no
llc_replacement drrip

Core_0_instructions 100000001
Core_0_cycles 231139617
Core_0_IPC 0.432639
Core_0_branch_prediction_accuracy 93.924
Core_0_branch_MPKI 10.2309
Core_0_average_ROB_occupancy_at_mispredict 49.7684

Core_0_ITLB_total_access 4734792
Core_0_ITLB_total_hit 4734792
Core_0_ITLB_total_miss 0
Core_0_ITLB_total_MPKI 0
Core_0_ITLB_total_miss_rate 0
Core_0_ITLB_demand_access 4734792
Core_0_ITLB_demand_hit 4734792
Core_0_ITLB_demand_miss 0
Core_0_ITLB_demand_MPKI 0
Core_0_ITLB_demand_miss_rate 0
Core_0_ITLB_load_access 4734792
Core_0_ITLB_load_hit 4734792
Core_0_ITLB_load_miss 0
Core_0_ITLB_load_MPKI 0
Core_0_ITLB_load_miss_rate 0
Core_0_ITLB_rfo_access 0
Core_0_ITLB_rfo_hit 0
Core_0_ITLB_rfo_miss 0
Core_0_ITLB_rfo_MPKI 0
Core_0_ITLB_rfo_miss_rate 0
Core_0_ITLB_prefetch_access 0
Core_0_ITLB_prefetch_hit 0
Core_0_ITLB_prefetch_miss 0
Core_0_ITLB_prefetch_MPKI 0
Core_0_ITLB_prefetch_miss_rate 0
Core_0_ITLB_writeback_access 0
Core_0_ITLB_writeback_hit 0
Core_0_ITLB_writeback_miss 0
Core_0_ITLB_writeback_MPKI 0
Core_0_ITLB_writeback_miss_rate 0
Core_0_ITLB_prefetch_requested 0
Core_0_ITLB_prefetch_issued 0
Core_0_ITLB_prefetch_useful 0
Core_0_ITLB_prefetch_useless 0
Core_0_ITLB_prefetch_late 0
Core_0_ITLB_prefetch_fill 0
Core_0_ITLB_prefetch_too_early 0
Core_0_ITLB_prefetch_too_early_among_fill 0
Core_0_ITLB_prefetch_too_early_among_useless 0
Core_0_ITLB_prefetch_pollution_evict 0
Core_0_ITLB_prefetch_pollution_demand 0
Core_0_ITLB_prefetch_pollution_among_prefetch_fill 0
Core_0_ITLB_prefetch_accuracy 0
Core_0_ITLB_prefetch_coverage 0

Core_0_DTLB_total_access 39929024
Core_0_DTLB_total_hit 36365096
Core_0_DTLB_total_miss 3563928
Core_0_DTLB_total_MPKI 35.6393
Core_0_DTLB_total_miss_rate 0.0892566
Core_0_DTLB_demand_access 39929024
Core_0_DTLB_demand_hit 36365096
Core_0_DTLB_demand_miss 3563928
Core_0_DTLB_demand_MPKI 35.6393
Core_0_DTLB_demand_miss_rate 0.0892566
Core_0_DTLB_load_access 39929024
Core_0_DTLB_load_hit 36365096
Core_0_DTLB_load_miss 3563928
Core_0_DTLB_load_MPKI 35.6393
Core_0_DTLB_load_miss_rate 0.0892566
Core_0_DTLB_rfo_access 0
Core_0_DTLB_rfo_hit 0
Core_0_DTLB_rfo_miss 0
Core_0_DTLB_rfo_MPKI 0
Core_0_DTLB_rfo_miss_rate 0
Core_0_DTLB_prefetch_access 0
Core_0_DTLB_prefetch_hit 0
Core_0_DTLB_prefetch_miss 0
Core_0_DTLB_prefetch_MPKI 0
Core_0_DTLB_prefetch_miss_rate 0
Core_0_DTLB_writeback_access 0
Core_0_DTLB_writeback_hit 0
Core_0_DTLB_writeback_miss 0
Core_0_DTLB_writeback_MPKI 0
Core_0_DTLB_writeback_miss_rate 0
Core_0_DTLB_prefetch_requested 0
Core_0_DTLB_prefetch_issued 0
Core_0_DTLB_prefetch_useful 0
Core_0_DTLB_prefetch_useless 0
Core_0_DTLB_prefetch_late 0
Core_0_DTLB_prefetch_fill 0
Core_0_DTLB_prefetch_too_early 0
Core_0_DTLB_prefetch_too_early_among_fill 0
Core_0_DTLB_prefetch_too_early_among_useless 0
Core_0_DTLB_prefetch_pollution_evict 0
Core_0_DTLB_prefetch_pollution_demand 0
Core_0_DTLB_prefetch_pollution_among_prefetch_fill 0
Core_0_DTLB_prefetch_accuracy 0
Core_0_DTLB_prefetch_coverage 0

Core_0_STLB_total_access 2797697
Core_0_STLB_total_hit 340029
Core_0_STLB_total_miss 2457668
Core_0_STLB_total_MPKI 24.5767
Core_0_STLB_total_miss_rate 0.878461
Core_0_STLB_demand_access 2797697
Core_0_STLB_demand_hit 340029
Core_0_STLB_demand_miss 2457668
Core_0_STLB_demand_MPKI 24.5767
Core_0_STLB_demand_miss_rate 0.878461
Core_0_STLB_load_access 2797697
Core_0_STLB_load_hit 340029
Core_0_STLB_load_miss 2457668
Core_0_STLB_load_MPKI 24.5767
Core_0_STLB_load_miss_rate 0.878461
Core_0_STLB_rfo_access 0
Core_0_STLB_rfo_hit 0
Core_0_STLB_rfo_miss 0
Core_0_STLB_rfo_MPKI 0
Core_0_STLB_rfo_miss_rate 0
Core_0_STLB_prefetch_access 0
Core_0_STLB_prefetch_hit 0
Core_0_STLB_prefetch_miss 0
Core_0_STLB_prefetch_MPKI 0
Core_0_STLB_prefetch_miss_rate 0
Core_0_STLB_writeback_access 0
Core_0_STLB_writeback_hit 0
Core_0_STLB_writeback_miss 0
Core_0_STLB_writeback_MPKI 0
Core_0_STLB_writeback_miss_rate 0
Core_0_STLB_prefetch_requested 0
Core_0_STLB_prefetch_issued 0
Core_0_STLB_prefetch_useful 0
Core_0_STLB_prefetch_useless 0
Core_0_STLB_prefetch_late 0
Core_0_STLB_prefetch_fill 0
Core_0_STLB_prefetch_too_early 0
Core_0_STLB_prefetch_too_early_among_fill 0
Core_0_STLB_prefetch_too_early_among_useless 0
Core_0_STLB_prefetch_pollution_evict 0
Core_0_STLB_prefetch_pollution_demand 0
Core_0_STLB_prefetch_pollution_among_prefetch_fill 0
Core_0_STLB_prefetch_accuracy 0
Core_0_STLB_prefetch_coverage 0

Core_0_L1I_total_access 6518148
Core_0_L1I_total_hit 6518148
Core_0_L1I_total_miss 0
Core_0_L1I_total_MPKI 0
Core_0_L1I_total_miss_rate 0
Core_0_L1I_demand_access 6518148
Core_0_L1I_demand_hit 6518148
Core_0_L1I_demand_miss 0
Core_0_L1I_demand_MPKI 0
Core_0_L1I_demand_miss_rate 0
Core_0_L1I_load_access 6518148
Core_0_L1I_load_hit 6518148
Core_0_L1I_load_miss 0
Core_0_L1I_load_MPKI 0
Core_0_L1I_load_miss_rate 0
Core_0_L1I_rfo_access 0
Core_0_L1I_rfo_hit 0
Core_0_L1I_rfo_miss 0
Core_0_L1I_rfo_MPKI 0
Core_0_L1I_rfo_miss_rate 0
Core_0_L1I_prefetch_access 0
Core_0_L1I_prefetch_hit 0
Core_0_L1I_prefetch_miss 0
Core_0_L1I_prefetch_MPKI 0
Core_0_L1I_prefetch_miss_rate 0
Core_0_L1I_writeback_access 0
Core_0_L1I_writeback_hit 0
Core_0_L1I_writeback_miss 0
Core_0_L1I_writeback_MPKI 0
Core_0_L1I_writeback_miss_rate 0
Core_0_L1I_prefetch_requested 0
Core_0_L1I_prefetch_issued 0
Core_0_L1I_prefetch_useful 0
Core_0_L1I_prefetch_useless 0
Core_0_L1I_prefetch_late 0
Core_0_L1I_prefetch_fill 0
Core_0_L1I_prefetch_too_early 0
Core_0_L1I_prefetch_too_early_among_fill 0
Core_0_L1I_prefetch_too_early_among_useless 0
Core_0_L1I_prefetch_pollution_evict 0
Core_0_L1I_prefetch_pollution_demand 0
Core_0_L1I_prefetch_pollution_among_prefetch_fill 0
Core_0_L1I_prefetch_accuracy 0
Core_0_L1I_prefetch_coverage 0

Core_0_L1D_total_access 44858096
Core_0_L1D_total_hit 36894784
Core_0_L1D_total_miss 7963312
Core_0_L1D_total_MPKI 79.6331
Core_0_L1D_total_miss_rate 0.177522
Core_0_L1D_demand_access 31863365
Core_0_L1D_demand_hit 27096970
Core_0_L1D_demand_miss 4766395
Core_0_L1D_demand_MPKI 47.6639
Core_0_L1D_demand_miss_rate 0.149589
Core_0_L1D_load_access 31863365
Core_0_L1D_load_hit 27096970
Core_0_L1D_load_miss 4766395
Core_0_L1D_load_MPKI 47.6639
Core_0_L1D_load_miss_rate 0.149589
Core_0_L1D_rfo_access 0
Core_0_L1D_rfo_hit 0
Core_0_L1D_rfo_miss 0
Core_0_L1D_rfo_MPKI 0
Core_0_L1D_rfo_miss_rate 0
Core_0_L1D_prefetch_access 12823988
Core_0_L1D_prefetch_hit 9627080
Core_0_L1D_prefetch_miss 3196908
Core_0_L1D_prefetch_MPKI 31.9691
Core_0_L1D_prefetch_miss_rate 0.249291
Core_0_L1D_writeback_access 170743
Core_0_L1D_writeback_hit 170734
Core_0_L1D_writeback_miss 9
Core_0_L1D_writeback_MPKI 9e-05
Core_0_L1D_writeback_miss_rate 5.27108e-05
Core_0_L1D_prefetch_requested 29354031
Core_0_L1D_prefetch_issued 12823996
Core_0_L1D_prefetch_useful 724687
Core_0_L1D_prefetch_useless 116670
Core_0_L1D_prefetch_late 21226
Core_0_L1D_prefetch_fill 820140
Core_0_L1D_prefetch_too_early 1367
Core_0_L1D_prefetch_too_early_among_fill 0.00166679
Core_0_L1D_prefetch_too_early_among_useless 0.0117168
Core_0_L1D_prefetch_pollution_evict 29072
Core_0_L1D_prefetch_pollution_demand 29015
Core_0_L1D_prefetch_pollution_among_prefetch_fill 0.0354476
Core_0_L1D_prefetch_accuracy 0.0565102
Core_0_L1D_prefetch_coverage 0.131975

Core_0_L2C_total_access 8224946
Core_0_L2C_total_hit 2859972
Core_0_L2C_total_miss 5364974
Core_0_L2C_total_MPKI 53.6497
Core_0_L2C_total_miss_rate 0.652281
Core_0_L2C_demand_access 3746817
Core_0_L2C_demand_hit 497850
Core_0_L2C_demand_miss 3248967
Core_0_L2C_demand_MPKI 32.4897
Core_0_L2C_demand_miss_rate 0.867127
Core_0_L2C_load_access 3746814
Core_0_L2C_load_hit 497847
Core_0_L2C_load_miss 3248967
Core_0_L2C_load_MPKI 32.4897
Core_0_L2C_load_miss_rate 0.867128
Core_0_L2C_rfo_access 3
Core_0_L2C_rfo_hit 3
Core_0_L2C_rfo_miss 0
Core_0_L2C_rfo_MPKI 0
Core_0_L2C_rfo_miss_rate 0
Core_0_L2C_prefetch_access 4367844
Core_0_L2C_prefetch_hit 2252157
Core_0_L2C_prefetch_miss 2115687
Core_0_L2C_prefetch_MPKI 21.1569
Core_0_L2C_prefetch_miss_rate 0.484378
Core_0_L2C_writeback_access 110285
Core_0_L2C_writeback_hit 109965
Core_0_L2C_writeback_miss 320
Core_0_L2C_writeback_MPKI 0.0032
Core_0_L2C_writeback_miss_rate 0.00290157
Core_0_L2C_prefetch_requested 1365328
Core_0_L2C_prefetch_issued 1363941
Core_0_L2C_prefetch_useful 384698
Core_0_L2C_prefetch_useless 131406
Core_0_L2C_prefetch_late 10640
Core_0_L2C_prefetch_fill 1437862
Core_0_L2C_prefetch_too_early 1957
Core_0_L2C_prefetch_too_early_among_fill 0.00136105
Core_0_L2C_prefetch_too_early_among_useless 0.0148928
Core_0_L2C_prefetch_pollution_evict 34607
Core_0_L2C_prefetch_pollution_demand 34538
Core_0_L2C_prefetch_pollution_among_prefetch_fill 0.0240684
Core_0_L2C_prefetch_accuracy 0.282049
Core_0_L2C_prefetch_coverage 0.105871

Core_0_LLC_total_access 4837906
Core_0_LLC_total_hit 200033
Core_0_LLC_total_miss 4637873
Core_0_LLC_total_MPKI 46.3787
Core_0_LLC_total_miss_rate 0.958653
Core_0_LLC_demand_access 3221691
Core_0_LLC_demand_hit 146680
Core_0_LLC_demand_miss 3075011
Core_0_LLC_demand_MPKI 30.7501
Core_0_LLC_demand_miss_rate 0.954471
Core_0_LLC_load_access 3221691
Core_0_LLC_load_hit 146680
Core_0_LLC_load_miss 3075011
Core_0_LLC_load_MPKI 30.7501
Core_0_LLC_load_miss_rate 0.954471
Core_0_LLC_rfo_access 0
Core_0_LLC_rfo_hit 0
Core_0_LLC_rfo_miss 0
Core_0_LLC_rfo_MPKI 0
Core_0_LLC_rfo_miss_rate 0
Core_0_LLC_prefetch_access 1507808
Core_0_LLC_prefetch_hit 17551
Core_0_LLC_prefetch_miss 1490257
Core_0_LLC_prefetch_MPKI 14.9026
Core_0_LLC_prefetch_miss_rate 0.98836
Core_0_LLC_writeback_access 108407
Core_0_LLC_writeback_hit 35802
Core_0_LLC_writeback_miss 72605
Core_0_LLC_writeback_MPKI 0.72605
Core_0_LLC_writeback_miss_rate 0.669745
Core_0_LLC_prefetch_requested 0
Core_0_LLC_prefetch_issued 0
Core_0_LLC_prefetch_useful 0
Core_0_LLC_prefetch_useless 0
Core_0_LLC_prefetch_late 0
Core_0_LLC_prefetch_fill 1483494
Core_0_LLC_prefetch_too_early 0
Core_0_LLC_prefetch_too_early_among_fill 0
Core_0_LLC_prefetch_too_early_among_useless 0
Core_0_LLC_prefetch_pollution_evict 48566
Core_0_LLC_prefetch_pollution_demand 48566
Core_0_LLC_prefetch_pollution_among_prefetch_fill 0.0327376
Core_0_LLC_prefetch_accuracy 0
Core_0_LLC_prefetch_coverage 0

[DRAM Statistics]
Channel_0_RQ_row_buffer_hit 30309
Channel_0_RQ_row_buffer_miss 4608809
Channel_0_WQ_row_buffer_hit 25493
Channel_0_WQ_row_buffer_miss 74822
Channel_0_WQ_full 0
Channel_0_dbus_congested 7850579
DRAM_total_RQ_row_buffer_hit 30309
DRAM_total_RQ_row_buffer_miss 4608809
DRAM_total_WQ_row_buffer_hit 25493
DRAM_total_WQ_row_buffer_miss 74822
DRAM_total_WQ_full 0
DRAM_total_dbus_congested 7850579
DRAM_avg_congested_cycle 5.22186

====== DRAM_RQ_TRAFFIC ========
DRAM_RQ_READ_TRAFFIC_BREAKDOWN:
data_demand_read.count = 3072639
data_demand_read.share = 66.23%

inst_demand_read.count = 0
inst_demand_read.share = 0.00%

cache_inst_prefetch.count = 0
cache_inst_prefetch.share = 0.00%

cache_data_prefetch.count = 1485872
cache_data_prefetch.share = 32.03%

stlb_data_demand.count = 77493
stlb_data_demand.share = 1.67%

stlb_inst_demand.count = 0
stlb_inst_demand.share = 0.00%

stlb_l1i_pref.count = 0
stlb_l1i_pref.share = 0.00%

stlb_l1d_pref.count = 3127
stlb_l1d_pref.share = 0.07%

DRAM_RQ_READ_TRAFFIC_SUMMARY:
cache_demand.count = 3072639
cache_demand.share = 66.23%

cache_prefetch.count = 1485872
cache_prefetch.share = 32.03%

stlb_demand.count = 77493
stlb_demand.share = 1.67%

stlb_prefetch.count = 3127
stlb_prefetch.share = 0.07%

DRAM_RQ_READ_TRAFFIC_DEBUG:
total_classified_read.count = 4639131
unclassified_read.count = 0
total_read_with_other.count = 4639131

classified_plus_unclassified_check.count = 4639131
dram_rq_read_total_observed.count = 4639131
dram_rq_read_total_observed.per_1K_instructions = 46.3913

STLB_MISS_PTW_DRAM_TOUCH_BREAKDOWN:
stlb_miss_total.count = 2457668

stlb_miss_touch_dram.count = 81609
stlb_miss_touch_dram.share = 3.32%

stlb_miss_no_dram_touch.count = 2376059
stlb_miss_no_dram_touch.share = 96.68%

STLB_MISS_PTW_DRAM_TOUCH_DEBUG:
stlb_miss_touch_plus_no_touch.count = 2457668
stlb_miss_total_check.count = 2457668

======STLB miss causes ========
Core_0_STLB_miss_cause_breakdown
Core_0_STLB_cause_Demand_Data_miss 2389324
Core_0_STLB_cause_Demand_Data_miss_rate 0.854032
Core_0_STLB_cause_Demand_Instruction_miss 0
Core_0_STLB_cause_Demand_Instruction_miss_rate 0
Core_0_STLB_cause_L1D_Prefetch_miss 68344
Core_0_STLB_cause_L1D_Prefetch_miss_rate 0.0244287
Core_0_STLB_cause_L1D_Prefetch_Same_Page_miss 0
Core_0_STLB_cause_L1D_Prefetch_Same_Page_miss_rate 0
Core_0_STLB_cause_L1D_Prefetch_Cross_Page_miss 68344
Core_0_STLB_cause_L1D_Prefetch_Cross_Page_miss_rate 0.0244287
Core_0_STLB_cause_L1I_Prefetch_miss 0
Core_0_STLB_cause_L1I_Prefetch_miss_rate 0
Core_0_STLB_cause_Other_miss 0
Core_0_STLB_cause_Other_miss_rate 0
Core_0_STLB_Demand_miss 2389324
Core_0_STLB_Demand_miss_rate 0.854032
Core_0_STLB_L1D_Prefetch_miss 68344
Core_0_STLB_L1D_Prefetch_miss_rate 0.0244287
Core_0_STLB_Other_miss 0
Core_0_STLB_Other_miss_rate 0

========== vBerti-TLB Cross-page Flow Stats ==========

Core_0_vBerti_Requested 29354031
Core_0_vBerti_Cross_page_prefetch_in_Requested 2976815
Core_0_vBerti_Same_page_prefetch_in_Requested 26377216
Core_0_vBerti_Cross_page_prefetch_of_Requested 0.101411
Core_0_vBerti_Issued 12823996
Core_0_vBerti_InPQ_Same_page_prefetch 11988875
Core_0_vBerti_InPQ_Cross_page_prefetch 835121
Core_0_vBerti_PQ_Drop_Rate 0.563127
Core_0_vBerti_InPQ_Cross_page_prefetch_of_Requested 0.02845
Core_0_vBerti_Cross_page_PQ_Drop_rate 0.719458
Core_0_vBerti_Cross_page_prefetch_of_Issued 0.0651217
Core_0_CP_PF_PQFULL_drop 2141694
Core_0_CP_PF_PQFULL_TLB_rescue_enqueued 0
Core_0_CP_PF_PQFULL_TLB_rescue_issued 0
Core_0_CP_PF_PQFULL_TLB_rescue_translated 0

========= DTLB_vBerti Prefetch Stats =========
Core_0_DTLB_demand_access 30430656
Core_0_DTLB_demand_hit 27006022
Core_0_DTLB_demand_miss 3424634
Core_0_DTLB_demand_mshr_merge 702919
Core_0_DTLB_demand_fill 2723029
Core_0_DTLB_demand_miss_rate 0.112539
Core_0_DTLB_demand_mpki 34.2463
Core_0_DTLB_vberti_prefetch_access 9498368
Core_0_DTLB_vberti_prefetch_hit 9359074
Core_0_DTLB_vberti_prefetch_miss 139294
Core_0_DTLB_vberti_prefetch_mshr_merge 63312
Core_0_DTLB_vberti_prefetch_fill 74670
Core_0_DTLB_vberti_prefetch_miss_rate 0.014665
Core_0_DTLB_vberti_prefetch_mpki 1.39294

=== DTLB_vBerti Same/Cross-page Prefetch Stats ===
Core_0_DTLB_vberti_same_page_prefetch 8839278
Core_0_DTLB_vberti_same_page_prefetch_hit 8839167
Core_0_DTLB_vberti_same_page_prefetch_miss 111
Core_0_DTLB_vberti_same_page_prefetch_mshr_merge 15
Core_0_DTLB_vberti_same_page_prefetch_fill 95
Core_0_DTLB_vberti_same_page_prefetch_miss_rate 1.25576e-05
Core_0_DTLB_vberti_same_page_prefetch_mpki 0.00111
Core_0_DTLB_vberti_cross_page_prefetch 659090
Core_0_DTLB_vberti_cross_page_prefetch_hit 519907
Core_0_DTLB_vberti_cross_page_prefetch_miss 139183
Core_0_DTLB_vberti_cross_page_prefetch_mshr_merge 63297
Core_0_DTLB_vberti_cross_page_prefetch_fill 74575
Core_0_DTLB_vberti_cross_page_prefetch_miss_rate 0.211174
Core_0_DTLB_vberti_cross_page_prefetch_mpki 1.39183
Core_0_DTLB_same_page_prefetch_miss_rate 1.25576e-05
Core_0_DTLB_same_page_prefetch_mpki 0.00111
Core_0_DTLB_cross_page_prefetch_miss_rate 0.211174
Core_0_DTLB_cross_page_prefetch_mpki 1.39183
Core_0_DTLB_cross_page_prefetch_issued 659090
Core_0_DTLB_cross_page_prefetch_lookups 659090
Core_0_DTLB_cross_page_prefetch_useful 18943
Core_0_DTLB_cross_page_prefetch_useless 56943
Core_0_DTLB_cross_page_prefetch_late 1311
Core_0_DTLB_cross_page_prefetch_too_early 3636
Core_0_DTLB_cross_page_prefetch_too_early_among_fill 0.0487563
Core_0_DTLB_cross_page_prefetch_too_early_among_useless 0.0638533
Core_0_DTLB_cross_page_prefetch_pollution_evict 8338
Core_0_DTLB_cross_page_prefetch_pollution_demand 7592
Core_0_DTLB_cross_page_prefetch_pollution_among_prefetch_fill 0.111807
Core_0_DTLB_cross_page_prefetch_accuracy 0.0287411
Core_0_DTLB_cross_page_prefetch_coverage 0.00550097

========= STLB_vBerti Prefetch Stats =========
Core_0_STLB_demand_access 2721715
Core_0_STLB_demand_hit 332391
Core_0_STLB_demand_miss 2389324
Core_0_STLB_demand_mshr_merge 0
Core_0_STLB_demand_fill 2389326
Core_0_STLB_demand_miss_rate 0.877874
Core_0_STLB_demand_mpki 23.8932
Core_0_STLB_vberti_prefetch_access 75982
Core_0_STLB_vberti_prefetch_hit 7638
Core_0_STLB_vberti_prefetch_miss 68344
Core_0_STLB_vberti_prefetch_mshr_merge 0
Core_0_STLB_vberti_prefetch_fill 68344
Core_0_STLB_vberti_prefetch_miss_rate 0.899476
Core_0_STLB_vberti_prefetch_mpki 0.68344

=== STLB_vBerti Same/Cross-page Prefetch Stats ===
Core_0_STLB_vberti_same_page_prefetch 96
Core_0_STLB_vberti_same_page_prefetch_hit 96
Core_0_STLB_vberti_same_page_prefetch_miss 0
Core_0_STLB_vberti_same_page_prefetch_mshr_merge 0
Core_0_STLB_vberti_same_page_prefetch_fill 0
Core_0_STLB_vberti_same_page_prefetch_miss_rate 0
Core_0_STLB_vberti_same_page_prefetch_mpki 0
Core_0_STLB_vberti_cross_page_prefetch 75886
Core_0_STLB_vberti_cross_page_prefetch_hit 7542
Core_0_STLB_vberti_cross_page_prefetch_miss 68344
Core_0_STLB_vberti_cross_page_prefetch_mshr_merge 0
Core_0_STLB_vberti_cross_page_prefetch_fill 68344
Core_0_STLB_vberti_cross_page_prefetch_miss_rate 0.900614
Core_0_STLB_vberti_cross_page_prefetch_mpki 0.68344
Core_0_STLB_same_page_prefetch_miss_rate 0
Core_0_STLB_same_page_prefetch_mpki 0
Core_0_STLB_cross_page_prefetch_miss_rate 0.900614
Core_0_STLB_cross_page_prefetch_mpki 0.68344
Core_0_STLB_cross_page_prefetch_issued 75886
Core_0_STLB_cross_page_prefetch_lookups 75886
Core_0_STLB_cross_page_prefetch_useful 12990
Core_0_STLB_cross_page_prefetch_useless 55354
Core_0_STLB_cross_page_prefetch_late 0
Core_0_STLB_cross_page_prefetch_too_early 32562
Core_0_STLB_cross_page_prefetch_too_early_among_fill 0.476443
Core_0_STLB_cross_page_prefetch_too_early_among_useless 0.58825
Core_0_STLB_cross_page_prefetch_pollution_evict 43786
Core_0_STLB_cross_page_prefetch_pollution_demand 42790
Core_0_STLB_cross_page_prefetch_pollution_among_prefetch_fill 0.640671
Core_0_STLB_cross_page_prefetch_accuracy 0.171178
Core_0_STLB_cross_page_prefetch_coverage 0.00540729

========= STLB Cross-page Prefetch Buffer Stats =========
Core_0_STLB_raw_demand_miss 2389324
Core_0_CP_PB_insert 0
Core_0_CP_PB_demand_hit 0
Core_0_STLB_PB_demand_miss 2389324
Core_0_CP_PB_coverage 0
Core_0_STLB_raw_demand_mpki 23.8932
Core_0_STLB_PB_demand_mpki 23.8932
Core_0_CP_PB_demand_hit_mpki 0

Core_0_TLB_demand_miss_rate 0.078517
Core_0_TLB_demand_mpki 23.8932
Core_0_TLB_same_page_prefetch_miss_rate 0
Core_0_TLB_same_page_prefetch_mpki 0
Core_0_TLB_cross_page_prefetch_miss_rate 0.103694
Core_0_TLB_cross_page_prefetch_mpki 0.68344
Core_0_TLB_cross_page_prefetch_issued 659090
Core_0_TLB_cross_page_prefetch_lookups 659090
Core_0_TLB_cross_page_prefetch_useful 18716
Core_0_TLB_cross_page_prefetch_useless 55644
Core_0_TLB_cross_page_prefetch_late 1296
Core_0_TLB_cross_page_prefetch_too_early 3554
Core_0_TLB_cross_page_prefetch_too_early_among_fill 0.0248672
Core_0_TLB_cross_page_prefetch_too_early_among_useless 0.0638703
Core_0_TLB_cross_page_prefetch_accuracy 0.0283967
Core_0_TLB_cross_page_prefetch_coverage 0.0077723
BERTI TO_L1: 32858096 TO_L2: 13835437 TO_L2_BC_MSHR: 201499
BERTI AVG_LAT: 180.875 NUM_TRACK_LATENCY: 5853240 NUM_CANT_TRACK_LATENCY: 0
BERTI CROSS_PAGE 4497673 NO_CROSS_PAGE: 42195860
BERTI FOUND_BERTI: 40664932 NO_FOUND_BERTI: 27042482
BERTI AVERAGE_ISSUED: 2.8969
