[VMEM] WARNING: physical memory size is smaller than virtual memory size.

*** ChampSim Multicore Out-of-Order Simulator ***
Warmup Instructions: 50000000
Simulation Instructions: 100000000
Number of CPUs: 1
Page size: 4096
Core 0: /data2/zcq/champsim_traces_gap/cc.web-13B.champsimtrace.xz
VBerti Prefetcher
BERTI HASH ENTANGLING
BERTI IP MASK ffff
Off-chip DRAM Size: 16 GiB Channels: 1 Width: 64-bit Data Rate: 3205 MT/s
Warmup halting CPU 0 at instruction 50000005 cycle 15531335 for remainder of phase
Warmup finished CPU 0 instructions: 50000005 cycles: 15531335 cumulative IPC: 3.219 (Simulation time: 00 hr 03 min 15 sec)
Warmup complete CPU 0 instructions: 50000005 cycles: 15531335 cumulative IPC: 3.219 (Simulation time: 00 hr 03 min 15 sec)
Simulation finished CPU 0 instructions: 100000003 cycles: 94678787 cumulative IPC: 1.056 (Simulation time: 00 hr 15 min 59 sec)
Simulation complete CPU 0 instructions: 100000003 cycles: 94678787 cumulative IPC: 1.056 (Simulation time: 00 hr 15 min 59 sec)

ChampSim completed all CPUs

=== Simulation ===
CPU 0 runs /data2/zcq/champsim_traces_gap/cc.web-13B.champsimtrace.xz

Region of Interest Statistics

CPU 0 cumulative IPC: 1.056 instructions: 100000003 cycles: 94678787
CPU 0 Branch Prediction Accuracy: 98.46% MPKI: 3.23 Average ROB Occupancy at Mispredict: 65.54
Branch type MPKI
BRANCH_DIRECT_JUMP: 0.00024
BRANCH_INDIRECT: 0
BRANCH_CONDITIONAL: 3.229
BRANCH_DIRECT_CALL: 0.00014
BRANCH_INDIRECT_CALL: 1e-05
BRANCH_RETURN: 0.00015

cpu0->cpu0_STLB TOTAL        ACCESS:     147700 HIT:      35864 MISS:     111836 MSHR_MERGE:          0
cpu0->cpu0_STLB LOAD         ACCESS:     147700 HIT:      35864 MISS:     111836 MSHR_MERGE:          0
cpu0->cpu0_STLB RFO          ACCESS:          0 HIT:          0 MISS:          0 MSHR_MERGE:          0
cpu0->cpu0_STLB PREFETCH     ACCESS:          0 HIT:          0 MISS:          0 MSHR_MERGE:          0
cpu0->cpu0_STLB WRITE        ACCESS:          0 HIT:          0 MISS:          0 MSHR_MERGE:          0
cpu0->cpu0_STLB TRANSLATION  ACCESS:          0 HIT:          0 MISS:          0 MSHR_MERGE:          0
cpu0->cpu0_STLB PREFETCH REQUESTED:          0 ISSUED:          0 USEFUL:          0 USELESS:          0 LATE:          0 TOO_EARLY:          0
cpu0->cpu0_STLB AVERAGE MISS LATENCY: 255.5 cycles
cpu0->cpu0_L2C TOTAL        ACCESS:    6532089 HIT:    1663341 MISS:    4868748 MSHR_MERGE:    1729362
cpu0->cpu0_L2C LOAD         ACCESS:    1007791 HIT:     356887 MISS:     650904 MSHR_MERGE:     172757
cpu0->cpu0_L2C RFO          ACCESS:         14 HIT:          0 MISS:         14 MSHR_MERGE:          0
cpu0->cpu0_L2C PREFETCH     ACCESS:    5274764 HIT:    1084679 MISS:    4190085 MSHR_MERGE:    1556605
cpu0->cpu0_L2C WRITE        ACCESS:     215604 HIT:     215400 MISS:        204 MSHR_MERGE:          0
cpu0->cpu0_L2C TRANSLATION  ACCESS:      33916 HIT:       6375 MISS:      27541 MSHR_MERGE:          0
cpu0->cpu0_L2C PREFETCH REQUESTED:    1815056 ISSUED:    1807007 USEFUL:     308574 USELESS:     260331 LATE:      57576 TOO_EARLY:        104
cpu0->cpu0_L2C AVERAGE MISS LATENCY: 212.9 cycles
cpu0->cpu0_L1I TOTAL        ACCESS:   10512538 HIT:   10512425 MISS:        113 MSHR_MERGE:          9
cpu0->cpu0_L1I LOAD         ACCESS:   10512538 HIT:   10512425 MISS:        113 MSHR_MERGE:          9
cpu0->cpu0_L1I RFO          ACCESS:          0 HIT:          0 MISS:          0 MSHR_MERGE:          0
cpu0->cpu0_L1I PREFETCH     ACCESS:          0 HIT:          0 MISS:          0 MSHR_MERGE:          0
cpu0->cpu0_L1I WRITE        ACCESS:          0 HIT:          0 MISS:          0 MSHR_MERGE:          0
cpu0->cpu0_L1I TRANSLATION  ACCESS:          0 HIT:          0 MISS:          0 MSHR_MERGE:          0
cpu0->cpu0_L1I PREFETCH REQUESTED:          0 ISSUED:          0 USEFUL:          0 USELESS:          0 LATE:          0 TOO_EARLY:          0
cpu0->cpu0_L1I AVERAGE MISS LATENCY: 207.6 cycles
cpu0->cpu0_L1D TOTAL        ACCESS:   41229090 HIT:   36430347 MISS:    4798743 MSHR_MERGE:     222762
cpu0->cpu0_L1D LOAD         ACCESS:   20055064 HIT:   18854327 MISS:    1200737 MSHR_MERGE:     193050
cpu0->cpu0_L1D RFO          ACCESS:          0 HIT:          0 MISS:          0 MSHR_MERGE:          0
cpu0->cpu0_L1D PREFETCH     ACCESS:   18249923 HIT:   14690053 MISS:    3559870 MSHR_MERGE:      25506
cpu0->cpu0_L1D WRITE        ACCESS:    2697656 HIT:    2697627 MISS:         29 MSHR_MERGE:         15
cpu0->cpu0_L1D TRANSLATION  ACCESS:     226447 HIT:     188340 MISS:      38107 MSHR_MERGE:       4191
cpu0->cpu0_L1D PREFETCH REQUESTED:   85338748 ISSUED:   18249922 USEFUL:     887188 USELESS:     269465 LATE:     105529 TOO_EARLY:         25
cpu0->cpu0_L1D AVERAGE MISS LATENCY: 146.6 cycles
cpu0->cpu0_ITLB TOTAL        ACCESS:    9153561 HIT:    9153543 MISS:         18 MSHR_MERGE:          3
cpu0->cpu0_ITLB LOAD         ACCESS:    9153561 HIT:    9153543 MISS:         18 MSHR_MERGE:          3
cpu0->cpu0_ITLB RFO          ACCESS:          0 HIT:          0 MISS:          0 MSHR_MERGE:          0
cpu0->cpu0_ITLB PREFETCH     ACCESS:          0 HIT:          0 MISS:          0 MSHR_MERGE:          0
cpu0->cpu0_ITLB WRITE        ACCESS:          0 HIT:          0 MISS:          0 MSHR_MERGE:          0
cpu0->cpu0_ITLB TRANSLATION  ACCESS:          0 HIT:          0 MISS:          0 MSHR_MERGE:          0
cpu0->cpu0_ITLB PREFETCH REQUESTED:          0 ISSUED:          0 USEFUL:          0 USELESS:          0 LATE:          0 TOO_EARLY:          0
cpu0->cpu0_ITLB AVERAGE MISS LATENCY: 373.7 cycles
cpu0->cpu0_DTLB TOTAL        ACCESS:   33324500 HIT:   32721064 MISS:     603436 MSHR_MERGE:     455751
cpu0->cpu0_DTLB LOAD         ACCESS:   33324500 HIT:   32721064 MISS:     603436 MSHR_MERGE:     455751
cpu0->cpu0_DTLB RFO          ACCESS:          0 HIT:          0 MISS:          0 MSHR_MERGE:          0
cpu0->cpu0_DTLB PREFETCH     ACCESS:          0 HIT:          0 MISS:          0 MSHR_MERGE:          0
cpu0->cpu0_DTLB WRITE        ACCESS:          0 HIT:          0 MISS:          0 MSHR_MERGE:          0
cpu0->cpu0_DTLB TRANSLATION  ACCESS:          0 HIT:          0 MISS:          0 MSHR_MERGE:          0
cpu0->cpu0_DTLB PREFETCH REQUESTED:          0 ISSUED:          0 USEFUL:          0 USELESS:          0 LATE:          0 TOO_EARLY:          0
cpu0->cpu0_DTLB AVERAGE MISS LATENCY: 199.2 cycles
cpu0->LLC TOTAL        ACCESS:    3347885 HIT:     175063 MISS:    3172822 MSHR_MERGE:     136647
cpu0->LLC LOAD         ACCESS:     478147 HIT:      18641 MISS:     459506 MSHR_MERGE:       9511
cpu0->LLC RFO          ACCESS:         14 HIT:          0 MISS:         14 MSHR_MERGE:          0
cpu0->LLC PREFETCH     ACCESS:    2633470 HIT:      50569 MISS:    2582901 MSHR_MERGE:     127136
cpu0->LLC WRITE        ACCESS:     208713 HIT:     102772 MISS:     105941 MSHR_MERGE:          0
cpu0->LLC TRANSLATION  ACCESS:      27541 HIT:       3081 MISS:      24460 MSHR_MERGE:          0
cpu0->LLC PREFETCH REQUESTED:          0 ISSUED:          0 USEFUL:          0 USELESS:          0 LATE:          0 TOO_EARLY:          0
cpu0->LLC AVERAGE MISS LATENCY: 188.8 cycles

DRAM Statistics

Channel 0 RQ ROW_BUFFER_HIT:     512239
  ROW_BUFFER_MISS:    2417982
  AVG DBUS CONGESTED CYCLE: 5.989
Channel 0 WQ ROW_BUFFER_HIT:      31881
  ROW_BUFFER_MISS:     171455
  FULL:          0
Channel 0 REFRESHES ISSUED:       7890

[ROI Statistics]
[System Configuration]
num_cpus 1
cpu_freq 4000
fetch_width 6
decode_width 6
dispatch_width 6
execute_width 6
lq_width 2
sq_width 2
retire_width 6
scheduler_size 128
branch_mispredict_penalty 15
rob_size 352
lq_size 128
sq_size 72
ifetch_buffer_size 64
decode_buffer_size 32
dispatch_buffer_size 32
register_file_size 288
decode_latency 1
dispatch_latency 1
schedule_latency 1
execute_latency 1
page_size 4096
block_size 64
core_0_itlb_set 16
core_0_itlb_way 4
core_0_itlb_rq_size 16
core_0_itlb_wq_size 16
core_0_itlb_pq_size 0
core_0_itlb_mshr_size 8
core_0_itlb_hit_latency 1
core_0_itlb_fill_latency 1
core_0_itlb_max_tag_check 2
core_0_itlb_max_fill 2
core_0_dtlb_set 16
core_0_dtlb_way 4
core_0_dtlb_rq_size 16
core_0_dtlb_wq_size 16
core_0_dtlb_pq_size 0
core_0_dtlb_mshr_size 8
core_0_dtlb_hit_latency 1
core_0_dtlb_fill_latency 1
core_0_dtlb_max_tag_check 2
core_0_dtlb_max_fill 2
core_0_stlb_set 128
core_0_stlb_way 12
core_0_stlb_rq_size 32
core_0_stlb_wq_size 32
core_0_stlb_pq_size 0
core_0_stlb_mshr_size 16
core_0_stlb_hit_latency 4
core_0_stlb_fill_latency 4
core_0_stlb_max_tag_check 1
core_0_stlb_max_fill 1
core_0_l1i_set 64
core_0_l1i_way 8
core_0_l1i_rq_size 64
core_0_l1i_wq_size 64
core_0_l1i_pq_size 32
core_0_l1i_mshr_size 8
core_0_l1i_hit_latency 2
core_0_l1i_fill_latency 2
core_0_l1i_max_tag_check 2
core_0_l1i_max_fill 2
core_0_l1d_set 64
core_0_l1d_way 12
core_0_l1d_rq_size 64
core_0_l1d_wq_size 64
core_0_l1d_pq_size 8
core_0_l1d_mshr_size 16
core_0_l1d_hit_latency 2
core_0_l1d_fill_latency 3
core_0_l1d_max_tag_check 2
core_0_l1d_max_fill 2
core_0_l2c_set 1024
core_0_l2c_way 8
core_0_l2c_rq_size 32
core_0_l2c_wq_size 32
core_0_l2c_pq_size 16
core_0_l2c_mshr_size 32
core_0_l2c_hit_latency 5
core_0_l2c_fill_latency 5
core_0_l2c_max_tag_check 1
core_0_l2c_max_fill 1
llc_set 2048
llc_way 16
llc_rq_size 32
llc_wq_size 32
llc_pq_size 32
llc_mshr_size 64
llc_hit_latency 10
llc_fill_latency 10
llc_max_tag_check 1
llc_max_fill 1
dram_channels 1
dram_ranks 1
dram_bankgroups 8
dram_banks 4
dram_rows 65536
dram_columns 1024
dram_channel_width 8
dram_rq_size 64
dram_wq_size 64
dram_size 17179869184
core_0_itlb_prefetcher no
core_0_dtlb_prefetcher no
core_0_stlb_prefetcher no
core_0_l1i_prefetcher next_line
core_0_l1d_prefetcher vberti
core_0_l2c_prefetcher ip_stride
llc_prefetcher no
llc_replacement drrip

Core_0_instructions 100000003
Core_0_cycles 94678787
Core_0_IPC 1.0562
Core_0_branch_prediction_accuracy 98.4581
Core_0_branch_MPKI 3.23001
Core_0_average_ROB_occupancy_at_mispredict 65.5352

Core_0_ITLB_total_access 9153561
Core_0_ITLB_total_hit 9153543
Core_0_ITLB_total_miss 18
Core_0_ITLB_total_MPKI 0.00018
Core_0_ITLB_total_miss_rate 1.96645e-06
Core_0_ITLB_demand_access 9153561
Core_0_ITLB_demand_hit 9153543
Core_0_ITLB_demand_miss 18
Core_0_ITLB_demand_MPKI 0.00018
Core_0_ITLB_demand_miss_rate 1.96645e-06
Core_0_ITLB_load_access 9153561
Core_0_ITLB_load_hit 9153543
Core_0_ITLB_load_miss 18
Core_0_ITLB_load_MPKI 0.00018
Core_0_ITLB_load_miss_rate 1.96645e-06
Core_0_ITLB_rfo_access 0
Core_0_ITLB_rfo_hit 0
Core_0_ITLB_rfo_miss 0
Core_0_ITLB_rfo_MPKI 0
Core_0_ITLB_rfo_miss_rate 0
Core_0_ITLB_prefetch_access 0
Core_0_ITLB_prefetch_hit 0
Core_0_ITLB_prefetch_miss 0
Core_0_ITLB_prefetch_MPKI 0
Core_0_ITLB_prefetch_miss_rate 0
Core_0_ITLB_writeback_access 0
Core_0_ITLB_writeback_hit 0
Core_0_ITLB_writeback_miss 0
Core_0_ITLB_writeback_MPKI 0
Core_0_ITLB_writeback_miss_rate 0
Core_0_ITLB_prefetch_requested 0
Core_0_ITLB_prefetch_issued 0
Core_0_ITLB_prefetch_useful 0
Core_0_ITLB_prefetch_useless 0
Core_0_ITLB_prefetch_late 0
Core_0_ITLB_prefetch_fill 0
Core_0_ITLB_prefetch_too_early 0
Core_0_ITLB_prefetch_too_early_among_fill 0
Core_0_ITLB_prefetch_too_early_among_useless 0
Core_0_ITLB_prefetch_pollution_evict 0
Core_0_ITLB_prefetch_pollution_demand 0
Core_0_ITLB_prefetch_pollution_among_prefetch_fill 0
Core_0_ITLB_prefetch_accuracy 0
Core_0_ITLB_prefetch_coverage 0

Core_0_DTLB_total_access 33324500
Core_0_DTLB_total_hit 32721064
Core_0_DTLB_total_miss 603436
Core_0_DTLB_total_MPKI 6.03436
Core_0_DTLB_total_miss_rate 0.0181079
Core_0_DTLB_demand_access 33324500
Core_0_DTLB_demand_hit 32721064
Core_0_DTLB_demand_miss 603436
Core_0_DTLB_demand_MPKI 6.03436
Core_0_DTLB_demand_miss_rate 0.0181079
Core_0_DTLB_load_access 33324500
Core_0_DTLB_load_hit 32721064
Core_0_DTLB_load_miss 603436
Core_0_DTLB_load_MPKI 6.03436
Core_0_DTLB_load_miss_rate 0.0181079
Core_0_DTLB_rfo_access 0
Core_0_DTLB_rfo_hit 0
Core_0_DTLB_rfo_miss 0
Core_0_DTLB_rfo_MPKI 0
Core_0_DTLB_rfo_miss_rate 0
Core_0_DTLB_prefetch_access 0
Core_0_DTLB_prefetch_hit 0
Core_0_DTLB_prefetch_miss 0
Core_0_DTLB_prefetch_MPKI 0
Core_0_DTLB_prefetch_miss_rate 0
Core_0_DTLB_writeback_access 0
Core_0_DTLB_writeback_hit 0
Core_0_DTLB_writeback_miss 0
Core_0_DTLB_writeback_MPKI 0
Core_0_DTLB_writeback_miss_rate 0
Core_0_DTLB_prefetch_requested 0
Core_0_DTLB_prefetch_issued 0
Core_0_DTLB_prefetch_useful 0
Core_0_DTLB_prefetch_useless 0
Core_0_DTLB_prefetch_late 0
Core_0_DTLB_prefetch_fill 0
Core_0_DTLB_prefetch_too_early 0
Core_0_DTLB_prefetch_too_early_among_fill 0
Core_0_DTLB_prefetch_too_early_among_useless 0
Core_0_DTLB_prefetch_pollution_evict 0
Core_0_DTLB_prefetch_pollution_demand 0
Core_0_DTLB_prefetch_pollution_among_prefetch_fill 0
Core_0_DTLB_prefetch_accuracy 0
Core_0_DTLB_prefetch_coverage 0

Core_0_STLB_total_access 147700
Core_0_STLB_total_hit 35864
Core_0_STLB_total_miss 111836
Core_0_STLB_total_MPKI 1.11836
Core_0_STLB_total_miss_rate 0.757183
Core_0_STLB_demand_access 147700
Core_0_STLB_demand_hit 35864
Core_0_STLB_demand_miss 111836
Core_0_STLB_demand_MPKI 1.11836
Core_0_STLB_demand_miss_rate 0.757183
Core_0_STLB_load_access 147700
Core_0_STLB_load_hit 35864
Core_0_STLB_load_miss 111836
Core_0_STLB_load_MPKI 1.11836
Core_0_STLB_load_miss_rate 0.757183
Core_0_STLB_rfo_access 0
Core_0_STLB_rfo_hit 0
Core_0_STLB_rfo_miss 0
Core_0_STLB_rfo_MPKI 0
Core_0_STLB_rfo_miss_rate 0
Core_0_STLB_prefetch_access 0
Core_0_STLB_prefetch_hit 0
Core_0_STLB_prefetch_miss 0
Core_0_STLB_prefetch_MPKI 0
Core_0_STLB_prefetch_miss_rate 0
Core_0_STLB_writeback_access 0
Core_0_STLB_writeback_hit 0
Core_0_STLB_writeback_miss 0
Core_0_STLB_writeback_MPKI 0
Core_0_STLB_writeback_miss_rate 0
Core_0_STLB_prefetch_requested 0
Core_0_STLB_prefetch_issued 0
Core_0_STLB_prefetch_useful 0
Core_0_STLB_prefetch_useless 0
Core_0_STLB_prefetch_late 0
Core_0_STLB_prefetch_fill 0
Core_0_STLB_prefetch_too_early 0
Core_0_STLB_prefetch_too_early_among_fill 0
Core_0_STLB_prefetch_too_early_among_useless 0
Core_0_STLB_prefetch_pollution_evict 0
Core_0_STLB_prefetch_pollution_demand 0
Core_0_STLB_prefetch_pollution_among_prefetch_fill 0
Core_0_STLB_prefetch_accuracy 0
Core_0_STLB_prefetch_coverage 0

Core_0_L1I_total_access 10512538
Core_0_L1I_total_hit 10512425
Core_0_L1I_total_miss 113
Core_0_L1I_total_MPKI 0.00113
Core_0_L1I_total_miss_rate 1.07491e-05
Core_0_L1I_demand_access 10512538
Core_0_L1I_demand_hit 10512425
Core_0_L1I_demand_miss 113
Core_0_L1I_demand_MPKI 0.00113
Core_0_L1I_demand_miss_rate 1.07491e-05
Core_0_L1I_load_access 10512538
Core_0_L1I_load_hit 10512425
Core_0_L1I_load_miss 113
Core_0_L1I_load_MPKI 0.00113
Core_0_L1I_load_miss_rate 1.07491e-05
Core_0_L1I_rfo_access 0
Core_0_L1I_rfo_hit 0
Core_0_L1I_rfo_miss 0
Core_0_L1I_rfo_MPKI 0
Core_0_L1I_rfo_miss_rate 0
Core_0_L1I_prefetch_access 0
Core_0_L1I_prefetch_hit 0
Core_0_L1I_prefetch_miss 0
Core_0_L1I_prefetch_MPKI 0
Core_0_L1I_prefetch_miss_rate 0
Core_0_L1I_writeback_access 0
Core_0_L1I_writeback_hit 0
Core_0_L1I_writeback_miss 0
Core_0_L1I_writeback_MPKI 0
Core_0_L1I_writeback_miss_rate 0
Core_0_L1I_prefetch_requested 0
Core_0_L1I_prefetch_issued 0
Core_0_L1I_prefetch_useful 0
Core_0_L1I_prefetch_useless 0
Core_0_L1I_prefetch_late 0
Core_0_L1I_prefetch_fill 0
Core_0_L1I_prefetch_too_early 0
Core_0_L1I_prefetch_too_early_among_fill 0
Core_0_L1I_prefetch_too_early_among_useless 0
Core_0_L1I_prefetch_pollution_evict 0
Core_0_L1I_prefetch_pollution_demand 0
Core_0_L1I_prefetch_pollution_among_prefetch_fill 0
Core_0_L1I_prefetch_accuracy 0
Core_0_L1I_prefetch_coverage 0

Core_0_L1D_total_access 41002643
Core_0_L1D_total_hit 36242007
Core_0_L1D_total_miss 4760636
Core_0_L1D_total_MPKI 47.6064
Core_0_L1D_total_miss_rate 0.116106
Core_0_L1D_demand_access 20055064
Core_0_L1D_demand_hit 18854327
Core_0_L1D_demand_miss 1200737
Core_0_L1D_demand_MPKI 12.0074
Core_0_L1D_demand_miss_rate 0.059872
Core_0_L1D_load_access 20055064
Core_0_L1D_load_hit 18854327
Core_0_L1D_load_miss 1200737
Core_0_L1D_load_MPKI 12.0074
Core_0_L1D_load_miss_rate 0.059872
Core_0_L1D_rfo_access 0
Core_0_L1D_rfo_hit 0
Core_0_L1D_rfo_miss 0
Core_0_L1D_rfo_MPKI 0
Core_0_L1D_rfo_miss_rate 0
Core_0_L1D_prefetch_access 18249923
Core_0_L1D_prefetch_hit 14690053
Core_0_L1D_prefetch_miss 3559870
Core_0_L1D_prefetch_MPKI 35.5987
Core_0_L1D_prefetch_miss_rate 0.195062
Core_0_L1D_writeback_access 2697656
Core_0_L1D_writeback_hit 2697627
Core_0_L1D_writeback_miss 29
Core_0_L1D_writeback_MPKI 0.00029
Core_0_L1D_writeback_miss_rate 1.07501e-05
Core_0_L1D_prefetch_requested 85338748
Core_0_L1D_prefetch_issued 18249922
Core_0_L1D_prefetch_useful 887188
Core_0_L1D_prefetch_useless 269465
Core_0_L1D_prefetch_late 105529
Core_0_L1D_prefetch_fill 1051032
Core_0_L1D_prefetch_too_early 25
Core_0_L1D_prefetch_too_early_among_fill 2.37861e-05
Core_0_L1D_prefetch_too_early_among_useless 9.27764e-05
Core_0_L1D_prefetch_pollution_evict 18800
Core_0_L1D_prefetch_pollution_demand 18795
Core_0_L1D_prefetch_pollution_among_prefetch_fill 0.0178872
Core_0_L1D_prefetch_accuracy 0.0486132
Core_0_L1D_prefetch_coverage 0.424914

Core_0_L2C_total_access 6498173
Core_0_L2C_total_hit 1656966
Core_0_L2C_total_miss 4841207
Core_0_L2C_total_MPKI 48.4121
Core_0_L2C_total_miss_rate 0.74501
Core_0_L2C_demand_access 1007805
Core_0_L2C_demand_hit 356887
Core_0_L2C_demand_miss 650918
Core_0_L2C_demand_MPKI 6.50918
Core_0_L2C_demand_miss_rate 0.645877
Core_0_L2C_load_access 1007791
Core_0_L2C_load_hit 356887
Core_0_L2C_load_miss 650904
Core_0_L2C_load_MPKI 6.50904
Core_0_L2C_load_miss_rate 0.645872
Core_0_L2C_rfo_access 14
Core_0_L2C_rfo_hit 0
Core_0_L2C_rfo_miss 14
Core_0_L2C_rfo_MPKI 0.00014
Core_0_L2C_rfo_miss_rate 1
Core_0_L2C_prefetch_access 5274764
Core_0_L2C_prefetch_hit 1084679
Core_0_L2C_prefetch_miss 4190085
Core_0_L2C_prefetch_MPKI 41.9008
Core_0_L2C_prefetch_miss_rate 0.794364
Core_0_L2C_writeback_access 215604
Core_0_L2C_writeback_hit 215400
Core_0_L2C_writeback_miss 204
Core_0_L2C_writeback_MPKI 0.00204
Core_0_L2C_writeback_miss_rate 0.000946179
Core_0_L2C_prefetch_requested 1815056
Core_0_L2C_prefetch_issued 1807007
Core_0_L2C_prefetch_useful 308574
Core_0_L2C_prefetch_useless 260331
Core_0_L2C_prefetch_late 57576
Core_0_L2C_prefetch_fill 2228802
Core_0_L2C_prefetch_too_early 104
Core_0_L2C_prefetch_too_early_among_fill 4.66618e-05
Core_0_L2C_prefetch_too_early_among_useless 0.000399491
Core_0_L2C_prefetch_pollution_evict 7157
Core_0_L2C_prefetch_pollution_demand 7133
Core_0_L2C_prefetch_pollution_among_prefetch_fill 0.00321114
Core_0_L2C_prefetch_accuracy 0.170765
Core_0_L2C_prefetch_coverage 0.321601

Core_0_LLC_total_access 3320344
Core_0_LLC_total_hit 171982
Core_0_LLC_total_miss 3148362
Core_0_LLC_total_MPKI 31.4836
Core_0_LLC_total_miss_rate 0.948204
Core_0_LLC_demand_access 478161
Core_0_LLC_demand_hit 18641
Core_0_LLC_demand_miss 459520
Core_0_LLC_demand_MPKI 4.5952
Core_0_LLC_demand_miss_rate 0.961015
Core_0_LLC_load_access 478147
Core_0_LLC_load_hit 18641
Core_0_LLC_load_miss 459506
Core_0_LLC_load_MPKI 4.59506
Core_0_LLC_load_miss_rate 0.961014
Core_0_LLC_rfo_access 14
Core_0_LLC_rfo_hit 0
Core_0_LLC_rfo_miss 14
Core_0_LLC_rfo_MPKI 0.00014
Core_0_LLC_rfo_miss_rate 1
Core_0_LLC_prefetch_access 2633470
Core_0_LLC_prefetch_hit 50569
Core_0_LLC_prefetch_miss 2582901
Core_0_LLC_prefetch_MPKI 25.829
Core_0_LLC_prefetch_miss_rate 0.980798
Core_0_LLC_writeback_access 208713
Core_0_LLC_writeback_hit 102772
Core_0_LLC_writeback_miss 105941
Core_0_LLC_writeback_MPKI 1.05941
Core_0_LLC_writeback_miss_rate 0.507592
Core_0_LLC_prefetch_requested 0
Core_0_LLC_prefetch_issued 0
Core_0_LLC_prefetch_useful 0
Core_0_LLC_prefetch_useless 0
Core_0_LLC_prefetch_late 0
Core_0_LLC_prefetch_fill 2446253
Core_0_LLC_prefetch_too_early 0
Core_0_LLC_prefetch_too_early_among_fill 0
Core_0_LLC_prefetch_too_early_among_useless 0
Core_0_LLC_prefetch_pollution_evict 6965
Core_0_LLC_prefetch_pollution_demand 6965
Core_0_LLC_prefetch_pollution_among_prefetch_fill 0.00284721
Core_0_LLC_prefetch_accuracy 0
Core_0_LLC_prefetch_coverage 0

[DRAM Statistics]
Channel_0_RQ_row_buffer_hit 512239
Channel_0_RQ_row_buffer_miss 2417982
Channel_0_WQ_row_buffer_hit 31881
Channel_0_WQ_row_buffer_miss 171455
Channel_0_WQ_full 0
Channel_0_dbus_congested 7780767
DRAM_total_RQ_row_buffer_hit 512239
DRAM_total_RQ_row_buffer_miss 2417982
DRAM_total_WQ_row_buffer_hit 31881
DRAM_total_WQ_row_buffer_miss 171455
DRAM_total_WQ_full 0
DRAM_total_dbus_congested 7780767
DRAM_avg_congested_cycle 5.98944

====== DRAM_RQ_TRAFFIC ========
DRAM_RQ_READ_TRAFFIC_BREAKDOWN:
data_demand_read.count = 449905
data_demand_read.share = 15.35%

inst_demand_read.count = 104
inst_demand_read.share = 0.00%

cache_inst_prefetch.count = 0
cache_inst_prefetch.share = 0.00%

cache_data_prefetch.count = 2455765
cache_data_prefetch.share = 83.81%

stlb_data_demand.count = 14722
stlb_data_demand.share = 0.50%

stlb_inst_demand.count = 9
stlb_inst_demand.share = 0.00%

stlb_l1i_pref.count = 0
stlb_l1i_pref.share = 0.00%

stlb_l1d_pref.count = 9729
stlb_l1d_pref.share = 0.33%

DRAM_RQ_READ_TRAFFIC_SUMMARY:
cache_demand.count = 450009
cache_demand.share = 15.36%

cache_prefetch.count = 2455765
cache_prefetch.share = 83.81%

stlb_demand.count = 14731
stlb_demand.share = 0.50%

stlb_prefetch.count = 9729
stlb_prefetch.share = 0.33%

DRAM_RQ_READ_TRAFFIC_DEBUG:
total_classified_read.count = 2930234
unclassified_read.count = 0
total_read_with_other.count = 2930234

classified_plus_unclassified_check.count = 2930234
dram_rq_read_total_observed.count = 2930234
dram_rq_read_total_observed.per_1K_instructions = 29.3023

STLB_MISS_PTW_DRAM_TOUCH_BREAKDOWN:
stlb_miss_total.count = 111836

stlb_miss_touch_dram.count = 24327
stlb_miss_touch_dram.share = 21.75%

stlb_miss_no_dram_touch.count = 87509
stlb_miss_no_dram_touch.share = 78.25%

STLB_MISS_PTW_DRAM_TOUCH_DEBUG:
stlb_miss_touch_plus_no_touch.count = 111836
stlb_miss_total_check.count = 111836

======STLB miss causes ========
Core_0_STLB_miss_cause_breakdown
Core_0_STLB_cause_Demand_Data_miss 35258
Core_0_STLB_cause_Demand_Data_miss_rate 0.238714
Core_0_STLB_cause_Demand_Instruction_miss 15
Core_0_STLB_cause_Demand_Instruction_miss_rate 0.000101557
Core_0_STLB_cause_L1D_Prefetch_miss 76563
Core_0_STLB_cause_L1D_Prefetch_miss_rate 0.518368
Core_0_STLB_cause_L1D_Prefetch_Same_Page_miss 0
Core_0_STLB_cause_L1D_Prefetch_Same_Page_miss_rate 0
Core_0_STLB_cause_L1D_Prefetch_Cross_Page_miss 76563
Core_0_STLB_cause_L1D_Prefetch_Cross_Page_miss_rate 0.518368
Core_0_STLB_cause_L1I_Prefetch_miss 0
Core_0_STLB_cause_L1I_Prefetch_miss_rate 0
Core_0_STLB_cause_Other_miss 0
Core_0_STLB_cause_Other_miss_rate 0
Core_0_STLB_Demand_miss 35273
Core_0_STLB_Demand_miss_rate 0.238815
Core_0_STLB_L1D_Prefetch_miss 76563
Core_0_STLB_L1D_Prefetch_miss_rate 0.518368
Core_0_STLB_Other_miss 0
Core_0_STLB_Other_miss_rate 0

========== vBerti-TLB Cross-page Flow Stats ==========

Core_0_vBerti_Requested 85338748
Core_0_vBerti_Cross_page_prefetch_in_Requested 12535631
Core_0_vBerti_Same_page_prefetch_in_Requested 72803117
Core_0_vBerti_Cross_page_prefetch_of_Requested 0.146893
Core_0_vBerti_Issued 18249922
Core_0_vBerti_InPQ_Same_page_prefetch 16350368
Core_0_vBerti_InPQ_Cross_page_prefetch 1899554
Core_0_vBerti_PQ_Drop_Rate 0.786147
Core_0_vBerti_InPQ_Cross_page_prefetch_of_Requested 0.022259
Core_0_vBerti_Cross_page_PQ_Drop_rate 0.848468
Core_0_vBerti_Cross_page_prefetch_of_Issued 0.104086
Core_0_CP_PF_PQFULL_drop 10636077
Core_0_CP_PF_PQFULL_TLB_rescue_enqueued 0
Core_0_CP_PF_PQFULL_TLB_rescue_issued 0
Core_0_CP_PF_PQFULL_TLB_rescue_translated 0

========= DTLB_vBerti Prefetch Stats =========
Core_0_DTLB_demand_access 21328432
Core_0_DTLB_demand_hit 21172509
Core_0_DTLB_demand_miss 155923
Core_0_DTLB_demand_mshr_merge 85165
Core_0_DTLB_demand_fill 82475
Core_0_DTLB_demand_miss_rate 0.00731057
Core_0_DTLB_demand_mpki 1.55923
Core_0_DTLB_vberti_prefetch_access 11996068
Core_0_DTLB_vberti_prefetch_hit 11548555
Core_0_DTLB_vberti_prefetch_miss 447513
Core_0_DTLB_vberti_prefetch_mshr_merge 370586
Core_0_DTLB_vberti_prefetch_fill 65210
Core_0_DTLB_vberti_prefetch_miss_rate 0.037305
Core_0_DTLB_vberti_prefetch_mpki 4.47513

=== DTLB_vBerti Same/Cross-page Prefetch Stats ===
Core_0_DTLB_vberti_same_page_prefetch 10514923
Core_0_DTLB_vberti_same_page_prefetch_hit 10514923
Core_0_DTLB_vberti_same_page_prefetch_miss 0
Core_0_DTLB_vberti_same_page_prefetch_mshr_merge 0
Core_0_DTLB_vberti_same_page_prefetch_fill 0
Core_0_DTLB_vberti_same_page_prefetch_miss_rate 0
Core_0_DTLB_vberti_same_page_prefetch_mpki 0
Core_0_DTLB_vberti_cross_page_prefetch 1481145
Core_0_DTLB_vberti_cross_page_prefetch_hit 1033632
Core_0_DTLB_vberti_cross_page_prefetch_miss 447513
Core_0_DTLB_vberti_cross_page_prefetch_mshr_merge 370586
Core_0_DTLB_vberti_cross_page_prefetch_fill 65210
Core_0_DTLB_vberti_cross_page_prefetch_miss_rate 0.30214
Core_0_DTLB_vberti_cross_page_prefetch_mpki 4.47513
Core_0_DTLB_same_page_prefetch_miss_rate 0
Core_0_DTLB_same_page_prefetch_mpki 0
Core_0_DTLB_cross_page_prefetch_miss_rate 0.30214
Core_0_DTLB_cross_page_prefetch_mpki 4.47513
Core_0_DTLB_cross_page_prefetch_issued 1481145
Core_0_DTLB_cross_page_prefetch_lookups 1481145
Core_0_DTLB_cross_page_prefetch_useful 76817
Core_0_DTLB_cross_page_prefetch_useless 110
Core_0_DTLB_cross_page_prefetch_late 11717
Core_0_DTLB_cross_page_prefetch_too_early 33
Core_0_DTLB_cross_page_prefetch_too_early_among_fill 0.000506057
Core_0_DTLB_cross_page_prefetch_too_early_among_useless 0.3
Core_0_DTLB_cross_page_prefetch_pollution_evict 6010
Core_0_DTLB_cross_page_prefetch_pollution_demand 5818
Core_0_DTLB_cross_page_prefetch_pollution_among_prefetch_fill 0.0921638
Core_0_DTLB_cross_page_prefetch_accuracy 0.0518633
Core_0_DTLB_cross_page_prefetch_coverage 0.330055

========= STLB_vBerti Prefetch Stats =========
Core_0_STLB_demand_access 70773
Core_0_STLB_demand_hit 35500
Core_0_STLB_demand_miss 35273
Core_0_STLB_demand_mshr_merge 0
Core_0_STLB_demand_fill 35273
Core_0_STLB_demand_miss_rate 0.498396
Core_0_STLB_demand_mpki 0.35273
Core_0_STLB_vberti_prefetch_access 76927
Core_0_STLB_vberti_prefetch_hit 364
Core_0_STLB_vberti_prefetch_miss 76563
Core_0_STLB_vberti_prefetch_mshr_merge 0
Core_0_STLB_vberti_prefetch_fill 76563
Core_0_STLB_vberti_prefetch_miss_rate 0.995268
Core_0_STLB_vberti_prefetch_mpki 0.76563

=== STLB_vBerti Same/Cross-page Prefetch Stats ===
Core_0_STLB_vberti_same_page_prefetch 0
Core_0_STLB_vberti_same_page_prefetch_hit 0
Core_0_STLB_vberti_same_page_prefetch_miss 0
Core_0_STLB_vberti_same_page_prefetch_mshr_merge 0
Core_0_STLB_vberti_same_page_prefetch_fill 0
Core_0_STLB_vberti_same_page_prefetch_miss_rate 0
Core_0_STLB_vberti_same_page_prefetch_mpki 0
Core_0_STLB_vberti_cross_page_prefetch 76927
Core_0_STLB_vberti_cross_page_prefetch_hit 364
Core_0_STLB_vberti_cross_page_prefetch_miss 76563
Core_0_STLB_vberti_cross_page_prefetch_mshr_merge 0
Core_0_STLB_vberti_cross_page_prefetch_fill 76563
Core_0_STLB_vberti_cross_page_prefetch_miss_rate 0.995268
Core_0_STLB_vberti_cross_page_prefetch_mpki 0.76563
Core_0_STLB_same_page_prefetch_miss_rate 0
Core_0_STLB_same_page_prefetch_mpki 0
Core_0_STLB_cross_page_prefetch_miss_rate 0.995268
Core_0_STLB_cross_page_prefetch_mpki 0.76563
Core_0_STLB_cross_page_prefetch_issued 76927
Core_0_STLB_cross_page_prefetch_lookups 76927
Core_0_STLB_cross_page_prefetch_useful 752
Core_0_STLB_cross_page_prefetch_useless 75811
Core_0_STLB_cross_page_prefetch_late 0
Core_0_STLB_cross_page_prefetch_too_early 74
Core_0_STLB_cross_page_prefetch_too_early_among_fill 0.000966524
Core_0_STLB_cross_page_prefetch_too_early_among_useless 0.000976112
Core_0_STLB_cross_page_prefetch_pollution_evict 2283
Core_0_STLB_cross_page_prefetch_pollution_demand 2196
Core_0_STLB_cross_page_prefetch_pollution_among_prefetch_fill 0.0298186
Core_0_STLB_cross_page_prefetch_accuracy 0.0097755
Core_0_STLB_cross_page_prefetch_coverage 0.0208744

========= STLB Cross-page Prefetch Buffer Stats =========
Core_0_STLB_raw_demand_miss 35258
Core_0_CP_PB_insert 0
Core_0_CP_PB_demand_hit 0
Core_0_STLB_PB_demand_miss 35258
Core_0_CP_PB_coverage 0
Core_0_STLB_raw_demand_mpki 0.35258
Core_0_STLB_PB_demand_mpki 0.35258
Core_0_CP_PB_demand_hit_mpki 0

Core_0_TLB_demand_miss_rate 0.0016538
Core_0_TLB_demand_mpki 0.35273
Core_0_TLB_same_page_prefetch_miss_rate 0
Core_0_TLB_same_page_prefetch_mpki 0
Core_0_TLB_cross_page_prefetch_miss_rate 0.0516918
Core_0_TLB_cross_page_prefetch_mpki 0.76563
Core_0_TLB_cross_page_prefetch_issued 1481145
Core_0_TLB_cross_page_prefetch_lookups 1481145
Core_0_TLB_cross_page_prefetch_useful 76813
Core_0_TLB_cross_page_prefetch_useless 89
Core_0_TLB_cross_page_prefetch_late 11717
Core_0_TLB_cross_page_prefetch_too_early 27
Core_0_TLB_cross_page_prefetch_too_early_among_fill 0.000190445
Core_0_TLB_cross_page_prefetch_too_early_among_useless 0.303371
Core_0_TLB_cross_page_prefetch_accuracy 0.0518606
Core_0_TLB_cross_page_prefetch_coverage 0.685304
BERTI TO_L1: 92164175 TO_L2: 22601426 TO_L2_BC_MSHR: 3833591
BERTI AVG_LAT: 129.082 NUM_TRACK_LATENCY: 3488115 NUM_CANT_TRACK_LATENCY: 0
BERTI CROSS_PAGE 17601293 NO_CROSS_PAGE: 97164308
BERTI FOUND_BERTI: 20186187 NO_FOUND_BERTI: 11175286
BERTI AVERAGE_ISSUED: 3.04785
