[VMEM] WARNING: physical memory size is smaller than virtual memory size.

*** ChampSim Multicore Out-of-Order Simulator ***
Warmup Instructions: 50000000
Simulation Instructions: 100000000
Number of CPUs: 1
Page size: 4096
Core 0: /data0/tzh/champsim_traces/QMM/compute_int_2_new.xz
VBerti Prefetcher
BERTI HASH ENTANGLING
BERTI IP MASK ffff
Off-chip DRAM Size: 16 GiB Channels: 1 Width: 64-bit Data Rate: 3205 MT/s
*** Reached end of trace: (0, "/data0/tzh/champsim_traces/QMM/compute_int_2_new.xz")
Warmup halting CPU 0 at instruction 50000003 cycle 12293028 for remainder of phase
Warmup finished CPU 0 instructions: 50000003 cycles: 12293028 cumulative IPC: 4.067 (Simulation time: 00 hr 03 min 44 sec)
Warmup complete CPU 0 instructions: 50000003 cycles: 12293028 cumulative IPC: 4.067 (Simulation time: 00 hr 03 min 44 sec)
*** Reached end of trace: (0, "/data0/tzh/champsim_traces/QMM/compute_int_2_new.xz")
*** Reached end of trace: (0, "/data0/tzh/champsim_traces/QMM/compute_int_2_new.xz")
*** Reached end of trace: (0, "/data0/tzh/champsim_traces/QMM/compute_int_2_new.xz")
Simulation finished CPU 0 instructions: 100000001 cycles: 709327540 cumulative IPC: 0.141 (Simulation time: 01 hr 02 min 21 sec)
Simulation complete CPU 0 instructions: 100000001 cycles: 709327540 cumulative IPC: 0.141 (Simulation time: 01 hr 02 min 21 sec)

ChampSim completed all CPUs

=== Simulation ===
CPU 0 runs /data0/tzh/champsim_traces/QMM/compute_int_2_new.xz

Region of Interest Statistics

CPU 0 cumulative IPC: 0.141 instructions: 100000001 cycles: 709327540
CPU 0 Branch Prediction Accuracy: 94.27% MPKI: 11.89 Average ROB Occupancy at Mispredict: 62.94
Branch type MPKI
BRANCH_DIRECT_JUMP: 0
BRANCH_INDIRECT: 0
BRANCH_CONDITIONAL: 11.89
BRANCH_DIRECT_CALL: 0
BRANCH_INDIRECT_CALL: 0
BRANCH_RETURN: 0.00012

cpu0->cpu0_STLB TOTAL        ACCESS:    7421686 HIT:    6476718 MISS:     944968 MSHR_MERGE:          0
cpu0->cpu0_STLB LOAD         ACCESS:    7421686 HIT:    6476718 MISS:     944968 MSHR_MERGE:          0
cpu0->cpu0_STLB RFO          ACCESS:          0 HIT:          0 MISS:          0 MSHR_MERGE:          0
cpu0->cpu0_STLB PREFETCH     ACCESS:          0 HIT:          0 MISS:          0 MSHR_MERGE:          0
cpu0->cpu0_STLB WRITE        ACCESS:          0 HIT:          0 MISS:          0 MSHR_MERGE:          0
cpu0->cpu0_STLB TRANSLATION  ACCESS:          0 HIT:          0 MISS:          0 MSHR_MERGE:          0
cpu0->cpu0_STLB PREFETCH REQUESTED:          0 ISSUED:          0 USEFUL:          0 USELESS:          0 LATE:          0 TOO_EARLY:          0
cpu0->cpu0_STLB AVERAGE MISS LATENCY: 138.2 cycles
cpu0->cpu0_L2C TOTAL        ACCESS:   13478361 HIT:    5467856 MISS:    8010505 MSHR_MERGE:       1147
cpu0->cpu0_L2C LOAD         ACCESS:   10023430 HIT:    2715692 MISS:    7307738 MSHR_MERGE:         39
cpu0->cpu0_L2C RFO          ACCESS:     176576 HIT:      50862 MISS:     125714 MSHR_MERGE:          0
cpu0->cpu0_L2C PREFETCH     ACCESS:     138286 HIT:     124014 MISS:      14272 MSHR_MERGE:       1108
cpu0->cpu0_L2C WRITE        ACCESS:    2254896 HIT:    2254764 MISS:        132 MSHR_MERGE:          0
cpu0->cpu0_L2C TRANSLATION  ACCESS:     885173 HIT:     322524 MISS:     562649 MSHR_MERGE:          0
cpu0->cpu0_L2C PREFETCH REQUESTED:       9526 ISSUED:       9526 USEFUL:       1042 USELESS:       1602 LATE:         32 TOO_EARLY:        294
cpu0->cpu0_L2C AVERAGE MISS LATENCY: 189.6 cycles
cpu0->cpu0_L1I TOTAL        ACCESS:    3132226 HIT:    3132094 MISS:        132 MSHR_MERGE:         46
cpu0->cpu0_L1I LOAD         ACCESS:    3132226 HIT:    3132094 MISS:        132 MSHR_MERGE:         46
cpu0->cpu0_L1I RFO          ACCESS:          0 HIT:          0 MISS:          0 MSHR_MERGE:          0
cpu0->cpu0_L1I PREFETCH     ACCESS:          0 HIT:          0 MISS:          0 MSHR_MERGE:          0
cpu0->cpu0_L1I WRITE        ACCESS:          0 HIT:          0 MISS:          0 MSHR_MERGE:          0
cpu0->cpu0_L1I TRANSLATION  ACCESS:          0 HIT:          0 MISS:          0 MSHR_MERGE:          0
cpu0->cpu0_L1I PREFETCH REQUESTED:          0 ISSUED:          0 USEFUL:          0 USELESS:          0 LATE:          0 TOO_EARLY:          0
cpu0->cpu0_L1I AVERAGE MISS LATENCY: 233.9 cycles
cpu0->cpu0_L1D TOTAL        ACCESS:   26963978 HIT:   12822716 MISS:   14141262 MSHR_MERGE:    2925804
cpu0->cpu0_L1D LOAD         ACCESS:   18986264 HIT:    6057360 MISS:   12928904 MSHR_MERGE:    2905527
cpu0->cpu0_L1D RFO          ACCESS:          0 HIT:          0 MISS:          0 MSHR_MERGE:          0
cpu0->cpu0_L1D PREFETCH     ACCESS:    1948129 HIT:    1816472 MISS:     131657 MSHR_MERGE:       1326
cpu0->cpu0_L1D WRITE        ACCESS:    3765450 HIT:    3577237 MISS:     188213 MSHR_MERGE:      11636
cpu0->cpu0_L1D TRANSLATION  ACCESS:    2264135 HIT:    1371647 MISS:     892488 MSHR_MERGE:       7315
cpu0->cpu0_L1D PREFETCH REQUESTED:    2076539 ISSUED:    1948129 USEFUL:      15893 USELESS:      11009 LATE:        363 TOO_EARLY:        677
cpu0->cpu0_L1D AVERAGE MISS LATENCY: 145.6 cycles
cpu0->cpu0_ITLB TOTAL        ACCESS:    2556921 HIT:    2556688 MISS:        233 MSHR_MERGE:        173
cpu0->cpu0_ITLB LOAD         ACCESS:    2556921 HIT:    2556688 MISS:        233 MSHR_MERGE:        173
cpu0->cpu0_ITLB RFO          ACCESS:          0 HIT:          0 MISS:          0 MSHR_MERGE:          0
cpu0->cpu0_ITLB PREFETCH     ACCESS:          0 HIT:          0 MISS:          0 MSHR_MERGE:          0
cpu0->cpu0_ITLB WRITE        ACCESS:          0 HIT:          0 MISS:          0 MSHR_MERGE:          0
cpu0->cpu0_ITLB TRANSLATION  ACCESS:          0 HIT:          0 MISS:          0 MSHR_MERGE:          0
cpu0->cpu0_ITLB PREFETCH REQUESTED:          0 ISSUED:          0 USEFUL:          0 USELESS:          0 LATE:          0 TOO_EARLY:          0
cpu0->cpu0_ITLB AVERAGE MISS LATENCY: 280.9 cycles
cpu0->cpu0_DTLB TOTAL        ACCESS:   23545191 HIT:   12773564 MISS:   10771627 MSHR_MERGE:    3350002
cpu0->cpu0_DTLB LOAD         ACCESS:   23545191 HIT:   12773564 MISS:   10771627 MSHR_MERGE:    3350002
cpu0->cpu0_DTLB RFO          ACCESS:          0 HIT:          0 MISS:          0 MSHR_MERGE:          0
cpu0->cpu0_DTLB PREFETCH     ACCESS:          0 HIT:          0 MISS:          0 MSHR_MERGE:          0
cpu0->cpu0_DTLB WRITE        ACCESS:          0 HIT:          0 MISS:          0 MSHR_MERGE:          0
cpu0->cpu0_DTLB TRANSLATION  ACCESS:          0 HIT:          0 MISS:          0 MSHR_MERGE:          0
cpu0->cpu0_DTLB PREFETCH REQUESTED:          0 ISSUED:          0 USEFUL:          0 USELESS:          0 LATE:          0 TOO_EARLY:          0
cpu0->cpu0_DTLB AVERAGE MISS LATENCY: 22.72 cycles
cpu0->LLC TOTAL        ACCESS:    9771790 HIT:    2653287 MISS:    7118503 MSHR_MERGE:          1
cpu0->LLC LOAD         ACCESS:    7307701 HIT:    1611794 MISS:    5695907 MSHR_MERGE:          0
cpu0->LLC RFO          ACCESS:     125714 HIT:      40100 MISS:      85614 MSHR_MERGE:          0
cpu0->LLC PREFETCH     ACCESS:      13164 HIT:       2734 MISS:      10430 MSHR_MERGE:          1
cpu0->LLC WRITE        ACCESS:    1762562 HIT:     869074 MISS:     893488 MSHR_MERGE:          0
cpu0->LLC TRANSLATION  ACCESS:     562649 HIT:     129585 MISS:     433064 MSHR_MERGE:          0
cpu0->LLC PREFETCH REQUESTED:          0 ISSUED:          0 USEFUL:          0 USELESS:          0 LATE:          0 TOO_EARLY:          0
cpu0->LLC AVERAGE MISS LATENCY: 196.7 cycles

DRAM Statistics

Channel 0 RQ ROW_BUFFER_HIT:      10027
  ROW_BUFFER_MISS:    6213568
  AVG DBUS CONGESTED CYCLE: 9.546
Channel 0 WQ ROW_BUFFER_HIT:     387297
  ROW_BUFFER_MISS:     938962
  FULL:          0
Channel 0 REFRESHES ISSUED:      59111

[ROI Statistics]
[System Configuration]
num_cpus 1
cpu_freq 4000
fetch_width 6
decode_width 6
dispatch_width 6
execute_width 6
lq_width 2
sq_width 2
retire_width 6
scheduler_size 128
branch_mispredict_penalty 15
rob_size 352
lq_size 128
sq_size 72
ifetch_buffer_size 64
decode_buffer_size 32
dispatch_buffer_size 32
register_file_size 288
decode_latency 1
dispatch_latency 1
schedule_latency 1
execute_latency 1
page_size 4096
block_size 64
core_0_itlb_set 16
core_0_itlb_way 4
core_0_itlb_rq_size 16
core_0_itlb_wq_size 16
core_0_itlb_pq_size 0
core_0_itlb_mshr_size 8
core_0_itlb_hit_latency 1
core_0_itlb_fill_latency 1
core_0_itlb_max_tag_check 2
core_0_itlb_max_fill 2
core_0_dtlb_set 16
core_0_dtlb_way 4
core_0_dtlb_rq_size 16
core_0_dtlb_wq_size 16
core_0_dtlb_pq_size 0
core_0_dtlb_mshr_size 8
core_0_dtlb_hit_latency 1
core_0_dtlb_fill_latency 1
core_0_dtlb_max_tag_check 2
core_0_dtlb_max_fill 2
core_0_stlb_set 128
core_0_stlb_way 12
core_0_stlb_rq_size 32
core_0_stlb_wq_size 32
core_0_stlb_pq_size 0
core_0_stlb_mshr_size 16
core_0_stlb_hit_latency 4
core_0_stlb_fill_latency 4
core_0_stlb_max_tag_check 1
core_0_stlb_max_fill 1
core_0_l1i_set 64
core_0_l1i_way 8
core_0_l1i_rq_size 64
core_0_l1i_wq_size 64
core_0_l1i_pq_size 32
core_0_l1i_mshr_size 8
core_0_l1i_hit_latency 2
core_0_l1i_fill_latency 2
core_0_l1i_max_tag_check 2
core_0_l1i_max_fill 2
core_0_l1d_set 64
core_0_l1d_way 12
core_0_l1d_rq_size 64
core_0_l1d_wq_size 64
core_0_l1d_pq_size 8
core_0_l1d_mshr_size 16
core_0_l1d_hit_latency 2
core_0_l1d_fill_latency 3
core_0_l1d_max_tag_check 2
core_0_l1d_max_fill 2
core_0_l2c_set 1024
core_0_l2c_way 8
core_0_l2c_rq_size 32
core_0_l2c_wq_size 32
core_0_l2c_pq_size 16
core_0_l2c_mshr_size 32
core_0_l2c_hit_latency 5
core_0_l2c_fill_latency 5
core_0_l2c_max_tag_check 1
core_0_l2c_max_fill 1
llc_set 2048
llc_way 16
llc_rq_size 32
llc_wq_size 32
llc_pq_size 32
llc_mshr_size 64
llc_hit_latency 10
llc_fill_latency 10
llc_max_tag_check 1
llc_max_fill 1
dram_channels 1
dram_ranks 1
dram_bankgroups 8
dram_banks 4
dram_rows 65536
dram_columns 1024
dram_channel_width 8
dram_rq_size 64
dram_wq_size 64
dram_size 17179869184
core_0_itlb_prefetcher no
core_0_dtlb_prefetcher no
core_0_stlb_prefetcher no
core_0_l1i_prefetcher next_line
core_0_l1d_prefetcher vberti
core_0_l2c_prefetcher ip_stride
llc_prefetcher no
llc_replacement drrip

Core_0_instructions 100000001
Core_0_cycles 709327540
Core_0_IPC 0.140979
Core_0_branch_prediction_accuracy 94.2694
Core_0_branch_MPKI 11.891
Core_0_average_ROB_occupancy_at_mispredict 62.9425

Core_0_ITLB_total_access 2556921
Core_0_ITLB_total_hit 2556688
Core_0_ITLB_total_miss 233
Core_0_ITLB_total_MPKI 0.00233
Core_0_ITLB_total_miss_rate 9.11252e-05
Core_0_ITLB_demand_access 2556921
Core_0_ITLB_demand_hit 2556688
Core_0_ITLB_demand_miss 233
Core_0_ITLB_demand_MPKI 0.00233
Core_0_ITLB_demand_miss_rate 9.11252e-05
Core_0_ITLB_load_access 2556921
Core_0_ITLB_load_hit 2556688
Core_0_ITLB_load_miss 233
Core_0_ITLB_load_MPKI 0.00233
Core_0_ITLB_load_miss_rate 9.11252e-05
Core_0_ITLB_rfo_access 0
Core_0_ITLB_rfo_hit 0
Core_0_ITLB_rfo_miss 0
Core_0_ITLB_rfo_MPKI 0
Core_0_ITLB_rfo_miss_rate 0
Core_0_ITLB_prefetch_access 0
Core_0_ITLB_prefetch_hit 0
Core_0_ITLB_prefetch_miss 0
Core_0_ITLB_prefetch_MPKI 0
Core_0_ITLB_prefetch_miss_rate 0
Core_0_ITLB_writeback_access 0
Core_0_ITLB_writeback_hit 0
Core_0_ITLB_writeback_miss 0
Core_0_ITLB_writeback_MPKI 0
Core_0_ITLB_writeback_miss_rate 0
Core_0_ITLB_prefetch_requested 0
Core_0_ITLB_prefetch_issued 0
Core_0_ITLB_prefetch_useful 0
Core_0_ITLB_prefetch_useless 0
Core_0_ITLB_prefetch_late 0
Core_0_ITLB_prefetch_fill 0
Core_0_ITLB_prefetch_too_early 0
Core_0_ITLB_prefetch_too_early_among_fill 0
Core_0_ITLB_prefetch_too_early_among_useless 0
Core_0_ITLB_prefetch_pollution_evict 0
Core_0_ITLB_prefetch_pollution_demand 0
Core_0_ITLB_prefetch_pollution_among_prefetch_fill 0
Core_0_ITLB_prefetch_accuracy 0
Core_0_ITLB_prefetch_coverage 0

Core_0_DTLB_total_access 23545191
Core_0_DTLB_total_hit 12773564
Core_0_DTLB_total_miss 10771627
Core_0_DTLB_total_MPKI 107.716
Core_0_DTLB_total_miss_rate 0.457487
Core_0_DTLB_demand_access 23545191
Core_0_DTLB_demand_hit 12773564
Core_0_DTLB_demand_miss 10771627
Core_0_DTLB_demand_MPKI 107.716
Core_0_DTLB_demand_miss_rate 0.457487
Core_0_DTLB_load_access 23545191
Core_0_DTLB_load_hit 12773564
Core_0_DTLB_load_miss 10771627
Core_0_DTLB_load_MPKI 107.716
Core_0_DTLB_load_miss_rate 0.457487
Core_0_DTLB_rfo_access 0
Core_0_DTLB_rfo_hit 0
Core_0_DTLB_rfo_miss 0
Core_0_DTLB_rfo_MPKI 0
Core_0_DTLB_rfo_miss_rate 0
Core_0_DTLB_prefetch_access 0
Core_0_DTLB_prefetch_hit 0
Core_0_DTLB_prefetch_miss 0
Core_0_DTLB_prefetch_MPKI 0
Core_0_DTLB_prefetch_miss_rate 0
Core_0_DTLB_writeback_access 0
Core_0_DTLB_writeback_hit 0
Core_0_DTLB_writeback_miss 0
Core_0_DTLB_writeback_MPKI 0
Core_0_DTLB_writeback_miss_rate 0
Core_0_DTLB_prefetch_requested 0
Core_0_DTLB_prefetch_issued 0
Core_0_DTLB_prefetch_useful 0
Core_0_DTLB_prefetch_useless 0
Core_0_DTLB_prefetch_late 0
Core_0_DTLB_prefetch_fill 0
Core_0_DTLB_prefetch_too_early 0
Core_0_DTLB_prefetch_too_early_among_fill 0
Core_0_DTLB_prefetch_too_early_among_useless 0
Core_0_DTLB_prefetch_pollution_evict 0
Core_0_DTLB_prefetch_pollution_demand 0
Core_0_DTLB_prefetch_pollution_among_prefetch_fill 0
Core_0_DTLB_prefetch_accuracy 0
Core_0_DTLB_prefetch_coverage 0

Core_0_STLB_total_access 7421686
Core_0_STLB_total_hit 6476718
Core_0_STLB_total_miss 944968
Core_0_STLB_total_MPKI 9.44968
Core_0_STLB_total_miss_rate 0.127325
Core_0_STLB_demand_access 7421686
Core_0_STLB_demand_hit 6476718
Core_0_STLB_demand_miss 944968
Core_0_STLB_demand_MPKI 9.44968
Core_0_STLB_demand_miss_rate 0.127325
Core_0_STLB_load_access 7421686
Core_0_STLB_load_hit 6476718
Core_0_STLB_load_miss 944968
Core_0_STLB_load_MPKI 9.44968
Core_0_STLB_load_miss_rate 0.127325
Core_0_STLB_rfo_access 0
Core_0_STLB_rfo_hit 0
Core_0_STLB_rfo_miss 0
Core_0_STLB_rfo_MPKI 0
Core_0_STLB_rfo_miss_rate 0
Core_0_STLB_prefetch_access 0
Core_0_STLB_prefetch_hit 0
Core_0_STLB_prefetch_miss 0
Core_0_STLB_prefetch_MPKI 0
Core_0_STLB_prefetch_miss_rate 0
Core_0_STLB_writeback_access 0
Core_0_STLB_writeback_hit 0
Core_0_STLB_writeback_miss 0
Core_0_STLB_writeback_MPKI 0
Core_0_STLB_writeback_miss_rate 0
Core_0_STLB_prefetch_requested 0
Core_0_STLB_prefetch_issued 0
Core_0_STLB_prefetch_useful 0
Core_0_STLB_prefetch_useless 0
Core_0_STLB_prefetch_late 0
Core_0_STLB_prefetch_fill 0
Core_0_STLB_prefetch_too_early 0
Core_0_STLB_prefetch_too_early_among_fill 0
Core_0_STLB_prefetch_too_early_among_useless 0
Core_0_STLB_prefetch_pollution_evict 0
Core_0_STLB_prefetch_pollution_demand 0
Core_0_STLB_prefetch_pollution_among_prefetch_fill 0
Core_0_STLB_prefetch_accuracy 0
Core_0_STLB_prefetch_coverage 0

Core_0_L1I_total_access 3132226
Core_0_L1I_total_hit 3132094
Core_0_L1I_total_miss 132
Core_0_L1I_total_MPKI 0.00132
Core_0_L1I_total_miss_rate 4.21426e-05
Core_0_L1I_demand_access 3132226
Core_0_L1I_demand_hit 3132094
Core_0_L1I_demand_miss 132
Core_0_L1I_demand_MPKI 0.00132
Core_0_L1I_demand_miss_rate 4.21426e-05
Core_0_L1I_load_access 3132226
Core_0_L1I_load_hit 3132094
Core_0_L1I_load_miss 132
Core_0_L1I_load_MPKI 0.00132
Core_0_L1I_load_miss_rate 4.21426e-05
Core_0_L1I_rfo_access 0
Core_0_L1I_rfo_hit 0
Core_0_L1I_rfo_miss 0
Core_0_L1I_rfo_MPKI 0
Core_0_L1I_rfo_miss_rate 0
Core_0_L1I_prefetch_access 0
Core_0_L1I_prefetch_hit 0
Core_0_L1I_prefetch_miss 0
Core_0_L1I_prefetch_MPKI 0
Core_0_L1I_prefetch_miss_rate 0
Core_0_L1I_writeback_access 0
Core_0_L1I_writeback_hit 0
Core_0_L1I_writeback_miss 0
Core_0_L1I_writeback_MPKI 0
Core_0_L1I_writeback_miss_rate 0
Core_0_L1I_prefetch_requested 0
Core_0_L1I_prefetch_issued 0
Core_0_L1I_prefetch_useful 0
Core_0_L1I_prefetch_useless 0
Core_0_L1I_prefetch_late 0
Core_0_L1I_prefetch_fill 0
Core_0_L1I_prefetch_too_early 0
Core_0_L1I_prefetch_too_early_among_fill 0
Core_0_L1I_prefetch_too_early_among_useless 0
Core_0_L1I_prefetch_pollution_evict 0
Core_0_L1I_prefetch_pollution_demand 0
Core_0_L1I_prefetch_pollution_among_prefetch_fill 0
Core_0_L1I_prefetch_accuracy 0
Core_0_L1I_prefetch_coverage 0

Core_0_L1D_total_access 24699843
Core_0_L1D_total_hit 11451069
Core_0_L1D_total_miss 13248774
Core_0_L1D_total_MPKI 132.488
Core_0_L1D_total_miss_rate 0.536391
Core_0_L1D_demand_access 18986264
Core_0_L1D_demand_hit 6057360
Core_0_L1D_demand_miss 12928904
Core_0_L1D_demand_MPKI 129.289
Core_0_L1D_demand_miss_rate 0.680961
Core_0_L1D_load_access 18986264
Core_0_L1D_load_hit 6057360
Core_0_L1D_load_miss 12928904
Core_0_L1D_load_MPKI 129.289
Core_0_L1D_load_miss_rate 0.680961
Core_0_L1D_rfo_access 0
Core_0_L1D_rfo_hit 0
Core_0_L1D_rfo_miss 0
Core_0_L1D_rfo_MPKI 0
Core_0_L1D_rfo_miss_rate 0
Core_0_L1D_prefetch_access 1948129
Core_0_L1D_prefetch_hit 1816472
Core_0_L1D_prefetch_miss 131657
Core_0_L1D_prefetch_MPKI 1.31657
Core_0_L1D_prefetch_miss_rate 0.0675813
Core_0_L1D_writeback_access 3765450
Core_0_L1D_writeback_hit 3577237
Core_0_L1D_writeback_miss 188213
Core_0_L1D_writeback_MPKI 1.88213
Core_0_L1D_writeback_miss_rate 0.0499842
Core_0_L1D_prefetch_requested 2076539
Core_0_L1D_prefetch_issued 1948129
Core_0_L1D_prefetch_useful 15893
Core_0_L1D_prefetch_useless 11009
Core_0_L1D_prefetch_late 363
Core_0_L1D_prefetch_fill 26543
Core_0_L1D_prefetch_too_early 677
Core_0_L1D_prefetch_too_early_among_fill 0.0255058
Core_0_L1D_prefetch_too_early_among_useless 0.0614951
Core_0_L1D_prefetch_pollution_evict 21099
Core_0_L1D_prefetch_pollution_demand 21094
Core_0_L1D_prefetch_pollution_among_prefetch_fill 0.794899
Core_0_L1D_prefetch_accuracy 0.00815808
Core_0_L1D_prefetch_coverage 0.00122775

Core_0_L2C_total_access 12593188
Core_0_L2C_total_hit 5145332
Core_0_L2C_total_miss 7447856
Core_0_L2C_total_MPKI 74.4786
Core_0_L2C_total_miss_rate 0.591419
Core_0_L2C_demand_access 10200006
Core_0_L2C_demand_hit 2766554
Core_0_L2C_demand_miss 7433452
Core_0_L2C_demand_MPKI 74.3345
Core_0_L2C_demand_miss_rate 0.728769
Core_0_L2C_load_access 10023430
Core_0_L2C_load_hit 2715692
Core_0_L2C_load_miss 7307738
Core_0_L2C_load_MPKI 73.0774
Core_0_L2C_load_miss_rate 0.729066
Core_0_L2C_rfo_access 176576
Core_0_L2C_rfo_hit 50862
Core_0_L2C_rfo_miss 125714
Core_0_L2C_rfo_MPKI 1.25714
Core_0_L2C_rfo_miss_rate 0.711954
Core_0_L2C_prefetch_access 138286
Core_0_L2C_prefetch_hit 124014
Core_0_L2C_prefetch_miss 14272
Core_0_L2C_prefetch_MPKI 0.14272
Core_0_L2C_prefetch_miss_rate 0.103206
Core_0_L2C_writeback_access 2254896
Core_0_L2C_writeback_hit 2254764
Core_0_L2C_writeback_miss 132
Core_0_L2C_writeback_MPKI 0.00132
Core_0_L2C_writeback_miss_rate 5.85393e-05
Core_0_L2C_prefetch_requested 9526
Core_0_L2C_prefetch_issued 9526
Core_0_L2C_prefetch_useful 1042
Core_0_L2C_prefetch_useless 1602
Core_0_L2C_prefetch_late 32
Core_0_L2C_prefetch_fill 13106
Core_0_L2C_prefetch_too_early 294
Core_0_L2C_prefetch_too_early_among_fill 0.0224325
Core_0_L2C_prefetch_too_early_among_useless 0.183521
Core_0_L2C_prefetch_pollution_evict 11034
Core_0_L2C_prefetch_pollution_demand 11034
Core_0_L2C_prefetch_pollution_among_prefetch_fill 0.841904
Core_0_L2C_prefetch_accuracy 0.109385
Core_0_L2C_prefetch_coverage 0.000140157

Core_0_LLC_total_access 9209141
Core_0_LLC_total_hit 2523702
Core_0_LLC_total_miss 6685439
Core_0_LLC_total_MPKI 66.8544
Core_0_LLC_total_miss_rate 0.725957
Core_0_LLC_demand_access 7433415
Core_0_LLC_demand_hit 1651894
Core_0_LLC_demand_miss 5781521
Core_0_LLC_demand_MPKI 57.8152
Core_0_LLC_demand_miss_rate 0.777775
Core_0_LLC_load_access 7307701
Core_0_LLC_load_hit 1611794
Core_0_LLC_load_miss 5695907
Core_0_LLC_load_MPKI 56.9591
Core_0_LLC_load_miss_rate 0.779439
Core_0_LLC_rfo_access 125714
Core_0_LLC_rfo_hit 40100
Core_0_LLC_rfo_miss 85614
Core_0_LLC_rfo_MPKI 0.85614
Core_0_LLC_rfo_miss_rate 0.681022
Core_0_LLC_prefetch_access 13164
Core_0_LLC_prefetch_hit 2734
Core_0_LLC_prefetch_miss 10430
Core_0_LLC_prefetch_MPKI 0.1043
Core_0_LLC_prefetch_miss_rate 0.792312
Core_0_LLC_writeback_access 1762562
Core_0_LLC_writeback_hit 869074
Core_0_LLC_writeback_miss 893488
Core_0_LLC_writeback_MPKI 8.93488
Core_0_LLC_writeback_miss_rate 0.506926
Core_0_LLC_prefetch_requested 0
Core_0_LLC_prefetch_issued 0
Core_0_LLC_prefetch_useful 0
Core_0_LLC_prefetch_useless 0
Core_0_LLC_prefetch_late 0
Core_0_LLC_prefetch_fill 10429
Core_0_LLC_prefetch_too_early 0
Core_0_LLC_prefetch_too_early_among_fill 0
Core_0_LLC_prefetch_too_early_among_useless 0
Core_0_LLC_prefetch_pollution_evict 7800
Core_0_LLC_prefetch_pollution_demand 7800
Core_0_LLC_prefetch_pollution_among_prefetch_fill 0.747914
Core_0_LLC_prefetch_accuracy 0
Core_0_LLC_prefetch_coverage 0

[DRAM Statistics]
Channel_0_RQ_row_buffer_hit 10027
Channel_0_RQ_row_buffer_miss 6213568
Channel_0_WQ_row_buffer_hit 387297
Channel_0_WQ_row_buffer_miss 938962
Channel_0_WQ_full 0
Channel_0_dbus_congested 18673013
DRAM_total_RQ_row_buffer_hit 10027
DRAM_total_RQ_row_buffer_miss 6213568
DRAM_total_WQ_row_buffer_hit 387297
DRAM_total_WQ_row_buffer_miss 938962
DRAM_total_WQ_full 0
DRAM_total_dbus_congested 18673013
DRAM_avg_congested_cycle 9.54625

====== DRAM_RQ_TRAFFIC ========
DRAM_RQ_READ_TRAFFIC_BREAKDOWN:
data_demand_read.count = 5781435
data_demand_read.share = 92.87%

inst_demand_read.count = 86
inst_demand_read.share = 0.00%

cache_inst_prefetch.count = 0
cache_inst_prefetch.share = 0.00%

cache_data_prefetch.count = 10429
cache_data_prefetch.share = 0.17%

stlb_data_demand.count = 432988
stlb_data_demand.share = 6.96%

stlb_inst_demand.count = 61
stlb_inst_demand.share = 0.00%

stlb_l1i_pref.count = 0
stlb_l1i_pref.share = 0.00%

stlb_l1d_pref.count = 15
stlb_l1d_pref.share = 0.00%

DRAM_RQ_READ_TRAFFIC_SUMMARY:
cache_demand.count = 5781521
cache_demand.share = 92.88%

cache_prefetch.count = 10429
cache_prefetch.share = 0.17%

stlb_demand.count = 433049
stlb_demand.share = 6.96%

stlb_prefetch.count = 15
stlb_prefetch.share = 0.00%

DRAM_RQ_READ_TRAFFIC_DEBUG:
total_classified_read.count = 6225014
unclassified_read.count = 0
total_read_with_other.count = 6225014

classified_plus_unclassified_check.count = 6225014
dram_rq_read_total_observed.count = 6225014
dram_rq_read_total_observed.per_1K_instructions = 62.2501

STLB_MISS_PTW_DRAM_TOUCH_BREAKDOWN:
stlb_miss_total.count = 944968

stlb_miss_touch_dram.count = 429745
stlb_miss_touch_dram.share = 45.48%

stlb_miss_no_dram_touch.count = 515223
stlb_miss_no_dram_touch.share = 54.52%

STLB_MISS_PTW_DRAM_TOUCH_DEBUG:
stlb_miss_touch_plus_no_touch.count = 944968
stlb_miss_total_check.count = 944968

======STLB miss causes ========
Core_0_STLB_miss_cause_breakdown
Core_0_STLB_cause_Demand_Data_miss 944569
Core_0_STLB_cause_Demand_Data_miss_rate 0.127271
Core_0_STLB_cause_Demand_Instruction_miss 60
Core_0_STLB_cause_Demand_Instruction_miss_rate 8.08442e-06
Core_0_STLB_cause_L1D_Prefetch_miss 339
Core_0_STLB_cause_L1D_Prefetch_miss_rate 4.5677e-05
Core_0_STLB_cause_L1D_Prefetch_Same_Page_miss 0
Core_0_STLB_cause_L1D_Prefetch_Same_Page_miss_rate 0
Core_0_STLB_cause_L1D_Prefetch_Cross_Page_miss 339
Core_0_STLB_cause_L1D_Prefetch_Cross_Page_miss_rate 4.5677e-05
Core_0_STLB_cause_L1I_Prefetch_miss 0
Core_0_STLB_cause_L1I_Prefetch_miss_rate 0
Core_0_STLB_cause_Other_miss 0
Core_0_STLB_cause_Other_miss_rate 0
Core_0_STLB_Demand_miss 944629
Core_0_STLB_Demand_miss_rate 0.12728
Core_0_STLB_L1D_Prefetch_miss 339
Core_0_STLB_L1D_Prefetch_miss_rate 4.5677e-05
Core_0_STLB_Other_miss 0
Core_0_STLB_Other_miss_rate 0

========== vBerti-TLB Cross-page Flow Stats ==========

Core_0_vBerti_Requested 2076539
Core_0_vBerti_Cross_page_prefetch_in_Requested 11386
Core_0_vBerti_Same_page_prefetch_in_Requested 2065153
Core_0_vBerti_Cross_page_prefetch_of_Requested 0.00548316
Core_0_vBerti_Issued 1948129
Core_0_vBerti_InPQ_Same_page_prefetch 1936941
Core_0_vBerti_InPQ_Cross_page_prefetch 11188
Core_0_vBerti_PQ_Drop_Rate 0.0618385
Core_0_vBerti_InPQ_Cross_page_prefetch_of_Requested 0.00538781
Core_0_vBerti_Cross_page_PQ_Drop_rate 0.0173898
Core_0_vBerti_Cross_page_prefetch_of_Issued 0.00574295
Core_0_CP_PF_PQFULL_drop 198
Core_0_CP_PF_PQFULL_TLB_rescue_enqueued 0
Core_0_CP_PF_PQFULL_TLB_rescue_issued 0
Core_0_CP_PF_PQFULL_TLB_rescue_translated 0

========= DTLB_vBerti Prefetch Stats =========
Core_0_DTLB_demand_access 22332924
Core_0_DTLB_demand_hit 11568160
Core_0_DTLB_demand_miss 10764764
Core_0_DTLB_demand_mshr_merge 3349844
Core_0_DTLB_demand_fill 7414926
Core_0_DTLB_demand_miss_rate 0.482013
Core_0_DTLB_demand_mpki 107.648
Core_0_DTLB_vberti_prefetch_access 1212267
Core_0_DTLB_vberti_prefetch_hit 1205404
Core_0_DTLB_vberti_prefetch_miss 6863
Core_0_DTLB_vberti_prefetch_mshr_merge 158
Core_0_DTLB_vberti_prefetch_fill 6701
Core_0_DTLB_vberti_prefetch_miss_rate 0.00566129
Core_0_DTLB_vberti_prefetch_mpki 0.06863

=== DTLB_vBerti Same/Cross-page Prefetch Stats ===
Core_0_DTLB_vberti_same_page_prefetch 1201560
Core_0_DTLB_vberti_same_page_prefetch_hit 1201554
Core_0_DTLB_vberti_same_page_prefetch_miss 6
Core_0_DTLB_vberti_same_page_prefetch_mshr_merge 4
Core_0_DTLB_vberti_same_page_prefetch_fill 1
Core_0_DTLB_vberti_same_page_prefetch_miss_rate 4.99351e-06
Core_0_DTLB_vberti_same_page_prefetch_mpki 6e-05
Core_0_DTLB_vberti_cross_page_prefetch 10707
Core_0_DTLB_vberti_cross_page_prefetch_hit 3850
Core_0_DTLB_vberti_cross_page_prefetch_miss 6857
Core_0_DTLB_vberti_cross_page_prefetch_mshr_merge 154
Core_0_DTLB_vberti_cross_page_prefetch_fill 6700
Core_0_DTLB_vberti_cross_page_prefetch_miss_rate 0.640422
Core_0_DTLB_vberti_cross_page_prefetch_mpki 0.06857
Core_0_DTLB_same_page_prefetch_miss_rate 4.99351e-06
Core_0_DTLB_same_page_prefetch_mpki 6e-05
Core_0_DTLB_cross_page_prefetch_miss_rate 0.640422
Core_0_DTLB_cross_page_prefetch_mpki 0.06857
Core_0_DTLB_cross_page_prefetch_issued 10707
Core_0_DTLB_cross_page_prefetch_lookups 10707
Core_0_DTLB_cross_page_prefetch_useful 1264
Core_0_DTLB_cross_page_prefetch_useless 5439
Core_0_DTLB_cross_page_prefetch_late 3
Core_0_DTLB_cross_page_prefetch_too_early 3762
Core_0_DTLB_cross_page_prefetch_too_early_among_fill 0.561493
Core_0_DTLB_cross_page_prefetch_too_early_among_useless 0.691671
Core_0_DTLB_cross_page_prefetch_pollution_evict 5860
Core_0_DTLB_cross_page_prefetch_pollution_demand 5516
Core_0_DTLB_cross_page_prefetch_pollution_among_prefetch_fill 0.874627
Core_0_DTLB_cross_page_prefetch_accuracy 0.118054
Core_0_DTLB_cross_page_prefetch_coverage 0.000117406

========= STLB_vBerti Prefetch Stats =========
Core_0_STLB_demand_access 7414981
Core_0_STLB_demand_hit 6470352
Core_0_STLB_demand_miss 944629
Core_0_STLB_demand_mshr_merge 0
Core_0_STLB_demand_fill 944630
Core_0_STLB_demand_miss_rate 0.127395
Core_0_STLB_demand_mpki 9.44629
Core_0_STLB_vberti_prefetch_access 6705
Core_0_STLB_vberti_prefetch_hit 6366
Core_0_STLB_vberti_prefetch_miss 339
Core_0_STLB_vberti_prefetch_mshr_merge 0
Core_0_STLB_vberti_prefetch_fill 339
Core_0_STLB_vberti_prefetch_miss_rate 0.0505593
Core_0_STLB_vberti_prefetch_mpki 0.00339

=== STLB_vBerti Same/Cross-page Prefetch Stats ===
Core_0_STLB_vberti_same_page_prefetch 2
Core_0_STLB_vberti_same_page_prefetch_hit 2
Core_0_STLB_vberti_same_page_prefetch_miss 0
Core_0_STLB_vberti_same_page_prefetch_mshr_merge 0
Core_0_STLB_vberti_same_page_prefetch_fill 0
Core_0_STLB_vberti_same_page_prefetch_miss_rate 0
Core_0_STLB_vberti_same_page_prefetch_mpki 0
Core_0_STLB_vberti_cross_page_prefetch 6703
Core_0_STLB_vberti_cross_page_prefetch_hit 6364
Core_0_STLB_vberti_cross_page_prefetch_miss 339
Core_0_STLB_vberti_cross_page_prefetch_mshr_merge 0
Core_0_STLB_vberti_cross_page_prefetch_fill 339
Core_0_STLB_vberti_cross_page_prefetch_miss_rate 0.0505744
Core_0_STLB_vberti_cross_page_prefetch_mpki 0.00339
Core_0_STLB_same_page_prefetch_miss_rate 0
Core_0_STLB_same_page_prefetch_mpki 0
Core_0_STLB_cross_page_prefetch_miss_rate 0.0505744
Core_0_STLB_cross_page_prefetch_mpki 0.00339
Core_0_STLB_cross_page_prefetch_issued 6703
Core_0_STLB_cross_page_prefetch_lookups 6703
Core_0_STLB_cross_page_prefetch_useful 259
Core_0_STLB_cross_page_prefetch_useless 80
Core_0_STLB_cross_page_prefetch_late 0
Core_0_STLB_cross_page_prefetch_too_early 49
Core_0_STLB_cross_page_prefetch_too_early_among_fill 0.144543
Core_0_STLB_cross_page_prefetch_too_early_among_useless 0.6125
Core_0_STLB_cross_page_prefetch_pollution_evict 318
Core_0_STLB_cross_page_prefetch_pollution_demand 318
Core_0_STLB_cross_page_prefetch_pollution_among_prefetch_fill 0.938053
Core_0_STLB_cross_page_prefetch_accuracy 0.0386394
Core_0_STLB_cross_page_prefetch_coverage 0.000274107

========= STLB Cross-page Prefetch Buffer Stats =========
Core_0_STLB_raw_demand_miss 944569
Core_0_CP_PB_insert 0
Core_0_CP_PB_demand_hit 0
Core_0_STLB_PB_demand_miss 944569
Core_0_CP_PB_coverage 0
Core_0_STLB_raw_demand_mpki 9.44569
Core_0_STLB_PB_demand_mpki 9.44569
Core_0_CP_PB_demand_hit_mpki 0

Core_0_TLB_demand_miss_rate 0.0422976
Core_0_TLB_demand_mpki 9.44629
Core_0_TLB_same_page_prefetch_miss_rate 0
Core_0_TLB_same_page_prefetch_mpki 0
Core_0_TLB_cross_page_prefetch_miss_rate 0.0316615
Core_0_TLB_cross_page_prefetch_mpki 0.00339
Core_0_TLB_cross_page_prefetch_issued 10707
Core_0_TLB_cross_page_prefetch_lookups 10707
Core_0_TLB_cross_page_prefetch_useful 229
Core_0_TLB_cross_page_prefetch_useless 3946
Core_0_TLB_cross_page_prefetch_late 1
Core_0_TLB_cross_page_prefetch_too_early 2881
Core_0_TLB_cross_page_prefetch_too_early_among_fill 0.409291
Core_0_TLB_cross_page_prefetch_too_early_among_useless 0.730106
Core_0_TLB_cross_page_prefetch_accuracy 0.0213879
Core_0_TLB_cross_page_prefetch_coverage 0.000242364
BERTI TO_L1: 1691891 TO_L2: 1076275 TO_L2_BC_MSHR: 162
BERTI AVG_LAT: 94.6618 NUM_TRACK_LATENCY: 15332560 NUM_CANT_TRACK_LATENCY: 1
BERTI CROSS_PAGE 12813 NO_CROSS_PAGE: 2755353
BERTI FOUND_BERTI: 24514001 NO_FOUND_BERTI: 7916669
BERTI AVERAGE_ISSUED: 1.54005
