[VMEM] WARNING: physical memory size is smaller than virtual memory size.

*** ChampSim Multicore Out-of-Order Simulator ***
Warmup Instructions: 50000000
Simulation Instructions: 100000000
Number of CPUs: 1
Page size: 4096
Core 0: /data0/tzh/champsim_traces/PARSEC/parsec_2.1.canneal.simlarge.prebuilt.drop_3000M.length_250M.champsimtrace.xz
VBerti Prefetcher
BERTI HASH ENTANGLING
BERTI IP MASK ffff
Off-chip DRAM Size: 16 GiB Channels: 1 Width: 64-bit Data Rate: 3205 MT/s
Warmup halting CPU 0 at instruction 50000005 cycle 13072145 for remainder of phase
Warmup finished CPU 0 instructions: 50000005 cycles: 13072145 cumulative IPC: 3.825 (Simulation time: 00 hr 03 min 03 sec)
Warmup complete CPU 0 instructions: 50000005 cycles: 13072145 cumulative IPC: 3.825 (Simulation time: 00 hr 03 min 03 sec)
Simulation finished CPU 0 instructions: 100000004 cycles: 254964293 cumulative IPC: 0.3922 (Simulation time: 00 hr 24 min 18 sec)
Simulation complete CPU 0 instructions: 100000004 cycles: 254964293 cumulative IPC: 0.3922 (Simulation time: 00 hr 24 min 18 sec)

ChampSim completed all CPUs

=== Simulation ===
CPU 0 runs /data0/tzh/champsim_traces/PARSEC/parsec_2.1.canneal.simlarge.prebuilt.drop_3000M.length_250M.champsimtrace.xz

Region of Interest Statistics

CPU 0 cumulative IPC: 0.3922 instructions: 100000004 cycles: 254964293
CPU 0 Branch Prediction Accuracy: 95.58% MPKI: 8.55 Average ROB Occupancy at Mispredict: 78.26
Branch type MPKI
BRANCH_DIRECT_JUMP: 0
BRANCH_INDIRECT: 0.01761
BRANCH_CONDITIONAL: 8.42
BRANCH_DIRECT_CALL: 0.1121
BRANCH_INDIRECT_CALL: 4e-05
BRANCH_RETURN: 0

cpu0->cpu0_STLB TOTAL        ACCESS:    1220102 HIT:     744416 MISS:     475686 MSHR_MERGE:          0
cpu0->cpu0_STLB LOAD         ACCESS:    1220102 HIT:     744416 MISS:     475686 MSHR_MERGE:          0
cpu0->cpu0_STLB RFO          ACCESS:          0 HIT:          0 MISS:          0 MSHR_MERGE:          0
cpu0->cpu0_STLB PREFETCH     ACCESS:          0 HIT:          0 MISS:          0 MSHR_MERGE:          0
cpu0->cpu0_STLB WRITE        ACCESS:          0 HIT:          0 MISS:          0 MSHR_MERGE:          0
cpu0->cpu0_STLB TRANSLATION  ACCESS:          0 HIT:          0 MISS:          0 MSHR_MERGE:          0
cpu0->cpu0_STLB PREFETCH REQUESTED:          0 ISSUED:          0 USEFUL:          0 USELESS:          0 LATE:          0 TOO_EARLY:          0
cpu0->cpu0_STLB AVERAGE MISS LATENCY: 31.61 cycles
cpu0->cpu0_L2C TOTAL        ACCESS:    2610403 HIT:     993831 MISS:    1616572 MSHR_MERGE:       1128
cpu0->cpu0_L2C LOAD         ACCESS:    1805341 HIT:     473849 MISS:    1331492 MSHR_MERGE:          0
cpu0->cpu0_L2C RFO          ACCESS:      37537 HIT:      16641 MISS:      20896 MSHR_MERGE:          1
cpu0->cpu0_L2C PREFETCH     ACCESS:     123230 HIT:      65714 MISS:      57516 MSHR_MERGE:       1127
cpu0->cpu0_L2C WRITE        ACCESS:     213294 HIT:     212899 MISS:        395 MSHR_MERGE:          0
cpu0->cpu0_L2C TRANSLATION  ACCESS:     431001 HIT:     224728 MISS:     206273 MSHR_MERGE:          0
cpu0->cpu0_L2C PREFETCH REQUESTED:      11840 ISSUED:      11840 USEFUL:       8622 USELESS:        151 LATE:          0 TOO_EARLY:         13
cpu0->cpu0_L2C AVERAGE MISS LATENCY: 135.2 cycles
cpu0->cpu0_L1I TOTAL        ACCESS:   11026364 HIT:   11023009 MISS:       3355 MSHR_MERGE:        231
cpu0->cpu0_L1I LOAD         ACCESS:   11026364 HIT:   11023009 MISS:       3355 MSHR_MERGE:        231
cpu0->cpu0_L1I RFO          ACCESS:          0 HIT:          0 MISS:          0 MSHR_MERGE:          0
cpu0->cpu0_L1I PREFETCH     ACCESS:          0 HIT:          0 MISS:          0 MSHR_MERGE:          0
cpu0->cpu0_L1I WRITE        ACCESS:          0 HIT:          0 MISS:          0 MSHR_MERGE:          0
cpu0->cpu0_L1I TRANSLATION  ACCESS:          0 HIT:          0 MISS:          0 MSHR_MERGE:          0
cpu0->cpu0_L1I PREFETCH REQUESTED:          0 ISSUED:          0 USEFUL:          0 USELESS:          0 LATE:          0 TOO_EARLY:          0
cpu0->cpu0_L1I AVERAGE MISS LATENCY: 18.57 cycles
cpu0->cpu0_L1D TOTAL        ACCESS:   31989887 HIT:   29485656 MISS:    2504231 MSHR_MERGE:     122069
cpu0->cpu0_L1D LOAD         ACCESS:   19869087 HIT:   17963939 MISS:    1905148 MSHR_MERGE:     102931
cpu0->cpu0_L1D RFO          ACCESS:          0 HIT:          0 MISS:          0 MSHR_MERGE:          0
cpu0->cpu0_L1D PREFETCH     ACCESS:     241847 HIT:     130391 MISS:     111456 MSHR_MERGE:         50
cpu0->cpu0_L1D WRITE        ACCESS:   10808775 HIT:   10752537 MISS:      56238 MSHR_MERGE:      18700
cpu0->cpu0_L1D TRANSLATION  ACCESS:    1070178 HIT:     638789 MISS:     431389 MSHR_MERGE:        388
cpu0->cpu0_L1D PREFETCH REQUESTED:     241840 ISSUED:     241839 USEFUL:      34482 USELESS:       7903 LATE:         26 TOO_EARLY:        685
cpu0->cpu0_L1D AVERAGE MISS LATENCY: 101.5 cycles
cpu0->cpu0_ITLB TOTAL        ACCESS:    9568229 HIT:    9568181 MISS:         48 MSHR_MERGE:         16
cpu0->cpu0_ITLB LOAD         ACCESS:    9568229 HIT:    9568181 MISS:         48 MSHR_MERGE:         16
cpu0->cpu0_ITLB RFO          ACCESS:          0 HIT:          0 MISS:          0 MSHR_MERGE:          0
cpu0->cpu0_ITLB PREFETCH     ACCESS:          0 HIT:          0 MISS:          0 MSHR_MERGE:          0
cpu0->cpu0_ITLB WRITE        ACCESS:          0 HIT:          0 MISS:          0 MSHR_MERGE:          0
cpu0->cpu0_ITLB TRANSLATION  ACCESS:          0 HIT:          0 MISS:          0 MSHR_MERGE:          0
cpu0->cpu0_ITLB PREFETCH REQUESTED:          0 ISSUED:          0 USEFUL:          0 USELESS:          0 LATE:          0 TOO_EARLY:          0
cpu0->cpu0_ITLB AVERAGE MISS LATENCY: 186.7 cycles
cpu0->cpu0_DTLB TOTAL        ACCESS:   29589176 HIT:   28149486 MISS:    1439690 MSHR_MERGE:     219620
cpu0->cpu0_DTLB LOAD         ACCESS:   29589176 HIT:   28149486 MISS:    1439690 MSHR_MERGE:     219620
cpu0->cpu0_DTLB RFO          ACCESS:          0 HIT:          0 MISS:          0 MSHR_MERGE:          0
cpu0->cpu0_DTLB PREFETCH     ACCESS:          0 HIT:          0 MISS:          0 MSHR_MERGE:          0
cpu0->cpu0_DTLB WRITE        ACCESS:          0 HIT:          0 MISS:          0 MSHR_MERGE:          0
cpu0->cpu0_DTLB TRANSLATION  ACCESS:          0 HIT:          0 MISS:          0 MSHR_MERGE:          0
cpu0->cpu0_DTLB PREFETCH REQUESTED:          0 ISSUED:          0 USEFUL:          0 USELESS:          0 LATE:          0 TOO_EARLY:          0
cpu0->cpu0_DTLB AVERAGE MISS LATENCY: 17.71 cycles
cpu0->LLC TOTAL        ACCESS:    1806101 HIT:     666509 MISS:    1139592 MSHR_MERGE:          0
cpu0->LLC LOAD         ACCESS:    1331492 HIT:     354013 MISS:     977479 MSHR_MERGE:          0
cpu0->LLC RFO          ACCESS:      20895 HIT:        429 MISS:      20466 MSHR_MERGE:          0
cpu0->LLC PREFETCH     ACCESS:      56389 HIT:       5813 MISS:      50576 MSHR_MERGE:          0
cpu0->LLC WRITE        ACCESS:     191052 HIT:     113114 MISS:      77938 MSHR_MERGE:          0
cpu0->LLC TRANSLATION  ACCESS:     206273 HIT:     193140 MISS:      13133 MSHR_MERGE:          0
cpu0->LLC PREFETCH REQUESTED:          0 ISSUED:          0 USEFUL:          0 USELESS:          0 LATE:          0 TOO_EARLY:          0
cpu0->LLC AVERAGE MISS LATENCY: 171.8 cycles

DRAM Statistics

Channel 0 RQ ROW_BUFFER_HIT:        567
  ROW_BUFFER_MISS:    1061073
  AVG DBUS CONGESTED CYCLE: 23.13
Channel 0 WQ ROW_BUFFER_HIT:      77985
  ROW_BUFFER_MISS:      97121
  FULL:          0
Channel 0 REFRESHES ISSUED:      21247

[ROI Statistics]
[System Configuration]
num_cpus 1
cpu_freq 4000
fetch_width 6
decode_width 6
dispatch_width 6
execute_width 6
lq_width 2
sq_width 2
retire_width 6
scheduler_size 128
branch_mispredict_penalty 15
rob_size 352
lq_size 128
sq_size 72
ifetch_buffer_size 64
decode_buffer_size 32
dispatch_buffer_size 32
register_file_size 288
decode_latency 1
dispatch_latency 1
schedule_latency 1
execute_latency 1
page_size 4096
block_size 64
core_0_itlb_set 16
core_0_itlb_way 4
core_0_itlb_rq_size 16
core_0_itlb_wq_size 16
core_0_itlb_pq_size 0
core_0_itlb_mshr_size 8
core_0_itlb_hit_latency 1
core_0_itlb_fill_latency 1
core_0_itlb_max_tag_check 2
core_0_itlb_max_fill 2
core_0_dtlb_set 16
core_0_dtlb_way 4
core_0_dtlb_rq_size 16
core_0_dtlb_wq_size 16
core_0_dtlb_pq_size 0
core_0_dtlb_mshr_size 8
core_0_dtlb_hit_latency 1
core_0_dtlb_fill_latency 1
core_0_dtlb_max_tag_check 2
core_0_dtlb_max_fill 2
core_0_stlb_set 128
core_0_stlb_way 12
core_0_stlb_rq_size 32
core_0_stlb_wq_size 32
core_0_stlb_pq_size 0
core_0_stlb_mshr_size 16
core_0_stlb_hit_latency 4
core_0_stlb_fill_latency 4
core_0_stlb_max_tag_check 1
core_0_stlb_max_fill 1
core_0_l1i_set 64
core_0_l1i_way 8
core_0_l1i_rq_size 64
core_0_l1i_wq_size 64
core_0_l1i_pq_size 32
core_0_l1i_mshr_size 8
core_0_l1i_hit_latency 2
core_0_l1i_fill_latency 2
core_0_l1i_max_tag_check 2
core_0_l1i_max_fill 2
core_0_l1d_set 64
core_0_l1d_way 12
core_0_l1d_rq_size 64
core_0_l1d_wq_size 64
core_0_l1d_pq_size 8
core_0_l1d_mshr_size 16
core_0_l1d_hit_latency 2
core_0_l1d_fill_latency 3
core_0_l1d_max_tag_check 2
core_0_l1d_max_fill 2
core_0_l2c_set 1024
core_0_l2c_way 8
core_0_l2c_rq_size 32
core_0_l2c_wq_size 32
core_0_l2c_pq_size 16
core_0_l2c_mshr_size 32
core_0_l2c_hit_latency 5
core_0_l2c_fill_latency 5
core_0_l2c_max_tag_check 1
core_0_l2c_max_fill 1
llc_set 2048
llc_way 16
llc_rq_size 32
llc_wq_size 32
llc_pq_size 32
llc_mshr_size 64
llc_hit_latency 10
llc_fill_latency 10
llc_max_tag_check 1
llc_max_fill 1
dram_channels 1
dram_ranks 1
dram_bankgroups 8
dram_banks 4
dram_rows 65536
dram_columns 1024
dram_channel_width 8
dram_rq_size 64
dram_wq_size 64
dram_size 17179869184
core_0_itlb_prefetcher no
core_0_dtlb_prefetcher no
core_0_stlb_prefetcher no
core_0_l1i_prefetcher next_line
core_0_l1d_prefetcher vberti
core_0_l2c_prefetcher ip_stride
llc_prefetcher no
llc_replacement drrip

Core_0_instructions 100000004
Core_0_cycles 254964293
Core_0_IPC 0.392212
Core_0_branch_prediction_accuracy 95.5771
Core_0_branch_MPKI 8.54981
Core_0_average_ROB_occupancy_at_mispredict 78.2608

Core_0_ITLB_total_access 9568229
Core_0_ITLB_total_hit 9568181
Core_0_ITLB_total_miss 48
Core_0_ITLB_total_MPKI 0.00048
Core_0_ITLB_total_miss_rate 5.0166e-06
Core_0_ITLB_demand_access 9568229
Core_0_ITLB_demand_hit 9568181
Core_0_ITLB_demand_miss 48
Core_0_ITLB_demand_MPKI 0.00048
Core_0_ITLB_demand_miss_rate 5.0166e-06
Core_0_ITLB_load_access 9568229
Core_0_ITLB_load_hit 9568181
Core_0_ITLB_load_miss 48
Core_0_ITLB_load_MPKI 0.00048
Core_0_ITLB_load_miss_rate 5.0166e-06
Core_0_ITLB_rfo_access 0
Core_0_ITLB_rfo_hit 0
Core_0_ITLB_rfo_miss 0
Core_0_ITLB_rfo_MPKI 0
Core_0_ITLB_rfo_miss_rate 0
Core_0_ITLB_prefetch_access 0
Core_0_ITLB_prefetch_hit 0
Core_0_ITLB_prefetch_miss 0
Core_0_ITLB_prefetch_MPKI 0
Core_0_ITLB_prefetch_miss_rate 0
Core_0_ITLB_writeback_access 0
Core_0_ITLB_writeback_hit 0
Core_0_ITLB_writeback_miss 0
Core_0_ITLB_writeback_MPKI 0
Core_0_ITLB_writeback_miss_rate 0
Core_0_ITLB_prefetch_requested 0
Core_0_ITLB_prefetch_issued 0
Core_0_ITLB_prefetch_useful 0
Core_0_ITLB_prefetch_useless 0
Core_0_ITLB_prefetch_late 0
Core_0_ITLB_prefetch_fill 0
Core_0_ITLB_prefetch_too_early 0
Core_0_ITLB_prefetch_too_early_among_fill 0
Core_0_ITLB_prefetch_too_early_among_useless 0
Core_0_ITLB_prefetch_pollution_evict 0
Core_0_ITLB_prefetch_pollution_demand 0
Core_0_ITLB_prefetch_pollution_among_prefetch_fill 0
Core_0_ITLB_prefetch_accuracy 0
Core_0_ITLB_prefetch_coverage 0

Core_0_DTLB_total_access 29589176
Core_0_DTLB_total_hit 28149486
Core_0_DTLB_total_miss 1439690
Core_0_DTLB_total_MPKI 14.3969
Core_0_DTLB_total_miss_rate 0.048656
Core_0_DTLB_demand_access 29589176
Core_0_DTLB_demand_hit 28149486
Core_0_DTLB_demand_miss 1439690
Core_0_DTLB_demand_MPKI 14.3969
Core_0_DTLB_demand_miss_rate 0.048656
Core_0_DTLB_load_access 29589176
Core_0_DTLB_load_hit 28149486
Core_0_DTLB_load_miss 1439690
Core_0_DTLB_load_MPKI 14.3969
Core_0_DTLB_load_miss_rate 0.048656
Core_0_DTLB_rfo_access 0
Core_0_DTLB_rfo_hit 0
Core_0_DTLB_rfo_miss 0
Core_0_DTLB_rfo_MPKI 0
Core_0_DTLB_rfo_miss_rate 0
Core_0_DTLB_prefetch_access 0
Core_0_DTLB_prefetch_hit 0
Core_0_DTLB_prefetch_miss 0
Core_0_DTLB_prefetch_MPKI 0
Core_0_DTLB_prefetch_miss_rate 0
Core_0_DTLB_writeback_access 0
Core_0_DTLB_writeback_hit 0
Core_0_DTLB_writeback_miss 0
Core_0_DTLB_writeback_MPKI 0
Core_0_DTLB_writeback_miss_rate 0
Core_0_DTLB_prefetch_requested 0
Core_0_DTLB_prefetch_issued 0
Core_0_DTLB_prefetch_useful 0
Core_0_DTLB_prefetch_useless 0
Core_0_DTLB_prefetch_late 0
Core_0_DTLB_prefetch_fill 0
Core_0_DTLB_prefetch_too_early 0
Core_0_DTLB_prefetch_too_early_among_fill 0
Core_0_DTLB_prefetch_too_early_among_useless 0
Core_0_DTLB_prefetch_pollution_evict 0
Core_0_DTLB_prefetch_pollution_demand 0
Core_0_DTLB_prefetch_pollution_among_prefetch_fill 0
Core_0_DTLB_prefetch_accuracy 0
Core_0_DTLB_prefetch_coverage 0

Core_0_STLB_total_access 1220102
Core_0_STLB_total_hit 744416
Core_0_STLB_total_miss 475686
Core_0_STLB_total_MPKI 4.75686
Core_0_STLB_total_miss_rate 0.389874
Core_0_STLB_demand_access 1220102
Core_0_STLB_demand_hit 744416
Core_0_STLB_demand_miss 475686
Core_0_STLB_demand_MPKI 4.75686
Core_0_STLB_demand_miss_rate 0.389874
Core_0_STLB_load_access 1220102
Core_0_STLB_load_hit 744416
Core_0_STLB_load_miss 475686
Core_0_STLB_load_MPKI 4.75686
Core_0_STLB_load_miss_rate 0.389874
Core_0_STLB_rfo_access 0
Core_0_STLB_rfo_hit 0
Core_0_STLB_rfo_miss 0
Core_0_STLB_rfo_MPKI 0
Core_0_STLB_rfo_miss_rate 0
Core_0_STLB_prefetch_access 0
Core_0_STLB_prefetch_hit 0
Core_0_STLB_prefetch_miss 0
Core_0_STLB_prefetch_MPKI 0
Core_0_STLB_prefetch_miss_rate 0
Core_0_STLB_writeback_access 0
Core_0_STLB_writeback_hit 0
Core_0_STLB_writeback_miss 0
Core_0_STLB_writeback_MPKI 0
Core_0_STLB_writeback_miss_rate 0
Core_0_STLB_prefetch_requested 0
Core_0_STLB_prefetch_issued 0
Core_0_STLB_prefetch_useful 0
Core_0_STLB_prefetch_useless 0
Core_0_STLB_prefetch_late 0
Core_0_STLB_prefetch_fill 0
Core_0_STLB_prefetch_too_early 0
Core_0_STLB_prefetch_too_early_among_fill 0
Core_0_STLB_prefetch_too_early_among_useless 0
Core_0_STLB_prefetch_pollution_evict 0
Core_0_STLB_prefetch_pollution_demand 0
Core_0_STLB_prefetch_pollution_among_prefetch_fill 0
Core_0_STLB_prefetch_accuracy 0
Core_0_STLB_prefetch_coverage 0

Core_0_L1I_total_access 11026364
Core_0_L1I_total_hit 11023009
Core_0_L1I_total_miss 3355
Core_0_L1I_total_MPKI 0.03355
Core_0_L1I_total_miss_rate 0.000304271
Core_0_L1I_demand_access 11026364
Core_0_L1I_demand_hit 11023009
Core_0_L1I_demand_miss 3355
Core_0_L1I_demand_MPKI 0.03355
Core_0_L1I_demand_miss_rate 0.000304271
Core_0_L1I_load_access 11026364
Core_0_L1I_load_hit 11023009
Core_0_L1I_load_miss 3355
Core_0_L1I_load_MPKI 0.03355
Core_0_L1I_load_miss_rate 0.000304271
Core_0_L1I_rfo_access 0
Core_0_L1I_rfo_hit 0
Core_0_L1I_rfo_miss 0
Core_0_L1I_rfo_MPKI 0
Core_0_L1I_rfo_miss_rate 0
Core_0_L1I_prefetch_access 0
Core_0_L1I_prefetch_hit 0
Core_0_L1I_prefetch_miss 0
Core_0_L1I_prefetch_MPKI 0
Core_0_L1I_prefetch_miss_rate 0
Core_0_L1I_writeback_access 0
Core_0_L1I_writeback_hit 0
Core_0_L1I_writeback_miss 0
Core_0_L1I_writeback_MPKI 0
Core_0_L1I_writeback_miss_rate 0
Core_0_L1I_prefetch_requested 0
Core_0_L1I_prefetch_issued 0
Core_0_L1I_prefetch_useful 0
Core_0_L1I_prefetch_useless 0
Core_0_L1I_prefetch_late 0
Core_0_L1I_prefetch_fill 0
Core_0_L1I_prefetch_too_early 0
Core_0_L1I_prefetch_too_early_among_fill 0
Core_0_L1I_prefetch_too_early_among_useless 0
Core_0_L1I_prefetch_pollution_evict 0
Core_0_L1I_prefetch_pollution_demand 0
Core_0_L1I_prefetch_pollution_among_prefetch_fill 0
Core_0_L1I_prefetch_accuracy 0
Core_0_L1I_prefetch_coverage 0

Core_0_L1D_total_access 30919709
Core_0_L1D_total_hit 28846867
Core_0_L1D_total_miss 2072842
Core_0_L1D_total_MPKI 20.7284
Core_0_L1D_total_miss_rate 0.0670395
Core_0_L1D_demand_access 19869087
Core_0_L1D_demand_hit 17963939
Core_0_L1D_demand_miss 1905148
Core_0_L1D_demand_MPKI 19.0515
Core_0_L1D_demand_miss_rate 0.095885
Core_0_L1D_load_access 19869087
Core_0_L1D_load_hit 17963939
Core_0_L1D_load_miss 1905148
Core_0_L1D_load_MPKI 19.0515
Core_0_L1D_load_miss_rate 0.095885
Core_0_L1D_rfo_access 0
Core_0_L1D_rfo_hit 0
Core_0_L1D_rfo_miss 0
Core_0_L1D_rfo_MPKI 0
Core_0_L1D_rfo_miss_rate 0
Core_0_L1D_prefetch_access 241847
Core_0_L1D_prefetch_hit 130391
Core_0_L1D_prefetch_miss 111456
Core_0_L1D_prefetch_MPKI 1.11456
Core_0_L1D_prefetch_miss_rate 0.460853
Core_0_L1D_writeback_access 10808775
Core_0_L1D_writeback_hit 10752537
Core_0_L1D_writeback_miss 56238
Core_0_L1D_writeback_MPKI 0.56238
Core_0_L1D_writeback_miss_rate 0.00520299
Core_0_L1D_prefetch_requested 241840
Core_0_L1D_prefetch_issued 241839
Core_0_L1D_prefetch_useful 34482
Core_0_L1D_prefetch_useless 7903
Core_0_L1D_prefetch_late 26
Core_0_L1D_prefetch_fill 42368
Core_0_L1D_prefetch_too_early 685
Core_0_L1D_prefetch_too_early_among_fill 0.0161679
Core_0_L1D_prefetch_too_early_among_useless 0.0866759
Core_0_L1D_prefetch_pollution_evict 13514
Core_0_L1D_prefetch_pollution_demand 13506
Core_0_L1D_prefetch_pollution_among_prefetch_fill 0.318967
Core_0_L1D_prefetch_accuracy 0.142582
Core_0_L1D_prefetch_coverage 0.0177776

Core_0_L2C_total_access 2179402
Core_0_L2C_total_hit 769103
Core_0_L2C_total_miss 1410299
Core_0_L2C_total_MPKI 14.103
Core_0_L2C_total_miss_rate 0.647104
Core_0_L2C_demand_access 1842878
Core_0_L2C_demand_hit 490490
Core_0_L2C_demand_miss 1352388
Core_0_L2C_demand_MPKI 13.5239
Core_0_L2C_demand_miss_rate 0.733846
Core_0_L2C_load_access 1805341
Core_0_L2C_load_hit 473849
Core_0_L2C_load_miss 1331492
Core_0_L2C_load_MPKI 13.3149
Core_0_L2C_load_miss_rate 0.737529
Core_0_L2C_rfo_access 37537
Core_0_L2C_rfo_hit 16641
Core_0_L2C_rfo_miss 20896
Core_0_L2C_rfo_MPKI 0.20896
Core_0_L2C_rfo_miss_rate 0.556677
Core_0_L2C_prefetch_access 123230
Core_0_L2C_prefetch_hit 65714
Core_0_L2C_prefetch_miss 57516
Core_0_L2C_prefetch_MPKI 0.57516
Core_0_L2C_prefetch_miss_rate 0.466737
Core_0_L2C_writeback_access 213294
Core_0_L2C_writeback_hit 212899
Core_0_L2C_writeback_miss 395
Core_0_L2C_writeback_MPKI 0.00395
Core_0_L2C_writeback_miss_rate 0.0018519
Core_0_L2C_prefetch_requested 11840
Core_0_L2C_prefetch_issued 11840
Core_0_L2C_prefetch_useful 8622
Core_0_L2C_prefetch_useless 151
Core_0_L2C_prefetch_late 0
Core_0_L2C_prefetch_fill 56388
Core_0_L2C_prefetch_too_early 13
Core_0_L2C_prefetch_too_early_among_fill 0.000230546
Core_0_L2C_prefetch_too_early_among_useless 0.0860927
Core_0_L2C_prefetch_pollution_evict 22332
Core_0_L2C_prefetch_pollution_demand 22332
Core_0_L2C_prefetch_pollution_among_prefetch_fill 0.396042
Core_0_L2C_prefetch_accuracy 0.728209
Core_0_L2C_prefetch_coverage 0.006335

Core_0_LLC_total_access 1599828
Core_0_LLC_total_hit 473369
Core_0_LLC_total_miss 1126459
Core_0_LLC_total_MPKI 11.2646
Core_0_LLC_total_miss_rate 0.704113
Core_0_LLC_demand_access 1352387
Core_0_LLC_demand_hit 354442
Core_0_LLC_demand_miss 997945
Core_0_LLC_demand_MPKI 9.97945
Core_0_LLC_demand_miss_rate 0.737914
Core_0_LLC_load_access 1331492
Core_0_LLC_load_hit 354013
Core_0_LLC_load_miss 977479
Core_0_LLC_load_MPKI 9.77479
Core_0_LLC_load_miss_rate 0.734123
Core_0_LLC_rfo_access 20895
Core_0_LLC_rfo_hit 429
Core_0_LLC_rfo_miss 20466
Core_0_LLC_rfo_MPKI 0.20466
Core_0_LLC_rfo_miss_rate 0.979469
Core_0_LLC_prefetch_access 56389
Core_0_LLC_prefetch_hit 5813
Core_0_LLC_prefetch_miss 50576
Core_0_LLC_prefetch_MPKI 0.50576
Core_0_LLC_prefetch_miss_rate 0.896913
Core_0_LLC_writeback_access 191052
Core_0_LLC_writeback_hit 113114
Core_0_LLC_writeback_miss 77938
Core_0_LLC_writeback_MPKI 0.77938
Core_0_LLC_writeback_miss_rate 0.407941
Core_0_LLC_prefetch_requested 0
Core_0_LLC_prefetch_issued 0
Core_0_LLC_prefetch_useful 0
Core_0_LLC_prefetch_useless 0
Core_0_LLC_prefetch_late 0
Core_0_LLC_prefetch_fill 50576
Core_0_LLC_prefetch_too_early 0
Core_0_LLC_prefetch_too_early_among_fill 0
Core_0_LLC_prefetch_too_early_among_useless 0
Core_0_LLC_prefetch_pollution_evict 21574
Core_0_LLC_prefetch_pollution_demand 21574
Core_0_LLC_prefetch_pollution_among_prefetch_fill 0.426566
Core_0_LLC_prefetch_accuracy 0
Core_0_LLC_prefetch_coverage 0

[DRAM Statistics]
Channel_0_RQ_row_buffer_hit 567
Channel_0_RQ_row_buffer_miss 1061073
Channel_0_WQ_row_buffer_hit 77985
Channel_0_WQ_row_buffer_miss 97121
Channel_0_WQ_full 0
Channel_0_dbus_congested 3919821
DRAM_total_RQ_row_buffer_hit 567
DRAM_total_RQ_row_buffer_miss 1061073
DRAM_total_WQ_row_buffer_hit 77985
DRAM_total_WQ_row_buffer_miss 97121
DRAM_total_WQ_full 0
DRAM_total_dbus_congested 3919821
DRAM_avg_congested_cycle 23.1254

====== DRAM_RQ_TRAFFIC ========
DRAM_RQ_READ_TRAFFIC_BREAKDOWN:
data_demand_read.count = 997805
data_demand_read.share = 93.99%

inst_demand_read.count = 140
inst_demand_read.share = 0.01%

cache_inst_prefetch.count = 0
cache_inst_prefetch.share = 0.00%

cache_data_prefetch.count = 50576
cache_data_prefetch.share = 4.76%

stlb_data_demand.count = 13019
stlb_data_demand.share = 1.23%

stlb_inst_demand.count = 25
stlb_inst_demand.share = 0.00%

stlb_l1i_pref.count = 0
stlb_l1i_pref.share = 0.00%

stlb_l1d_pref.count = 89
stlb_l1d_pref.share = 0.01%

DRAM_RQ_READ_TRAFFIC_SUMMARY:
cache_demand.count = 997945
cache_demand.share = 94.00%

cache_prefetch.count = 50576
cache_prefetch.share = 4.76%

stlb_demand.count = 13044
stlb_demand.share = 1.23%

stlb_prefetch.count = 89
stlb_prefetch.share = 0.01%

DRAM_RQ_READ_TRAFFIC_DEBUG:
total_classified_read.count = 1061654
unclassified_read.count = 0
total_read_with_other.count = 1061654

classified_plus_unclassified_check.count = 1061654
dram_rq_read_total_observed.count = 1061654
dram_rq_read_total_observed.per_1K_instructions = 10.6165

STLB_MISS_PTW_DRAM_TOUCH_BREAKDOWN:
stlb_miss_total.count = 475686

stlb_miss_touch_dram.count = 13142
stlb_miss_touch_dram.share = 2.76%

stlb_miss_no_dram_touch.count = 462544
stlb_miss_no_dram_touch.share = 97.24%

STLB_MISS_PTW_DRAM_TOUCH_DEBUG:
stlb_miss_touch_plus_no_touch.count = 475686
stlb_miss_total_check.count = 475686

======STLB miss causes ========
Core_0_STLB_miss_cause_breakdown
Core_0_STLB_cause_Demand_Data_miss 474593
Core_0_STLB_cause_Demand_Data_miss_rate 0.388978
Core_0_STLB_cause_Demand_Instruction_miss 32
Core_0_STLB_cause_Demand_Instruction_miss_rate 2.62273e-05
Core_0_STLB_cause_L1D_Prefetch_miss 1061
Core_0_STLB_cause_L1D_Prefetch_miss_rate 0.000869599
Core_0_STLB_cause_L1D_Prefetch_Same_Page_miss 0
Core_0_STLB_cause_L1D_Prefetch_Same_Page_miss_rate 0
Core_0_STLB_cause_L1D_Prefetch_Cross_Page_miss 1061
Core_0_STLB_cause_L1D_Prefetch_Cross_Page_miss_rate 0.000869599
Core_0_STLB_cause_L1I_Prefetch_miss 0
Core_0_STLB_cause_L1I_Prefetch_miss_rate 0
Core_0_STLB_cause_Other_miss 0
Core_0_STLB_cause_Other_miss_rate 0
Core_0_STLB_Demand_miss 474625
Core_0_STLB_Demand_miss_rate 0.389004
Core_0_STLB_L1D_Prefetch_miss 1061
Core_0_STLB_L1D_Prefetch_miss_rate 0.000869599
Core_0_STLB_Other_miss 0
Core_0_STLB_Other_miss_rate 0

========== vBerti-TLB Cross-page Flow Stats ==========

Core_0_vBerti_Requested 241840
Core_0_vBerti_Cross_page_prefetch_in_Requested 5158
Core_0_vBerti_Same_page_prefetch_in_Requested 236682
Core_0_vBerti_Cross_page_prefetch_of_Requested 0.0213282
Core_0_vBerti_Issued 241839
Core_0_vBerti_InPQ_Same_page_prefetch 236681
Core_0_vBerti_InPQ_Cross_page_prefetch 5158
Core_0_vBerti_PQ_Drop_Rate 4.13497e-06
Core_0_vBerti_InPQ_Cross_page_prefetch_of_Requested 0.0213282
Core_0_vBerti_Cross_page_PQ_Drop_rate 0
Core_0_vBerti_Cross_page_prefetch_of_Issued 0.0213282
Core_0_CP_PF_PQFULL_drop 0
Core_0_CP_PF_PQFULL_TLB_rescue_enqueued 0
Core_0_CP_PF_PQFULL_TLB_rescue_issued 0
Core_0_CP_PF_PQFULL_TLB_rescue_translated 0

========= DTLB_vBerti Prefetch Stats =========
Core_0_DTLB_demand_access 29399515
Core_0_DTLB_demand_hit 27961504
Core_0_DTLB_demand_miss 1438011
Core_0_DTLB_demand_mshr_merge 219532
Core_0_DTLB_demand_fill 1218479
Core_0_DTLB_demand_miss_rate 0.0489127
Core_0_DTLB_demand_mpki 14.3801
Core_0_DTLB_vberti_prefetch_access 189661
Core_0_DTLB_vberti_prefetch_hit 187982
Core_0_DTLB_vberti_prefetch_miss 1679
Core_0_DTLB_vberti_prefetch_mshr_merge 88
Core_0_DTLB_vberti_prefetch_fill 1591
Core_0_DTLB_vberti_prefetch_miss_rate 0.00885264
Core_0_DTLB_vberti_prefetch_mpki 0.01679

=== DTLB_vBerti Same/Cross-page Prefetch Stats ===
Core_0_DTLB_vberti_same_page_prefetch 184587
Core_0_DTLB_vberti_same_page_prefetch_hit 184586
Core_0_DTLB_vberti_same_page_prefetch_miss 1
Core_0_DTLB_vberti_same_page_prefetch_mshr_merge 0
Core_0_DTLB_vberti_same_page_prefetch_fill 1
Core_0_DTLB_vberti_same_page_prefetch_miss_rate 5.4175e-06
Core_0_DTLB_vberti_same_page_prefetch_mpki 1e-05
Core_0_DTLB_vberti_cross_page_prefetch 5074
Core_0_DTLB_vberti_cross_page_prefetch_hit 3396
Core_0_DTLB_vberti_cross_page_prefetch_miss 1678
Core_0_DTLB_vberti_cross_page_prefetch_mshr_merge 88
Core_0_DTLB_vberti_cross_page_prefetch_fill 1590
Core_0_DTLB_vberti_cross_page_prefetch_miss_rate 0.330706
Core_0_DTLB_vberti_cross_page_prefetch_mpki 0.01678
Core_0_DTLB_same_page_prefetch_miss_rate 5.4175e-06
Core_0_DTLB_same_page_prefetch_mpki 1e-05
Core_0_DTLB_cross_page_prefetch_miss_rate 0.330706
Core_0_DTLB_cross_page_prefetch_mpki 0.01678
Core_0_DTLB_cross_page_prefetch_issued 5074
Core_0_DTLB_cross_page_prefetch_lookups 5074
Core_0_DTLB_cross_page_prefetch_useful 427
Core_0_DTLB_cross_page_prefetch_useless 1163
Core_0_DTLB_cross_page_prefetch_late 0
Core_0_DTLB_cross_page_prefetch_too_early 539
Core_0_DTLB_cross_page_prefetch_too_early_among_fill 0.338994
Core_0_DTLB_cross_page_prefetch_too_early_among_useless 0.463457
Core_0_DTLB_cross_page_prefetch_pollution_evict 1322
Core_0_DTLB_cross_page_prefetch_pollution_demand 1321
Core_0_DTLB_cross_page_prefetch_pollution_among_prefetch_fill 0.831447
Core_0_DTLB_cross_page_prefetch_accuracy 0.0841545
Core_0_DTLB_cross_page_prefetch_coverage 0.00029685

========= STLB_vBerti Prefetch Stats =========
Core_0_STLB_demand_access 1218511
Core_0_STLB_demand_hit 743886
Core_0_STLB_demand_miss 474625
Core_0_STLB_demand_mshr_merge 0
Core_0_STLB_demand_fill 474625
Core_0_STLB_demand_miss_rate 0.389512
Core_0_STLB_demand_mpki 4.74625
Core_0_STLB_vberti_prefetch_access 1591
Core_0_STLB_vberti_prefetch_hit 530
Core_0_STLB_vberti_prefetch_miss 1061
Core_0_STLB_vberti_prefetch_mshr_merge 0
Core_0_STLB_vberti_prefetch_fill 1061
Core_0_STLB_vberti_prefetch_miss_rate 0.666876
Core_0_STLB_vberti_prefetch_mpki 0.01061

=== STLB_vBerti Same/Cross-page Prefetch Stats ===
Core_0_STLB_vberti_same_page_prefetch 1
Core_0_STLB_vberti_same_page_prefetch_hit 1
Core_0_STLB_vberti_same_page_prefetch_miss 0
Core_0_STLB_vberti_same_page_prefetch_mshr_merge 0
Core_0_STLB_vberti_same_page_prefetch_fill 0
Core_0_STLB_vberti_same_page_prefetch_miss_rate 0
Core_0_STLB_vberti_same_page_prefetch_mpki 0
Core_0_STLB_vberti_cross_page_prefetch 1590
Core_0_STLB_vberti_cross_page_prefetch_hit 529
Core_0_STLB_vberti_cross_page_prefetch_miss 1061
Core_0_STLB_vberti_cross_page_prefetch_mshr_merge 0
Core_0_STLB_vberti_cross_page_prefetch_fill 1061
Core_0_STLB_vberti_cross_page_prefetch_miss_rate 0.667296
Core_0_STLB_vberti_cross_page_prefetch_mpki 0.01061
Core_0_STLB_same_page_prefetch_miss_rate 0
Core_0_STLB_same_page_prefetch_mpki 0
Core_0_STLB_cross_page_prefetch_miss_rate 0.667296
Core_0_STLB_cross_page_prefetch_mpki 0.01061
Core_0_STLB_cross_page_prefetch_issued 1590
Core_0_STLB_cross_page_prefetch_lookups 1590
Core_0_STLB_cross_page_prefetch_useful 617
Core_0_STLB_cross_page_prefetch_useless 444
Core_0_STLB_cross_page_prefetch_late 0
Core_0_STLB_cross_page_prefetch_too_early 398
Core_0_STLB_cross_page_prefetch_too_early_among_fill 0.375118
Core_0_STLB_cross_page_prefetch_too_early_among_useless 0.896396
Core_0_STLB_cross_page_prefetch_pollution_evict 996
Core_0_STLB_cross_page_prefetch_pollution_demand 994
Core_0_STLB_cross_page_prefetch_pollution_among_prefetch_fill 0.938737
Core_0_STLB_cross_page_prefetch_accuracy 0.38805
Core_0_STLB_cross_page_prefetch_coverage 0.00129829

========= STLB Cross-page Prefetch Buffer Stats =========
Core_0_STLB_raw_demand_miss 474593
Core_0_CP_PB_insert 0
Core_0_CP_PB_demand_hit 0
Core_0_STLB_PB_demand_miss 474593
Core_0_CP_PB_coverage 0
Core_0_STLB_raw_demand_mpki 4.74593
Core_0_STLB_PB_demand_mpki 4.74593
Core_0_CP_PB_demand_hit_mpki 0

Core_0_TLB_demand_miss_rate 0.016144
Core_0_TLB_demand_mpki 4.74625
Core_0_TLB_same_page_prefetch_miss_rate 0
Core_0_TLB_same_page_prefetch_mpki 0
Core_0_TLB_cross_page_prefetch_miss_rate 0.209105
Core_0_TLB_cross_page_prefetch_mpki 0.01061
Core_0_TLB_cross_page_prefetch_issued 5074
Core_0_TLB_cross_page_prefetch_lookups 5074
Core_0_TLB_cross_page_prefetch_useful 326
Core_0_TLB_cross_page_prefetch_useless 1056
Core_0_TLB_cross_page_prefetch_late 0
Core_0_TLB_cross_page_prefetch_too_early 540
Core_0_TLB_cross_page_prefetch_too_early_among_fill 0.203697
Core_0_TLB_cross_page_prefetch_too_early_among_useless 0.511364
Core_0_TLB_cross_page_prefetch_accuracy 0.0642491
Core_0_TLB_cross_page_prefetch_coverage 0.000686387
BERTI TO_L1: 148332 TO_L2: 236106 TO_L2_BC_MSHR: 0
BERTI AVG_LAT: 82.3547 NUM_TRACK_LATENCY: 2815987 NUM_CANT_TRACK_LATENCY: 0
BERTI CROSS_PAGE 8128 NO_CROSS_PAGE: 376310
BERTI FOUND_BERTI: 12602556 NO_FOUND_BERTI: 27718819
BERTI AVERAGE_ISSUED: 1.23616
