[VMEM] WARNING: physical memory size is smaller than virtual memory size.

*** ChampSim Multicore Out-of-Order Simulator ***
Warmup Instructions: 50000000
Simulation Instructions: 100000000
Number of CPUs: 1
Page size: 4096
Core 0: /data2/zcq/champsim_traces_gap/pr.kron-90B.champsimtrace.xz
VBerti Prefetcher
BERTI HASH ENTANGLING
BERTI IP MASK ffff
Off-chip DRAM Size: 16 GiB Channels: 1 Width: 64-bit Data Rate: 3205 MT/s
Warmup halting CPU 0 at instruction 50000002 cycle 29204925 for remainder of phase
Warmup finished CPU 0 instructions: 50000002 cycles: 29204925 cumulative IPC: 1.712 (Simulation time: 00 hr 08 min 14 sec)
Warmup complete CPU 0 instructions: 50000002 cycles: 29204925 cumulative IPC: 1.712 (Simulation time: 00 hr 08 min 14 sec)
Simulation CPU 0 warning: IPC 0.023092 < 0.05
Simulation CPU 0 warning: IPC 0.025128 < 0.05
Simulation CPU 0 warning: IPC 0.02627 < 0.05
Simulation CPU 0 warning: IPC 0.022607 < 0.05
Simulation CPU 0 warning: IPC 0.022178 < 0.05
Simulation CPU 0 warning: IPC 0.022712 < 0.05
Simulation CPU 0 warning: IPC 0.023257 < 0.05
Simulation CPU 0 warning: IPC 0.023929 < 0.05
Simulation CPU 0 warning: IPC 0.023464 < 0.05
Simulation CPU 0 warning: IPC 0.022805 < 0.05
Simulation CPU 0 warning: IPC 0.023726 < 0.05
Simulation CPU 0 warning: IPC 0.023925 < 0.05
Simulation CPU 0 warning: IPC 0.023314 < 0.05
Simulation CPU 0 warning: IPC 0.022933 < 0.05
Simulation CPU 0 warning: IPC 0.022726 < 0.05
Simulation CPU 0 warning: IPC 0.022766 < 0.05
Simulation CPU 0 warning: IPC 0.022853 < 0.05
Simulation CPU 0 warning: IPC 0.023454 < 0.05
Simulation CPU 0 warning: IPC 0.02438 < 0.05
Simulation CPU 0 warning: IPC 0.024111 < 0.05
Simulation CPU 0 warning: IPC 0.023742 < 0.05
Simulation CPU 0 warning: IPC 0.023828 < 0.05
Simulation CPU 0 warning: IPC 0.023038 < 0.05
Simulation CPU 0 warning: IPC 0.024119 < 0.05
Simulation CPU 0 warning: IPC 0.024351 < 0.05
Simulation CPU 0 warning: IPC 0.025205 < 0.05
Simulation CPU 0 warning: IPC 0.023757 < 0.05
Simulation CPU 0 warning: IPC 0.02343 < 0.05
Simulation CPU 0 warning: IPC 0.022859 < 0.05
Simulation CPU 0 warning: IPC 0.022102 < 0.05
Simulation CPU 0 warning: IPC 0.023485 < 0.05
Simulation CPU 0 warning: IPC 0.025553 < 0.05
Simulation CPU 0 warning: IPC 0.02463 < 0.05
Simulation CPU 0 warning: IPC 0.023064 < 0.05
Simulation CPU 0 warning: IPC 0.023327 < 0.05
Simulation CPU 0 warning: IPC 0.02327 < 0.05
Simulation CPU 0 warning: IPC 0.023768 < 0.05
Simulation CPU 0 warning: IPC 0.024207 < 0.05
Simulation CPU 0 warning: IPC 0.023918 < 0.05
Simulation CPU 0 warning: IPC 0.025121 < 0.05
Simulation CPU 0 warning: IPC 0.024571 < 0.05
Simulation CPU 0 warning: IPC 0.024566 < 0.05
Simulation CPU 0 warning: IPC 0.022824 < 0.05
Simulation CPU 0 warning: IPC 0.024768 < 0.05
Simulation CPU 0 warning: IPC 0.022973 < 0.05
Simulation CPU 0 warning: IPC 0.023864 < 0.05
Simulation CPU 0 warning: IPC 0.022765 < 0.05
Simulation CPU 0 warning: IPC 0.022205 < 0.05
Simulation CPU 0 warning: IPC 0.024478 < 0.05
Simulation CPU 0 warning: IPC 0.022823 < 0.05
Simulation CPU 0 warning: IPC 0.023772 < 0.05
Simulation CPU 0 warning: IPC 0.023044 < 0.05
Simulation CPU 0 warning: IPC 0.024202 < 0.05
Simulation CPU 0 warning: IPC 0.023042 < 0.05
Simulation CPU 0 warning: IPC 0.02346 < 0.05
Simulation CPU 0 warning: IPC 0.023286 < 0.05
Simulation CPU 0 warning: IPC 0.022804 < 0.05
Simulation CPU 0 warning: IPC 0.023738 < 0.05
Simulation CPU 0 warning: IPC 0.022528 < 0.05
Simulation CPU 0 warning: IPC 0.024447 < 0.05
Simulation CPU 0 warning: IPC 0.023141 < 0.05
Simulation CPU 0 warning: IPC 0.022849 < 0.05
Simulation CPU 0 warning: IPC 0.023323 < 0.05
Simulation CPU 0 warning: IPC 0.022076 < 0.05
Simulation CPU 0 warning: IPC 0.02341 < 0.05
Simulation CPU 0 warning: IPC 0.022493 < 0.05
Simulation CPU 0 warning: IPC 0.024022 < 0.05
Simulation CPU 0 warning: IPC 0.024547 < 0.05
Simulation CPU 0 warning: IPC 0.024875 < 0.05
Simulation CPU 0 warning: IPC 0.024376 < 0.05
Simulation CPU 0 warning: IPC 0.023903 < 0.05
Simulation CPU 0 warning: IPC 0.02361 < 0.05
Simulation CPU 0 warning: IPC 0.022349 < 0.05
Simulation CPU 0 warning: IPC 0.022289 < 0.05
Simulation CPU 0 warning: IPC 0.022149 < 0.05
Simulation CPU 0 warning: IPC 0.023974 < 0.05
Simulation CPU 0 warning: IPC 0.023112 < 0.05
Simulation CPU 0 warning: IPC 0.02257 < 0.05
Simulation CPU 0 warning: IPC 0.02311 < 0.05
Simulation CPU 0 warning: IPC 0.0232 < 0.05
Simulation CPU 0 warning: IPC 0.024537 < 0.05
Simulation CPU 0 warning: IPC 0.022521 < 0.05
Simulation CPU 0 warning: IPC 0.02426 < 0.05
Simulation CPU 0 warning: IPC 0.023473 < 0.05
Simulation CPU 0 warning: IPC 0.024094 < 0.05
Simulation CPU 0 warning: IPC 0.024408 < 0.05
Simulation CPU 0 warning: IPC 0.024328 < 0.05
Simulation CPU 0 warning: IPC 0.023443 < 0.05
Simulation CPU 0 warning: IPC 0.024871 < 0.05
Simulation CPU 0 warning: IPC 0.023358 < 0.05
Simulation CPU 0 warning: IPC 0.022116 < 0.05
Simulation CPU 0 warning: IPC 0.02445 < 0.05
Simulation CPU 0 warning: IPC 0.022422 < 0.05
Simulation CPU 0 warning: IPC 0.022698 < 0.05
Simulation CPU 0 warning: IPC 0.02413 < 0.05
Simulation CPU 0 warning: IPC 0.022743 < 0.05
Simulation CPU 0 warning: IPC 0.022111 < 0.05
Simulation CPU 0 warning: IPC 0.023102 < 0.05
Simulation CPU 0 warning: IPC 0.023455 < 0.05
Simulation CPU 0 warning: IPC 0.02376 < 0.05
Simulation CPU 0 warning: IPC 0.023173 < 0.05
Simulation CPU 0 warning: IPC 0.023668 < 0.05
Simulation CPU 0 warning: IPC 0.023427 < 0.05
Simulation CPU 0 warning: IPC 0.023417 < 0.05
Simulation CPU 0 warning: IPC 0.024953 < 0.05
Simulation CPU 0 warning: IPC 0.022762 < 0.05
Simulation CPU 0 warning: IPC 0.023936 < 0.05
Simulation CPU 0 warning: IPC 0.023467 < 0.05
Simulation CPU 0 warning: IPC 0.022974 < 0.05
Simulation CPU 0 warning: IPC 0.023012 < 0.05
Simulation CPU 0 warning: IPC 0.022365 < 0.05
Simulation CPU 0 warning: IPC 0.022677 < 0.05
Simulation CPU 0 warning: IPC 0.023606 < 0.05
Simulation CPU 0 warning: IPC 0.024616 < 0.05
Simulation CPU 0 warning: IPC 0.023828 < 0.05
Simulation CPU 0 warning: IPC 0.023998 < 0.05
Simulation CPU 0 warning: IPC 0.023613 < 0.05
Simulation CPU 0 warning: IPC 0.023615 < 0.05
Simulation CPU 0 warning: IPC 0.025624 < 0.05
Simulation CPU 0 warning: IPC 0.024353 < 0.05
Simulation CPU 0 warning: IPC 0.023648 < 0.05
Simulation CPU 0 warning: IPC 0.023942 < 0.05
Simulation CPU 0 warning: IPC 0.024177 < 0.05
Simulation CPU 0 warning: IPC 0.024639 < 0.05
Simulation CPU 0 warning: IPC 0.024091 < 0.05
Simulation CPU 0 warning: IPC 0.022905 < 0.05
Simulation CPU 0 warning: IPC 0.023738 < 0.05
Simulation CPU 0 warning: IPC 0.024505 < 0.05
Simulation CPU 0 warning: IPC 0.024145 < 0.05
Simulation CPU 0 warning: IPC 0.024727 < 0.05
Simulation CPU 0 warning: IPC 0.022889 < 0.05
Simulation CPU 0 warning: IPC 0.022093 < 0.05
Simulation CPU 0 warning: IPC 0.023085 < 0.05
Simulation CPU 0 warning: IPC 0.02464 < 0.05
Simulation CPU 0 warning: IPC 0.023959 < 0.05
Simulation CPU 0 warning: IPC 0.022833 < 0.05
Simulation CPU 0 warning: IPC 0.022772 < 0.05
Simulation CPU 0 warning: IPC 0.024506 < 0.05
Simulation CPU 0 warning: IPC 0.022265 < 0.05
Simulation CPU 0 warning: IPC 0.02297 < 0.05
Simulation CPU 0 warning: IPC 0.024792 < 0.05
Simulation CPU 0 warning: IPC 0.023872 < 0.05
Simulation CPU 0 warning: IPC 0.023256 < 0.05
Simulation CPU 0 warning: IPC 0.024456 < 0.05
Simulation CPU 0 warning: IPC 0.022853 < 0.05
Simulation CPU 0 warning: IPC 0.022523 < 0.05
Simulation CPU 0 warning: IPC 0.022675 < 0.05
Simulation CPU 0 warning: IPC 0.022503 < 0.05
Simulation CPU 0 warning: IPC 0.022697 < 0.05
Simulation CPU 0 warning: IPC 0.023505 < 0.05
Simulation CPU 0 warning: IPC 0.02385 < 0.05
Simulation CPU 0 warning: IPC 0.023848 < 0.05
Simulation CPU 0 warning: IPC 0.023894 < 0.05
Simulation CPU 0 warning: IPC 0.024133 < 0.05
Simulation CPU 0 warning: IPC 0.023974 < 0.05
Simulation CPU 0 warning: IPC 0.024029 < 0.05
Simulation CPU 0 warning: IPC 0.023527 < 0.05
Simulation CPU 0 warning: IPC 0.022295 < 0.05
Simulation CPU 0 warning: IPC 0.021248 < 0.05
Simulation CPU 0 warning: IPC 0.023113 < 0.05
Simulation CPU 0 warning: IPC 0.022555 < 0.05
Simulation CPU 0 warning: IPC 0.023153 < 0.05
Simulation CPU 0 warning: IPC 0.023556 < 0.05
Simulation CPU 0 warning: IPC 0.022759 < 0.05
Simulation CPU 0 warning: IPC 0.021605 < 0.05
Simulation CPU 0 warning: IPC 0.022829 < 0.05
Simulation CPU 0 warning: IPC 0.023005 < 0.05
Simulation CPU 0 warning: IPC 0.022653 < 0.05
Simulation CPU 0 warning: IPC 0.021433 < 0.05
Simulation CPU 0 warning: IPC 0.023436 < 0.05
Simulation CPU 0 warning: IPC 0.02417 < 0.05
Simulation CPU 0 warning: IPC 0.0243 < 0.05
Simulation CPU 0 warning: IPC 0.022442 < 0.05
Simulation CPU 0 warning: IPC 0.02216 < 0.05
Simulation CPU 0 warning: IPC 0.023543 < 0.05
Simulation CPU 0 warning: IPC 0.023038 < 0.05
Simulation CPU 0 warning: IPC 0.022121 < 0.05
Simulation CPU 0 warning: IPC 0.024272 < 0.05
Simulation CPU 0 warning: IPC 0.023088 < 0.05
Simulation CPU 0 warning: IPC 0.02346 < 0.05
Simulation CPU 0 warning: IPC 0.022696 < 0.05
Simulation CPU 0 warning: IPC 0.023183 < 0.05
Simulation CPU 0 warning: IPC 0.02284 < 0.05
Simulation CPU 0 warning: IPC 0.023374 < 0.05
Simulation CPU 0 warning: IPC 0.024242 < 0.05
Simulation CPU 0 warning: IPC 0.024952 < 0.05
Simulation CPU 0 warning: IPC 0.022371 < 0.05
Simulation CPU 0 warning: IPC 0.023893 < 0.05
Simulation CPU 0 warning: IPC 0.023596 < 0.05
Simulation CPU 0 warning: IPC 0.023937 < 0.05
Simulation CPU 0 warning: IPC 0.023235 < 0.05
Simulation CPU 0 warning: IPC 0.023728 < 0.05
Simulation CPU 0 warning: IPC 0.023833 < 0.05
Simulation CPU 0 warning: IPC 0.024821 < 0.05
Simulation CPU 0 warning: IPC 0.023826 < 0.05
Simulation CPU 0 warning: IPC 0.02349 < 0.05
Simulation CPU 0 warning: IPC 0.022919 < 0.05
Simulation CPU 0 warning: IPC 0.022609 < 0.05
Simulation CPU 0 warning: IPC 0.023787 < 0.05
Simulation CPU 0 warning: IPC 0.023597 < 0.05
Simulation CPU 0 warning: IPC 0.022973 < 0.05
Simulation CPU 0 warning: IPC 0.022604 < 0.05
Simulation CPU 0 warning: IPC 0.022064 < 0.05
Simulation CPU 0 warning: IPC 0.023279 < 0.05
Simulation CPU 0 warning: IPC 0.024243 < 0.05
Simulation CPU 0 warning: IPC 0.023296 < 0.05
Simulation CPU 0 warning: IPC 0.024254 < 0.05
Simulation CPU 0 warning: IPC 0.024851 < 0.05
Simulation CPU 0 warning: IPC 0.023426 < 0.05
Simulation CPU 0 warning: IPC 0.023571 < 0.05
Simulation CPU 0 warning: IPC 0.022484 < 0.05
Simulation CPU 0 warning: IPC 0.022631 < 0.05
Simulation CPU 0 warning: IPC 0.024418 < 0.05
Simulation CPU 0 warning: IPC 0.024069 < 0.05
Simulation CPU 0 warning: IPC 0.023004 < 0.05
Simulation CPU 0 warning: IPC 0.02459 < 0.05
Simulation CPU 0 warning: IPC 0.024694 < 0.05
Simulation CPU 0 warning: IPC 0.022895 < 0.05
Simulation CPU 0 warning: IPC 0.023789 < 0.05
Simulation CPU 0 warning: IPC 0.023367 < 0.05
Simulation CPU 0 warning: IPC 0.023492 < 0.05
Simulation CPU 0 warning: IPC 0.023558 < 0.05
Simulation CPU 0 warning: IPC 0.024621 < 0.05
Simulation CPU 0 warning: IPC 0.023332 < 0.05
Simulation CPU 0 warning: IPC 0.022901 < 0.05
Simulation CPU 0 warning: IPC 0.024685 < 0.05
Simulation CPU 0 warning: IPC 0.023161 < 0.05
Simulation CPU 0 warning: IPC 0.024709 < 0.05
Simulation CPU 0 warning: IPC 0.025548 < 0.05
Simulation CPU 0 warning: IPC 0.022573 < 0.05
Simulation CPU 0 warning: IPC 0.023163 < 0.05
Simulation CPU 0 warning: IPC 0.023556 < 0.05
Simulation CPU 0 warning: IPC 0.024015 < 0.05
Simulation CPU 0 warning: IPC 0.023169 < 0.05
Simulation CPU 0 warning: IPC 0.023012 < 0.05
Simulation CPU 0 warning: IPC 0.024081 < 0.05
Simulation CPU 0 warning: IPC 0.0242 < 0.05
Simulation CPU 0 warning: IPC 0.022853 < 0.05
Simulation CPU 0 warning: IPC 0.024016 < 0.05
Simulation CPU 0 warning: IPC 0.022672 < 0.05
Simulation CPU 0 warning: IPC 0.023942 < 0.05
Simulation CPU 0 warning: IPC 0.024411 < 0.05
Simulation CPU 0 warning: IPC 0.023851 < 0.05
Simulation CPU 0 warning: IPC 0.022311 < 0.05
Simulation CPU 0 warning: IPC 0.021679 < 0.05
Simulation CPU 0 warning: IPC 0.023737 < 0.05
Simulation CPU 0 warning: IPC 0.02348 < 0.05
Simulation CPU 0 warning: IPC 0.022212 < 0.05
Simulation CPU 0 warning: IPC 0.022129 < 0.05
Simulation CPU 0 warning: IPC 0.023448 < 0.05
Simulation CPU 0 warning: IPC 0.022283 < 0.05
Simulation CPU 0 warning: IPC 0.023525 < 0.05
Simulation CPU 0 warning: IPC 0.024416 < 0.05
Simulation CPU 0 warning: IPC 0.024724 < 0.05
Simulation CPU 0 warning: IPC 0.023935 < 0.05
Simulation CPU 0 warning: IPC 0.0233 < 0.05
Simulation CPU 0 warning: IPC 0.023318 < 0.05
Simulation CPU 0 warning: IPC 0.023111 < 0.05
Simulation CPU 0 warning: IPC 0.023966 < 0.05
Simulation CPU 0 warning: IPC 0.02325 < 0.05
Simulation CPU 0 warning: IPC 0.02315 < 0.05
Simulation CPU 0 warning: IPC 0.024257 < 0.05
Simulation CPU 0 warning: IPC 0.024397 < 0.05
Simulation CPU 0 warning: IPC 0.02427 < 0.05
Simulation CPU 0 warning: IPC 0.022354 < 0.05
Simulation CPU 0 warning: IPC 0.023425 < 0.05
Simulation CPU 0 warning: IPC 0.022497 < 0.05
Simulation CPU 0 warning: IPC 0.024268 < 0.05
Simulation CPU 0 warning: IPC 0.023088 < 0.05
Simulation CPU 0 warning: IPC 0.024457 < 0.05
Simulation CPU 0 warning: IPC 0.022212 < 0.05
Simulation CPU 0 warning: IPC 0.023508 < 0.05
Simulation CPU 0 warning: IPC 0.024347 < 0.05
Simulation CPU 0 warning: IPC 0.023799 < 0.05
Simulation CPU 0 warning: IPC 0.023364 < 0.05
Simulation CPU 0 warning: IPC 0.022997 < 0.05
Simulation CPU 0 warning: IPC 0.023471 < 0.05
Simulation CPU 0 warning: IPC 0.024113 < 0.05
Simulation CPU 0 warning: IPC 0.022414 < 0.05
Simulation CPU 0 warning: IPC 0.023596 < 0.05
Simulation CPU 0 warning: IPC 0.024068 < 0.05
Simulation CPU 0 warning: IPC 0.023187 < 0.05
Simulation CPU 0 warning: IPC 0.023675 < 0.05
Simulation CPU 0 warning: IPC 0.023656 < 0.05
Simulation CPU 0 warning: IPC 0.02216 < 0.05
Simulation CPU 0 warning: IPC 0.022134 < 0.05
Simulation CPU 0 warning: IPC 0.024984 < 0.05
Simulation CPU 0 warning: IPC 0.023691 < 0.05
Simulation CPU 0 warning: IPC 0.024103 < 0.05
Simulation CPU 0 warning: IPC 0.022539 < 0.05
Simulation CPU 0 warning: IPC 0.024906 < 0.05
Simulation CPU 0 warning: IPC 0.024047 < 0.05
Simulation CPU 0 warning: IPC 0.024592 < 0.05
Simulation CPU 0 warning: IPC 0.022891 < 0.05
Simulation CPU 0 warning: IPC 0.022472 < 0.05
Simulation CPU 0 warning: IPC 0.024833 < 0.05
Simulation CPU 0 warning: IPC 0.023566 < 0.05
Simulation CPU 0 warning: IPC 0.024191 < 0.05
Simulation CPU 0 warning: IPC 0.022846 < 0.05
Simulation CPU 0 warning: IPC 0.023657 < 0.05
Simulation CPU 0 warning: IPC 0.023891 < 0.05
Simulation CPU 0 warning: IPC 0.024158 < 0.05
Simulation CPU 0 warning: IPC 0.025246 < 0.05
Simulation CPU 0 warning: IPC 0.024154 < 0.05
Simulation CPU 0 warning: IPC 0.022239 < 0.05
Simulation CPU 0 warning: IPC 0.022568 < 0.05
Simulation CPU 0 warning: IPC 0.023569 < 0.05
Simulation CPU 0 warning: IPC 0.023958 < 0.05
Simulation CPU 0 warning: IPC 0.02377 < 0.05
Simulation CPU 0 warning: IPC 0.024434 < 0.05
Simulation CPU 0 warning: IPC 0.023796 < 0.05
Simulation CPU 0 warning: IPC 0.025088 < 0.05
Simulation CPU 0 warning: IPC 0.023945 < 0.05
Simulation CPU 0 warning: IPC 0.02326 < 0.05
Simulation CPU 0 warning: IPC 0.024442 < 0.05
Simulation CPU 0 warning: IPC 0.024983 < 0.05
Simulation CPU 0 warning: IPC 0.023944 < 0.05
Simulation CPU 0 warning: IPC 0.022985 < 0.05
Simulation CPU 0 warning: IPC 0.024164 < 0.05
Simulation CPU 0 warning: IPC 0.024702 < 0.05
Simulation CPU 0 warning: IPC 0.025506 < 0.05
Simulation CPU 0 warning: IPC 0.024807 < 0.05
Simulation CPU 0 warning: IPC 0.024142 < 0.05
Simulation CPU 0 warning: IPC 0.025731 < 0.05
Simulation CPU 0 warning: IPC 0.023508 < 0.05
Simulation CPU 0 warning: IPC 0.02307 < 0.05
Simulation CPU 0 warning: IPC 0.022443 < 0.05
Simulation CPU 0 warning: IPC 0.022891 < 0.05
Simulation CPU 0 warning: IPC 0.023941 < 0.05
Simulation CPU 0 warning: IPC 0.023264 < 0.05
Simulation CPU 0 warning: IPC 0.023271 < 0.05
Simulation CPU 0 warning: IPC 0.024142 < 0.05
Simulation CPU 0 warning: IPC 0.023414 < 0.05
Simulation CPU 0 warning: IPC 0.02397 < 0.05
Simulation CPU 0 warning: IPC 0.023023 < 0.05
Simulation CPU 0 warning: IPC 0.022124 < 0.05
Simulation CPU 0 warning: IPC 0.02176 < 0.05
Simulation CPU 0 warning: IPC 0.022825 < 0.05
Simulation CPU 0 warning: IPC 0.023843 < 0.05
Simulation CPU 0 warning: IPC 0.024584 < 0.05
Simulation CPU 0 warning: IPC 0.023433 < 0.05
Simulation CPU 0 warning: IPC 0.024407 < 0.05
Simulation CPU 0 warning: IPC 0.025192 < 0.05
Simulation CPU 0 warning: IPC 0.024429 < 0.05
Simulation CPU 0 warning: IPC 0.024669 < 0.05
Simulation CPU 0 warning: IPC 0.023615 < 0.05
Simulation CPU 0 warning: IPC 0.022811 < 0.05
Simulation CPU 0 warning: IPC 0.024057 < 0.05
Simulation CPU 0 warning: IPC 0.023696 < 0.05
Simulation CPU 0 warning: IPC 0.022301 < 0.05
Simulation CPU 0 warning: IPC 0.02496 < 0.05
Simulation CPU 0 warning: IPC 0.022873 < 0.05
Simulation CPU 0 warning: IPC 0.023608 < 0.05
Simulation CPU 0 warning: IPC 0.024422 < 0.05
Simulation CPU 0 warning: IPC 0.023731 < 0.05
Simulation CPU 0 warning: IPC 0.024643 < 0.05
Simulation CPU 0 warning: IPC 0.024626 < 0.05
Simulation CPU 0 warning: IPC 0.02443 < 0.05
Simulation CPU 0 warning: IPC 0.025261 < 0.05
Simulation CPU 0 warning: IPC 0.024231 < 0.05
Simulation CPU 0 warning: IPC 0.024275 < 0.05
Simulation CPU 0 warning: IPC 0.02417 < 0.05
Simulation CPU 0 warning: IPC 0.023397 < 0.05
Simulation CPU 0 warning: IPC 0.024672 < 0.05
Simulation CPU 0 warning: IPC 0.023548 < 0.05
Simulation CPU 0 warning: IPC 0.023252 < 0.05
Simulation CPU 0 warning: IPC 0.022802 < 0.05
Simulation CPU 0 warning: IPC 0.024392 < 0.05
Simulation CPU 0 warning: IPC 0.024199 < 0.05
Simulation CPU 0 warning: IPC 0.023599 < 0.05
Simulation CPU 0 warning: IPC 0.023731 < 0.05
Simulation CPU 0 warning: IPC 0.023228 < 0.05
Simulation CPU 0 warning: IPC 0.022178 < 0.05
Simulation CPU 0 warning: IPC 0.022139 < 0.05
Simulation CPU 0 warning: IPC 0.022507 < 0.05
Simulation CPU 0 warning: IPC 0.024125 < 0.05
Simulation CPU 0 warning: IPC 0.024116 < 0.05
Simulation CPU 0 warning: IPC 0.024937 < 0.05
Simulation CPU 0 warning: IPC 0.02323 < 0.05
Simulation CPU 0 warning: IPC 0.02451 < 0.05
Simulation CPU 0 warning: IPC 0.023043 < 0.05
Simulation CPU 0 warning: IPC 0.02291 < 0.05
Simulation CPU 0 warning: IPC 0.024334 < 0.05
Simulation CPU 0 warning: IPC 0.023804 < 0.05
Simulation CPU 0 warning: IPC 0.023036 < 0.05
Simulation CPU 0 warning: IPC 0.023858 < 0.05
Simulation CPU 0 warning: IPC 0.02192 < 0.05
Simulation CPU 0 warning: IPC 0.023683 < 0.05
Simulation CPU 0 warning: IPC 0.02454 < 0.05
Simulation CPU 0 warning: IPC 0.023485 < 0.05
Simulation CPU 0 warning: IPC 0.023338 < 0.05
Simulation CPU 0 warning: IPC 0.023015 < 0.05
Simulation CPU 0 warning: IPC 0.024317 < 0.05
Simulation CPU 0 warning: IPC 0.024459 < 0.05
Simulation CPU 0 warning: IPC 0.02444 < 0.05
Simulation CPU 0 warning: IPC 0.024053 < 0.05
Simulation CPU 0 warning: IPC 0.024099 < 0.05
Simulation CPU 0 warning: IPC 0.023409 < 0.05
Simulation CPU 0 warning: IPC 0.024365 < 0.05
Simulation CPU 0 warning: IPC 0.023233 < 0.05
Simulation CPU 0 warning: IPC 0.024702 < 0.05
Simulation CPU 0 warning: IPC 0.023586 < 0.05
Simulation CPU 0 warning: IPC 0.023528 < 0.05
Simulation CPU 0 warning: IPC 0.023375 < 0.05
Simulation CPU 0 warning: IPC 0.023516 < 0.05
Simulation CPU 0 warning: IPC 0.023181 < 0.05
Simulation CPU 0 warning: IPC 0.02402 < 0.05
Simulation CPU 0 warning: IPC 0.022232 < 0.05
Simulation CPU 0 warning: IPC 0.023335 < 0.05
Simulation CPU 0 warning: IPC 0.022992 < 0.05
Simulation CPU 0 warning: IPC 0.024446 < 0.05
Simulation CPU 0 warning: IPC 0.024018 < 0.05
Simulation CPU 0 warning: IPC 0.022674 < 0.05
Simulation CPU 0 warning: IPC 0.023162 < 0.05
Simulation CPU 0 warning: IPC 0.024263 < 0.05
Simulation CPU 0 warning: IPC 0.023183 < 0.05
Simulation CPU 0 warning: IPC 0.024365 < 0.05
Simulation CPU 0 warning: IPC 0.024262 < 0.05
Simulation CPU 0 warning: IPC 0.023626 < 0.05
Simulation CPU 0 warning: IPC 0.023931 < 0.05
Simulation CPU 0 warning: IPC 0.024039 < 0.05
Simulation CPU 0 warning: IPC 0.02406 < 0.05
Simulation CPU 0 warning: IPC 0.024241 < 0.05
Simulation CPU 0 warning: IPC 0.024874 < 0.05
Simulation finished CPU 0 instructions: 100000003 cycles: 4241255199 cumulative IPC: 0.02358 (Simulation time: 05 hr 57 min 09 sec)
Simulation complete CPU 0 instructions: 100000003 cycles: 4241255199 cumulative IPC: 0.02358 (Simulation time: 05 hr 57 min 09 sec)

ChampSim completed all CPUs

=== Simulation ===
CPU 0 runs /data2/zcq/champsim_traces_gap/pr.kron-90B.champsimtrace.xz

Region of Interest Statistics

CPU 0 cumulative IPC: 0.02358 instructions: 100000003 cycles: 4241255199
CPU 0 Branch Prediction Accuracy: 97.3% MPKI: 5.276 Average ROB Occupancy at Mispredict: 240.3
Branch type MPKI
BRANCH_DIRECT_JUMP: 0
BRANCH_INDIRECT: 0
BRANCH_CONDITIONAL: 5.276
BRANCH_DIRECT_CALL: 0
BRANCH_INDIRECT_CALL: 0
BRANCH_RETURN: 0

cpu0->cpu0_STLB TOTAL        ACCESS:   17064606 HIT:     267373 MISS:   16797233 MSHR_MERGE:          0
cpu0->cpu0_STLB LOAD         ACCESS:   17064606 HIT:     267373 MISS:   16797233 MSHR_MERGE:          0
cpu0->cpu0_STLB RFO          ACCESS:          0 HIT:          0 MISS:          0 MSHR_MERGE:          0
cpu0->cpu0_STLB PREFETCH     ACCESS:          0 HIT:          0 MISS:          0 MSHR_MERGE:          0
cpu0->cpu0_STLB WRITE        ACCESS:          0 HIT:          0 MISS:          0 MSHR_MERGE:          0
cpu0->cpu0_STLB TRANSLATION  ACCESS:          0 HIT:          0 MISS:          0 MSHR_MERGE:          0
cpu0->cpu0_STLB PREFETCH REQUESTED:          0 ISSUED:          0 USEFUL:          0 USELESS:          0 LATE:          0 TOO_EARLY:          0
cpu0->cpu0_STLB AVERAGE MISS LATENCY: 35.36 cycles
cpu0->cpu0_L2C TOTAL        ACCESS:   39761304 HIT:    8426683 MISS:   31334621 MSHR_MERGE:      26408
cpu0->cpu0_L2C LOAD         ACCESS:   18099391 HIT:     266492 MISS:   17832899 MSHR_MERGE:        963
cpu0->cpu0_L2C RFO          ACCESS:      15677 HIT:      13585 MISS:       2092 MSHR_MERGE:          0
cpu0->cpu0_L2C PREFETCH     ACCESS:    6868434 HIT:    5561810 MISS:    1306624 MSHR_MERGE:      25445
cpu0->cpu0_L2C WRITE        ACCESS:      64093 HIT:      64087 MISS:          6 MSHR_MERGE:          0
cpu0->cpu0_L2C TRANSLATION  ACCESS:   14713709 HIT:    2520709 MISS:   12193000 MSHR_MERGE:          0
cpu0->cpu0_L2C PREFETCH REQUESTED:    3437453 ISSUED:    3437443 USEFUL:     993807 USELESS:      39403 LATE:        913 TOO_EARLY:       3940
cpu0->cpu0_L2C AVERAGE MISS LATENCY: 115.5 cycles
cpu0->cpu0_L1I TOTAL        ACCESS:   14893997 HIT:   14893997 MISS:          0 MSHR_MERGE:          0
cpu0->cpu0_L1I LOAD         ACCESS:   14893997 HIT:   14893997 MISS:          0 MSHR_MERGE:          0
cpu0->cpu0_L1I RFO          ACCESS:          0 HIT:          0 MISS:          0 MSHR_MERGE:          0
cpu0->cpu0_L1I PREFETCH     ACCESS:          0 HIT:          0 MISS:          0 MSHR_MERGE:          0
cpu0->cpu0_L1I WRITE        ACCESS:          0 HIT:          0 MISS:          0 MSHR_MERGE:          0
cpu0->cpu0_L1I TRANSLATION  ACCESS:          0 HIT:          0 MISS:          0 MSHR_MERGE:          0
cpu0->cpu0_L1I PREFETCH REQUESTED:          0 ISSUED:          0 USEFUL:          0 USELESS:          0 LATE:          0 TOO_EARLY:          0
cpu0->cpu0_L1I AVERAGE MISS LATENCY: - cycles
cpu0->cpu0_L1D TOTAL        ACCESS:   99745135 HIT:   63370279 MISS:   36374856 MSHR_MERGE:     112533
cpu0->cpu0_L1D LOAD         ACCESS:   37625357 HIT:   19468540 MISS:   18156817 MSHR_MERGE:      57427
cpu0->cpu0_L1D RFO          ACCESS:          0 HIT:          0 MISS:          0 MSHR_MERGE:          0
cpu0->cpu0_L1D PREFETCH     ACCESS:   22394966 HIT:   18937610 MISS:    3457356 MSHR_MERGE:      23808
cpu0->cpu0_L1D WRITE        ACCESS:     628321 HIT:     581347 MISS:      46974 MSHR_MERGE:      31297
cpu0->cpu0_L1D TRANSLATION  ACCESS:   39096491 HIT:   24382782 MISS:   14713709 MSHR_MERGE:          1
cpu0->cpu0_L1D PREFETCH REQUESTED:   23984876 ISSUED:   22394958 USEFUL:    1225402 USELESS:      43076 LATE:       4345 TOO_EARLY:       2205
cpu0->cpu0_L1D AVERAGE MISS LATENCY: 114.6 cycles
cpu0->cpu0_ITLB TOTAL        ACCESS:   14893997 HIT:   14893997 MISS:          0 MSHR_MERGE:          0
cpu0->cpu0_ITLB LOAD         ACCESS:   14893997 HIT:   14893997 MISS:          0 MSHR_MERGE:          0
cpu0->cpu0_ITLB RFO          ACCESS:          0 HIT:          0 MISS:          0 MSHR_MERGE:          0
cpu0->cpu0_ITLB PREFETCH     ACCESS:          0 HIT:          0 MISS:          0 MSHR_MERGE:          0
cpu0->cpu0_ITLB WRITE        ACCESS:          0 HIT:          0 MISS:          0 MSHR_MERGE:          0
cpu0->cpu0_ITLB TRANSLATION  ACCESS:          0 HIT:          0 MISS:          0 MSHR_MERGE:          0
cpu0->cpu0_ITLB PREFETCH REQUESTED:          0 ISSUED:          0 USEFUL:          0 USELESS:          0 LATE:          0 TOO_EARLY:          0
cpu0->cpu0_ITLB AVERAGE MISS LATENCY: - cycles
cpu0->cpu0_DTLB TOTAL        ACCESS:   58461586 HIT:   41352754 MISS:   17108832 MSHR_MERGE:      44227
cpu0->cpu0_DTLB LOAD         ACCESS:   58461586 HIT:   41352754 MISS:   17108832 MSHR_MERGE:      44227
cpu0->cpu0_DTLB RFO          ACCESS:          0 HIT:          0 MISS:          0 MSHR_MERGE:          0
cpu0->cpu0_DTLB PREFETCH     ACCESS:          0 HIT:          0 MISS:          0 MSHR_MERGE:          0
cpu0->cpu0_DTLB WRITE        ACCESS:          0 HIT:          0 MISS:          0 MSHR_MERGE:          0
cpu0->cpu0_DTLB TRANSLATION  ACCESS:          0 HIT:          0 MISS:          0 MSHR_MERGE:          0
cpu0->cpu0_DTLB PREFETCH REQUESTED:          0 ISSUED:          0 USEFUL:          0 USELESS:          0 LATE:          0 TOO_EARLY:          0
cpu0->cpu0_DTLB AVERAGE MISS LATENCY: 40.79 cycles
cpu0->LLC TOTAL        ACCESS:   31346397 HIT:   13346127 MISS:   18000270 MSHR_MERGE:          2
cpu0->LLC LOAD         ACCESS:   17831936 HIT:    1566705 MISS:   16265231 MSHR_MERGE:          0
cpu0->LLC RFO          ACCESS:       2092 HIT:       2081 MISS:         11 MSHR_MERGE:          0
cpu0->LLC PREFETCH     ACCESS:    1281179 HIT:       1184 MISS:    1279995 MSHR_MERGE:          2
cpu0->LLC WRITE        ACCESS:      38189 HIT:      11459 MISS:      26730 MSHR_MERGE:          0
cpu0->LLC TRANSLATION  ACCESS:   12193001 HIT:   11764698 MISS:     428303 MSHR_MERGE:          0
cpu0->LLC PREFETCH REQUESTED:          0 ISSUED:          0 USEFUL:          0 USELESS:          0 LATE:          0 TOO_EARLY:          0
cpu0->LLC AVERAGE MISS LATENCY: 179.5 cycles

DRAM Statistics

Channel 0 RQ ROW_BUFFER_HIT:      27328
  ROW_BUFFER_MISS:   17946211
  AVG DBUS CONGESTED CYCLE: 14.65
Channel 0 WQ ROW_BUFFER_HIT:       5284
  ROW_BUFFER_MISS:      29183
  FULL:          0
Channel 0 REFRESHES ISSUED:     353438

[ROI Statistics]
[System Configuration]
num_cpus 1
cpu_freq 4000
fetch_width 6
decode_width 6
dispatch_width 6
execute_width 6
lq_width 2
sq_width 2
retire_width 6
scheduler_size 128
branch_mispredict_penalty 15
rob_size 352
lq_size 128
sq_size 72
ifetch_buffer_size 64
decode_buffer_size 32
dispatch_buffer_size 32
register_file_size 288
decode_latency 1
dispatch_latency 1
schedule_latency 1
execute_latency 1
page_size 4096
block_size 64
core_0_itlb_set 16
core_0_itlb_way 4
core_0_itlb_rq_size 16
core_0_itlb_wq_size 16
core_0_itlb_pq_size 0
core_0_itlb_mshr_size 8
core_0_itlb_hit_latency 1
core_0_itlb_fill_latency 1
core_0_itlb_max_tag_check 2
core_0_itlb_max_fill 2
core_0_dtlb_set 16
core_0_dtlb_way 4
core_0_dtlb_rq_size 16
core_0_dtlb_wq_size 16
core_0_dtlb_pq_size 0
core_0_dtlb_mshr_size 8
core_0_dtlb_hit_latency 1
core_0_dtlb_fill_latency 1
core_0_dtlb_max_tag_check 2
core_0_dtlb_max_fill 2
core_0_stlb_set 128
core_0_stlb_way 12
core_0_stlb_rq_size 32
core_0_stlb_wq_size 32
core_0_stlb_pq_size 0
core_0_stlb_mshr_size 16
core_0_stlb_hit_latency 4
core_0_stlb_fill_latency 4
core_0_stlb_max_tag_check 1
core_0_stlb_max_fill 1
core_0_l1i_set 64
core_0_l1i_way 8
core_0_l1i_rq_size 64
core_0_l1i_wq_size 64
core_0_l1i_pq_size 32
core_0_l1i_mshr_size 8
core_0_l1i_hit_latency 2
core_0_l1i_fill_latency 2
core_0_l1i_max_tag_check 2
core_0_l1i_max_fill 2
core_0_l1d_set 64
core_0_l1d_way 12
core_0_l1d_rq_size 64
core_0_l1d_wq_size 64
core_0_l1d_pq_size 8
core_0_l1d_mshr_size 16
core_0_l1d_hit_latency 2
core_0_l1d_fill_latency 3
core_0_l1d_max_tag_check 2
core_0_l1d_max_fill 2
core_0_l2c_set 1024
core_0_l2c_way 8
core_0_l2c_rq_size 32
core_0_l2c_wq_size 32
core_0_l2c_pq_size 16
core_0_l2c_mshr_size 32
core_0_l2c_hit_latency 5
core_0_l2c_fill_latency 5
core_0_l2c_max_tag_check 1
core_0_l2c_max_fill 1
llc_set 2048
llc_way 16
llc_rq_size 32
llc_wq_size 32
llc_pq_size 32
llc_mshr_size 64
llc_hit_latency 10
llc_fill_latency 10
llc_max_tag_check 1
llc_max_fill 1
dram_channels 1
dram_ranks 1
dram_bankgroups 8
dram_banks 4
dram_rows 65536
dram_columns 1024
dram_channel_width 8
dram_rq_size 64
dram_wq_size 64
dram_size 17179869184
core_0_itlb_prefetcher no
core_0_dtlb_prefetcher no
core_0_stlb_prefetcher no
core_0_l1i_prefetcher next_line
core_0_l1d_prefetcher vberti
core_0_l2c_prefetcher ip_stride
llc_prefetcher no
llc_replacement drrip

Core_0_instructions 100000003
Core_0_cycles 4241255199
Core_0_IPC 0.0235779
Core_0_branch_prediction_accuracy 97.2966
Core_0_branch_MPKI 5.2756
Core_0_average_ROB_occupancy_at_mispredict 240.318

Core_0_ITLB_total_access 14893997
Core_0_ITLB_total_hit 14893997
Core_0_ITLB_total_miss 0
Core_0_ITLB_total_MPKI 0
Core_0_ITLB_total_miss_rate 0
Core_0_ITLB_demand_access 14893997
Core_0_ITLB_demand_hit 14893997
Core_0_ITLB_demand_miss 0
Core_0_ITLB_demand_MPKI 0
Core_0_ITLB_demand_miss_rate 0
Core_0_ITLB_load_access 14893997
Core_0_ITLB_load_hit 14893997
Core_0_ITLB_load_miss 0
Core_0_ITLB_load_MPKI 0
Core_0_ITLB_load_miss_rate 0
Core_0_ITLB_rfo_access 0
Core_0_ITLB_rfo_hit 0
Core_0_ITLB_rfo_miss 0
Core_0_ITLB_rfo_MPKI 0
Core_0_ITLB_rfo_miss_rate 0
Core_0_ITLB_prefetch_access 0
Core_0_ITLB_prefetch_hit 0
Core_0_ITLB_prefetch_miss 0
Core_0_ITLB_prefetch_MPKI 0
Core_0_ITLB_prefetch_miss_rate 0
Core_0_ITLB_writeback_access 0
Core_0_ITLB_writeback_hit 0
Core_0_ITLB_writeback_miss 0
Core_0_ITLB_writeback_MPKI 0
Core_0_ITLB_writeback_miss_rate 0
Core_0_ITLB_prefetch_requested 0
Core_0_ITLB_prefetch_issued 0
Core_0_ITLB_prefetch_useful 0
Core_0_ITLB_prefetch_useless 0
Core_0_ITLB_prefetch_late 0
Core_0_ITLB_prefetch_fill 0
Core_0_ITLB_prefetch_too_early 0
Core_0_ITLB_prefetch_too_early_among_fill 0
Core_0_ITLB_prefetch_too_early_among_useless 0
Core_0_ITLB_prefetch_pollution_evict 0
Core_0_ITLB_prefetch_pollution_demand 0
Core_0_ITLB_prefetch_pollution_among_prefetch_fill 0
Core_0_ITLB_prefetch_accuracy 0
Core_0_ITLB_prefetch_coverage 0

Core_0_DTLB_total_access 58461586
Core_0_DTLB_total_hit 41352754
Core_0_DTLB_total_miss 17108832
Core_0_DTLB_total_MPKI 171.088
Core_0_DTLB_total_miss_rate 0.292651
Core_0_DTLB_demand_access 58461586
Core_0_DTLB_demand_hit 41352754
Core_0_DTLB_demand_miss 17108832
Core_0_DTLB_demand_MPKI 171.088
Core_0_DTLB_demand_miss_rate 0.292651
Core_0_DTLB_load_access 58461586
Core_0_DTLB_load_hit 41352754
Core_0_DTLB_load_miss 17108832
Core_0_DTLB_load_MPKI 171.088
Core_0_DTLB_load_miss_rate 0.292651
Core_0_DTLB_rfo_access 0
Core_0_DTLB_rfo_hit 0
Core_0_DTLB_rfo_miss 0
Core_0_DTLB_rfo_MPKI 0
Core_0_DTLB_rfo_miss_rate 0
Core_0_DTLB_prefetch_access 0
Core_0_DTLB_prefetch_hit 0
Core_0_DTLB_prefetch_miss 0
Core_0_DTLB_prefetch_MPKI 0
Core_0_DTLB_prefetch_miss_rate 0
Core_0_DTLB_writeback_access 0
Core_0_DTLB_writeback_hit 0
Core_0_DTLB_writeback_miss 0
Core_0_DTLB_writeback_MPKI 0
Core_0_DTLB_writeback_miss_rate 0
Core_0_DTLB_prefetch_requested 0
Core_0_DTLB_prefetch_issued 0
Core_0_DTLB_prefetch_useful 0
Core_0_DTLB_prefetch_useless 0
Core_0_DTLB_prefetch_late 0
Core_0_DTLB_prefetch_fill 0
Core_0_DTLB_prefetch_too_early 0
Core_0_DTLB_prefetch_too_early_among_fill 0
Core_0_DTLB_prefetch_too_early_among_useless 0
Core_0_DTLB_prefetch_pollution_evict 0
Core_0_DTLB_prefetch_pollution_demand 0
Core_0_DTLB_prefetch_pollution_among_prefetch_fill 0
Core_0_DTLB_prefetch_accuracy 0
Core_0_DTLB_prefetch_coverage 0

Core_0_STLB_total_access 17064606
Core_0_STLB_total_hit 267373
Core_0_STLB_total_miss 16797233
Core_0_STLB_total_MPKI 167.972
Core_0_STLB_total_miss_rate 0.984332
Core_0_STLB_demand_access 17064606
Core_0_STLB_demand_hit 267373
Core_0_STLB_demand_miss 16797233
Core_0_STLB_demand_MPKI 167.972
Core_0_STLB_demand_miss_rate 0.984332
Core_0_STLB_load_access 17064606
Core_0_STLB_load_hit 267373
Core_0_STLB_load_miss 16797233
Core_0_STLB_load_MPKI 167.972
Core_0_STLB_load_miss_rate 0.984332
Core_0_STLB_rfo_access 0
Core_0_STLB_rfo_hit 0
Core_0_STLB_rfo_miss 0
Core_0_STLB_rfo_MPKI 0
Core_0_STLB_rfo_miss_rate 0
Core_0_STLB_prefetch_access 0
Core_0_STLB_prefetch_hit 0
Core_0_STLB_prefetch_miss 0
Core_0_STLB_prefetch_MPKI 0
Core_0_STLB_prefetch_miss_rate 0
Core_0_STLB_writeback_access 0
Core_0_STLB_writeback_hit 0
Core_0_STLB_writeback_miss 0
Core_0_STLB_writeback_MPKI 0
Core_0_STLB_writeback_miss_rate 0
Core_0_STLB_prefetch_requested 0
Core_0_STLB_prefetch_issued 0
Core_0_STLB_prefetch_useful 0
Core_0_STLB_prefetch_useless 0
Core_0_STLB_prefetch_late 0
Core_0_STLB_prefetch_fill 0
Core_0_STLB_prefetch_too_early 0
Core_0_STLB_prefetch_too_early_among_fill 0
Core_0_STLB_prefetch_too_early_among_useless 0
Core_0_STLB_prefetch_pollution_evict 0
Core_0_STLB_prefetch_pollution_demand 0
Core_0_STLB_prefetch_pollution_among_prefetch_fill 0
Core_0_STLB_prefetch_accuracy 0
Core_0_STLB_prefetch_coverage 0

Core_0_L1I_total_access 14893997
Core_0_L1I_total_hit 14893997
Core_0_L1I_total_miss 0
Core_0_L1I_total_MPKI 0
Core_0_L1I_total_miss_rate 0
Core_0_L1I_demand_access 14893997
Core_0_L1I_demand_hit 14893997
Core_0_L1I_demand_miss 0
Core_0_L1I_demand_MPKI 0
Core_0_L1I_demand_miss_rate 0
Core_0_L1I_load_access 14893997
Core_0_L1I_load_hit 14893997
Core_0_L1I_load_miss 0
Core_0_L1I_load_MPKI 0
Core_0_L1I_load_miss_rate 0
Core_0_L1I_rfo_access 0
Core_0_L1I_rfo_hit 0
Core_0_L1I_rfo_miss 0
Core_0_L1I_rfo_MPKI 0
Core_0_L1I_rfo_miss_rate 0
Core_0_L1I_prefetch_access 0
Core_0_L1I_prefetch_hit 0
Core_0_L1I_prefetch_miss 0
Core_0_L1I_prefetch_MPKI 0
Core_0_L1I_prefetch_miss_rate 0
Core_0_L1I_writeback_access 0
Core_0_L1I_writeback_hit 0
Core_0_L1I_writeback_miss 0
Core_0_L1I_writeback_MPKI 0
Core_0_L1I_writeback_miss_rate 0
Core_0_L1I_prefetch_requested 0
Core_0_L1I_prefetch_issued 0
Core_0_L1I_prefetch_useful 0
Core_0_L1I_prefetch_useless 0
Core_0_L1I_prefetch_late 0
Core_0_L1I_prefetch_fill 0
Core_0_L1I_prefetch_too_early 0
Core_0_L1I_prefetch_too_early_among_fill 0
Core_0_L1I_prefetch_too_early_among_useless 0
Core_0_L1I_prefetch_pollution_evict 0
Core_0_L1I_prefetch_pollution_demand 0
Core_0_L1I_prefetch_pollution_among_prefetch_fill 0
Core_0_L1I_prefetch_accuracy 0
Core_0_L1I_prefetch_coverage 0

Core_0_L1D_total_access 60648644
Core_0_L1D_total_hit 38987497
Core_0_L1D_total_miss 21661147
Core_0_L1D_total_MPKI 216.611
Core_0_L1D_total_miss_rate 0.357158
Core_0_L1D_demand_access 37625357
Core_0_L1D_demand_hit 19468540
Core_0_L1D_demand_miss 18156817
Core_0_L1D_demand_MPKI 181.568
Core_0_L1D_demand_miss_rate 0.482569
Core_0_L1D_load_access 37625357
Core_0_L1D_load_hit 19468540
Core_0_L1D_load_miss 18156817
Core_0_L1D_load_MPKI 181.568
Core_0_L1D_load_miss_rate 0.482569
Core_0_L1D_rfo_access 0
Core_0_L1D_rfo_hit 0
Core_0_L1D_rfo_miss 0
Core_0_L1D_rfo_MPKI 0
Core_0_L1D_rfo_miss_rate 0
Core_0_L1D_prefetch_access 22394966
Core_0_L1D_prefetch_hit 18937610
Core_0_L1D_prefetch_miss 3457356
Core_0_L1D_prefetch_MPKI 34.5736
Core_0_L1D_prefetch_miss_rate 0.154381
Core_0_L1D_writeback_access 628321
Core_0_L1D_writeback_hit 581347
Core_0_L1D_writeback_miss 46974
Core_0_L1D_writeback_MPKI 0.46974
Core_0_L1D_writeback_miss_rate 0.0747611
Core_0_L1D_prefetch_requested 23984876
Core_0_L1D_prefetch_issued 22394958
Core_0_L1D_prefetch_useful 1225402
Core_0_L1D_prefetch_useless 43076
Core_0_L1D_prefetch_late 4345
Core_0_L1D_prefetch_fill 1264132
Core_0_L1D_prefetch_too_early 2205
Core_0_L1D_prefetch_too_early_among_fill 0.00174428
Core_0_L1D_prefetch_too_early_among_useless 0.0511886
Core_0_L1D_prefetch_pollution_evict 21828
Core_0_L1D_prefetch_pollution_demand 21765
Core_0_L1D_prefetch_pollution_among_prefetch_fill 0.0172672
Core_0_L1D_prefetch_accuracy 0.0547178
Core_0_L1D_prefetch_coverage 0.063223

Core_0_L2C_total_access 25047595
Core_0_L2C_total_hit 5905974
Core_0_L2C_total_miss 19141621
Core_0_L2C_total_MPKI 191.416
Core_0_L2C_total_miss_rate 0.76421
Core_0_L2C_demand_access 18115068
Core_0_L2C_demand_hit 280077
Core_0_L2C_demand_miss 17834991
Core_0_L2C_demand_MPKI 178.35
Core_0_L2C_demand_miss_rate 0.984539
Core_0_L2C_load_access 18099391
Core_0_L2C_load_hit 266492
Core_0_L2C_load_miss 17832899
Core_0_L2C_load_MPKI 178.329
Core_0_L2C_load_miss_rate 0.985276
Core_0_L2C_rfo_access 15677
Core_0_L2C_rfo_hit 13585
Core_0_L2C_rfo_miss 2092
Core_0_L2C_rfo_MPKI 0.02092
Core_0_L2C_rfo_miss_rate 0.133444
Core_0_L2C_prefetch_access 6868434
Core_0_L2C_prefetch_hit 5561810
Core_0_L2C_prefetch_miss 1306624
Core_0_L2C_prefetch_MPKI 13.0662
Core_0_L2C_prefetch_miss_rate 0.190236
Core_0_L2C_writeback_access 64093
Core_0_L2C_writeback_hit 64087
Core_0_L2C_writeback_miss 6
Core_0_L2C_writeback_MPKI 6e-05
Core_0_L2C_writeback_miss_rate 9.3614e-05
Core_0_L2C_prefetch_requested 3437453
Core_0_L2C_prefetch_issued 3437443
Core_0_L2C_prefetch_useful 993807
Core_0_L2C_prefetch_useless 39403
Core_0_L2C_prefetch_late 913
Core_0_L2C_prefetch_fill 1280214
Core_0_L2C_prefetch_too_early 3940
Core_0_L2C_prefetch_too_early_among_fill 0.00307761
Core_0_L2C_prefetch_too_early_among_useless 0.0999924
Core_0_L2C_prefetch_pollution_evict 116512
Core_0_L2C_prefetch_pollution_demand 116510
Core_0_L2C_prefetch_pollution_among_prefetch_fill 0.0910098
Core_0_L2C_prefetch_accuracy 0.289112
Core_0_L2C_prefetch_coverage 0.0527812

Core_0_LLC_total_access 19153396
Core_0_LLC_total_hit 1581429
Core_0_LLC_total_miss 17571967
Core_0_LLC_total_MPKI 175.72
Core_0_LLC_total_miss_rate 0.917433
Core_0_LLC_demand_access 17834028
Core_0_LLC_demand_hit 1568786
Core_0_LLC_demand_miss 16265242
Core_0_LLC_demand_MPKI 162.652
Core_0_LLC_demand_miss_rate 0.912034
Core_0_LLC_load_access 17831936
Core_0_LLC_load_hit 1566705
Core_0_LLC_load_miss 16265231
Core_0_LLC_load_MPKI 162.652
Core_0_LLC_load_miss_rate 0.91214
Core_0_LLC_rfo_access 2092
Core_0_LLC_rfo_hit 2081
Core_0_LLC_rfo_miss 11
Core_0_LLC_rfo_MPKI 0.00011
Core_0_LLC_rfo_miss_rate 0.00525813
Core_0_LLC_prefetch_access 1281179
Core_0_LLC_prefetch_hit 1184
Core_0_LLC_prefetch_miss 1279995
Core_0_LLC_prefetch_MPKI 12.7999
Core_0_LLC_prefetch_miss_rate 0.999076
Core_0_LLC_writeback_access 38189
Core_0_LLC_writeback_hit 11459
Core_0_LLC_writeback_miss 26730
Core_0_LLC_writeback_MPKI 0.2673
Core_0_LLC_writeback_miss_rate 0.69994
Core_0_LLC_prefetch_requested 0
Core_0_LLC_prefetch_issued 0
Core_0_LLC_prefetch_useful 0
Core_0_LLC_prefetch_useless 0
Core_0_LLC_prefetch_late 0
Core_0_LLC_prefetch_fill 1279993
Core_0_LLC_prefetch_too_early 0
Core_0_LLC_prefetch_too_early_among_fill 0
Core_0_LLC_prefetch_too_early_among_useless 0
Core_0_LLC_prefetch_pollution_evict 315583
Core_0_LLC_prefetch_pollution_demand 315583
Core_0_LLC_prefetch_pollution_among_prefetch_fill 0.246551
Core_0_LLC_prefetch_accuracy 0
Core_0_LLC_prefetch_coverage 0

[DRAM Statistics]
Channel_0_RQ_row_buffer_hit 27328
Channel_0_RQ_row_buffer_miss 17946211
Channel_0_WQ_row_buffer_hit 5284
Channel_0_WQ_row_buffer_miss 29183
Channel_0_WQ_full 0
Channel_0_dbus_congested 3685664
DRAM_total_RQ_row_buffer_hit 27328
DRAM_total_RQ_row_buffer_miss 17946211
DRAM_total_WQ_row_buffer_hit 5284
DRAM_total_WQ_row_buffer_miss 29183
DRAM_total_WQ_full 0
DRAM_total_dbus_congested 3685664
DRAM_avg_congested_cycle 14.6494

====== DRAM_RQ_TRAFFIC ========
DRAM_RQ_READ_TRAFFIC_BREAKDOWN:
data_demand_read.count = 16265243
data_demand_read.share = 90.50%

inst_demand_read.count = 0
inst_demand_read.share = 0.00%

cache_inst_prefetch.count = 0
cache_inst_prefetch.share = 0.00%

cache_data_prefetch.count = 1279993
cache_data_prefetch.share = 7.12%

stlb_data_demand.count = 425390
stlb_data_demand.share = 2.37%

stlb_inst_demand.count = 0
stlb_inst_demand.share = 0.00%

stlb_l1i_pref.count = 0
stlb_l1i_pref.share = 0.00%

stlb_l1d_pref.count = 2913
stlb_l1d_pref.share = 0.02%

DRAM_RQ_READ_TRAFFIC_SUMMARY:
cache_demand.count = 16265243
cache_demand.share = 90.50%

cache_prefetch.count = 1279993
cache_prefetch.share = 7.12%

stlb_demand.count = 425390
stlb_demand.share = 2.37%

stlb_prefetch.count = 2913
stlb_prefetch.share = 0.02%

DRAM_RQ_READ_TRAFFIC_DEBUG:
total_classified_read.count = 17973539
unclassified_read.count = 0
total_read_with_other.count = 17973539

classified_plus_unclassified_check.count = 17973539
dram_rq_read_total_observed.count = 17973539
dram_rq_read_total_observed.per_1K_instructions = 179.735

STLB_MISS_PTW_DRAM_TOUCH_BREAKDOWN:
stlb_miss_total.count = 16797233

stlb_miss_touch_dram.count = 428191
stlb_miss_touch_dram.share = 2.55%

stlb_miss_no_dram_touch.count = 16369042
stlb_miss_no_dram_touch.share = 97.45%

STLB_MISS_PTW_DRAM_TOUCH_DEBUG:
stlb_miss_touch_plus_no_touch.count = 16797233
stlb_miss_total_check.count = 16797233

======STLB miss causes ========
Core_0_STLB_miss_cause_breakdown
Core_0_STLB_cause_Demand_Data_miss 16777316
Core_0_STLB_cause_Demand_Data_miss_rate 0.983165
Core_0_STLB_cause_Demand_Instruction_miss 0
Core_0_STLB_cause_Demand_Instruction_miss_rate 0
Core_0_STLB_cause_L1D_Prefetch_miss 19917
Core_0_STLB_cause_L1D_Prefetch_miss_rate 0.00116715
Core_0_STLB_cause_L1D_Prefetch_Same_Page_miss 2
Core_0_STLB_cause_L1D_Prefetch_Same_Page_miss_rate 1.17202e-07
Core_0_STLB_cause_L1D_Prefetch_Cross_Page_miss 19915
Core_0_STLB_cause_L1D_Prefetch_Cross_Page_miss_rate 0.00116704
Core_0_STLB_cause_L1I_Prefetch_miss 0
Core_0_STLB_cause_L1I_Prefetch_miss_rate 0
Core_0_STLB_cause_Other_miss 0
Core_0_STLB_cause_Other_miss_rate 0
Core_0_STLB_Demand_miss 16777316
Core_0_STLB_Demand_miss_rate 0.983165
Core_0_STLB_L1D_Prefetch_miss 19917
Core_0_STLB_L1D_Prefetch_miss_rate 0.00116715
Core_0_STLB_Other_miss 0
Core_0_STLB_Other_miss_rate 0

========== vBerti-TLB Cross-page Flow Stats ==========

Core_0_vBerti_Requested 23984876
Core_0_vBerti_Cross_page_prefetch_in_Requested 829130
Core_0_vBerti_Same_page_prefetch_in_Requested 23155746
Core_0_vBerti_Cross_page_prefetch_of_Requested 0.0345689
Core_0_vBerti_Issued 22394958
Core_0_vBerti_InPQ_Same_page_prefetch 21776232
Core_0_vBerti_InPQ_Cross_page_prefetch 618726
Core_0_vBerti_PQ_Drop_Rate 0.0662884
Core_0_vBerti_InPQ_Cross_page_prefetch_of_Requested 0.0257965
Core_0_vBerti_Cross_page_PQ_Drop_rate 0.253765
Core_0_vBerti_Cross_page_prefetch_of_Issued 0.0276279
Core_0_CP_PF_PQFULL_drop 210404
Core_0_CP_PF_PQFULL_TLB_rescue_enqueued 0
Core_0_CP_PF_PQFULL_TLB_rescue_issued 0
Core_0_CP_PF_PQFULL_TLB_rescue_translated 0

========= DTLB_vBerti Prefetch Stats =========
Core_0_DTLB_demand_access 38149501
Core_0_DTLB_demand_hit 21084544
Core_0_DTLB_demand_miss 17064957
Core_0_DTLB_demand_mshr_merge 25097
Core_0_DTLB_demand_fill 17039995
Core_0_DTLB_demand_miss_rate 0.447318
Core_0_DTLB_demand_mpki 170.65
Core_0_DTLB_vberti_prefetch_access 20312085
Core_0_DTLB_vberti_prefetch_hit 20268210
Core_0_DTLB_vberti_prefetch_miss 43875
Core_0_DTLB_vberti_prefetch_mshr_merge 19130
Core_0_DTLB_vberti_prefetch_fill 24618
Core_0_DTLB_vberti_prefetch_miss_rate 0.00216004
Core_0_DTLB_vberti_prefetch_mpki 0.43875

=== DTLB_vBerti Same/Cross-page Prefetch Stats ===
Core_0_DTLB_vberti_same_page_prefetch 19782561
Core_0_DTLB_vberti_same_page_prefetch_hit 19782557
Core_0_DTLB_vberti_same_page_prefetch_miss 4
Core_0_DTLB_vberti_same_page_prefetch_mshr_merge 0
Core_0_DTLB_vberti_same_page_prefetch_fill 4
Core_0_DTLB_vberti_same_page_prefetch_miss_rate 2.02198e-07
Core_0_DTLB_vberti_same_page_prefetch_mpki 4e-05
Core_0_DTLB_vberti_cross_page_prefetch 529524
Core_0_DTLB_vberti_cross_page_prefetch_hit 485653
Core_0_DTLB_vberti_cross_page_prefetch_miss 43871
Core_0_DTLB_vberti_cross_page_prefetch_mshr_merge 19130
Core_0_DTLB_vberti_cross_page_prefetch_fill 24614
Core_0_DTLB_vberti_cross_page_prefetch_miss_rate 0.0828499
Core_0_DTLB_vberti_cross_page_prefetch_mpki 0.43871
Core_0_DTLB_same_page_prefetch_miss_rate 2.02198e-07
Core_0_DTLB_same_page_prefetch_mpki 4e-05
Core_0_DTLB_cross_page_prefetch_miss_rate 0.0828499
Core_0_DTLB_cross_page_prefetch_mpki 0.43871
Core_0_DTLB_cross_page_prefetch_issued 529524
Core_0_DTLB_cross_page_prefetch_lookups 529524
Core_0_DTLB_cross_page_prefetch_useful 19525
Core_0_DTLB_cross_page_prefetch_useless 5216
Core_0_DTLB_cross_page_prefetch_late 127
Core_0_DTLB_cross_page_prefetch_too_early 88
Core_0_DTLB_cross_page_prefetch_too_early_among_fill 0.0035752
Core_0_DTLB_cross_page_prefetch_too_early_among_useless 0.0168712
Core_0_DTLB_cross_page_prefetch_pollution_evict 8081
Core_0_DTLB_cross_page_prefetch_pollution_demand 8078
Core_0_DTLB_cross_page_prefetch_pollution_among_prefetch_fill 0.328309
Core_0_DTLB_cross_page_prefetch_accuracy 0.0368727
Core_0_DTLB_cross_page_prefetch_coverage 0.00114285

========= STLB_vBerti Prefetch Stats =========
Core_0_STLB_demand_access 17039861
Core_0_STLB_demand_hit 262545
Core_0_STLB_demand_miss 16777316
Core_0_STLB_demand_mshr_merge 0
Core_0_STLB_demand_fill 16777323
Core_0_STLB_demand_miss_rate 0.984592
Core_0_STLB_demand_mpki 167.773
Core_0_STLB_vberti_prefetch_access 24745
Core_0_STLB_vberti_prefetch_hit 4828
Core_0_STLB_vberti_prefetch_miss 19917
Core_0_STLB_vberti_prefetch_mshr_merge 0
Core_0_STLB_vberti_prefetch_fill 19917
Core_0_STLB_vberti_prefetch_miss_rate 0.80489
Core_0_STLB_vberti_prefetch_mpki 0.19917

=== STLB_vBerti Same/Cross-page Prefetch Stats ===
Core_0_STLB_vberti_same_page_prefetch 4
Core_0_STLB_vberti_same_page_prefetch_hit 2
Core_0_STLB_vberti_same_page_prefetch_miss 2
Core_0_STLB_vberti_same_page_prefetch_mshr_merge 0
Core_0_STLB_vberti_same_page_prefetch_fill 2
Core_0_STLB_vberti_same_page_prefetch_miss_rate 0.5
Core_0_STLB_vberti_same_page_prefetch_mpki 2e-05
Core_0_STLB_vberti_cross_page_prefetch 24741
Core_0_STLB_vberti_cross_page_prefetch_hit 4826
Core_0_STLB_vberti_cross_page_prefetch_miss 19915
Core_0_STLB_vberti_cross_page_prefetch_mshr_merge 0
Core_0_STLB_vberti_cross_page_prefetch_fill 19915
Core_0_STLB_vberti_cross_page_prefetch_miss_rate 0.804939
Core_0_STLB_vberti_cross_page_prefetch_mpki 0.19915
Core_0_STLB_same_page_prefetch_miss_rate 0.5
Core_0_STLB_same_page_prefetch_mpki 2e-05
Core_0_STLB_cross_page_prefetch_miss_rate 0.804939
Core_0_STLB_cross_page_prefetch_mpki 0.19915
Core_0_STLB_cross_page_prefetch_issued 24741
Core_0_STLB_cross_page_prefetch_lookups 24741
Core_0_STLB_cross_page_prefetch_useful 3604
Core_0_STLB_cross_page_prefetch_useless 16311
Core_0_STLB_cross_page_prefetch_late 0
Core_0_STLB_cross_page_prefetch_too_early 577
Core_0_STLB_cross_page_prefetch_too_early_among_fill 0.0289731
Core_0_STLB_cross_page_prefetch_too_early_among_useless 0.0353749
Core_0_STLB_cross_page_prefetch_pollution_evict 19750
Core_0_STLB_cross_page_prefetch_pollution_demand 19747
Core_0_STLB_cross_page_prefetch_pollution_among_prefetch_fill 0.991715
Core_0_STLB_cross_page_prefetch_accuracy 0.145669
Core_0_STLB_cross_page_prefetch_coverage 0.000214768

========= STLB Cross-page Prefetch Buffer Stats =========
Core_0_STLB_raw_demand_miss 16777316
Core_0_CP_PB_insert 0
Core_0_CP_PB_demand_hit 0
Core_0_STLB_PB_demand_miss 16777316
Core_0_CP_PB_coverage 0
Core_0_STLB_raw_demand_mpki 167.773
Core_0_STLB_PB_demand_mpki 167.773
Core_0_CP_PB_demand_hit_mpki 0

Core_0_TLB_demand_miss_rate 0.439778
Core_0_TLB_demand_mpki 167.773
Core_0_TLB_same_page_prefetch_miss_rate 1.01099e-07
Core_0_TLB_same_page_prefetch_mpki 2e-05
Core_0_TLB_cross_page_prefetch_miss_rate 0.0376092
Core_0_TLB_cross_page_prefetch_mpki 0.19915
Core_0_TLB_cross_page_prefetch_issued 529524
Core_0_TLB_cross_page_prefetch_lookups 529524
Core_0_TLB_cross_page_prefetch_useful 19525
Core_0_TLB_cross_page_prefetch_useless 5216
Core_0_TLB_cross_page_prefetch_late 127
Core_0_TLB_cross_page_prefetch_too_early 88
Core_0_TLB_cross_page_prefetch_too_early_among_fill 0.00197624
Core_0_TLB_cross_page_prefetch_too_early_among_useless 0.0168712
Core_0_TLB_cross_page_prefetch_accuracy 0.0368727
Core_0_TLB_cross_page_prefetch_coverage 0.00116242
BERTI TO_L1: 21251226 TO_L2: 4304159 TO_L2_BC_MSHR: 141
BERTI AVG_LAT: 120.443 NUM_TRACK_LATENCY: 28969035 NUM_CANT_TRACK_LATENCY: 191
BERTI CROSS_PAGE 940558 NO_CROSS_PAGE: 24614827
BERTI FOUND_BERTI: 46981426 NO_FOUND_BERTI: 1390763
BERTI AVERAGE_ISSUED: 1.19888
