[VMEM] WARNING: physical memory size is smaller than virtual memory size.

*** ChampSim Multicore Out-of-Order Simulator ***
Warmup Instructions: 50000000
Simulation Instructions: 100000000
Number of CPUs: 1
Page size: 4096
Core 0: /data2/zcq/champsim_traces_gap/sssp.web-1185B.champsimtrace.xz
VBerti Prefetcher
BERTI HASH ENTANGLING
BERTI IP MASK ffff
Off-chip DRAM Size: 16 GiB Channels: 1 Width: 64-bit Data Rate: 3205 MT/s
Warmup halting CPU 0 at instruction 50000000 cycle 22094454 for remainder of phase
Warmup finished CPU 0 instructions: 50000000 cycles: 22094454 cumulative IPC: 2.263 (Simulation time: 00 hr 04 min 17 sec)
Warmup complete CPU 0 instructions: 50000000 cycles: 22094454 cumulative IPC: 2.263 (Simulation time: 00 hr 04 min 17 sec)
Simulation finished CPU 0 instructions: 100000003 cycles: 271413771 cumulative IPC: 0.3684 (Simulation time: 00 hr 29 min 19 sec)
Simulation complete CPU 0 instructions: 100000003 cycles: 271413771 cumulative IPC: 0.3684 (Simulation time: 00 hr 29 min 19 sec)

ChampSim completed all CPUs

=== Simulation ===
CPU 0 runs /data2/zcq/champsim_traces_gap/sssp.web-1185B.champsimtrace.xz

Region of Interest Statistics

CPU 0 cumulative IPC: 0.3684 instructions: 100000003 cycles: 271413771
CPU 0 Branch Prediction Accuracy: 97.58% MPKI: 3.609 Average ROB Occupancy at Mispredict: 117.5
Branch type MPKI
BRANCH_DIRECT_JUMP: 0.00013
BRANCH_INDIRECT: 4e-05
BRANCH_CONDITIONAL: 3.609
BRANCH_DIRECT_CALL: 0
BRANCH_INDIRECT_CALL: 2e-05
BRANCH_RETURN: 0

cpu0->cpu0_STLB TOTAL        ACCESS:    1179275 HIT:     429444 MISS:     749831 MSHR_MERGE:          0
cpu0->cpu0_STLB LOAD         ACCESS:    1179275 HIT:     429444 MISS:     749831 MSHR_MERGE:          0
cpu0->cpu0_STLB RFO          ACCESS:          0 HIT:          0 MISS:          0 MSHR_MERGE:          0
cpu0->cpu0_STLB PREFETCH     ACCESS:          0 HIT:          0 MISS:          0 MSHR_MERGE:          0
cpu0->cpu0_STLB WRITE        ACCESS:          0 HIT:          0 MISS:          0 MSHR_MERGE:          0
cpu0->cpu0_STLB TRANSLATION  ACCESS:          0 HIT:          0 MISS:          0 MSHR_MERGE:          0
cpu0->cpu0_STLB PREFETCH REQUESTED:          0 ISSUED:          0 USEFUL:          0 USELESS:          0 LATE:          0 TOO_EARLY:          0
cpu0->cpu0_STLB AVERAGE MISS LATENCY: 147.4 cycles
cpu0->cpu0_L2C TOTAL        ACCESS:   11973509 HIT:    4766990 MISS:    7206519 MSHR_MERGE:    3058553
cpu0->cpu0_L2C LOAD         ACCESS:    2046453 HIT:     621957 MISS:    1424496 MSHR_MERGE:      51382
cpu0->cpu0_L2C RFO          ACCESS:     152292 HIT:     118905 MISS:      33387 MSHR_MERGE:          0
cpu0->cpu0_L2C PREFETCH     ACCESS:    8639666 HIT:    3448517 MISS:    5191149 MSHR_MERGE:    3007171
cpu0->cpu0_L2C WRITE        ACCESS:     363331 HIT:     362495 MISS:        836 MSHR_MERGE:          0
cpu0->cpu0_L2C TRANSLATION  ACCESS:     771767 HIT:     215116 MISS:     556651 MSHR_MERGE:          0
cpu0->cpu0_L2C PREFETCH REQUESTED:    3305267 ISSUED:    3294491 USEFUL:     467110 USELESS:     526122 LATE:      33212 TOO_EARLY:       5042
cpu0->cpu0_L2C AVERAGE MISS LATENCY: 163.8 cycles
cpu0->cpu0_L1I TOTAL        ACCESS:    8604531 HIT:    8604444 MISS:         87 MSHR_MERGE:         33
cpu0->cpu0_L1I LOAD         ACCESS:    8604531 HIT:    8604444 MISS:         87 MSHR_MERGE:         33
cpu0->cpu0_L1I RFO          ACCESS:          0 HIT:          0 MISS:          0 MSHR_MERGE:          0
cpu0->cpu0_L1I PREFETCH     ACCESS:          0 HIT:          0 MISS:          0 MSHR_MERGE:          0
cpu0->cpu0_L1I WRITE        ACCESS:          0 HIT:          0 MISS:          0 MSHR_MERGE:          0
cpu0->cpu0_L1I TRANSLATION  ACCESS:          0 HIT:          0 MISS:          0 MSHR_MERGE:          0
cpu0->cpu0_L1I PREFETCH REQUESTED:          0 ISSUED:          0 USEFUL:          0 USELESS:          0 LATE:          0 TOO_EARLY:          0
cpu0->cpu0_L1I AVERAGE MISS LATENCY: 235 cycles
cpu0->cpu0_L1D TOTAL        ACCESS:   54206488 HIT:   42305981 MISS:   11900507 MSHR_MERGE:    3366418
cpu0->cpu0_L1D LOAD         ACCESS:   28438689 HIT:   23311818 MISS:    5126871 MSHR_MERGE:    3080472
cpu0->cpu0_L1D RFO          ACCESS:          0 HIT:          0 MISS:          0 MSHR_MERGE:          0
cpu0->cpu0_L1D PREFETCH     ACCESS:   20780313 HIT:   14960687 MISS:    5819626 MSHR_MERGE:     255995
cpu0->cpu0_L1D WRITE        ACCESS:    3062673 HIT:    2908779 MISS:     153894 MSHR_MERGE:       1602
cpu0->cpu0_L1D TRANSLATION  ACCESS:    1924813 HIT:    1124697 MISS:     800116 MSHR_MERGE:      28349
cpu0->cpu0_L1D PREFETCH REQUESTED:   58829102 ISSUED:   20780320 USEFUL:     549777 USELESS:     390497 LATE:      50803 TOO_EARLY:       1853
cpu0->cpu0_L1D AVERAGE MISS LATENCY: 119.2 cycles
cpu0->cpu0_ITLB TOTAL        ACCESS:    8468352 HIT:    8468317 MISS:         35 MSHR_MERGE:         26
cpu0->cpu0_ITLB LOAD         ACCESS:    8468352 HIT:    8468317 MISS:         35 MSHR_MERGE:         26
cpu0->cpu0_ITLB RFO          ACCESS:          0 HIT:          0 MISS:          0 MSHR_MERGE:          0
cpu0->cpu0_ITLB PREFETCH     ACCESS:          0 HIT:          0 MISS:          0 MSHR_MERGE:          0
cpu0->cpu0_ITLB WRITE        ACCESS:          0 HIT:          0 MISS:          0 MSHR_MERGE:          0
cpu0->cpu0_ITLB TRANSLATION  ACCESS:          0 HIT:          0 MISS:          0 MSHR_MERGE:          0
cpu0->cpu0_ITLB PREFETCH REQUESTED:          0 ISSUED:          0 USEFUL:          0 USELESS:          0 LATE:          0 TOO_EARLY:          0
cpu0->cpu0_ITLB AVERAGE MISS LATENCY: 302.1 cycles
cpu0->cpu0_DTLB TOTAL        ACCESS:   42721019 HIT:   39525774 MISS:    3195245 MSHR_MERGE:    2015979
cpu0->cpu0_DTLB LOAD         ACCESS:   42721019 HIT:   39525774 MISS:    3195245 MSHR_MERGE:    2015979
cpu0->cpu0_DTLB RFO          ACCESS:          0 HIT:          0 MISS:          0 MSHR_MERGE:          0
cpu0->cpu0_DTLB PREFETCH     ACCESS:          0 HIT:          0 MISS:          0 MSHR_MERGE:          0
cpu0->cpu0_DTLB WRITE        ACCESS:          0 HIT:          0 MISS:          0 MSHR_MERGE:          0
cpu0->cpu0_DTLB TRANSLATION  ACCESS:          0 HIT:          0 MISS:          0 MSHR_MERGE:          0
cpu0->cpu0_DTLB PREFETCH REQUESTED:          0 ISSUED:          0 USEFUL:          0 USELESS:          0 LATE:          0 TOO_EARLY:          0
cpu0->cpu0_DTLB AVERAGE MISS LATENCY: 99.39 cycles
cpu0->LLC TOTAL        ACCESS:    4320515 HIT:     791554 MISS:    3528961 MSHR_MERGE:      18797
cpu0->LLC LOAD         ACCESS:    1373114 HIT:     253879 MISS:    1119235 MSHR_MERGE:        192
cpu0->LLC RFO          ACCESS:      33386 HIT:      18046 MISS:      15340 MSHR_MERGE:          0
cpu0->LLC PREFETCH     ACCESS:    2183972 HIT:     150649 MISS:    2033323 MSHR_MERGE:      18605
cpu0->LLC WRITE        ACCESS:     173392 HIT:      75352 MISS:      98040 MSHR_MERGE:          0
cpu0->LLC TRANSLATION  ACCESS:     556651 HIT:     293628 MISS:     263023 MSHR_MERGE:          0
cpu0->LLC PREFETCH REQUESTED:          0 ISSUED:          0 USEFUL:          0 USELESS:          0 LATE:          0 TOO_EARLY:          0
cpu0->LLC AVERAGE MISS LATENCY: 197.1 cycles

DRAM Statistics

Channel 0 RQ ROW_BUFFER_HIT:      36965
  ROW_BUFFER_MISS:    3375154
  AVG DBUS CONGESTED CYCLE: 8.804
Channel 0 WQ ROW_BUFFER_HIT:      41260
  ROW_BUFFER_MISS:     107568
  FULL:          0
Channel 0 REFRESHES ISSUED:      22618

[ROI Statistics]
[System Configuration]
num_cpus 1
cpu_freq 4000
fetch_width 6
decode_width 6
dispatch_width 6
execute_width 6
lq_width 2
sq_width 2
retire_width 6
scheduler_size 128
branch_mispredict_penalty 15
rob_size 352
lq_size 128
sq_size 72
ifetch_buffer_size 64
decode_buffer_size 32
dispatch_buffer_size 32
register_file_size 288
decode_latency 1
dispatch_latency 1
schedule_latency 1
execute_latency 1
page_size 4096
block_size 64
core_0_itlb_set 16
core_0_itlb_way 4
core_0_itlb_rq_size 16
core_0_itlb_wq_size 16
core_0_itlb_pq_size 0
core_0_itlb_mshr_size 8
core_0_itlb_hit_latency 1
core_0_itlb_fill_latency 1
core_0_itlb_max_tag_check 2
core_0_itlb_max_fill 2
core_0_dtlb_set 16
core_0_dtlb_way 4
core_0_dtlb_rq_size 16
core_0_dtlb_wq_size 16
core_0_dtlb_pq_size 0
core_0_dtlb_mshr_size 8
core_0_dtlb_hit_latency 1
core_0_dtlb_fill_latency 1
core_0_dtlb_max_tag_check 2
core_0_dtlb_max_fill 2
core_0_stlb_set 128
core_0_stlb_way 12
core_0_stlb_rq_size 32
core_0_stlb_wq_size 32
core_0_stlb_pq_size 0
core_0_stlb_mshr_size 16
core_0_stlb_hit_latency 4
core_0_stlb_fill_latency 4
core_0_stlb_max_tag_check 1
core_0_stlb_max_fill 1
core_0_l1i_set 64
core_0_l1i_way 8
core_0_l1i_rq_size 64
core_0_l1i_wq_size 64
core_0_l1i_pq_size 32
core_0_l1i_mshr_size 8
core_0_l1i_hit_latency 2
core_0_l1i_fill_latency 2
core_0_l1i_max_tag_check 2
core_0_l1i_max_fill 2
core_0_l1d_set 64
core_0_l1d_way 12
core_0_l1d_rq_size 64
core_0_l1d_wq_size 64
core_0_l1d_pq_size 8
core_0_l1d_mshr_size 16
core_0_l1d_hit_latency 2
core_0_l1d_fill_latency 3
core_0_l1d_max_tag_check 2
core_0_l1d_max_fill 2
core_0_l2c_set 1024
core_0_l2c_way 8
core_0_l2c_rq_size 32
core_0_l2c_wq_size 32
core_0_l2c_pq_size 16
core_0_l2c_mshr_size 32
core_0_l2c_hit_latency 5
core_0_l2c_fill_latency 5
core_0_l2c_max_tag_check 1
core_0_l2c_max_fill 1
llc_set 2048
llc_way 16
llc_rq_size 32
llc_wq_size 32
llc_pq_size 32
llc_mshr_size 64
llc_hit_latency 10
llc_fill_latency 10
llc_max_tag_check 1
llc_max_fill 1
dram_channels 1
dram_ranks 1
dram_bankgroups 8
dram_banks 4
dram_rows 65536
dram_columns 1024
dram_channel_width 8
dram_rq_size 64
dram_wq_size 64
dram_size 17179869184
core_0_itlb_prefetcher no
core_0_dtlb_prefetcher no
core_0_stlb_prefetcher no
core_0_l1i_prefetcher next_line
core_0_l1d_prefetcher vberti
core_0_l2c_prefetcher ip_stride
llc_prefetcher no
llc_replacement drrip

Core_0_instructions 100000003
Core_0_cycles 271413771
Core_0_IPC 0.368441
Core_0_branch_prediction_accuracy 97.5842
Core_0_branch_MPKI 3.609
Core_0_average_ROB_occupancy_at_mispredict 117.463

Core_0_ITLB_total_access 8468352
Core_0_ITLB_total_hit 8468317
Core_0_ITLB_total_miss 35
Core_0_ITLB_total_MPKI 0.00035
Core_0_ITLB_total_miss_rate 4.13304e-06
Core_0_ITLB_demand_access 8468352
Core_0_ITLB_demand_hit 8468317
Core_0_ITLB_demand_miss 35
Core_0_ITLB_demand_MPKI 0.00035
Core_0_ITLB_demand_miss_rate 4.13304e-06
Core_0_ITLB_load_access 8468352
Core_0_ITLB_load_hit 8468317
Core_0_ITLB_load_miss 35
Core_0_ITLB_load_MPKI 0.00035
Core_0_ITLB_load_miss_rate 4.13304e-06
Core_0_ITLB_rfo_access 0
Core_0_ITLB_rfo_hit 0
Core_0_ITLB_rfo_miss 0
Core_0_ITLB_rfo_MPKI 0
Core_0_ITLB_rfo_miss_rate 0
Core_0_ITLB_prefetch_access 0
Core_0_ITLB_prefetch_hit 0
Core_0_ITLB_prefetch_miss 0
Core_0_ITLB_prefetch_MPKI 0
Core_0_ITLB_prefetch_miss_rate 0
Core_0_ITLB_writeback_access 0
Core_0_ITLB_writeback_hit 0
Core_0_ITLB_writeback_miss 0
Core_0_ITLB_writeback_MPKI 0
Core_0_ITLB_writeback_miss_rate 0
Core_0_ITLB_prefetch_requested 0
Core_0_ITLB_prefetch_issued 0
Core_0_ITLB_prefetch_useful 0
Core_0_ITLB_prefetch_useless 0
Core_0_ITLB_prefetch_late 0
Core_0_ITLB_prefetch_fill 0
Core_0_ITLB_prefetch_too_early 0
Core_0_ITLB_prefetch_too_early_among_fill 0
Core_0_ITLB_prefetch_too_early_among_useless 0
Core_0_ITLB_prefetch_pollution_evict 0
Core_0_ITLB_prefetch_pollution_demand 0
Core_0_ITLB_prefetch_pollution_among_prefetch_fill 0
Core_0_ITLB_prefetch_accuracy 0
Core_0_ITLB_prefetch_coverage 0

Core_0_DTLB_total_access 42721019
Core_0_DTLB_total_hit 39525774
Core_0_DTLB_total_miss 3195245
Core_0_DTLB_total_MPKI 31.9524
Core_0_DTLB_total_miss_rate 0.0747933
Core_0_DTLB_demand_access 42721019
Core_0_DTLB_demand_hit 39525774
Core_0_DTLB_demand_miss 3195245
Core_0_DTLB_demand_MPKI 31.9524
Core_0_DTLB_demand_miss_rate 0.0747933
Core_0_DTLB_load_access 42721019
Core_0_DTLB_load_hit 39525774
Core_0_DTLB_load_miss 3195245
Core_0_DTLB_load_MPKI 31.9524
Core_0_DTLB_load_miss_rate 0.0747933
Core_0_DTLB_rfo_access 0
Core_0_DTLB_rfo_hit 0
Core_0_DTLB_rfo_miss 0
Core_0_DTLB_rfo_MPKI 0
Core_0_DTLB_rfo_miss_rate 0
Core_0_DTLB_prefetch_access 0
Core_0_DTLB_prefetch_hit 0
Core_0_DTLB_prefetch_miss 0
Core_0_DTLB_prefetch_MPKI 0
Core_0_DTLB_prefetch_miss_rate 0
Core_0_DTLB_writeback_access 0
Core_0_DTLB_writeback_hit 0
Core_0_DTLB_writeback_miss 0
Core_0_DTLB_writeback_MPKI 0
Core_0_DTLB_writeback_miss_rate 0
Core_0_DTLB_prefetch_requested 0
Core_0_DTLB_prefetch_issued 0
Core_0_DTLB_prefetch_useful 0
Core_0_DTLB_prefetch_useless 0
Core_0_DTLB_prefetch_late 0
Core_0_DTLB_prefetch_fill 0
Core_0_DTLB_prefetch_too_early 0
Core_0_DTLB_prefetch_too_early_among_fill 0
Core_0_DTLB_prefetch_too_early_among_useless 0
Core_0_DTLB_prefetch_pollution_evict 0
Core_0_DTLB_prefetch_pollution_demand 0
Core_0_DTLB_prefetch_pollution_among_prefetch_fill 0
Core_0_DTLB_prefetch_accuracy 0
Core_0_DTLB_prefetch_coverage 0

Core_0_STLB_total_access 1179275
Core_0_STLB_total_hit 429444
Core_0_STLB_total_miss 749831
Core_0_STLB_total_MPKI 7.49831
Core_0_STLB_total_miss_rate 0.635841
Core_0_STLB_demand_access 1179275
Core_0_STLB_demand_hit 429444
Core_0_STLB_demand_miss 749831
Core_0_STLB_demand_MPKI 7.49831
Core_0_STLB_demand_miss_rate 0.635841
Core_0_STLB_load_access 1179275
Core_0_STLB_load_hit 429444
Core_0_STLB_load_miss 749831
Core_0_STLB_load_MPKI 7.49831
Core_0_STLB_load_miss_rate 0.635841
Core_0_STLB_rfo_access 0
Core_0_STLB_rfo_hit 0
Core_0_STLB_rfo_miss 0
Core_0_STLB_rfo_MPKI 0
Core_0_STLB_rfo_miss_rate 0
Core_0_STLB_prefetch_access 0
Core_0_STLB_prefetch_hit 0
Core_0_STLB_prefetch_miss 0
Core_0_STLB_prefetch_MPKI 0
Core_0_STLB_prefetch_miss_rate 0
Core_0_STLB_writeback_access 0
Core_0_STLB_writeback_hit 0
Core_0_STLB_writeback_miss 0
Core_0_STLB_writeback_MPKI 0
Core_0_STLB_writeback_miss_rate 0
Core_0_STLB_prefetch_requested 0
Core_0_STLB_prefetch_issued 0
Core_0_STLB_prefetch_useful 0
Core_0_STLB_prefetch_useless 0
Core_0_STLB_prefetch_late 0
Core_0_STLB_prefetch_fill 0
Core_0_STLB_prefetch_too_early 0
Core_0_STLB_prefetch_too_early_among_fill 0
Core_0_STLB_prefetch_too_early_among_useless 0
Core_0_STLB_prefetch_pollution_evict 0
Core_0_STLB_prefetch_pollution_demand 0
Core_0_STLB_prefetch_pollution_among_prefetch_fill 0
Core_0_STLB_prefetch_accuracy 0
Core_0_STLB_prefetch_coverage 0

Core_0_L1I_total_access 8604531
Core_0_L1I_total_hit 8604444
Core_0_L1I_total_miss 87
Core_0_L1I_total_MPKI 0.00087
Core_0_L1I_total_miss_rate 1.0111e-05
Core_0_L1I_demand_access 8604531
Core_0_L1I_demand_hit 8604444
Core_0_L1I_demand_miss 87
Core_0_L1I_demand_MPKI 0.00087
Core_0_L1I_demand_miss_rate 1.0111e-05
Core_0_L1I_load_access 8604531
Core_0_L1I_load_hit 8604444
Core_0_L1I_load_miss 87
Core_0_L1I_load_MPKI 0.00087
Core_0_L1I_load_miss_rate 1.0111e-05
Core_0_L1I_rfo_access 0
Core_0_L1I_rfo_hit 0
Core_0_L1I_rfo_miss 0
Core_0_L1I_rfo_MPKI 0
Core_0_L1I_rfo_miss_rate 0
Core_0_L1I_prefetch_access 0
Core_0_L1I_prefetch_hit 0
Core_0_L1I_prefetch_miss 0
Core_0_L1I_prefetch_MPKI 0
Core_0_L1I_prefetch_miss_rate 0
Core_0_L1I_writeback_access 0
Core_0_L1I_writeback_hit 0
Core_0_L1I_writeback_miss 0
Core_0_L1I_writeback_MPKI 0
Core_0_L1I_writeback_miss_rate 0
Core_0_L1I_prefetch_requested 0
Core_0_L1I_prefetch_issued 0
Core_0_L1I_prefetch_useful 0
Core_0_L1I_prefetch_useless 0
Core_0_L1I_prefetch_late 0
Core_0_L1I_prefetch_fill 0
Core_0_L1I_prefetch_too_early 0
Core_0_L1I_prefetch_too_early_among_fill 0
Core_0_L1I_prefetch_too_early_among_useless 0
Core_0_L1I_prefetch_pollution_evict 0
Core_0_L1I_prefetch_pollution_demand 0
Core_0_L1I_prefetch_pollution_among_prefetch_fill 0
Core_0_L1I_prefetch_accuracy 0
Core_0_L1I_prefetch_coverage 0

Core_0_L1D_total_access 52281675
Core_0_L1D_total_hit 41181284
Core_0_L1D_total_miss 11100391
Core_0_L1D_total_MPKI 111.004
Core_0_L1D_total_miss_rate 0.212319
Core_0_L1D_demand_access 28438689
Core_0_L1D_demand_hit 23311818
Core_0_L1D_demand_miss 5126871
Core_0_L1D_demand_MPKI 51.2687
Core_0_L1D_demand_miss_rate 0.180278
Core_0_L1D_load_access 28438689
Core_0_L1D_load_hit 23311818
Core_0_L1D_load_miss 5126871
Core_0_L1D_load_MPKI 51.2687
Core_0_L1D_load_miss_rate 0.180278
Core_0_L1D_rfo_access 0
Core_0_L1D_rfo_hit 0
Core_0_L1D_rfo_miss 0
Core_0_L1D_rfo_MPKI 0
Core_0_L1D_rfo_miss_rate 0
Core_0_L1D_prefetch_access 20780313
Core_0_L1D_prefetch_hit 14960687
Core_0_L1D_prefetch_miss 5819626
Core_0_L1D_prefetch_MPKI 58.1963
Core_0_L1D_prefetch_miss_rate 0.280055
Core_0_L1D_writeback_access 3062673
Core_0_L1D_writeback_hit 2908779
Core_0_L1D_writeback_miss 153894
Core_0_L1D_writeback_MPKI 1.53894
Core_0_L1D_writeback_miss_rate 0.0502483
Core_0_L1D_prefetch_requested 58829102
Core_0_L1D_prefetch_issued 20780320
Core_0_L1D_prefetch_useful 549777
Core_0_L1D_prefetch_useless 390497
Core_0_L1D_prefetch_late 50803
Core_0_L1D_prefetch_fill 889520
Core_0_L1D_prefetch_too_early 1853
Core_0_L1D_prefetch_too_early_among_fill 0.00208315
Core_0_L1D_prefetch_too_early_among_useless 0.00474523
Core_0_L1D_prefetch_pollution_evict 68156
Core_0_L1D_prefetch_pollution_demand 67850
Core_0_L1D_prefetch_pollution_among_prefetch_fill 0.0766211
Core_0_L1D_prefetch_accuracy 0.0264566
Core_0_L1D_prefetch_coverage 0.0968489

Core_0_L2C_total_access 11201742
Core_0_L2C_total_hit 4551874
Core_0_L2C_total_miss 6649868
Core_0_L2C_total_MPKI 66.4987
Core_0_L2C_total_miss_rate 0.593646
Core_0_L2C_demand_access 2198745
Core_0_L2C_demand_hit 740862
Core_0_L2C_demand_miss 1457883
Core_0_L2C_demand_MPKI 14.5788
Core_0_L2C_demand_miss_rate 0.663052
Core_0_L2C_load_access 2046453
Core_0_L2C_load_hit 621957
Core_0_L2C_load_miss 1424496
Core_0_L2C_load_MPKI 14.245
Core_0_L2C_load_miss_rate 0.69608
Core_0_L2C_rfo_access 152292
Core_0_L2C_rfo_hit 118905
Core_0_L2C_rfo_miss 33387
Core_0_L2C_rfo_MPKI 0.33387
Core_0_L2C_rfo_miss_rate 0.21923
Core_0_L2C_prefetch_access 8639666
Core_0_L2C_prefetch_hit 3448517
Core_0_L2C_prefetch_miss 5191149
Core_0_L2C_prefetch_MPKI 51.9115
Core_0_L2C_prefetch_miss_rate 0.600851
Core_0_L2C_writeback_access 363331
Core_0_L2C_writeback_hit 362495
Core_0_L2C_writeback_miss 836
Core_0_L2C_writeback_MPKI 0.00836
Core_0_L2C_writeback_miss_rate 0.00230093
Core_0_L2C_prefetch_requested 3305267
Core_0_L2C_prefetch_issued 3294491
Core_0_L2C_prefetch_useful 467110
Core_0_L2C_prefetch_useless 526122
Core_0_L2C_prefetch_late 33212
Core_0_L2C_prefetch_fill 2081595
Core_0_L2C_prefetch_too_early 5042
Core_0_L2C_prefetch_too_early_among_fill 0.00242218
Core_0_L2C_prefetch_too_early_among_useless 0.00958333
Core_0_L2C_prefetch_pollution_evict 83970
Core_0_L2C_prefetch_pollution_demand 82718
Core_0_L2C_prefetch_pollution_among_prefetch_fill 0.0403393
Core_0_L2C_prefetch_accuracy 0.141785
Core_0_L2C_prefetch_coverage 0.242655

Core_0_LLC_total_access 3763864
Core_0_LLC_total_hit 497926
Core_0_LLC_total_miss 3265938
Core_0_LLC_total_MPKI 32.6594
Core_0_LLC_total_miss_rate 0.867709
Core_0_LLC_demand_access 1406500
Core_0_LLC_demand_hit 271925
Core_0_LLC_demand_miss 1134575
Core_0_LLC_demand_MPKI 11.3457
Core_0_LLC_demand_miss_rate 0.806665
Core_0_LLC_load_access 1373114
Core_0_LLC_load_hit 253879
Core_0_LLC_load_miss 1119235
Core_0_LLC_load_MPKI 11.1923
Core_0_LLC_load_miss_rate 0.815107
Core_0_LLC_rfo_access 33386
Core_0_LLC_rfo_hit 18046
Core_0_LLC_rfo_miss 15340
Core_0_LLC_rfo_MPKI 0.1534
Core_0_LLC_rfo_miss_rate 0.459474
Core_0_LLC_prefetch_access 2183972
Core_0_LLC_prefetch_hit 150649
Core_0_LLC_prefetch_miss 2033323
Core_0_LLC_prefetch_MPKI 20.3332
Core_0_LLC_prefetch_miss_rate 0.931021
Core_0_LLC_writeback_access 173392
Core_0_LLC_writeback_hit 75352
Core_0_LLC_writeback_miss 98040
Core_0_LLC_writeback_MPKI 0.9804
Core_0_LLC_writeback_miss_rate 0.565424
Core_0_LLC_prefetch_requested 0
Core_0_LLC_prefetch_issued 0
Core_0_LLC_prefetch_useful 0
Core_0_LLC_prefetch_useless 0
Core_0_LLC_prefetch_late 0
Core_0_LLC_prefetch_fill 2014523
Core_0_LLC_prefetch_too_early 0
Core_0_LLC_prefetch_too_early_among_fill 0
Core_0_LLC_prefetch_too_early_among_useless 0
Core_0_LLC_prefetch_pollution_evict 43144
Core_0_LLC_prefetch_pollution_demand 43144
Core_0_LLC_prefetch_pollution_among_prefetch_fill 0.0214165
Core_0_LLC_prefetch_accuracy 0
Core_0_LLC_prefetch_coverage 0

[DRAM Statistics]
Channel_0_RQ_row_buffer_hit 36965
Channel_0_RQ_row_buffer_miss 3375154
Channel_0_WQ_row_buffer_hit 41260
Channel_0_WQ_row_buffer_miss 107568
Channel_0_WQ_full 0
Channel_0_dbus_congested 7349491
DRAM_total_RQ_row_buffer_hit 36965
DRAM_total_RQ_row_buffer_miss 3375154
DRAM_total_WQ_row_buffer_hit 41260
DRAM_total_WQ_row_buffer_miss 107568
DRAM_total_WQ_full 0
DRAM_total_dbus_congested 7349491
DRAM_avg_congested_cycle 8.80415

====== DRAM_RQ_TRAFFIC ========
DRAM_RQ_READ_TRAFFIC_BREAKDOWN:
data_demand_read.count = 1134329
data_demand_read.share = 33.24%

inst_demand_read.count = 54
inst_demand_read.share = 0.00%

cache_inst_prefetch.count = 0
cache_inst_prefetch.share = 0.00%

cache_data_prefetch.count = 2014718
cache_data_prefetch.share = 59.05%

stlb_data_demand.count = 258278
stlb_data_demand.share = 7.57%

stlb_inst_demand.count = 10
stlb_inst_demand.share = 0.00%

stlb_l1i_pref.count = 0
stlb_l1i_pref.share = 0.00%

stlb_l1d_pref.count = 4735
stlb_l1d_pref.share = 0.14%

DRAM_RQ_READ_TRAFFIC_SUMMARY:
cache_demand.count = 1134383
cache_demand.share = 33.25%

cache_prefetch.count = 2014718
cache_prefetch.share = 59.05%

stlb_demand.count = 258288
stlb_demand.share = 7.57%

stlb_prefetch.count = 4735
stlb_prefetch.share = 0.14%

DRAM_RQ_READ_TRAFFIC_DEBUG:
total_classified_read.count = 3412124
unclassified_read.count = 0
total_read_with_other.count = 3412124

classified_plus_unclassified_check.count = 3412124
dram_rq_read_total_observed.count = 3412124
dram_rq_read_total_observed.per_1K_instructions = 34.1212

STLB_MISS_PTW_DRAM_TOUCH_BREAKDOWN:
stlb_miss_total.count = 749831

stlb_miss_touch_dram.count = 254391
stlb_miss_touch_dram.share = 33.93%

stlb_miss_no_dram_touch.count = 495440
stlb_miss_no_dram_touch.share = 66.07%

STLB_MISS_PTW_DRAM_TOUCH_DEBUG:
stlb_miss_touch_plus_no_touch.count = 749831
stlb_miss_total_check.count = 749831

======STLB miss causes ========
Core_0_STLB_miss_cause_breakdown
Core_0_STLB_cause_Demand_Data_miss 711077
Core_0_STLB_cause_Demand_Data_miss_rate 0.602978
Core_0_STLB_cause_Demand_Instruction_miss 9
Core_0_STLB_cause_Demand_Instruction_miss_rate 7.63181e-06
Core_0_STLB_cause_L1D_Prefetch_miss 38745
Core_0_STLB_cause_L1D_Prefetch_miss_rate 0.0328549
Core_0_STLB_cause_L1D_Prefetch_Same_Page_miss 0
Core_0_STLB_cause_L1D_Prefetch_Same_Page_miss_rate 0
Core_0_STLB_cause_L1D_Prefetch_Cross_Page_miss 38745
Core_0_STLB_cause_L1D_Prefetch_Cross_Page_miss_rate 0.0328549
Core_0_STLB_cause_L1I_Prefetch_miss 0
Core_0_STLB_cause_L1I_Prefetch_miss_rate 0
Core_0_STLB_cause_Other_miss 0
Core_0_STLB_cause_Other_miss_rate 0
Core_0_STLB_Demand_miss 711086
Core_0_STLB_Demand_miss_rate 0.602986
Core_0_STLB_L1D_Prefetch_miss 38745
Core_0_STLB_L1D_Prefetch_miss_rate 0.0328549
Core_0_STLB_Other_miss 0
Core_0_STLB_Other_miss_rate 0

========== vBerti-TLB Cross-page Flow Stats ==========

Core_0_vBerti_Requested 58829102
Core_0_vBerti_Cross_page_prefetch_in_Requested 4398888
Core_0_vBerti_Same_page_prefetch_in_Requested 54430214
Core_0_vBerti_Cross_page_prefetch_of_Requested 0.074774
Core_0_vBerti_Issued 20780320
Core_0_vBerti_InPQ_Same_page_prefetch 19789385
Core_0_vBerti_InPQ_Cross_page_prefetch 990935
Core_0_vBerti_PQ_Drop_Rate 0.646768
Core_0_vBerti_InPQ_Cross_page_prefetch_of_Requested 0.0168443
Core_0_vBerti_Cross_page_PQ_Drop_rate 0.774731
Core_0_vBerti_Cross_page_prefetch_of_Issued 0.0476862
Core_0_CP_PF_PQFULL_drop 3407953
Core_0_CP_PF_PQFULL_TLB_rescue_enqueued 0
Core_0_CP_PF_PQFULL_TLB_rescue_issued 0
Core_0_CP_PF_PQFULL_TLB_rescue_translated 0

========= DTLB_vBerti Prefetch Stats =========
Core_0_DTLB_demand_access 29197668
Core_0_DTLB_demand_hit 26166733
Core_0_DTLB_demand_miss 3030935
Core_0_DTLB_demand_mshr_merge 1895675
Core_0_DTLB_demand_fill 1136666
Core_0_DTLB_demand_miss_rate 0.103807
Core_0_DTLB_demand_mpki 30.3093
Core_0_DTLB_vberti_prefetch_access 13523351
Core_0_DTLB_vberti_prefetch_hit 13359041
Core_0_DTLB_vberti_prefetch_miss 164310
Core_0_DTLB_vberti_prefetch_mshr_merge 120304
Core_0_DTLB_vberti_prefetch_fill 42600
Core_0_DTLB_vberti_prefetch_miss_rate 0.0121501
Core_0_DTLB_vberti_prefetch_mpki 1.6431

=== DTLB_vBerti Same/Cross-page Prefetch Stats ===
Core_0_DTLB_vberti_same_page_prefetch 12750147
Core_0_DTLB_vberti_same_page_prefetch_hit 12750147
Core_0_DTLB_vberti_same_page_prefetch_miss 0
Core_0_DTLB_vberti_same_page_prefetch_mshr_merge 0
Core_0_DTLB_vberti_same_page_prefetch_fill 0
Core_0_DTLB_vberti_same_page_prefetch_miss_rate 0
Core_0_DTLB_vberti_same_page_prefetch_mpki 0
Core_0_DTLB_vberti_cross_page_prefetch 773204
Core_0_DTLB_vberti_cross_page_prefetch_hit 608894
Core_0_DTLB_vberti_cross_page_prefetch_miss 164310
Core_0_DTLB_vberti_cross_page_prefetch_mshr_merge 120304
Core_0_DTLB_vberti_cross_page_prefetch_fill 42600
Core_0_DTLB_vberti_cross_page_prefetch_miss_rate 0.212505
Core_0_DTLB_vberti_cross_page_prefetch_mpki 1.6431
Core_0_DTLB_same_page_prefetch_miss_rate 0
Core_0_DTLB_same_page_prefetch_mpki 0
Core_0_DTLB_cross_page_prefetch_miss_rate 0.212505
Core_0_DTLB_cross_page_prefetch_mpki 1.6431
Core_0_DTLB_cross_page_prefetch_issued 773204
Core_0_DTLB_cross_page_prefetch_lookups 773204
Core_0_DTLB_cross_page_prefetch_useful 14624
Core_0_DTLB_cross_page_prefetch_useless 29382
Core_0_DTLB_cross_page_prefetch_late 1406
Core_0_DTLB_cross_page_prefetch_too_early 2690
Core_0_DTLB_cross_page_prefetch_too_early_among_fill 0.0631455
Core_0_DTLB_cross_page_prefetch_too_early_among_useless 0.0915527
Core_0_DTLB_cross_page_prefetch_pollution_evict 14591
Core_0_DTLB_cross_page_prefetch_pollution_demand 14437
Core_0_DTLB_cross_page_prefetch_pollution_among_prefetch_fill 0.342512
Core_0_DTLB_cross_page_prefetch_accuracy 0.0189135
Core_0_DTLB_cross_page_prefetch_coverage 0.00480175

========= STLB_vBerti Prefetch Stats =========
Core_0_STLB_demand_access 1135269
Core_0_STLB_demand_hit 424183
Core_0_STLB_demand_miss 711086
Core_0_STLB_demand_mshr_merge 0
Core_0_STLB_demand_fill 711086
Core_0_STLB_demand_miss_rate 0.626359
Core_0_STLB_demand_mpki 7.11086
Core_0_STLB_vberti_prefetch_access 44006
Core_0_STLB_vberti_prefetch_hit 5261
Core_0_STLB_vberti_prefetch_miss 38745
Core_0_STLB_vberti_prefetch_mshr_merge 0
Core_0_STLB_vberti_prefetch_fill 38745
Core_0_STLB_vberti_prefetch_miss_rate 0.880448
Core_0_STLB_vberti_prefetch_mpki 0.38745

=== STLB_vBerti Same/Cross-page Prefetch Stats ===
Core_0_STLB_vberti_same_page_prefetch 0
Core_0_STLB_vberti_same_page_prefetch_hit 0
Core_0_STLB_vberti_same_page_prefetch_miss 0
Core_0_STLB_vberti_same_page_prefetch_mshr_merge 0
Core_0_STLB_vberti_same_page_prefetch_fill 0
Core_0_STLB_vberti_same_page_prefetch_miss_rate 0
Core_0_STLB_vberti_same_page_prefetch_mpki 0
Core_0_STLB_vberti_cross_page_prefetch 44006
Core_0_STLB_vberti_cross_page_prefetch_hit 5261
Core_0_STLB_vberti_cross_page_prefetch_miss 38745
Core_0_STLB_vberti_cross_page_prefetch_mshr_merge 0
Core_0_STLB_vberti_cross_page_prefetch_fill 38745
Core_0_STLB_vberti_cross_page_prefetch_miss_rate 0.880448
Core_0_STLB_vberti_cross_page_prefetch_mpki 0.38745
Core_0_STLB_same_page_prefetch_miss_rate 0
Core_0_STLB_same_page_prefetch_mpki 0
Core_0_STLB_cross_page_prefetch_miss_rate 0.880448
Core_0_STLB_cross_page_prefetch_mpki 0.38745
Core_0_STLB_cross_page_prefetch_issued 44006
Core_0_STLB_cross_page_prefetch_lookups 44006
Core_0_STLB_cross_page_prefetch_useful 2031
Core_0_STLB_cross_page_prefetch_useless 36714
Core_0_STLB_cross_page_prefetch_late 0
Core_0_STLB_cross_page_prefetch_too_early 6512
Core_0_STLB_cross_page_prefetch_too_early_among_fill 0.168073
Core_0_STLB_cross_page_prefetch_too_early_among_useless 0.177371
Core_0_STLB_cross_page_prefetch_pollution_evict 18521
Core_0_STLB_cross_page_prefetch_pollution_demand 18082
Core_0_STLB_cross_page_prefetch_pollution_among_prefetch_fill 0.478023
Core_0_STLB_cross_page_prefetch_accuracy 0.0461528
Core_0_STLB_cross_page_prefetch_coverage 0.00284806

========= STLB Cross-page Prefetch Buffer Stats =========
Core_0_STLB_raw_demand_miss 711077
Core_0_CP_PB_insert 0
Core_0_CP_PB_demand_hit 0
Core_0_STLB_PB_demand_miss 711077
Core_0_CP_PB_coverage 0
Core_0_STLB_raw_demand_mpki 7.11077
Core_0_STLB_PB_demand_mpki 7.11077
Core_0_CP_PB_demand_hit_mpki 0

Core_0_TLB_demand_miss_rate 0.0243542
Core_0_TLB_demand_mpki 7.11086
Core_0_TLB_same_page_prefetch_miss_rate 0
Core_0_TLB_same_page_prefetch_mpki 0
Core_0_TLB_cross_page_prefetch_miss_rate 0.0501097
Core_0_TLB_cross_page_prefetch_mpki 0.38745
Core_0_TLB_cross_page_prefetch_issued 773204
Core_0_TLB_cross_page_prefetch_lookups 773204
Core_0_TLB_cross_page_prefetch_useful 12996
Core_0_TLB_cross_page_prefetch_useless 28600
Core_0_TLB_cross_page_prefetch_late 1331
Core_0_TLB_cross_page_prefetch_too_early 2343
Core_0_TLB_cross_page_prefetch_too_early_among_fill 0.0288032
Core_0_TLB_cross_page_prefetch_too_early_among_useless 0.0819231
Core_0_TLB_cross_page_prefetch_accuracy 0.016808
Core_0_TLB_cross_page_prefetch_coverage 0.0179482
BERTI TO_L1: 53509416 TO_L2: 25194714 TO_L2_BC_MSHR: 519900
BERTI AVG_LAT: 100.962 NUM_TRACK_LATENCY: 4529897 NUM_CANT_TRACK_LATENCY: 0
BERTI CROSS_PAGE 6091859 NO_CROSS_PAGE: 72612271
BERTI FOUND_BERTI: 27947464 NO_FOUND_BERTI: 14264304
BERTI AVERAGE_ISSUED: 2.55842
