[VMEM] WARNING: physical memory size is smaller than virtual memory size.

*** ChampSim Multicore Out-of-Order Simulator ***
Warmup Instructions: 50000000
Simulation Instructions: 100000000
Number of CPUs: 1
Page size: 4096
Core 0: /data2/zcq/champsim_traces_xsbench/xs.XXL100hash-94B.champsimtrace.xz
VBerti Prefetcher
BERTI HASH ENTANGLING
BERTI IP MASK ffff
Off-chip DRAM Size: 16 GiB Channels: 1 Width: 64-bit Data Rate: 3205 MT/s
Warmup halting CPU 0 at instruction 50000004 cycle 12533146 for remainder of phase
Warmup finished CPU 0 instructions: 50000004 cycles: 12533146 cumulative IPC: 3.989 (Simulation time: 00 hr 02 min 53 sec)
Warmup complete CPU 0 instructions: 50000004 cycles: 12533146 cumulative IPC: 3.989 (Simulation time: 00 hr 02 min 53 sec)
Simulation finished CPU 0 instructions: 100000000 cycles: 198163640 cumulative IPC: 0.5046 (Simulation time: 00 hr 21 min 30 sec)
Simulation complete CPU 0 instructions: 100000000 cycles: 198163640 cumulative IPC: 0.5046 (Simulation time: 00 hr 21 min 30 sec)

ChampSim completed all CPUs

=== Simulation ===
CPU 0 runs /data2/zcq/champsim_traces_xsbench/xs.XXL100hash-94B.champsimtrace.xz

Region of Interest Statistics

CPU 0 cumulative IPC: 0.5046 instructions: 100000000 cycles: 198163640
CPU 0 Branch Prediction Accuracy: 92.62% MPKI: 17.95 Average ROB Occupancy at Mispredict: 28.73
Branch type MPKI
BRANCH_DIRECT_JUMP: 0
BRANCH_INDIRECT: 0
BRANCH_CONDITIONAL: 17.95
BRANCH_DIRECT_CALL: 0
BRANCH_INDIRECT_CALL: 1e-05
BRANCH_RETURN: 0.00071

cpu0->cpu0_STLB TOTAL        ACCESS:    1039146 HIT:     908181 MISS:     130965 MSHR_MERGE:          0
cpu0->cpu0_STLB LOAD         ACCESS:    1039146 HIT:     908181 MISS:     130965 MSHR_MERGE:          0
cpu0->cpu0_STLB RFO          ACCESS:          0 HIT:          0 MISS:          0 MSHR_MERGE:          0
cpu0->cpu0_STLB PREFETCH     ACCESS:          0 HIT:          0 MISS:          0 MSHR_MERGE:          0
cpu0->cpu0_STLB WRITE        ACCESS:          0 HIT:          0 MISS:          0 MSHR_MERGE:          0
cpu0->cpu0_STLB TRANSLATION  ACCESS:          0 HIT:          0 MISS:          0 MSHR_MERGE:          0
cpu0->cpu0_STLB PREFETCH REQUESTED:          0 ISSUED:          0 USEFUL:          0 USELESS:          0 LATE:          0
cpu0->cpu0_STLB AVERAGE MISS LATENCY: 25.13 cycles
cpu0->cpu0_L2C TOTAL        ACCESS:    8682639 HIT:    6669718 MISS:    2012921 MSHR_MERGE:     247202
cpu0->cpu0_L2C LOAD         ACCESS:    1897670 HIT:     760361 MISS:    1137309 MSHR_MERGE:      37802
cpu0->cpu0_L2C RFO          ACCESS:      78900 HIT:      60710 MISS:      18190 MSHR_MERGE:       2072
cpu0->cpu0_L2C PREFETCH     ACCESS:    6157036 HIT:    5302108 MISS:     854928 MSHR_MERGE:     207328
cpu0->cpu0_L2C WRITE        ACCESS:     474692 HIT:     474637 MISS:         55 MSHR_MERGE:          0
cpu0->cpu0_L2C TRANSLATION  ACCESS:      74341 HIT:      71902 MISS:       2439 MSHR_MERGE:          0
cpu0->cpu0_L2C PREFETCH REQUESTED:    1618218 ISSUED:    1579889 USEFUL:     203407 USELESS:       2580 LATE:      34527
cpu0->cpu0_L2C AVERAGE MISS LATENCY: 153.2 cycles
cpu0->cpu0_L1I TOTAL        ACCESS:    1439680 HIT:    1439680 MISS:          0 MSHR_MERGE:          0
cpu0->cpu0_L1I LOAD         ACCESS:    1439680 HIT:    1439680 MISS:          0 MSHR_MERGE:          0
cpu0->cpu0_L1I RFO          ACCESS:          0 HIT:          0 MISS:          0 MSHR_MERGE:          0
cpu0->cpu0_L1I PREFETCH     ACCESS:          0 HIT:          0 MISS:          0 MSHR_MERGE:          0
cpu0->cpu0_L1I WRITE        ACCESS:          0 HIT:          0 MISS:          0 MSHR_MERGE:          0
cpu0->cpu0_L1I TRANSLATION  ACCESS:          0 HIT:          0 MISS:          0 MSHR_MERGE:          0
cpu0->cpu0_L1I PREFETCH REQUESTED:          0 ISSUED:          0 USEFUL:          0 USELESS:          0 LATE:          0
cpu0->cpu0_L1I AVERAGE MISS LATENCY: - cycles
cpu0->cpu0_L1D TOTAL        ACCESS:   72897796 HIT:   65664681 MISS:    7233115 MSHR_MERGE:     585896
cpu0->cpu0_L1D LOAD         ACCESS:   23131675 HIT:   20906903 MISS:    2224772 MSHR_MERGE:     327103
cpu0->cpu0_L1D RFO          ACCESS:          0 HIT:          0 MISS:          0 MSHR_MERGE:          0
cpu0->cpu0_L1D PREFETCH     ACCESS:   37083546 HIT:   32467457 MISS:    4616089 MSHR_MERGE:      19780
cpu0->cpu0_L1D WRITE        ACCESS:   12420710 HIT:   12102830 MISS:     317880 MSHR_MERGE:     238980
cpu0->cpu0_L1D TRANSLATION  ACCESS:     261865 HIT:     187491 MISS:      74374 MSHR_MERGE:         33
cpu0->cpu0_L1D PREFETCH REQUESTED:  147793910 ISSUED:   37083541 USEFUL:     693827 USELESS:      12164 LATE:      16912
cpu0->cpu0_L1D AVERAGE MISS LATENCY: 95.99 cycles
cpu0->cpu0_ITLB TOTAL        ACCESS:    1366444 HIT:    1366444 MISS:          0 MSHR_MERGE:          0
cpu0->cpu0_ITLB LOAD         ACCESS:    1366444 HIT:    1366444 MISS:          0 MSHR_MERGE:          0
cpu0->cpu0_ITLB RFO          ACCESS:          0 HIT:          0 MISS:          0 MSHR_MERGE:          0
cpu0->cpu0_ITLB PREFETCH     ACCESS:          0 HIT:          0 MISS:          0 MSHR_MERGE:          0
cpu0->cpu0_ITLB WRITE        ACCESS:          0 HIT:          0 MISS:          0 MSHR_MERGE:          0
cpu0->cpu0_ITLB TRANSLATION  ACCESS:          0 HIT:          0 MISS:          0 MSHR_MERGE:          0
cpu0->cpu0_ITLB PREFETCH REQUESTED:          0 ISSUED:          0 USEFUL:          0 USELESS:          0 LATE:          0
cpu0->cpu0_ITLB AVERAGE MISS LATENCY: - cycles
cpu0->cpu0_DTLB TOTAL        ACCESS:   58087464 HIT:   56988056 MISS:    1099408 MSHR_MERGE:      60261
cpu0->cpu0_DTLB LOAD         ACCESS:   58087464 HIT:   56988056 MISS:    1099408 MSHR_MERGE:      60261
cpu0->cpu0_DTLB RFO          ACCESS:          0 HIT:          0 MISS:          0 MSHR_MERGE:          0
cpu0->cpu0_DTLB PREFETCH     ACCESS:          0 HIT:          0 MISS:          0 MSHR_MERGE:          0
cpu0->cpu0_DTLB WRITE        ACCESS:          0 HIT:          0 MISS:          0 MSHR_MERGE:          0
cpu0->cpu0_DTLB TRANSLATION  ACCESS:          0 HIT:          0 MISS:          0 MSHR_MERGE:          0
cpu0->cpu0_DTLB PREFETCH REQUESTED:          0 ISSUED:          0 USEFUL:          0 USELESS:          0 LATE:          0
cpu0->cpu0_DTLB AVERAGE MISS LATENCY: 8.298 cycles
cpu0->LLC TOTAL        ACCESS:    2074883 HIT:     816836 MISS:    1258047 MSHR_MERGE:      23346
cpu0->LLC LOAD         ACCESS:    1099506 HIT:     391345 MISS:     708161 MSHR_MERGE:       4550
cpu0->LLC RFO          ACCESS:      16118 HIT:       7580 MISS:       8538 MSHR_MERGE:        150
cpu0->LLC PREFETCH     ACCESS:     647576 HIT:     206786 MISS:     440790 MSHR_MERGE:      18646
cpu0->LLC WRITE        ACCESS:     309244 HIT:     211009 MISS:      98235 MSHR_MERGE:          0
cpu0->LLC TRANSLATION  ACCESS:       2439 HIT:        116 MISS:       2323 MSHR_MERGE:          0
cpu0->LLC PREFETCH REQUESTED:          0 ISSUED:          0 USEFUL:          0 USELESS:          0 LATE:          0
cpu0->LLC AVERAGE MISS LATENCY: 185.3 cycles

DRAM Statistics

Channel 0 RQ ROW_BUFFER_HIT:      27589
  ROW_BUFFER_MISS:    1108144
  AVG DBUS CONGESTED CYCLE: 12.06
Channel 0 WQ ROW_BUFFER_HIT:      41208
  ROW_BUFFER_MISS:     143666
  FULL:        967
Channel 0 REFRESHES ISSUED:      16514

[ROI Statistics]
[System Configuration]
num_cpus 1
cpu_freq 4000
fetch_width 6
decode_width 6
dispatch_width 6
execute_width 6
lq_width 2
sq_width 2
retire_width 6
scheduler_size 128
branch_mispredict_penalty 15
rob_size 352
lq_size 128
sq_size 72
ifetch_buffer_size 64
decode_buffer_size 32
dispatch_buffer_size 32
register_file_size 288
decode_latency 1
dispatch_latency 1
schedule_latency 1
execute_latency 1
page_size 4096
block_size 64
core_0_itlb_set 16
core_0_itlb_way 4
core_0_itlb_rq_size 16
core_0_itlb_wq_size 16
core_0_itlb_pq_size 0
core_0_itlb_mshr_size 8
core_0_itlb_hit_latency 1
core_0_itlb_fill_latency 1
core_0_itlb_max_tag_check 2
core_0_itlb_max_fill 2
core_0_dtlb_set 16
core_0_dtlb_way 4
core_0_dtlb_rq_size 16
core_0_dtlb_wq_size 16
core_0_dtlb_pq_size 0
core_0_dtlb_mshr_size 8
core_0_dtlb_hit_latency 1
core_0_dtlb_fill_latency 1
core_0_dtlb_max_tag_check 2
core_0_dtlb_max_fill 2
core_0_stlb_set 128
core_0_stlb_way 12
core_0_stlb_rq_size 32
core_0_stlb_wq_size 32
core_0_stlb_pq_size 0
core_0_stlb_mshr_size 16
core_0_stlb_hit_latency 4
core_0_stlb_fill_latency 4
core_0_stlb_max_tag_check 1
core_0_stlb_max_fill 1
core_0_l1i_set 64
core_0_l1i_way 8
core_0_l1i_rq_size 64
core_0_l1i_wq_size 64
core_0_l1i_pq_size 32
core_0_l1i_mshr_size 8
core_0_l1i_hit_latency 2
core_0_l1i_fill_latency 2
core_0_l1i_max_tag_check 2
core_0_l1i_max_fill 2
core_0_l1d_set 64
core_0_l1d_way 12
core_0_l1d_rq_size 64
core_0_l1d_wq_size 64
core_0_l1d_pq_size 8
core_0_l1d_mshr_size 16
core_0_l1d_hit_latency 2
core_0_l1d_fill_latency 3
core_0_l1d_max_tag_check 2
core_0_l1d_max_fill 2
core_0_l2c_set 1024
core_0_l2c_way 8
core_0_l2c_rq_size 32
core_0_l2c_wq_size 32
core_0_l2c_pq_size 16
core_0_l2c_mshr_size 32
core_0_l2c_hit_latency 5
core_0_l2c_fill_latency 5
core_0_l2c_max_tag_check 1
core_0_l2c_max_fill 1
llc_set 2048
llc_way 16
llc_rq_size 32
llc_wq_size 32
llc_pq_size 32
llc_mshr_size 64
llc_hit_latency 10
llc_fill_latency 10
llc_max_tag_check 1
llc_max_fill 1
dram_channels 1
dram_ranks 1
dram_bankgroups 8
dram_banks 4
dram_rows 65536
dram_columns 1024
dram_channel_width 8
dram_rq_size 64
dram_wq_size 64
dram_size 17179869184
core_0_itlb_prefetcher no
core_0_dtlb_prefetcher no
core_0_stlb_prefetcher no
core_0_l1i_prefetcher next_line
core_0_l1d_prefetcher vberti
core_0_l2c_prefetcher ip_stride
llc_prefetcher no
llc_replacement drrip

Core_0_instructions 100000000
Core_0_cycles 198163640
Core_0_IPC 0.504633
Core_0_branch_prediction_accuracy 92.6239
Core_0_branch_MPKI 17.9488
Core_0_average_ROB_occupancy_at_mispredict 28.7297

Core_0_ITLB_total_access 1366444
Core_0_ITLB_total_hit 1366444
Core_0_ITLB_total_miss 0
Core_0_ITLB_total_MPKI 0
Core_0_ITLB_total_miss_rate 0
Core_0_ITLB_demand_access 1366444
Core_0_ITLB_demand_hit 1366444
Core_0_ITLB_demand_miss 0
Core_0_ITLB_demand_MPKI 0
Core_0_ITLB_demand_miss_rate 0
Core_0_ITLB_load_access 1366444
Core_0_ITLB_load_hit 1366444
Core_0_ITLB_load_miss 0
Core_0_ITLB_load_MPKI 0
Core_0_ITLB_load_miss_rate 0
Core_0_ITLB_rfo_access 0
Core_0_ITLB_rfo_hit 0
Core_0_ITLB_rfo_miss 0
Core_0_ITLB_rfo_MPKI 0
Core_0_ITLB_rfo_miss_rate 0
Core_0_ITLB_prefetch_access 0
Core_0_ITLB_prefetch_hit 0
Core_0_ITLB_prefetch_miss 0
Core_0_ITLB_prefetch_MPKI 0
Core_0_ITLB_prefetch_miss_rate 0
Core_0_ITLB_writeback_access 0
Core_0_ITLB_writeback_hit 0
Core_0_ITLB_writeback_miss 0
Core_0_ITLB_writeback_MPKI 0
Core_0_ITLB_writeback_miss_rate 0
Core_0_ITLB_prefetch_requested 0
Core_0_ITLB_prefetch_issued 0
Core_0_ITLB_prefetch_useful 0
Core_0_ITLB_prefetch_useless 0
Core_0_ITLB_prefetch_late 0
Core_0_ITLB_prefetch_accuracy 0
Core_0_ITLB_prefetch_coverage 0

Core_0_DTLB_total_access 58087464
Core_0_DTLB_total_hit 56988056
Core_0_DTLB_total_miss 1099408
Core_0_DTLB_total_MPKI 10.9941
Core_0_DTLB_total_miss_rate 0.0189268
Core_0_DTLB_demand_access 58087464
Core_0_DTLB_demand_hit 56988056
Core_0_DTLB_demand_miss 1099408
Core_0_DTLB_demand_MPKI 10.9941
Core_0_DTLB_demand_miss_rate 0.0189268
Core_0_DTLB_load_access 58087464
Core_0_DTLB_load_hit 56988056
Core_0_DTLB_load_miss 1099408
Core_0_DTLB_load_MPKI 10.9941
Core_0_DTLB_load_miss_rate 0.0189268
Core_0_DTLB_rfo_access 0
Core_0_DTLB_rfo_hit 0
Core_0_DTLB_rfo_miss 0
Core_0_DTLB_rfo_MPKI 0
Core_0_DTLB_rfo_miss_rate 0
Core_0_DTLB_prefetch_access 0
Core_0_DTLB_prefetch_hit 0
Core_0_DTLB_prefetch_miss 0
Core_0_DTLB_prefetch_MPKI 0
Core_0_DTLB_prefetch_miss_rate 0
Core_0_DTLB_writeback_access 0
Core_0_DTLB_writeback_hit 0
Core_0_DTLB_writeback_miss 0
Core_0_DTLB_writeback_MPKI 0
Core_0_DTLB_writeback_miss_rate 0
Core_0_DTLB_prefetch_requested 0
Core_0_DTLB_prefetch_issued 0
Core_0_DTLB_prefetch_useful 0
Core_0_DTLB_prefetch_useless 0
Core_0_DTLB_prefetch_late 0
Core_0_DTLB_prefetch_accuracy 0
Core_0_DTLB_prefetch_coverage 0

Core_0_STLB_total_access 1039146
Core_0_STLB_total_hit 908181
Core_0_STLB_total_miss 130965
Core_0_STLB_total_MPKI 1.30965
Core_0_STLB_total_miss_rate 0.126031
Core_0_STLB_demand_access 1039146
Core_0_STLB_demand_hit 908181
Core_0_STLB_demand_miss 130965
Core_0_STLB_demand_MPKI 1.30965
Core_0_STLB_demand_miss_rate 0.126031
Core_0_STLB_load_access 1039146
Core_0_STLB_load_hit 908181
Core_0_STLB_load_miss 130965
Core_0_STLB_load_MPKI 1.30965
Core_0_STLB_load_miss_rate 0.126031
Core_0_STLB_rfo_access 0
Core_0_STLB_rfo_hit 0
Core_0_STLB_rfo_miss 0
Core_0_STLB_rfo_MPKI 0
Core_0_STLB_rfo_miss_rate 0
Core_0_STLB_prefetch_access 0
Core_0_STLB_prefetch_hit 0
Core_0_STLB_prefetch_miss 0
Core_0_STLB_prefetch_MPKI 0
Core_0_STLB_prefetch_miss_rate 0
Core_0_STLB_writeback_access 0
Core_0_STLB_writeback_hit 0
Core_0_STLB_writeback_miss 0
Core_0_STLB_writeback_MPKI 0
Core_0_STLB_writeback_miss_rate 0
Core_0_STLB_prefetch_requested 0
Core_0_STLB_prefetch_issued 0
Core_0_STLB_prefetch_useful 0
Core_0_STLB_prefetch_useless 0
Core_0_STLB_prefetch_late 0
Core_0_STLB_prefetch_accuracy 0
Core_0_STLB_prefetch_coverage 0

Core_0_L1I_total_access 1439680
Core_0_L1I_total_hit 1439680
Core_0_L1I_total_miss 0
Core_0_L1I_total_MPKI 0
Core_0_L1I_total_miss_rate 0
Core_0_L1I_demand_access 1439680
Core_0_L1I_demand_hit 1439680
Core_0_L1I_demand_miss 0
Core_0_L1I_demand_MPKI 0
Core_0_L1I_demand_miss_rate 0
Core_0_L1I_load_access 1439680
Core_0_L1I_load_hit 1439680
Core_0_L1I_load_miss 0
Core_0_L1I_load_MPKI 0
Core_0_L1I_load_miss_rate 0
Core_0_L1I_rfo_access 0
Core_0_L1I_rfo_hit 0
Core_0_L1I_rfo_miss 0
Core_0_L1I_rfo_MPKI 0
Core_0_L1I_rfo_miss_rate 0
Core_0_L1I_prefetch_access 0
Core_0_L1I_prefetch_hit 0
Core_0_L1I_prefetch_miss 0
Core_0_L1I_prefetch_MPKI 0
Core_0_L1I_prefetch_miss_rate 0
Core_0_L1I_writeback_access 0
Core_0_L1I_writeback_hit 0
Core_0_L1I_writeback_miss 0
Core_0_L1I_writeback_MPKI 0
Core_0_L1I_writeback_miss_rate 0
Core_0_L1I_prefetch_requested 0
Core_0_L1I_prefetch_issued 0
Core_0_L1I_prefetch_useful 0
Core_0_L1I_prefetch_useless 0
Core_0_L1I_prefetch_late 0
Core_0_L1I_prefetch_accuracy 0
Core_0_L1I_prefetch_coverage 0

Core_0_L1D_total_access 72635931
Core_0_L1D_total_hit 65477190
Core_0_L1D_total_miss 7158741
Core_0_L1D_total_MPKI 71.5874
Core_0_L1D_total_miss_rate 0.0985565
Core_0_L1D_demand_access 23131675
Core_0_L1D_demand_hit 20906903
Core_0_L1D_demand_miss 2224772
Core_0_L1D_demand_MPKI 22.2477
Core_0_L1D_demand_miss_rate 0.0961786
Core_0_L1D_load_access 23131675
Core_0_L1D_load_hit 20906903
Core_0_L1D_load_miss 2224772
Core_0_L1D_load_MPKI 22.2477
Core_0_L1D_load_miss_rate 0.0961786
Core_0_L1D_rfo_access 0
Core_0_L1D_rfo_hit 0
Core_0_L1D_rfo_miss 0
Core_0_L1D_rfo_MPKI 0
Core_0_L1D_rfo_miss_rate 0
Core_0_L1D_prefetch_access 37083546
Core_0_L1D_prefetch_hit 32467457
Core_0_L1D_prefetch_miss 4616089
Core_0_L1D_prefetch_MPKI 46.1609
Core_0_L1D_prefetch_miss_rate 0.124478
Core_0_L1D_writeback_access 12420710
Core_0_L1D_writeback_hit 12102830
Core_0_L1D_writeback_miss 317880
Core_0_L1D_writeback_MPKI 3.1788
Core_0_L1D_writeback_miss_rate 0.0255927
Core_0_L1D_prefetch_requested 147793910
Core_0_L1D_prefetch_issued 37083541
Core_0_L1D_prefetch_useful 693827
Core_0_L1D_prefetch_useless 12164
Core_0_L1D_prefetch_late 16912
Core_0_L1D_prefetch_accuracy 0.0187098
Core_0_L1D_prefetch_coverage 0.237726

Core_0_L2C_total_access 8608298
Core_0_L2C_total_hit 6597816
Core_0_L2C_total_miss 2010482
Core_0_L2C_total_MPKI 20.1048
Core_0_L2C_total_miss_rate 0.233552
Core_0_L2C_demand_access 1976570
Core_0_L2C_demand_hit 821071
Core_0_L2C_demand_miss 1155499
Core_0_L2C_demand_MPKI 11.555
Core_0_L2C_demand_miss_rate 0.584598
Core_0_L2C_load_access 1897670
Core_0_L2C_load_hit 760361
Core_0_L2C_load_miss 1137309
Core_0_L2C_load_MPKI 11.3731
Core_0_L2C_load_miss_rate 0.599319
Core_0_L2C_rfo_access 78900
Core_0_L2C_rfo_hit 60710
Core_0_L2C_rfo_miss 18190
Core_0_L2C_rfo_MPKI 0.1819
Core_0_L2C_rfo_miss_rate 0.230545
Core_0_L2C_prefetch_access 6157036
Core_0_L2C_prefetch_hit 5302108
Core_0_L2C_prefetch_miss 854928
Core_0_L2C_prefetch_MPKI 8.54928
Core_0_L2C_prefetch_miss_rate 0.138854
Core_0_L2C_writeback_access 474692
Core_0_L2C_writeback_hit 474637
Core_0_L2C_writeback_miss 55
Core_0_L2C_writeback_MPKI 0.00055
Core_0_L2C_writeback_miss_rate 0.000115865
Core_0_L2C_prefetch_requested 1618218
Core_0_L2C_prefetch_issued 1579889
Core_0_L2C_prefetch_useful 203407
Core_0_L2C_prefetch_useless 2580
Core_0_L2C_prefetch_late 34527
Core_0_L2C_prefetch_accuracy 0.128748
Core_0_L2C_prefetch_coverage 0.149684

Core_0_LLC_total_access 2072444
Core_0_LLC_total_hit 816720
Core_0_LLC_total_miss 1255724
Core_0_LLC_total_MPKI 12.5572
Core_0_LLC_total_miss_rate 0.605915
Core_0_LLC_demand_access 1115624
Core_0_LLC_demand_hit 398925
Core_0_LLC_demand_miss 716699
Core_0_LLC_demand_MPKI 7.16699
Core_0_LLC_demand_miss_rate 0.64242
Core_0_LLC_load_access 1099506
Core_0_LLC_load_hit 391345
Core_0_LLC_load_miss 708161
Core_0_LLC_load_MPKI 7.08161
Core_0_LLC_load_miss_rate 0.644072
Core_0_LLC_rfo_access 16118
Core_0_LLC_rfo_hit 7580
Core_0_LLC_rfo_miss 8538
Core_0_LLC_rfo_MPKI 0.08538
Core_0_LLC_rfo_miss_rate 0.529718
Core_0_LLC_prefetch_access 647576
Core_0_LLC_prefetch_hit 206786
Core_0_LLC_prefetch_miss 440790
Core_0_LLC_prefetch_MPKI 4.4079
Core_0_LLC_prefetch_miss_rate 0.680677
Core_0_LLC_writeback_access 309244
Core_0_LLC_writeback_hit 211009
Core_0_LLC_writeback_miss 98235
Core_0_LLC_writeback_MPKI 0.98235
Core_0_LLC_writeback_miss_rate 0.317662
Core_0_LLC_prefetch_requested 0
Core_0_LLC_prefetch_issued 0
Core_0_LLC_prefetch_useful 0
Core_0_LLC_prefetch_useless 0
Core_0_LLC_prefetch_late 0
Core_0_LLC_prefetch_accuracy 0
Core_0_LLC_prefetch_coverage 0

[DRAM Statistics]
Channel_0_RQ_row_buffer_hit 27589
Channel_0_RQ_row_buffer_miss 1108144
Channel_0_WQ_row_buffer_hit 41208
Channel_0_WQ_row_buffer_miss 143666
Channel_0_WQ_full 967
Channel_0_dbus_congested 2878234
DRAM_total_RQ_row_buffer_hit 27589
DRAM_total_RQ_row_buffer_miss 1108144
DRAM_total_WQ_row_buffer_hit 41208
DRAM_total_WQ_row_buffer_miss 143666
DRAM_total_WQ_full 967
DRAM_total_dbus_congested 2878234
DRAM_avg_congested_cycle 12.0589

====== DRAM_RQ_TRAFFIC ========
DRAM_RQ_READ_TRAFFIC_BREAKDOWN:
data_demand_read.count = 711999
data_demand_read.share = 62.65%

inst_demand_read.count = 0
inst_demand_read.share = 0.00%

cache_inst_prefetch.count = 0
cache_inst_prefetch.share = 0.00%

cache_data_prefetch.count = 422144
cache_data_prefetch.share = 37.15%

stlb_data_demand.count = 1529
stlb_data_demand.share = 0.13%

stlb_inst_demand.count = 0
stlb_inst_demand.share = 0.00%

stlb_l1i_pref.count = 0
stlb_l1i_pref.share = 0.00%

stlb_l1d_pref.count = 794
stlb_l1d_pref.share = 0.07%

DRAM_RQ_READ_TRAFFIC_SUMMARY:
cache_demand.count = 711999
cache_demand.share = 62.65%

cache_prefetch.count = 422144
cache_prefetch.share = 37.15%

stlb_demand.count = 1529
stlb_demand.share = 0.13%

stlb_prefetch.count = 794
stlb_prefetch.share = 0.07%

DRAM_RQ_READ_TRAFFIC_DEBUG:
total_classified_read.count = 1136466
unclassified_read.count = 0
total_read_with_other.count = 1136466

classified_plus_unclassified_check.count = 1136466
dram_rq_read_total_observed.count = 1136466
dram_rq_read_total_observed.per_1K_instructions = 11.3647

STLB_MISS_PTW_DRAM_TOUCH_BREAKDOWN:
stlb_miss_total.count = 130965

stlb_miss_touch_dram.count = 2318
stlb_miss_touch_dram.share = 1.77%

stlb_miss_no_dram_touch.count = 128647
stlb_miss_no_dram_touch.share = 98.23%

STLB_MISS_PTW_DRAM_TOUCH_DEBUG:
stlb_miss_touch_plus_no_touch.count = 130965
stlb_miss_total_check.count = 130965

======STLB miss causes ========
Core_0_STLB_miss_cause_breakdown
Core_0_STLB_cause_Demand_Data_miss 124918
Core_0_STLB_cause_Demand_Data_miss_rate 0.120212
Core_0_STLB_cause_Demand_Instruction_miss 0
Core_0_STLB_cause_Demand_Instruction_miss_rate 0
Core_0_STLB_cause_L1D_Prefetch_miss 6047
Core_0_STLB_cause_L1D_Prefetch_miss_rate 0.0058192
Core_0_STLB_cause_L1I_Prefetch_miss 0
Core_0_STLB_cause_L1I_Prefetch_miss_rate 0
Core_0_STLB_cause_Other_miss 0
Core_0_STLB_cause_Other_miss_rate 0
Core_0_STLB_Demand_miss 124918
Core_0_STLB_Demand_miss_rate 0.120212
Core_0_STLB_L1D_Prefetch_miss 6047
Core_0_STLB_L1D_Prefetch_miss_rate 0.0058192
Core_0_STLB_Other_miss 0
Core_0_STLB_Other_miss_rate 0
BERTI TO_L1: 98887666 TO_L2: 100828473 TO_L2_BC_MSHR: 2331792
BERTI AVG_LAT: 71.0681 NUM_TRACK_LATENCY: 3744704 NUM_CANT_TRACK_LATENCY: 81
BERTI CROSS_PAGE 23633954 NO_CROSS_PAGE: 176082185
BERTI FOUND_BERTI: 32974056 NO_FOUND_BERTI: 14695180
BERTI AVERAGE_ISSUED: 2.98569
