[VMEM] WARNING: physical memory size is smaller than virtual memory size.

*** ChampSim Multicore Out-of-Order Simulator ***
Warmup Instructions: 50000000
Simulation Instructions: 100000000
Number of CPUs: 1
Page size: 4096
Core 0: /data2/zcq/champsim_traces_xsbench/xs.XXL100nuclide-165B.champsimtrace.xz
VBerti Prefetcher
BERTI HASH ENTANGLING
BERTI IP MASK ffff
Off-chip DRAM Size: 16 GiB Channels: 1 Width: 64-bit Data Rate: 3205 MT/s
Warmup halting CPU 0 at instruction 50000002 cycle 36935188 for remainder of phase
Warmup finished CPU 0 instructions: 50000002 cycles: 36935188 cumulative IPC: 1.354 (Simulation time: 00 hr 06 min 34 sec)
Warmup complete CPU 0 instructions: 50000002 cycles: 36935188 cumulative IPC: 1.354 (Simulation time: 00 hr 06 min 34 sec)
Simulation finished CPU 0 instructions: 100000001 cycles: 689968424 cumulative IPC: 0.1449 (Simulation time: 00 hr 57 min 02 sec)
Simulation complete CPU 0 instructions: 100000001 cycles: 689968424 cumulative IPC: 0.1449 (Simulation time: 00 hr 57 min 02 sec)

ChampSim completed all CPUs

=== Simulation ===
CPU 0 runs /data2/zcq/champsim_traces_xsbench/xs.XXL100nuclide-165B.champsimtrace.xz

Region of Interest Statistics

CPU 0 cumulative IPC: 0.1449 instructions: 100000001 cycles: 689968424
CPU 0 Branch Prediction Accuracy: 87.23% MPKI: 21.52 Average ROB Occupancy at Mispredict: 25.72
Branch type MPKI
BRANCH_DIRECT_JUMP: 0
BRANCH_INDIRECT: 0
BRANCH_CONDITIONAL: 21.52
BRANCH_DIRECT_CALL: 0
BRANCH_INDIRECT_CALL: 0
BRANCH_RETURN: 0

cpu0->cpu0_STLB TOTAL        ACCESS:    3983953 HIT:     127727 MISS:    3856226 MSHR_MERGE:          0
cpu0->cpu0_STLB LOAD         ACCESS:    3983953 HIT:     127727 MISS:    3856226 MSHR_MERGE:          0
cpu0->cpu0_STLB RFO          ACCESS:          0 HIT:          0 MISS:          0 MSHR_MERGE:          0
cpu0->cpu0_STLB PREFETCH     ACCESS:          0 HIT:          0 MISS:          0 MSHR_MERGE:          0
cpu0->cpu0_STLB WRITE        ACCESS:          0 HIT:          0 MISS:          0 MSHR_MERGE:          0
cpu0->cpu0_STLB TRANSLATION  ACCESS:          0 HIT:          0 MISS:          0 MSHR_MERGE:          0
cpu0->cpu0_STLB PREFETCH REQUESTED:          0 ISSUED:          0 USEFUL:          0 USELESS:          0 LATE:          0 TOO_EARLY:          0
cpu0->cpu0_STLB AVERAGE MISS LATENCY: 173.6 cycles
cpu0->cpu0_L2C TOTAL        ACCESS:   10584732 HIT:    1453866 MISS:    9130866 MSHR_MERGE:       8543
cpu0->cpu0_L2C LOAD         ACCESS:    5978170 HIT:     208491 MISS:    5769679 MSHR_MERGE:          0
cpu0->cpu0_L2C RFO          ACCESS:      10590 HIT:      10590 MISS:          0 MSHR_MERGE:          0
cpu0->cpu0_L2C PREFETCH     ACCESS:    1261401 HIT:    1036239 MISS:     225162 MSHR_MERGE:       8543
cpu0->cpu0_L2C WRITE        ACCESS:      19012 HIT:      18990 MISS:         22 MSHR_MERGE:          0
cpu0->cpu0_L2C TRANSLATION  ACCESS:    3315559 HIT:     179556 MISS:    3136003 MSHR_MERGE:          0
cpu0->cpu0_L2C PREFETCH REQUESTED:     334433 ISSUED:     334433 USEFUL:      12003 USELESS:     135617 LATE:          0 TOO_EARLY:        139
cpu0->cpu0_L2C AVERAGE MISS LATENCY: 149.7 cycles
cpu0->cpu0_L1I TOTAL        ACCESS:      21818 HIT:      21818 MISS:          0 MSHR_MERGE:          0
cpu0->cpu0_L1I LOAD         ACCESS:      21818 HIT:      21818 MISS:          0 MSHR_MERGE:          0
cpu0->cpu0_L1I RFO          ACCESS:          0 HIT:          0 MISS:          0 MSHR_MERGE:          0
cpu0->cpu0_L1I PREFETCH     ACCESS:          0 HIT:          0 MISS:          0 MSHR_MERGE:          0
cpu0->cpu0_L1I WRITE        ACCESS:          0 HIT:          0 MISS:          0 MSHR_MERGE:          0
cpu0->cpu0_L1I TRANSLATION  ACCESS:          0 HIT:          0 MISS:          0 MSHR_MERGE:          0
cpu0->cpu0_L1I PREFETCH REQUESTED:          0 ISSUED:          0 USEFUL:          0 USELESS:          0 LATE:          0 TOO_EARLY:          0
cpu0->cpu0_L1I AVERAGE MISS LATENCY: - cycles
cpu0->cpu0_L1D TOTAL        ACCESS:   21930429 HIT:    9723602 MISS:   12206827 MSHR_MERGE:    1975523
cpu0->cpu0_L1D LOAD         ACCESS:    9549722 HIT:    3469255 MISS:    6080467 MSHR_MERGE:     102297
cpu0->cpu0_L1D RFO          ACCESS:          0 HIT:          0 MISS:          0 MSHR_MERGE:          0
cpu0->cpu0_L1D PREFETCH     ACCESS:    2099238 HIT:    1172269 MISS:     926969 MSHR_MERGE:          1
cpu0->cpu0_L1D WRITE        ACCESS:    1811480 HIT:    1758002 MISS:      53478 MSHR_MERGE:      42870
cpu0->cpu0_L1D TRANSLATION  ACCESS:    8469989 HIT:    3324076 MISS:    5145913 MSHR_MERGE:    1830355
cpu0->cpu0_L1D PREFETCH REQUESTED:    2398469 ISSUED:    2099236 USEFUL:      36800 USELESS:      46308 LATE:        554 TOO_EARLY:       2530
cpu0->cpu0_L1D AVERAGE MISS LATENCY: 152.4 cycles
cpu0->cpu0_ITLB TOTAL        ACCESS:      17679 HIT:      17679 MISS:          0 MSHR_MERGE:          0
cpu0->cpu0_ITLB LOAD         ACCESS:      17679 HIT:      17679 MISS:          0 MSHR_MERGE:          0
cpu0->cpu0_ITLB RFO          ACCESS:          0 HIT:          0 MISS:          0 MSHR_MERGE:          0
cpu0->cpu0_ITLB PREFETCH     ACCESS:          0 HIT:          0 MISS:          0 MSHR_MERGE:          0
cpu0->cpu0_ITLB WRITE        ACCESS:          0 HIT:          0 MISS:          0 MSHR_MERGE:          0
cpu0->cpu0_ITLB TRANSLATION  ACCESS:          0 HIT:          0 MISS:          0 MSHR_MERGE:          0
cpu0->cpu0_ITLB PREFETCH REQUESTED:          0 ISSUED:          0 USEFUL:          0 USELESS:          0 LATE:          0 TOO_EARLY:          0
cpu0->cpu0_ITLB AVERAGE MISS LATENCY: - cycles
cpu0->cpu0_DTLB TOTAL        ACCESS:   12806132 HIT:    8621761 MISS:    4184371 MSHR_MERGE:     200419
cpu0->cpu0_DTLB LOAD         ACCESS:   12806132 HIT:    8621761 MISS:    4184371 MSHR_MERGE:     200419
cpu0->cpu0_DTLB RFO          ACCESS:          0 HIT:          0 MISS:          0 MSHR_MERGE:          0
cpu0->cpu0_DTLB PREFETCH     ACCESS:          0 HIT:          0 MISS:          0 MSHR_MERGE:          0
cpu0->cpu0_DTLB WRITE        ACCESS:          0 HIT:          0 MISS:          0 MSHR_MERGE:          0
cpu0->cpu0_DTLB TRANSLATION  ACCESS:          0 HIT:          0 MISS:          0 MSHR_MERGE:          0
cpu0->cpu0_DTLB PREFETCH REQUESTED:          0 ISSUED:          0 USEFUL:          0 USELESS:          0 LATE:          0 TOO_EARLY:          0
cpu0->cpu0_DTLB AVERAGE MISS LATENCY: 174 cycles
cpu0->LLC TOTAL        ACCESS:    9126042 HIT:    3070785 MISS:    6055257 MSHR_MERGE:          0
cpu0->LLC LOAD         ACCESS:    5769679 HIT:    1327503 MISS:    4442176 MSHR_MERGE:          0
cpu0->LLC RFO          ACCESS:          0 HIT:          0 MISS:          0 MSHR_MERGE:          0
cpu0->LLC PREFETCH     ACCESS:     216619 HIT:      81411 MISS:     135208 MSHR_MERGE:          0
cpu0->LLC WRITE        ACCESS:       3741 HIT:       3735 MISS:          6 MSHR_MERGE:          0
cpu0->LLC TRANSLATION  ACCESS:    3136003 HIT:    1658136 MISS:    1477867 MSHR_MERGE:          0
cpu0->LLC PREFETCH REQUESTED:          0 ISSUED:          0 USEFUL:          0 USELESS:          0 LATE:          0 TOO_EARLY:          0
cpu0->LLC AVERAGE MISS LATENCY: 201.7 cycles

DRAM Statistics

Channel 0 RQ ROW_BUFFER_HIT:      30650
  ROW_BUFFER_MISS:    6024601
  AVG DBUS CONGESTED CYCLE: 2.938
Channel 0 WQ ROW_BUFFER_HIT:         16
  ROW_BUFFER_MISS:         47
  FULL:          0
Channel 0 REFRESHES ISSUED:      57498

[ROI Statistics]
[System Configuration]
num_cpus 1
cpu_freq 4000
fetch_width 6
decode_width 6
dispatch_width 6
execute_width 6
lq_width 2
sq_width 2
retire_width 6
scheduler_size 128
branch_mispredict_penalty 15
rob_size 352
lq_size 128
sq_size 72
ifetch_buffer_size 64
decode_buffer_size 32
dispatch_buffer_size 32
register_file_size 288
decode_latency 1
dispatch_latency 1
schedule_latency 1
execute_latency 1
page_size 4096
block_size 64
core_0_itlb_set 16
core_0_itlb_way 4
core_0_itlb_rq_size 16
core_0_itlb_wq_size 16
core_0_itlb_pq_size 0
core_0_itlb_mshr_size 8
core_0_itlb_hit_latency 1
core_0_itlb_fill_latency 1
core_0_itlb_max_tag_check 2
core_0_itlb_max_fill 2
core_0_dtlb_set 16
core_0_dtlb_way 4
core_0_dtlb_rq_size 16
core_0_dtlb_wq_size 16
core_0_dtlb_pq_size 0
core_0_dtlb_mshr_size 8
core_0_dtlb_hit_latency 1
core_0_dtlb_fill_latency 1
core_0_dtlb_max_tag_check 2
core_0_dtlb_max_fill 2
core_0_stlb_set 128
core_0_stlb_way 12
core_0_stlb_rq_size 32
core_0_stlb_wq_size 32
core_0_stlb_pq_size 0
core_0_stlb_mshr_size 16
core_0_stlb_hit_latency 4
core_0_stlb_fill_latency 4
core_0_stlb_max_tag_check 1
core_0_stlb_max_fill 1
core_0_l1i_set 64
core_0_l1i_way 8
core_0_l1i_rq_size 64
core_0_l1i_wq_size 64
core_0_l1i_pq_size 32
core_0_l1i_mshr_size 8
core_0_l1i_hit_latency 2
core_0_l1i_fill_latency 2
core_0_l1i_max_tag_check 2
core_0_l1i_max_fill 2
core_0_l1d_set 64
core_0_l1d_way 12
core_0_l1d_rq_size 64
core_0_l1d_wq_size 64
core_0_l1d_pq_size 8
core_0_l1d_mshr_size 16
core_0_l1d_hit_latency 2
core_0_l1d_fill_latency 3
core_0_l1d_max_tag_check 2
core_0_l1d_max_fill 2
core_0_l2c_set 1024
core_0_l2c_way 8
core_0_l2c_rq_size 32
core_0_l2c_wq_size 32
core_0_l2c_pq_size 16
core_0_l2c_mshr_size 32
core_0_l2c_hit_latency 5
core_0_l2c_fill_latency 5
core_0_l2c_max_tag_check 1
core_0_l2c_max_fill 1
llc_set 2048
llc_way 16
llc_rq_size 32
llc_wq_size 32
llc_pq_size 32
llc_mshr_size 64
llc_hit_latency 10
llc_fill_latency 10
llc_max_tag_check 1
llc_max_fill 1
dram_channels 1
dram_ranks 1
dram_bankgroups 8
dram_banks 4
dram_rows 65536
dram_columns 1024
dram_channel_width 8
dram_rq_size 64
dram_wq_size 64
dram_size 17179869184
core_0_itlb_prefetcher no
core_0_dtlb_prefetcher no
core_0_stlb_prefetcher no
core_0_l1i_prefetcher next_line
core_0_l1d_prefetcher vberti
core_0_l2c_prefetcher ip_stride
llc_prefetcher no
llc_replacement drrip

Core_0_instructions 100000001
Core_0_cycles 689968424
Core_0_IPC 0.144934
Core_0_branch_prediction_accuracy 87.2328
Core_0_branch_MPKI 21.5218
Core_0_average_ROB_occupancy_at_mispredict 25.722

Core_0_ITLB_total_access 17679
Core_0_ITLB_total_hit 17679
Core_0_ITLB_total_miss 0
Core_0_ITLB_total_MPKI 0
Core_0_ITLB_total_miss_rate 0
Core_0_ITLB_demand_access 17679
Core_0_ITLB_demand_hit 17679
Core_0_ITLB_demand_miss 0
Core_0_ITLB_demand_MPKI 0
Core_0_ITLB_demand_miss_rate 0
Core_0_ITLB_load_access 17679
Core_0_ITLB_load_hit 17679
Core_0_ITLB_load_miss 0
Core_0_ITLB_load_MPKI 0
Core_0_ITLB_load_miss_rate 0
Core_0_ITLB_rfo_access 0
Core_0_ITLB_rfo_hit 0
Core_0_ITLB_rfo_miss 0
Core_0_ITLB_rfo_MPKI 0
Core_0_ITLB_rfo_miss_rate 0
Core_0_ITLB_prefetch_access 0
Core_0_ITLB_prefetch_hit 0
Core_0_ITLB_prefetch_miss 0
Core_0_ITLB_prefetch_MPKI 0
Core_0_ITLB_prefetch_miss_rate 0
Core_0_ITLB_writeback_access 0
Core_0_ITLB_writeback_hit 0
Core_0_ITLB_writeback_miss 0
Core_0_ITLB_writeback_MPKI 0
Core_0_ITLB_writeback_miss_rate 0
Core_0_ITLB_prefetch_requested 0
Core_0_ITLB_prefetch_issued 0
Core_0_ITLB_prefetch_useful 0
Core_0_ITLB_prefetch_useless 0
Core_0_ITLB_prefetch_late 0
Core_0_ITLB_prefetch_fill 0
Core_0_ITLB_prefetch_too_early 0
Core_0_ITLB_prefetch_too_early_among_fill 0
Core_0_ITLB_prefetch_too_early_among_useless 0
Core_0_ITLB_prefetch_pollution_evict 0
Core_0_ITLB_prefetch_pollution_demand 0
Core_0_ITLB_prefetch_pollution_among_prefetch_fill 0
Core_0_ITLB_prefetch_accuracy 0
Core_0_ITLB_prefetch_coverage 0

Core_0_DTLB_total_access 12806132
Core_0_DTLB_total_hit 8621761
Core_0_DTLB_total_miss 4184371
Core_0_DTLB_total_MPKI 41.8437
Core_0_DTLB_total_miss_rate 0.326747
Core_0_DTLB_demand_access 12806132
Core_0_DTLB_demand_hit 8621761
Core_0_DTLB_demand_miss 4184371
Core_0_DTLB_demand_MPKI 41.8437
Core_0_DTLB_demand_miss_rate 0.326747
Core_0_DTLB_load_access 12806132
Core_0_DTLB_load_hit 8621761
Core_0_DTLB_load_miss 4184371
Core_0_DTLB_load_MPKI 41.8437
Core_0_DTLB_load_miss_rate 0.326747
Core_0_DTLB_rfo_access 0
Core_0_DTLB_rfo_hit 0
Core_0_DTLB_rfo_miss 0
Core_0_DTLB_rfo_MPKI 0
Core_0_DTLB_rfo_miss_rate 0
Core_0_DTLB_prefetch_access 0
Core_0_DTLB_prefetch_hit 0
Core_0_DTLB_prefetch_miss 0
Core_0_DTLB_prefetch_MPKI 0
Core_0_DTLB_prefetch_miss_rate 0
Core_0_DTLB_writeback_access 0
Core_0_DTLB_writeback_hit 0
Core_0_DTLB_writeback_miss 0
Core_0_DTLB_writeback_MPKI 0
Core_0_DTLB_writeback_miss_rate 0
Core_0_DTLB_prefetch_requested 0
Core_0_DTLB_prefetch_issued 0
Core_0_DTLB_prefetch_useful 0
Core_0_DTLB_prefetch_useless 0
Core_0_DTLB_prefetch_late 0
Core_0_DTLB_prefetch_fill 0
Core_0_DTLB_prefetch_too_early 0
Core_0_DTLB_prefetch_too_early_among_fill 0
Core_0_DTLB_prefetch_too_early_among_useless 0
Core_0_DTLB_prefetch_pollution_evict 0
Core_0_DTLB_prefetch_pollution_demand 0
Core_0_DTLB_prefetch_pollution_among_prefetch_fill 0
Core_0_DTLB_prefetch_accuracy 0
Core_0_DTLB_prefetch_coverage 0

Core_0_STLB_total_access 3983953
Core_0_STLB_total_hit 127727
Core_0_STLB_total_miss 3856226
Core_0_STLB_total_MPKI 38.5623
Core_0_STLB_total_miss_rate 0.96794
Core_0_STLB_demand_access 3983953
Core_0_STLB_demand_hit 127727
Core_0_STLB_demand_miss 3856226
Core_0_STLB_demand_MPKI 38.5623
Core_0_STLB_demand_miss_rate 0.96794
Core_0_STLB_load_access 3983953
Core_0_STLB_load_hit 127727
Core_0_STLB_load_miss 3856226
Core_0_STLB_load_MPKI 38.5623
Core_0_STLB_load_miss_rate 0.96794
Core_0_STLB_rfo_access 0
Core_0_STLB_rfo_hit 0
Core_0_STLB_rfo_miss 0
Core_0_STLB_rfo_MPKI 0
Core_0_STLB_rfo_miss_rate 0
Core_0_STLB_prefetch_access 0
Core_0_STLB_prefetch_hit 0
Core_0_STLB_prefetch_miss 0
Core_0_STLB_prefetch_MPKI 0
Core_0_STLB_prefetch_miss_rate 0
Core_0_STLB_writeback_access 0
Core_0_STLB_writeback_hit 0
Core_0_STLB_writeback_miss 0
Core_0_STLB_writeback_MPKI 0
Core_0_STLB_writeback_miss_rate 0
Core_0_STLB_prefetch_requested 0
Core_0_STLB_prefetch_issued 0
Core_0_STLB_prefetch_useful 0
Core_0_STLB_prefetch_useless 0
Core_0_STLB_prefetch_late 0
Core_0_STLB_prefetch_fill 0
Core_0_STLB_prefetch_too_early 0
Core_0_STLB_prefetch_too_early_among_fill 0
Core_0_STLB_prefetch_too_early_among_useless 0
Core_0_STLB_prefetch_pollution_evict 0
Core_0_STLB_prefetch_pollution_demand 0
Core_0_STLB_prefetch_pollution_among_prefetch_fill 0
Core_0_STLB_prefetch_accuracy 0
Core_0_STLB_prefetch_coverage 0

Core_0_L1I_total_access 21818
Core_0_L1I_total_hit 21818
Core_0_L1I_total_miss 0
Core_0_L1I_total_MPKI 0
Core_0_L1I_total_miss_rate 0
Core_0_L1I_demand_access 21818
Core_0_L1I_demand_hit 21818
Core_0_L1I_demand_miss 0
Core_0_L1I_demand_MPKI 0
Core_0_L1I_demand_miss_rate 0
Core_0_L1I_load_access 21818
Core_0_L1I_load_hit 21818
Core_0_L1I_load_miss 0
Core_0_L1I_load_MPKI 0
Core_0_L1I_load_miss_rate 0
Core_0_L1I_rfo_access 0
Core_0_L1I_rfo_hit 0
Core_0_L1I_rfo_miss 0
Core_0_L1I_rfo_MPKI 0
Core_0_L1I_rfo_miss_rate 0
Core_0_L1I_prefetch_access 0
Core_0_L1I_prefetch_hit 0
Core_0_L1I_prefetch_miss 0
Core_0_L1I_prefetch_MPKI 0
Core_0_L1I_prefetch_miss_rate 0
Core_0_L1I_writeback_access 0
Core_0_L1I_writeback_hit 0
Core_0_L1I_writeback_miss 0
Core_0_L1I_writeback_MPKI 0
Core_0_L1I_writeback_miss_rate 0
Core_0_L1I_prefetch_requested 0
Core_0_L1I_prefetch_issued 0
Core_0_L1I_prefetch_useful 0
Core_0_L1I_prefetch_useless 0
Core_0_L1I_prefetch_late 0
Core_0_L1I_prefetch_fill 0
Core_0_L1I_prefetch_too_early 0
Core_0_L1I_prefetch_too_early_among_fill 0
Core_0_L1I_prefetch_too_early_among_useless 0
Core_0_L1I_prefetch_pollution_evict 0
Core_0_L1I_prefetch_pollution_demand 0
Core_0_L1I_prefetch_pollution_among_prefetch_fill 0
Core_0_L1I_prefetch_accuracy 0
Core_0_L1I_prefetch_coverage 0

Core_0_L1D_total_access 13460440
Core_0_L1D_total_hit 6399526
Core_0_L1D_total_miss 7060914
Core_0_L1D_total_MPKI 70.6091
Core_0_L1D_total_miss_rate 0.524568
Core_0_L1D_demand_access 9549722
Core_0_L1D_demand_hit 3469255
Core_0_L1D_demand_miss 6080467
Core_0_L1D_demand_MPKI 60.8047
Core_0_L1D_demand_miss_rate 0.636717
Core_0_L1D_load_access 9549722
Core_0_L1D_load_hit 3469255
Core_0_L1D_load_miss 6080467
Core_0_L1D_load_MPKI 60.8047
Core_0_L1D_load_miss_rate 0.636717
Core_0_L1D_rfo_access 0
Core_0_L1D_rfo_hit 0
Core_0_L1D_rfo_miss 0
Core_0_L1D_rfo_MPKI 0
Core_0_L1D_rfo_miss_rate 0
Core_0_L1D_prefetch_access 2099238
Core_0_L1D_prefetch_hit 1172269
Core_0_L1D_prefetch_miss 926969
Core_0_L1D_prefetch_MPKI 9.26969
Core_0_L1D_prefetch_miss_rate 0.441574
Core_0_L1D_writeback_access 1811480
Core_0_L1D_writeback_hit 1758002
Core_0_L1D_writeback_miss 53478
Core_0_L1D_writeback_MPKI 0.53478
Core_0_L1D_writeback_miss_rate 0.0295217
Core_0_L1D_prefetch_requested 2398469
Core_0_L1D_prefetch_issued 2099236
Core_0_L1D_prefetch_useful 36800
Core_0_L1D_prefetch_useless 46308
Core_0_L1D_prefetch_late 554
Core_0_L1D_prefetch_fill 82571
Core_0_L1D_prefetch_too_early 2530
Core_0_L1D_prefetch_too_early_among_fill 0.0306403
Core_0_L1D_prefetch_too_early_among_useless 0.0546342
Core_0_L1D_prefetch_pollution_evict 13508
Core_0_L1D_prefetch_pollution_demand 13497
Core_0_L1D_prefetch_pollution_among_prefetch_fill 0.163593
Core_0_L1D_prefetch_accuracy 0.0175302
Core_0_L1D_prefetch_coverage 0.00601576

Core_0_L2C_total_access 7269173
Core_0_L2C_total_hit 1274310
Core_0_L2C_total_miss 5994863
Core_0_L2C_total_MPKI 59.9486
Core_0_L2C_total_miss_rate 0.824697
Core_0_L2C_demand_access 5988760
Core_0_L2C_demand_hit 219081
Core_0_L2C_demand_miss 5769679
Core_0_L2C_demand_MPKI 57.6968
Core_0_L2C_demand_miss_rate 0.963418
Core_0_L2C_load_access 5978170
Core_0_L2C_load_hit 208491
Core_0_L2C_load_miss 5769679
Core_0_L2C_load_MPKI 57.6968
Core_0_L2C_load_miss_rate 0.965125
Core_0_L2C_rfo_access 10590
Core_0_L2C_rfo_hit 10590
Core_0_L2C_rfo_miss 0
Core_0_L2C_rfo_MPKI 0
Core_0_L2C_rfo_miss_rate 0
Core_0_L2C_prefetch_access 1261401
Core_0_L2C_prefetch_hit 1036239
Core_0_L2C_prefetch_miss 225162
Core_0_L2C_prefetch_MPKI 2.25162
Core_0_L2C_prefetch_miss_rate 0.178502
Core_0_L2C_writeback_access 19012
Core_0_L2C_writeback_hit 18990
Core_0_L2C_writeback_miss 22
Core_0_L2C_writeback_MPKI 0.00022
Core_0_L2C_writeback_miss_rate 0.00115716
Core_0_L2C_prefetch_requested 334433
Core_0_L2C_prefetch_issued 334433
Core_0_L2C_prefetch_useful 12003
Core_0_L2C_prefetch_useless 135617
Core_0_L2C_prefetch_late 0
Core_0_L2C_prefetch_fill 216618
Core_0_L2C_prefetch_too_early 139
Core_0_L2C_prefetch_too_early_among_fill 0.000641683
Core_0_L2C_prefetch_too_early_among_useless 0.00102495
Core_0_L2C_prefetch_pollution_evict 44986
Core_0_L2C_prefetch_pollution_demand 44984
Core_0_L2C_prefetch_pollution_among_prefetch_fill 0.207674
Core_0_L2C_prefetch_accuracy 0.0358906
Core_0_L2C_prefetch_coverage 0.00207604

Core_0_LLC_total_access 5990039
Core_0_LLC_total_hit 1412649
Core_0_LLC_total_miss 4577390
Core_0_LLC_total_MPKI 45.7739
Core_0_LLC_total_miss_rate 0.764167
Core_0_LLC_demand_access 5769679
Core_0_LLC_demand_hit 1327503
Core_0_LLC_demand_miss 4442176
Core_0_LLC_demand_MPKI 44.4218
Core_0_LLC_demand_miss_rate 0.769917
Core_0_LLC_load_access 5769679
Core_0_LLC_load_hit 1327503
Core_0_LLC_load_miss 4442176
Core_0_LLC_load_MPKI 44.4218
Core_0_LLC_load_miss_rate 0.769917
Core_0_LLC_rfo_access 0
Core_0_LLC_rfo_hit 0
Core_0_LLC_rfo_miss 0
Core_0_LLC_rfo_MPKI 0
Core_0_LLC_rfo_miss_rate 0
Core_0_LLC_prefetch_access 216619
Core_0_LLC_prefetch_hit 81411
Core_0_LLC_prefetch_miss 135208
Core_0_LLC_prefetch_MPKI 1.35208
Core_0_LLC_prefetch_miss_rate 0.624174
Core_0_LLC_writeback_access 3741
Core_0_LLC_writeback_hit 3735
Core_0_LLC_writeback_miss 6
Core_0_LLC_writeback_MPKI 6e-05
Core_0_LLC_writeback_miss_rate 0.00160385
Core_0_LLC_prefetch_requested 0
Core_0_LLC_prefetch_issued 0
Core_0_LLC_prefetch_useful 0
Core_0_LLC_prefetch_useless 0
Core_0_LLC_prefetch_late 0
Core_0_LLC_prefetch_fill 135208
Core_0_LLC_prefetch_too_early 0
Core_0_LLC_prefetch_too_early_among_fill 0
Core_0_LLC_prefetch_too_early_among_useless 0
Core_0_LLC_prefetch_pollution_evict 30305
Core_0_LLC_prefetch_pollution_demand 30305
Core_0_LLC_prefetch_pollution_among_prefetch_fill 0.224136
Core_0_LLC_prefetch_accuracy 0
Core_0_LLC_prefetch_coverage 0

[DRAM Statistics]
Channel_0_RQ_row_buffer_hit 30650
Channel_0_RQ_row_buffer_miss 6024601
Channel_0_WQ_row_buffer_hit 16
Channel_0_WQ_row_buffer_miss 47
Channel_0_WQ_full 0
Channel_0_dbus_congested 6343757
DRAM_total_RQ_row_buffer_hit 30650
DRAM_total_RQ_row_buffer_miss 6024601
DRAM_total_WQ_row_buffer_hit 16
DRAM_total_WQ_row_buffer_miss 47
DRAM_total_WQ_full 0
DRAM_total_dbus_congested 6343757
DRAM_avg_congested_cycle 2.93846

====== DRAM_RQ_TRAFFIC ========
DRAM_RQ_READ_TRAFFIC_BREAKDOWN:
data_demand_read.count = 4442176
data_demand_read.share = 73.36%

inst_demand_read.count = 0
inst_demand_read.share = 0.00%

cache_inst_prefetch.count = 0
cache_inst_prefetch.share = 0.00%

cache_data_prefetch.count = 135208
cache_data_prefetch.share = 2.23%

stlb_data_demand.count = 1477867
stlb_data_demand.share = 24.41%

stlb_inst_demand.count = 0
stlb_inst_demand.share = 0.00%

stlb_l1i_pref.count = 0
stlb_l1i_pref.share = 0.00%

stlb_l1d_pref.count = 0
stlb_l1d_pref.share = 0.00%

DRAM_RQ_READ_TRAFFIC_SUMMARY:
cache_demand.count = 4442176
cache_demand.share = 73.36%

cache_prefetch.count = 135208
cache_prefetch.share = 2.23%

stlb_demand.count = 1477867
stlb_demand.share = 24.41%

stlb_prefetch.count = 0
stlb_prefetch.share = 0.00%

DRAM_RQ_READ_TRAFFIC_DEBUG:
total_classified_read.count = 6055251
unclassified_read.count = 0
total_read_with_other.count = 6055251

classified_plus_unclassified_check.count = 6055251
dram_rq_read_total_observed.count = 6055251
dram_rq_read_total_observed.per_1K_instructions = 60.5525

STLB_MISS_PTW_DRAM_TOUCH_BREAKDOWN:
stlb_miss_total.count = 3856226

stlb_miss_touch_dram.count = 1479551
stlb_miss_touch_dram.share = 38.37%

stlb_miss_no_dram_touch.count = 2376675
stlb_miss_no_dram_touch.share = 61.63%

STLB_MISS_PTW_DRAM_TOUCH_DEBUG:
stlb_miss_touch_plus_no_touch.count = 3856226
stlb_miss_total_check.count = 3856226

======STLB miss causes ========
Core_0_STLB_miss_cause_breakdown
Core_0_STLB_cause_Demand_Data_miss 3854431
Core_0_STLB_cause_Demand_Data_miss_rate 0.967489
Core_0_STLB_cause_Demand_Instruction_miss 0
Core_0_STLB_cause_Demand_Instruction_miss_rate 0
Core_0_STLB_cause_L1D_Prefetch_miss 1795
Core_0_STLB_cause_L1D_Prefetch_miss_rate 0.000450558
Core_0_STLB_cause_L1D_Prefetch_Same_Page_miss 0
Core_0_STLB_cause_L1D_Prefetch_Same_Page_miss_rate 0
Core_0_STLB_cause_L1D_Prefetch_Cross_Page_miss 1795
Core_0_STLB_cause_L1D_Prefetch_Cross_Page_miss_rate 0.000450558
Core_0_STLB_cause_L1I_Prefetch_miss 0
Core_0_STLB_cause_L1I_Prefetch_miss_rate 0
Core_0_STLB_cause_Other_miss 0
Core_0_STLB_cause_Other_miss_rate 0
Core_0_STLB_Demand_miss 3854431
Core_0_STLB_Demand_miss_rate 0.967489
Core_0_STLB_L1D_Prefetch_miss 1795
Core_0_STLB_L1D_Prefetch_miss_rate 0.000450558
Core_0_STLB_Other_miss 0
Core_0_STLB_Other_miss_rate 0

========== vBerti-TLB Cross-page Flow Stats ==========

Core_0_vBerti_Requested 2398469
Core_0_vBerti_Cross_page_prefetch_in_Requested 284238
Core_0_vBerti_Same_page_prefetch_in_Requested 2114231
Core_0_vBerti_Cross_page_prefetch_of_Requested 0.118508
Core_0_vBerti_Issued 2099236
Core_0_vBerti_InPQ_Same_page_prefetch 1883779
Core_0_vBerti_InPQ_Cross_page_prefetch 215457
Core_0_vBerti_PQ_Drop_Rate 0.12476
Core_0_vBerti_InPQ_Cross_page_prefetch_of_Requested 0.0898311
Core_0_vBerti_Cross_page_PQ_Drop_rate 0.241984
Core_0_vBerti_Cross_page_prefetch_of_Issued 0.102636
Core_0_CP_PF_PQFULL_drop 68781
Core_0_CP_PF_PQFULL_TLB_rescue_enqueued 0
Core_0_CP_PF_PQFULL_TLB_rescue_issued 0
Core_0_CP_PF_PQFULL_TLB_rescue_translated 0

========= DTLB_vBerti Prefetch Stats =========
Core_0_DTLB_demand_access 11201992
Core_0_DTLB_demand_hit 7023418
Core_0_DTLB_demand_miss 4178574
Core_0_DTLB_demand_mshr_merge 199155
Core_0_DTLB_demand_fill 3979427
Core_0_DTLB_demand_miss_rate 0.373021
Core_0_DTLB_demand_mpki 41.7857
Core_0_DTLB_vberti_prefetch_access 1604140
Core_0_DTLB_vberti_prefetch_hit 1598343
Core_0_DTLB_vberti_prefetch_miss 5797
Core_0_DTLB_vberti_prefetch_mshr_merge 1264
Core_0_DTLB_vberti_prefetch_fill 4533
Core_0_DTLB_vberti_prefetch_miss_rate 0.00361377
Core_0_DTLB_vberti_prefetch_mpki 0.05797

=== DTLB_vBerti Same/Cross-page Prefetch Stats ===
Core_0_DTLB_vberti_same_page_prefetch 1424460
Core_0_DTLB_vberti_same_page_prefetch_hit 1424460
Core_0_DTLB_vberti_same_page_prefetch_miss 0
Core_0_DTLB_vberti_same_page_prefetch_mshr_merge 0
Core_0_DTLB_vberti_same_page_prefetch_fill 0
Core_0_DTLB_vberti_same_page_prefetch_miss_rate 0
Core_0_DTLB_vberti_same_page_prefetch_mpki 0
Core_0_DTLB_vberti_cross_page_prefetch 179680
Core_0_DTLB_vberti_cross_page_prefetch_hit 173883
Core_0_DTLB_vberti_cross_page_prefetch_miss 5797
Core_0_DTLB_vberti_cross_page_prefetch_mshr_merge 1264
Core_0_DTLB_vberti_cross_page_prefetch_fill 4533
Core_0_DTLB_vberti_cross_page_prefetch_miss_rate 0.0322629
Core_0_DTLB_vberti_cross_page_prefetch_mpki 0.05797
Core_0_DTLB_same_page_prefetch_miss_rate 0
Core_0_DTLB_same_page_prefetch_mpki 0
Core_0_DTLB_cross_page_prefetch_miss_rate 0.0322629
Core_0_DTLB_cross_page_prefetch_mpki 0.05797
Core_0_DTLB_cross_page_prefetch_issued 179680
Core_0_DTLB_cross_page_prefetch_lookups 179680
Core_0_DTLB_cross_page_prefetch_useful 814
Core_0_DTLB_cross_page_prefetch_useless 3719
Core_0_DTLB_cross_page_prefetch_late 0
Core_0_DTLB_cross_page_prefetch_too_early 303
Core_0_DTLB_cross_page_prefetch_too_early_among_fill 0.0668432
Core_0_DTLB_cross_page_prefetch_too_early_among_useless 0.0814735
Core_0_DTLB_cross_page_prefetch_pollution_evict 2103
Core_0_DTLB_cross_page_prefetch_pollution_demand 2103
Core_0_DTLB_cross_page_prefetch_pollution_among_prefetch_fill 0.463931
Core_0_DTLB_cross_page_prefetch_accuracy 0.00453028
Core_0_DTLB_cross_page_prefetch_coverage 0.000194765

========= STLB_vBerti Prefetch Stats =========
Core_0_STLB_demand_access 3979420
Core_0_STLB_demand_hit 124989
Core_0_STLB_demand_miss 3854431
Core_0_STLB_demand_mshr_merge 0
Core_0_STLB_demand_fill 3854438
Core_0_STLB_demand_miss_rate 0.968591
Core_0_STLB_demand_mpki 38.5443
Core_0_STLB_vberti_prefetch_access 4533
Core_0_STLB_vberti_prefetch_hit 2738
Core_0_STLB_vberti_prefetch_miss 1795
Core_0_STLB_vberti_prefetch_mshr_merge 0
Core_0_STLB_vberti_prefetch_fill 1795
Core_0_STLB_vberti_prefetch_miss_rate 0.395985
Core_0_STLB_vberti_prefetch_mpki 0.01795

=== STLB_vBerti Same/Cross-page Prefetch Stats ===
Core_0_STLB_vberti_same_page_prefetch 0
Core_0_STLB_vberti_same_page_prefetch_hit 0
Core_0_STLB_vberti_same_page_prefetch_miss 0
Core_0_STLB_vberti_same_page_prefetch_mshr_merge 0
Core_0_STLB_vberti_same_page_prefetch_fill 0
Core_0_STLB_vberti_same_page_prefetch_miss_rate 0
Core_0_STLB_vberti_same_page_prefetch_mpki 0
Core_0_STLB_vberti_cross_page_prefetch 4533
Core_0_STLB_vberti_cross_page_prefetch_hit 2738
Core_0_STLB_vberti_cross_page_prefetch_miss 1795
Core_0_STLB_vberti_cross_page_prefetch_mshr_merge 0
Core_0_STLB_vberti_cross_page_prefetch_fill 1795
Core_0_STLB_vberti_cross_page_prefetch_miss_rate 0.395985
Core_0_STLB_vberti_cross_page_prefetch_mpki 0.01795
Core_0_STLB_same_page_prefetch_miss_rate 0
Core_0_STLB_same_page_prefetch_mpki 0
Core_0_STLB_cross_page_prefetch_miss_rate 0.395985
Core_0_STLB_cross_page_prefetch_mpki 0.01795
Core_0_STLB_cross_page_prefetch_issued 4533
Core_0_STLB_cross_page_prefetch_lookups 4533
Core_0_STLB_cross_page_prefetch_useful 110
Core_0_STLB_cross_page_prefetch_useless 1685
Core_0_STLB_cross_page_prefetch_late 0
Core_0_STLB_cross_page_prefetch_too_early 389
Core_0_STLB_cross_page_prefetch_too_early_among_fill 0.216713
Core_0_STLB_cross_page_prefetch_too_early_among_useless 0.230861
Core_0_STLB_cross_page_prefetch_pollution_evict 1401
Core_0_STLB_cross_page_prefetch_pollution_demand 1401
Core_0_STLB_cross_page_prefetch_pollution_among_prefetch_fill 0.780501
Core_0_STLB_cross_page_prefetch_accuracy 0.0242665
Core_0_STLB_cross_page_prefetch_coverage 2.85378e-05

========= STLB Cross-page Prefetch Buffer Stats =========
Core_0_STLB_raw_demand_miss 3854431
Core_0_CP_PB_insert 0
Core_0_CP_PB_demand_hit 0
Core_0_STLB_PB_demand_miss 3854431
Core_0_CP_PB_coverage 0
Core_0_STLB_raw_demand_mpki 38.5443
Core_0_STLB_PB_demand_mpki 38.5443
Core_0_CP_PB_demand_hit_mpki 0

Core_0_TLB_demand_miss_rate 0.344084
Core_0_TLB_demand_mpki 38.5443
Core_0_TLB_same_page_prefetch_miss_rate 0
Core_0_TLB_same_page_prefetch_mpki 0
Core_0_TLB_cross_page_prefetch_miss_rate 0.00998998
Core_0_TLB_cross_page_prefetch_mpki 0.01795
Core_0_TLB_cross_page_prefetch_issued 179680
Core_0_TLB_cross_page_prefetch_lookups 179680
Core_0_TLB_cross_page_prefetch_useful 41
Core_0_TLB_cross_page_prefetch_useless 3198
Core_0_TLB_cross_page_prefetch_late 0
Core_0_TLB_cross_page_prefetch_too_early 189
Core_0_TLB_cross_page_prefetch_too_early_among_fill 0.0298673
Core_0_TLB_cross_page_prefetch_too_early_among_useless 0.0590994
Core_0_TLB_cross_page_prefetch_accuracy 0.000228183
Core_0_TLB_cross_page_prefetch_coverage 1.0637e-05
BERTI TO_L1: 1483687 TO_L2: 1614584 TO_L2_BC_MSHR: 0
BERTI AVG_LAT: 119.932 NUM_TRACK_LATENCY: 9076932 NUM_CANT_TRACK_LATENCY: 0
BERTI CROSS_PAGE 303572 NO_CROSS_PAGE: 2794699
BERTI FOUND_BERTI: 12688918 NO_FOUND_BERTI: 3776583
BERTI AVERAGE_ISSUED: 2.90385
