[VMEM] WARNING: physical memory size is smaller than virtual memory size.

*** ChampSim Multicore Out-of-Order Simulator ***
Warmup Instructions: 50000000
Simulation Instructions: 100000000
Number of CPUs: 1
Page size: 4096
Core 0: /data2/zcq/champsim_traces_xsbench/xs.XL100unionized-28B.champsimtrace.xz
VBerti Prefetcher
BERTI HASH ENTANGLING
BERTI IP MASK ffff
Off-chip DRAM Size: 16 GiB Channels: 1 Width: 64-bit Data Rate: 3205 MT/s
Warmup halting CPU 0 at instruction 50000004 cycle 12393975 for remainder of phase
Warmup finished CPU 0 instructions: 50000004 cycles: 12393975 cumulative IPC: 4.034 (Simulation time: 00 hr 02 min 40 sec)
Warmup complete CPU 0 instructions: 50000004 cycles: 12393975 cumulative IPC: 4.034 (Simulation time: 00 hr 02 min 40 sec)
Simulation finished CPU 0 instructions: 100000003 cycles: 193715986 cumulative IPC: 0.5162 (Simulation time: 00 hr 19 min 22 sec)
Simulation complete CPU 0 instructions: 100000003 cycles: 193715986 cumulative IPC: 0.5162 (Simulation time: 00 hr 19 min 22 sec)

ChampSim completed all CPUs

=== Simulation ===
CPU 0 runs /data2/zcq/champsim_traces_xsbench/xs.XL100unionized-28B.champsimtrace.xz

Region of Interest Statistics

CPU 0 cumulative IPC: 0.5162 instructions: 100000003 cycles: 193715986
CPU 0 Branch Prediction Accuracy: 92.6% MPKI: 18.1 Average ROB Occupancy at Mispredict: 28.68
Branch type MPKI
BRANCH_DIRECT_JUMP: 0
BRANCH_INDIRECT: 0
BRANCH_CONDITIONAL: 18.1
BRANCH_DIRECT_CALL: 0
BRANCH_INDIRECT_CALL: 0
BRANCH_RETURN: 0.00051

cpu0->cpu0_STLB TOTAL        ACCESS:    1034754 HIT:     931890 MISS:     102864 MSHR_MERGE:          0
cpu0->cpu0_STLB LOAD         ACCESS:    1034754 HIT:     931890 MISS:     102864 MSHR_MERGE:          0
cpu0->cpu0_STLB RFO          ACCESS:          0 HIT:          0 MISS:          0 MSHR_MERGE:          0
cpu0->cpu0_STLB PREFETCH     ACCESS:          0 HIT:          0 MISS:          0 MSHR_MERGE:          0
cpu0->cpu0_STLB WRITE        ACCESS:          0 HIT:          0 MISS:          0 MSHR_MERGE:          0
cpu0->cpu0_STLB TRANSLATION  ACCESS:          0 HIT:          0 MISS:          0 MSHR_MERGE:          0
cpu0->cpu0_STLB PREFETCH REQUESTED:          0 ISSUED:          0 USEFUL:          0 USELESS:          0 LATE:          0 TOO_EARLY:          0
cpu0->cpu0_STLB AVERAGE MISS LATENCY: 23.9 cycles
cpu0->cpu0_L2C TOTAL        ACCESS:    8379071 HIT:    6507880 MISS:    1871191 MSHR_MERGE:     185084
cpu0->cpu0_L2C LOAD         ACCESS:    1911834 HIT:     797598 MISS:    1114236 MSHR_MERGE:      27086
cpu0->cpu0_L2C RFO          ACCESS:      71782 HIT:      61006 MISS:      10776 MSHR_MERGE:       1369
cpu0->cpu0_L2C PREFETCH     ACCESS:    5885690 HIT:    5141201 MISS:     744489 MSHR_MERGE:     156629
cpu0->cpu0_L2C WRITE        ACCESS:     451872 HIT:     451826 MISS:         46 MSHR_MERGE:          0
cpu0->cpu0_L2C TRANSLATION  ACCESS:      57893 HIT:      56249 MISS:       1644 MSHR_MERGE:          0
cpu0->cpu0_L2C PREFETCH REQUESTED:    1505058 ISSUED:    1460538 USEFUL:     179097 USELESS:       2182 LATE:      24823 TOO_EARLY:        617
cpu0->cpu0_L2C AVERAGE MISS LATENCY: 141.5 cycles
cpu0->cpu0_L1I TOTAL        ACCESS:    1360309 HIT:    1360309 MISS:          0 MSHR_MERGE:          0
cpu0->cpu0_L1I LOAD         ACCESS:    1360309 HIT:    1360309 MISS:          0 MSHR_MERGE:          0
cpu0->cpu0_L1I RFO          ACCESS:          0 HIT:          0 MISS:          0 MSHR_MERGE:          0
cpu0->cpu0_L1I PREFETCH     ACCESS:          0 HIT:          0 MISS:          0 MSHR_MERGE:          0
cpu0->cpu0_L1I WRITE        ACCESS:          0 HIT:          0 MISS:          0 MSHR_MERGE:          0
cpu0->cpu0_L1I TRANSLATION  ACCESS:          0 HIT:          0 MISS:          0 MSHR_MERGE:          0
cpu0->cpu0_L1I PREFETCH REQUESTED:          0 ISSUED:          0 USEFUL:          0 USELESS:          0 LATE:          0 TOO_EARLY:          0
cpu0->cpu0_L1I AVERAGE MISS LATENCY: - cycles
cpu0->cpu0_L1D TOTAL        ACCESS:   74076104 HIT:   67112560 MISS:    6963544 MSHR_MERGE:     485135
cpu0->cpu0_L1D LOAD         ACCESS:   23376295 HIT:   21144289 MISS:    2232006 MSHR_MERGE:     320172
cpu0->cpu0_L1D RFO          ACCESS:          0 HIT:          0 MISS:          0 MSHR_MERGE:          0
cpu0->cpu0_L1D PREFETCH     ACCESS:   38202908 HIT:   33749438 MISS:    4453470 MSHR_MERGE:      16570
cpu0->cpu0_L1D WRITE        ACCESS:   12291227 HIT:   12071080 MISS:     220147 MSHR_MERGE:     148365
cpu0->cpu0_L1D TRANSLATION  ACCESS:     205674 HIT:     147753 MISS:      57921 MSHR_MERGE:         28
cpu0->cpu0_L1D PREFETCH REQUESTED:  149140903 ISSUED:   38202907 USEFUL:     654221 USELESS:      12389 LATE:      10631 TOO_EARLY:       5018
cpu0->cpu0_L1D AVERAGE MISS LATENCY: 86.99 cycles
cpu0->cpu0_ITLB TOTAL        ACCESS:    1287529 HIT:    1287529 MISS:          0 MSHR_MERGE:          0
cpu0->cpu0_ITLB LOAD         ACCESS:    1287529 HIT:    1287529 MISS:          0 MSHR_MERGE:          0
cpu0->cpu0_ITLB RFO          ACCESS:          0 HIT:          0 MISS:          0 MSHR_MERGE:          0
cpu0->cpu0_ITLB PREFETCH     ACCESS:          0 HIT:          0 MISS:          0 MSHR_MERGE:          0
cpu0->cpu0_ITLB WRITE        ACCESS:          0 HIT:          0 MISS:          0 MSHR_MERGE:          0
cpu0->cpu0_ITLB TRANSLATION  ACCESS:          0 HIT:          0 MISS:          0 MSHR_MERGE:          0
cpu0->cpu0_ITLB PREFETCH REQUESTED:          0 ISSUED:          0 USEFUL:          0 USELESS:          0 LATE:          0 TOO_EARLY:          0
cpu0->cpu0_ITLB AVERAGE MISS LATENCY: - cycles
cpu0->cpu0_DTLB TOTAL        ACCESS:   59698438 HIT:   58613577 MISS:    1084861 MSHR_MERGE:      50107
cpu0->cpu0_DTLB LOAD         ACCESS:   59698438 HIT:   58613577 MISS:    1084861 MSHR_MERGE:      50107
cpu0->cpu0_DTLB RFO          ACCESS:          0 HIT:          0 MISS:          0 MSHR_MERGE:          0
cpu0->cpu0_DTLB PREFETCH     ACCESS:          0 HIT:          0 MISS:          0 MSHR_MERGE:          0
cpu0->cpu0_DTLB WRITE        ACCESS:          0 HIT:          0 MISS:          0 MSHR_MERGE:          0
cpu0->cpu0_DTLB TRANSLATION  ACCESS:          0 HIT:          0 MISS:          0 MSHR_MERGE:          0
cpu0->cpu0_DTLB PREFETCH REQUESTED:          0 ISSUED:          0 USEFUL:          0 USELESS:          0 LATE:          0 TOO_EARLY:          0
cpu0->cpu0_DTLB AVERAGE MISS LATENCY: 7.48 cycles
cpu0->LLC TOTAL        ACCESS:    1972277 HIT:     851990 MISS:    1120287 MSHR_MERGE:       7211
cpu0->LLC LOAD         ACCESS:    1087150 HIT:     416421 MISS:     670729 MSHR_MERGE:       1652
cpu0->LLC RFO          ACCESS:       9407 HIT:       5890 MISS:       3517 MSHR_MERGE:         54
cpu0->LLC PREFETCH     ACCESS:     587843 HIT:     213206 MISS:     374637 MSHR_MERGE:       5505
cpu0->LLC WRITE        ACCESS:     286233 HIT:     216441 MISS:      69792 MSHR_MERGE:          0
cpu0->LLC TRANSLATION  ACCESS:       1644 HIT:         32 MISS:       1612 MSHR_MERGE:          0
cpu0->LLC PREFETCH REQUESTED:          0 ISSUED:          0 USEFUL:          0 USELESS:          0 LATE:          0 TOO_EARLY:          0
cpu0->LLC AVERAGE MISS LATENCY: 184.9 cycles

DRAM Statistics

Channel 0 RQ ROW_BUFFER_HIT:      24961
  ROW_BUFFER_MISS:    1017672
  AVG DBUS CONGESTED CYCLE: 13.78
Channel 0 WQ ROW_BUFFER_HIT:      36433
  ROW_BUFFER_MISS:     111067
  FULL:       1046
Channel 0 REFRESHES ISSUED:      16143

[ROI Statistics]
[System Configuration]
num_cpus 1
cpu_freq 4000
fetch_width 6
decode_width 6
dispatch_width 6
execute_width 6
lq_width 2
sq_width 2
retire_width 6
scheduler_size 128
branch_mispredict_penalty 15
rob_size 352
lq_size 128
sq_size 72
ifetch_buffer_size 64
decode_buffer_size 32
dispatch_buffer_size 32
register_file_size 288
decode_latency 1
dispatch_latency 1
schedule_latency 1
execute_latency 1
page_size 4096
block_size 64
core_0_itlb_set 16
core_0_itlb_way 4
core_0_itlb_rq_size 16
core_0_itlb_wq_size 16
core_0_itlb_pq_size 0
core_0_itlb_mshr_size 8
core_0_itlb_hit_latency 1
core_0_itlb_fill_latency 1
core_0_itlb_max_tag_check 2
core_0_itlb_max_fill 2
core_0_dtlb_set 16
core_0_dtlb_way 4
core_0_dtlb_rq_size 16
core_0_dtlb_wq_size 16
core_0_dtlb_pq_size 0
core_0_dtlb_mshr_size 8
core_0_dtlb_hit_latency 1
core_0_dtlb_fill_latency 1
core_0_dtlb_max_tag_check 2
core_0_dtlb_max_fill 2
core_0_stlb_set 128
core_0_stlb_way 12
core_0_stlb_rq_size 32
core_0_stlb_wq_size 32
core_0_stlb_pq_size 0
core_0_stlb_mshr_size 16
core_0_stlb_hit_latency 4
core_0_stlb_fill_latency 4
core_0_stlb_max_tag_check 1
core_0_stlb_max_fill 1
core_0_l1i_set 64
core_0_l1i_way 8
core_0_l1i_rq_size 64
core_0_l1i_wq_size 64
core_0_l1i_pq_size 32
core_0_l1i_mshr_size 8
core_0_l1i_hit_latency 2
core_0_l1i_fill_latency 2
core_0_l1i_max_tag_check 2
core_0_l1i_max_fill 2
core_0_l1d_set 64
core_0_l1d_way 12
core_0_l1d_rq_size 64
core_0_l1d_wq_size 64
core_0_l1d_pq_size 8
core_0_l1d_mshr_size 16
core_0_l1d_hit_latency 2
core_0_l1d_fill_latency 3
core_0_l1d_max_tag_check 2
core_0_l1d_max_fill 2
core_0_l2c_set 1024
core_0_l2c_way 8
core_0_l2c_rq_size 32
core_0_l2c_wq_size 32
core_0_l2c_pq_size 16
core_0_l2c_mshr_size 32
core_0_l2c_hit_latency 5
core_0_l2c_fill_latency 5
core_0_l2c_max_tag_check 1
core_0_l2c_max_fill 1
llc_set 2048
llc_way 16
llc_rq_size 32
llc_wq_size 32
llc_pq_size 32
llc_mshr_size 64
llc_hit_latency 10
llc_fill_latency 10
llc_max_tag_check 1
llc_max_fill 1
dram_channels 1
dram_ranks 1
dram_bankgroups 8
dram_banks 4
dram_rows 65536
dram_columns 1024
dram_channel_width 8
dram_rq_size 64
dram_wq_size 64
dram_size 17179869184
core_0_itlb_prefetcher no
core_0_dtlb_prefetcher no
core_0_stlb_prefetcher no
core_0_l1i_prefetcher next_line
core_0_l1d_prefetcher vberti
core_0_l2c_prefetcher ip_stride
llc_prefetcher no
llc_replacement drrip

Core_0_instructions 100000003
Core_0_cycles 193715986
Core_0_IPC 0.51622
Core_0_branch_prediction_accuracy 92.602
Core_0_branch_MPKI 18.0963
Core_0_average_ROB_occupancy_at_mispredict 28.6799

Core_0_ITLB_total_access 1287529
Core_0_ITLB_total_hit 1287529
Core_0_ITLB_total_miss 0
Core_0_ITLB_total_MPKI 0
Core_0_ITLB_total_miss_rate 0
Core_0_ITLB_demand_access 1287529
Core_0_ITLB_demand_hit 1287529
Core_0_ITLB_demand_miss 0
Core_0_ITLB_demand_MPKI 0
Core_0_ITLB_demand_miss_rate 0
Core_0_ITLB_load_access 1287529
Core_0_ITLB_load_hit 1287529
Core_0_ITLB_load_miss 0
Core_0_ITLB_load_MPKI 0
Core_0_ITLB_load_miss_rate 0
Core_0_ITLB_rfo_access 0
Core_0_ITLB_rfo_hit 0
Core_0_ITLB_rfo_miss 0
Core_0_ITLB_rfo_MPKI 0
Core_0_ITLB_rfo_miss_rate 0
Core_0_ITLB_prefetch_access 0
Core_0_ITLB_prefetch_hit 0
Core_0_ITLB_prefetch_miss 0
Core_0_ITLB_prefetch_MPKI 0
Core_0_ITLB_prefetch_miss_rate 0
Core_0_ITLB_writeback_access 0
Core_0_ITLB_writeback_hit 0
Core_0_ITLB_writeback_miss 0
Core_0_ITLB_writeback_MPKI 0
Core_0_ITLB_writeback_miss_rate 0
Core_0_ITLB_prefetch_requested 0
Core_0_ITLB_prefetch_issued 0
Core_0_ITLB_prefetch_useful 0
Core_0_ITLB_prefetch_useless 0
Core_0_ITLB_prefetch_late 0
Core_0_ITLB_prefetch_fill 0
Core_0_ITLB_prefetch_too_early 0
Core_0_ITLB_prefetch_too_early_among_fill 0
Core_0_ITLB_prefetch_too_early_among_useless 0
Core_0_ITLB_prefetch_pollution_evict 0
Core_0_ITLB_prefetch_pollution_demand 0
Core_0_ITLB_prefetch_pollution_among_prefetch_fill 0
Core_0_ITLB_prefetch_accuracy 0
Core_0_ITLB_prefetch_coverage 0

Core_0_DTLB_total_access 59698438
Core_0_DTLB_total_hit 58613577
Core_0_DTLB_total_miss 1084861
Core_0_DTLB_total_MPKI 10.8486
Core_0_DTLB_total_miss_rate 0.0181724
Core_0_DTLB_demand_access 59698438
Core_0_DTLB_demand_hit 58613577
Core_0_DTLB_demand_miss 1084861
Core_0_DTLB_demand_MPKI 10.8486
Core_0_DTLB_demand_miss_rate 0.0181724
Core_0_DTLB_load_access 59698438
Core_0_DTLB_load_hit 58613577
Core_0_DTLB_load_miss 1084861
Core_0_DTLB_load_MPKI 10.8486
Core_0_DTLB_load_miss_rate 0.0181724
Core_0_DTLB_rfo_access 0
Core_0_DTLB_rfo_hit 0
Core_0_DTLB_rfo_miss 0
Core_0_DTLB_rfo_MPKI 0
Core_0_DTLB_rfo_miss_rate 0
Core_0_DTLB_prefetch_access 0
Core_0_DTLB_prefetch_hit 0
Core_0_DTLB_prefetch_miss 0
Core_0_DTLB_prefetch_MPKI 0
Core_0_DTLB_prefetch_miss_rate 0
Core_0_DTLB_writeback_access 0
Core_0_DTLB_writeback_hit 0
Core_0_DTLB_writeback_miss 0
Core_0_DTLB_writeback_MPKI 0
Core_0_DTLB_writeback_miss_rate 0
Core_0_DTLB_prefetch_requested 0
Core_0_DTLB_prefetch_issued 0
Core_0_DTLB_prefetch_useful 0
Core_0_DTLB_prefetch_useless 0
Core_0_DTLB_prefetch_late 0
Core_0_DTLB_prefetch_fill 0
Core_0_DTLB_prefetch_too_early 0
Core_0_DTLB_prefetch_too_early_among_fill 0
Core_0_DTLB_prefetch_too_early_among_useless 0
Core_0_DTLB_prefetch_pollution_evict 0
Core_0_DTLB_prefetch_pollution_demand 0
Core_0_DTLB_prefetch_pollution_among_prefetch_fill 0
Core_0_DTLB_prefetch_accuracy 0
Core_0_DTLB_prefetch_coverage 0

Core_0_STLB_total_access 1034754
Core_0_STLB_total_hit 931890
Core_0_STLB_total_miss 102864
Core_0_STLB_total_MPKI 1.02864
Core_0_STLB_total_miss_rate 0.0994091
Core_0_STLB_demand_access 1034754
Core_0_STLB_demand_hit 931890
Core_0_STLB_demand_miss 102864
Core_0_STLB_demand_MPKI 1.02864
Core_0_STLB_demand_miss_rate 0.0994091
Core_0_STLB_load_access 1034754
Core_0_STLB_load_hit 931890
Core_0_STLB_load_miss 102864
Core_0_STLB_load_MPKI 1.02864
Core_0_STLB_load_miss_rate 0.0994091
Core_0_STLB_rfo_access 0
Core_0_STLB_rfo_hit 0
Core_0_STLB_rfo_miss 0
Core_0_STLB_rfo_MPKI 0
Core_0_STLB_rfo_miss_rate 0
Core_0_STLB_prefetch_access 0
Core_0_STLB_prefetch_hit 0
Core_0_STLB_prefetch_miss 0
Core_0_STLB_prefetch_MPKI 0
Core_0_STLB_prefetch_miss_rate 0
Core_0_STLB_writeback_access 0
Core_0_STLB_writeback_hit 0
Core_0_STLB_writeback_miss 0
Core_0_STLB_writeback_MPKI 0
Core_0_STLB_writeback_miss_rate 0
Core_0_STLB_prefetch_requested 0
Core_0_STLB_prefetch_issued 0
Core_0_STLB_prefetch_useful 0
Core_0_STLB_prefetch_useless 0
Core_0_STLB_prefetch_late 0
Core_0_STLB_prefetch_fill 0
Core_0_STLB_prefetch_too_early 0
Core_0_STLB_prefetch_too_early_among_fill 0
Core_0_STLB_prefetch_too_early_among_useless 0
Core_0_STLB_prefetch_pollution_evict 0
Core_0_STLB_prefetch_pollution_demand 0
Core_0_STLB_prefetch_pollution_among_prefetch_fill 0
Core_0_STLB_prefetch_accuracy 0
Core_0_STLB_prefetch_coverage 0

Core_0_L1I_total_access 1360309
Core_0_L1I_total_hit 1360309
Core_0_L1I_total_miss 0
Core_0_L1I_total_MPKI 0
Core_0_L1I_total_miss_rate 0
Core_0_L1I_demand_access 1360309
Core_0_L1I_demand_hit 1360309
Core_0_L1I_demand_miss 0
Core_0_L1I_demand_MPKI 0
Core_0_L1I_demand_miss_rate 0
Core_0_L1I_load_access 1360309
Core_0_L1I_load_hit 1360309
Core_0_L1I_load_miss 0
Core_0_L1I_load_MPKI 0
Core_0_L1I_load_miss_rate 0
Core_0_L1I_rfo_access 0
Core_0_L1I_rfo_hit 0
Core_0_L1I_rfo_miss 0
Core_0_L1I_rfo_MPKI 0
Core_0_L1I_rfo_miss_rate 0
Core_0_L1I_prefetch_access 0
Core_0_L1I_prefetch_hit 0
Core_0_L1I_prefetch_miss 0
Core_0_L1I_prefetch_MPKI 0
Core_0_L1I_prefetch_miss_rate 0
Core_0_L1I_writeback_access 0
Core_0_L1I_writeback_hit 0
Core_0_L1I_writeback_miss 0
Core_0_L1I_writeback_MPKI 0
Core_0_L1I_writeback_miss_rate 0
Core_0_L1I_prefetch_requested 0
Core_0_L1I_prefetch_issued 0
Core_0_L1I_prefetch_useful 0
Core_0_L1I_prefetch_useless 0
Core_0_L1I_prefetch_late 0
Core_0_L1I_prefetch_fill 0
Core_0_L1I_prefetch_too_early 0
Core_0_L1I_prefetch_too_early_among_fill 0
Core_0_L1I_prefetch_too_early_among_useless 0
Core_0_L1I_prefetch_pollution_evict 0
Core_0_L1I_prefetch_pollution_demand 0
Core_0_L1I_prefetch_pollution_among_prefetch_fill 0
Core_0_L1I_prefetch_accuracy 0
Core_0_L1I_prefetch_coverage 0

Core_0_L1D_total_access 73870430
Core_0_L1D_total_hit 66964807
Core_0_L1D_total_miss 6905623
Core_0_L1D_total_MPKI 69.0562
Core_0_L1D_total_miss_rate 0.0934829
Core_0_L1D_demand_access 23376295
Core_0_L1D_demand_hit 21144289
Core_0_L1D_demand_miss 2232006
Core_0_L1D_demand_MPKI 22.3201
Core_0_L1D_demand_miss_rate 0.0954816
Core_0_L1D_load_access 23376295
Core_0_L1D_load_hit 21144289
Core_0_L1D_load_miss 2232006
Core_0_L1D_load_MPKI 22.3201
Core_0_L1D_load_miss_rate 0.0954816
Core_0_L1D_rfo_access 0
Core_0_L1D_rfo_hit 0
Core_0_L1D_rfo_miss 0
Core_0_L1D_rfo_MPKI 0
Core_0_L1D_rfo_miss_rate 0
Core_0_L1D_prefetch_access 38202908
Core_0_L1D_prefetch_hit 33749438
Core_0_L1D_prefetch_miss 4453470
Core_0_L1D_prefetch_MPKI 44.5347
Core_0_L1D_prefetch_miss_rate 0.116574
Core_0_L1D_writeback_access 12291227
Core_0_L1D_writeback_hit 12071080
Core_0_L1D_writeback_miss 220147
Core_0_L1D_writeback_MPKI 2.20147
Core_0_L1D_writeback_miss_rate 0.0179109
Core_0_L1D_prefetch_requested 149140903
Core_0_L1D_prefetch_issued 38202907
Core_0_L1D_prefetch_useful 654221
Core_0_L1D_prefetch_useless 12389
Core_0_L1D_prefetch_late 10631
Core_0_L1D_prefetch_fill 655985
Core_0_L1D_prefetch_too_early 5018
Core_0_L1D_prefetch_too_early_among_fill 0.00764957
Core_0_L1D_prefetch_too_early_among_useless 0.405037
Core_0_L1D_prefetch_pollution_evict 121204
Core_0_L1D_prefetch_pollution_demand 120551
Core_0_L1D_prefetch_pollution_among_prefetch_fill 0.184766
Core_0_L1D_prefetch_accuracy 0.0171249
Core_0_L1D_prefetch_coverage 0.22667

Core_0_L2C_total_access 8321178
Core_0_L2C_total_hit 6451631
Core_0_L2C_total_miss 1869547
Core_0_L2C_total_MPKI 18.6955
Core_0_L2C_total_miss_rate 0.224673
Core_0_L2C_demand_access 1983616
Core_0_L2C_demand_hit 858604
Core_0_L2C_demand_miss 1125012
Core_0_L2C_demand_MPKI 11.2501
Core_0_L2C_demand_miss_rate 0.567152
Core_0_L2C_load_access 1911834
Core_0_L2C_load_hit 797598
Core_0_L2C_load_miss 1114236
Core_0_L2C_load_MPKI 11.1424
Core_0_L2C_load_miss_rate 0.58281
Core_0_L2C_rfo_access 71782
Core_0_L2C_rfo_hit 61006
Core_0_L2C_rfo_miss 10776
Core_0_L2C_rfo_MPKI 0.10776
Core_0_L2C_rfo_miss_rate 0.150121
Core_0_L2C_prefetch_access 5885690
Core_0_L2C_prefetch_hit 5141201
Core_0_L2C_prefetch_miss 744489
Core_0_L2C_prefetch_MPKI 7.44489
Core_0_L2C_prefetch_miss_rate 0.126491
Core_0_L2C_writeback_access 451872
Core_0_L2C_writeback_hit 451826
Core_0_L2C_writeback_miss 46
Core_0_L2C_writeback_MPKI 0.00046
Core_0_L2C_writeback_miss_rate 0.000101799
Core_0_L2C_prefetch_requested 1505058
Core_0_L2C_prefetch_issued 1460538
Core_0_L2C_prefetch_useful 179097
Core_0_L2C_prefetch_useless 2182
Core_0_L2C_prefetch_late 24823
Core_0_L2C_prefetch_fill 545041
Core_0_L2C_prefetch_too_early 617
Core_0_L2C_prefetch_too_early_among_fill 0.00113202
Core_0_L2C_prefetch_too_early_among_useless 0.282768
Core_0_L2C_prefetch_pollution_evict 142269
Core_0_L2C_prefetch_pollution_demand 142247
Core_0_L2C_prefetch_pollution_among_prefetch_fill 0.261024
Core_0_L2C_prefetch_accuracy 0.122624
Core_0_L2C_prefetch_coverage 0.137333

Core_0_LLC_total_access 1970633
Core_0_LLC_total_hit 851958
Core_0_LLC_total_miss 1118675
Core_0_LLC_total_MPKI 11.1867
Core_0_LLC_total_miss_rate 0.567673
Core_0_LLC_demand_access 1096557
Core_0_LLC_demand_hit 422311
Core_0_LLC_demand_miss 674246
Core_0_LLC_demand_MPKI 6.74246
Core_0_LLC_demand_miss_rate 0.614875
Core_0_LLC_load_access 1087150
Core_0_LLC_load_hit 416421
Core_0_LLC_load_miss 670729
Core_0_LLC_load_MPKI 6.70729
Core_0_LLC_load_miss_rate 0.616961
Core_0_LLC_rfo_access 9407
Core_0_LLC_rfo_hit 5890
Core_0_LLC_rfo_miss 3517
Core_0_LLC_rfo_MPKI 0.03517
Core_0_LLC_rfo_miss_rate 0.373871
Core_0_LLC_prefetch_access 587843
Core_0_LLC_prefetch_hit 213206
Core_0_LLC_prefetch_miss 374637
Core_0_LLC_prefetch_MPKI 3.74637
Core_0_LLC_prefetch_miss_rate 0.637308
Core_0_LLC_writeback_access 286233
Core_0_LLC_writeback_hit 216441
Core_0_LLC_writeback_miss 69792
Core_0_LLC_writeback_MPKI 0.69792
Core_0_LLC_writeback_miss_rate 0.243829
Core_0_LLC_prefetch_requested 0
Core_0_LLC_prefetch_issued 0
Core_0_LLC_prefetch_useful 0
Core_0_LLC_prefetch_useless 0
Core_0_LLC_prefetch_late 0
Core_0_LLC_prefetch_fill 367426
Core_0_LLC_prefetch_too_early 0
Core_0_LLC_prefetch_too_early_among_fill 0
Core_0_LLC_prefetch_too_early_among_useless 0
Core_0_LLC_prefetch_pollution_evict 147731
Core_0_LLC_prefetch_pollution_demand 147731
Core_0_LLC_prefetch_pollution_among_prefetch_fill 0.40207
Core_0_LLC_prefetch_accuracy 0
Core_0_LLC_prefetch_coverage 0

[DRAM Statistics]
Channel_0_RQ_row_buffer_hit 24961
Channel_0_RQ_row_buffer_miss 1017672
Channel_0_WQ_row_buffer_hit 36433
Channel_0_WQ_row_buffer_miss 111067
Channel_0_WQ_full 1046
Channel_0_dbus_congested 2528307
DRAM_total_RQ_row_buffer_hit 24961
DRAM_total_RQ_row_buffer_miss 1017672
DRAM_total_WQ_row_buffer_hit 36433
DRAM_total_WQ_row_buffer_miss 111067
DRAM_total_WQ_full 1046
DRAM_total_dbus_congested 2528307
DRAM_avg_congested_cycle 13.7817

====== DRAM_RQ_TRAFFIC ========
DRAM_RQ_READ_TRAFFIC_BREAKDOWN:
data_demand_read.count = 672540
data_demand_read.share = 64.46%

inst_demand_read.count = 0
inst_demand_read.share = 0.00%

cache_inst_prefetch.count = 0
cache_inst_prefetch.share = 0.00%

cache_data_prefetch.count = 369132
cache_data_prefetch.share = 35.38%

stlb_data_demand.count = 984
stlb_data_demand.share = 0.09%

stlb_inst_demand.count = 0
stlb_inst_demand.share = 0.00%

stlb_l1i_pref.count = 0
stlb_l1i_pref.share = 0.00%

stlb_l1d_pref.count = 628
stlb_l1d_pref.share = 0.06%

DRAM_RQ_READ_TRAFFIC_SUMMARY:
cache_demand.count = 672540
cache_demand.share = 64.46%

cache_prefetch.count = 369132
cache_prefetch.share = 35.38%

stlb_demand.count = 984
stlb_demand.share = 0.09%

stlb_prefetch.count = 628
stlb_prefetch.share = 0.06%

DRAM_RQ_READ_TRAFFIC_DEBUG:
total_classified_read.count = 1043284
unclassified_read.count = 0
total_read_with_other.count = 1043284

classified_plus_unclassified_check.count = 1043284
dram_rq_read_total_observed.count = 1043284
dram_rq_read_total_observed.per_1K_instructions = 10.4328

STLB_MISS_PTW_DRAM_TOUCH_BREAKDOWN:
stlb_miss_total.count = 102864

stlb_miss_touch_dram.count = 1607
stlb_miss_touch_dram.share = 1.56%

stlb_miss_no_dram_touch.count = 101257
stlb_miss_no_dram_touch.share = 98.44%

STLB_MISS_PTW_DRAM_TOUCH_DEBUG:
stlb_miss_touch_plus_no_touch.count = 102864
stlb_miss_total_check.count = 102864

======STLB miss causes ========
Core_0_STLB_miss_cause_breakdown
Core_0_STLB_cause_Demand_Data_miss 98020
Core_0_STLB_cause_Demand_Data_miss_rate 0.0947278
Core_0_STLB_cause_Demand_Instruction_miss 0
Core_0_STLB_cause_Demand_Instruction_miss_rate 0
Core_0_STLB_cause_L1D_Prefetch_miss 4844
Core_0_STLB_cause_L1D_Prefetch_miss_rate 0.00468131
Core_0_STLB_cause_L1D_Prefetch_Same_Page_miss 0
Core_0_STLB_cause_L1D_Prefetch_Same_Page_miss_rate 0
Core_0_STLB_cause_L1D_Prefetch_Cross_Page_miss 4844
Core_0_STLB_cause_L1D_Prefetch_Cross_Page_miss_rate 0.00468131
Core_0_STLB_cause_L1I_Prefetch_miss 0
Core_0_STLB_cause_L1I_Prefetch_miss_rate 0
Core_0_STLB_cause_Other_miss 0
Core_0_STLB_cause_Other_miss_rate 0
Core_0_STLB_Demand_miss 98020
Core_0_STLB_Demand_miss_rate 0.0947278
Core_0_STLB_L1D_Prefetch_miss 4844
Core_0_STLB_L1D_Prefetch_miss_rate 0.00468131
Core_0_STLB_Other_miss 0
Core_0_STLB_Other_miss_rate 0

========== vBerti-TLB Cross-page Flow Stats ==========

Core_0_vBerti_Requested 149140903
Core_0_vBerti_Cross_page_prefetch_in_Requested 16830316
Core_0_vBerti_Same_page_prefetch_in_Requested 132310587
Core_0_vBerti_Cross_page_prefetch_of_Requested 0.112848
Core_0_vBerti_Issued 38202907
Core_0_vBerti_InPQ_Same_page_prefetch 35859644
Core_0_vBerti_InPQ_Cross_page_prefetch 2343263
Core_0_vBerti_PQ_Drop_Rate 0.743847
Core_0_vBerti_InPQ_Cross_page_prefetch_of_Requested 0.0157117
Core_0_vBerti_Cross_page_PQ_Drop_rate 0.860771
Core_0_vBerti_Cross_page_prefetch_of_Issued 0.0613373
Core_0_CP_PF_PQFULL_drop 14487053
Core_0_CP_PF_PQFULL_TLB_rescue_enqueued 0
Core_0_CP_PF_PQFULL_TLB_rescue_issued 0
Core_0_CP_PF_PQFULL_TLB_rescue_translated 0

========= DTLB_vBerti Prefetch Stats =========
Core_0_DTLB_demand_access 33680141
Core_0_DTLB_demand_hit 32611740
Core_0_DTLB_demand_miss 1068401
Core_0_DTLB_demand_mshr_merge 44344
Core_0_DTLB_demand_fill 1024111
Core_0_DTLB_demand_miss_rate 0.031722
Core_0_DTLB_demand_mpki 10.684
Core_0_DTLB_vberti_prefetch_access 26018297
Core_0_DTLB_vberti_prefetch_hit 26001837
Core_0_DTLB_vberti_prefetch_miss 16460
Core_0_DTLB_vberti_prefetch_mshr_merge 5763
Core_0_DTLB_vberti_prefetch_fill 10643
Core_0_DTLB_vberti_prefetch_miss_rate 0.000632632
Core_0_DTLB_vberti_prefetch_mpki 0.1646

=== DTLB_vBerti Same/Cross-page Prefetch Stats ===
Core_0_DTLB_vberti_same_page_prefetch 24204911
Core_0_DTLB_vberti_same_page_prefetch_hit 24204882
Core_0_DTLB_vberti_same_page_prefetch_miss 29
Core_0_DTLB_vberti_same_page_prefetch_mshr_merge 8
Core_0_DTLB_vberti_same_page_prefetch_fill 21
Core_0_DTLB_vberti_same_page_prefetch_miss_rate 1.1981e-06
Core_0_DTLB_vberti_same_page_prefetch_mpki 0.00029
Core_0_DTLB_vberti_cross_page_prefetch 1813386
Core_0_DTLB_vberti_cross_page_prefetch_hit 1796955
Core_0_DTLB_vberti_cross_page_prefetch_miss 16431
Core_0_DTLB_vberti_cross_page_prefetch_mshr_merge 5755
Core_0_DTLB_vberti_cross_page_prefetch_fill 10622
Core_0_DTLB_vberti_cross_page_prefetch_miss_rate 0.00906095
Core_0_DTLB_vberti_cross_page_prefetch_mpki 0.16431
Core_0_DTLB_same_page_prefetch_miss_rate 1.1981e-06
Core_0_DTLB_same_page_prefetch_mpki 0.00029
Core_0_DTLB_cross_page_prefetch_miss_rate 0.00906095
Core_0_DTLB_cross_page_prefetch_mpki 0.16431
Core_0_DTLB_cross_page_prefetch_issued 1813386
Core_0_DTLB_cross_page_prefetch_lookups 1813386
Core_0_DTLB_cross_page_prefetch_useful 10197
Core_0_DTLB_cross_page_prefetch_useless 479
Core_0_DTLB_cross_page_prefetch_late 54
Core_0_DTLB_cross_page_prefetch_too_early 11
Core_0_DTLB_cross_page_prefetch_too_early_among_fill 0.00103559
Core_0_DTLB_cross_page_prefetch_too_early_among_useless 0.0229645
Core_0_DTLB_cross_page_prefetch_pollution_evict 7111
Core_0_DTLB_cross_page_prefetch_pollution_demand 6059
Core_0_DTLB_cross_page_prefetch_pollution_among_prefetch_fill 0.66946
Core_0_DTLB_cross_page_prefetch_accuracy 0.00562318
Core_0_DTLB_cross_page_prefetch_coverage 0.00945394

========= STLB_vBerti Prefetch Stats =========
Core_0_STLB_demand_access 1024057
Core_0_STLB_demand_hit 926037
Core_0_STLB_demand_miss 98020
Core_0_STLB_demand_mshr_merge 0
Core_0_STLB_demand_fill 98020
Core_0_STLB_demand_miss_rate 0.0957173
Core_0_STLB_demand_mpki 0.9802
Core_0_STLB_vberti_prefetch_access 10697
Core_0_STLB_vberti_prefetch_hit 5853
Core_0_STLB_vberti_prefetch_miss 4844
Core_0_STLB_vberti_prefetch_mshr_merge 0
Core_0_STLB_vberti_prefetch_fill 4844
Core_0_STLB_vberti_prefetch_miss_rate 0.452837
Core_0_STLB_vberti_prefetch_mpki 0.04844

=== STLB_vBerti Same/Cross-page Prefetch Stats ===
Core_0_STLB_vberti_same_page_prefetch 21
Core_0_STLB_vberti_same_page_prefetch_hit 21
Core_0_STLB_vberti_same_page_prefetch_miss 0
Core_0_STLB_vberti_same_page_prefetch_mshr_merge 0
Core_0_STLB_vberti_same_page_prefetch_fill 0
Core_0_STLB_vberti_same_page_prefetch_miss_rate 0
Core_0_STLB_vberti_same_page_prefetch_mpki 0
Core_0_STLB_vberti_cross_page_prefetch 10676
Core_0_STLB_vberti_cross_page_prefetch_hit 5832
Core_0_STLB_vberti_cross_page_prefetch_miss 4844
Core_0_STLB_vberti_cross_page_prefetch_mshr_merge 0
Core_0_STLB_vberti_cross_page_prefetch_fill 4844
Core_0_STLB_vberti_cross_page_prefetch_miss_rate 0.453728
Core_0_STLB_vberti_cross_page_prefetch_mpki 0.04844
Core_0_STLB_same_page_prefetch_miss_rate 0
Core_0_STLB_same_page_prefetch_mpki 0
Core_0_STLB_cross_page_prefetch_miss_rate 0.453728
Core_0_STLB_cross_page_prefetch_mpki 0.04844
Core_0_STLB_cross_page_prefetch_issued 10676
Core_0_STLB_cross_page_prefetch_lookups 10676
Core_0_STLB_cross_page_prefetch_useful 2551
Core_0_STLB_cross_page_prefetch_useless 2293
Core_0_STLB_cross_page_prefetch_late 0
Core_0_STLB_cross_page_prefetch_too_early 229
Core_0_STLB_cross_page_prefetch_too_early_among_fill 0.047275
Core_0_STLB_cross_page_prefetch_too_early_among_useless 0.0998692
Core_0_STLB_cross_page_prefetch_pollution_evict 1948
Core_0_STLB_cross_page_prefetch_pollution_demand 1143
Core_0_STLB_cross_page_prefetch_pollution_among_prefetch_fill 0.402147
Core_0_STLB_cross_page_prefetch_accuracy 0.238947
Core_0_STLB_cross_page_prefetch_coverage 0.0253652

========= STLB Cross-page Prefetch Buffer Stats =========
Core_0_STLB_raw_demand_miss 98020
Core_0_CP_PB_insert 0
Core_0_CP_PB_demand_hit 0
Core_0_STLB_PB_demand_miss 98020
Core_0_CP_PB_coverage 0
Core_0_STLB_raw_demand_mpki 0.9802
Core_0_STLB_PB_demand_mpki 0.9802
Core_0_CP_PB_demand_hit_mpki 0

Core_0_TLB_demand_miss_rate 0.00291032
Core_0_TLB_demand_mpki 0.9802
Core_0_TLB_same_page_prefetch_miss_rate 0
Core_0_TLB_same_page_prefetch_mpki 0
Core_0_TLB_cross_page_prefetch_miss_rate 0.00267125
Core_0_TLB_cross_page_prefetch_mpki 0.04844
Core_0_TLB_cross_page_prefetch_issued 1813386
Core_0_TLB_cross_page_prefetch_lookups 1813386
Core_0_TLB_cross_page_prefetch_useful 3317
Core_0_TLB_cross_page_prefetch_useless 112
Core_0_TLB_cross_page_prefetch_late 17
Core_0_TLB_cross_page_prefetch_too_early 11
Core_0_TLB_cross_page_prefetch_too_early_among_fill 0.000711238
Core_0_TLB_cross_page_prefetch_too_early_among_useless 0.0982143
Core_0_TLB_cross_page_prefetch_accuracy 0.00182917
Core_0_TLB_cross_page_prefetch_coverage 0.0327324
BERTI TO_L1: 91016314 TO_L2: 92714908 TO_L2_BC_MSHR: 973198
BERTI AVG_LAT: 57.7939 NUM_TRACK_LATENCY: 4300021 NUM_CANT_TRACK_LATENCY: 33
BERTI CROSS_PAGE 21323742 NO_CROSS_PAGE: 162407480
BERTI FOUND_BERTI: 32751811 NO_FOUND_BERTI: 14153756
BERTI AVERAGE_ISSUED: 2.80222
