[VMEM] WARNING: physical memory size is smaller than virtual memory size.

*** ChampSim Multicore Out-of-Order Simulator ***
Warmup Instructions: 20000000
Simulation Instructions: 50000000
Number of CPUs: 1
Page size: 4096
STLB ideal mode: demand
STLB ideal fill: on
Core 0: /data0/tzh/champsim_traces/SPEC06/459.GemsFDTD-765B.champsimtrace.xz
VBerti Prefetcher
BERTI HASH ENTANGLING
BERTI IP MASK ffff
Off-chip DRAM Size: 16 GiB Channels: 1 Width: 64-bit Data Rate: 3205 MT/s
Warmup halting CPU 0 at instruction 20000003 cycle 6037102 for remainder of phase
Warmup finished CPU 0 instructions: 20000003 cycles: 6037102 cumulative IPC: 3.313 (Simulation time: 00 hr 01 min 28 sec)
Warmup complete CPU 0 instructions: 20000003 cycles: 6037102 cumulative IPC: 3.313 (Simulation time: 00 hr 01 min 28 sec)
Simulation finished CPU 0 instructions: 50000000 cycles: 52015160 cumulative IPC: 0.9613 (Simulation time: 00 hr 09 min 23 sec)
Simulation complete CPU 0 instructions: 50000000 cycles: 52015160 cumulative IPC: 0.9613 (Simulation time: 00 hr 09 min 23 sec)

ChampSim completed all CPUs

=== Simulation ===
CPU 0 runs /data0/tzh/champsim_traces/SPEC06/459.GemsFDTD-765B.champsimtrace.xz

Region of Interest Statistics

CPU 0 cumulative IPC: 0.9613 instructions: 50000000 cycles: 52015160
CPU 0 Branch Prediction Accuracy: 99.9% MPKI: 0.00656 Average ROB Occupancy at Mispredict: 320.1
Branch type MPKI
BRANCH_DIRECT_JUMP: 0.00012
BRANCH_INDIRECT: 0
BRANCH_CONDITIONAL: 0.00644
BRANCH_DIRECT_CALL: 0
BRANCH_INDIRECT_CALL: 0
BRANCH_RETURN: 0

cpu0->cpu0_STLB TOTAL        ACCESS:     453294 HIT:     227308 MISS:     225986 MSHR_MERGE:          0
cpu0->cpu0_STLB LOAD         ACCESS:     453294 HIT:     227308 MISS:     225986 MSHR_MERGE:          0
cpu0->cpu0_STLB RFO          ACCESS:          0 HIT:          0 MISS:          0 MSHR_MERGE:          0
cpu0->cpu0_STLB PREFETCH     ACCESS:          0 HIT:          0 MISS:          0 MSHR_MERGE:          0
cpu0->cpu0_STLB WRITE        ACCESS:          0 HIT:          0 MISS:          0 MSHR_MERGE:          0
cpu0->cpu0_STLB TRANSLATION  ACCESS:          0 HIT:          0 MISS:          0 MSHR_MERGE:          0
cpu0->cpu0_STLB PREFETCH REQUESTED:          0 ISSUED:          0 USEFUL:          0 USELESS:          0 LATE:          0
cpu0->cpu0_STLB AVERAGE MISS LATENCY: 235 cycles
cpu0->cpu0_L2C TOTAL        ACCESS:    2764733 HIT:    1478438 MISS:    1286295 MSHR_MERGE:     109043
cpu0->cpu0_L2C LOAD         ACCESS:     252439 HIT:     151923 MISS:     100516 MSHR_MERGE:      10034
cpu0->cpu0_L2C RFO          ACCESS:       1500 HIT:       1489 MISS:         11 MSHR_MERGE:          0
cpu0->cpu0_L2C PREFETCH     ACCESS:    2002109 HIT:     846407 MISS:    1155702 MSHR_MERGE:      99009
cpu0->cpu0_L2C WRITE        ACCESS:     477022 HIT:     477012 MISS:         10 MSHR_MERGE:          0
cpu0->cpu0_L2C TRANSLATION  ACCESS:      31663 HIT:       1607 MISS:      30056 MSHR_MERGE:          0
cpu0->cpu0_L2C PREFETCH REQUESTED:     108562 ISSUED:     108034 USEFUL:      15558 USELESS:       9783 LATE:        121
cpu0->cpu0_L2C AVERAGE MISS LATENCY: 422.1 cycles
cpu0->cpu0_L1I TOTAL        ACCESS:   14368855 HIT:   14368681 MISS:        174 MSHR_MERGE:         65
cpu0->cpu0_L1I LOAD         ACCESS:   14368855 HIT:   14368681 MISS:        174 MSHR_MERGE:         65
cpu0->cpu0_L1I RFO          ACCESS:          0 HIT:          0 MISS:          0 MSHR_MERGE:          0
cpu0->cpu0_L1I PREFETCH     ACCESS:          0 HIT:          0 MISS:          0 MSHR_MERGE:          0
cpu0->cpu0_L1I WRITE        ACCESS:          0 HIT:          0 MISS:          0 MSHR_MERGE:          0
cpu0->cpu0_L1I TRANSLATION  ACCESS:          0 HIT:          0 MISS:          0 MSHR_MERGE:          0
cpu0->cpu0_L1I PREFETCH REQUESTED:          0 ISSUED:          0 USEFUL:          0 USELESS:          0 LATE:          0
cpu0->cpu0_L1I AVERAGE MISS LATENCY: 323.7 cycles
cpu0->cpu0_L1D TOTAL        ACCESS:   31057481 HIT:   28797987 MISS:    2259494 MSHR_MERGE:      67769
cpu0->cpu0_L1D LOAD         ACCESS:   21236204 HIT:   20947402 MISS:     288802 MSHR_MERGE:      36472
cpu0->cpu0_L1D RFO          ACCESS:          0 HIT:          0 MISS:          0 MSHR_MERGE:          0
cpu0->cpu0_L1D PREFETCH     ACCESS:    6013715 HIT:    4097439 MISS:    1916276 MSHR_MERGE:      10060
cpu0->cpu0_L1D WRITE        ACCESS:    3396592 HIT:    3393299 MISS:       3293 MSHR_MERGE:       1777
cpu0->cpu0_L1D TRANSLATION  ACCESS:     410970 HIT:     359847 MISS:      51123 MSHR_MERGE:      19460
cpu0->cpu0_L1D PREFETCH REQUESTED:   33555023 ISSUED:    6013720 USEFUL:     817564 USELESS:     174938 LATE:      18324
cpu0->cpu0_L1D AVERAGE MISS LATENCY: 211.2 cycles
cpu0->cpu0_ITLB TOTAL        ACCESS:   12392585 HIT:   12392579 MISS:          6 MSHR_MERGE:          4
cpu0->cpu0_ITLB LOAD         ACCESS:   12392585 HIT:   12392579 MISS:          6 MSHR_MERGE:          4
cpu0->cpu0_ITLB RFO          ACCESS:          0 HIT:          0 MISS:          0 MSHR_MERGE:          0
cpu0->cpu0_ITLB PREFETCH     ACCESS:          0 HIT:          0 MISS:          0 MSHR_MERGE:          0
cpu0->cpu0_ITLB WRITE        ACCESS:          0 HIT:          0 MISS:          0 MSHR_MERGE:          0
cpu0->cpu0_ITLB TRANSLATION  ACCESS:          0 HIT:          0 MISS:          0 MSHR_MERGE:          0
cpu0->cpu0_ITLB PREFETCH REQUESTED:          0 ISSUED:          0 USEFUL:          0 USELESS:          0 LATE:          0
cpu0->cpu0_ITLB AVERAGE MISS LATENCY: 5 cycles
cpu0->cpu0_DTLB TOTAL        ACCESS:   28919068 HIT:   28306839 MISS:     612229 MSHR_MERGE:     158937
cpu0->cpu0_DTLB LOAD         ACCESS:   28919068 HIT:   28306839 MISS:     612229 MSHR_MERGE:     158937
cpu0->cpu0_DTLB RFO          ACCESS:          0 HIT:          0 MISS:          0 MSHR_MERGE:          0
cpu0->cpu0_DTLB PREFETCH     ACCESS:          0 HIT:          0 MISS:          0 MSHR_MERGE:          0
cpu0->cpu0_DTLB WRITE        ACCESS:          0 HIT:          0 MISS:          0 MSHR_MERGE:          0
cpu0->cpu0_DTLB TRANSLATION  ACCESS:          0 HIT:          0 MISS:          0 MSHR_MERGE:          0
cpu0->cpu0_DTLB PREFETCH REQUESTED:          0 ISSUED:          0 USEFUL:          0 USELESS:          0 LATE:          0
cpu0->cpu0_DTLB AVERAGE MISS LATENCY: 122.7 cycles
cpu0->LLC TOTAL        ACCESS:    1652395 HIT:     452612 MISS:    1199783 MSHR_MERGE:       1263
cpu0->LLC LOAD         ACCESS:      90482 HIT:       7757 MISS:      82725 MSHR_MERGE:         51
cpu0->LLC RFO          ACCESS:         11 HIT:          0 MISS:         11 MSHR_MERGE:          0
cpu0->LLC PREFETCH     ACCESS:    1056693 HIT:      26576 MISS:    1030117 MSHR_MERGE:       1212
cpu0->LLC WRITE        ACCESS:     475153 HIT:     418069 MISS:      57084 MSHR_MERGE:          0
cpu0->LLC TRANSLATION  ACCESS:      30056 HIT:        210 MISS:      29846 MSHR_MERGE:          0
cpu0->LLC PREFETCH REQUESTED:          0 ISSUED:          0 USEFUL:          0 USELESS:          0 LATE:          0
cpu0->LLC AVERAGE MISS LATENCY: 294.4 cycles

DRAM Statistics

Channel 0 RQ ROW_BUFFER_HIT:      34659
  ROW_BUFFER_MISS:    1106775
  AVG DBUS CONGESTED CYCLE: 6.519
Channel 0 WQ ROW_BUFFER_HIT:      62496
  ROW_BUFFER_MISS:     413208
  FULL:          0
Channel 0 REFRESHES ISSUED:       4334

[ROI Statistics]
[System Configuration]
num_cpus 1
cpu_freq 4000
fetch_width 6
decode_width 6
dispatch_width 6
execute_width 6
lq_width 2
sq_width 2
retire_width 6
scheduler_size 128
branch_mispredict_penalty 15
rob_size 352
lq_size 128
sq_size 72
ifetch_buffer_size 64
decode_buffer_size 32
dispatch_buffer_size 32
register_file_size 288
decode_latency 1
dispatch_latency 1
schedule_latency 1
execute_latency 1
page_size 4096
block_size 64
core_0_itlb_set 16
core_0_itlb_way 4
core_0_itlb_rq_size 16
core_0_itlb_wq_size 16
core_0_itlb_pq_size 0
core_0_itlb_mshr_size 8
core_0_itlb_hit_latency 1
core_0_itlb_fill_latency 1
core_0_itlb_max_tag_check 2
core_0_itlb_max_fill 2
core_0_dtlb_set 16
core_0_dtlb_way 4
core_0_dtlb_rq_size 16
core_0_dtlb_wq_size 16
core_0_dtlb_pq_size 0
core_0_dtlb_mshr_size 8
core_0_dtlb_hit_latency 1
core_0_dtlb_fill_latency 1
core_0_dtlb_max_tag_check 2
core_0_dtlb_max_fill 2
core_0_stlb_set 128
core_0_stlb_way 12
core_0_stlb_rq_size 32
core_0_stlb_wq_size 32
core_0_stlb_pq_size 0
core_0_stlb_mshr_size 16
core_0_stlb_hit_latency 4
core_0_stlb_fill_latency 4
core_0_stlb_max_tag_check 1
core_0_stlb_max_fill 1
core_0_l1i_set 64
core_0_l1i_way 8
core_0_l1i_rq_size 64
core_0_l1i_wq_size 64
core_0_l1i_pq_size 32
core_0_l1i_mshr_size 8
core_0_l1i_hit_latency 2
core_0_l1i_fill_latency 2
core_0_l1i_max_tag_check 2
core_0_l1i_max_fill 2
core_0_l1d_set 64
core_0_l1d_way 12
core_0_l1d_rq_size 64
core_0_l1d_wq_size 64
core_0_l1d_pq_size 8
core_0_l1d_mshr_size 16
core_0_l1d_hit_latency 2
core_0_l1d_fill_latency 3
core_0_l1d_max_tag_check 2
core_0_l1d_max_fill 2
core_0_l2c_set 1024
core_0_l2c_way 8
core_0_l2c_rq_size 32
core_0_l2c_wq_size 32
core_0_l2c_pq_size 16
core_0_l2c_mshr_size 32
core_0_l2c_hit_latency 5
core_0_l2c_fill_latency 5
core_0_l2c_max_tag_check 1
core_0_l2c_max_fill 1
llc_set 2048
llc_way 16
llc_rq_size 32
llc_wq_size 32
llc_pq_size 32
llc_mshr_size 64
llc_hit_latency 10
llc_fill_latency 10
llc_max_tag_check 1
llc_max_fill 1
dram_channels 1
dram_ranks 1
dram_bankgroups 8
dram_banks 4
dram_rows 65536
dram_columns 1024
dram_channel_width 8
dram_rq_size 64
dram_wq_size 64
dram_size 17179869184
core_0_itlb_prefetcher no
core_0_dtlb_prefetcher no
core_0_stlb_prefetcher no
core_0_l1i_prefetcher next_line
core_0_l1d_prefetcher vberti
core_0_l2c_prefetcher ip_stride
llc_prefetcher no
llc_replacement drrip

Core_0_instructions 50000000
Core_0_cycles 52015160
Core_0_IPC 0.961258
Core_0_branch_prediction_accuracy 99.9006
Core_0_branch_MPKI 0.00656
Core_0_average_ROB_occupancy_at_mispredict 320.122

Core_0_ITLB_total_access 12392585
Core_0_ITLB_total_hit 12392579
Core_0_ITLB_total_miss 6
Core_0_ITLB_total_MPKI 0.00012
Core_0_ITLB_total_miss_rate 4.8416e-07
Core_0_ITLB_demand_access 12392585
Core_0_ITLB_demand_hit 12392579
Core_0_ITLB_demand_miss 6
Core_0_ITLB_demand_MPKI 0.00012
Core_0_ITLB_demand_miss_rate 4.8416e-07
Core_0_ITLB_load_access 12392585
Core_0_ITLB_load_hit 12392579
Core_0_ITLB_load_miss 6
Core_0_ITLB_load_MPKI 0.00012
Core_0_ITLB_load_miss_rate 4.8416e-07
Core_0_ITLB_rfo_access 0
Core_0_ITLB_rfo_hit 0
Core_0_ITLB_rfo_miss 0
Core_0_ITLB_rfo_MPKI 0
Core_0_ITLB_rfo_miss_rate 0
Core_0_ITLB_prefetch_access 0
Core_0_ITLB_prefetch_hit 0
Core_0_ITLB_prefetch_miss 0
Core_0_ITLB_prefetch_MPKI 0
Core_0_ITLB_prefetch_miss_rate 0
Core_0_ITLB_writeback_access 0
Core_0_ITLB_writeback_hit 0
Core_0_ITLB_writeback_miss 0
Core_0_ITLB_writeback_MPKI 0
Core_0_ITLB_writeback_miss_rate 0
Core_0_ITLB_prefetch_requested 0
Core_0_ITLB_prefetch_issued 0
Core_0_ITLB_prefetch_useful 0
Core_0_ITLB_prefetch_useless 0
Core_0_ITLB_prefetch_late 0
Core_0_ITLB_prefetch_accuracy 0
Core_0_ITLB_prefetch_coverage 0
Core_0_ITLB_total_eviction 0

Core_0_DTLB_total_access 28919068
Core_0_DTLB_total_hit 28306839
Core_0_DTLB_total_miss 612229
Core_0_DTLB_total_MPKI 12.2446
Core_0_DTLB_total_miss_rate 0.0211704
Core_0_DTLB_demand_access 28919068
Core_0_DTLB_demand_hit 28306839
Core_0_DTLB_demand_miss 612229
Core_0_DTLB_demand_MPKI 12.2446
Core_0_DTLB_demand_miss_rate 0.0211704
Core_0_DTLB_load_access 28919068
Core_0_DTLB_load_hit 28306839
Core_0_DTLB_load_miss 612229
Core_0_DTLB_load_MPKI 12.2446
Core_0_DTLB_load_miss_rate 0.0211704
Core_0_DTLB_rfo_access 0
Core_0_DTLB_rfo_hit 0
Core_0_DTLB_rfo_miss 0
Core_0_DTLB_rfo_MPKI 0
Core_0_DTLB_rfo_miss_rate 0
Core_0_DTLB_prefetch_access 0
Core_0_DTLB_prefetch_hit 0
Core_0_DTLB_prefetch_miss 0
Core_0_DTLB_prefetch_MPKI 0
Core_0_DTLB_prefetch_miss_rate 0
Core_0_DTLB_writeback_access 0
Core_0_DTLB_writeback_hit 0
Core_0_DTLB_writeback_miss 0
Core_0_DTLB_writeback_MPKI 0
Core_0_DTLB_writeback_miss_rate 0
Core_0_DTLB_prefetch_requested 0
Core_0_DTLB_prefetch_issued 0
Core_0_DTLB_prefetch_useful 0
Core_0_DTLB_prefetch_useless 0
Core_0_DTLB_prefetch_late 0
Core_0_DTLB_prefetch_accuracy 0
Core_0_DTLB_prefetch_coverage 0
Core_0_DTLB_total_eviction 453293

Core_0_STLB_total_access 453294
Core_0_STLB_total_hit 227308
Core_0_STLB_total_miss 225986
Core_0_STLB_total_MPKI 4.51972
Core_0_STLB_total_miss_rate 0.498542
Core_0_STLB_demand_access 453294
Core_0_STLB_demand_hit 227308
Core_0_STLB_demand_miss 225986
Core_0_STLB_demand_MPKI 4.51972
Core_0_STLB_demand_miss_rate 0.498542
Core_0_STLB_load_access 453294
Core_0_STLB_load_hit 227308
Core_0_STLB_load_miss 225986
Core_0_STLB_load_MPKI 4.51972
Core_0_STLB_load_miss_rate 0.498542
Core_0_STLB_rfo_access 0
Core_0_STLB_rfo_hit 0
Core_0_STLB_rfo_miss 0
Core_0_STLB_rfo_MPKI 0
Core_0_STLB_rfo_miss_rate 0
Core_0_STLB_prefetch_access 0
Core_0_STLB_prefetch_hit 0
Core_0_STLB_prefetch_miss 0
Core_0_STLB_prefetch_MPKI 0
Core_0_STLB_prefetch_miss_rate 0
Core_0_STLB_writeback_access 0
Core_0_STLB_writeback_hit 0
Core_0_STLB_writeback_miss 0
Core_0_STLB_writeback_MPKI 0
Core_0_STLB_writeback_miss_rate 0
Core_0_STLB_prefetch_requested 0
Core_0_STLB_prefetch_issued 0
Core_0_STLB_prefetch_useful 0
Core_0_STLB_prefetch_useless 0
Core_0_STLB_prefetch_late 0
Core_0_STLB_prefetch_accuracy 0
Core_0_STLB_prefetch_coverage 0
Core_0_STLB_total_eviction 232103

Core_0_L1I_total_access 14368855
Core_0_L1I_total_hit 14368681
Core_0_L1I_total_miss 174
Core_0_L1I_total_MPKI 0.00348
Core_0_L1I_total_miss_rate 1.21095e-05
Core_0_L1I_demand_access 14368855
Core_0_L1I_demand_hit 14368681
Core_0_L1I_demand_miss 174
Core_0_L1I_demand_MPKI 0.00348
Core_0_L1I_demand_miss_rate 1.21095e-05
Core_0_L1I_load_access 14368855
Core_0_L1I_load_hit 14368681
Core_0_L1I_load_miss 174
Core_0_L1I_load_MPKI 0.00348
Core_0_L1I_load_miss_rate 1.21095e-05
Core_0_L1I_rfo_access 0
Core_0_L1I_rfo_hit 0
Core_0_L1I_rfo_miss 0
Core_0_L1I_rfo_MPKI 0
Core_0_L1I_rfo_miss_rate 0
Core_0_L1I_prefetch_access 0
Core_0_L1I_prefetch_hit 0
Core_0_L1I_prefetch_miss 0
Core_0_L1I_prefetch_MPKI 0
Core_0_L1I_prefetch_miss_rate 0
Core_0_L1I_writeback_access 0
Core_0_L1I_writeback_hit 0
Core_0_L1I_writeback_miss 0
Core_0_L1I_writeback_MPKI 0
Core_0_L1I_writeback_miss_rate 0
Core_0_L1I_prefetch_requested 0
Core_0_L1I_prefetch_issued 0
Core_0_L1I_prefetch_useful 0
Core_0_L1I_prefetch_useless 0
Core_0_L1I_prefetch_late 0
Core_0_L1I_prefetch_accuracy 0
Core_0_L1I_prefetch_coverage 0
Core_0_L1I_total_eviction 0

Core_0_L1D_total_access 30646511
Core_0_L1D_total_hit 28438140
Core_0_L1D_total_miss 2208371
Core_0_L1D_total_MPKI 44.1674
Core_0_L1D_total_miss_rate 0.0720595
Core_0_L1D_demand_access 21236204
Core_0_L1D_demand_hit 20947402
Core_0_L1D_demand_miss 288802
Core_0_L1D_demand_MPKI 5.77604
Core_0_L1D_demand_miss_rate 0.0135995
Core_0_L1D_load_access 21236204
Core_0_L1D_load_hit 20947402
Core_0_L1D_load_miss 288802
Core_0_L1D_load_MPKI 5.77604
Core_0_L1D_load_miss_rate 0.0135995
Core_0_L1D_rfo_access 0
Core_0_L1D_rfo_hit 0
Core_0_L1D_rfo_miss 0
Core_0_L1D_rfo_MPKI 0
Core_0_L1D_rfo_miss_rate 0
Core_0_L1D_prefetch_access 6013715
Core_0_L1D_prefetch_hit 4097439
Core_0_L1D_prefetch_miss 1916276
Core_0_L1D_prefetch_MPKI 38.3255
Core_0_L1D_prefetch_miss_rate 0.318651
Core_0_L1D_writeback_access 3396592
Core_0_L1D_writeback_hit 3393299
Core_0_L1D_writeback_miss 3293
Core_0_L1D_writeback_MPKI 0.06586
Core_0_L1D_writeback_miss_rate 0.000969501
Core_0_L1D_prefetch_requested 33555023
Core_0_L1D_prefetch_issued 6013720
Core_0_L1D_prefetch_useful 817564
Core_0_L1D_prefetch_useless 174938
Core_0_L1D_prefetch_late 18324
Core_0_L1D_prefetch_accuracy 0.13595
Core_0_L1D_prefetch_coverage 0.738963
Core_0_L1D_total_eviction 1278129

Core_0_L2C_total_access 2733070
Core_0_L2C_total_hit 1476831
Core_0_L2C_total_miss 1256239
Core_0_L2C_total_MPKI 25.1248
Core_0_L2C_total_miss_rate 0.459644
Core_0_L2C_demand_access 253939
Core_0_L2C_demand_hit 153412
Core_0_L2C_demand_miss 100527
Core_0_L2C_demand_MPKI 2.01054
Core_0_L2C_demand_miss_rate 0.395871
Core_0_L2C_load_access 252439
Core_0_L2C_load_hit 151923
Core_0_L2C_load_miss 100516
Core_0_L2C_load_MPKI 2.01032
Core_0_L2C_load_miss_rate 0.398179
Core_0_L2C_rfo_access 1500
Core_0_L2C_rfo_hit 1489
Core_0_L2C_rfo_miss 11
Core_0_L2C_rfo_MPKI 0.00022
Core_0_L2C_rfo_miss_rate 0.00733333
Core_0_L2C_prefetch_access 2002109
Core_0_L2C_prefetch_hit 846407
Core_0_L2C_prefetch_miss 1155702
Core_0_L2C_prefetch_MPKI 23.114
Core_0_L2C_prefetch_miss_rate 0.577242
Core_0_L2C_writeback_access 477022
Core_0_L2C_writeback_hit 477012
Core_0_L2C_writeback_miss 10
Core_0_L2C_writeback_MPKI 0.0002
Core_0_L2C_writeback_miss_rate 2.09634e-05
Core_0_L2C_prefetch_requested 108562
Core_0_L2C_prefetch_issued 108034
Core_0_L2C_prefetch_useful 15558
Core_0_L2C_prefetch_useless 9783
Core_0_L2C_prefetch_late 121
Core_0_L2C_prefetch_accuracy 0.14401
Core_0_L2C_prefetch_coverage 0.134022
Core_0_L2C_total_eviction 1165103

Core_0_LLC_total_access 1622339
Core_0_LLC_total_hit 452402
Core_0_LLC_total_miss 1169937
Core_0_LLC_total_MPKI 23.3987
Core_0_LLC_total_miss_rate 0.721142
Core_0_LLC_demand_access 90493
Core_0_LLC_demand_hit 7757
Core_0_LLC_demand_miss 82736
Core_0_LLC_demand_MPKI 1.65472
Core_0_LLC_demand_miss_rate 0.914281
Core_0_LLC_load_access 90482
Core_0_LLC_load_hit 7757
Core_0_LLC_load_miss 82725
Core_0_LLC_load_MPKI 1.6545
Core_0_LLC_load_miss_rate 0.91427
Core_0_LLC_rfo_access 11
Core_0_LLC_rfo_hit 0
Core_0_LLC_rfo_miss 11
Core_0_LLC_rfo_MPKI 0.00022
Core_0_LLC_rfo_miss_rate 1
Core_0_LLC_prefetch_access 1056693
Core_0_LLC_prefetch_hit 26576
Core_0_LLC_prefetch_miss 1030117
Core_0_LLC_prefetch_MPKI 20.6023
Core_0_LLC_prefetch_miss_rate 0.97485
Core_0_LLC_writeback_access 475153
Core_0_LLC_writeback_hit 418069
Core_0_LLC_writeback_miss 57084
Core_0_LLC_writeback_MPKI 1.14168
Core_0_LLC_writeback_miss_rate 0.120138
Core_0_LLC_prefetch_requested 0
Core_0_LLC_prefetch_issued 0
Core_0_LLC_prefetch_useful 0
Core_0_LLC_prefetch_useless 0
Core_0_LLC_prefetch_late 0
Core_0_LLC_prefetch_accuracy 0
Core_0_LLC_prefetch_coverage 0
Core_0_LLC_total_eviction 1198517

[DRAM Statistics]
Channel_0_RQ_row_buffer_hit 34659
Channel_0_RQ_row_buffer_miss 1106775
Channel_0_WQ_row_buffer_hit 62496
Channel_0_WQ_row_buffer_miss 413208
Channel_0_WQ_full 0
Channel_0_dbus_congested 4561552
DRAM_total_RQ_row_buffer_hit 34659
DRAM_total_RQ_row_buffer_miss 1106775
DRAM_total_WQ_row_buffer_hit 62496
DRAM_total_WQ_row_buffer_miss 413208
DRAM_total_WQ_full 0
DRAM_total_dbus_congested 4561552
DRAM_avg_congested_cycle 6.51865

======STLB miss causes ========
Core_0_STLB_miss_cause_breakdown
Core_0_STLB_cause_Demand_Data_miss 0
Core_0_STLB_cause_Demand_Data_miss_rate 0
Core_0_STLB_cause_Demand_Instruction_miss 0
Core_0_STLB_cause_Demand_Instruction_miss_rate 0
Core_0_STLB_cause_L1D_Prefetch_miss 225986
Core_0_STLB_cause_L1D_Prefetch_miss_rate 0.498542
Core_0_STLB_cause_L1I_Prefetch_miss 0
Core_0_STLB_cause_L1I_Prefetch_miss_rate 0
Core_0_STLB_cause_Other_miss 0
Core_0_STLB_cause_Other_miss_rate 0
Core_0_STLB_Demand_miss 0
Core_0_STLB_Demand_miss_rate 0
Core_0_STLB_L1D_Prefetch_miss 225986
Core_0_STLB_L1D_Prefetch_miss_rate 0.498542
Core_0_STLB_Other_miss 0
Core_0_STLB_Other_miss_rate 0
BERTI TO_L1: 17124742 TO_L2: 23296895 TO_L2_BC_MSHR: 5996694
BERTI AVG_LAT: 284.708 NUM_TRACK_LATENCY: 1434838 NUM_CANT_TRACK_LATENCY: 6
BERTI CROSS_PAGE 23548576 NO_CROSS_PAGE: 16873061
BERTI FOUND_BERTI: 7841695 NO_FOUND_BERTI: 23717526
BERTI AVERAGE_ISSUED: 2.39554
