[VMEM] WARNING: physical memory size is smaller than virtual memory size.

*** ChampSim Multicore Out-of-Order Simulator ***
Warmup Instructions: 20000000
Simulation Instructions: 50000000
Number of CPUs: 1
Page size: 4096
STLB ideal mode: demand
STLB ideal fill: on
Core 0: /data0/tzh/champsim_traces/SPEC06/459.GemsFDTD-1169B.champsimtrace.xz
VBerti Prefetcher
BERTI HASH ENTANGLING
BERTI IP MASK ffff
Off-chip DRAM Size: 16 GiB Channels: 1 Width: 64-bit Data Rate: 3205 MT/s
Warmup halting CPU 0 at instruction 20000000 cycle 4645563 for remainder of phase
Warmup finished CPU 0 instructions: 20000000 cycles: 4645563 cumulative IPC: 4.305 (Simulation time: 00 hr 01 min 00 sec)
Warmup complete CPU 0 instructions: 20000000 cycles: 4645563 cumulative IPC: 4.305 (Simulation time: 00 hr 01 min 00 sec)
Simulation finished CPU 0 instructions: 50000001 cycles: 46562828 cumulative IPC: 1.074 (Simulation time: 00 hr 07 min 28 sec)
Simulation complete CPU 0 instructions: 50000001 cycles: 46562828 cumulative IPC: 1.074 (Simulation time: 00 hr 07 min 28 sec)

ChampSim completed all CPUs

=== Simulation ===
CPU 0 runs /data0/tzh/champsim_traces/SPEC06/459.GemsFDTD-1169B.champsimtrace.xz

Region of Interest Statistics

CPU 0 cumulative IPC: 1.074 instructions: 50000001 cycles: 46562828
CPU 0 Branch Prediction Accuracy: 99.92% MPKI: 0.0022 Average ROB Occupancy at Mispredict: 316.9
Branch type MPKI
BRANCH_DIRECT_JUMP: 2e-05
BRANCH_INDIRECT: 0
BRANCH_CONDITIONAL: 0.00218
BRANCH_DIRECT_CALL: 0
BRANCH_INDIRECT_CALL: 0
BRANCH_RETURN: 0

cpu0->cpu0_STLB TOTAL        ACCESS:    1077251 HIT:    1015432 MISS:      61819 MSHR_MERGE:          0
cpu0->cpu0_STLB LOAD         ACCESS:    1077251 HIT:    1015432 MISS:      61819 MSHR_MERGE:          0
cpu0->cpu0_STLB RFO          ACCESS:          0 HIT:          0 MISS:          0 MSHR_MERGE:          0
cpu0->cpu0_STLB PREFETCH     ACCESS:          0 HIT:          0 MISS:          0 MSHR_MERGE:          0
cpu0->cpu0_STLB WRITE        ACCESS:          0 HIT:          0 MISS:          0 MSHR_MERGE:          0
cpu0->cpu0_STLB TRANSLATION  ACCESS:          0 HIT:          0 MISS:          0 MSHR_MERGE:          0
cpu0->cpu0_STLB PREFETCH REQUESTED:          0 ISSUED:          0 USEFUL:          0 USELESS:          0 LATE:          0
cpu0->cpu0_STLB AVERAGE MISS LATENCY: 21.56 cycles
cpu0->cpu0_L2C TOTAL        ACCESS:    4205393 HIT:    3768338 MISS:     437055 MSHR_MERGE:       3561
cpu0->cpu0_L2C LOAD         ACCESS:     666620 HIT:     424589 MISS:     242031 MSHR_MERGE:        146
cpu0->cpu0_L2C RFO          ACCESS:          3 HIT:          0 MISS:          3 MSHR_MERGE:          0
cpu0->cpu0_L2C PREFETCH     ACCESS:    3105646 HIT:    2912352 MISS:     193294 MSHR_MERGE:       3415
cpu0->cpu0_L2C WRITE        ACCESS:     416131 HIT:     416130 MISS:          1 MSHR_MERGE:          0
cpu0->cpu0_L2C TRANSLATION  ACCESS:      16993 HIT:      15267 MISS:       1726 MSHR_MERGE:          0
cpu0->cpu0_L2C PREFETCH REQUESTED:     237314 ISSUED:     237314 USEFUL:       5269 USELESS:        956 LATE:          0
cpu0->cpu0_L2C AVERAGE MISS LATENCY: 209 cycles
cpu0->cpu0_L1I TOTAL        ACCESS:   10343891 HIT:   10343631 MISS:        260 MSHR_MERGE:        119
cpu0->cpu0_L1I LOAD         ACCESS:   10343891 HIT:   10343631 MISS:        260 MSHR_MERGE:        119
cpu0->cpu0_L1I RFO          ACCESS:          0 HIT:          0 MISS:          0 MSHR_MERGE:          0
cpu0->cpu0_L1I PREFETCH     ACCESS:          0 HIT:          0 MISS:          0 MSHR_MERGE:          0
cpu0->cpu0_L1I WRITE        ACCESS:          0 HIT:          0 MISS:          0 MSHR_MERGE:          0
cpu0->cpu0_L1I TRANSLATION  ACCESS:          0 HIT:          0 MISS:          0 MSHR_MERGE:          0
cpu0->cpu0_L1I PREFETCH REQUESTED:          0 ISSUED:          0 USEFUL:          0 USELESS:          0 LATE:          0
cpu0->cpu0_L1I AVERAGE MISS LATENCY: 241.5 cycles
cpu0->cpu0_L1D TOTAL        ACCESS:   26772961 HIT:   23098750 MISS:    3674211 MSHR_MERGE:     121297
cpu0->cpu0_L1D LOAD         ACCESS:   19455108 HIT:   18668284 MISS:     786824 MSHR_MERGE:     120345
cpu0->cpu0_L1D RFO          ACCESS:          0 HIT:          0 MISS:          0 MSHR_MERGE:          0
cpu0->cpu0_L1D PREFETCH     ACCESS:    5551311 HIT:    2681197 MISS:    2870114 MSHR_MERGE:        675
cpu0->cpu0_L1D WRITE        ACCESS:    1644017 HIT:    1644013 MISS:          4 MSHR_MERGE:          1
cpu0->cpu0_L1D TRANSLATION  ACCESS:     122525 HIT:     105256 MISS:      17269 MSHR_MERGE:        276
cpu0->cpu0_L1D PREFETCH REQUESTED:    9717334 ISSUED:    5551309 USEFUL:    1323497 USELESS:     377005 LATE:        455
cpu0->cpu0_L1D AVERAGE MISS LATENCY: 82.83 cycles
cpu0->cpu0_ITLB TOTAL        ACCESS:    8563207 HIT:    8563201 MISS:          6 MSHR_MERGE:          4
cpu0->cpu0_ITLB LOAD         ACCESS:    8563207 HIT:    8563201 MISS:          6 MSHR_MERGE:          4
cpu0->cpu0_ITLB RFO          ACCESS:          0 HIT:          0 MISS:          0 MSHR_MERGE:          0
cpu0->cpu0_ITLB PREFETCH     ACCESS:          0 HIT:          0 MISS:          0 MSHR_MERGE:          0
cpu0->cpu0_ITLB WRITE        ACCESS:          0 HIT:          0 MISS:          0 MSHR_MERGE:          0
cpu0->cpu0_ITLB TRANSLATION  ACCESS:          0 HIT:          0 MISS:          0 MSHR_MERGE:          0
cpu0->cpu0_ITLB PREFETCH REQUESTED:          0 ISSUED:          0 USEFUL:          0 USELESS:          0 LATE:          0
cpu0->cpu0_ITLB AVERAGE MISS LATENCY: 5 cycles
cpu0->cpu0_DTLB TOTAL        ACCESS:   25109806 HIT:   23857354 MISS:    1252452 MSHR_MERGE:     175203
cpu0->cpu0_DTLB LOAD         ACCESS:   25109806 HIT:   23857354 MISS:    1252452 MSHR_MERGE:     175203
cpu0->cpu0_DTLB RFO          ACCESS:          0 HIT:          0 MISS:          0 MSHR_MERGE:          0
cpu0->cpu0_DTLB PREFETCH     ACCESS:          0 HIT:          0 MISS:          0 MSHR_MERGE:          0
cpu0->cpu0_DTLB WRITE        ACCESS:          0 HIT:          0 MISS:          0 MSHR_MERGE:          0
cpu0->cpu0_DTLB TRANSLATION  ACCESS:          0 HIT:          0 MISS:          0 MSHR_MERGE:          0
cpu0->cpu0_DTLB PREFETCH REQUESTED:          0 ISSUED:          0 USEFUL:          0 USELESS:          0 LATE:          0
cpu0->cpu0_DTLB AVERAGE MISS LATENCY: 6.3 cycles
cpu0->LLC TOTAL        ACCESS:     449803 HIT:      92305 MISS:     357498 MSHR_MERGE:          0
cpu0->LLC LOAD         ACCESS:     241885 HIT:       9752 MISS:     232133 MSHR_MERGE:          0
cpu0->LLC RFO          ACCESS:          3 HIT:          0 MISS:          3 MSHR_MERGE:          0
cpu0->LLC PREFETCH     ACCESS:     189878 HIT:      66093 MISS:     123785 MSHR_MERGE:          0
cpu0->LLC WRITE        ACCESS:      16311 HIT:      15163 MISS:       1148 MSHR_MERGE:          0
cpu0->LLC TRANSLATION  ACCESS:       1726 HIT:       1297 MISS:        429 MSHR_MERGE:          0
cpu0->LLC PREFETCH REQUESTED:          0 ISSUED:          0 USEFUL:          0 USELESS:          0 LATE:          0
cpu0->LLC AVERAGE MISS LATENCY: 201.4 cycles

DRAM Statistics

Channel 0 RQ ROW_BUFFER_HIT:         49
  ROW_BUFFER_MISS:     356299
  AVG DBUS CONGESTED CYCLE: 5.455
Channel 0 WQ ROW_BUFFER_HIT:        744
  ROW_BUFFER_MISS:       1740
  FULL:          0
Channel 0 REFRESHES ISSUED:       3880

[ROI Statistics]
[System Configuration]
num_cpus 1
cpu_freq 4000
fetch_width 6
decode_width 6
dispatch_width 6
execute_width 6
lq_width 2
sq_width 2
retire_width 6
scheduler_size 128
branch_mispredict_penalty 15
rob_size 352
lq_size 128
sq_size 72
ifetch_buffer_size 64
decode_buffer_size 32
dispatch_buffer_size 32
register_file_size 288
decode_latency 1
dispatch_latency 1
schedule_latency 1
execute_latency 1
page_size 4096
block_size 64
core_0_itlb_set 16
core_0_itlb_way 4
core_0_itlb_rq_size 16
core_0_itlb_wq_size 16
core_0_itlb_pq_size 0
core_0_itlb_mshr_size 8
core_0_itlb_hit_latency 1
core_0_itlb_fill_latency 1
core_0_itlb_max_tag_check 2
core_0_itlb_max_fill 2
core_0_dtlb_set 16
core_0_dtlb_way 4
core_0_dtlb_rq_size 16
core_0_dtlb_wq_size 16
core_0_dtlb_pq_size 0
core_0_dtlb_mshr_size 8
core_0_dtlb_hit_latency 1
core_0_dtlb_fill_latency 1
core_0_dtlb_max_tag_check 2
core_0_dtlb_max_fill 2
core_0_stlb_set 128
core_0_stlb_way 12
core_0_stlb_rq_size 32
core_0_stlb_wq_size 32
core_0_stlb_pq_size 0
core_0_stlb_mshr_size 16
core_0_stlb_hit_latency 4
core_0_stlb_fill_latency 4
core_0_stlb_max_tag_check 1
core_0_stlb_max_fill 1
core_0_l1i_set 64
core_0_l1i_way 8
core_0_l1i_rq_size 64
core_0_l1i_wq_size 64
core_0_l1i_pq_size 32
core_0_l1i_mshr_size 8
core_0_l1i_hit_latency 2
core_0_l1i_fill_latency 2
core_0_l1i_max_tag_check 2
core_0_l1i_max_fill 2
core_0_l1d_set 64
core_0_l1d_way 12
core_0_l1d_rq_size 64
core_0_l1d_wq_size 64
core_0_l1d_pq_size 8
core_0_l1d_mshr_size 16
core_0_l1d_hit_latency 2
core_0_l1d_fill_latency 3
core_0_l1d_max_tag_check 2
core_0_l1d_max_fill 2
core_0_l2c_set 1024
core_0_l2c_way 8
core_0_l2c_rq_size 32
core_0_l2c_wq_size 32
core_0_l2c_pq_size 16
core_0_l2c_mshr_size 32
core_0_l2c_hit_latency 5
core_0_l2c_fill_latency 5
core_0_l2c_max_tag_check 1
core_0_l2c_max_fill 1
llc_set 2048
llc_way 16
llc_rq_size 32
llc_wq_size 32
llc_pq_size 32
llc_mshr_size 64
llc_hit_latency 10
llc_fill_latency 10
llc_max_tag_check 1
llc_max_fill 1
dram_channels 1
dram_ranks 1
dram_bankgroups 8
dram_banks 4
dram_rows 65536
dram_columns 1024
dram_channel_width 8
dram_rq_size 64
dram_wq_size 64
dram_size 17179869184
core_0_itlb_prefetcher no
core_0_dtlb_prefetcher no
core_0_stlb_prefetcher no
core_0_l1i_prefetcher next_line
core_0_l1d_prefetcher vberti
core_0_l2c_prefetcher ip_stride
llc_prefetcher no
llc_replacement drrip

Core_0_instructions 50000001
Core_0_cycles 46562828
Core_0_IPC 1.07382
Core_0_branch_prediction_accuracy 99.9172
Core_0_branch_MPKI 0.0022
Core_0_average_ROB_occupancy_at_mispredict 316.864

Core_0_ITLB_total_access 8563207
Core_0_ITLB_total_hit 8563201
Core_0_ITLB_total_miss 6
Core_0_ITLB_total_MPKI 0.00012
Core_0_ITLB_total_miss_rate 7.00672e-07
Core_0_ITLB_demand_access 8563207
Core_0_ITLB_demand_hit 8563201
Core_0_ITLB_demand_miss 6
Core_0_ITLB_demand_MPKI 0.00012
Core_0_ITLB_demand_miss_rate 7.00672e-07
Core_0_ITLB_load_access 8563207
Core_0_ITLB_load_hit 8563201
Core_0_ITLB_load_miss 6
Core_0_ITLB_load_MPKI 0.00012
Core_0_ITLB_load_miss_rate 7.00672e-07
Core_0_ITLB_rfo_access 0
Core_0_ITLB_rfo_hit 0
Core_0_ITLB_rfo_miss 0
Core_0_ITLB_rfo_MPKI 0
Core_0_ITLB_rfo_miss_rate 0
Core_0_ITLB_prefetch_access 0
Core_0_ITLB_prefetch_hit 0
Core_0_ITLB_prefetch_miss 0
Core_0_ITLB_prefetch_MPKI 0
Core_0_ITLB_prefetch_miss_rate 0
Core_0_ITLB_writeback_access 0
Core_0_ITLB_writeback_hit 0
Core_0_ITLB_writeback_miss 0
Core_0_ITLB_writeback_MPKI 0
Core_0_ITLB_writeback_miss_rate 0
Core_0_ITLB_prefetch_requested 0
Core_0_ITLB_prefetch_issued 0
Core_0_ITLB_prefetch_useful 0
Core_0_ITLB_prefetch_useless 0
Core_0_ITLB_prefetch_late 0
Core_0_ITLB_prefetch_accuracy 0
Core_0_ITLB_prefetch_coverage 0
Core_0_ITLB_total_eviction 0

Core_0_DTLB_total_access 25109806
Core_0_DTLB_total_hit 23857354
Core_0_DTLB_total_miss 1252452
Core_0_DTLB_total_MPKI 25.049
Core_0_DTLB_total_miss_rate 0.049879
Core_0_DTLB_demand_access 25109806
Core_0_DTLB_demand_hit 23857354
Core_0_DTLB_demand_miss 1252452
Core_0_DTLB_demand_MPKI 25.049
Core_0_DTLB_demand_miss_rate 0.049879
Core_0_DTLB_load_access 25109806
Core_0_DTLB_load_hit 23857354
Core_0_DTLB_load_miss 1252452
Core_0_DTLB_load_MPKI 25.049
Core_0_DTLB_load_miss_rate 0.049879
Core_0_DTLB_rfo_access 0
Core_0_DTLB_rfo_hit 0
Core_0_DTLB_rfo_miss 0
Core_0_DTLB_rfo_MPKI 0
Core_0_DTLB_rfo_miss_rate 0
Core_0_DTLB_prefetch_access 0
Core_0_DTLB_prefetch_hit 0
Core_0_DTLB_prefetch_miss 0
Core_0_DTLB_prefetch_MPKI 0
Core_0_DTLB_prefetch_miss_rate 0
Core_0_DTLB_writeback_access 0
Core_0_DTLB_writeback_hit 0
Core_0_DTLB_writeback_miss 0
Core_0_DTLB_writeback_MPKI 0
Core_0_DTLB_writeback_miss_rate 0
Core_0_DTLB_prefetch_requested 0
Core_0_DTLB_prefetch_issued 0
Core_0_DTLB_prefetch_useful 0
Core_0_DTLB_prefetch_useless 0
Core_0_DTLB_prefetch_late 0
Core_0_DTLB_prefetch_accuracy 0
Core_0_DTLB_prefetch_coverage 0
Core_0_DTLB_total_eviction 1077249

Core_0_STLB_total_access 1077251
Core_0_STLB_total_hit 1015432
Core_0_STLB_total_miss 61819
Core_0_STLB_total_MPKI 1.23638
Core_0_STLB_total_miss_rate 0.0573859
Core_0_STLB_demand_access 1077251
Core_0_STLB_demand_hit 1015432
Core_0_STLB_demand_miss 61819
Core_0_STLB_demand_MPKI 1.23638
Core_0_STLB_demand_miss_rate 0.0573859
Core_0_STLB_load_access 1077251
Core_0_STLB_load_hit 1015432
Core_0_STLB_load_miss 61819
Core_0_STLB_load_MPKI 1.23638
Core_0_STLB_load_miss_rate 0.0573859
Core_0_STLB_rfo_access 0
Core_0_STLB_rfo_hit 0
Core_0_STLB_rfo_miss 0
Core_0_STLB_rfo_MPKI 0
Core_0_STLB_rfo_miss_rate 0
Core_0_STLB_prefetch_access 0
Core_0_STLB_prefetch_hit 0
Core_0_STLB_prefetch_miss 0
Core_0_STLB_prefetch_MPKI 0
Core_0_STLB_prefetch_miss_rate 0
Core_0_STLB_writeback_access 0
Core_0_STLB_writeback_hit 0
Core_0_STLB_writeback_miss 0
Core_0_STLB_writeback_MPKI 0
Core_0_STLB_writeback_miss_rate 0
Core_0_STLB_prefetch_requested 0
Core_0_STLB_prefetch_issued 0
Core_0_STLB_prefetch_useful 0
Core_0_STLB_prefetch_useless 0
Core_0_STLB_prefetch_late 0
Core_0_STLB_prefetch_accuracy 0
Core_0_STLB_prefetch_coverage 0
Core_0_STLB_total_eviction 164340

Core_0_L1I_total_access 10343891
Core_0_L1I_total_hit 10343631
Core_0_L1I_total_miss 260
Core_0_L1I_total_MPKI 0.0052
Core_0_L1I_total_miss_rate 2.51356e-05
Core_0_L1I_demand_access 10343891
Core_0_L1I_demand_hit 10343631
Core_0_L1I_demand_miss 260
Core_0_L1I_demand_MPKI 0.0052
Core_0_L1I_demand_miss_rate 2.51356e-05
Core_0_L1I_load_access 10343891
Core_0_L1I_load_hit 10343631
Core_0_L1I_load_miss 260
Core_0_L1I_load_MPKI 0.0052
Core_0_L1I_load_miss_rate 2.51356e-05
Core_0_L1I_rfo_access 0
Core_0_L1I_rfo_hit 0
Core_0_L1I_rfo_miss 0
Core_0_L1I_rfo_MPKI 0
Core_0_L1I_rfo_miss_rate 0
Core_0_L1I_prefetch_access 0
Core_0_L1I_prefetch_hit 0
Core_0_L1I_prefetch_miss 0
Core_0_L1I_prefetch_MPKI 0
Core_0_L1I_prefetch_miss_rate 0
Core_0_L1I_writeback_access 0
Core_0_L1I_writeback_hit 0
Core_0_L1I_writeback_miss 0
Core_0_L1I_writeback_MPKI 0
Core_0_L1I_writeback_miss_rate 0
Core_0_L1I_prefetch_requested 0
Core_0_L1I_prefetch_issued 0
Core_0_L1I_prefetch_useful 0
Core_0_L1I_prefetch_useless 0
Core_0_L1I_prefetch_late 0
Core_0_L1I_prefetch_accuracy 0
Core_0_L1I_prefetch_coverage 0
Core_0_L1I_total_eviction 0

Core_0_L1D_total_access 26650436
Core_0_L1D_total_hit 22993494
Core_0_L1D_total_miss 3656942
Core_0_L1D_total_MPKI 73.1388
Core_0_L1D_total_miss_rate 0.137219
Core_0_L1D_demand_access 19455108
Core_0_L1D_demand_hit 18668284
Core_0_L1D_demand_miss 786824
Core_0_L1D_demand_MPKI 15.7365
Core_0_L1D_demand_miss_rate 0.0404431
Core_0_L1D_load_access 19455108
Core_0_L1D_load_hit 18668284
Core_0_L1D_load_miss 786824
Core_0_L1D_load_MPKI 15.7365
Core_0_L1D_load_miss_rate 0.0404431
Core_0_L1D_rfo_access 0
Core_0_L1D_rfo_hit 0
Core_0_L1D_rfo_miss 0
Core_0_L1D_rfo_MPKI 0
Core_0_L1D_rfo_miss_rate 0
Core_0_L1D_prefetch_access 5551311
Core_0_L1D_prefetch_hit 2681197
Core_0_L1D_prefetch_miss 2870114
Core_0_L1D_prefetch_MPKI 57.4023
Core_0_L1D_prefetch_miss_rate 0.517016
Core_0_L1D_writeback_access 1644017
Core_0_L1D_writeback_hit 1644013
Core_0_L1D_writeback_miss 4
Core_0_L1D_writeback_MPKI 8e-05
Core_0_L1D_writeback_miss_rate 2.43306e-06
Core_0_L1D_prefetch_requested 9717334
Core_0_L1D_prefetch_issued 5551309
Core_0_L1D_prefetch_useful 1323497
Core_0_L1D_prefetch_useless 377005
Core_0_L1D_prefetch_late 455
Core_0_L1D_prefetch_accuracy 0.238412
Core_0_L1D_prefetch_coverage 0.627154
Core_0_L1D_total_eviction 2384175

Core_0_L2C_total_access 4188400
Core_0_L2C_total_hit 3753071
Core_0_L2C_total_miss 435329
Core_0_L2C_total_MPKI 8.70658
Core_0_L2C_total_miss_rate 0.103937
Core_0_L2C_demand_access 666623
Core_0_L2C_demand_hit 424589
Core_0_L2C_demand_miss 242034
Core_0_L2C_demand_MPKI 4.84068
Core_0_L2C_demand_miss_rate 0.363075
Core_0_L2C_load_access 666620
Core_0_L2C_load_hit 424589
Core_0_L2C_load_miss 242031
Core_0_L2C_load_MPKI 4.84062
Core_0_L2C_load_miss_rate 0.363072
Core_0_L2C_rfo_access 3
Core_0_L2C_rfo_hit 0
Core_0_L2C_rfo_miss 3
Core_0_L2C_rfo_MPKI 6e-05
Core_0_L2C_rfo_miss_rate 1
Core_0_L2C_prefetch_access 3105646
Core_0_L2C_prefetch_hit 2912352
Core_0_L2C_prefetch_miss 193294
Core_0_L2C_prefetch_MPKI 3.86588
Core_0_L2C_prefetch_miss_rate 0.0622395
Core_0_L2C_writeback_access 416131
Core_0_L2C_writeback_hit 416130
Core_0_L2C_writeback_miss 1
Core_0_L2C_writeback_MPKI 2e-05
Core_0_L2C_writeback_miss_rate 2.40309e-06
Core_0_L2C_prefetch_requested 237314
Core_0_L2C_prefetch_issued 237314
Core_0_L2C_prefetch_useful 5269
Core_0_L2C_prefetch_useless 956
Core_0_L2C_prefetch_late 0
Core_0_L2C_prefetch_accuracy 0.0222027
Core_0_L2C_prefetch_coverage 0.0213058
Core_0_L2C_total_eviction 433488

Core_0_LLC_total_access 448077
Core_0_LLC_total_hit 91008
Core_0_LLC_total_miss 357069
Core_0_LLC_total_MPKI 7.14138
Core_0_LLC_total_miss_rate 0.796892
Core_0_LLC_demand_access 241888
Core_0_LLC_demand_hit 9752
Core_0_LLC_demand_miss 232136
Core_0_LLC_demand_MPKI 4.64272
Core_0_LLC_demand_miss_rate 0.959684
Core_0_LLC_load_access 241885
Core_0_LLC_load_hit 9752
Core_0_LLC_load_miss 232133
Core_0_LLC_load_MPKI 4.64266
Core_0_LLC_load_miss_rate 0.959683
Core_0_LLC_rfo_access 3
Core_0_LLC_rfo_hit 0
Core_0_LLC_rfo_miss 3
Core_0_LLC_rfo_MPKI 6e-05
Core_0_LLC_rfo_miss_rate 1
Core_0_LLC_prefetch_access 189878
Core_0_LLC_prefetch_hit 66093
Core_0_LLC_prefetch_miss 123785
Core_0_LLC_prefetch_MPKI 2.4757
Core_0_LLC_prefetch_miss_rate 0.651919
Core_0_LLC_writeback_access 16311
Core_0_LLC_writeback_hit 15163
Core_0_LLC_writeback_miss 1148
Core_0_LLC_writeback_MPKI 0.02296
Core_0_LLC_writeback_miss_rate 0.070382
Core_0_LLC_prefetch_requested 0
Core_0_LLC_prefetch_issued 0
Core_0_LLC_prefetch_useful 0
Core_0_LLC_prefetch_useless 0
Core_0_LLC_prefetch_late 0
Core_0_LLC_prefetch_accuracy 0
Core_0_LLC_prefetch_coverage 0
Core_0_LLC_total_eviction 357498

[DRAM Statistics]
Channel_0_RQ_row_buffer_hit 49
Channel_0_RQ_row_buffer_miss 356299
Channel_0_WQ_row_buffer_hit 744
Channel_0_WQ_row_buffer_miss 1740
Channel_0_WQ_full 0
Channel_0_dbus_congested 136107
DRAM_total_RQ_row_buffer_hit 49
DRAM_total_RQ_row_buffer_miss 356299
DRAM_total_WQ_row_buffer_hit 744
DRAM_total_WQ_row_buffer_miss 1740
DRAM_total_WQ_full 0
DRAM_total_dbus_congested 136107
DRAM_avg_congested_cycle 5.45516

======STLB miss causes ========
Core_0_STLB_miss_cause_breakdown
Core_0_STLB_cause_Demand_Data_miss 0
Core_0_STLB_cause_Demand_Data_miss_rate 0
Core_0_STLB_cause_Demand_Instruction_miss 0
Core_0_STLB_cause_Demand_Instruction_miss_rate 0
Core_0_STLB_cause_L1D_Prefetch_miss 61819
Core_0_STLB_cause_L1D_Prefetch_miss_rate 0.0573859
Core_0_STLB_cause_L1I_Prefetch_miss 0
Core_0_STLB_cause_L1I_Prefetch_miss_rate 0
Core_0_STLB_cause_Other_miss 0
Core_0_STLB_cause_Other_miss_rate 0
Core_0_STLB_Demand_miss 0
Core_0_STLB_Demand_miss_rate 0
Core_0_STLB_L1D_Prefetch_miss 61819
Core_0_STLB_L1D_Prefetch_miss_rate 0.0573859
Core_0_STLB_Other_miss 0
Core_0_STLB_Other_miss_rate 0
BERTI TO_L1: 12573581 TO_L2: 5047031 TO_L2_BC_MSHR: 447
BERTI AVG_LAT: 49.896 NUM_TRACK_LATENCY: 2744410 NUM_CANT_TRACK_LATENCY: 0
BERTI CROSS_PAGE 7237251 NO_CROSS_PAGE: 10383361
BERTI FOUND_BERTI: 2658884 NO_FOUND_BERTI: 22736139
BERTI AVERAGE_ISSUED: 3.4802
