[VMEM] WARNING: physical memory size is smaller than virtual memory size.

*** ChampSim Multicore Out-of-Order Simulator ***
Warmup Instructions: 20000000
Simulation Instructions: 50000000
Number of CPUs: 1
Page size: 4096
STLB ideal mode: demand
STLB ideal fill: on
Core 0: /data0/tzh/champsim_traces/SPEC06/471.omnetpp-188B.champsimtrace.xz
VBerti Prefetcher
BERTI HASH ENTANGLING
BERTI IP MASK ffff
Off-chip DRAM Size: 16 GiB Channels: 1 Width: 64-bit Data Rate: 3205 MT/s
Warmup halting CPU 0 at instruction 20000003 cycle 5053902 for remainder of phase
Warmup finished CPU 0 instructions: 20000003 cycles: 5053902 cumulative IPC: 3.957 (Simulation time: 00 hr 01 min 14 sec)
Warmup complete CPU 0 instructions: 20000003 cycles: 5053902 cumulative IPC: 3.957 (Simulation time: 00 hr 01 min 14 sec)
Simulation finished CPU 0 instructions: 50000005 cycles: 107066566 cumulative IPC: 0.467 (Simulation time: 00 hr 11 min 57 sec)
Simulation complete CPU 0 instructions: 50000005 cycles: 107066566 cumulative IPC: 0.467 (Simulation time: 00 hr 11 min 57 sec)

ChampSim completed all CPUs

=== Simulation ===
CPU 0 runs /data0/tzh/champsim_traces/SPEC06/471.omnetpp-188B.champsimtrace.xz

Region of Interest Statistics

CPU 0 cumulative IPC: 0.467 instructions: 50000005 cycles: 107066566
CPU 0 Branch Prediction Accuracy: 97.85% MPKI: 5.178 Average ROB Occupancy at Mispredict: 109.3
Branch type MPKI
BRANCH_DIRECT_JUMP: 0.00076
BRANCH_INDIRECT: 0.1129
BRANCH_CONDITIONAL: 4.446
BRANCH_DIRECT_CALL: 0.00018
BRANCH_INDIRECT_CALL: 0.1187
BRANCH_RETURN: 0.4993

cpu0->cpu0_STLB TOTAL        ACCESS:    1151907 HIT:    1078196 MISS:      73711 MSHR_MERGE:          0
cpu0->cpu0_STLB LOAD         ACCESS:    1151907 HIT:    1078196 MISS:      73711 MSHR_MERGE:          0
cpu0->cpu0_STLB RFO          ACCESS:          0 HIT:          0 MISS:          0 MSHR_MERGE:          0
cpu0->cpu0_STLB PREFETCH     ACCESS:          0 HIT:          0 MISS:          0 MSHR_MERGE:          0
cpu0->cpu0_STLB WRITE        ACCESS:          0 HIT:          0 MISS:          0 MSHR_MERGE:          0
cpu0->cpu0_STLB TRANSLATION  ACCESS:          0 HIT:          0 MISS:          0 MSHR_MERGE:          0
cpu0->cpu0_STLB PREFETCH REQUESTED:          0 ISSUED:          0 USEFUL:          0 USELESS:          0 LATE:          0
cpu0->cpu0_STLB AVERAGE MISS LATENCY: 104.3 cycles
cpu0->cpu0_L2C TOTAL        ACCESS:    2284154 HIT:     925831 MISS:    1358323 MSHR_MERGE:      89459
cpu0->cpu0_L2C LOAD         ACCESS:     959787 HIT:     226114 MISS:     733673 MSHR_MERGE:       2325
cpu0->cpu0_L2C RFO          ACCESS:     137667 HIT:      28627 MISS:     109040 MSHR_MERGE:         71
cpu0->cpu0_L2C PREFETCH     ACCESS:     659766 HIT:     173021 MISS:     486745 MSHR_MERGE:      87063
cpu0->cpu0_L2C WRITE        ACCESS:     495932 HIT:     494692 MISS:       1240 MSHR_MERGE:          0
cpu0->cpu0_L2C TRANSLATION  ACCESS:      31002 HIT:       3377 MISS:      27625 MSHR_MERGE:          0
cpu0->cpu0_L2C PREFETCH REQUESTED:      40220 ISSUED:      40220 USEFUL:       6962 USELESS:      20837 LATE:         48
cpu0->cpu0_L2C AVERAGE MISS LATENCY: 178.8 cycles
cpu0->cpu0_L1I TOTAL        ACCESS:    7165910 HIT:    7163610 MISS:       2300 MSHR_MERGE:        579
cpu0->cpu0_L1I LOAD         ACCESS:    7165910 HIT:    7163610 MISS:       2300 MSHR_MERGE:        579
cpu0->cpu0_L1I RFO          ACCESS:          0 HIT:          0 MISS:          0 MSHR_MERGE:          0
cpu0->cpu0_L1I PREFETCH     ACCESS:          0 HIT:          0 MISS:          0 MSHR_MERGE:          0
cpu0->cpu0_L1I WRITE        ACCESS:          0 HIT:          0 MISS:          0 MSHR_MERGE:          0
cpu0->cpu0_L1I TRANSLATION  ACCESS:          0 HIT:          0 MISS:          0 MSHR_MERGE:          0
cpu0->cpu0_L1I PREFETCH REQUESTED:          0 ISSUED:          0 USEFUL:          0 USELESS:          0 LATE:          0
cpu0->cpu0_L1I AVERAGE MISS LATENCY: 147 cycles
cpu0->cpu0_L1D TOTAL        ACCESS:   17411691 HIT:   14649297 MISS:    2762394 MSHR_MERGE:     994224
cpu0->cpu0_L1D LOAD         ACCESS:    8539743 HIT:    7094457 MISS:    1445286 MSHR_MERGE:     487215
cpu0->cpu0_L1D RFO          ACCESS:          0 HIT:          0 MISS:          0 MSHR_MERGE:          0
cpu0->cpu0_L1D PREFETCH     ACCESS:     819298 HIT:     176023 MISS:     643275 MSHR_MERGE:       1862
cpu0->cpu0_L1D WRITE        ACCESS:    7909444 HIT:    7271086 MISS:     638358 MSHR_MERGE:     500674
cpu0->cpu0_L1D TRANSLATION  ACCESS:     143206 HIT:     107731 MISS:      35475 MSHR_MERGE:       4473
cpu0->cpu0_L1D PREFETCH REQUESTED:     864168 ISSUED:     819290 USEFUL:      69279 USELESS:      46900 LATE:        291
cpu0->cpu0_L1D AVERAGE MISS LATENCY: 146.9 cycles
cpu0->cpu0_ITLB TOTAL        ACCESS:    6304716 HIT:    6256722 MISS:      47994 MSHR_MERGE:      26563
cpu0->cpu0_ITLB LOAD         ACCESS:    6304716 HIT:    6256722 MISS:      47994 MSHR_MERGE:      26563
cpu0->cpu0_ITLB RFO          ACCESS:          0 HIT:          0 MISS:          0 MSHR_MERGE:          0
cpu0->cpu0_ITLB PREFETCH     ACCESS:          0 HIT:          0 MISS:          0 MSHR_MERGE:          0
cpu0->cpu0_ITLB WRITE        ACCESS:          0 HIT:          0 MISS:          0 MSHR_MERGE:          0
cpu0->cpu0_ITLB TRANSLATION  ACCESS:          0 HIT:          0 MISS:          0 MSHR_MERGE:          0
cpu0->cpu0_ITLB PREFETCH REQUESTED:          0 ISSUED:          0 USEFUL:          0 USELESS:          0 LATE:          0
cpu0->cpu0_ITLB AVERAGE MISS LATENCY: 5.003 cycles
cpu0->cpu0_DTLB TOTAL        ACCESS:   16431116 HIT:   14890018 MISS:    1541098 MSHR_MERGE:     410622
cpu0->cpu0_DTLB LOAD         ACCESS:   16431116 HIT:   14890018 MISS:    1541098 MSHR_MERGE:     410622
cpu0->cpu0_DTLB RFO          ACCESS:          0 HIT:          0 MISS:          0 MSHR_MERGE:          0
cpu0->cpu0_DTLB PREFETCH     ACCESS:          0 HIT:          0 MISS:          0 MSHR_MERGE:          0
cpu0->cpu0_DTLB WRITE        ACCESS:          0 HIT:          0 MISS:          0 MSHR_MERGE:          0
cpu0->cpu0_DTLB TRANSLATION  ACCESS:          0 HIT:          0 MISS:          0 MSHR_MERGE:          0
cpu0->cpu0_DTLB PREFETCH REQUESTED:          0 ISSUED:          0 USEFUL:          0 USELESS:          0 LATE:          0
cpu0->cpu0_DTLB AVERAGE MISS LATENCY: 11.87 cycles
cpu0->LLC TOTAL        ACCESS:    1705956 HIT:     544711 MISS:    1161245 MSHR_MERGE:          6
cpu0->LLC LOAD         ACCESS:     731348 HIT:     155214 MISS:     576134 MSHR_MERGE:          0
cpu0->LLC RFO          ACCESS:     108969 HIT:      18871 MISS:      90098 MSHR_MERGE:          0
cpu0->LLC PREFETCH     ACCESS:     399682 HIT:      34823 MISS:     364859 MSHR_MERGE:          6
cpu0->LLC WRITE        ACCESS:     438332 HIT:     328219 MISS:     110113 MSHR_MERGE:          0
cpu0->LLC TRANSLATION  ACCESS:      27625 HIT:       7584 MISS:      20041 MSHR_MERGE:          0
cpu0->LLC PREFETCH REQUESTED:          0 ISSUED:          0 USEFUL:          0 USELESS:          0 LATE:          0
cpu0->LLC AVERAGE MISS LATENCY: 179.4 cycles

DRAM Statistics

Channel 0 RQ ROW_BUFFER_HIT:      15401
  ROW_BUFFER_MISS:    1035600
  AVG DBUS CONGESTED CYCLE: 11.7
Channel 0 WQ ROW_BUFFER_HIT:      97431
  ROW_BUFFER_MISS:     243926
  FULL:          0
Channel 0 REFRESHES ISSUED:       8922

[ROI Statistics]
[System Configuration]
num_cpus 1
cpu_freq 4000
fetch_width 6
decode_width 6
dispatch_width 6
execute_width 6
lq_width 2
sq_width 2
retire_width 6
scheduler_size 128
branch_mispredict_penalty 15
rob_size 352
lq_size 128
sq_size 72
ifetch_buffer_size 64
decode_buffer_size 32
dispatch_buffer_size 32
register_file_size 288
decode_latency 1
dispatch_latency 1
schedule_latency 1
execute_latency 1
page_size 4096
block_size 64
core_0_itlb_set 16
core_0_itlb_way 4
core_0_itlb_rq_size 16
core_0_itlb_wq_size 16
core_0_itlb_pq_size 0
core_0_itlb_mshr_size 8
core_0_itlb_hit_latency 1
core_0_itlb_fill_latency 1
core_0_itlb_max_tag_check 2
core_0_itlb_max_fill 2
core_0_dtlb_set 16
core_0_dtlb_way 4
core_0_dtlb_rq_size 16
core_0_dtlb_wq_size 16
core_0_dtlb_pq_size 0
core_0_dtlb_mshr_size 8
core_0_dtlb_hit_latency 1
core_0_dtlb_fill_latency 1
core_0_dtlb_max_tag_check 2
core_0_dtlb_max_fill 2
core_0_stlb_set 128
core_0_stlb_way 12
core_0_stlb_rq_size 32
core_0_stlb_wq_size 32
core_0_stlb_pq_size 0
core_0_stlb_mshr_size 16
core_0_stlb_hit_latency 4
core_0_stlb_fill_latency 4
core_0_stlb_max_tag_check 1
core_0_stlb_max_fill 1
core_0_l1i_set 64
core_0_l1i_way 8
core_0_l1i_rq_size 64
core_0_l1i_wq_size 64
core_0_l1i_pq_size 32
core_0_l1i_mshr_size 8
core_0_l1i_hit_latency 2
core_0_l1i_fill_latency 2
core_0_l1i_max_tag_check 2
core_0_l1i_max_fill 2
core_0_l1d_set 64
core_0_l1d_way 12
core_0_l1d_rq_size 64
core_0_l1d_wq_size 64
core_0_l1d_pq_size 8
core_0_l1d_mshr_size 16
core_0_l1d_hit_latency 2
core_0_l1d_fill_latency 3
core_0_l1d_max_tag_check 2
core_0_l1d_max_fill 2
core_0_l2c_set 1024
core_0_l2c_way 8
core_0_l2c_rq_size 32
core_0_l2c_wq_size 32
core_0_l2c_pq_size 16
core_0_l2c_mshr_size 32
core_0_l2c_hit_latency 5
core_0_l2c_fill_latency 5
core_0_l2c_max_tag_check 1
core_0_l2c_max_fill 1
llc_set 2048
llc_way 16
llc_rq_size 32
llc_wq_size 32
llc_pq_size 32
llc_mshr_size 64
llc_hit_latency 10
llc_fill_latency 10
llc_max_tag_check 1
llc_max_fill 1
dram_channels 1
dram_ranks 1
dram_bankgroups 8
dram_banks 4
dram_rows 65536
dram_columns 1024
dram_channel_width 8
dram_rq_size 64
dram_wq_size 64
dram_size 17179869184
core_0_itlb_prefetcher no
core_0_dtlb_prefetcher no
core_0_stlb_prefetcher no
core_0_l1i_prefetcher next_line
core_0_l1d_prefetcher vberti
core_0_l2c_prefetcher ip_stride
llc_prefetcher no
llc_replacement drrip

Core_0_instructions 50000005
Core_0_cycles 107066566
Core_0_IPC 0.466999
Core_0_branch_prediction_accuracy 97.8524
Core_0_branch_MPKI 5.17784
Core_0_average_ROB_occupancy_at_mispredict 109.268

Core_0_ITLB_total_access 6304716
Core_0_ITLB_total_hit 6256722
Core_0_ITLB_total_miss 47994
Core_0_ITLB_total_MPKI 0.95988
Core_0_ITLB_total_miss_rate 0.0076124
Core_0_ITLB_demand_access 6304716
Core_0_ITLB_demand_hit 6256722
Core_0_ITLB_demand_miss 47994
Core_0_ITLB_demand_MPKI 0.95988
Core_0_ITLB_demand_miss_rate 0.0076124
Core_0_ITLB_load_access 6304716
Core_0_ITLB_load_hit 6256722
Core_0_ITLB_load_miss 47994
Core_0_ITLB_load_MPKI 0.95988
Core_0_ITLB_load_miss_rate 0.0076124
Core_0_ITLB_rfo_access 0
Core_0_ITLB_rfo_hit 0
Core_0_ITLB_rfo_miss 0
Core_0_ITLB_rfo_MPKI 0
Core_0_ITLB_rfo_miss_rate 0
Core_0_ITLB_prefetch_access 0
Core_0_ITLB_prefetch_hit 0
Core_0_ITLB_prefetch_miss 0
Core_0_ITLB_prefetch_MPKI 0
Core_0_ITLB_prefetch_miss_rate 0
Core_0_ITLB_writeback_access 0
Core_0_ITLB_writeback_hit 0
Core_0_ITLB_writeback_miss 0
Core_0_ITLB_writeback_MPKI 0
Core_0_ITLB_writeback_miss_rate 0
Core_0_ITLB_prefetch_requested 0
Core_0_ITLB_prefetch_issued 0
Core_0_ITLB_prefetch_useful 0
Core_0_ITLB_prefetch_useless 0
Core_0_ITLB_prefetch_late 0
Core_0_ITLB_prefetch_accuracy 0
Core_0_ITLB_prefetch_coverage 0
Core_0_ITLB_total_eviction 21431

Core_0_DTLB_total_access 16431116
Core_0_DTLB_total_hit 14890018
Core_0_DTLB_total_miss 1541098
Core_0_DTLB_total_MPKI 30.822
Core_0_DTLB_total_miss_rate 0.0937914
Core_0_DTLB_demand_access 16431116
Core_0_DTLB_demand_hit 14890018
Core_0_DTLB_demand_miss 1541098
Core_0_DTLB_demand_MPKI 30.822
Core_0_DTLB_demand_miss_rate 0.0937914
Core_0_DTLB_load_access 16431116
Core_0_DTLB_load_hit 14890018
Core_0_DTLB_load_miss 1541098
Core_0_DTLB_load_MPKI 30.822
Core_0_DTLB_load_miss_rate 0.0937914
Core_0_DTLB_rfo_access 0
Core_0_DTLB_rfo_hit 0
Core_0_DTLB_rfo_miss 0
Core_0_DTLB_rfo_MPKI 0
Core_0_DTLB_rfo_miss_rate 0
Core_0_DTLB_prefetch_access 0
Core_0_DTLB_prefetch_hit 0
Core_0_DTLB_prefetch_miss 0
Core_0_DTLB_prefetch_MPKI 0
Core_0_DTLB_prefetch_miss_rate 0
Core_0_DTLB_writeback_access 0
Core_0_DTLB_writeback_hit 0
Core_0_DTLB_writeback_miss 0
Core_0_DTLB_writeback_MPKI 0
Core_0_DTLB_writeback_miss_rate 0
Core_0_DTLB_prefetch_requested 0
Core_0_DTLB_prefetch_issued 0
Core_0_DTLB_prefetch_useful 0
Core_0_DTLB_prefetch_useless 0
Core_0_DTLB_prefetch_late 0
Core_0_DTLB_prefetch_accuracy 0
Core_0_DTLB_prefetch_coverage 0
Core_0_DTLB_total_eviction 1130476

Core_0_STLB_total_access 1151907
Core_0_STLB_total_hit 1078196
Core_0_STLB_total_miss 73711
Core_0_STLB_total_MPKI 1.47422
Core_0_STLB_total_miss_rate 0.0639904
Core_0_STLB_demand_access 1151907
Core_0_STLB_demand_hit 1078196
Core_0_STLB_demand_miss 73711
Core_0_STLB_demand_MPKI 1.47422
Core_0_STLB_demand_miss_rate 0.0639904
Core_0_STLB_load_access 1151907
Core_0_STLB_load_hit 1078196
Core_0_STLB_load_miss 73711
Core_0_STLB_load_MPKI 1.47422
Core_0_STLB_load_miss_rate 0.0639904
Core_0_STLB_rfo_access 0
Core_0_STLB_rfo_hit 0
Core_0_STLB_rfo_miss 0
Core_0_STLB_rfo_MPKI 0
Core_0_STLB_rfo_miss_rate 0
Core_0_STLB_prefetch_access 0
Core_0_STLB_prefetch_hit 0
Core_0_STLB_prefetch_miss 0
Core_0_STLB_prefetch_MPKI 0
Core_0_STLB_prefetch_miss_rate 0
Core_0_STLB_writeback_access 0
Core_0_STLB_writeback_hit 0
Core_0_STLB_writeback_miss 0
Core_0_STLB_writeback_MPKI 0
Core_0_STLB_writeback_miss_rate 0
Core_0_STLB_prefetch_requested 0
Core_0_STLB_prefetch_issued 0
Core_0_STLB_prefetch_useful 0
Core_0_STLB_prefetch_useless 0
Core_0_STLB_prefetch_late 0
Core_0_STLB_prefetch_accuracy 0
Core_0_STLB_prefetch_coverage 0
Core_0_STLB_total_eviction 252523

Core_0_L1I_total_access 7165910
Core_0_L1I_total_hit 7163610
Core_0_L1I_total_miss 2300
Core_0_L1I_total_MPKI 0.046
Core_0_L1I_total_miss_rate 0.000320964
Core_0_L1I_demand_access 7165910
Core_0_L1I_demand_hit 7163610
Core_0_L1I_demand_miss 2300
Core_0_L1I_demand_MPKI 0.046
Core_0_L1I_demand_miss_rate 0.000320964
Core_0_L1I_load_access 7165910
Core_0_L1I_load_hit 7163610
Core_0_L1I_load_miss 2300
Core_0_L1I_load_MPKI 0.046
Core_0_L1I_load_miss_rate 0.000320964
Core_0_L1I_rfo_access 0
Core_0_L1I_rfo_hit 0
Core_0_L1I_rfo_miss 0
Core_0_L1I_rfo_MPKI 0
Core_0_L1I_rfo_miss_rate 0
Core_0_L1I_prefetch_access 0
Core_0_L1I_prefetch_hit 0
Core_0_L1I_prefetch_miss 0
Core_0_L1I_prefetch_MPKI 0
Core_0_L1I_prefetch_miss_rate 0
Core_0_L1I_writeback_access 0
Core_0_L1I_writeback_hit 0
Core_0_L1I_writeback_miss 0
Core_0_L1I_writeback_MPKI 0
Core_0_L1I_writeback_miss_rate 0
Core_0_L1I_prefetch_requested 0
Core_0_L1I_prefetch_issued 0
Core_0_L1I_prefetch_useful 0
Core_0_L1I_prefetch_useless 0
Core_0_L1I_prefetch_late 0
Core_0_L1I_prefetch_accuracy 0
Core_0_L1I_prefetch_coverage 0
Core_0_L1I_total_eviction 1713

Core_0_L1D_total_access 17268485
Core_0_L1D_total_hit 14541566
Core_0_L1D_total_miss 2726919
Core_0_L1D_total_MPKI 54.5384
Core_0_L1D_total_miss_rate 0.157913
Core_0_L1D_demand_access 8539743
Core_0_L1D_demand_hit 7094457
Core_0_L1D_demand_miss 1445286
Core_0_L1D_demand_MPKI 28.9057
Core_0_L1D_demand_miss_rate 0.169242
Core_0_L1D_load_access 8539743
Core_0_L1D_load_hit 7094457
Core_0_L1D_load_miss 1445286
Core_0_L1D_load_MPKI 28.9057
Core_0_L1D_load_miss_rate 0.169242
Core_0_L1D_rfo_access 0
Core_0_L1D_rfo_hit 0
Core_0_L1D_rfo_miss 0
Core_0_L1D_rfo_MPKI 0
Core_0_L1D_rfo_miss_rate 0
Core_0_L1D_prefetch_access 819298
Core_0_L1D_prefetch_hit 176023
Core_0_L1D_prefetch_miss 643275
Core_0_L1D_prefetch_MPKI 12.8655
Core_0_L1D_prefetch_miss_rate 0.785154
Core_0_L1D_writeback_access 7909444
Core_0_L1D_writeback_hit 7271086
Core_0_L1D_writeback_miss 638358
Core_0_L1D_writeback_MPKI 12.7672
Core_0_L1D_writeback_miss_rate 0.0807083
Core_0_L1D_prefetch_requested 864168
Core_0_L1D_prefetch_issued 819290
Core_0_L1D_prefetch_useful 69279
Core_0_L1D_prefetch_useless 46900
Core_0_L1D_prefetch_late 291
Core_0_L1D_prefetch_accuracy 0.0845598
Core_0_L1D_prefetch_coverage 0.0457418
Core_0_L1D_total_eviction 1242956

Core_0_L2C_total_access 2253152
Core_0_L2C_total_hit 922454
Core_0_L2C_total_miss 1330698
Core_0_L2C_total_MPKI 26.614
Core_0_L2C_total_miss_rate 0.590594
Core_0_L2C_demand_access 1097454
Core_0_L2C_demand_hit 254741
Core_0_L2C_demand_miss 842713
Core_0_L2C_demand_MPKI 16.8543
Core_0_L2C_demand_miss_rate 0.76788
Core_0_L2C_load_access 959787
Core_0_L2C_load_hit 226114
Core_0_L2C_load_miss 733673
Core_0_L2C_load_MPKI 14.6735
Core_0_L2C_load_miss_rate 0.764412
Core_0_L2C_rfo_access 137667
Core_0_L2C_rfo_hit 28627
Core_0_L2C_rfo_miss 109040
Core_0_L2C_rfo_MPKI 2.1808
Core_0_L2C_rfo_miss_rate 0.792056
Core_0_L2C_prefetch_access 659766
Core_0_L2C_prefetch_hit 173021
Core_0_L2C_prefetch_miss 486745
Core_0_L2C_prefetch_MPKI 9.7349
Core_0_L2C_prefetch_miss_rate 0.737754
Core_0_L2C_writeback_access 495932
Core_0_L2C_writeback_hit 494692
Core_0_L2C_writeback_miss 1240
Core_0_L2C_writeback_MPKI 0.0248
Core_0_L2C_writeback_miss_rate 0.00250034
Core_0_L2C_prefetch_requested 40220
Core_0_L2C_prefetch_issued 40220
Core_0_L2C_prefetch_useful 6962
Core_0_L2C_prefetch_useless 20837
Core_0_L2C_prefetch_late 48
Core_0_L2C_prefetch_accuracy 0.173098
Core_0_L2C_prefetch_coverage 0.00819372
Core_0_L2C_total_eviction 1268620

Core_0_LLC_total_access 1678331
Core_0_LLC_total_hit 537127
Core_0_LLC_total_miss 1141204
Core_0_LLC_total_MPKI 22.8241
Core_0_LLC_total_miss_rate 0.679964
Core_0_LLC_demand_access 840317
Core_0_LLC_demand_hit 174085
Core_0_LLC_demand_miss 666232
Core_0_LLC_demand_MPKI 13.3246
Core_0_LLC_demand_miss_rate 0.792834
Core_0_LLC_load_access 731348
Core_0_LLC_load_hit 155214
Core_0_LLC_load_miss 576134
Core_0_LLC_load_MPKI 11.5227
Core_0_LLC_load_miss_rate 0.78777
Core_0_LLC_rfo_access 108969
Core_0_LLC_rfo_hit 18871
Core_0_LLC_rfo_miss 90098
Core_0_LLC_rfo_MPKI 1.80196
Core_0_LLC_rfo_miss_rate 0.826822
Core_0_LLC_prefetch_access 399682
Core_0_LLC_prefetch_hit 34823
Core_0_LLC_prefetch_miss 364859
Core_0_LLC_prefetch_MPKI 7.29718
Core_0_LLC_prefetch_miss_rate 0.912873
Core_0_LLC_writeback_access 438332
Core_0_LLC_writeback_hit 328219
Core_0_LLC_writeback_miss 110113
Core_0_LLC_writeback_MPKI 2.20226
Core_0_LLC_writeback_miss_rate 0.251209
Core_0_LLC_prefetch_requested 0
Core_0_LLC_prefetch_issued 0
Core_0_LLC_prefetch_useful 0
Core_0_LLC_prefetch_useless 0
Core_0_LLC_prefetch_late 0
Core_0_LLC_prefetch_accuracy 0
Core_0_LLC_prefetch_coverage 0
Core_0_LLC_total_eviction 1161238

[DRAM Statistics]
Channel_0_RQ_row_buffer_hit 15401
Channel_0_RQ_row_buffer_miss 1035600
Channel_0_WQ_row_buffer_hit 97431
Channel_0_WQ_row_buffer_miss 243926
Channel_0_WQ_full 0
Channel_0_dbus_congested 3527375
DRAM_total_RQ_row_buffer_hit 15401
DRAM_total_RQ_row_buffer_miss 1035600
DRAM_total_WQ_row_buffer_hit 97431
DRAM_total_WQ_row_buffer_miss 243926
DRAM_total_WQ_full 0
DRAM_total_dbus_congested 3527375
DRAM_avg_congested_cycle 11.7036

======STLB miss causes ========
Core_0_STLB_miss_cause_breakdown
Core_0_STLB_cause_Demand_Data_miss 0
Core_0_STLB_cause_Demand_Data_miss_rate 0
Core_0_STLB_cause_Demand_Instruction_miss 0
Core_0_STLB_cause_Demand_Instruction_miss_rate 0
Core_0_STLB_cause_L1D_Prefetch_miss 73711
Core_0_STLB_cause_L1D_Prefetch_miss_rate 0.0639904
Core_0_STLB_cause_L1I_Prefetch_miss 0
Core_0_STLB_cause_L1I_Prefetch_miss_rate 0
Core_0_STLB_cause_Other_miss 0
Core_0_STLB_cause_Other_miss_rate 0
Core_0_STLB_Demand_miss 0
Core_0_STLB_Demand_miss_rate 0
Core_0_STLB_L1D_Prefetch_miss 73711
Core_0_STLB_L1D_Prefetch_miss_rate 0.0639904
Core_0_STLB_Other_miss 0
Core_0_STLB_Other_miss_rate 0
BERTI TO_L1: 313194 TO_L2: 858867 TO_L2_BC_MSHR: 17
BERTI AVG_LAT: 111.712 NUM_TRACK_LATENCY: 1672146 NUM_CANT_TRACK_LATENCY: 0
BERTI CROSS_PAGE 974989 NO_CROSS_PAGE: 197072
BERTI FOUND_BERTI: 5125717 NO_FOUND_BERTI: 16115251
BERTI AVERAGE_ISSUED: 1.41268
