[VMEM] WARNING: physical memory size is smaller than virtual memory size.

*** ChampSim Multicore Out-of-Order Simulator ***
Warmup Instructions: 20000000
Simulation Instructions: 50000000
Number of CPUs: 1
Page size: 4096
STLB ideal mode: demand
STLB ideal fill: on
Core 0: /data0/tzh/champsim_traces/SPEC17/605.mcf_s-1644B.champsimtrace.xz
VBerti Prefetcher
BERTI HASH ENTANGLING
BERTI IP MASK ffff
Off-chip DRAM Size: 16 GiB Channels: 1 Width: 64-bit Data Rate: 3205 MT/s
Warmup halting CPU 0 at instruction 20000001 cycle 8234264 for remainder of phase
Warmup finished CPU 0 instructions: 20000001 cycles: 8234264 cumulative IPC: 2.429 (Simulation time: 00 hr 01 min 58 sec)
Warmup complete CPU 0 instructions: 20000001 cycles: 8234264 cumulative IPC: 2.429 (Simulation time: 00 hr 01 min 58 sec)
Simulation finished CPU 0 instructions: 50000002 cycles: 173611448 cumulative IPC: 0.288 (Simulation time: 00 hr 25 min 49 sec)
Simulation complete CPU 0 instructions: 50000002 cycles: 173611448 cumulative IPC: 0.288 (Simulation time: 00 hr 25 min 49 sec)

ChampSim completed all CPUs

=== Simulation ===
CPU 0 runs /data0/tzh/champsim_traces/SPEC17/605.mcf_s-1644B.champsimtrace.xz

Region of Interest Statistics

CPU 0 cumulative IPC: 0.288 instructions: 50000002 cycles: 173611448
CPU 0 Branch Prediction Accuracy: 95.08% MPKI: 6.109 Average ROB Occupancy at Mispredict: 95.21
Branch type MPKI
BRANCH_DIRECT_JUMP: 0
BRANCH_INDIRECT: 0
BRANCH_CONDITIONAL: 6.109
BRANCH_DIRECT_CALL: 0
BRANCH_INDIRECT_CALL: 0
BRANCH_RETURN: 0

cpu0->cpu0_STLB TOTAL        ACCESS:    1477561 HIT:    1447359 MISS:      30202 MSHR_MERGE:          0
cpu0->cpu0_STLB LOAD         ACCESS:    1477561 HIT:    1447359 MISS:      30202 MSHR_MERGE:          0
cpu0->cpu0_STLB RFO          ACCESS:          0 HIT:          0 MISS:          0 MSHR_MERGE:          0
cpu0->cpu0_STLB PREFETCH     ACCESS:          0 HIT:          0 MISS:          0 MSHR_MERGE:          0
cpu0->cpu0_STLB WRITE        ACCESS:          0 HIT:          0 MISS:          0 MSHR_MERGE:          0
cpu0->cpu0_STLB TRANSLATION  ACCESS:          0 HIT:          0 MISS:          0 MSHR_MERGE:          0
cpu0->cpu0_STLB PREFETCH REQUESTED:          0 ISSUED:          0 USEFUL:          0 USELESS:          0 LATE:          0
cpu0->cpu0_STLB AVERAGE MISS LATENCY: 293.9 cycles
cpu0->cpu0_L2C TOTAL        ACCESS:   15418727 HIT:    7013094 MISS:    8405633 MSHR_MERGE:    3038531
cpu0->cpu0_L2C LOAD         ACCESS:    1280223 HIT:     527628 MISS:     752595 MSHR_MERGE:      19844
cpu0->cpu0_L2C RFO          ACCESS:    2186547 HIT:        111 MISS:    2186436 MSHR_MERGE:          0
cpu0->cpu0_L2C PREFETCH     ACCESS:    7438891 HIT:    1982118 MISS:    5456773 MSHR_MERGE:    3018687
cpu0->cpu0_L2C WRITE        ACCESS:    4502580 HIT:    4501334 MISS:       1246 MSHR_MERGE:          0
cpu0->cpu0_L2C TRANSLATION  ACCESS:      10486 HIT:       1903 MISS:       8583 MSHR_MERGE:          0
cpu0->cpu0_L2C PREFETCH REQUESTED:    4022102 ISSUED:    3977374 USEFUL:     534114 USELESS:       8680 LATE:       5204
cpu0->cpu0_L2C AVERAGE MISS LATENCY: 585 cycles
cpu0->cpu0_L1I TOTAL        ACCESS:    2913316 HIT:    2913316 MISS:          0 MSHR_MERGE:          0
cpu0->cpu0_L1I LOAD         ACCESS:    2913316 HIT:    2913316 MISS:          0 MSHR_MERGE:          0
cpu0->cpu0_L1I RFO          ACCESS:          0 HIT:          0 MISS:          0 MSHR_MERGE:          0
cpu0->cpu0_L1I PREFETCH     ACCESS:          0 HIT:          0 MISS:          0 MSHR_MERGE:          0
cpu0->cpu0_L1I WRITE        ACCESS:          0 HIT:          0 MISS:          0 MSHR_MERGE:          0
cpu0->cpu0_L1I TRANSLATION  ACCESS:          0 HIT:          0 MISS:          0 MSHR_MERGE:          0
cpu0->cpu0_L1I PREFETCH REQUESTED:          0 ISSUED:          0 USEFUL:          0 USELESS:          0 LATE:          0
cpu0->cpu0_L1I AVERAGE MISS LATENCY: - cycles
cpu0->cpu0_L1D TOTAL        ACCESS:   37577892 HIT:   22753405 MISS:   14824487 MSHR_MERGE:    7810226
cpu0->cpu0_L1D LOAD         ACCESS:   13428067 HIT:   11997829 MISS:    1430238 MSHR_MERGE:     150015
cpu0->cpu0_L1D RFO          ACCESS:          0 HIT:          0 MISS:          0 MSHR_MERGE:          0
cpu0->cpu0_L1D PREFETCH     ACCESS:    6597446 HIT:    3049228 MISS:    3548218 MSHR_MERGE:      11213
cpu0->cpu0_L1D WRITE        ACCESS:   17492249 HIT:    7656952 MISS:    9835297 MSHR_MERGE:    7648750
cpu0->cpu0_L1D TRANSLATION  ACCESS:      60130 HIT:      49396 MISS:      10734 MSHR_MERGE:        248
cpu0->cpu0_L1D PREFETCH REQUESTED:   54281498 ISSUED:    6597438 USEFUL:    1035792 USELESS:       4351 LATE:      36865
cpu0->cpu0_L1D AVERAGE MISS LATENCY: 505.2 cycles
cpu0->cpu0_ITLB TOTAL        ACCESS:    2897409 HIT:    2897409 MISS:          0 MSHR_MERGE:          0
cpu0->cpu0_ITLB LOAD         ACCESS:    2897409 HIT:    2897409 MISS:          0 MSHR_MERGE:          0
cpu0->cpu0_ITLB RFO          ACCESS:          0 HIT:          0 MISS:          0 MSHR_MERGE:          0
cpu0->cpu0_ITLB PREFETCH     ACCESS:          0 HIT:          0 MISS:          0 MSHR_MERGE:          0
cpu0->cpu0_ITLB WRITE        ACCESS:          0 HIT:          0 MISS:          0 MSHR_MERGE:          0
cpu0->cpu0_ITLB TRANSLATION  ACCESS:          0 HIT:          0 MISS:          0 MSHR_MERGE:          0
cpu0->cpu0_ITLB PREFETCH REQUESTED:          0 ISSUED:          0 USEFUL:          0 USELESS:          0 LATE:          0
cpu0->cpu0_ITLB AVERAGE MISS LATENCY: - cycles
cpu0->cpu0_DTLB TOTAL        ACCESS:   33421913 HIT:   31284374 MISS:    2137539 MSHR_MERGE:     659978
cpu0->cpu0_DTLB LOAD         ACCESS:   33421913 HIT:   31284374 MISS:    2137539 MSHR_MERGE:     659978
cpu0->cpu0_DTLB RFO          ACCESS:          0 HIT:          0 MISS:          0 MSHR_MERGE:          0
cpu0->cpu0_DTLB PREFETCH     ACCESS:          0 HIT:          0 MISS:          0 MSHR_MERGE:          0
cpu0->cpu0_DTLB WRITE        ACCESS:          0 HIT:          0 MISS:          0 MSHR_MERGE:          0
cpu0->cpu0_DTLB TRANSLATION  ACCESS:          0 HIT:          0 MISS:          0 MSHR_MERGE:          0
cpu0->cpu0_DTLB PREFETCH REQUESTED:          0 ISSUED:          0 USEFUL:          0 USELESS:          0 LATE:          0
cpu0->cpu0_DTLB AVERAGE MISS LATENCY: 11.03 cycles
cpu0->LLC TOTAL        ACCESS:    9550749 HIT:    2187134 MISS:    7363615 MSHR_MERGE:     757272
cpu0->LLC LOAD         ACCESS:     732745 HIT:     571995 MISS:     160750 MSHR_MERGE:        111
cpu0->LLC RFO          ACCESS:    2186436 HIT:       8297 MISS:    2178139 MSHR_MERGE:          0
cpu0->LLC PREFETCH     ACCESS:    2435741 HIT:     299078 MISS:    2136663 MSHR_MERGE:     757161
cpu0->LLC WRITE        ACCESS:    4187244 HIT:    1304350 MISS:    2882894 MSHR_MERGE:          0
cpu0->LLC TRANSLATION  ACCESS:       8583 HIT:       3414 MISS:       5169 MSHR_MERGE:          0
cpu0->LLC PREFETCH REQUESTED:          0 ISSUED:          0 USEFUL:          0 USELESS:          0 LATE:          0
cpu0->LLC AVERAGE MISS LATENCY: 324 cycles

DRAM Statistics

Channel 0 RQ ROW_BUFFER_HIT:     280265
  ROW_BUFFER_MISS:    3442688
  AVG DBUS CONGESTED CYCLE: 7.408
Channel 0 WQ ROW_BUFFER_HIT:     448943
  ROW_BUFFER_MISS:    3130313
  FULL:       5655
Channel 0 REFRESHES ISSUED:      14467

[ROI Statistics]
[System Configuration]
num_cpus 1
cpu_freq 4000
fetch_width 6
decode_width 6
dispatch_width 6
execute_width 6
lq_width 2
sq_width 2
retire_width 6
scheduler_size 128
branch_mispredict_penalty 15
rob_size 352
lq_size 128
sq_size 72
ifetch_buffer_size 64
decode_buffer_size 32
dispatch_buffer_size 32
register_file_size 288
decode_latency 1
dispatch_latency 1
schedule_latency 1
execute_latency 1
page_size 4096
block_size 64
core_0_itlb_set 16
core_0_itlb_way 4
core_0_itlb_rq_size 16
core_0_itlb_wq_size 16
core_0_itlb_pq_size 0
core_0_itlb_mshr_size 8
core_0_itlb_hit_latency 1
core_0_itlb_fill_latency 1
core_0_itlb_max_tag_check 2
core_0_itlb_max_fill 2
core_0_dtlb_set 16
core_0_dtlb_way 4
core_0_dtlb_rq_size 16
core_0_dtlb_wq_size 16
core_0_dtlb_pq_size 0
core_0_dtlb_mshr_size 8
core_0_dtlb_hit_latency 1
core_0_dtlb_fill_latency 1
core_0_dtlb_max_tag_check 2
core_0_dtlb_max_fill 2
core_0_stlb_set 128
core_0_stlb_way 12
core_0_stlb_rq_size 32
core_0_stlb_wq_size 32
core_0_stlb_pq_size 0
core_0_stlb_mshr_size 16
core_0_stlb_hit_latency 4
core_0_stlb_fill_latency 4
core_0_stlb_max_tag_check 1
core_0_stlb_max_fill 1
core_0_l1i_set 64
core_0_l1i_way 8
core_0_l1i_rq_size 64
core_0_l1i_wq_size 64
core_0_l1i_pq_size 32
core_0_l1i_mshr_size 8
core_0_l1i_hit_latency 2
core_0_l1i_fill_latency 2
core_0_l1i_max_tag_check 2
core_0_l1i_max_fill 2
core_0_l1d_set 64
core_0_l1d_way 12
core_0_l1d_rq_size 64
core_0_l1d_wq_size 64
core_0_l1d_pq_size 8
core_0_l1d_mshr_size 16
core_0_l1d_hit_latency 2
core_0_l1d_fill_latency 3
core_0_l1d_max_tag_check 2
core_0_l1d_max_fill 2
core_0_l2c_set 1024
core_0_l2c_way 8
core_0_l2c_rq_size 32
core_0_l2c_wq_size 32
core_0_l2c_pq_size 16
core_0_l2c_mshr_size 32
core_0_l2c_hit_latency 5
core_0_l2c_fill_latency 5
core_0_l2c_max_tag_check 1
core_0_l2c_max_fill 1
llc_set 2048
llc_way 16
llc_rq_size 32
llc_wq_size 32
llc_pq_size 32
llc_mshr_size 64
llc_hit_latency 10
llc_fill_latency 10
llc_max_tag_check 1
llc_max_fill 1
dram_channels 1
dram_ranks 1
dram_bankgroups 8
dram_banks 4
dram_rows 65536
dram_columns 1024
dram_channel_width 8
dram_rq_size 64
dram_wq_size 64
dram_size 17179869184
core_0_itlb_prefetcher no
core_0_dtlb_prefetcher no
core_0_stlb_prefetcher no
core_0_l1i_prefetcher next_line
core_0_l1d_prefetcher vberti
core_0_l2c_prefetcher ip_stride
llc_prefetcher no
llc_replacement drrip

Core_0_instructions 50000002
Core_0_cycles 173611448
Core_0_IPC 0.287999
Core_0_branch_prediction_accuracy 95.0839
Core_0_branch_MPKI 6.10938
Core_0_average_ROB_occupancy_at_mispredict 95.2137

Core_0_ITLB_total_access 2897409
Core_0_ITLB_total_hit 2897409
Core_0_ITLB_total_miss 0
Core_0_ITLB_total_MPKI 0
Core_0_ITLB_total_miss_rate 0
Core_0_ITLB_demand_access 2897409
Core_0_ITLB_demand_hit 2897409
Core_0_ITLB_demand_miss 0
Core_0_ITLB_demand_MPKI 0
Core_0_ITLB_demand_miss_rate 0
Core_0_ITLB_load_access 2897409
Core_0_ITLB_load_hit 2897409
Core_0_ITLB_load_miss 0
Core_0_ITLB_load_MPKI 0
Core_0_ITLB_load_miss_rate 0
Core_0_ITLB_rfo_access 0
Core_0_ITLB_rfo_hit 0
Core_0_ITLB_rfo_miss 0
Core_0_ITLB_rfo_MPKI 0
Core_0_ITLB_rfo_miss_rate 0
Core_0_ITLB_prefetch_access 0
Core_0_ITLB_prefetch_hit 0
Core_0_ITLB_prefetch_miss 0
Core_0_ITLB_prefetch_MPKI 0
Core_0_ITLB_prefetch_miss_rate 0
Core_0_ITLB_writeback_access 0
Core_0_ITLB_writeback_hit 0
Core_0_ITLB_writeback_miss 0
Core_0_ITLB_writeback_MPKI 0
Core_0_ITLB_writeback_miss_rate 0
Core_0_ITLB_prefetch_requested 0
Core_0_ITLB_prefetch_issued 0
Core_0_ITLB_prefetch_useful 0
Core_0_ITLB_prefetch_useless 0
Core_0_ITLB_prefetch_late 0
Core_0_ITLB_prefetch_accuracy 0
Core_0_ITLB_prefetch_coverage 0
Core_0_ITLB_total_eviction 0

Core_0_DTLB_total_access 33421913
Core_0_DTLB_total_hit 31284374
Core_0_DTLB_total_miss 2137539
Core_0_DTLB_total_MPKI 42.7508
Core_0_DTLB_total_miss_rate 0.0639562
Core_0_DTLB_demand_access 33421913
Core_0_DTLB_demand_hit 31284374
Core_0_DTLB_demand_miss 2137539
Core_0_DTLB_demand_MPKI 42.7508
Core_0_DTLB_demand_miss_rate 0.0639562
Core_0_DTLB_load_access 33421913
Core_0_DTLB_load_hit 31284374
Core_0_DTLB_load_miss 2137539
Core_0_DTLB_load_MPKI 42.7508
Core_0_DTLB_load_miss_rate 0.0639562
Core_0_DTLB_rfo_access 0
Core_0_DTLB_rfo_hit 0
Core_0_DTLB_rfo_miss 0
Core_0_DTLB_rfo_MPKI 0
Core_0_DTLB_rfo_miss_rate 0
Core_0_DTLB_prefetch_access 0
Core_0_DTLB_prefetch_hit 0
Core_0_DTLB_prefetch_miss 0
Core_0_DTLB_prefetch_MPKI 0
Core_0_DTLB_prefetch_miss_rate 0
Core_0_DTLB_writeback_access 0
Core_0_DTLB_writeback_hit 0
Core_0_DTLB_writeback_miss 0
Core_0_DTLB_writeback_MPKI 0
Core_0_DTLB_writeback_miss_rate 0
Core_0_DTLB_prefetch_requested 0
Core_0_DTLB_prefetch_issued 0
Core_0_DTLB_prefetch_useful 0
Core_0_DTLB_prefetch_useless 0
Core_0_DTLB_prefetch_late 0
Core_0_DTLB_prefetch_accuracy 0
Core_0_DTLB_prefetch_coverage 0
Core_0_DTLB_total_eviction 1477561

Core_0_STLB_total_access 1477561
Core_0_STLB_total_hit 1447359
Core_0_STLB_total_miss 30202
Core_0_STLB_total_MPKI 0.60404
Core_0_STLB_total_miss_rate 0.0204404
Core_0_STLB_demand_access 1477561
Core_0_STLB_demand_hit 1447359
Core_0_STLB_demand_miss 30202
Core_0_STLB_demand_MPKI 0.60404
Core_0_STLB_demand_miss_rate 0.0204404
Core_0_STLB_load_access 1477561
Core_0_STLB_load_hit 1447359
Core_0_STLB_load_miss 30202
Core_0_STLB_load_MPKI 0.60404
Core_0_STLB_load_miss_rate 0.0204404
Core_0_STLB_rfo_access 0
Core_0_STLB_rfo_hit 0
Core_0_STLB_rfo_miss 0
Core_0_STLB_rfo_MPKI 0
Core_0_STLB_rfo_miss_rate 0
Core_0_STLB_prefetch_access 0
Core_0_STLB_prefetch_hit 0
Core_0_STLB_prefetch_miss 0
Core_0_STLB_prefetch_MPKI 0
Core_0_STLB_prefetch_miss_rate 0
Core_0_STLB_writeback_access 0
Core_0_STLB_writeback_hit 0
Core_0_STLB_writeback_miss 0
Core_0_STLB_writeback_MPKI 0
Core_0_STLB_writeback_miss_rate 0
Core_0_STLB_prefetch_requested 0
Core_0_STLB_prefetch_issued 0
Core_0_STLB_prefetch_useful 0
Core_0_STLB_prefetch_useless 0
Core_0_STLB_prefetch_late 0
Core_0_STLB_prefetch_accuracy 0
Core_0_STLB_prefetch_coverage 0
Core_0_STLB_total_eviction 1195393

Core_0_L1I_total_access 2913316
Core_0_L1I_total_hit 2913316
Core_0_L1I_total_miss 0
Core_0_L1I_total_MPKI 0
Core_0_L1I_total_miss_rate 0
Core_0_L1I_demand_access 2913316
Core_0_L1I_demand_hit 2913316
Core_0_L1I_demand_miss 0
Core_0_L1I_demand_MPKI 0
Core_0_L1I_demand_miss_rate 0
Core_0_L1I_load_access 2913316
Core_0_L1I_load_hit 2913316
Core_0_L1I_load_miss 0
Core_0_L1I_load_MPKI 0
Core_0_L1I_load_miss_rate 0
Core_0_L1I_rfo_access 0
Core_0_L1I_rfo_hit 0
Core_0_L1I_rfo_miss 0
Core_0_L1I_rfo_MPKI 0
Core_0_L1I_rfo_miss_rate 0
Core_0_L1I_prefetch_access 0
Core_0_L1I_prefetch_hit 0
Core_0_L1I_prefetch_miss 0
Core_0_L1I_prefetch_MPKI 0
Core_0_L1I_prefetch_miss_rate 0
Core_0_L1I_writeback_access 0
Core_0_L1I_writeback_hit 0
Core_0_L1I_writeback_miss 0
Core_0_L1I_writeback_MPKI 0
Core_0_L1I_writeback_miss_rate 0
Core_0_L1I_prefetch_requested 0
Core_0_L1I_prefetch_issued 0
Core_0_L1I_prefetch_useful 0
Core_0_L1I_prefetch_useless 0
Core_0_L1I_prefetch_late 0
Core_0_L1I_prefetch_accuracy 0
Core_0_L1I_prefetch_coverage 0
Core_0_L1I_total_eviction 0

Core_0_L1D_total_access 37517762
Core_0_L1D_total_hit 22704009
Core_0_L1D_total_miss 14813753
Core_0_L1D_total_MPKI 296.275
Core_0_L1D_total_miss_rate 0.394846
Core_0_L1D_demand_access 13428067
Core_0_L1D_demand_hit 11997829
Core_0_L1D_demand_miss 1430238
Core_0_L1D_demand_MPKI 28.6048
Core_0_L1D_demand_miss_rate 0.106511
Core_0_L1D_load_access 13428067
Core_0_L1D_load_hit 11997829
Core_0_L1D_load_miss 1430238
Core_0_L1D_load_MPKI 28.6048
Core_0_L1D_load_miss_rate 0.106511
Core_0_L1D_rfo_access 0
Core_0_L1D_rfo_hit 0
Core_0_L1D_rfo_miss 0
Core_0_L1D_rfo_MPKI 0
Core_0_L1D_rfo_miss_rate 0
Core_0_L1D_prefetch_access 6597446
Core_0_L1D_prefetch_hit 3049228
Core_0_L1D_prefetch_miss 3548218
Core_0_L1D_prefetch_MPKI 70.9644
Core_0_L1D_prefetch_miss_rate 0.537817
Core_0_L1D_writeback_access 17492249
Core_0_L1D_writeback_hit 7656952
Core_0_L1D_writeback_miss 9835297
Core_0_L1D_writeback_MPKI 196.706
Core_0_L1D_writeback_miss_rate 0.562266
Core_0_L1D_prefetch_requested 54281498
Core_0_L1D_prefetch_issued 6597438
Core_0_L1D_prefetch_useful 1035792
Core_0_L1D_prefetch_useless 4351
Core_0_L1D_prefetch_late 36865
Core_0_L1D_prefetch_accuracy 0.156999
Core_0_L1D_prefetch_coverage 0.420024
Core_0_L1D_total_eviction 4517410

Core_0_L2C_total_access 15408241
Core_0_L2C_total_hit 7011191
Core_0_L2C_total_miss 8397050
Core_0_L2C_total_MPKI 167.941
Core_0_L2C_total_miss_rate 0.544971
Core_0_L2C_demand_access 3466770
Core_0_L2C_demand_hit 527739
Core_0_L2C_demand_miss 2939031
Core_0_L2C_demand_MPKI 58.7806
Core_0_L2C_demand_miss_rate 0.847772
Core_0_L2C_load_access 1280223
Core_0_L2C_load_hit 527628
Core_0_L2C_load_miss 752595
Core_0_L2C_load_MPKI 15.0519
Core_0_L2C_load_miss_rate 0.587862
Core_0_L2C_rfo_access 2186547
Core_0_L2C_rfo_hit 111
Core_0_L2C_rfo_miss 2186436
Core_0_L2C_rfo_MPKI 43.7287
Core_0_L2C_rfo_miss_rate 0.999949
Core_0_L2C_prefetch_access 7438891
Core_0_L2C_prefetch_hit 1982118
Core_0_L2C_prefetch_miss 5456773
Core_0_L2C_prefetch_MPKI 109.135
Core_0_L2C_prefetch_miss_rate 0.733547
Core_0_L2C_writeback_access 4502580
Core_0_L2C_writeback_hit 4501334
Core_0_L2C_writeback_miss 1246
Core_0_L2C_writeback_MPKI 0.02492
Core_0_L2C_writeback_miss_rate 0.00027673
Core_0_L2C_prefetch_requested 4022102
Core_0_L2C_prefetch_issued 3977374
Core_0_L2C_prefetch_useful 534114
Core_0_L2C_prefetch_useless 8680
Core_0_L2C_prefetch_late 5204
Core_0_L2C_prefetch_accuracy 0.134288
Core_0_L2C_prefetch_coverage 0.153784
Core_0_L2C_total_eviction 4385144

Core_0_LLC_total_access 9542166
Core_0_LLC_total_hit 2183720
Core_0_LLC_total_miss 7358446
Core_0_LLC_total_MPKI 147.169
Core_0_LLC_total_miss_rate 0.77115
Core_0_LLC_demand_access 2919181
Core_0_LLC_demand_hit 580292
Core_0_LLC_demand_miss 2338889
Core_0_LLC_demand_MPKI 46.7778
Core_0_LLC_demand_miss_rate 0.801214
Core_0_LLC_load_access 732745
Core_0_LLC_load_hit 571995
Core_0_LLC_load_miss 160750
Core_0_LLC_load_MPKI 3.215
Core_0_LLC_load_miss_rate 0.219381
Core_0_LLC_rfo_access 2186436
Core_0_LLC_rfo_hit 8297
Core_0_LLC_rfo_miss 2178139
Core_0_LLC_rfo_MPKI 43.5628
Core_0_LLC_rfo_miss_rate 0.996205
Core_0_LLC_prefetch_access 2435741
Core_0_LLC_prefetch_hit 299078
Core_0_LLC_prefetch_miss 2136663
Core_0_LLC_prefetch_MPKI 42.7333
Core_0_LLC_prefetch_miss_rate 0.877213
Core_0_LLC_writeback_access 4187244
Core_0_LLC_writeback_hit 1304350
Core_0_LLC_writeback_miss 2882894
Core_0_LLC_writeback_MPKI 57.6579
Core_0_LLC_writeback_miss_rate 0.688494
Core_0_LLC_prefetch_requested 0
Core_0_LLC_prefetch_issued 0
Core_0_LLC_prefetch_useful 0
Core_0_LLC_prefetch_useless 0
Core_0_LLC_prefetch_late 0
Core_0_LLC_prefetch_accuracy 0
Core_0_LLC_prefetch_coverage 0
Core_0_LLC_total_eviction 6606340

[DRAM Statistics]
Channel_0_RQ_row_buffer_hit 280265
Channel_0_RQ_row_buffer_miss 3442688
Channel_0_WQ_row_buffer_hit 448943
Channel_0_WQ_row_buffer_miss 3130313
Channel_0_WQ_full 5655
Channel_0_dbus_congested 28811003
DRAM_total_RQ_row_buffer_hit 280265
DRAM_total_RQ_row_buffer_miss 3442688
DRAM_total_WQ_row_buffer_hit 448943
DRAM_total_WQ_row_buffer_miss 3130313
DRAM_total_WQ_full 5655
DRAM_total_dbus_congested 28811003
DRAM_avg_congested_cycle 7.40804

======STLB miss causes ========
Core_0_STLB_miss_cause_breakdown
Core_0_STLB_cause_Demand_Data_miss 0
Core_0_STLB_cause_Demand_Data_miss_rate 0
Core_0_STLB_cause_Demand_Instruction_miss 0
Core_0_STLB_cause_Demand_Instruction_miss_rate 0
Core_0_STLB_cause_L1D_Prefetch_miss 30202
Core_0_STLB_cause_L1D_Prefetch_miss_rate 0.0204404
Core_0_STLB_cause_L1I_Prefetch_miss 0
Core_0_STLB_cause_L1I_Prefetch_miss_rate 0
Core_0_STLB_cause_Other_miss 0
Core_0_STLB_cause_Other_miss_rate 0
Core_0_STLB_Demand_miss 0
Core_0_STLB_Demand_miss_rate 0
Core_0_STLB_L1D_Prefetch_miss 30202
Core_0_STLB_L1D_Prefetch_miss_rate 0.0204404
Core_0_STLB_Other_miss 0
Core_0_STLB_Other_miss_rate 0
BERTI TO_L1: 10616993 TO_L2: 50980349 TO_L2_BC_MSHR: 31208669
BERTI AVG_LAT: 336.769 NUM_TRACK_LATENCY: 6259524 NUM_CANT_TRACK_LATENCY: 866
BERTI CROSS_PAGE 10299913 NO_CROSS_PAGE: 51297429
BERTI FOUND_BERTI: 88786893 NO_FOUND_BERTI: 12999756
BERTI AVERAGE_ISSUED: 3.68123
