[VMEM] WARNING: physical memory size is smaller than virtual memory size.

*** ChampSim Multicore Out-of-Order Simulator ***
Warmup Instructions: 20000000
Simulation Instructions: 50000000
Number of CPUs: 1
Page size: 4096
STLB ideal mode: demand
STLB ideal fill: on
Core 0: /data0/tzh/champsim_traces/SPEC17/605.mcf_s-994B.champsimtrace.xz
VBerti Prefetcher
BERTI HASH ENTANGLING
BERTI IP MASK ffff
Off-chip DRAM Size: 16 GiB Channels: 1 Width: 64-bit Data Rate: 3205 MT/s
Warmup halting CPU 0 at instruction 20000004 cycle 4651747 for remainder of phase
Warmup finished CPU 0 instructions: 20000004 cycles: 4651747 cumulative IPC: 4.299 (Simulation time: 00 hr 01 min 00 sec)
Warmup complete CPU 0 instructions: 20000004 cycles: 4651747 cumulative IPC: 4.299 (Simulation time: 00 hr 01 min 00 sec)
Simulation finished CPU 0 instructions: 50000001 cycles: 116939443 cumulative IPC: 0.4276 (Simulation time: 00 hr 10 min 12 sec)
Simulation complete CPU 0 instructions: 50000001 cycles: 116939443 cumulative IPC: 0.4276 (Simulation time: 00 hr 10 min 12 sec)

ChampSim completed all CPUs

=== Simulation ===
CPU 0 runs /data0/tzh/champsim_traces/SPEC17/605.mcf_s-994B.champsimtrace.xz

Region of Interest Statistics

CPU 0 cumulative IPC: 0.4276 instructions: 50000001 cycles: 116939443
CPU 0 Branch Prediction Accuracy: 94.39% MPKI: 14.14 Average ROB Occupancy at Mispredict: 47.39
Branch type MPKI
BRANCH_DIRECT_JUMP: 0.1366
BRANCH_INDIRECT: 0
BRANCH_CONDITIONAL: 14
BRANCH_DIRECT_CALL: 0
BRANCH_INDIRECT_CALL: 0.00264
BRANCH_RETURN: 4e-05

cpu0->cpu0_STLB TOTAL        ACCESS:     810678 HIT:     809466 MISS:       1212 MSHR_MERGE:          0
cpu0->cpu0_STLB LOAD         ACCESS:     810678 HIT:     809466 MISS:       1212 MSHR_MERGE:          0
cpu0->cpu0_STLB RFO          ACCESS:          0 HIT:          0 MISS:          0 MSHR_MERGE:          0
cpu0->cpu0_STLB PREFETCH     ACCESS:          0 HIT:          0 MISS:          0 MSHR_MERGE:          0
cpu0->cpu0_STLB WRITE        ACCESS:          0 HIT:          0 MISS:          0 MSHR_MERGE:          0
cpu0->cpu0_STLB TRANSLATION  ACCESS:          0 HIT:          0 MISS:          0 MSHR_MERGE:          0
cpu0->cpu0_STLB PREFETCH REQUESTED:          0 ISSUED:          0 USEFUL:          0 USELESS:          0 LATE:          0
cpu0->cpu0_STLB AVERAGE MISS LATENCY: 129.8 cycles
cpu0->cpu0_L2C TOTAL        ACCESS:    4304469 HIT:    3118207 MISS:    1186262 MSHR_MERGE:      12582
cpu0->cpu0_L2C LOAD         ACCESS:    1696840 HIT:     610579 MISS:    1086261 MSHR_MERGE:         11
cpu0->cpu0_L2C RFO          ACCESS:       8374 HIT:       7864 MISS:        510 MSHR_MERGE:          6
cpu0->cpu0_L2C PREFETCH     ACCESS:    2470314 HIT:    2371263 MISS:      99051 MSHR_MERGE:      12565
cpu0->cpu0_L2C WRITE        ACCESS:     127741 HIT:     127593 MISS:        148 MSHR_MERGE:          0
cpu0->cpu0_L2C TRANSLATION  ACCESS:       1200 HIT:        908 MISS:        292 MSHR_MERGE:          0
cpu0->cpu0_L2C PREFETCH REQUESTED:     941247 ISSUED:     940577 USEFUL:      51071 USELESS:        445 LATE:         12
cpu0->cpu0_L2C AVERAGE MISS LATENCY: 186.8 cycles
cpu0->cpu0_L1I TOTAL        ACCESS:      38542 HIT:      38542 MISS:          0 MSHR_MERGE:          0
cpu0->cpu0_L1I LOAD         ACCESS:      38542 HIT:      38542 MISS:          0 MSHR_MERGE:          0
cpu0->cpu0_L1I RFO          ACCESS:          0 HIT:          0 MISS:          0 MSHR_MERGE:          0
cpu0->cpu0_L1I PREFETCH     ACCESS:          0 HIT:          0 MISS:          0 MSHR_MERGE:          0
cpu0->cpu0_L1I WRITE        ACCESS:          0 HIT:          0 MISS:          0 MSHR_MERGE:          0
cpu0->cpu0_L1I TRANSLATION  ACCESS:          0 HIT:          0 MISS:          0 MSHR_MERGE:          0
cpu0->cpu0_L1I PREFETCH REQUESTED:          0 ISSUED:          0 USEFUL:          0 USELESS:          0 LATE:          0
cpu0->cpu0_L1I AVERAGE MISS LATENCY: - cycles
cpu0->cpu0_L1D TOTAL        ACCESS:   27480544 HIT:   24162617 MISS:    3317927 MSHR_MERGE:      72803
cpu0->cpu0_L1D LOAD         ACCESS:   14131223 HIT:   12380750 MISS:    1750473 MSHR_MERGE:      53634
cpu0->cpu0_L1D RFO          ACCESS:          0 HIT:          0 MISS:          0 MSHR_MERGE:          0
cpu0->cpu0_L1D PREFETCH     ACCESS:    8269885 HIT:    6724741 MISS:    1545144 MSHR_MERGE:       6449
cpu0->cpu0_L1D WRITE        ACCESS:    5076982 HIT:    5055873 MISS:      21109 MSHR_MERGE:      12719
cpu0->cpu0_L1D TRANSLATION  ACCESS:       2454 HIT:       1253 MISS:       1201 MSHR_MERGE:          1
cpu0->cpu0_L1D PREFETCH REQUESTED:   12664656 ISSUED:    8269878 USEFUL:      78851 USELESS:       4858 LATE:         81
cpu0->cpu0_L1D AVERAGE MISS LATENCY: 127.7 cycles
cpu0->cpu0_ITLB TOTAL        ACCESS:      34059 HIT:      34059 MISS:          0 MSHR_MERGE:          0
cpu0->cpu0_ITLB LOAD         ACCESS:      34059 HIT:      34059 MISS:          0 MSHR_MERGE:          0
cpu0->cpu0_ITLB RFO          ACCESS:          0 HIT:          0 MISS:          0 MSHR_MERGE:          0
cpu0->cpu0_ITLB PREFETCH     ACCESS:          0 HIT:          0 MISS:          0 MSHR_MERGE:          0
cpu0->cpu0_ITLB WRITE        ACCESS:          0 HIT:          0 MISS:          0 MSHR_MERGE:          0
cpu0->cpu0_ITLB TRANSLATION  ACCESS:          0 HIT:          0 MISS:          0 MSHR_MERGE:          0
cpu0->cpu0_ITLB PREFETCH REQUESTED:          0 ISSUED:          0 USEFUL:          0 USELESS:          0 LATE:          0
cpu0->cpu0_ITLB AVERAGE MISS LATENCY: - cycles
cpu0->cpu0_DTLB TOTAL        ACCESS:   24095197 HIT:   23246480 MISS:     848717 MSHR_MERGE:      38039
cpu0->cpu0_DTLB LOAD         ACCESS:   24095197 HIT:   23246480 MISS:     848717 MSHR_MERGE:      38039
cpu0->cpu0_DTLB RFO          ACCESS:          0 HIT:          0 MISS:          0 MSHR_MERGE:          0
cpu0->cpu0_DTLB PREFETCH     ACCESS:          0 HIT:          0 MISS:          0 MSHR_MERGE:          0
cpu0->cpu0_DTLB WRITE        ACCESS:          0 HIT:          0 MISS:          0 MSHR_MERGE:          0
cpu0->cpu0_DTLB TRANSLATION  ACCESS:          0 HIT:          0 MISS:          0 MSHR_MERGE:          0
cpu0->cpu0_DTLB PREFETCH REQUESTED:          0 ISSUED:          0 USEFUL:          0 USELESS:          0 LATE:          0
cpu0->cpu0_DTLB AVERAGE MISS LATENCY: 5.199 cycles
cpu0->LLC TOTAL        ACCESS:    1257364 HIT:     343155 MISS:     914209 MSHR_MERGE:        130
cpu0->LLC LOAD         ACCESS:    1086250 HIT:     243057 MISS:     843193 MSHR_MERGE:          1
cpu0->LLC RFO          ACCESS:        504 HIT:        297 MISS:        207 MSHR_MERGE:          0
cpu0->LLC PREFETCH     ACCESS:      86486 HIT:      30372 MISS:      56114 MSHR_MERGE:        129
cpu0->LLC WRITE        ACCESS:      83832 HIT:      69341 MISS:      14491 MSHR_MERGE:          0
cpu0->LLC TRANSLATION  ACCESS:        292 HIT:         88 MISS:        204 MSHR_MERGE:          0
cpu0->LLC PREFETCH REQUESTED:          0 ISSUED:          0 USEFUL:          0 USELESS:          0 LATE:          0
cpu0->LLC AVERAGE MISS LATENCY: 216.8 cycles

DRAM Statistics

Channel 0 RQ ROW_BUFFER_HIT:        960
  ROW_BUFFER_MISS:     898486
  AVG DBUS CONGESTED CYCLE: 6.633
Channel 0 WQ ROW_BUFFER_HIT:      16707
  ROW_BUFFER_MISS:      37292
  FULL:          0
Channel 0 REFRESHES ISSUED:       9745

[ROI Statistics]
[System Configuration]
num_cpus 1
cpu_freq 4000
fetch_width 6
decode_width 6
dispatch_width 6
execute_width 6
lq_width 2
sq_width 2
retire_width 6
scheduler_size 128
branch_mispredict_penalty 15
rob_size 352
lq_size 128
sq_size 72
ifetch_buffer_size 64
decode_buffer_size 32
dispatch_buffer_size 32
register_file_size 288
decode_latency 1
dispatch_latency 1
schedule_latency 1
execute_latency 1
page_size 4096
block_size 64
core_0_itlb_set 16
core_0_itlb_way 4
core_0_itlb_rq_size 16
core_0_itlb_wq_size 16
core_0_itlb_pq_size 0
core_0_itlb_mshr_size 8
core_0_itlb_hit_latency 1
core_0_itlb_fill_latency 1
core_0_itlb_max_tag_check 2
core_0_itlb_max_fill 2
core_0_dtlb_set 16
core_0_dtlb_way 4
core_0_dtlb_rq_size 16
core_0_dtlb_wq_size 16
core_0_dtlb_pq_size 0
core_0_dtlb_mshr_size 8
core_0_dtlb_hit_latency 1
core_0_dtlb_fill_latency 1
core_0_dtlb_max_tag_check 2
core_0_dtlb_max_fill 2
core_0_stlb_set 128
core_0_stlb_way 12
core_0_stlb_rq_size 32
core_0_stlb_wq_size 32
core_0_stlb_pq_size 0
core_0_stlb_mshr_size 16
core_0_stlb_hit_latency 4
core_0_stlb_fill_latency 4
core_0_stlb_max_tag_check 1
core_0_stlb_max_fill 1
core_0_l1i_set 64
core_0_l1i_way 8
core_0_l1i_rq_size 64
core_0_l1i_wq_size 64
core_0_l1i_pq_size 32
core_0_l1i_mshr_size 8
core_0_l1i_hit_latency 2
core_0_l1i_fill_latency 2
core_0_l1i_max_tag_check 2
core_0_l1i_max_fill 2
core_0_l1d_set 64
core_0_l1d_way 12
core_0_l1d_rq_size 64
core_0_l1d_wq_size 64
core_0_l1d_pq_size 8
core_0_l1d_mshr_size 16
core_0_l1d_hit_latency 2
core_0_l1d_fill_latency 3
core_0_l1d_max_tag_check 2
core_0_l1d_max_fill 2
core_0_l2c_set 1024
core_0_l2c_way 8
core_0_l2c_rq_size 32
core_0_l2c_wq_size 32
core_0_l2c_pq_size 16
core_0_l2c_mshr_size 32
core_0_l2c_hit_latency 5
core_0_l2c_fill_latency 5
core_0_l2c_max_tag_check 1
core_0_l2c_max_fill 1
llc_set 2048
llc_way 16
llc_rq_size 32
llc_wq_size 32
llc_pq_size 32
llc_mshr_size 64
llc_hit_latency 10
llc_fill_latency 10
llc_max_tag_check 1
llc_max_fill 1
dram_channels 1
dram_ranks 1
dram_bankgroups 8
dram_banks 4
dram_rows 65536
dram_columns 1024
dram_channel_width 8
dram_rq_size 64
dram_wq_size 64
dram_size 17179869184
core_0_itlb_prefetcher no
core_0_dtlb_prefetcher no
core_0_stlb_prefetcher no
core_0_l1i_prefetcher next_line
core_0_l1d_prefetcher vberti
core_0_l2c_prefetcher ip_stride
llc_prefetcher no
llc_replacement drrip

Core_0_instructions 50000001
Core_0_cycles 116939443
Core_0_IPC 0.427572
Core_0_branch_prediction_accuracy 94.391
Core_0_branch_MPKI 14.1351
Core_0_average_ROB_occupancy_at_mispredict 47.3873

Core_0_ITLB_total_access 34059
Core_0_ITLB_total_hit 34059
Core_0_ITLB_total_miss 0
Core_0_ITLB_total_MPKI 0
Core_0_ITLB_total_miss_rate 0
Core_0_ITLB_demand_access 34059
Core_0_ITLB_demand_hit 34059
Core_0_ITLB_demand_miss 0
Core_0_ITLB_demand_MPKI 0
Core_0_ITLB_demand_miss_rate 0
Core_0_ITLB_load_access 34059
Core_0_ITLB_load_hit 34059
Core_0_ITLB_load_miss 0
Core_0_ITLB_load_MPKI 0
Core_0_ITLB_load_miss_rate 0
Core_0_ITLB_rfo_access 0
Core_0_ITLB_rfo_hit 0
Core_0_ITLB_rfo_miss 0
Core_0_ITLB_rfo_MPKI 0
Core_0_ITLB_rfo_miss_rate 0
Core_0_ITLB_prefetch_access 0
Core_0_ITLB_prefetch_hit 0
Core_0_ITLB_prefetch_miss 0
Core_0_ITLB_prefetch_MPKI 0
Core_0_ITLB_prefetch_miss_rate 0
Core_0_ITLB_writeback_access 0
Core_0_ITLB_writeback_hit 0
Core_0_ITLB_writeback_miss 0
Core_0_ITLB_writeback_MPKI 0
Core_0_ITLB_writeback_miss_rate 0
Core_0_ITLB_prefetch_requested 0
Core_0_ITLB_prefetch_issued 0
Core_0_ITLB_prefetch_useful 0
Core_0_ITLB_prefetch_useless 0
Core_0_ITLB_prefetch_late 0
Core_0_ITLB_prefetch_accuracy 0
Core_0_ITLB_prefetch_coverage 0
Core_0_ITLB_total_eviction 0

Core_0_DTLB_total_access 24095197
Core_0_DTLB_total_hit 23246480
Core_0_DTLB_total_miss 848717
Core_0_DTLB_total_MPKI 16.9743
Core_0_DTLB_total_miss_rate 0.0352235
Core_0_DTLB_demand_access 24095197
Core_0_DTLB_demand_hit 23246480
Core_0_DTLB_demand_miss 848717
Core_0_DTLB_demand_MPKI 16.9743
Core_0_DTLB_demand_miss_rate 0.0352235
Core_0_DTLB_load_access 24095197
Core_0_DTLB_load_hit 23246480
Core_0_DTLB_load_miss 848717
Core_0_DTLB_load_MPKI 16.9743
Core_0_DTLB_load_miss_rate 0.0352235
Core_0_DTLB_rfo_access 0
Core_0_DTLB_rfo_hit 0
Core_0_DTLB_rfo_miss 0
Core_0_DTLB_rfo_MPKI 0
Core_0_DTLB_rfo_miss_rate 0
Core_0_DTLB_prefetch_access 0
Core_0_DTLB_prefetch_hit 0
Core_0_DTLB_prefetch_miss 0
Core_0_DTLB_prefetch_MPKI 0
Core_0_DTLB_prefetch_miss_rate 0
Core_0_DTLB_writeback_access 0
Core_0_DTLB_writeback_hit 0
Core_0_DTLB_writeback_miss 0
Core_0_DTLB_writeback_MPKI 0
Core_0_DTLB_writeback_miss_rate 0
Core_0_DTLB_prefetch_requested 0
Core_0_DTLB_prefetch_issued 0
Core_0_DTLB_prefetch_useful 0
Core_0_DTLB_prefetch_useless 0
Core_0_DTLB_prefetch_late 0
Core_0_DTLB_prefetch_accuracy 0
Core_0_DTLB_prefetch_coverage 0
Core_0_DTLB_total_eviction 810678

Core_0_STLB_total_access 810678
Core_0_STLB_total_hit 809466
Core_0_STLB_total_miss 1212
Core_0_STLB_total_MPKI 0.02424
Core_0_STLB_total_miss_rate 0.00149504
Core_0_STLB_demand_access 810678
Core_0_STLB_demand_hit 809466
Core_0_STLB_demand_miss 1212
Core_0_STLB_demand_MPKI 0.02424
Core_0_STLB_demand_miss_rate 0.00149504
Core_0_STLB_load_access 810678
Core_0_STLB_load_hit 809466
Core_0_STLB_load_miss 1212
Core_0_STLB_load_MPKI 0.02424
Core_0_STLB_load_miss_rate 0.00149504
Core_0_STLB_rfo_access 0
Core_0_STLB_rfo_hit 0
Core_0_STLB_rfo_miss 0
Core_0_STLB_rfo_MPKI 0
Core_0_STLB_rfo_miss_rate 0
Core_0_STLB_prefetch_access 0
Core_0_STLB_prefetch_hit 0
Core_0_STLB_prefetch_miss 0
Core_0_STLB_prefetch_MPKI 0
Core_0_STLB_prefetch_miss_rate 0
Core_0_STLB_writeback_access 0
Core_0_STLB_writeback_hit 0
Core_0_STLB_writeback_miss 0
Core_0_STLB_writeback_MPKI 0
Core_0_STLB_writeback_miss_rate 0
Core_0_STLB_prefetch_requested 0
Core_0_STLB_prefetch_issued 0
Core_0_STLB_prefetch_useful 0
Core_0_STLB_prefetch_useless 0
Core_0_STLB_prefetch_late 0
Core_0_STLB_prefetch_accuracy 0
Core_0_STLB_prefetch_coverage 0
Core_0_STLB_total_eviction 440648

Core_0_L1I_total_access 38542
Core_0_L1I_total_hit 38542
Core_0_L1I_total_miss 0
Core_0_L1I_total_MPKI 0
Core_0_L1I_total_miss_rate 0
Core_0_L1I_demand_access 38542
Core_0_L1I_demand_hit 38542
Core_0_L1I_demand_miss 0
Core_0_L1I_demand_MPKI 0
Core_0_L1I_demand_miss_rate 0
Core_0_L1I_load_access 38542
Core_0_L1I_load_hit 38542
Core_0_L1I_load_miss 0
Core_0_L1I_load_MPKI 0
Core_0_L1I_load_miss_rate 0
Core_0_L1I_rfo_access 0
Core_0_L1I_rfo_hit 0
Core_0_L1I_rfo_miss 0
Core_0_L1I_rfo_MPKI 0
Core_0_L1I_rfo_miss_rate 0
Core_0_L1I_prefetch_access 0
Core_0_L1I_prefetch_hit 0
Core_0_L1I_prefetch_miss 0
Core_0_L1I_prefetch_MPKI 0
Core_0_L1I_prefetch_miss_rate 0
Core_0_L1I_writeback_access 0
Core_0_L1I_writeback_hit 0
Core_0_L1I_writeback_miss 0
Core_0_L1I_writeback_MPKI 0
Core_0_L1I_writeback_miss_rate 0
Core_0_L1I_prefetch_requested 0
Core_0_L1I_prefetch_issued 0
Core_0_L1I_prefetch_useful 0
Core_0_L1I_prefetch_useless 0
Core_0_L1I_prefetch_late 0
Core_0_L1I_prefetch_accuracy 0
Core_0_L1I_prefetch_coverage 0
Core_0_L1I_total_eviction 0

Core_0_L1D_total_access 27478090
Core_0_L1D_total_hit 24161364
Core_0_L1D_total_miss 3316726
Core_0_L1D_total_MPKI 66.3345
Core_0_L1D_total_miss_rate 0.120704
Core_0_L1D_demand_access 14131223
Core_0_L1D_demand_hit 12380750
Core_0_L1D_demand_miss 1750473
Core_0_L1D_demand_MPKI 35.0095
Core_0_L1D_demand_miss_rate 0.123873
Core_0_L1D_load_access 14131223
Core_0_L1D_load_hit 12380750
Core_0_L1D_load_miss 1750473
Core_0_L1D_load_MPKI 35.0095
Core_0_L1D_load_miss_rate 0.123873
Core_0_L1D_rfo_access 0
Core_0_L1D_rfo_hit 0
Core_0_L1D_rfo_miss 0
Core_0_L1D_rfo_MPKI 0
Core_0_L1D_rfo_miss_rate 0
Core_0_L1D_prefetch_access 8269885
Core_0_L1D_prefetch_hit 6724741
Core_0_L1D_prefetch_miss 1545144
Core_0_L1D_prefetch_MPKI 30.9029
Core_0_L1D_prefetch_miss_rate 0.18684
Core_0_L1D_writeback_access 5076982
Core_0_L1D_writeback_hit 5055873
Core_0_L1D_writeback_miss 21109
Core_0_L1D_writeback_MPKI 0.42218
Core_0_L1D_writeback_miss_rate 0.00415779
Core_0_L1D_prefetch_requested 12664656
Core_0_L1D_prefetch_issued 8269878
Core_0_L1D_prefetch_useful 78851
Core_0_L1D_prefetch_useless 4858
Core_0_L1D_prefetch_late 81
Core_0_L1D_prefetch_accuracy 0.00953472
Core_0_L1D_prefetch_coverage 0.0431039
Core_0_L1D_total_eviction 1790138

Core_0_L2C_total_access 4303269
Core_0_L2C_total_hit 3117299
Core_0_L2C_total_miss 1185970
Core_0_L2C_total_MPKI 23.7194
Core_0_L2C_total_miss_rate 0.275597
Core_0_L2C_demand_access 1705214
Core_0_L2C_demand_hit 618443
Core_0_L2C_demand_miss 1086771
Core_0_L2C_demand_MPKI 21.7354
Core_0_L2C_demand_miss_rate 0.637322
Core_0_L2C_load_access 1696840
Core_0_L2C_load_hit 610579
Core_0_L2C_load_miss 1086261
Core_0_L2C_load_MPKI 21.7252
Core_0_L2C_load_miss_rate 0.640167
Core_0_L2C_rfo_access 8374
Core_0_L2C_rfo_hit 7864
Core_0_L2C_rfo_miss 510
Core_0_L2C_rfo_MPKI 0.0102
Core_0_L2C_rfo_miss_rate 0.0609028
Core_0_L2C_prefetch_access 2470314
Core_0_L2C_prefetch_hit 2371263
Core_0_L2C_prefetch_miss 99051
Core_0_L2C_prefetch_MPKI 1.98102
Core_0_L2C_prefetch_miss_rate 0.0400965
Core_0_L2C_writeback_access 127741
Core_0_L2C_writeback_hit 127593
Core_0_L2C_writeback_miss 148
Core_0_L2C_writeback_MPKI 0.00296
Core_0_L2C_writeback_miss_rate 0.00115859
Core_0_L2C_prefetch_requested 941247
Core_0_L2C_prefetch_issued 940577
Core_0_L2C_prefetch_useful 51071
Core_0_L2C_prefetch_useless 445
Core_0_L2C_prefetch_late 12
Core_0_L2C_prefetch_accuracy 0.0542975
Core_0_L2C_prefetch_coverage 0.0448841
Core_0_L2C_total_eviction 1173269

Core_0_LLC_total_access 1257072
Core_0_LLC_total_hit 343067
Core_0_LLC_total_miss 914005
Core_0_LLC_total_MPKI 18.2801
Core_0_LLC_total_miss_rate 0.72709
Core_0_LLC_demand_access 1086754
Core_0_LLC_demand_hit 243354
Core_0_LLC_demand_miss 843400
Core_0_LLC_demand_MPKI 16.868
Core_0_LLC_demand_miss_rate 0.776073
Core_0_LLC_load_access 1086250
Core_0_LLC_load_hit 243057
Core_0_LLC_load_miss 843193
Core_0_LLC_load_MPKI 16.8639
Core_0_LLC_load_miss_rate 0.776242
Core_0_LLC_rfo_access 504
Core_0_LLC_rfo_hit 297
Core_0_LLC_rfo_miss 207
Core_0_LLC_rfo_MPKI 0.00414
Core_0_LLC_rfo_miss_rate 0.410714
Core_0_LLC_prefetch_access 86486
Core_0_LLC_prefetch_hit 30372
Core_0_LLC_prefetch_miss 56114
Core_0_LLC_prefetch_MPKI 1.12228
Core_0_LLC_prefetch_miss_rate 0.648822
Core_0_LLC_writeback_access 83832
Core_0_LLC_writeback_hit 69341
Core_0_LLC_writeback_miss 14491
Core_0_LLC_writeback_MPKI 0.28982
Core_0_LLC_writeback_miss_rate 0.172858
Core_0_LLC_prefetch_requested 0
Core_0_LLC_prefetch_issued 0
Core_0_LLC_prefetch_useful 0
Core_0_LLC_prefetch_useless 0
Core_0_LLC_prefetch_late 0
Core_0_LLC_prefetch_accuracy 0
Core_0_LLC_prefetch_coverage 0
Core_0_LLC_total_eviction 914079

[DRAM Statistics]
Channel_0_RQ_row_buffer_hit 960
Channel_0_RQ_row_buffer_miss 898486
Channel_0_WQ_row_buffer_hit 16707
Channel_0_WQ_row_buffer_miss 37292
Channel_0_WQ_full 0
Channel_0_dbus_congested 1736711
DRAM_total_RQ_row_buffer_hit 960
DRAM_total_RQ_row_buffer_miss 898486
DRAM_total_WQ_row_buffer_hit 16707
DRAM_total_WQ_row_buffer_miss 37292
DRAM_total_WQ_full 0
DRAM_total_dbus_congested 1736711
DRAM_avg_congested_cycle 6.63322

======STLB miss causes ========
Core_0_STLB_miss_cause_breakdown
Core_0_STLB_cause_Demand_Data_miss 0
Core_0_STLB_cause_Demand_Data_miss_rate 0
Core_0_STLB_cause_Demand_Instruction_miss 0
Core_0_STLB_cause_Demand_Instruction_miss_rate 0
Core_0_STLB_cause_L1D_Prefetch_miss 1212
Core_0_STLB_cause_L1D_Prefetch_miss_rate 0.00149504
Core_0_STLB_cause_L1I_Prefetch_miss 0
Core_0_STLB_cause_L1I_Prefetch_miss_rate 0
Core_0_STLB_cause_Other_miss 0
Core_0_STLB_cause_Other_miss_rate 0
Core_0_STLB_Demand_miss 0
Core_0_STLB_Demand_miss_rate 0
Core_0_STLB_L1D_Prefetch_miss 1212
Core_0_STLB_L1D_Prefetch_miss_rate 0.00149504
Core_0_STLB_Other_miss 0
Core_0_STLB_Other_miss_rate 0
BERTI TO_L1: 4704380 TO_L2: 9865642 TO_L2_BC_MSHR: 12159
BERTI AVG_LAT: 95.0833 NUM_TRACK_LATENCY: 2384309 NUM_CANT_TRACK_LATENCY: 0
BERTI CROSS_PAGE 1217696 NO_CROSS_PAGE: 13352326
BERTI FOUND_BERTI: 13017265 NO_FOUND_BERTI: 10726051
BERTI AVERAGE_ISSUED: 2.81435
