[VMEM] WARNING: physical memory size is smaller than virtual memory size.

*** ChampSim Multicore Out-of-Order Simulator ***
Warmup Instructions: 20000000
Simulation Instructions: 50000000
Number of CPUs: 1
Page size: 4096
STLB ideal mode: demand
STLB ideal fill: on
Core 0: /data2/zcq/gap_dpc/bfs-8.trace.gz
VBerti Prefetcher
BERTI HASH ENTANGLING
BERTI IP MASK ffff
Off-chip DRAM Size: 16 GiB Channels: 1 Width: 64-bit Data Rate: 3205 MT/s
Warmup halting CPU 0 at instruction 20000005 cycle 4074478 for remainder of phase
Warmup finished CPU 0 instructions: 20000005 cycles: 4074478 cumulative IPC: 4.909 (Simulation time: 00 hr 01 min 01 sec)
Warmup complete CPU 0 instructions: 20000005 cycles: 4074478 cumulative IPC: 4.909 (Simulation time: 00 hr 01 min 01 sec)
Simulation finished CPU 0 instructions: 50000001 cycles: 95427369 cumulative IPC: 0.524 (Simulation time: 00 hr 08 min 07 sec)
Simulation complete CPU 0 instructions: 50000001 cycles: 95427369 cumulative IPC: 0.524 (Simulation time: 00 hr 08 min 07 sec)

ChampSim completed all CPUs

=== Simulation ===
CPU 0 runs /data2/zcq/gap_dpc/bfs-8.trace.gz

Region of Interest Statistics

CPU 0 cumulative IPC: 0.524 instructions: 50000001 cycles: 95427369
CPU 0 Branch Prediction Accuracy: 88.89% MPKI: 24.24 Average ROB Occupancy at Mispredict: 14.41
Branch type MPKI
BRANCH_DIRECT_JUMP: 0.0001
BRANCH_INDIRECT: 2e-05
BRANCH_CONDITIONAL: 24.24
BRANCH_DIRECT_CALL: 0.00028
BRANCH_INDIRECT_CALL: 4e-05
BRANCH_RETURN: 0.00032

cpu0->cpu0_STLB TOTAL        ACCESS:     112435 HIT:     100352 MISS:      12083 MSHR_MERGE:          0
cpu0->cpu0_STLB LOAD         ACCESS:     112435 HIT:     100352 MISS:      12083 MSHR_MERGE:          0
cpu0->cpu0_STLB RFO          ACCESS:          0 HIT:          0 MISS:          0 MSHR_MERGE:          0
cpu0->cpu0_STLB PREFETCH     ACCESS:          0 HIT:          0 MISS:          0 MSHR_MERGE:          0
cpu0->cpu0_STLB WRITE        ACCESS:          0 HIT:          0 MISS:          0 MSHR_MERGE:          0
cpu0->cpu0_STLB TRANSLATION  ACCESS:          0 HIT:          0 MISS:          0 MSHR_MERGE:          0
cpu0->cpu0_STLB PREFETCH REQUESTED:          0 ISSUED:          0 USEFUL:          0 USELESS:          0 LATE:          0
cpu0->cpu0_STLB AVERAGE MISS LATENCY: 148.2 cycles
cpu0->cpu0_L2C TOTAL        ACCESS:    4372935 HIT:    2560028 MISS:    1812907 MSHR_MERGE:     686149
cpu0->cpu0_L2C LOAD         ACCESS:     704393 HIT:     368619 MISS:     335774 MSHR_MERGE:      14286
cpu0->cpu0_L2C RFO          ACCESS:       4865 HIT:       2306 MISS:       2559 MSHR_MERGE:         35
cpu0->cpu0_L2C PREFETCH     ACCESS:    3540830 HIT:    2069561 MISS:    1471269 MSHR_MERGE:     671828
cpu0->cpu0_L2C WRITE        ACCESS:     118811 HIT:     118804 MISS:          7 MSHR_MERGE:          0
cpu0->cpu0_L2C TRANSLATION  ACCESS:       4036 HIT:        738 MISS:       3298 MSHR_MERGE:          0
cpu0->cpu0_L2C PREFETCH REQUESTED:     899730 ISSUED:     898751 USEFUL:     182958 USELESS:      96200 LATE:       5957
cpu0->cpu0_L2C AVERAGE MISS LATENCY: 176 cycles
cpu0->cpu0_L1I TOTAL        ACCESS:    1839464 HIT:    1839450 MISS:         14 MSHR_MERGE:          0
cpu0->cpu0_L1I LOAD         ACCESS:    1839464 HIT:    1839450 MISS:         14 MSHR_MERGE:          0
cpu0->cpu0_L1I RFO          ACCESS:          0 HIT:          0 MISS:          0 MSHR_MERGE:          0
cpu0->cpu0_L1I PREFETCH     ACCESS:          0 HIT:          0 MISS:          0 MSHR_MERGE:          0
cpu0->cpu0_L1I WRITE        ACCESS:          0 HIT:          0 MISS:          0 MSHR_MERGE:          0
cpu0->cpu0_L1I TRANSLATION  ACCESS:          0 HIT:          0 MISS:          0 MSHR_MERGE:          0
cpu0->cpu0_L1I PREFETCH REQUESTED:          0 ISSUED:          0 USEFUL:          0 USELESS:          0 LATE:          0
cpu0->cpu0_L1I AVERAGE MISS LATENCY: 211.2 cycles
cpu0->cpu0_L1D TOTAL        ACCESS:   29314563 HIT:   25828382 MISS:    3486181 MSHR_MERGE:     113324
cpu0->cpu0_L1D LOAD         ACCESS:   10025054 HIT:    9243035 MISS:     782019 MSHR_MERGE:      77640
cpu0->cpu0_L1D RFO          ACCESS:          0 HIT:          0 MISS:          0 MSHR_MERGE:          0
cpu0->cpu0_L1D PREFETCH     ACCESS:   17804100 HIT:   15121029 MISS:    2683071 MSHR_MERGE:      23494
cpu0->cpu0_L1D WRITE        ACCESS:    1461191 HIT:    1444136 MISS:      17055 MSHR_MERGE:      12190
cpu0->cpu0_L1D TRANSLATION  ACCESS:      24218 HIT:      20182 MISS:       4036 MSHR_MERGE:          0
cpu0->cpu0_L1D PREFETCH REQUESTED:   59793892 ISSUED:   17804099 USEFUL:     477378 USELESS:       8660 LATE:       3224
cpu0->cpu0_L1D AVERAGE MISS LATENCY: 92.78 cycles
cpu0->cpu0_ITLB TOTAL        ACCESS:    1837104 HIT:    1837104 MISS:          0 MSHR_MERGE:          0
cpu0->cpu0_ITLB LOAD         ACCESS:    1837104 HIT:    1837104 MISS:          0 MSHR_MERGE:          0
cpu0->cpu0_ITLB RFO          ACCESS:          0 HIT:          0 MISS:          0 MSHR_MERGE:          0
cpu0->cpu0_ITLB PREFETCH     ACCESS:          0 HIT:          0 MISS:          0 MSHR_MERGE:          0
cpu0->cpu0_ITLB WRITE        ACCESS:          0 HIT:          0 MISS:          0 MSHR_MERGE:          0
cpu0->cpu0_ITLB TRANSLATION  ACCESS:          0 HIT:          0 MISS:          0 MSHR_MERGE:          0
cpu0->cpu0_ITLB PREFETCH REQUESTED:          0 ISSUED:          0 USEFUL:          0 USELESS:          0 LATE:          0
cpu0->cpu0_ITLB AVERAGE MISS LATENCY: - cycles
cpu0->cpu0_DTLB TOTAL        ACCESS:   22631037 HIT:   22495058 MISS:     135979 MSHR_MERGE:      23544
cpu0->cpu0_DTLB LOAD         ACCESS:   22631037 HIT:   22495058 MISS:     135979 MSHR_MERGE:      23544
cpu0->cpu0_DTLB RFO          ACCESS:          0 HIT:          0 MISS:          0 MSHR_MERGE:          0
cpu0->cpu0_DTLB PREFETCH     ACCESS:          0 HIT:          0 MISS:          0 MSHR_MERGE:          0
cpu0->cpu0_DTLB WRITE        ACCESS:          0 HIT:          0 MISS:          0 MSHR_MERGE:          0
cpu0->cpu0_DTLB TRANSLATION  ACCESS:          0 HIT:          0 MISS:          0 MSHR_MERGE:          0
cpu0->cpu0_DTLB PREFETCH REQUESTED:          0 ISSUED:          0 USEFUL:          0 USELESS:          0 LATE:          0
cpu0->cpu0_DTLB AVERAGE MISS LATENCY: 21.03 cycles
cpu0->LLC TOTAL        ACCESS:    1242359 HIT:     135557 MISS:    1106802 MSHR_MERGE:       1758
cpu0->LLC LOAD         ACCESS:     321488 HIT:      69403 MISS:     252085 MSHR_MERGE:          4
cpu0->LLC RFO          ACCESS:       2524 HIT:        115 MISS:       2409 MSHR_MERGE:          0
cpu0->LLC PREFETCH     ACCESS:     799441 HIT:      22052 MISS:     777389 MSHR_MERGE:       1754
cpu0->LLC WRITE        ACCESS:     115608 HIT:      43979 MISS:      71629 MSHR_MERGE:          0
cpu0->LLC TRANSLATION  ACCESS:       3298 HIT:          8 MISS:       3290 MSHR_MERGE:          0
cpu0->LLC PREFETCH REQUESTED:          0 ISSUED:          0 USEFUL:          0 USELESS:          0 LATE:          0
cpu0->LLC AVERAGE MISS LATENCY: 163.4 cycles

DRAM Statistics

Channel 0 RQ ROW_BUFFER_HIT:      91998
  ROW_BUFFER_MISS:     941394
  AVG DBUS CONGESTED CYCLE: 12.43
Channel 0 WQ ROW_BUFFER_HIT:      31827
  ROW_BUFFER_MISS:      80130
  FULL:          0
Channel 0 REFRESHES ISSUED:       7952

[ROI Statistics]
[System Configuration]
num_cpus 1
cpu_freq 4000
fetch_width 6
decode_width 6
dispatch_width 6
execute_width 6
lq_width 2
sq_width 2
retire_width 6
scheduler_size 128
branch_mispredict_penalty 15
rob_size 352
lq_size 128
sq_size 72
ifetch_buffer_size 64
decode_buffer_size 32
dispatch_buffer_size 32
register_file_size 288
decode_latency 1
dispatch_latency 1
schedule_latency 1
execute_latency 1
page_size 4096
block_size 64
core_0_itlb_set 16
core_0_itlb_way 4
core_0_itlb_rq_size 16
core_0_itlb_wq_size 16
core_0_itlb_pq_size 0
core_0_itlb_mshr_size 8
core_0_itlb_hit_latency 1
core_0_itlb_fill_latency 1
core_0_itlb_max_tag_check 2
core_0_itlb_max_fill 2
core_0_dtlb_set 16
core_0_dtlb_way 4
core_0_dtlb_rq_size 16
core_0_dtlb_wq_size 16
core_0_dtlb_pq_size 0
core_0_dtlb_mshr_size 8
core_0_dtlb_hit_latency 1
core_0_dtlb_fill_latency 1
core_0_dtlb_max_tag_check 2
core_0_dtlb_max_fill 2
core_0_stlb_set 128
core_0_stlb_way 12
core_0_stlb_rq_size 32
core_0_stlb_wq_size 32
core_0_stlb_pq_size 0
core_0_stlb_mshr_size 16
core_0_stlb_hit_latency 4
core_0_stlb_fill_latency 4
core_0_stlb_max_tag_check 1
core_0_stlb_max_fill 1
core_0_l1i_set 64
core_0_l1i_way 8
core_0_l1i_rq_size 64
core_0_l1i_wq_size 64
core_0_l1i_pq_size 32
core_0_l1i_mshr_size 8
core_0_l1i_hit_latency 2
core_0_l1i_fill_latency 2
core_0_l1i_max_tag_check 2
core_0_l1i_max_fill 2
core_0_l1d_set 64
core_0_l1d_way 12
core_0_l1d_rq_size 64
core_0_l1d_wq_size 64
core_0_l1d_pq_size 8
core_0_l1d_mshr_size 16
core_0_l1d_hit_latency 2
core_0_l1d_fill_latency 3
core_0_l1d_max_tag_check 2
core_0_l1d_max_fill 2
core_0_l2c_set 1024
core_0_l2c_way 8
core_0_l2c_rq_size 32
core_0_l2c_wq_size 32
core_0_l2c_pq_size 16
core_0_l2c_mshr_size 32
core_0_l2c_hit_latency 5
core_0_l2c_fill_latency 5
core_0_l2c_max_tag_check 1
core_0_l2c_max_fill 1
llc_set 2048
llc_way 16
llc_rq_size 32
llc_wq_size 32
llc_pq_size 32
llc_mshr_size 64
llc_hit_latency 10
llc_fill_latency 10
llc_max_tag_check 1
llc_max_fill 1
dram_channels 1
dram_ranks 1
dram_bankgroups 8
dram_banks 4
dram_rows 65536
dram_columns 1024
dram_channel_width 8
dram_rq_size 64
dram_wq_size 64
dram_size 17179869184
core_0_itlb_prefetcher no
core_0_dtlb_prefetcher no
core_0_stlb_prefetcher no
core_0_l1i_prefetcher next_line
core_0_l1d_prefetcher vberti
core_0_l2c_prefetcher ip_stride
llc_prefetcher no
llc_replacement drrip

Core_0_instructions 50000001
Core_0_cycles 95427369
Core_0_IPC 0.523959
Core_0_branch_prediction_accuracy 88.8925
Core_0_branch_MPKI 24.2444
Core_0_average_ROB_occupancy_at_mispredict 14.4112

Core_0_ITLB_total_access 1837104
Core_0_ITLB_total_hit 1837104
Core_0_ITLB_total_miss 0
Core_0_ITLB_total_MPKI 0
Core_0_ITLB_total_miss_rate 0
Core_0_ITLB_demand_access 1837104
Core_0_ITLB_demand_hit 1837104
Core_0_ITLB_demand_miss 0
Core_0_ITLB_demand_MPKI 0
Core_0_ITLB_demand_miss_rate 0
Core_0_ITLB_load_access 1837104
Core_0_ITLB_load_hit 1837104
Core_0_ITLB_load_miss 0
Core_0_ITLB_load_MPKI 0
Core_0_ITLB_load_miss_rate 0
Core_0_ITLB_rfo_access 0
Core_0_ITLB_rfo_hit 0
Core_0_ITLB_rfo_miss 0
Core_0_ITLB_rfo_MPKI 0
Core_0_ITLB_rfo_miss_rate 0
Core_0_ITLB_prefetch_access 0
Core_0_ITLB_prefetch_hit 0
Core_0_ITLB_prefetch_miss 0
Core_0_ITLB_prefetch_MPKI 0
Core_0_ITLB_prefetch_miss_rate 0
Core_0_ITLB_writeback_access 0
Core_0_ITLB_writeback_hit 0
Core_0_ITLB_writeback_miss 0
Core_0_ITLB_writeback_MPKI 0
Core_0_ITLB_writeback_miss_rate 0
Core_0_ITLB_prefetch_requested 0
Core_0_ITLB_prefetch_issued 0
Core_0_ITLB_prefetch_useful 0
Core_0_ITLB_prefetch_useless 0
Core_0_ITLB_prefetch_late 0
Core_0_ITLB_prefetch_accuracy 0
Core_0_ITLB_prefetch_coverage 0
Core_0_ITLB_total_eviction 0

Core_0_DTLB_total_access 22631037
Core_0_DTLB_total_hit 22495058
Core_0_DTLB_total_miss 135979
Core_0_DTLB_total_MPKI 2.71958
Core_0_DTLB_total_miss_rate 0.00600852
Core_0_DTLB_demand_access 22631037
Core_0_DTLB_demand_hit 22495058
Core_0_DTLB_demand_miss 135979
Core_0_DTLB_demand_MPKI 2.71958
Core_0_DTLB_demand_miss_rate 0.00600852
Core_0_DTLB_load_access 22631037
Core_0_DTLB_load_hit 22495058
Core_0_DTLB_load_miss 135979
Core_0_DTLB_load_MPKI 2.71958
Core_0_DTLB_load_miss_rate 0.00600852
Core_0_DTLB_rfo_access 0
Core_0_DTLB_rfo_hit 0
Core_0_DTLB_rfo_miss 0
Core_0_DTLB_rfo_MPKI 0
Core_0_DTLB_rfo_miss_rate 0
Core_0_DTLB_prefetch_access 0
Core_0_DTLB_prefetch_hit 0
Core_0_DTLB_prefetch_miss 0
Core_0_DTLB_prefetch_MPKI 0
Core_0_DTLB_prefetch_miss_rate 0
Core_0_DTLB_writeback_access 0
Core_0_DTLB_writeback_hit 0
Core_0_DTLB_writeback_miss 0
Core_0_DTLB_writeback_MPKI 0
Core_0_DTLB_writeback_miss_rate 0
Core_0_DTLB_prefetch_requested 0
Core_0_DTLB_prefetch_issued 0
Core_0_DTLB_prefetch_useful 0
Core_0_DTLB_prefetch_useless 0
Core_0_DTLB_prefetch_late 0
Core_0_DTLB_prefetch_accuracy 0
Core_0_DTLB_prefetch_coverage 0
Core_0_DTLB_total_eviction 112435

Core_0_STLB_total_access 112435
Core_0_STLB_total_hit 100352
Core_0_STLB_total_miss 12083
Core_0_STLB_total_MPKI 0.24166
Core_0_STLB_total_miss_rate 0.107467
Core_0_STLB_demand_access 112435
Core_0_STLB_demand_hit 100352
Core_0_STLB_demand_miss 12083
Core_0_STLB_demand_MPKI 0.24166
Core_0_STLB_demand_miss_rate 0.107467
Core_0_STLB_load_access 112435
Core_0_STLB_load_hit 100352
Core_0_STLB_load_miss 12083
Core_0_STLB_load_MPKI 0.24166
Core_0_STLB_load_miss_rate 0.107467
Core_0_STLB_rfo_access 0
Core_0_STLB_rfo_hit 0
Core_0_STLB_rfo_miss 0
Core_0_STLB_rfo_MPKI 0
Core_0_STLB_rfo_miss_rate 0
Core_0_STLB_prefetch_access 0
Core_0_STLB_prefetch_hit 0
Core_0_STLB_prefetch_miss 0
Core_0_STLB_prefetch_MPKI 0
Core_0_STLB_prefetch_miss_rate 0
Core_0_STLB_writeback_access 0
Core_0_STLB_writeback_hit 0
Core_0_STLB_writeback_miss 0
Core_0_STLB_writeback_MPKI 0
Core_0_STLB_writeback_miss_rate 0
Core_0_STLB_prefetch_requested 0
Core_0_STLB_prefetch_issued 0
Core_0_STLB_prefetch_useful 0
Core_0_STLB_prefetch_useless 0
Core_0_STLB_prefetch_late 0
Core_0_STLB_prefetch_accuracy 0
Core_0_STLB_prefetch_coverage 0
Core_0_STLB_total_eviction 68132

Core_0_L1I_total_access 1839464
Core_0_L1I_total_hit 1839450
Core_0_L1I_total_miss 14
Core_0_L1I_total_MPKI 0.00028
Core_0_L1I_total_miss_rate 7.61091e-06
Core_0_L1I_demand_access 1839464
Core_0_L1I_demand_hit 1839450
Core_0_L1I_demand_miss 14
Core_0_L1I_demand_MPKI 0.00028
Core_0_L1I_demand_miss_rate 7.61091e-06
Core_0_L1I_load_access 1839464
Core_0_L1I_load_hit 1839450
Core_0_L1I_load_miss 14
Core_0_L1I_load_MPKI 0.00028
Core_0_L1I_load_miss_rate 7.61091e-06
Core_0_L1I_rfo_access 0
Core_0_L1I_rfo_hit 0
Core_0_L1I_rfo_miss 0
Core_0_L1I_rfo_MPKI 0
Core_0_L1I_rfo_miss_rate 0
Core_0_L1I_prefetch_access 0
Core_0_L1I_prefetch_hit 0
Core_0_L1I_prefetch_miss 0
Core_0_L1I_prefetch_MPKI 0
Core_0_L1I_prefetch_miss_rate 0
Core_0_L1I_writeback_access 0
Core_0_L1I_writeback_hit 0
Core_0_L1I_writeback_miss 0
Core_0_L1I_writeback_MPKI 0
Core_0_L1I_writeback_miss_rate 0
Core_0_L1I_prefetch_requested 0
Core_0_L1I_prefetch_issued 0
Core_0_L1I_prefetch_useful 0
Core_0_L1I_prefetch_useless 0
Core_0_L1I_prefetch_late 0
Core_0_L1I_prefetch_accuracy 0
Core_0_L1I_prefetch_coverage 0
Core_0_L1I_total_eviction 0

Core_0_L1D_total_access 29290345
Core_0_L1D_total_hit 25808200
Core_0_L1D_total_miss 3482145
Core_0_L1D_total_MPKI 69.6429
Core_0_L1D_total_miss_rate 0.118884
Core_0_L1D_demand_access 10025054
Core_0_L1D_demand_hit 9243035
Core_0_L1D_demand_miss 782019
Core_0_L1D_demand_MPKI 15.6404
Core_0_L1D_demand_miss_rate 0.0780065
Core_0_L1D_load_access 10025054
Core_0_L1D_load_hit 9243035
Core_0_L1D_load_miss 782019
Core_0_L1D_load_MPKI 15.6404
Core_0_L1D_load_miss_rate 0.0780065
Core_0_L1D_rfo_access 0
Core_0_L1D_rfo_hit 0
Core_0_L1D_rfo_miss 0
Core_0_L1D_rfo_MPKI 0
Core_0_L1D_rfo_miss_rate 0
Core_0_L1D_prefetch_access 17804100
Core_0_L1D_prefetch_hit 15121029
Core_0_L1D_prefetch_miss 2683071
Core_0_L1D_prefetch_MPKI 53.6614
Core_0_L1D_prefetch_miss_rate 0.1507
Core_0_L1D_writeback_access 1461191
Core_0_L1D_writeback_hit 1444136
Core_0_L1D_writeback_miss 17055
Core_0_L1D_writeback_MPKI 0.3411
Core_0_L1D_writeback_miss_rate 0.011672
Core_0_L1D_prefetch_requested 59793892
Core_0_L1D_prefetch_issued 17804099
Core_0_L1D_prefetch_useful 477378
Core_0_L1D_prefetch_useless 8660
Core_0_L1D_prefetch_late 3224
Core_0_L1D_prefetch_accuracy 0.0268128
Core_0_L1D_prefetch_coverage 0.379053
Core_0_L1D_total_eviction 1199331

Core_0_L2C_total_access 4368899
Core_0_L2C_total_hit 2559290
Core_0_L2C_total_miss 1809609
Core_0_L2C_total_MPKI 36.1922
Core_0_L2C_total_miss_rate 0.414203
Core_0_L2C_demand_access 709258
Core_0_L2C_demand_hit 370925
Core_0_L2C_demand_miss 338333
Core_0_L2C_demand_MPKI 6.76666
Core_0_L2C_demand_miss_rate 0.477024
Core_0_L2C_load_access 704393
Core_0_L2C_load_hit 368619
Core_0_L2C_load_miss 335774
Core_0_L2C_load_MPKI 6.71548
Core_0_L2C_load_miss_rate 0.476686
Core_0_L2C_rfo_access 4865
Core_0_L2C_rfo_hit 2306
Core_0_L2C_rfo_miss 2559
Core_0_L2C_rfo_MPKI 0.05118
Core_0_L2C_rfo_miss_rate 0.526002
Core_0_L2C_prefetch_access 3540830
Core_0_L2C_prefetch_hit 2069561
Core_0_L2C_prefetch_miss 1471269
Core_0_L2C_prefetch_MPKI 29.4254
Core_0_L2C_prefetch_miss_rate 0.415515
Core_0_L2C_writeback_access 118811
Core_0_L2C_writeback_hit 118804
Core_0_L2C_writeback_miss 7
Core_0_L2C_writeback_MPKI 0.00014
Core_0_L2C_writeback_miss_rate 5.89171e-05
Core_0_L2C_prefetch_requested 899730
Core_0_L2C_prefetch_issued 898751
Core_0_L2C_prefetch_useful 182958
Core_0_L2C_prefetch_useless 96200
Core_0_L2C_prefetch_late 5957
Core_0_L2C_prefetch_accuracy 0.203569
Core_0_L2C_prefetch_coverage 0.350971
Core_0_L2C_total_eviction 1123448

Core_0_LLC_total_access 1239061
Core_0_LLC_total_hit 135549
Core_0_LLC_total_miss 1103512
Core_0_LLC_total_MPKI 22.0702
Core_0_LLC_total_miss_rate 0.890603
Core_0_LLC_demand_access 324012
Core_0_LLC_demand_hit 69518
Core_0_LLC_demand_miss 254494
Core_0_LLC_demand_MPKI 5.08988
Core_0_LLC_demand_miss_rate 0.785446
Core_0_LLC_load_access 321488
Core_0_LLC_load_hit 69403
Core_0_LLC_load_miss 252085
Core_0_LLC_load_MPKI 5.0417
Core_0_LLC_load_miss_rate 0.784119
Core_0_LLC_rfo_access 2524
Core_0_LLC_rfo_hit 115
Core_0_LLC_rfo_miss 2409
Core_0_LLC_rfo_MPKI 0.04818
Core_0_LLC_rfo_miss_rate 0.954437
Core_0_LLC_prefetch_access 799441
Core_0_LLC_prefetch_hit 22052
Core_0_LLC_prefetch_miss 777389
Core_0_LLC_prefetch_MPKI 15.5478
Core_0_LLC_prefetch_miss_rate 0.972416
Core_0_LLC_writeback_access 115608
Core_0_LLC_writeback_hit 43979
Core_0_LLC_writeback_miss 71629
Core_0_LLC_writeback_MPKI 1.43258
Core_0_LLC_writeback_miss_rate 0.619585
Core_0_LLC_prefetch_requested 0
Core_0_LLC_prefetch_issued 0
Core_0_LLC_prefetch_useful 0
Core_0_LLC_prefetch_useless 0
Core_0_LLC_prefetch_late 0
Core_0_LLC_prefetch_accuracy 0
Core_0_LLC_prefetch_coverage 0
Core_0_LLC_total_eviction 1105042

[DRAM Statistics]
Channel_0_RQ_row_buffer_hit 91998
Channel_0_RQ_row_buffer_miss 941394
Channel_0_WQ_row_buffer_hit 31827
Channel_0_WQ_row_buffer_miss 80130
Channel_0_WQ_full 0
Channel_0_dbus_congested 2587952
DRAM_total_RQ_row_buffer_hit 91998
DRAM_total_RQ_row_buffer_miss 941394
DRAM_total_WQ_row_buffer_hit 31827
DRAM_total_WQ_row_buffer_miss 80130
DRAM_total_WQ_full 0
DRAM_total_dbus_congested 2587952
DRAM_avg_congested_cycle 12.4338

======STLB miss causes ========
Core_0_STLB_miss_cause_breakdown
Core_0_STLB_cause_Demand_Data_miss 0
Core_0_STLB_cause_Demand_Data_miss_rate 0
Core_0_STLB_cause_Demand_Instruction_miss 0
Core_0_STLB_cause_Demand_Instruction_miss_rate 0
Core_0_STLB_cause_L1D_Prefetch_miss 12083
Core_0_STLB_cause_L1D_Prefetch_miss_rate 0.107467
Core_0_STLB_cause_L1I_Prefetch_miss 0
Core_0_STLB_cause_L1I_Prefetch_miss_rate 0
Core_0_STLB_cause_Other_miss 0
Core_0_STLB_cause_Other_miss_rate 0
Core_0_STLB_Demand_miss 0
Core_0_STLB_Demand_miss_rate 0
Core_0_STLB_L1D_Prefetch_miss 12083
Core_0_STLB_L1D_Prefetch_miss_rate 0.107467
Core_0_STLB_Other_miss 0
Core_0_STLB_Other_miss_rate 0
BERTI TO_L1: 74891973 TO_L2: 20302052 TO_L2_BC_MSHR: 812158
BERTI AVG_LAT: 72.5487 NUM_TRACK_LATENCY: 1822330 NUM_CANT_TRACK_LATENCY: 1
BERTI CROSS_PAGE 11573994 NO_CROSS_PAGE: 83620031
BERTI FOUND_BERTI: 10640190 NO_FOUND_BERTI: 4928884
BERTI AVERAGE_ISSUED: 3.45531
