[VMEM] WARNING: physical memory size is smaller than virtual memory size.

*** ChampSim Multicore Out-of-Order Simulator ***
Warmup Instructions: 20000000
Simulation Instructions: 50000000
Number of CPUs: 1
Page size: 4096
STLB ideal mode: demand
STLB ideal fill: on
Core 0: /data2/zcq/gap_dpc/bfs-3.trace.gz
VBerti Prefetcher
BERTI HASH ENTANGLING
BERTI IP MASK ffff
Off-chip DRAM Size: 16 GiB Channels: 1 Width: 64-bit Data Rate: 3205 MT/s
Warmup halting CPU 0 at instruction 20000002 cycle 4050747 for remainder of phase
Warmup finished CPU 0 instructions: 20000002 cycles: 4050747 cumulative IPC: 4.937 (Simulation time: 00 hr 00 min 54 sec)
Warmup complete CPU 0 instructions: 20000002 cycles: 4050747 cumulative IPC: 4.937 (Simulation time: 00 hr 00 min 54 sec)
Simulation finished CPU 0 instructions: 50000002 cycles: 138250750 cumulative IPC: 0.3617 (Simulation time: 00 hr 09 min 58 sec)
Simulation complete CPU 0 instructions: 50000002 cycles: 138250750 cumulative IPC: 0.3617 (Simulation time: 00 hr 09 min 58 sec)

ChampSim completed all CPUs

=== Simulation ===
CPU 0 runs /data2/zcq/gap_dpc/bfs-3.trace.gz

Region of Interest Statistics

CPU 0 cumulative IPC: 0.3617 instructions: 50000002 cycles: 138250750
CPU 0 Branch Prediction Accuracy: 82.81% MPKI: 36.37 Average ROB Occupancy at Mispredict: 10.21
Branch type MPKI
BRANCH_DIRECT_JUMP: 4e-05
BRANCH_INDIRECT: 0
BRANCH_CONDITIONAL: 36.37
BRANCH_DIRECT_CALL: 8e-05
BRANCH_INDIRECT_CALL: 0
BRANCH_RETURN: 0.0001

cpu0->cpu0_STLB TOTAL        ACCESS:      58049 HIT:      39592 MISS:      18457 MSHR_MERGE:          0
cpu0->cpu0_STLB LOAD         ACCESS:      58049 HIT:      39592 MISS:      18457 MSHR_MERGE:          0
cpu0->cpu0_STLB RFO          ACCESS:          0 HIT:          0 MISS:          0 MSHR_MERGE:          0
cpu0->cpu0_STLB PREFETCH     ACCESS:          0 HIT:          0 MISS:          0 MSHR_MERGE:          0
cpu0->cpu0_STLB WRITE        ACCESS:          0 HIT:          0 MISS:          0 MSHR_MERGE:          0
cpu0->cpu0_STLB TRANSLATION  ACCESS:          0 HIT:          0 MISS:          0 MSHR_MERGE:          0
cpu0->cpu0_STLB PREFETCH REQUESTED:          0 ISSUED:          0 USEFUL:          0 USELESS:          0 LATE:          0
cpu0->cpu0_STLB AVERAGE MISS LATENCY: 168 cycles
cpu0->cpu0_L2C TOTAL        ACCESS:    6280362 HIT:    4179662 MISS:    2100700 MSHR_MERGE:     783681
cpu0->cpu0_L2C LOAD         ACCESS:    1345731 HIT:    1007169 MISS:     338562 MSHR_MERGE:      20260
cpu0->cpu0_L2C RFO          ACCESS:       1942 HIT:       1734 MISS:        208 MSHR_MERGE:         16
cpu0->cpu0_L2C PREFETCH     ACCESS:    4805140 HIT:    3047415 MISS:    1757725 MSHR_MERGE:     763405
cpu0->cpu0_L2C WRITE        ACCESS:     121497 HIT:     121492 MISS:          5 MSHR_MERGE:          0
cpu0->cpu0_L2C TRANSLATION  ACCESS:       6052 HIT:       1852 MISS:       4200 MSHR_MERGE:          0
cpu0->cpu0_L2C PREFETCH REQUESTED:     822150 ISSUED:     822026 USEFUL:     180980 USELESS:      66814 LATE:       2920
cpu0->cpu0_L2C AVERAGE MISS LATENCY: 158.4 cycles
cpu0->cpu0_L1I TOTAL        ACCESS:     292351 HIT:     292347 MISS:          4 MSHR_MERGE:          0
cpu0->cpu0_L1I LOAD         ACCESS:     292351 HIT:     292347 MISS:          4 MSHR_MERGE:          0
cpu0->cpu0_L1I RFO          ACCESS:          0 HIT:          0 MISS:          0 MSHR_MERGE:          0
cpu0->cpu0_L1I PREFETCH     ACCESS:          0 HIT:          0 MISS:          0 MSHR_MERGE:          0
cpu0->cpu0_L1I WRITE        ACCESS:          0 HIT:          0 MISS:          0 MSHR_MERGE:          0
cpu0->cpu0_L1I TRANSLATION  ACCESS:          0 HIT:          0 MISS:          0 MSHR_MERGE:          0
cpu0->cpu0_L1I PREFETCH REQUESTED:          0 ISSUED:          0 USEFUL:          0 USELESS:          0 LATE:          0
cpu0->cpu0_L1I AVERAGE MISS LATENCY: 181.8 cycles
cpu0->cpu0_L1D TOTAL        ACCESS:   34298883 HIT:   28363892 MISS:    5934991 MSHR_MERGE:     475461
cpu0->cpu0_L1D LOAD         ACCESS:   11610961 HIT:    9840515 MISS:    1770446 MSHR_MERGE:     424719
cpu0->cpu0_L1D RFO          ACCESS:          0 HIT:          0 MISS:          0 MSHR_MERGE:          0
cpu0->cpu0_L1D PREFETCH     ACCESS:   21587156 HIT:   17438382 MISS:    4148774 MSHR_MERGE:      42965
cpu0->cpu0_L1D WRITE        ACCESS:    1063757 HIT:    1054050 MISS:       9707 MSHR_MERGE:       7765
cpu0->cpu0_L1D TRANSLATION  ACCESS:      37009 HIT:      30945 MISS:       6064 MSHR_MERGE:         12
cpu0->cpu0_L1D PREFETCH REQUESTED:   41654880 ISSUED:   21587157 USEFUL:     487778 USELESS:      17019 LATE:       1500
cpu0->cpu0_L1D AVERAGE MISS LATENCY: 48.45 cycles
cpu0->cpu0_ITLB TOTAL        ACCESS:     292319 HIT:     292319 MISS:          0 MSHR_MERGE:          0
cpu0->cpu0_ITLB LOAD         ACCESS:     292319 HIT:     292319 MISS:          0 MSHR_MERGE:          0
cpu0->cpu0_ITLB RFO          ACCESS:          0 HIT:          0 MISS:          0 MSHR_MERGE:          0
cpu0->cpu0_ITLB PREFETCH     ACCESS:          0 HIT:          0 MISS:          0 MSHR_MERGE:          0
cpu0->cpu0_ITLB WRITE        ACCESS:          0 HIT:          0 MISS:          0 MSHR_MERGE:          0
cpu0->cpu0_ITLB TRANSLATION  ACCESS:          0 HIT:          0 MISS:          0 MSHR_MERGE:          0
cpu0->cpu0_ITLB PREFETCH REQUESTED:          0 ISSUED:          0 USEFUL:          0 USELESS:          0 LATE:          0
cpu0->cpu0_ITLB AVERAGE MISS LATENCY: - cycles
cpu0->cpu0_DTLB TOTAL        ACCESS:   26453203 HIT:   26343507 MISS:     109696 MSHR_MERGE:      51647
cpu0->cpu0_DTLB LOAD         ACCESS:   26453203 HIT:   26343507 MISS:     109696 MSHR_MERGE:      51647
cpu0->cpu0_DTLB RFO          ACCESS:          0 HIT:          0 MISS:          0 MSHR_MERGE:          0
cpu0->cpu0_DTLB PREFETCH     ACCESS:          0 HIT:          0 MISS:          0 MSHR_MERGE:          0
cpu0->cpu0_DTLB WRITE        ACCESS:          0 HIT:          0 MISS:          0 MSHR_MERGE:          0
cpu0->cpu0_DTLB TRANSLATION  ACCESS:          0 HIT:          0 MISS:          0 MSHR_MERGE:          0
cpu0->cpu0_DTLB PREFETCH REQUESTED:          0 ISSUED:          0 USEFUL:          0 USELESS:          0 LATE:          0
cpu0->cpu0_DTLB AVERAGE MISS LATENCY: 58.75 cycles
cpu0->LLC TOTAL        ACCESS:    1439458 HIT:     145657 MISS:    1293801 MSHR_MERGE:         93
cpu0->LLC LOAD         ACCESS:     318302 HIT:      75969 MISS:     242333 MSHR_MERGE:          0
cpu0->LLC RFO          ACCESS:        192 HIT:        163 MISS:         29 MSHR_MERGE:          0
cpu0->LLC PREFETCH     ACCESS:     994320 HIT:       4316 MISS:     990004 MSHR_MERGE:         93
cpu0->LLC WRITE        ACCESS:     122444 HIT:      65173 MISS:      57271 MSHR_MERGE:          0
cpu0->LLC TRANSLATION  ACCESS:       4200 HIT:         36 MISS:       4164 MSHR_MERGE:          0
cpu0->LLC PREFETCH REQUESTED:          0 ISSUED:          0 USEFUL:          0 USELESS:          0 LATE:          0
cpu0->LLC AVERAGE MISS LATENCY: 156.6 cycles

DRAM Statistics

Channel 0 RQ ROW_BUFFER_HIT:      98349
  ROW_BUFFER_MISS:    1138082
  AVG DBUS CONGESTED CYCLE: 14.9
Channel 0 WQ ROW_BUFFER_HIT:      36558
  ROW_BUFFER_MISS:     102071
  FULL:          0
Channel 0 REFRESHES ISSUED:      11521

[ROI Statistics]
[System Configuration]
num_cpus 1
cpu_freq 4000
fetch_width 6
decode_width 6
dispatch_width 6
execute_width 6
lq_width 2
sq_width 2
retire_width 6
scheduler_size 128
branch_mispredict_penalty 15
rob_size 352
lq_size 128
sq_size 72
ifetch_buffer_size 64
decode_buffer_size 32
dispatch_buffer_size 32
register_file_size 288
decode_latency 1
dispatch_latency 1
schedule_latency 1
execute_latency 1
page_size 4096
block_size 64
core_0_itlb_set 16
core_0_itlb_way 4
core_0_itlb_rq_size 16
core_0_itlb_wq_size 16
core_0_itlb_pq_size 0
core_0_itlb_mshr_size 8
core_0_itlb_hit_latency 1
core_0_itlb_fill_latency 1
core_0_itlb_max_tag_check 2
core_0_itlb_max_fill 2
core_0_dtlb_set 16
core_0_dtlb_way 4
core_0_dtlb_rq_size 16
core_0_dtlb_wq_size 16
core_0_dtlb_pq_size 0
core_0_dtlb_mshr_size 8
core_0_dtlb_hit_latency 1
core_0_dtlb_fill_latency 1
core_0_dtlb_max_tag_check 2
core_0_dtlb_max_fill 2
core_0_stlb_set 128
core_0_stlb_way 12
core_0_stlb_rq_size 32
core_0_stlb_wq_size 32
core_0_stlb_pq_size 0
core_0_stlb_mshr_size 16
core_0_stlb_hit_latency 4
core_0_stlb_fill_latency 4
core_0_stlb_max_tag_check 1
core_0_stlb_max_fill 1
core_0_l1i_set 64
core_0_l1i_way 8
core_0_l1i_rq_size 64
core_0_l1i_wq_size 64
core_0_l1i_pq_size 32
core_0_l1i_mshr_size 8
core_0_l1i_hit_latency 2
core_0_l1i_fill_latency 2
core_0_l1i_max_tag_check 2
core_0_l1i_max_fill 2
core_0_l1d_set 64
core_0_l1d_way 12
core_0_l1d_rq_size 64
core_0_l1d_wq_size 64
core_0_l1d_pq_size 8
core_0_l1d_mshr_size 16
core_0_l1d_hit_latency 2
core_0_l1d_fill_latency 3
core_0_l1d_max_tag_check 2
core_0_l1d_max_fill 2
core_0_l2c_set 1024
core_0_l2c_way 8
core_0_l2c_rq_size 32
core_0_l2c_wq_size 32
core_0_l2c_pq_size 16
core_0_l2c_mshr_size 32
core_0_l2c_hit_latency 5
core_0_l2c_fill_latency 5
core_0_l2c_max_tag_check 1
core_0_l2c_max_fill 1
llc_set 2048
llc_way 16
llc_rq_size 32
llc_wq_size 32
llc_pq_size 32
llc_mshr_size 64
llc_hit_latency 10
llc_fill_latency 10
llc_max_tag_check 1
llc_max_fill 1
dram_channels 1
dram_ranks 1
dram_bankgroups 8
dram_banks 4
dram_rows 65536
dram_columns 1024
dram_channel_width 8
dram_rq_size 64
dram_wq_size 64
dram_size 17179869184
core_0_itlb_prefetcher no
core_0_dtlb_prefetcher no
core_0_stlb_prefetcher no
core_0_l1i_prefetcher next_line
core_0_l1d_prefetcher vberti
core_0_l2c_prefetcher ip_stride
llc_prefetcher no
llc_replacement drrip

Core_0_instructions 50000002
Core_0_cycles 138250750
Core_0_IPC 0.361662
Core_0_branch_prediction_accuracy 82.8086
Core_0_branch_MPKI 36.3708
Core_0_average_ROB_occupancy_at_mispredict 10.2071

Core_0_ITLB_total_access 292319
Core_0_ITLB_total_hit 292319
Core_0_ITLB_total_miss 0
Core_0_ITLB_total_MPKI 0
Core_0_ITLB_total_miss_rate 0
Core_0_ITLB_demand_access 292319
Core_0_ITLB_demand_hit 292319
Core_0_ITLB_demand_miss 0
Core_0_ITLB_demand_MPKI 0
Core_0_ITLB_demand_miss_rate 0
Core_0_ITLB_load_access 292319
Core_0_ITLB_load_hit 292319
Core_0_ITLB_load_miss 0
Core_0_ITLB_load_MPKI 0
Core_0_ITLB_load_miss_rate 0
Core_0_ITLB_rfo_access 0
Core_0_ITLB_rfo_hit 0
Core_0_ITLB_rfo_miss 0
Core_0_ITLB_rfo_MPKI 0
Core_0_ITLB_rfo_miss_rate 0
Core_0_ITLB_prefetch_access 0
Core_0_ITLB_prefetch_hit 0
Core_0_ITLB_prefetch_miss 0
Core_0_ITLB_prefetch_MPKI 0
Core_0_ITLB_prefetch_miss_rate 0
Core_0_ITLB_writeback_access 0
Core_0_ITLB_writeback_hit 0
Core_0_ITLB_writeback_miss 0
Core_0_ITLB_writeback_MPKI 0
Core_0_ITLB_writeback_miss_rate 0
Core_0_ITLB_prefetch_requested 0
Core_0_ITLB_prefetch_issued 0
Core_0_ITLB_prefetch_useful 0
Core_0_ITLB_prefetch_useless 0
Core_0_ITLB_prefetch_late 0
Core_0_ITLB_prefetch_accuracy 0
Core_0_ITLB_prefetch_coverage 0
Core_0_ITLB_total_eviction 0

Core_0_DTLB_total_access 26453203
Core_0_DTLB_total_hit 26343507
Core_0_DTLB_total_miss 109696
Core_0_DTLB_total_MPKI 2.19392
Core_0_DTLB_total_miss_rate 0.00414679
Core_0_DTLB_demand_access 26453203
Core_0_DTLB_demand_hit 26343507
Core_0_DTLB_demand_miss 109696
Core_0_DTLB_demand_MPKI 2.19392
Core_0_DTLB_demand_miss_rate 0.00414679
Core_0_DTLB_load_access 26453203
Core_0_DTLB_load_hit 26343507
Core_0_DTLB_load_miss 109696
Core_0_DTLB_load_MPKI 2.19392
Core_0_DTLB_load_miss_rate 0.00414679
Core_0_DTLB_rfo_access 0
Core_0_DTLB_rfo_hit 0
Core_0_DTLB_rfo_miss 0
Core_0_DTLB_rfo_MPKI 0
Core_0_DTLB_rfo_miss_rate 0
Core_0_DTLB_prefetch_access 0
Core_0_DTLB_prefetch_hit 0
Core_0_DTLB_prefetch_miss 0
Core_0_DTLB_prefetch_MPKI 0
Core_0_DTLB_prefetch_miss_rate 0
Core_0_DTLB_writeback_access 0
Core_0_DTLB_writeback_hit 0
Core_0_DTLB_writeback_miss 0
Core_0_DTLB_writeback_MPKI 0
Core_0_DTLB_writeback_miss_rate 0
Core_0_DTLB_prefetch_requested 0
Core_0_DTLB_prefetch_issued 0
Core_0_DTLB_prefetch_useful 0
Core_0_DTLB_prefetch_useless 0
Core_0_DTLB_prefetch_late 0
Core_0_DTLB_prefetch_accuracy 0
Core_0_DTLB_prefetch_coverage 0
Core_0_DTLB_total_eviction 58049

Core_0_STLB_total_access 58049
Core_0_STLB_total_hit 39592
Core_0_STLB_total_miss 18457
Core_0_STLB_total_MPKI 0.36914
Core_0_STLB_total_miss_rate 0.317956
Core_0_STLB_demand_access 58049
Core_0_STLB_demand_hit 39592
Core_0_STLB_demand_miss 18457
Core_0_STLB_demand_MPKI 0.36914
Core_0_STLB_demand_miss_rate 0.317956
Core_0_STLB_load_access 58049
Core_0_STLB_load_hit 39592
Core_0_STLB_load_miss 18457
Core_0_STLB_load_MPKI 0.36914
Core_0_STLB_load_miss_rate 0.317956
Core_0_STLB_rfo_access 0
Core_0_STLB_rfo_hit 0
Core_0_STLB_rfo_miss 0
Core_0_STLB_rfo_MPKI 0
Core_0_STLB_rfo_miss_rate 0
Core_0_STLB_prefetch_access 0
Core_0_STLB_prefetch_hit 0
Core_0_STLB_prefetch_miss 0
Core_0_STLB_prefetch_MPKI 0
Core_0_STLB_prefetch_miss_rate 0
Core_0_STLB_writeback_access 0
Core_0_STLB_writeback_hit 0
Core_0_STLB_writeback_miss 0
Core_0_STLB_writeback_MPKI 0
Core_0_STLB_writeback_miss_rate 0
Core_0_STLB_prefetch_requested 0
Core_0_STLB_prefetch_issued 0
Core_0_STLB_prefetch_useful 0
Core_0_STLB_prefetch_useless 0
Core_0_STLB_prefetch_late 0
Core_0_STLB_prefetch_accuracy 0
Core_0_STLB_prefetch_coverage 0
Core_0_STLB_total_eviction 51341

Core_0_L1I_total_access 292351
Core_0_L1I_total_hit 292347
Core_0_L1I_total_miss 4
Core_0_L1I_total_MPKI 8e-05
Core_0_L1I_total_miss_rate 1.36822e-05
Core_0_L1I_demand_access 292351
Core_0_L1I_demand_hit 292347
Core_0_L1I_demand_miss 4
Core_0_L1I_demand_MPKI 8e-05
Core_0_L1I_demand_miss_rate 1.36822e-05
Core_0_L1I_load_access 292351
Core_0_L1I_load_hit 292347
Core_0_L1I_load_miss 4
Core_0_L1I_load_MPKI 8e-05
Core_0_L1I_load_miss_rate 1.36822e-05
Core_0_L1I_rfo_access 0
Core_0_L1I_rfo_hit 0
Core_0_L1I_rfo_miss 0
Core_0_L1I_rfo_MPKI 0
Core_0_L1I_rfo_miss_rate 0
Core_0_L1I_prefetch_access 0
Core_0_L1I_prefetch_hit 0
Core_0_L1I_prefetch_miss 0
Core_0_L1I_prefetch_MPKI 0
Core_0_L1I_prefetch_miss_rate 0
Core_0_L1I_writeback_access 0
Core_0_L1I_writeback_hit 0
Core_0_L1I_writeback_miss 0
Core_0_L1I_writeback_MPKI 0
Core_0_L1I_writeback_miss_rate 0
Core_0_L1I_prefetch_requested 0
Core_0_L1I_prefetch_issued 0
Core_0_L1I_prefetch_useful 0
Core_0_L1I_prefetch_useless 0
Core_0_L1I_prefetch_late 0
Core_0_L1I_prefetch_accuracy 0
Core_0_L1I_prefetch_coverage 0
Core_0_L1I_total_eviction 0

Core_0_L1D_total_access 34261874
Core_0_L1D_total_hit 28332947
Core_0_L1D_total_miss 5928927
Core_0_L1D_total_MPKI 118.579
Core_0_L1D_total_miss_rate 0.173047
Core_0_L1D_demand_access 11610961
Core_0_L1D_demand_hit 9840515
Core_0_L1D_demand_miss 1770446
Core_0_L1D_demand_MPKI 35.4089
Core_0_L1D_demand_miss_rate 0.152481
Core_0_L1D_load_access 11610961
Core_0_L1D_load_hit 9840515
Core_0_L1D_load_miss 1770446
Core_0_L1D_load_MPKI 35.4089
Core_0_L1D_load_miss_rate 0.152481
Core_0_L1D_rfo_access 0
Core_0_L1D_rfo_hit 0
Core_0_L1D_rfo_miss 0
Core_0_L1D_rfo_MPKI 0
Core_0_L1D_rfo_miss_rate 0
Core_0_L1D_prefetch_access 21587156
Core_0_L1D_prefetch_hit 17438382
Core_0_L1D_prefetch_miss 4148774
Core_0_L1D_prefetch_MPKI 82.9755
Core_0_L1D_prefetch_miss_rate 0.192187
Core_0_L1D_writeback_access 1063757
Core_0_L1D_writeback_hit 1054050
Core_0_L1D_writeback_miss 9707
Core_0_L1D_writeback_MPKI 0.19414
Core_0_L1D_writeback_miss_rate 0.0091252
Core_0_L1D_prefetch_requested 41654880
Core_0_L1D_prefetch_issued 21587157
Core_0_L1D_prefetch_useful 487778
Core_0_L1D_prefetch_useless 17019
Core_0_L1D_prefetch_late 1500
Core_0_L1D_prefetch_accuracy 0.0225957
Core_0_L1D_prefetch_coverage 0.216001
Core_0_L1D_total_eviction 1858536

Core_0_L2C_total_access 6274310
Core_0_L2C_total_hit 4177810
Core_0_L2C_total_miss 2096500
Core_0_L2C_total_MPKI 41.93
Core_0_L2C_total_miss_rate 0.33414
Core_0_L2C_demand_access 1347673
Core_0_L2C_demand_hit 1008903
Core_0_L2C_demand_miss 338770
Core_0_L2C_demand_MPKI 6.7754
Core_0_L2C_demand_miss_rate 0.251374
Core_0_L2C_load_access 1345731
Core_0_L2C_load_hit 1007169
Core_0_L2C_load_miss 338562
Core_0_L2C_load_MPKI 6.77124
Core_0_L2C_load_miss_rate 0.251582
Core_0_L2C_rfo_access 1942
Core_0_L2C_rfo_hit 1734
Core_0_L2C_rfo_miss 208
Core_0_L2C_rfo_MPKI 0.00416
Core_0_L2C_rfo_miss_rate 0.107106
Core_0_L2C_prefetch_access 4805140
Core_0_L2C_prefetch_hit 3047415
Core_0_L2C_prefetch_miss 1757725
Core_0_L2C_prefetch_MPKI 35.1545
Core_0_L2C_prefetch_miss_rate 0.365801
Core_0_L2C_writeback_access 121497
Core_0_L2C_writeback_hit 121492
Core_0_L2C_writeback_miss 5
Core_0_L2C_writeback_MPKI 0.0001
Core_0_L2C_writeback_miss_rate 4.11533e-05
Core_0_L2C_prefetch_requested 822150
Core_0_L2C_prefetch_issued 822026
Core_0_L2C_prefetch_useful 180980
Core_0_L2C_prefetch_useless 66814
Core_0_L2C_prefetch_late 2920
Core_0_L2C_prefetch_accuracy 0.220163
Core_0_L2C_prefetch_coverage 0.348206
Core_0_L2C_total_eviction 1316619

Core_0_LLC_total_access 1435258
Core_0_LLC_total_hit 145621
Core_0_LLC_total_miss 1289637
Core_0_LLC_total_MPKI 25.7927
Core_0_LLC_total_miss_rate 0.89854
Core_0_LLC_demand_access 318494
Core_0_LLC_demand_hit 76132
Core_0_LLC_demand_miss 242362
Core_0_LLC_demand_MPKI 4.84724
Core_0_LLC_demand_miss_rate 0.760963
Core_0_LLC_load_access 318302
Core_0_LLC_load_hit 75969
Core_0_LLC_load_miss 242333
Core_0_LLC_load_MPKI 4.84666
Core_0_LLC_load_miss_rate 0.76133
Core_0_LLC_rfo_access 192
Core_0_LLC_rfo_hit 163
Core_0_LLC_rfo_miss 29
Core_0_LLC_rfo_MPKI 0.00058
Core_0_LLC_rfo_miss_rate 0.151042
Core_0_LLC_prefetch_access 994320
Core_0_LLC_prefetch_hit 4316
Core_0_LLC_prefetch_miss 990004
Core_0_LLC_prefetch_MPKI 19.8001
Core_0_LLC_prefetch_miss_rate 0.995659
Core_0_LLC_writeback_access 122444
Core_0_LLC_writeback_hit 65173
Core_0_LLC_writeback_miss 57271
Core_0_LLC_writeback_MPKI 1.14542
Core_0_LLC_writeback_miss_rate 0.467732
Core_0_LLC_prefetch_requested 0
Core_0_LLC_prefetch_issued 0
Core_0_LLC_prefetch_useful 0
Core_0_LLC_prefetch_useless 0
Core_0_LLC_prefetch_late 0
Core_0_LLC_prefetch_accuracy 0
Core_0_LLC_prefetch_coverage 0
Core_0_LLC_total_eviction 1293708

[DRAM Statistics]
Channel_0_RQ_row_buffer_hit 98349
Channel_0_RQ_row_buffer_miss 1138082
Channel_0_WQ_row_buffer_hit 36558
Channel_0_WQ_row_buffer_miss 102071
Channel_0_WQ_full 0
Channel_0_dbus_congested 2966259
DRAM_total_RQ_row_buffer_hit 98349
DRAM_total_RQ_row_buffer_miss 1138082
DRAM_total_WQ_row_buffer_hit 36558
DRAM_total_WQ_row_buffer_miss 102071
DRAM_total_WQ_full 0
DRAM_total_dbus_congested 2966259
DRAM_avg_congested_cycle 14.9043

======STLB miss causes ========
Core_0_STLB_miss_cause_breakdown
Core_0_STLB_cause_Demand_Data_miss 0
Core_0_STLB_cause_Demand_Data_miss_rate 0
Core_0_STLB_cause_Demand_Instruction_miss 0
Core_0_STLB_cause_Demand_Instruction_miss_rate 0
Core_0_STLB_cause_L1D_Prefetch_miss 18457
Core_0_STLB_cause_L1D_Prefetch_miss_rate 0.317956
Core_0_STLB_cause_L1I_Prefetch_miss 0
Core_0_STLB_cause_L1I_Prefetch_miss_rate 0
Core_0_STLB_cause_Other_miss 0
Core_0_STLB_cause_Other_miss_rate 0
Core_0_STLB_Demand_miss 0
Core_0_STLB_Demand_miss_rate 0
Core_0_STLB_L1D_Prefetch_miss 18457
Core_0_STLB_L1D_Prefetch_miss_rate 0.317956
Core_0_STLB_Other_miss 0
Core_0_STLB_Other_miss_rate 0
BERTI TO_L1: 57681511 TO_L2: 16849739 TO_L2_BC_MSHR: 716
BERTI AVG_LAT: 51.7971 NUM_TRACK_LATENCY: 2481949 NUM_CANT_TRACK_LATENCY: 0
BERTI CROSS_PAGE 8559383 NO_CROSS_PAGE: 65971867
BERTI FOUND_BERTI: 11527679 NO_FOUND_BERTI: 5186087
BERTI AVERAGE_ISSUED: 4.46598
