[VMEM] WARNING: physical memory size is smaller than virtual memory size.

*** ChampSim Multicore Out-of-Order Simulator ***
Warmup Instructions: 20000000
Simulation Instructions: 50000000
Number of CPUs: 1
Page size: 4096
STLB ideal mode: demand
STLB ideal fill: on
Core 0: /data0/tzh/champsim_traces/QMM/compute_int_23_new.xz
VBerti Prefetcher
BERTI HASH ENTANGLING
BERTI IP MASK ffff
Off-chip DRAM Size: 16 GiB Channels: 1 Width: 64-bit Data Rate: 3205 MT/s
Warmup halting CPU 0 at instruction 20000004 cycle 4470589 for remainder of phase
Warmup finished CPU 0 instructions: 20000004 cycles: 4470589 cumulative IPC: 4.474 (Simulation time: 00 hr 00 min 51 sec)
Warmup complete CPU 0 instructions: 20000004 cycles: 4470589 cumulative IPC: 4.474 (Simulation time: 00 hr 00 min 51 sec)
*** Reached end of trace: (0, "/data0/tzh/champsim_traces/QMM/compute_int_23_new.xz")
*** Reached end of trace: (0, "/data0/tzh/champsim_traces/QMM/compute_int_23_new.xz")
Simulation finished CPU 0 instructions: 50000000 cycles: 92920299 cumulative IPC: 0.5381 (Simulation time: 00 hr 09 min 27 sec)
Simulation complete CPU 0 instructions: 50000000 cycles: 92920299 cumulative IPC: 0.5381 (Simulation time: 00 hr 09 min 27 sec)

ChampSim completed all CPUs

=== Simulation ===
CPU 0 runs /data0/tzh/champsim_traces/QMM/compute_int_23_new.xz

Region of Interest Statistics

CPU 0 cumulative IPC: 0.5381 instructions: 50000000 cycles: 92920299
CPU 0 Branch Prediction Accuracy: 91.76% MPKI: 12.83 Average ROB Occupancy at Mispredict: 60.76
Branch type MPKI
BRANCH_DIRECT_JUMP: 0
BRANCH_INDIRECT: 0
BRANCH_CONDITIONAL: 12.83
BRANCH_DIRECT_CALL: 0
BRANCH_INDIRECT_CALL: 2e-05
BRANCH_RETURN: 0

cpu0->cpu0_STLB TOTAL        ACCESS:     386969 HIT:     285399 MISS:     101570 MSHR_MERGE:          0
cpu0->cpu0_STLB LOAD         ACCESS:     386969 HIT:     285399 MISS:     101570 MSHR_MERGE:          0
cpu0->cpu0_STLB RFO          ACCESS:          0 HIT:          0 MISS:          0 MSHR_MERGE:          0
cpu0->cpu0_STLB PREFETCH     ACCESS:          0 HIT:          0 MISS:          0 MSHR_MERGE:          0
cpu0->cpu0_STLB WRITE        ACCESS:          0 HIT:          0 MISS:          0 MSHR_MERGE:          0
cpu0->cpu0_STLB TRANSLATION  ACCESS:          0 HIT:          0 MISS:          0 MSHR_MERGE:          0
cpu0->cpu0_STLB PREFETCH REQUESTED:          0 ISSUED:          0 USEFUL:          0 USELESS:          0 LATE:          0
cpu0->cpu0_STLB AVERAGE MISS LATENCY: 72.72 cycles
cpu0->cpu0_L2C TOTAL        ACCESS:    5084144 HIT:    2684518 MISS:    2399626 MSHR_MERGE:     875688
cpu0->cpu0_L2C LOAD         ACCESS:     697551 HIT:     315093 MISS:     382458 MSHR_MERGE:      99696
cpu0->cpu0_L2C RFO          ACCESS:      45182 HIT:      11464 MISS:      33718 MSHR_MERGE:        121
cpu0->cpu0_L2C PREFETCH     ACCESS:    3821752 HIT:    1856380 MISS:    1965372 MSHR_MERGE:     775871
cpu0->cpu0_L2C WRITE        ACCESS:     495129 HIT:     495119 MISS:         10 MSHR_MERGE:          0
cpu0->cpu0_L2C TRANSLATION  ACCESS:      24530 HIT:       6462 MISS:      18068 MSHR_MERGE:          0
cpu0->cpu0_L2C PREFETCH REQUESTED:     187792 ISSUED:     181829 USEFUL:      43870 USELESS:      27038 LATE:       1769
cpu0->cpu0_L2C AVERAGE MISS LATENCY: 232 cycles
cpu0->cpu0_L1I TOTAL        ACCESS:     128130 HIT:     128130 MISS:          0 MSHR_MERGE:          0
cpu0->cpu0_L1I LOAD         ACCESS:     128130 HIT:     128130 MISS:          0 MSHR_MERGE:          0
cpu0->cpu0_L1I RFO          ACCESS:          0 HIT:          0 MISS:          0 MSHR_MERGE:          0
cpu0->cpu0_L1I PREFETCH     ACCESS:          0 HIT:          0 MISS:          0 MSHR_MERGE:          0
cpu0->cpu0_L1I WRITE        ACCESS:          0 HIT:          0 MISS:          0 MSHR_MERGE:          0
cpu0->cpu0_L1I TRANSLATION  ACCESS:          0 HIT:          0 MISS:          0 MSHR_MERGE:          0
cpu0->cpu0_L1I PREFETCH REQUESTED:          0 ISSUED:          0 USEFUL:          0 USELESS:          0 LATE:          0
cpu0->cpu0_L1I AVERAGE MISS LATENCY: - cycles
cpu0->cpu0_L1D TOTAL        ACCESS:   19392655 HIT:   14492282 MISS:    4900373 MSHR_MERGE:     415825
cpu0->cpu0_L1D LOAD         ACCESS:    7908437 HIT:    6866857 MISS:    1041580 MSHR_MERGE:     344029
cpu0->cpu0_L1D RFO          ACCESS:          0 HIT:          0 MISS:          0 MSHR_MERGE:          0
cpu0->cpu0_L1D PREFETCH     ACCESS:    5214246 HIT:    1431937 MISS:    3782309 MSHR_MERGE:      65024
cpu0->cpu0_L1D WRITE        ACCESS:    6077174 HIT:    6029749 MISS:      47425 MSHR_MERGE:       2243
cpu0->cpu0_L1D TRANSLATION  ACCESS:     192798 HIT:     163739 MISS:      29059 MSHR_MERGE:       4529
cpu0->cpu0_L1D PREFETCH REQUESTED:    6395110 ISSUED:    5214238 USEFUL:     338637 USELESS:      83892 LATE:      53121
cpu0->cpu0_L1D AVERAGE MISS LATENCY: 143 cycles
cpu0->cpu0_ITLB TOTAL        ACCESS:     125157 HIT:     125089 MISS:         68 MSHR_MERGE:         38
cpu0->cpu0_ITLB LOAD         ACCESS:     125157 HIT:     125089 MISS:         68 MSHR_MERGE:         38
cpu0->cpu0_ITLB RFO          ACCESS:          0 HIT:          0 MISS:          0 MSHR_MERGE:          0
cpu0->cpu0_ITLB PREFETCH     ACCESS:          0 HIT:          0 MISS:          0 MSHR_MERGE:          0
cpu0->cpu0_ITLB WRITE        ACCESS:          0 HIT:          0 MISS:          0 MSHR_MERGE:          0
cpu0->cpu0_ITLB TRANSLATION  ACCESS:          0 HIT:          0 MISS:          0 MSHR_MERGE:          0
cpu0->cpu0_ITLB PREFETCH REQUESTED:          0 ISSUED:          0 USEFUL:          0 USELESS:          0 LATE:          0
cpu0->cpu0_ITLB AVERAGE MISS LATENCY: 5 cycles
cpu0->cpu0_DTLB TOTAL        ACCESS:   17673769 HIT:   17185272 MISS:     488497 MSHR_MERGE:     101558
cpu0->cpu0_DTLB LOAD         ACCESS:   17673769 HIT:   17185272 MISS:     488497 MSHR_MERGE:     101558
cpu0->cpu0_DTLB RFO          ACCESS:          0 HIT:          0 MISS:          0 MSHR_MERGE:          0
cpu0->cpu0_DTLB PREFETCH     ACCESS:          0 HIT:          0 MISS:          0 MSHR_MERGE:          0
cpu0->cpu0_DTLB WRITE        ACCESS:          0 HIT:          0 MISS:          0 MSHR_MERGE:          0
cpu0->cpu0_DTLB TRANSLATION  ACCESS:          0 HIT:          0 MISS:          0 MSHR_MERGE:          0
cpu0->cpu0_DTLB PREFETCH REQUESTED:          0 ISSUED:          0 USEFUL:          0 USELESS:          0 LATE:          0
cpu0->cpu0_DTLB AVERAGE MISS LATENCY: 24.37 cycles
cpu0->LLC TOTAL        ACCESS:    2013545 HIT:     449676 MISS:    1563869 MSHR_MERGE:       7975
cpu0->LLC LOAD         ACCESS:     282762 HIT:       4026 MISS:     278736 MSHR_MERGE:        236
cpu0->LLC RFO          ACCESS:      33597 HIT:         98 MISS:      33499 MSHR_MERGE:          1
cpu0->LLC PREFETCH     ACCESS:    1189497 HIT:      18961 MISS:    1170536 MSHR_MERGE:       7738
cpu0->LLC WRITE        ACCESS:     489621 HIT:     425030 MISS:      64591 MSHR_MERGE:          0
cpu0->LLC TRANSLATION  ACCESS:      18068 HIT:       1561 MISS:      16507 MSHR_MERGE:          0
cpu0->LLC PREFETCH REQUESTED:          0 ISSUED:          0 USEFUL:          0 USELESS:          0 LATE:          0
cpu0->LLC AVERAGE MISS LATENCY: 197.9 cycles

DRAM Statistics

Channel 0 RQ ROW_BUFFER_HIT:     120111
  ROW_BUFFER_MISS:    1371173
  AVG DBUS CONGESTED CYCLE: 7.429
Channel 0 WQ ROW_BUFFER_HIT:     116836
  ROW_BUFFER_MISS:     370326
  FULL:          0
Channel 0 REFRESHES ISSUED:       7743

[ROI Statistics]
[System Configuration]
num_cpus 1
cpu_freq 4000
fetch_width 6
decode_width 6
dispatch_width 6
execute_width 6
lq_width 2
sq_width 2
retire_width 6
scheduler_size 128
branch_mispredict_penalty 15
rob_size 352
lq_size 128
sq_size 72
ifetch_buffer_size 64
decode_buffer_size 32
dispatch_buffer_size 32
register_file_size 288
decode_latency 1
dispatch_latency 1
schedule_latency 1
execute_latency 1
page_size 4096
block_size 64
core_0_itlb_set 16
core_0_itlb_way 4
core_0_itlb_rq_size 16
core_0_itlb_wq_size 16
core_0_itlb_pq_size 0
core_0_itlb_mshr_size 8
core_0_itlb_hit_latency 1
core_0_itlb_fill_latency 1
core_0_itlb_max_tag_check 2
core_0_itlb_max_fill 2
core_0_dtlb_set 16
core_0_dtlb_way 4
core_0_dtlb_rq_size 16
core_0_dtlb_wq_size 16
core_0_dtlb_pq_size 0
core_0_dtlb_mshr_size 8
core_0_dtlb_hit_latency 1
core_0_dtlb_fill_latency 1
core_0_dtlb_max_tag_check 2
core_0_dtlb_max_fill 2
core_0_stlb_set 128
core_0_stlb_way 12
core_0_stlb_rq_size 32
core_0_stlb_wq_size 32
core_0_stlb_pq_size 0
core_0_stlb_mshr_size 16
core_0_stlb_hit_latency 4
core_0_stlb_fill_latency 4
core_0_stlb_max_tag_check 1
core_0_stlb_max_fill 1
core_0_l1i_set 64
core_0_l1i_way 8
core_0_l1i_rq_size 64
core_0_l1i_wq_size 64
core_0_l1i_pq_size 32
core_0_l1i_mshr_size 8
core_0_l1i_hit_latency 2
core_0_l1i_fill_latency 2
core_0_l1i_max_tag_check 2
core_0_l1i_max_fill 2
core_0_l1d_set 64
core_0_l1d_way 12
core_0_l1d_rq_size 64
core_0_l1d_wq_size 64
core_0_l1d_pq_size 8
core_0_l1d_mshr_size 16
core_0_l1d_hit_latency 2
core_0_l1d_fill_latency 3
core_0_l1d_max_tag_check 2
core_0_l1d_max_fill 2
core_0_l2c_set 1024
core_0_l2c_way 8
core_0_l2c_rq_size 32
core_0_l2c_wq_size 32
core_0_l2c_pq_size 16
core_0_l2c_mshr_size 32
core_0_l2c_hit_latency 5
core_0_l2c_fill_latency 5
core_0_l2c_max_tag_check 1
core_0_l2c_max_fill 1
llc_set 2048
llc_way 16
llc_rq_size 32
llc_wq_size 32
llc_pq_size 32
llc_mshr_size 64
llc_hit_latency 10
llc_fill_latency 10
llc_max_tag_check 1
llc_max_fill 1
dram_channels 1
dram_ranks 1
dram_bankgroups 8
dram_banks 4
dram_rows 65536
dram_columns 1024
dram_channel_width 8
dram_rq_size 64
dram_wq_size 64
dram_size 17179869184
core_0_itlb_prefetcher no
core_0_dtlb_prefetcher no
core_0_stlb_prefetcher no
core_0_l1i_prefetcher next_line
core_0_l1d_prefetcher vberti
core_0_l2c_prefetcher ip_stride
llc_prefetcher no
llc_replacement drrip

Core_0_instructions 50000000
Core_0_cycles 92920299
Core_0_IPC 0.538096
Core_0_branch_prediction_accuracy 91.7571
Core_0_branch_MPKI 12.8341
Core_0_average_ROB_occupancy_at_mispredict 60.7579

Core_0_ITLB_total_access 125157
Core_0_ITLB_total_hit 125089
Core_0_ITLB_total_miss 68
Core_0_ITLB_total_MPKI 0.00136
Core_0_ITLB_total_miss_rate 0.000543318
Core_0_ITLB_demand_access 125157
Core_0_ITLB_demand_hit 125089
Core_0_ITLB_demand_miss 68
Core_0_ITLB_demand_MPKI 0.00136
Core_0_ITLB_demand_miss_rate 0.000543318
Core_0_ITLB_load_access 125157
Core_0_ITLB_load_hit 125089
Core_0_ITLB_load_miss 68
Core_0_ITLB_load_MPKI 0.00136
Core_0_ITLB_load_miss_rate 0.000543318
Core_0_ITLB_rfo_access 0
Core_0_ITLB_rfo_hit 0
Core_0_ITLB_rfo_miss 0
Core_0_ITLB_rfo_MPKI 0
Core_0_ITLB_rfo_miss_rate 0
Core_0_ITLB_prefetch_access 0
Core_0_ITLB_prefetch_hit 0
Core_0_ITLB_prefetch_miss 0
Core_0_ITLB_prefetch_MPKI 0
Core_0_ITLB_prefetch_miss_rate 0
Core_0_ITLB_writeback_access 0
Core_0_ITLB_writeback_hit 0
Core_0_ITLB_writeback_miss 0
Core_0_ITLB_writeback_MPKI 0
Core_0_ITLB_writeback_miss_rate 0
Core_0_ITLB_prefetch_requested 0
Core_0_ITLB_prefetch_issued 0
Core_0_ITLB_prefetch_useful 0
Core_0_ITLB_prefetch_useless 0
Core_0_ITLB_prefetch_late 0
Core_0_ITLB_prefetch_accuracy 0
Core_0_ITLB_prefetch_coverage 0
Core_0_ITLB_total_eviction 30

Core_0_DTLB_total_access 17673769
Core_0_DTLB_total_hit 17185272
Core_0_DTLB_total_miss 488497
Core_0_DTLB_total_MPKI 9.76994
Core_0_DTLB_total_miss_rate 0.0276397
Core_0_DTLB_demand_access 17673769
Core_0_DTLB_demand_hit 17185272
Core_0_DTLB_demand_miss 488497
Core_0_DTLB_demand_MPKI 9.76994
Core_0_DTLB_demand_miss_rate 0.0276397
Core_0_DTLB_load_access 17673769
Core_0_DTLB_load_hit 17185272
Core_0_DTLB_load_miss 488497
Core_0_DTLB_load_MPKI 9.76994
Core_0_DTLB_load_miss_rate 0.0276397
Core_0_DTLB_rfo_access 0
Core_0_DTLB_rfo_hit 0
Core_0_DTLB_rfo_miss 0
Core_0_DTLB_rfo_MPKI 0
Core_0_DTLB_rfo_miss_rate 0
Core_0_DTLB_prefetch_access 0
Core_0_DTLB_prefetch_hit 0
Core_0_DTLB_prefetch_miss 0
Core_0_DTLB_prefetch_MPKI 0
Core_0_DTLB_prefetch_miss_rate 0
Core_0_DTLB_writeback_access 0
Core_0_DTLB_writeback_hit 0
Core_0_DTLB_writeback_miss 0
Core_0_DTLB_writeback_MPKI 0
Core_0_DTLB_writeback_miss_rate 0
Core_0_DTLB_prefetch_requested 0
Core_0_DTLB_prefetch_issued 0
Core_0_DTLB_prefetch_useful 0
Core_0_DTLB_prefetch_useless 0
Core_0_DTLB_prefetch_late 0
Core_0_DTLB_prefetch_accuracy 0
Core_0_DTLB_prefetch_coverage 0
Core_0_DTLB_total_eviction 386939

Core_0_STLB_total_access 386969
Core_0_STLB_total_hit 285399
Core_0_STLB_total_miss 101570
Core_0_STLB_total_MPKI 2.0314
Core_0_STLB_total_miss_rate 0.262476
Core_0_STLB_demand_access 386969
Core_0_STLB_demand_hit 285399
Core_0_STLB_demand_miss 101570
Core_0_STLB_demand_MPKI 2.0314
Core_0_STLB_demand_miss_rate 0.262476
Core_0_STLB_load_access 386969
Core_0_STLB_load_hit 285399
Core_0_STLB_load_miss 101570
Core_0_STLB_load_MPKI 2.0314
Core_0_STLB_load_miss_rate 0.262476
Core_0_STLB_rfo_access 0
Core_0_STLB_rfo_hit 0
Core_0_STLB_rfo_miss 0
Core_0_STLB_rfo_MPKI 0
Core_0_STLB_rfo_miss_rate 0
Core_0_STLB_prefetch_access 0
Core_0_STLB_prefetch_hit 0
Core_0_STLB_prefetch_miss 0
Core_0_STLB_prefetch_MPKI 0
Core_0_STLB_prefetch_miss_rate 0
Core_0_STLB_writeback_access 0
Core_0_STLB_writeback_hit 0
Core_0_STLB_writeback_miss 0
Core_0_STLB_writeback_MPKI 0
Core_0_STLB_writeback_miss_rate 0
Core_0_STLB_prefetch_requested 0
Core_0_STLB_prefetch_issued 0
Core_0_STLB_prefetch_useful 0
Core_0_STLB_prefetch_useless 0
Core_0_STLB_prefetch_late 0
Core_0_STLB_prefetch_accuracy 0
Core_0_STLB_prefetch_coverage 0
Core_0_STLB_total_eviction 155581

Core_0_L1I_total_access 128130
Core_0_L1I_total_hit 128130
Core_0_L1I_total_miss 0
Core_0_L1I_total_MPKI 0
Core_0_L1I_total_miss_rate 0
Core_0_L1I_demand_access 128130
Core_0_L1I_demand_hit 128130
Core_0_L1I_demand_miss 0
Core_0_L1I_demand_MPKI 0
Core_0_L1I_demand_miss_rate 0
Core_0_L1I_load_access 128130
Core_0_L1I_load_hit 128130
Core_0_L1I_load_miss 0
Core_0_L1I_load_MPKI 0
Core_0_L1I_load_miss_rate 0
Core_0_L1I_rfo_access 0
Core_0_L1I_rfo_hit 0
Core_0_L1I_rfo_miss 0
Core_0_L1I_rfo_MPKI 0
Core_0_L1I_rfo_miss_rate 0
Core_0_L1I_prefetch_access 0
Core_0_L1I_prefetch_hit 0
Core_0_L1I_prefetch_miss 0
Core_0_L1I_prefetch_MPKI 0
Core_0_L1I_prefetch_miss_rate 0
Core_0_L1I_writeback_access 0
Core_0_L1I_writeback_hit 0
Core_0_L1I_writeback_miss 0
Core_0_L1I_writeback_MPKI 0
Core_0_L1I_writeback_miss_rate 0
Core_0_L1I_prefetch_requested 0
Core_0_L1I_prefetch_issued 0
Core_0_L1I_prefetch_useful 0
Core_0_L1I_prefetch_useless 0
Core_0_L1I_prefetch_late 0
Core_0_L1I_prefetch_accuracy 0
Core_0_L1I_prefetch_coverage 0
Core_0_L1I_total_eviction 0

Core_0_L1D_total_access 19199857
Core_0_L1D_total_hit 14328543
Core_0_L1D_total_miss 4871314
Core_0_L1D_total_MPKI 97.4263
Core_0_L1D_total_miss_rate 0.253716
Core_0_L1D_demand_access 7908437
Core_0_L1D_demand_hit 6866857
Core_0_L1D_demand_miss 1041580
Core_0_L1D_demand_MPKI 20.8316
Core_0_L1D_demand_miss_rate 0.131705
Core_0_L1D_load_access 7908437
Core_0_L1D_load_hit 6866857
Core_0_L1D_load_miss 1041580
Core_0_L1D_load_MPKI 20.8316
Core_0_L1D_load_miss_rate 0.131705
Core_0_L1D_rfo_access 0
Core_0_L1D_rfo_hit 0
Core_0_L1D_rfo_miss 0
Core_0_L1D_rfo_MPKI 0
Core_0_L1D_rfo_miss_rate 0
Core_0_L1D_prefetch_access 5214246
Core_0_L1D_prefetch_hit 1431937
Core_0_L1D_prefetch_miss 3782309
Core_0_L1D_prefetch_MPKI 75.6462
Core_0_L1D_prefetch_miss_rate 0.72538
Core_0_L1D_writeback_access 6077174
Core_0_L1D_writeback_hit 6029749
Core_0_L1D_writeback_miss 47425
Core_0_L1D_writeback_MPKI 0.9485
Core_0_L1D_writeback_miss_rate 0.00780379
Core_0_L1D_prefetch_requested 6395110
Core_0_L1D_prefetch_issued 5214238
Core_0_L1D_prefetch_useful 338637
Core_0_L1D_prefetch_useless 83892
Core_0_L1D_prefetch_late 53121
Core_0_L1D_prefetch_accuracy 0.0649447
Core_0_L1D_prefetch_coverage 0.245351
Core_0_L1D_total_eviction 1189820

Core_0_L2C_total_access 5059614
Core_0_L2C_total_hit 2678056
Core_0_L2C_total_miss 2381558
Core_0_L2C_total_MPKI 47.6312
Core_0_L2C_total_miss_rate 0.4707
Core_0_L2C_demand_access 742733
Core_0_L2C_demand_hit 326557
Core_0_L2C_demand_miss 416176
Core_0_L2C_demand_MPKI 8.32352
Core_0_L2C_demand_miss_rate 0.560331
Core_0_L2C_load_access 697551
Core_0_L2C_load_hit 315093
Core_0_L2C_load_miss 382458
Core_0_L2C_load_MPKI 7.64916
Core_0_L2C_load_miss_rate 0.548287
Core_0_L2C_rfo_access 45182
Core_0_L2C_rfo_hit 11464
Core_0_L2C_rfo_miss 33718
Core_0_L2C_rfo_MPKI 0.67436
Core_0_L2C_rfo_miss_rate 0.746271
Core_0_L2C_prefetch_access 3821752
Core_0_L2C_prefetch_hit 1856380
Core_0_L2C_prefetch_miss 1965372
Core_0_L2C_prefetch_MPKI 39.3074
Core_0_L2C_prefetch_miss_rate 0.514259
Core_0_L2C_writeback_access 495129
Core_0_L2C_writeback_hit 495119
Core_0_L2C_writeback_miss 10
Core_0_L2C_writeback_MPKI 0.0002
Core_0_L2C_writeback_miss_rate 2.01968e-05
Core_0_L2C_prefetch_requested 187792
Core_0_L2C_prefetch_issued 181829
Core_0_L2C_prefetch_useful 43870
Core_0_L2C_prefetch_useless 27038
Core_0_L2C_prefetch_late 1769
Core_0_L2C_prefetch_accuracy 0.241271
Core_0_L2C_prefetch_coverage 0.09536
Core_0_L2C_total_eviction 1506924

Core_0_LLC_total_access 1995477
Core_0_LLC_total_hit 448115
Core_0_LLC_total_miss 1547362
Core_0_LLC_total_MPKI 30.9472
Core_0_LLC_total_miss_rate 0.775435
Core_0_LLC_demand_access 316359
Core_0_LLC_demand_hit 4124
Core_0_LLC_demand_miss 312235
Core_0_LLC_demand_MPKI 6.2447
Core_0_LLC_demand_miss_rate 0.986964
Core_0_LLC_load_access 282762
Core_0_LLC_load_hit 4026
Core_0_LLC_load_miss 278736
Core_0_LLC_load_MPKI 5.57472
Core_0_LLC_load_miss_rate 0.985762
Core_0_LLC_rfo_access 33597
Core_0_LLC_rfo_hit 98
Core_0_LLC_rfo_miss 33499
Core_0_LLC_rfo_MPKI 0.66998
Core_0_LLC_rfo_miss_rate 0.997083
Core_0_LLC_prefetch_access 1189497
Core_0_LLC_prefetch_hit 18961
Core_0_LLC_prefetch_miss 1170536
Core_0_LLC_prefetch_MPKI 23.4107
Core_0_LLC_prefetch_miss_rate 0.98406
Core_0_LLC_writeback_access 489621
Core_0_LLC_writeback_hit 425030
Core_0_LLC_writeback_miss 64591
Core_0_LLC_writeback_MPKI 1.29182
Core_0_LLC_writeback_miss_rate 0.13192
Core_0_LLC_prefetch_requested 0
Core_0_LLC_prefetch_issued 0
Core_0_LLC_prefetch_useful 0
Core_0_LLC_prefetch_useless 0
Core_0_LLC_prefetch_late 0
Core_0_LLC_prefetch_accuracy 0
Core_0_LLC_prefetch_coverage 0
Core_0_LLC_total_eviction 1555889

[DRAM Statistics]
Channel_0_RQ_row_buffer_hit 120111
Channel_0_RQ_row_buffer_miss 1371173
Channel_0_WQ_row_buffer_hit 116836
Channel_0_WQ_row_buffer_miss 370326
Channel_0_WQ_full 0
Channel_0_dbus_congested 5148992
DRAM_total_RQ_row_buffer_hit 120111
DRAM_total_RQ_row_buffer_miss 1371173
DRAM_total_WQ_row_buffer_hit 116836
DRAM_total_WQ_row_buffer_miss 370326
DRAM_total_WQ_full 0
DRAM_total_dbus_congested 5148992
DRAM_avg_congested_cycle 7.42938

======STLB miss causes ========
Core_0_STLB_miss_cause_breakdown
Core_0_STLB_cause_Demand_Data_miss 0
Core_0_STLB_cause_Demand_Data_miss_rate 0
Core_0_STLB_cause_Demand_Instruction_miss 0
Core_0_STLB_cause_Demand_Instruction_miss_rate 0
Core_0_STLB_cause_L1D_Prefetch_miss 101570
Core_0_STLB_cause_L1D_Prefetch_miss_rate 0.262476
Core_0_STLB_cause_L1I_Prefetch_miss 0
Core_0_STLB_cause_L1I_Prefetch_miss_rate 0
Core_0_STLB_cause_Other_miss 0
Core_0_STLB_cause_Other_miss_rate 0
Core_0_STLB_Demand_miss 0
Core_0_STLB_Demand_miss_rate 0
Core_0_STLB_L1D_Prefetch_miss 101570
Core_0_STLB_L1D_Prefetch_miss_rate 0.262476
Core_0_STLB_Other_miss 0
Core_0_STLB_Other_miss_rate 0
BERTI TO_L1: 1612143 TO_L2: 7285577 TO_L2_BC_MSHR: 66516
BERTI AVG_LAT: 119.169 NUM_TRACK_LATENCY: 1563989 NUM_CANT_TRACK_LATENCY: 0
BERTI CROSS_PAGE 5662646 NO_CROSS_PAGE: 3235074
BERTI FOUND_BERTI: 7409343 NO_FOUND_BERTI: 10753162
BERTI AVERAGE_ISSUED: 2.1749
