[VMEM] WARNING: physical memory size is smaller than virtual memory size.

*** ChampSim Multicore Out-of-Order Simulator ***
Warmup Instructions: 20000000
Simulation Instructions: 50000000
Number of CPUs: 1
Page size: 4096
STLB ideal mode: demand
STLB ideal fill: on
Core 0: /data0/tzh/champsim_traces/QMM/compute_int_2_new.xz
VBerti Prefetcher
BERTI HASH ENTANGLING
BERTI IP MASK ffff
Off-chip DRAM Size: 16 GiB Channels: 1 Width: 64-bit Data Rate: 3205 MT/s
Warmup halting CPU 0 at instruction 20000001 cycle 4312998 for remainder of phase
Warmup finished CPU 0 instructions: 20000001 cycles: 4312998 cumulative IPC: 4.637 (Simulation time: 00 hr 01 min 11 sec)
Warmup complete CPU 0 instructions: 20000001 cycles: 4312998 cumulative IPC: 4.637 (Simulation time: 00 hr 01 min 11 sec)
*** Reached end of trace: (0, "/data0/tzh/champsim_traces/QMM/compute_int_2_new.xz")
*** Reached end of trace: (0, "/data0/tzh/champsim_traces/QMM/compute_int_2_new.xz")
Simulation finished CPU 0 instructions: 50000003 cycles: 336330336 cumulative IPC: 0.1487 (Simulation time: 00 hr 26 min 44 sec)
Simulation complete CPU 0 instructions: 50000003 cycles: 336330336 cumulative IPC: 0.1487 (Simulation time: 00 hr 26 min 44 sec)

ChampSim completed all CPUs

=== Simulation ===
CPU 0 runs /data0/tzh/champsim_traces/QMM/compute_int_2_new.xz

Region of Interest Statistics

CPU 0 cumulative IPC: 0.1487 instructions: 50000003 cycles: 336330336
CPU 0 Branch Prediction Accuracy: 94.21% MPKI: 11.95 Average ROB Occupancy at Mispredict: 60.31
Branch type MPKI
BRANCH_DIRECT_JUMP: 0
BRANCH_INDIRECT: 0
BRANCH_CONDITIONAL: 11.95
BRANCH_DIRECT_CALL: 0
BRANCH_INDIRECT_CALL: 2e-05
BRANCH_RETURN: 0.00016

cpu0->cpu0_STLB TOTAL        ACCESS:    3711962 HIT:    3711831 MISS:        131 MSHR_MERGE:          0
cpu0->cpu0_STLB LOAD         ACCESS:    3711962 HIT:    3711831 MISS:        131 MSHR_MERGE:          0
cpu0->cpu0_STLB RFO          ACCESS:          0 HIT:          0 MISS:          0 MSHR_MERGE:          0
cpu0->cpu0_STLB PREFETCH     ACCESS:          0 HIT:          0 MISS:          0 MSHR_MERGE:          0
cpu0->cpu0_STLB WRITE        ACCESS:          0 HIT:          0 MISS:          0 MSHR_MERGE:          0
cpu0->cpu0_STLB TRANSLATION  ACCESS:          0 HIT:          0 MISS:          0 MSHR_MERGE:          0
cpu0->cpu0_STLB PREFETCH REQUESTED:          0 ISSUED:          0 USEFUL:          0 USELESS:          0 LATE:          0
cpu0->cpu0_STLB AVERAGE MISS LATENCY: 235.6 cycles
cpu0->cpu0_L2C TOTAL        ACCESS:    6204072 HIT:    2547623 MISS:    3656449 MSHR_MERGE:        563
cpu0->cpu0_L2C LOAD         ACCESS:    4958073 HIT:    1370161 MISS:    3587912 MSHR_MERGE:         22
cpu0->cpu0_L2C RFO          ACCESS:      87099 HIT:      25514 MISS:      61585 MSHR_MERGE:          0
cpu0->cpu0_L2C PREFETCH     ACCESS:      68980 HIT:      62193 MISS:       6787 MSHR_MERGE:        541
cpu0->cpu0_L2C WRITE        ACCESS:    1089798 HIT:    1089744 MISS:         54 MSHR_MERGE:          0
cpu0->cpu0_L2C TRANSLATION  ACCESS:        122 HIT:         11 MISS:        111 MSHR_MERGE:          0
cpu0->cpu0_L2C PREFETCH REQUESTED:       3611 ISSUED:       3611 USEFUL:        514 USELESS:        793 LATE:         14
cpu0->cpu0_L2C AVERAGE MISS LATENCY: 186.4 cycles
cpu0->cpu0_L1I TOTAL        ACCESS:    1617063 HIT:    1617000 MISS:         63 MSHR_MERGE:         20
cpu0->cpu0_L1I LOAD         ACCESS:    1617063 HIT:    1617000 MISS:         63 MSHR_MERGE:         20
cpu0->cpu0_L1I RFO          ACCESS:          0 HIT:          0 MISS:          0 MSHR_MERGE:          0
cpu0->cpu0_L1I PREFETCH     ACCESS:          0 HIT:          0 MISS:          0 MSHR_MERGE:          0
cpu0->cpu0_L1I WRITE        ACCESS:          0 HIT:          0 MISS:          0 MSHR_MERGE:          0
cpu0->cpu0_L1I TRANSLATION  ACCESS:          0 HIT:          0 MISS:          0 MSHR_MERGE:          0
cpu0->cpu0_L1I PREFETCH REQUESTED:          0 ISSUED:          0 USEFUL:          0 USELESS:          0 LATE:          0
cpu0->cpu0_L1I AVERAGE MISS LATENCY: 245.3 cycles
cpu0->cpu0_L1D TOTAL        ACCESS:   12323055 HIT:    5760513 MISS:    6562542 MSHR_MERGE:    1451251
cpu0->cpu0_L1D LOAD         ACCESS:    9484482 HIT:    3081546 MISS:    6402936 MSHR_MERGE:    1444885
cpu0->cpu0_L1D RFO          ACCESS:          0 HIT:          0 MISS:          0 MSHR_MERGE:          0
cpu0->cpu0_L1D PREFETCH     ACCESS:     969742 HIT:     903154 MISS:      66588 MSHR_MERGE:        570
cpu0->cpu0_L1D WRITE        ACCESS:    1868564 HIT:    1775668 MISS:      92896 MSHR_MERGE:       5796
cpu0->cpu0_L1D TRANSLATION  ACCESS:        267 HIT:        145 MISS:        122 MSHR_MERGE:          0
cpu0->cpu0_L1D PREFETCH REQUESTED:    1031746 ISSUED:     969742 USEFUL:       7743 USELESS:       4767 LATE:        155
cpu0->cpu0_L1D AVERAGE MISS LATENCY: 143.7 cycles
cpu0->cpu0_ITLB TOTAL        ACCESS:    1320701 HIT:    1320627 MISS:         74 MSHR_MERGE:         44
cpu0->cpu0_ITLB LOAD         ACCESS:    1320701 HIT:    1320627 MISS:         74 MSHR_MERGE:         44
cpu0->cpu0_ITLB RFO          ACCESS:          0 HIT:          0 MISS:          0 MSHR_MERGE:          0
cpu0->cpu0_ITLB PREFETCH     ACCESS:          0 HIT:          0 MISS:          0 MSHR_MERGE:          0
cpu0->cpu0_ITLB WRITE        ACCESS:          0 HIT:          0 MISS:          0 MSHR_MERGE:          0
cpu0->cpu0_ITLB TRANSLATION  ACCESS:          0 HIT:          0 MISS:          0 MSHR_MERGE:          0
cpu0->cpu0_ITLB PREFETCH REQUESTED:          0 ISSUED:          0 USEFUL:          0 USELESS:          0 LATE:          0
cpu0->cpu0_ITLB AVERAGE MISS LATENCY: 5 cycles
cpu0->cpu0_DTLB TOTAL        ACCESS:   11736782 HIT:    6345605 MISS:    5391177 MSHR_MERGE:    1679245
cpu0->cpu0_DTLB LOAD         ACCESS:   11736782 HIT:    6345605 MISS:    5391177 MSHR_MERGE:    1679245
cpu0->cpu0_DTLB RFO          ACCESS:          0 HIT:          0 MISS:          0 MSHR_MERGE:          0
cpu0->cpu0_DTLB PREFETCH     ACCESS:          0 HIT:          0 MISS:          0 MSHR_MERGE:          0
cpu0->cpu0_DTLB WRITE        ACCESS:          0 HIT:          0 MISS:          0 MSHR_MERGE:          0
cpu0->cpu0_DTLB TRANSLATION  ACCESS:          0 HIT:          0 MISS:          0 MSHR_MERGE:          0
cpu0->cpu0_DTLB PREFETCH REQUESTED:          0 ISSUED:          0 USEFUL:          0 USELESS:          0 LATE:          0
cpu0->cpu0_DTLB AVERAGE MISS LATENCY: 5.01 cycles
cpu0->LLC TOTAL        ACCESS:    4498973 HIT:    1264437 MISS:    3234536 MSHR_MERGE:          2
cpu0->LLC LOAD         ACCESS:    3587890 HIT:     842283 MISS:    2745607 MSHR_MERGE:          0
cpu0->LLC RFO          ACCESS:      61585 HIT:      23515 MISS:      38070 MSHR_MERGE:          0
cpu0->LLC PREFETCH     ACCESS:       6246 HIT:       1276 MISS:       4970 MSHR_MERGE:          2
cpu0->LLC WRITE        ACCESS:     843141 HIT:     397358 MISS:     445783 MSHR_MERGE:          0
cpu0->LLC TRANSLATION  ACCESS:        111 HIT:          5 MISS:        106 MSHR_MERGE:          0
cpu0->LLC PREFETCH REQUESTED:          0 ISSUED:          0 USEFUL:          0 USELESS:          0 LATE:          0
cpu0->LLC AVERAGE MISS LATENCY: 194.1 cycles

DRAM Statistics

Channel 0 RQ ROW_BUFFER_HIT:       4153
  ROW_BUFFER_MISS:    2783888
  AVG DBUS CONGESTED CYCLE: 9.891
Channel 0 WQ ROW_BUFFER_HIT:     174509
  ROW_BUFFER_MISS:     422540
  FULL:          0
Channel 0 REFRESHES ISSUED:      28027

[ROI Statistics]
[System Configuration]
num_cpus 1
cpu_freq 4000
fetch_width 6
decode_width 6
dispatch_width 6
execute_width 6
lq_width 2
sq_width 2
retire_width 6
scheduler_size 128
branch_mispredict_penalty 15
rob_size 352
lq_size 128
sq_size 72
ifetch_buffer_size 64
decode_buffer_size 32
dispatch_buffer_size 32
register_file_size 288
decode_latency 1
dispatch_latency 1
schedule_latency 1
execute_latency 1
page_size 4096
block_size 64
core_0_itlb_set 16
core_0_itlb_way 4
core_0_itlb_rq_size 16
core_0_itlb_wq_size 16
core_0_itlb_pq_size 0
core_0_itlb_mshr_size 8
core_0_itlb_hit_latency 1
core_0_itlb_fill_latency 1
core_0_itlb_max_tag_check 2
core_0_itlb_max_fill 2
core_0_dtlb_set 16
core_0_dtlb_way 4
core_0_dtlb_rq_size 16
core_0_dtlb_wq_size 16
core_0_dtlb_pq_size 0
core_0_dtlb_mshr_size 8
core_0_dtlb_hit_latency 1
core_0_dtlb_fill_latency 1
core_0_dtlb_max_tag_check 2
core_0_dtlb_max_fill 2
core_0_stlb_set 128
core_0_stlb_way 12
core_0_stlb_rq_size 32
core_0_stlb_wq_size 32
core_0_stlb_pq_size 0
core_0_stlb_mshr_size 16
core_0_stlb_hit_latency 4
core_0_stlb_fill_latency 4
core_0_stlb_max_tag_check 1
core_0_stlb_max_fill 1
core_0_l1i_set 64
core_0_l1i_way 8
core_0_l1i_rq_size 64
core_0_l1i_wq_size 64
core_0_l1i_pq_size 32
core_0_l1i_mshr_size 8
core_0_l1i_hit_latency 2
core_0_l1i_fill_latency 2
core_0_l1i_max_tag_check 2
core_0_l1i_max_fill 2
core_0_l1d_set 64
core_0_l1d_way 12
core_0_l1d_rq_size 64
core_0_l1d_wq_size 64
core_0_l1d_pq_size 8
core_0_l1d_mshr_size 16
core_0_l1d_hit_latency 2
core_0_l1d_fill_latency 3
core_0_l1d_max_tag_check 2
core_0_l1d_max_fill 2
core_0_l2c_set 1024
core_0_l2c_way 8
core_0_l2c_rq_size 32
core_0_l2c_wq_size 32
core_0_l2c_pq_size 16
core_0_l2c_mshr_size 32
core_0_l2c_hit_latency 5
core_0_l2c_fill_latency 5
core_0_l2c_max_tag_check 1
core_0_l2c_max_fill 1
llc_set 2048
llc_way 16
llc_rq_size 32
llc_wq_size 32
llc_pq_size 32
llc_mshr_size 64
llc_hit_latency 10
llc_fill_latency 10
llc_max_tag_check 1
llc_max_fill 1
dram_channels 1
dram_ranks 1
dram_bankgroups 8
dram_banks 4
dram_rows 65536
dram_columns 1024
dram_channel_width 8
dram_rq_size 64
dram_wq_size 64
dram_size 17179869184
core_0_itlb_prefetcher no
core_0_dtlb_prefetcher no
core_0_stlb_prefetcher no
core_0_l1i_prefetcher next_line
core_0_l1d_prefetcher vberti
core_0_l2c_prefetcher ip_stride
llc_prefetcher no
llc_replacement drrip

Core_0_instructions 50000003
Core_0_cycles 336330336
Core_0_IPC 0.148663
Core_0_branch_prediction_accuracy 94.2133
Core_0_branch_MPKI 11.9453
Core_0_average_ROB_occupancy_at_mispredict 60.3141

Core_0_ITLB_total_access 1320701
Core_0_ITLB_total_hit 1320627
Core_0_ITLB_total_miss 74
Core_0_ITLB_total_MPKI 0.00148
Core_0_ITLB_total_miss_rate 5.60309e-05
Core_0_ITLB_demand_access 1320701
Core_0_ITLB_demand_hit 1320627
Core_0_ITLB_demand_miss 74
Core_0_ITLB_demand_MPKI 0.00148
Core_0_ITLB_demand_miss_rate 5.60309e-05
Core_0_ITLB_load_access 1320701
Core_0_ITLB_load_hit 1320627
Core_0_ITLB_load_miss 74
Core_0_ITLB_load_MPKI 0.00148
Core_0_ITLB_load_miss_rate 5.60309e-05
Core_0_ITLB_rfo_access 0
Core_0_ITLB_rfo_hit 0
Core_0_ITLB_rfo_miss 0
Core_0_ITLB_rfo_MPKI 0
Core_0_ITLB_rfo_miss_rate 0
Core_0_ITLB_prefetch_access 0
Core_0_ITLB_prefetch_hit 0
Core_0_ITLB_prefetch_miss 0
Core_0_ITLB_prefetch_MPKI 0
Core_0_ITLB_prefetch_miss_rate 0
Core_0_ITLB_writeback_access 0
Core_0_ITLB_writeback_hit 0
Core_0_ITLB_writeback_miss 0
Core_0_ITLB_writeback_MPKI 0
Core_0_ITLB_writeback_miss_rate 0
Core_0_ITLB_prefetch_requested 0
Core_0_ITLB_prefetch_issued 0
Core_0_ITLB_prefetch_useful 0
Core_0_ITLB_prefetch_useless 0
Core_0_ITLB_prefetch_late 0
Core_0_ITLB_prefetch_accuracy 0
Core_0_ITLB_prefetch_coverage 0
Core_0_ITLB_total_eviction 30

Core_0_DTLB_total_access 11736782
Core_0_DTLB_total_hit 6345605
Core_0_DTLB_total_miss 5391177
Core_0_DTLB_total_MPKI 107.824
Core_0_DTLB_total_miss_rate 0.45934
Core_0_DTLB_demand_access 11736782
Core_0_DTLB_demand_hit 6345605
Core_0_DTLB_demand_miss 5391177
Core_0_DTLB_demand_MPKI 107.824
Core_0_DTLB_demand_miss_rate 0.45934
Core_0_DTLB_load_access 11736782
Core_0_DTLB_load_hit 6345605
Core_0_DTLB_load_miss 5391177
Core_0_DTLB_load_MPKI 107.824
Core_0_DTLB_load_miss_rate 0.45934
Core_0_DTLB_rfo_access 0
Core_0_DTLB_rfo_hit 0
Core_0_DTLB_rfo_miss 0
Core_0_DTLB_rfo_MPKI 0
Core_0_DTLB_rfo_miss_rate 0
Core_0_DTLB_prefetch_access 0
Core_0_DTLB_prefetch_hit 0
Core_0_DTLB_prefetch_miss 0
Core_0_DTLB_prefetch_MPKI 0
Core_0_DTLB_prefetch_miss_rate 0
Core_0_DTLB_writeback_access 0
Core_0_DTLB_writeback_hit 0
Core_0_DTLB_writeback_miss 0
Core_0_DTLB_writeback_MPKI 0
Core_0_DTLB_writeback_miss_rate 0
Core_0_DTLB_prefetch_requested 0
Core_0_DTLB_prefetch_issued 0
Core_0_DTLB_prefetch_useful 0
Core_0_DTLB_prefetch_useless 0
Core_0_DTLB_prefetch_late 0
Core_0_DTLB_prefetch_accuracy 0
Core_0_DTLB_prefetch_coverage 0
Core_0_DTLB_total_eviction 3711932

Core_0_STLB_total_access 3711962
Core_0_STLB_total_hit 3711831
Core_0_STLB_total_miss 131
Core_0_STLB_total_MPKI 0.00262
Core_0_STLB_total_miss_rate 3.52913e-05
Core_0_STLB_demand_access 3711962
Core_0_STLB_demand_hit 3711831
Core_0_STLB_demand_miss 131
Core_0_STLB_demand_MPKI 0.00262
Core_0_STLB_demand_miss_rate 3.52913e-05
Core_0_STLB_load_access 3711962
Core_0_STLB_load_hit 3711831
Core_0_STLB_load_miss 131
Core_0_STLB_load_MPKI 0.00262
Core_0_STLB_load_miss_rate 3.52913e-05
Core_0_STLB_rfo_access 0
Core_0_STLB_rfo_hit 0
Core_0_STLB_rfo_miss 0
Core_0_STLB_rfo_MPKI 0
Core_0_STLB_rfo_miss_rate 0
Core_0_STLB_prefetch_access 0
Core_0_STLB_prefetch_hit 0
Core_0_STLB_prefetch_miss 0
Core_0_STLB_prefetch_MPKI 0
Core_0_STLB_prefetch_miss_rate 0
Core_0_STLB_writeback_access 0
Core_0_STLB_writeback_hit 0
Core_0_STLB_writeback_miss 0
Core_0_STLB_writeback_MPKI 0
Core_0_STLB_writeback_miss_rate 0
Core_0_STLB_prefetch_requested 0
Core_0_STLB_prefetch_issued 0
Core_0_STLB_prefetch_useful 0
Core_0_STLB_prefetch_useless 0
Core_0_STLB_prefetch_late 0
Core_0_STLB_prefetch_accuracy 0
Core_0_STLB_prefetch_coverage 0
Core_0_STLB_total_eviction 468789

Core_0_L1I_total_access 1617063
Core_0_L1I_total_hit 1617000
Core_0_L1I_total_miss 63
Core_0_L1I_total_MPKI 0.00126
Core_0_L1I_total_miss_rate 3.89595e-05
Core_0_L1I_demand_access 1617063
Core_0_L1I_demand_hit 1617000
Core_0_L1I_demand_miss 63
Core_0_L1I_demand_MPKI 0.00126
Core_0_L1I_demand_miss_rate 3.89595e-05
Core_0_L1I_load_access 1617063
Core_0_L1I_load_hit 1617000
Core_0_L1I_load_miss 63
Core_0_L1I_load_MPKI 0.00126
Core_0_L1I_load_miss_rate 3.89595e-05
Core_0_L1I_rfo_access 0
Core_0_L1I_rfo_hit 0
Core_0_L1I_rfo_miss 0
Core_0_L1I_rfo_MPKI 0
Core_0_L1I_rfo_miss_rate 0
Core_0_L1I_prefetch_access 0
Core_0_L1I_prefetch_hit 0
Core_0_L1I_prefetch_miss 0
Core_0_L1I_prefetch_MPKI 0
Core_0_L1I_prefetch_miss_rate 0
Core_0_L1I_writeback_access 0
Core_0_L1I_writeback_hit 0
Core_0_L1I_writeback_miss 0
Core_0_L1I_writeback_MPKI 0
Core_0_L1I_writeback_miss_rate 0
Core_0_L1I_prefetch_requested 0
Core_0_L1I_prefetch_issued 0
Core_0_L1I_prefetch_useful 0
Core_0_L1I_prefetch_useless 0
Core_0_L1I_prefetch_late 0
Core_0_L1I_prefetch_accuracy 0
Core_0_L1I_prefetch_coverage 0
Core_0_L1I_total_eviction 43

Core_0_L1D_total_access 12322788
Core_0_L1D_total_hit 5760368
Core_0_L1D_total_miss 6562420
Core_0_L1D_total_MPKI 131.248
Core_0_L1D_total_miss_rate 0.532543
Core_0_L1D_demand_access 9484482
Core_0_L1D_demand_hit 3081546
Core_0_L1D_demand_miss 6402936
Core_0_L1D_demand_MPKI 128.059
Core_0_L1D_demand_miss_rate 0.675096
Core_0_L1D_load_access 9484482
Core_0_L1D_load_hit 3081546
Core_0_L1D_load_miss 6402936
Core_0_L1D_load_MPKI 128.059
Core_0_L1D_load_miss_rate 0.675096
Core_0_L1D_rfo_access 0
Core_0_L1D_rfo_hit 0
Core_0_L1D_rfo_miss 0
Core_0_L1D_rfo_MPKI 0
Core_0_L1D_rfo_miss_rate 0
Core_0_L1D_prefetch_access 969742
Core_0_L1D_prefetch_hit 903154
Core_0_L1D_prefetch_miss 66588
Core_0_L1D_prefetch_MPKI 1.33176
Core_0_L1D_prefetch_miss_rate 0.0686657
Core_0_L1D_writeback_access 1868564
Core_0_L1D_writeback_hit 1775668
Core_0_L1D_writeback_miss 92896
Core_0_L1D_writeback_MPKI 1.85792
Core_0_L1D_writeback_miss_rate 0.0497152
Core_0_L1D_prefetch_requested 1031746
Core_0_L1D_prefetch_issued 969742
Core_0_L1D_prefetch_useful 7743
Core_0_L1D_prefetch_useless 4767
Core_0_L1D_prefetch_late 155
Core_0_L1D_prefetch_accuracy 0.0079846
Core_0_L1D_prefetch_coverage 0.00120783
Core_0_L1D_total_eviction 5057784

Core_0_L2C_total_access 6203950
Core_0_L2C_total_hit 2547612
Core_0_L2C_total_miss 3656338
Core_0_L2C_total_MPKI 73.1268
Core_0_L2C_total_miss_rate 0.589356
Core_0_L2C_demand_access 5045172
Core_0_L2C_demand_hit 1395675
Core_0_L2C_demand_miss 3649497
Core_0_L2C_demand_MPKI 72.9899
Core_0_L2C_demand_miss_rate 0.723364
Core_0_L2C_load_access 4958073
Core_0_L2C_load_hit 1370161
Core_0_L2C_load_miss 3587912
Core_0_L2C_load_MPKI 71.7582
Core_0_L2C_load_miss_rate 0.72365
Core_0_L2C_rfo_access 87099
Core_0_L2C_rfo_hit 25514
Core_0_L2C_rfo_miss 61585
Core_0_L2C_rfo_MPKI 1.2317
Core_0_L2C_rfo_miss_rate 0.707069
Core_0_L2C_prefetch_access 68980
Core_0_L2C_prefetch_hit 62193
Core_0_L2C_prefetch_miss 6787
Core_0_L2C_prefetch_MPKI 0.13574
Core_0_L2C_prefetch_miss_rate 0.0983908
Core_0_L2C_writeback_access 1089798
Core_0_L2C_writeback_hit 1089744
Core_0_L2C_writeback_miss 54
Core_0_L2C_writeback_MPKI 0.00108
Core_0_L2C_writeback_miss_rate 4.95505e-05
Core_0_L2C_prefetch_requested 3611
Core_0_L2C_prefetch_issued 3611
Core_0_L2C_prefetch_useful 514
Core_0_L2C_prefetch_useless 793
Core_0_L2C_prefetch_late 14
Core_0_L2C_prefetch_accuracy 0.142343
Core_0_L2C_prefetch_coverage 0.000140821
Core_0_L2C_total_eviction 3655867

Core_0_LLC_total_access 4498862
Core_0_LLC_total_hit 1264432
Core_0_LLC_total_miss 3234430
Core_0_LLC_total_MPKI 64.6886
Core_0_LLC_total_miss_rate 0.718944
Core_0_LLC_demand_access 3649475
Core_0_LLC_demand_hit 865798
Core_0_LLC_demand_miss 2783677
Core_0_LLC_demand_MPKI 55.6735
Core_0_LLC_demand_miss_rate 0.762761
Core_0_LLC_load_access 3587890
Core_0_LLC_load_hit 842283
Core_0_LLC_load_miss 2745607
Core_0_LLC_load_MPKI 54.9121
Core_0_LLC_load_miss_rate 0.765243
Core_0_LLC_rfo_access 61585
Core_0_LLC_rfo_hit 23515
Core_0_LLC_rfo_miss 38070
Core_0_LLC_rfo_MPKI 0.7614
Core_0_LLC_rfo_miss_rate 0.61817
Core_0_LLC_prefetch_access 6246
Core_0_LLC_prefetch_hit 1276
Core_0_LLC_prefetch_miss 4970
Core_0_LLC_prefetch_MPKI 0.0994
Core_0_LLC_prefetch_miss_rate 0.795709
Core_0_LLC_writeback_access 843141
Core_0_LLC_writeback_hit 397358
Core_0_LLC_writeback_miss 445783
Core_0_LLC_writeback_MPKI 8.91566
Core_0_LLC_writeback_miss_rate 0.528717
Core_0_LLC_prefetch_requested 0
Core_0_LLC_prefetch_issued 0
Core_0_LLC_prefetch_useful 0
Core_0_LLC_prefetch_useless 0
Core_0_LLC_prefetch_late 0
Core_0_LLC_prefetch_accuracy 0
Core_0_LLC_prefetch_coverage 0
Core_0_LLC_total_eviction 3234534

[DRAM Statistics]
Channel_0_RQ_row_buffer_hit 4153
Channel_0_RQ_row_buffer_miss 2783888
Channel_0_WQ_row_buffer_hit 174509
Channel_0_WQ_row_buffer_miss 422540
Channel_0_WQ_full 0
Channel_0_dbus_congested 8849390
DRAM_total_RQ_row_buffer_hit 4153
DRAM_total_RQ_row_buffer_miss 2783888
DRAM_total_WQ_row_buffer_hit 174509
DRAM_total_WQ_row_buffer_miss 422540
DRAM_total_WQ_full 0
DRAM_total_dbus_congested 8849390
DRAM_avg_congested_cycle 9.89126

======STLB miss causes ========
Core_0_STLB_miss_cause_breakdown
Core_0_STLB_cause_Demand_Data_miss 0
Core_0_STLB_cause_Demand_Data_miss_rate 0
Core_0_STLB_cause_Demand_Instruction_miss 0
Core_0_STLB_cause_Demand_Instruction_miss_rate 0
Core_0_STLB_cause_L1D_Prefetch_miss 131
Core_0_STLB_cause_L1D_Prefetch_miss_rate 3.52913e-05
Core_0_STLB_cause_L1I_Prefetch_miss 0
Core_0_STLB_cause_L1I_Prefetch_miss_rate 0
Core_0_STLB_cause_Other_miss 0
Core_0_STLB_cause_Other_miss_rate 0
Core_0_STLB_Demand_miss 0
Core_0_STLB_Demand_miss_rate 0
Core_0_STLB_L1D_Prefetch_miss 131
Core_0_STLB_L1D_Prefetch_miss_rate 3.52913e-05
Core_0_STLB_Other_miss 0
Core_0_STLB_Other_miss_rate 0
BERTI TO_L1: 746604 TO_L2: 527111 TO_L2_BC_MSHR: 64
BERTI AVG_LAT: 102.982 NUM_TRACK_LATENCY: 7099975 NUM_CANT_TRACK_LATENCY: 0
BERTI CROSS_PAGE 5134 NO_CROSS_PAGE: 1268581
BERTI FOUND_BERTI: 11534523 NO_FOUND_BERTI: 3744909
BERTI AVERAGE_ISSUED: 1.58152
