[VMEM] WARNING: physical memory size is smaller than virtual memory size.

*** ChampSim Multicore Out-of-Order Simulator ***
Warmup Instructions: 20000000
Simulation Instructions: 50000000
Number of CPUs: 1
Page size: 4096
STLB ideal mode: demand
STLB ideal fill: on
Core 0: /data0/tzh/champsim_traces/PARSEC/parsec_2.1.canneal.simlarge.prebuilt.drop_500M.length_250M.champsimtrace.xz
VBerti Prefetcher
BERTI HASH ENTANGLING
BERTI IP MASK ffff
Off-chip DRAM Size: 16 GiB Channels: 1 Width: 64-bit Data Rate: 3205 MT/s
Warmup halting CPU 0 at instruction 20000000 cycle 4350039 for remainder of phase
Warmup finished CPU 0 instructions: 20000000 cycles: 4350039 cumulative IPC: 4.598 (Simulation time: 00 hr 01 min 07 sec)
Warmup complete CPU 0 instructions: 20000000 cycles: 4350039 cumulative IPC: 4.598 (Simulation time: 00 hr 01 min 07 sec)
Simulation finished CPU 0 instructions: 50000002 cycles: 72087371 cumulative IPC: 0.6936 (Simulation time: 00 hr 07 min 11 sec)
Simulation complete CPU 0 instructions: 50000002 cycles: 72087371 cumulative IPC: 0.6936 (Simulation time: 00 hr 07 min 11 sec)

ChampSim completed all CPUs

=== Simulation ===
CPU 0 runs /data0/tzh/champsim_traces/PARSEC/parsec_2.1.canneal.simlarge.prebuilt.drop_500M.length_250M.champsimtrace.xz

Region of Interest Statistics

CPU 0 cumulative IPC: 0.6936 instructions: 50000002 cycles: 72087371
CPU 0 Branch Prediction Accuracy: 95.86% MPKI: 8.194 Average ROB Occupancy at Mispredict: 71.81
Branch type MPKI
BRANCH_DIRECT_JUMP: 6e-05
BRANCH_INDIRECT: 0.232
BRANCH_CONDITIONAL: 7.799
BRANCH_DIRECT_CALL: 0.1627
BRANCH_INDIRECT_CALL: 0.00024
BRANCH_RETURN: 4e-05

cpu0->cpu0_STLB TOTAL        ACCESS:     304176 HIT:     303457 MISS:        719 MSHR_MERGE:          0
cpu0->cpu0_STLB LOAD         ACCESS:     304176 HIT:     303457 MISS:        719 MSHR_MERGE:          0
cpu0->cpu0_STLB RFO          ACCESS:          0 HIT:          0 MISS:          0 MSHR_MERGE:          0
cpu0->cpu0_STLB PREFETCH     ACCESS:          0 HIT:          0 MISS:          0 MSHR_MERGE:          0
cpu0->cpu0_STLB WRITE        ACCESS:          0 HIT:          0 MISS:          0 MSHR_MERGE:          0
cpu0->cpu0_STLB TRANSLATION  ACCESS:          0 HIT:          0 MISS:          0 MSHR_MERGE:          0
cpu0->cpu0_STLB PREFETCH REQUESTED:          0 ISSUED:          0 USEFUL:          0 USELESS:          0 LATE:          0
cpu0->cpu0_STLB AVERAGE MISS LATENCY: 242.6 cycles
cpu0->cpu0_L2C TOTAL        ACCESS:     697107 HIT:     334741 MISS:     362366 MSHR_MERGE:       4654
cpu0->cpu0_L2C LOAD         ACCESS:     474817 HIT:     167606 MISS:     307211 MSHR_MERGE:          0
cpu0->cpu0_L2C RFO          ACCESS:       2689 HIT:       2024 MISS:        665 MSHR_MERGE:          6
cpu0->cpu0_L2C PREFETCH     ACCESS:     119319 HIT:      65231 MISS:      54088 MSHR_MERGE:       4648
cpu0->cpu0_L2C WRITE        ACCESS:      99586 HIT:      99390 MISS:        196 MSHR_MERGE:          0
cpu0->cpu0_L2C TRANSLATION  ACCESS:        696 HIT:        490 MISS:        206 MSHR_MERGE:          0
cpu0->cpu0_L2C PREFETCH REQUESTED:      23704 ISSUED:      23704 USEFUL:      12953 USELESS:       1507 LATE:          0
cpu0->cpu0_L2C AVERAGE MISS LATENCY: 136.5 cycles
cpu0->cpu0_L1I TOTAL        ACCESS:    5386256 HIT:    5375467 MISS:      10789 MSHR_MERGE:        226
cpu0->cpu0_L1I LOAD         ACCESS:    5386256 HIT:    5375467 MISS:      10789 MSHR_MERGE:        226
cpu0->cpu0_L1I RFO          ACCESS:          0 HIT:          0 MISS:          0 MSHR_MERGE:          0
cpu0->cpu0_L1I PREFETCH     ACCESS:          0 HIT:          0 MISS:          0 MSHR_MERGE:          0
cpu0->cpu0_L1I WRITE        ACCESS:          0 HIT:          0 MISS:          0 MSHR_MERGE:          0
cpu0->cpu0_L1I TRANSLATION  ACCESS:          0 HIT:          0 MISS:          0 MSHR_MERGE:          0
cpu0->cpu0_L1I PREFETCH REQUESTED:          0 ISSUED:          0 USEFUL:          0 USELESS:          0 LATE:          0
cpu0->cpu0_L1I AVERAGE MISS LATENCY: 7.577 cycles
cpu0->cpu0_L1D TOTAL        ACCESS:   15099670 HIT:   14512895 MISS:     586775 MSHR_MERGE:      23422
cpu0->cpu0_L1D LOAD         ACCESS:    9465192 HIT:    8982195 MISS:     482997 MSHR_MERGE:      18742
cpu0->cpu0_L1D RFO          ACCESS:          0 HIT:          0 MISS:          0 MSHR_MERGE:          0
cpu0->cpu0_L1D PREFETCH     ACCESS:     204820 HIT:     109026 MISS:      95794 MSHR_MERGE:         81
cpu0->cpu0_L1D WRITE        ACCESS:    5428217 HIT:    5420929 MISS:       7288 MSHR_MERGE:       4599
cpu0->cpu0_L1D TRANSLATION  ACCESS:       1441 HIT:        745 MISS:        696 MSHR_MERGE:          0
cpu0->cpu0_L1D PREFETCH REQUESTED:     204816 ISSUED:     204816 USEFUL:      34085 USELESS:        176 LATE:         46
cpu0->cpu0_L1D AVERAGE MISS LATENCY: 98.67 cycles
cpu0->cpu0_ITLB TOTAL        ACCESS:    4692022 HIT:    4691996 MISS:         26 MSHR_MERGE:          0
cpu0->cpu0_ITLB LOAD         ACCESS:    4692022 HIT:    4691996 MISS:         26 MSHR_MERGE:          0
cpu0->cpu0_ITLB RFO          ACCESS:          0 HIT:          0 MISS:          0 MSHR_MERGE:          0
cpu0->cpu0_ITLB PREFETCH     ACCESS:          0 HIT:          0 MISS:          0 MSHR_MERGE:          0
cpu0->cpu0_ITLB WRITE        ACCESS:          0 HIT:          0 MISS:          0 MSHR_MERGE:          0
cpu0->cpu0_ITLB TRANSLATION  ACCESS:          0 HIT:          0 MISS:          0 MSHR_MERGE:          0
cpu0->cpu0_ITLB PREFETCH REQUESTED:          0 ISSUED:          0 USEFUL:          0 USELESS:          0 LATE:          0
cpu0->cpu0_ITLB AVERAGE MISS LATENCY: 5 cycles
cpu0->cpu0_DTLB TOTAL        ACCESS:   14420452 HIT:   14061993 MISS:     358459 MSHR_MERGE:      54309
cpu0->cpu0_DTLB LOAD         ACCESS:   14420452 HIT:   14061993 MISS:     358459 MSHR_MERGE:      54309
cpu0->cpu0_DTLB RFO          ACCESS:          0 HIT:          0 MISS:          0 MSHR_MERGE:          0
cpu0->cpu0_DTLB PREFETCH     ACCESS:          0 HIT:          0 MISS:          0 MSHR_MERGE:          0
cpu0->cpu0_DTLB WRITE        ACCESS:          0 HIT:          0 MISS:          0 MSHR_MERGE:          0
cpu0->cpu0_DTLB TRANSLATION  ACCESS:          0 HIT:          0 MISS:          0 MSHR_MERGE:          0
cpu0->cpu0_DTLB PREFETCH REQUESTED:          0 ISSUED:          0 USEFUL:          0 USELESS:          0 LATE:          0
cpu0->cpu0_DTLB AVERAGE MISS LATENCY: 5.576 cycles
cpu0->LLC TOTAL        ACCESS:     454247 HIT:     193688 MISS:     260559 MSHR_MERGE:          0
cpu0->LLC LOAD         ACCESS:     307211 HIT:     106058 MISS:     201153 MSHR_MERGE:          0
cpu0->LLC RFO          ACCESS:        659 HIT:         64 MISS:        595 MSHR_MERGE:          0
cpu0->LLC PREFETCH     ACCESS:      49440 HIT:       1892 MISS:      47548 MSHR_MERGE:          0
cpu0->LLC WRITE        ACCESS:      96731 HIT:      85638 MISS:      11093 MSHR_MERGE:          0
cpu0->LLC TRANSLATION  ACCESS:        206 HIT:         36 MISS:        170 MSHR_MERGE:          0
cpu0->LLC PREFETCH REQUESTED:          0 ISSUED:          0 USEFUL:          0 USELESS:          0 LATE:          0
cpu0->LLC AVERAGE MISS LATENCY: 175.3 cycles

DRAM Statistics

Channel 0 RQ ROW_BUFFER_HIT:         63
  ROW_BUFFER_MISS:     249402
  AVG DBUS CONGESTED CYCLE: 20.86
Channel 0 WQ ROW_BUFFER_HIT:      34649
  ROW_BUFFER_MISS:      60028
  FULL:          0
Channel 0 REFRESHES ISSUED:       6007

[ROI Statistics]
[System Configuration]
num_cpus 1
cpu_freq 4000
fetch_width 6
decode_width 6
dispatch_width 6
execute_width 6
lq_width 2
sq_width 2
retire_width 6
scheduler_size 128
branch_mispredict_penalty 15
rob_size 352
lq_size 128
sq_size 72
ifetch_buffer_size 64
decode_buffer_size 32
dispatch_buffer_size 32
register_file_size 288
decode_latency 1
dispatch_latency 1
schedule_latency 1
execute_latency 1
page_size 4096
block_size 64
core_0_itlb_set 16
core_0_itlb_way 4
core_0_itlb_rq_size 16
core_0_itlb_wq_size 16
core_0_itlb_pq_size 0
core_0_itlb_mshr_size 8
core_0_itlb_hit_latency 1
core_0_itlb_fill_latency 1
core_0_itlb_max_tag_check 2
core_0_itlb_max_fill 2
core_0_dtlb_set 16
core_0_dtlb_way 4
core_0_dtlb_rq_size 16
core_0_dtlb_wq_size 16
core_0_dtlb_pq_size 0
core_0_dtlb_mshr_size 8
core_0_dtlb_hit_latency 1
core_0_dtlb_fill_latency 1
core_0_dtlb_max_tag_check 2
core_0_dtlb_max_fill 2
core_0_stlb_set 128
core_0_stlb_way 12
core_0_stlb_rq_size 32
core_0_stlb_wq_size 32
core_0_stlb_pq_size 0
core_0_stlb_mshr_size 16
core_0_stlb_hit_latency 4
core_0_stlb_fill_latency 4
core_0_stlb_max_tag_check 1
core_0_stlb_max_fill 1
core_0_l1i_set 64
core_0_l1i_way 8
core_0_l1i_rq_size 64
core_0_l1i_wq_size 64
core_0_l1i_pq_size 32
core_0_l1i_mshr_size 8
core_0_l1i_hit_latency 2
core_0_l1i_fill_latency 2
core_0_l1i_max_tag_check 2
core_0_l1i_max_fill 2
core_0_l1d_set 64
core_0_l1d_way 12
core_0_l1d_rq_size 64
core_0_l1d_wq_size 64
core_0_l1d_pq_size 8
core_0_l1d_mshr_size 16
core_0_l1d_hit_latency 2
core_0_l1d_fill_latency 3
core_0_l1d_max_tag_check 2
core_0_l1d_max_fill 2
core_0_l2c_set 1024
core_0_l2c_way 8
core_0_l2c_rq_size 32
core_0_l2c_wq_size 32
core_0_l2c_pq_size 16
core_0_l2c_mshr_size 32
core_0_l2c_hit_latency 5
core_0_l2c_fill_latency 5
core_0_l2c_max_tag_check 1
core_0_l2c_max_fill 1
llc_set 2048
llc_way 16
llc_rq_size 32
llc_wq_size 32
llc_pq_size 32
llc_mshr_size 64
llc_hit_latency 10
llc_fill_latency 10
llc_max_tag_check 1
llc_max_fill 1
dram_channels 1
dram_ranks 1
dram_bankgroups 8
dram_banks 4
dram_rows 65536
dram_columns 1024
dram_channel_width 8
dram_rq_size 64
dram_wq_size 64
dram_size 17179869184
core_0_itlb_prefetcher no
core_0_dtlb_prefetcher no
core_0_stlb_prefetcher no
core_0_l1i_prefetcher next_line
core_0_l1d_prefetcher vberti
core_0_l2c_prefetcher ip_stride
llc_prefetcher no
llc_replacement drrip

Core_0_instructions 50000002
Core_0_cycles 72087371
Core_0_IPC 0.693603
Core_0_branch_prediction_accuracy 95.8599
Core_0_branch_MPKI 8.19358
Core_0_average_ROB_occupancy_at_mispredict 71.8108

Core_0_ITLB_total_access 4692022
Core_0_ITLB_total_hit 4691996
Core_0_ITLB_total_miss 26
Core_0_ITLB_total_MPKI 0.00052
Core_0_ITLB_total_miss_rate 5.54132e-06
Core_0_ITLB_demand_access 4692022
Core_0_ITLB_demand_hit 4691996
Core_0_ITLB_demand_miss 26
Core_0_ITLB_demand_MPKI 0.00052
Core_0_ITLB_demand_miss_rate 5.54132e-06
Core_0_ITLB_load_access 4692022
Core_0_ITLB_load_hit 4691996
Core_0_ITLB_load_miss 26
Core_0_ITLB_load_MPKI 0.00052
Core_0_ITLB_load_miss_rate 5.54132e-06
Core_0_ITLB_rfo_access 0
Core_0_ITLB_rfo_hit 0
Core_0_ITLB_rfo_miss 0
Core_0_ITLB_rfo_MPKI 0
Core_0_ITLB_rfo_miss_rate 0
Core_0_ITLB_prefetch_access 0
Core_0_ITLB_prefetch_hit 0
Core_0_ITLB_prefetch_miss 0
Core_0_ITLB_prefetch_MPKI 0
Core_0_ITLB_prefetch_miss_rate 0
Core_0_ITLB_writeback_access 0
Core_0_ITLB_writeback_hit 0
Core_0_ITLB_writeback_miss 0
Core_0_ITLB_writeback_MPKI 0
Core_0_ITLB_writeback_miss_rate 0
Core_0_ITLB_prefetch_requested 0
Core_0_ITLB_prefetch_issued 0
Core_0_ITLB_prefetch_useful 0
Core_0_ITLB_prefetch_useless 0
Core_0_ITLB_prefetch_late 0
Core_0_ITLB_prefetch_accuracy 0
Core_0_ITLB_prefetch_coverage 0
Core_0_ITLB_total_eviction 26

Core_0_DTLB_total_access 14420452
Core_0_DTLB_total_hit 14061993
Core_0_DTLB_total_miss 358459
Core_0_DTLB_total_MPKI 7.16918
Core_0_DTLB_total_miss_rate 0.0248577
Core_0_DTLB_demand_access 14420452
Core_0_DTLB_demand_hit 14061993
Core_0_DTLB_demand_miss 358459
Core_0_DTLB_demand_MPKI 7.16918
Core_0_DTLB_demand_miss_rate 0.0248577
Core_0_DTLB_load_access 14420452
Core_0_DTLB_load_hit 14061993
Core_0_DTLB_load_miss 358459
Core_0_DTLB_load_MPKI 7.16918
Core_0_DTLB_load_miss_rate 0.0248577
Core_0_DTLB_rfo_access 0
Core_0_DTLB_rfo_hit 0
Core_0_DTLB_rfo_miss 0
Core_0_DTLB_rfo_MPKI 0
Core_0_DTLB_rfo_miss_rate 0
Core_0_DTLB_prefetch_access 0
Core_0_DTLB_prefetch_hit 0
Core_0_DTLB_prefetch_miss 0
Core_0_DTLB_prefetch_MPKI 0
Core_0_DTLB_prefetch_miss_rate 0
Core_0_DTLB_writeback_access 0
Core_0_DTLB_writeback_hit 0
Core_0_DTLB_writeback_miss 0
Core_0_DTLB_writeback_MPKI 0
Core_0_DTLB_writeback_miss_rate 0
Core_0_DTLB_prefetch_requested 0
Core_0_DTLB_prefetch_issued 0
Core_0_DTLB_prefetch_useful 0
Core_0_DTLB_prefetch_useless 0
Core_0_DTLB_prefetch_late 0
Core_0_DTLB_prefetch_accuracy 0
Core_0_DTLB_prefetch_coverage 0
Core_0_DTLB_total_eviction 304150

Core_0_STLB_total_access 304176
Core_0_STLB_total_hit 303457
Core_0_STLB_total_miss 719
Core_0_STLB_total_MPKI 0.01438
Core_0_STLB_total_miss_rate 0.00236376
Core_0_STLB_demand_access 304176
Core_0_STLB_demand_hit 303457
Core_0_STLB_demand_miss 719
Core_0_STLB_demand_MPKI 0.01438
Core_0_STLB_demand_miss_rate 0.00236376
Core_0_STLB_load_access 304176
Core_0_STLB_load_hit 303457
Core_0_STLB_load_miss 719
Core_0_STLB_load_MPKI 0.01438
Core_0_STLB_load_miss_rate 0.00236376
Core_0_STLB_rfo_access 0
Core_0_STLB_rfo_hit 0
Core_0_STLB_rfo_miss 0
Core_0_STLB_rfo_MPKI 0
Core_0_STLB_rfo_miss_rate 0
Core_0_STLB_prefetch_access 0
Core_0_STLB_prefetch_hit 0
Core_0_STLB_prefetch_miss 0
Core_0_STLB_prefetch_MPKI 0
Core_0_STLB_prefetch_miss_rate 0
Core_0_STLB_writeback_access 0
Core_0_STLB_writeback_hit 0
Core_0_STLB_writeback_miss 0
Core_0_STLB_writeback_MPKI 0
Core_0_STLB_writeback_miss_rate 0
Core_0_STLB_prefetch_requested 0
Core_0_STLB_prefetch_issued 0
Core_0_STLB_prefetch_useful 0
Core_0_STLB_prefetch_useless 0
Core_0_STLB_prefetch_late 0
Core_0_STLB_prefetch_accuracy 0
Core_0_STLB_prefetch_coverage 0
Core_0_STLB_total_eviction 75900

Core_0_L1I_total_access 5386256
Core_0_L1I_total_hit 5375467
Core_0_L1I_total_miss 10789
Core_0_L1I_total_MPKI 0.21578
Core_0_L1I_total_miss_rate 0.00200306
Core_0_L1I_demand_access 5386256
Core_0_L1I_demand_hit 5375467
Core_0_L1I_demand_miss 10789
Core_0_L1I_demand_MPKI 0.21578
Core_0_L1I_demand_miss_rate 0.00200306
Core_0_L1I_load_access 5386256
Core_0_L1I_load_hit 5375467
Core_0_L1I_load_miss 10789
Core_0_L1I_load_MPKI 0.21578
Core_0_L1I_load_miss_rate 0.00200306
Core_0_L1I_rfo_access 0
Core_0_L1I_rfo_hit 0
Core_0_L1I_rfo_miss 0
Core_0_L1I_rfo_MPKI 0
Core_0_L1I_rfo_miss_rate 0
Core_0_L1I_prefetch_access 0
Core_0_L1I_prefetch_hit 0
Core_0_L1I_prefetch_miss 0
Core_0_L1I_prefetch_MPKI 0
Core_0_L1I_prefetch_miss_rate 0
Core_0_L1I_writeback_access 0
Core_0_L1I_writeback_hit 0
Core_0_L1I_writeback_miss 0
Core_0_L1I_writeback_MPKI 0
Core_0_L1I_writeback_miss_rate 0
Core_0_L1I_prefetch_requested 0
Core_0_L1I_prefetch_issued 0
Core_0_L1I_prefetch_useful 0
Core_0_L1I_prefetch_useless 0
Core_0_L1I_prefetch_late 0
Core_0_L1I_prefetch_accuracy 0
Core_0_L1I_prefetch_coverage 0
Core_0_L1I_total_eviction 10561

Core_0_L1D_total_access 15098229
Core_0_L1D_total_hit 14512150
Core_0_L1D_total_miss 586079
Core_0_L1D_total_MPKI 11.7216
Core_0_L1D_total_miss_rate 0.0388177
Core_0_L1D_demand_access 9465192
Core_0_L1D_demand_hit 8982195
Core_0_L1D_demand_miss 482997
Core_0_L1D_demand_MPKI 9.65994
Core_0_L1D_demand_miss_rate 0.0510288
Core_0_L1D_load_access 9465192
Core_0_L1D_load_hit 8982195
Core_0_L1D_load_miss 482997
Core_0_L1D_load_MPKI 9.65994
Core_0_L1D_load_miss_rate 0.0510288
Core_0_L1D_rfo_access 0
Core_0_L1D_rfo_hit 0
Core_0_L1D_rfo_miss 0
Core_0_L1D_rfo_MPKI 0
Core_0_L1D_rfo_miss_rate 0
Core_0_L1D_prefetch_access 204820
Core_0_L1D_prefetch_hit 109026
Core_0_L1D_prefetch_miss 95794
Core_0_L1D_prefetch_MPKI 1.91588
Core_0_L1D_prefetch_miss_rate 0.467698
Core_0_L1D_writeback_access 5428217
Core_0_L1D_writeback_hit 5420929
Core_0_L1D_writeback_miss 7288
Core_0_L1D_writeback_MPKI 0.14576
Core_0_L1D_writeback_miss_rate 0.00134261
Core_0_L1D_prefetch_requested 204816
Core_0_L1D_prefetch_issued 204816
Core_0_L1D_prefetch_useful 34085
Core_0_L1D_prefetch_useless 176
Core_0_L1D_prefetch_late 46
Core_0_L1D_prefetch_accuracy 0.166418
Core_0_L1D_prefetch_coverage 0.065918
Core_0_L1D_total_eviction 501899

Core_0_L2C_total_access 696411
Core_0_L2C_total_hit 334251
Core_0_L2C_total_miss 362160
Core_0_L2C_total_MPKI 7.2432
Core_0_L2C_total_miss_rate 0.520038
Core_0_L2C_demand_access 477506
Core_0_L2C_demand_hit 169630
Core_0_L2C_demand_miss 307876
Core_0_L2C_demand_MPKI 6.15752
Core_0_L2C_demand_miss_rate 0.644758
Core_0_L2C_load_access 474817
Core_0_L2C_load_hit 167606
Core_0_L2C_load_miss 307211
Core_0_L2C_load_MPKI 6.14422
Core_0_L2C_load_miss_rate 0.647009
Core_0_L2C_rfo_access 2689
Core_0_L2C_rfo_hit 2024
Core_0_L2C_rfo_miss 665
Core_0_L2C_rfo_MPKI 0.0133
Core_0_L2C_rfo_miss_rate 0.247304
Core_0_L2C_prefetch_access 119319
Core_0_L2C_prefetch_hit 65231
Core_0_L2C_prefetch_miss 54088
Core_0_L2C_prefetch_MPKI 1.08176
Core_0_L2C_prefetch_miss_rate 0.453306
Core_0_L2C_writeback_access 99586
Core_0_L2C_writeback_hit 99390
Core_0_L2C_writeback_miss 196
Core_0_L2C_writeback_MPKI 0.00392
Core_0_L2C_writeback_miss_rate 0.00196815
Core_0_L2C_prefetch_requested 23704
Core_0_L2C_prefetch_issued 23704
Core_0_L2C_prefetch_useful 12953
Core_0_L2C_prefetch_useless 1507
Core_0_L2C_prefetch_late 0
Core_0_L2C_prefetch_accuracy 0.546448
Core_0_L2C_prefetch_coverage 0.0403735
Core_0_L2C_total_eviction 357712

Core_0_LLC_total_access 454041
Core_0_LLC_total_hit 193652
Core_0_LLC_total_miss 260389
Core_0_LLC_total_MPKI 5.20778
Core_0_LLC_total_miss_rate 0.573492
Core_0_LLC_demand_access 307870
Core_0_LLC_demand_hit 106122
Core_0_LLC_demand_miss 201748
Core_0_LLC_demand_MPKI 4.03496
Core_0_LLC_demand_miss_rate 0.655303
Core_0_LLC_load_access 307211
Core_0_LLC_load_hit 106058
Core_0_LLC_load_miss 201153
Core_0_LLC_load_MPKI 4.02306
Core_0_LLC_load_miss_rate 0.654771
Core_0_LLC_rfo_access 659
Core_0_LLC_rfo_hit 64
Core_0_LLC_rfo_miss 595
Core_0_LLC_rfo_MPKI 0.0119
Core_0_LLC_rfo_miss_rate 0.902883
Core_0_LLC_prefetch_access 49440
Core_0_LLC_prefetch_hit 1892
Core_0_LLC_prefetch_miss 47548
Core_0_LLC_prefetch_MPKI 0.95096
Core_0_LLC_prefetch_miss_rate 0.961731
Core_0_LLC_writeback_access 96731
Core_0_LLC_writeback_hit 85638
Core_0_LLC_writeback_miss 11093
Core_0_LLC_writeback_MPKI 0.22186
Core_0_LLC_writeback_miss_rate 0.114679
Core_0_LLC_prefetch_requested 0
Core_0_LLC_prefetch_issued 0
Core_0_LLC_prefetch_useful 0
Core_0_LLC_prefetch_useless 0
Core_0_LLC_prefetch_late 0
Core_0_LLC_prefetch_accuracy 0
Core_0_LLC_prefetch_coverage 0
Core_0_LLC_total_eviction 260559

[DRAM Statistics]
Channel_0_RQ_row_buffer_hit 63
Channel_0_RQ_row_buffer_miss 249402
Channel_0_WQ_row_buffer_hit 34649
Channel_0_WQ_row_buffer_miss 60028
Channel_0_WQ_full 0
Channel_0_dbus_congested 1129784
DRAM_total_RQ_row_buffer_hit 63
DRAM_total_RQ_row_buffer_miss 249402
DRAM_total_WQ_row_buffer_hit 34649
DRAM_total_WQ_row_buffer_miss 60028
DRAM_total_WQ_full 0
DRAM_total_dbus_congested 1129784
DRAM_avg_congested_cycle 20.863

======STLB miss causes ========
Core_0_STLB_miss_cause_breakdown
Core_0_STLB_cause_Demand_Data_miss 0
Core_0_STLB_cause_Demand_Data_miss_rate 0
Core_0_STLB_cause_Demand_Instruction_miss 0
Core_0_STLB_cause_Demand_Instruction_miss_rate 0
Core_0_STLB_cause_L1D_Prefetch_miss 719
Core_0_STLB_cause_L1D_Prefetch_miss_rate 0.00236376
Core_0_STLB_cause_L1I_Prefetch_miss 0
Core_0_STLB_cause_L1I_Prefetch_miss_rate 0
Core_0_STLB_cause_Other_miss 0
Core_0_STLB_cause_Other_miss_rate 0
Core_0_STLB_Demand_miss 0
Core_0_STLB_Demand_miss_rate 0
Core_0_STLB_L1D_Prefetch_miss 719
Core_0_STLB_L1D_Prefetch_miss_rate 0.00236376
Core_0_STLB_Other_miss 0
Core_0_STLB_Other_miss_rate 0
BERTI TO_L1: 135003 TO_L2: 124389 TO_L2_BC_MSHR: 0
BERTI AVG_LAT: 73.9794 NUM_TRACK_LATENCY: 698253 NUM_CANT_TRACK_LATENCY: 0
BERTI CROSS_PAGE 6815 NO_CROSS_PAGE: 252577
BERTI FOUND_BERTI: 3443094 NO_FOUND_BERTI: 15650003
BERTI AVERAGE_ISSUED: 1.82253
