[VMEM] WARNING: physical memory size is smaller than virtual memory size.

*** ChampSim Multicore Out-of-Order Simulator ***
Warmup Instructions: 20000000
Simulation Instructions: 50000000
Number of CPUs: 1
Page size: 4096
STLB ideal mode: demand
STLB ideal fill: on
Core 0: /data0/tzh/champsim_traces/PARSEC/parsec_2.1.canneal.simlarge.prebuilt.drop_5000M.length_15M.champsimtrace.xz
VBerti Prefetcher
BERTI HASH ENTANGLING
BERTI IP MASK ffff
Off-chip DRAM Size: 16 GiB Channels: 1 Width: 64-bit Data Rate: 3205 MT/s
*** Reached end of trace: (0, "/data0/tzh/champsim_traces/PARSEC/parsec_2.1.canneal.simlarge.prebuilt.drop_5000M.length_15M.champsimtrace.xz")
Warmup halting CPU 0 at instruction 20000003 cycle 4002921 for remainder of phase
Warmup finished CPU 0 instructions: 20000003 cycles: 4002921 cumulative IPC: 4.996 (Simulation time: 00 hr 00 min 53 sec)
Warmup complete CPU 0 instructions: 20000003 cycles: 4002921 cumulative IPC: 4.996 (Simulation time: 00 hr 00 min 53 sec)
*** Reached end of trace: (0, "/data0/tzh/champsim_traces/PARSEC/parsec_2.1.canneal.simlarge.prebuilt.drop_5000M.length_15M.champsimtrace.xz")
*** Reached end of trace: (0, "/data0/tzh/champsim_traces/PARSEC/parsec_2.1.canneal.simlarge.prebuilt.drop_5000M.length_15M.champsimtrace.xz")
*** Reached end of trace: (0, "/data0/tzh/champsim_traces/PARSEC/parsec_2.1.canneal.simlarge.prebuilt.drop_5000M.length_15M.champsimtrace.xz")
Simulation finished CPU 0 instructions: 50000001 cycles: 156720857 cumulative IPC: 0.319 (Simulation time: 00 hr 15 min 08 sec)
Simulation complete CPU 0 instructions: 50000001 cycles: 156720857 cumulative IPC: 0.319 (Simulation time: 00 hr 15 min 08 sec)

ChampSim completed all CPUs

=== Simulation ===
CPU 0 runs /data0/tzh/champsim_traces/PARSEC/parsec_2.1.canneal.simlarge.prebuilt.drop_5000M.length_15M.champsimtrace.xz

Region of Interest Statistics

CPU 0 cumulative IPC: 0.319 instructions: 50000001 cycles: 156720857
CPU 0 Branch Prediction Accuracy: 97.46% MPKI: 2.433 Average ROB Occupancy at Mispredict: 208.9
Branch type MPKI
BRANCH_DIRECT_JUMP: 0
BRANCH_INDIRECT: 0
BRANCH_CONDITIONAL: 2.433
BRANCH_DIRECT_CALL: 0
BRANCH_INDIRECT_CALL: 0
BRANCH_RETURN: 0

cpu0->cpu0_STLB TOTAL        ACCESS:    1392216 HIT:    1391988 MISS:        228 MSHR_MERGE:          0
cpu0->cpu0_STLB LOAD         ACCESS:    1392216 HIT:    1391988 MISS:        228 MSHR_MERGE:          0
cpu0->cpu0_STLB RFO          ACCESS:          0 HIT:          0 MISS:          0 MSHR_MERGE:          0
cpu0->cpu0_STLB PREFETCH     ACCESS:          0 HIT:          0 MISS:          0 MSHR_MERGE:          0
cpu0->cpu0_STLB WRITE        ACCESS:          0 HIT:          0 MISS:          0 MSHR_MERGE:          0
cpu0->cpu0_STLB TRANSLATION  ACCESS:          0 HIT:          0 MISS:          0 MSHR_MERGE:          0
cpu0->cpu0_STLB PREFETCH REQUESTED:          0 ISSUED:          0 USEFUL:          0 USELESS:          0 LATE:          0
cpu0->cpu0_STLB AVERAGE MISS LATENCY: 194.5 cycles
cpu0->cpu0_L2C TOTAL        ACCESS:    2083083 HIT:     992945 MISS:    1090138 MSHR_MERGE:       5220
cpu0->cpu0_L2C LOAD         ACCESS:    1103545 HIT:      41769 MISS:    1061776 MSHR_MERGE:       1017
cpu0->cpu0_L2C RFO          ACCESS:       1587 HIT:       1587 MISS:          0 MSHR_MERGE:          0
cpu0->cpu0_L2C PREFETCH     ACCESS:     480289 HIT:     452140 MISS:      28149 MSHR_MERGE:       4203
cpu0->cpu0_L2C WRITE        ACCESS:     497404 HIT:     497400 MISS:          4 MSHR_MERGE:          0
cpu0->cpu0_L2C TRANSLATION  ACCESS:        258 HIT:         49 MISS:        209 MSHR_MERGE:          0
cpu0->cpu0_L2C PREFETCH REQUESTED:     113689 ISSUED:     113168 USEFUL:       4052 USELESS:      10094 LATE:        953
cpu0->cpu0_L2C AVERAGE MISS LATENCY: 195.8 cycles
cpu0->cpu0_L1I TOTAL        ACCESS:    4138664 HIT:    4138664 MISS:          0 MSHR_MERGE:          0
cpu0->cpu0_L1I LOAD         ACCESS:    4138664 HIT:    4138664 MISS:          0 MSHR_MERGE:          0
cpu0->cpu0_L1I RFO          ACCESS:          0 HIT:          0 MISS:          0 MSHR_MERGE:          0
cpu0->cpu0_L1I PREFETCH     ACCESS:          0 HIT:          0 MISS:          0 MSHR_MERGE:          0
cpu0->cpu0_L1I WRITE        ACCESS:          0 HIT:          0 MISS:          0 MSHR_MERGE:          0
cpu0->cpu0_L1I TRANSLATION  ACCESS:          0 HIT:          0 MISS:          0 MSHR_MERGE:          0
cpu0->cpu0_L1I PREFETCH REQUESTED:          0 ISSUED:          0 USEFUL:          0 USELESS:          0 LATE:          0
cpu0->cpu0_L1I AVERAGE MISS LATENCY: - cycles
cpu0->cpu0_L1D TOTAL        ACCESS:   13335832 HIT:   11309663 MISS:    2026169 MSHR_MERGE:     553251
cpu0->cpu0_L1D LOAD         ACCESS:    9303573 HIT:    7647252 MISS:    1656321 MSHR_MERGE:     552776
cpu0->cpu0_L1D RFO          ACCESS:          0 HIT:          0 MISS:          0 MSHR_MERGE:          0
cpu0->cpu0_L1D PREFETCH     ACCESS:     764943 HIT:     396940 MISS:     368003 MSHR_MERGE:        475
cpu0->cpu0_L1D WRITE        ACCESS:    3266829 HIT:    3265242 MISS:       1587 MSHR_MERGE:          0
cpu0->cpu0_L1D TRANSLATION  ACCESS:        487 HIT:        229 MISS:        258 MSHR_MERGE:          0
cpu0->cpu0_L1D PREFETCH REQUESTED:     947712 ISSUED:     764943 USEFUL:      22516 USELESS:       2202 LATE:         89
cpu0->cpu0_L1D AVERAGE MISS LATENCY: 197 cycles
cpu0->cpu0_ITLB TOTAL        ACCESS:    3756352 HIT:    3756352 MISS:          0 MSHR_MERGE:          0
cpu0->cpu0_ITLB LOAD         ACCESS:    3756352 HIT:    3756352 MISS:          0 MSHR_MERGE:          0
cpu0->cpu0_ITLB RFO          ACCESS:          0 HIT:          0 MISS:          0 MSHR_MERGE:          0
cpu0->cpu0_ITLB PREFETCH     ACCESS:          0 HIT:          0 MISS:          0 MSHR_MERGE:          0
cpu0->cpu0_ITLB WRITE        ACCESS:          0 HIT:          0 MISS:          0 MSHR_MERGE:          0
cpu0->cpu0_ITLB TRANSLATION  ACCESS:          0 HIT:          0 MISS:          0 MSHR_MERGE:          0
cpu0->cpu0_ITLB PREFETCH REQUESTED:          0 ISSUED:          0 USEFUL:          0 USELESS:          0 LATE:          0
cpu0->cpu0_ITLB AVERAGE MISS LATENCY: - cycles
cpu0->cpu0_DTLB TOTAL        ACCESS:   12889159 HIT:   11060891 MISS:    1828268 MSHR_MERGE:     436052
cpu0->cpu0_DTLB LOAD         ACCESS:   12889159 HIT:   11060891 MISS:    1828268 MSHR_MERGE:     436052
cpu0->cpu0_DTLB RFO          ACCESS:          0 HIT:          0 MISS:          0 MSHR_MERGE:          0
cpu0->cpu0_DTLB PREFETCH     ACCESS:          0 HIT:          0 MISS:          0 MSHR_MERGE:          0
cpu0->cpu0_DTLB WRITE        ACCESS:          0 HIT:          0 MISS:          0 MSHR_MERGE:          0
cpu0->cpu0_DTLB TRANSLATION  ACCESS:          0 HIT:          0 MISS:          0 MSHR_MERGE:          0
cpu0->cpu0_DTLB PREFETCH REQUESTED:          0 ISSUED:          0 USEFUL:          0 USELESS:          0 LATE:          0
cpu0->cpu0_DTLB AVERAGE MISS LATENCY: 5.033 cycles
cpu0->LLC TOTAL        ACCESS:    1557617 HIT:     514030 MISS:    1043587 MSHR_MERGE:          0
cpu0->LLC LOAD         ACCESS:    1060759 HIT:      93213 MISS:     967546 MSHR_MERGE:          0
cpu0->LLC RFO          ACCESS:          0 HIT:          0 MISS:          0 MSHR_MERGE:          0
cpu0->LLC PREFETCH     ACCESS:      23946 HIT:       1763 MISS:      22183 MSHR_MERGE:          0
cpu0->LLC WRITE        ACCESS:     472703 HIT:     418997 MISS:      53706 MSHR_MERGE:          0
cpu0->LLC TRANSLATION  ACCESS:        209 HIT:         57 MISS:        152 MSHR_MERGE:          0
cpu0->LLC PREFETCH REQUESTED:          0 ISSUED:          0 USEFUL:          0 USELESS:          0 LATE:          0
cpu0->LLC AVERAGE MISS LATENCY: 187.4 cycles

DRAM Statistics

Channel 0 RQ ROW_BUFFER_HIT:         55
  ROW_BUFFER_MISS:     989816
  AVG DBUS CONGESTED CYCLE: 12.79
Channel 0 WQ ROW_BUFFER_HIT:     171548
  ROW_BUFFER_MISS:     285043
  FULL:          0
Channel 0 REFRESHES ISSUED:      13060

[ROI Statistics]
[System Configuration]
num_cpus 1
cpu_freq 4000
fetch_width 6
decode_width 6
dispatch_width 6
execute_width 6
lq_width 2
sq_width 2
retire_width 6
scheduler_size 128
branch_mispredict_penalty 15
rob_size 352
lq_size 128
sq_size 72
ifetch_buffer_size 64
decode_buffer_size 32
dispatch_buffer_size 32
register_file_size 288
decode_latency 1
dispatch_latency 1
schedule_latency 1
execute_latency 1
page_size 4096
block_size 64
core_0_itlb_set 16
core_0_itlb_way 4
core_0_itlb_rq_size 16
core_0_itlb_wq_size 16
core_0_itlb_pq_size 0
core_0_itlb_mshr_size 8
core_0_itlb_hit_latency 1
core_0_itlb_fill_latency 1
core_0_itlb_max_tag_check 2
core_0_itlb_max_fill 2
core_0_dtlb_set 16
core_0_dtlb_way 4
core_0_dtlb_rq_size 16
core_0_dtlb_wq_size 16
core_0_dtlb_pq_size 0
core_0_dtlb_mshr_size 8
core_0_dtlb_hit_latency 1
core_0_dtlb_fill_latency 1
core_0_dtlb_max_tag_check 2
core_0_dtlb_max_fill 2
core_0_stlb_set 128
core_0_stlb_way 12
core_0_stlb_rq_size 32
core_0_stlb_wq_size 32
core_0_stlb_pq_size 0
core_0_stlb_mshr_size 16
core_0_stlb_hit_latency 4
core_0_stlb_fill_latency 4
core_0_stlb_max_tag_check 1
core_0_stlb_max_fill 1
core_0_l1i_set 64
core_0_l1i_way 8
core_0_l1i_rq_size 64
core_0_l1i_wq_size 64
core_0_l1i_pq_size 32
core_0_l1i_mshr_size 8
core_0_l1i_hit_latency 2
core_0_l1i_fill_latency 2
core_0_l1i_max_tag_check 2
core_0_l1i_max_fill 2
core_0_l1d_set 64
core_0_l1d_way 12
core_0_l1d_rq_size 64
core_0_l1d_wq_size 64
core_0_l1d_pq_size 8
core_0_l1d_mshr_size 16
core_0_l1d_hit_latency 2
core_0_l1d_fill_latency 3
core_0_l1d_max_tag_check 2
core_0_l1d_max_fill 2
core_0_l2c_set 1024
core_0_l2c_way 8
core_0_l2c_rq_size 32
core_0_l2c_wq_size 32
core_0_l2c_pq_size 16
core_0_l2c_mshr_size 32
core_0_l2c_hit_latency 5
core_0_l2c_fill_latency 5
core_0_l2c_max_tag_check 1
core_0_l2c_max_fill 1
llc_set 2048
llc_way 16
llc_rq_size 32
llc_wq_size 32
llc_pq_size 32
llc_mshr_size 64
llc_hit_latency 10
llc_fill_latency 10
llc_max_tag_check 1
llc_max_fill 1
dram_channels 1
dram_ranks 1
dram_bankgroups 8
dram_banks 4
dram_rows 65536
dram_columns 1024
dram_channel_width 8
dram_rq_size 64
dram_wq_size 64
dram_size 17179869184
core_0_itlb_prefetcher no
core_0_dtlb_prefetcher no
core_0_stlb_prefetcher no
core_0_l1i_prefetcher next_line
core_0_l1d_prefetcher vberti
core_0_l2c_prefetcher ip_stride
llc_prefetcher no
llc_replacement drrip

Core_0_instructions 50000001
Core_0_cycles 156720857
Core_0_IPC 0.319039
Core_0_branch_prediction_accuracy 97.4626
Core_0_branch_MPKI 2.43256
Core_0_average_ROB_occupancy_at_mispredict 208.913

Core_0_ITLB_total_access 3756352
Core_0_ITLB_total_hit 3756352
Core_0_ITLB_total_miss 0
Core_0_ITLB_total_MPKI 0
Core_0_ITLB_total_miss_rate 0
Core_0_ITLB_demand_access 3756352
Core_0_ITLB_demand_hit 3756352
Core_0_ITLB_demand_miss 0
Core_0_ITLB_demand_MPKI 0
Core_0_ITLB_demand_miss_rate 0
Core_0_ITLB_load_access 3756352
Core_0_ITLB_load_hit 3756352
Core_0_ITLB_load_miss 0
Core_0_ITLB_load_MPKI 0
Core_0_ITLB_load_miss_rate 0
Core_0_ITLB_rfo_access 0
Core_0_ITLB_rfo_hit 0
Core_0_ITLB_rfo_miss 0
Core_0_ITLB_rfo_MPKI 0
Core_0_ITLB_rfo_miss_rate 0
Core_0_ITLB_prefetch_access 0
Core_0_ITLB_prefetch_hit 0
Core_0_ITLB_prefetch_miss 0
Core_0_ITLB_prefetch_MPKI 0
Core_0_ITLB_prefetch_miss_rate 0
Core_0_ITLB_writeback_access 0
Core_0_ITLB_writeback_hit 0
Core_0_ITLB_writeback_miss 0
Core_0_ITLB_writeback_MPKI 0
Core_0_ITLB_writeback_miss_rate 0
Core_0_ITLB_prefetch_requested 0
Core_0_ITLB_prefetch_issued 0
Core_0_ITLB_prefetch_useful 0
Core_0_ITLB_prefetch_useless 0
Core_0_ITLB_prefetch_late 0
Core_0_ITLB_prefetch_accuracy 0
Core_0_ITLB_prefetch_coverage 0
Core_0_ITLB_total_eviction 0

Core_0_DTLB_total_access 12889159
Core_0_DTLB_total_hit 11060891
Core_0_DTLB_total_miss 1828268
Core_0_DTLB_total_MPKI 36.5654
Core_0_DTLB_total_miss_rate 0.141845
Core_0_DTLB_demand_access 12889159
Core_0_DTLB_demand_hit 11060891
Core_0_DTLB_demand_miss 1828268
Core_0_DTLB_demand_MPKI 36.5654
Core_0_DTLB_demand_miss_rate 0.141845
Core_0_DTLB_load_access 12889159
Core_0_DTLB_load_hit 11060891
Core_0_DTLB_load_miss 1828268
Core_0_DTLB_load_MPKI 36.5654
Core_0_DTLB_load_miss_rate 0.141845
Core_0_DTLB_rfo_access 0
Core_0_DTLB_rfo_hit 0
Core_0_DTLB_rfo_miss 0
Core_0_DTLB_rfo_MPKI 0
Core_0_DTLB_rfo_miss_rate 0
Core_0_DTLB_prefetch_access 0
Core_0_DTLB_prefetch_hit 0
Core_0_DTLB_prefetch_miss 0
Core_0_DTLB_prefetch_MPKI 0
Core_0_DTLB_prefetch_miss_rate 0
Core_0_DTLB_writeback_access 0
Core_0_DTLB_writeback_hit 0
Core_0_DTLB_writeback_miss 0
Core_0_DTLB_writeback_MPKI 0
Core_0_DTLB_writeback_miss_rate 0
Core_0_DTLB_prefetch_requested 0
Core_0_DTLB_prefetch_issued 0
Core_0_DTLB_prefetch_useful 0
Core_0_DTLB_prefetch_useless 0
Core_0_DTLB_prefetch_late 0
Core_0_DTLB_prefetch_accuracy 0
Core_0_DTLB_prefetch_coverage 0
Core_0_DTLB_total_eviction 1392216

Core_0_STLB_total_access 1392216
Core_0_STLB_total_hit 1391988
Core_0_STLB_total_miss 228
Core_0_STLB_total_MPKI 0.00456
Core_0_STLB_total_miss_rate 0.000163768
Core_0_STLB_demand_access 1392216
Core_0_STLB_demand_hit 1391988
Core_0_STLB_demand_miss 228
Core_0_STLB_demand_MPKI 0.00456
Core_0_STLB_demand_miss_rate 0.000163768
Core_0_STLB_load_access 1392216
Core_0_STLB_load_hit 1391988
Core_0_STLB_load_miss 228
Core_0_STLB_load_MPKI 0.00456
Core_0_STLB_load_miss_rate 0.000163768
Core_0_STLB_rfo_access 0
Core_0_STLB_rfo_hit 0
Core_0_STLB_rfo_miss 0
Core_0_STLB_rfo_MPKI 0
Core_0_STLB_rfo_miss_rate 0
Core_0_STLB_prefetch_access 0
Core_0_STLB_prefetch_hit 0
Core_0_STLB_prefetch_miss 0
Core_0_STLB_prefetch_MPKI 0
Core_0_STLB_prefetch_miss_rate 0
Core_0_STLB_writeback_access 0
Core_0_STLB_writeback_hit 0
Core_0_STLB_writeback_miss 0
Core_0_STLB_writeback_MPKI 0
Core_0_STLB_writeback_miss_rate 0
Core_0_STLB_prefetch_requested 0
Core_0_STLB_prefetch_issued 0
Core_0_STLB_prefetch_useful 0
Core_0_STLB_prefetch_useless 0
Core_0_STLB_prefetch_late 0
Core_0_STLB_prefetch_accuracy 0
Core_0_STLB_prefetch_coverage 0
Core_0_STLB_total_eviction 626397

Core_0_L1I_total_access 4138664
Core_0_L1I_total_hit 4138664
Core_0_L1I_total_miss 0
Core_0_L1I_total_MPKI 0
Core_0_L1I_total_miss_rate 0
Core_0_L1I_demand_access 4138664
Core_0_L1I_demand_hit 4138664
Core_0_L1I_demand_miss 0
Core_0_L1I_demand_MPKI 0
Core_0_L1I_demand_miss_rate 0
Core_0_L1I_load_access 4138664
Core_0_L1I_load_hit 4138664
Core_0_L1I_load_miss 0
Core_0_L1I_load_MPKI 0
Core_0_L1I_load_miss_rate 0
Core_0_L1I_rfo_access 0
Core_0_L1I_rfo_hit 0
Core_0_L1I_rfo_miss 0
Core_0_L1I_rfo_MPKI 0
Core_0_L1I_rfo_miss_rate 0
Core_0_L1I_prefetch_access 0
Core_0_L1I_prefetch_hit 0
Core_0_L1I_prefetch_miss 0
Core_0_L1I_prefetch_MPKI 0
Core_0_L1I_prefetch_miss_rate 0
Core_0_L1I_writeback_access 0
Core_0_L1I_writeback_hit 0
Core_0_L1I_writeback_miss 0
Core_0_L1I_writeback_MPKI 0
Core_0_L1I_writeback_miss_rate 0
Core_0_L1I_prefetch_requested 0
Core_0_L1I_prefetch_issued 0
Core_0_L1I_prefetch_useful 0
Core_0_L1I_prefetch_useless 0
Core_0_L1I_prefetch_late 0
Core_0_L1I_prefetch_accuracy 0
Core_0_L1I_prefetch_coverage 0
Core_0_L1I_total_eviction 0

Core_0_L1D_total_access 13335345
Core_0_L1D_total_hit 11309434
Core_0_L1D_total_miss 2025911
Core_0_L1D_total_MPKI 40.5182
Core_0_L1D_total_miss_rate 0.15192
Core_0_L1D_demand_access 9303573
Core_0_L1D_demand_hit 7647252
Core_0_L1D_demand_miss 1656321
Core_0_L1D_demand_MPKI 33.1264
Core_0_L1D_demand_miss_rate 0.178031
Core_0_L1D_load_access 9303573
Core_0_L1D_load_hit 7647252
Core_0_L1D_load_miss 1656321
Core_0_L1D_load_MPKI 33.1264
Core_0_L1D_load_miss_rate 0.178031
Core_0_L1D_rfo_access 0
Core_0_L1D_rfo_hit 0
Core_0_L1D_rfo_miss 0
Core_0_L1D_rfo_MPKI 0
Core_0_L1D_rfo_miss_rate 0
Core_0_L1D_prefetch_access 764943
Core_0_L1D_prefetch_hit 396940
Core_0_L1D_prefetch_miss 368003
Core_0_L1D_prefetch_MPKI 7.36006
Core_0_L1D_prefetch_miss_rate 0.481086
Core_0_L1D_writeback_access 3266829
Core_0_L1D_writeback_hit 3265242
Core_0_L1D_writeback_miss 1587
Core_0_L1D_writeback_MPKI 0.03174
Core_0_L1D_writeback_miss_rate 0.000485792
Core_0_L1D_prefetch_requested 947712
Core_0_L1D_prefetch_issued 764943
Core_0_L1D_prefetch_useful 22516
Core_0_L1D_prefetch_useless 2202
Core_0_L1D_prefetch_late 89
Core_0_L1D_prefetch_accuracy 0.0294349
Core_0_L1D_prefetch_coverage 0.0134117
Core_0_L1D_total_eviction 1130098

Core_0_L2C_total_access 2082825
Core_0_L2C_total_hit 992896
Core_0_L2C_total_miss 1089929
Core_0_L2C_total_MPKI 21.7986
Core_0_L2C_total_miss_rate 0.523294
Core_0_L2C_demand_access 1105132
Core_0_L2C_demand_hit 43356
Core_0_L2C_demand_miss 1061776
Core_0_L2C_demand_MPKI 21.2355
Core_0_L2C_demand_miss_rate 0.960768
Core_0_L2C_load_access 1103545
Core_0_L2C_load_hit 41769
Core_0_L2C_load_miss 1061776
Core_0_L2C_load_MPKI 21.2355
Core_0_L2C_load_miss_rate 0.96215
Core_0_L2C_rfo_access 1587
Core_0_L2C_rfo_hit 1587
Core_0_L2C_rfo_miss 0
Core_0_L2C_rfo_MPKI 0
Core_0_L2C_rfo_miss_rate 0
Core_0_L2C_prefetch_access 480289
Core_0_L2C_prefetch_hit 452140
Core_0_L2C_prefetch_miss 28149
Core_0_L2C_prefetch_MPKI 0.56298
Core_0_L2C_prefetch_miss_rate 0.0586085
Core_0_L2C_writeback_access 497404
Core_0_L2C_writeback_hit 497400
Core_0_L2C_writeback_miss 4
Core_0_L2C_writeback_MPKI 8e-05
Core_0_L2C_writeback_miss_rate 8.04175e-06
Core_0_L2C_prefetch_requested 113689
Core_0_L2C_prefetch_issued 113168
Core_0_L2C_prefetch_useful 4052
Core_0_L2C_prefetch_useless 10094
Core_0_L2C_prefetch_late 953
Core_0_L2C_prefetch_accuracy 0.0358052
Core_0_L2C_prefetch_coverage 0.00380174
Core_0_L2C_total_eviction 1084918

Core_0_LLC_total_access 1557408
Core_0_LLC_total_hit 513973
Core_0_LLC_total_miss 1043435
Core_0_LLC_total_MPKI 20.8687
Core_0_LLC_total_miss_rate 0.669982
Core_0_LLC_demand_access 1060759
Core_0_LLC_demand_hit 93213
Core_0_LLC_demand_miss 967546
Core_0_LLC_demand_MPKI 19.3509
Core_0_LLC_demand_miss_rate 0.912126
Core_0_LLC_load_access 1060759
Core_0_LLC_load_hit 93213
Core_0_LLC_load_miss 967546
Core_0_LLC_load_MPKI 19.3509
Core_0_LLC_load_miss_rate 0.912126
Core_0_LLC_rfo_access 0
Core_0_LLC_rfo_hit 0
Core_0_LLC_rfo_miss 0
Core_0_LLC_rfo_MPKI 0
Core_0_LLC_rfo_miss_rate 0
Core_0_LLC_prefetch_access 23946
Core_0_LLC_prefetch_hit 1763
Core_0_LLC_prefetch_miss 22183
Core_0_LLC_prefetch_MPKI 0.44366
Core_0_LLC_prefetch_miss_rate 0.926376
Core_0_LLC_writeback_access 472703
Core_0_LLC_writeback_hit 418997
Core_0_LLC_writeback_miss 53706
Core_0_LLC_writeback_MPKI 1.07412
Core_0_LLC_writeback_miss_rate 0.113615
Core_0_LLC_prefetch_requested 0
Core_0_LLC_prefetch_issued 0
Core_0_LLC_prefetch_useful 0
Core_0_LLC_prefetch_useless 0
Core_0_LLC_prefetch_late 0
Core_0_LLC_prefetch_accuracy 0
Core_0_LLC_prefetch_coverage 0
Core_0_LLC_total_eviction 1043587

[DRAM Statistics]
Channel_0_RQ_row_buffer_hit 55
Channel_0_RQ_row_buffer_miss 989816
Channel_0_WQ_row_buffer_hit 171548
Channel_0_WQ_row_buffer_miss 285043
Channel_0_WQ_full 0
Channel_0_dbus_congested 4002383
DRAM_total_RQ_row_buffer_hit 55
DRAM_total_RQ_row_buffer_miss 989816
DRAM_total_WQ_row_buffer_hit 171548
DRAM_total_WQ_row_buffer_miss 285043
DRAM_total_WQ_full 0
DRAM_total_dbus_congested 4002383
DRAM_avg_congested_cycle 12.7882

======STLB miss causes ========
Core_0_STLB_miss_cause_breakdown
Core_0_STLB_cause_Demand_Data_miss 0
Core_0_STLB_cause_Demand_Data_miss_rate 0
Core_0_STLB_cause_Demand_Instruction_miss 0
Core_0_STLB_cause_Demand_Instruction_miss_rate 0
Core_0_STLB_cause_L1D_Prefetch_miss 228
Core_0_STLB_cause_L1D_Prefetch_miss_rate 0.000163768
Core_0_STLB_cause_L1I_Prefetch_miss 0
Core_0_STLB_cause_L1I_Prefetch_miss_rate 0
Core_0_STLB_cause_Other_miss 0
Core_0_STLB_cause_Other_miss_rate 0
Core_0_STLB_Demand_miss 0
Core_0_STLB_Demand_miss_rate 0
Core_0_STLB_L1D_Prefetch_miss 228
Core_0_STLB_L1D_Prefetch_miss_rate 0.000163768
Core_0_STLB_Other_miss 0
Core_0_STLB_Other_miss_rate 0
BERTI TO_L1: 458294 TO_L2: 990925 TO_L2_BC_MSHR: 0
BERTI AVG_LAT: 140.037 NUM_TRACK_LATENCY: 1578629 NUM_CANT_TRACK_LATENCY: 0
BERTI CROSS_PAGE 144116 NO_CROSS_PAGE: 1305103
BERTI FOUND_BERTI: 7775642 NO_FOUND_BERTI: 8423696
BERTI AVERAGE_ISSUED: 3.32689
