[VMEM] WARNING: physical memory size is smaller than virtual memory size.

*** ChampSim Multicore Out-of-Order Simulator ***
Warmup Instructions: 20000000
Simulation Instructions: 50000000
Number of CPUs: 1
Page size: 4096
STLB ideal mode: demand
STLB ideal fill: on
Core 0: /data0/tzh/champsim_traces/QMM/srv_0_new.xz
VBerti Prefetcher
BERTI HASH ENTANGLING
BERTI IP MASK ffff
Off-chip DRAM Size: 16 GiB Channels: 1 Width: 64-bit Data Rate: 3205 MT/s
[BTB] WARNING: target of return is a lower address than the corresponding call. This is usually a problem with your trace.
[BTB] WARNING: target of return is a lower address than the corresponding call. This is usually a problem with your trace.
[BTB] WARNING: target of return is a lower address than the corresponding call. This is usually a problem with your trace.
[BTB] WARNING: target of return is a lower address than the corresponding call. This is usually a problem with your trace.
[BTB] WARNING: target of return is a lower address than the corresponding call. This is usually a problem with your trace.
[BTB] WARNING: target of return is a lower address than the corresponding call. This is usually a problem with your trace.
[BTB] WARNING: target of return is a lower address than the corresponding call. This is usually a problem with your trace.
[BTB] WARNING: target of return is a lower address than the corresponding call. This is usually a problem with your trace.
[BTB] WARNING: target of return is a lower address than the corresponding call. This is usually a problem with your trace.
[BTB] WARNING: target of return is a lower address than the corresponding call. This is usually a problem with your trace.
Warmup halting CPU 0 at instruction 20000003 cycle 4093235 for remainder of phase
Warmup finished CPU 0 instructions: 20000003 cycles: 4093235 cumulative IPC: 4.886 (Simulation time: 00 hr 00 min 55 sec)
Warmup complete CPU 0 instructions: 20000003 cycles: 4093235 cumulative IPC: 4.886 (Simulation time: 00 hr 00 min 55 sec)
*** Reached end of trace: (0, "/data0/tzh/champsim_traces/QMM/srv_0_new.xz")
*** Reached end of trace: (0, "/data0/tzh/champsim_traces/QMM/srv_0_new.xz")
Simulation finished CPU 0 instructions: 50000001 cycles: 29337006 cumulative IPC: 1.704 (Simulation time: 00 hr 05 min 14 sec)
Simulation complete CPU 0 instructions: 50000001 cycles: 29337006 cumulative IPC: 1.704 (Simulation time: 00 hr 05 min 14 sec)

ChampSim completed all CPUs

=== Simulation ===
CPU 0 runs /data0/tzh/champsim_traces/QMM/srv_0_new.xz

Region of Interest Statistics

CPU 0 cumulative IPC: 1.704 instructions: 50000001 cycles: 29337006
CPU 0 Branch Prediction Accuracy: 97.26% MPKI: 4.946 Average ROB Occupancy at Mispredict: 90.63
Branch type MPKI
BRANCH_DIRECT_JUMP: 0.4278
BRANCH_INDIRECT: 0.3068
BRANCH_CONDITIONAL: 2.669
BRANCH_DIRECT_CALL: 0.7712
BRANCH_INDIRECT_CALL: 0.1747
BRANCH_RETURN: 0.5969

cpu0->cpu0_STLB TOTAL        ACCESS:     818894 HIT:     818821 MISS:         73 MSHR_MERGE:          0
cpu0->cpu0_STLB LOAD         ACCESS:     818894 HIT:     818821 MISS:         73 MSHR_MERGE:          0
cpu0->cpu0_STLB RFO          ACCESS:          0 HIT:          0 MISS:          0 MSHR_MERGE:          0
cpu0->cpu0_STLB PREFETCH     ACCESS:          0 HIT:          0 MISS:          0 MSHR_MERGE:          0
cpu0->cpu0_STLB WRITE        ACCESS:          0 HIT:          0 MISS:          0 MSHR_MERGE:          0
cpu0->cpu0_STLB TRANSLATION  ACCESS:          0 HIT:          0 MISS:          0 MSHR_MERGE:          0
cpu0->cpu0_STLB PREFETCH REQUESTED:          0 ISSUED:          0 USEFUL:          0 USELESS:          0 LATE:          0
cpu0->cpu0_STLB AVERAGE MISS LATENCY: 59.51 cycles
cpu0->cpu0_L2C TOTAL        ACCESS:    2200667 HIT:    1258830 MISS:     941837 MSHR_MERGE:       2338
cpu0->cpu0_L2C LOAD         ACCESS:    1835931 HIT:     956218 MISS:     879713 MSHR_MERGE:        619
cpu0->cpu0_L2C RFO          ACCESS:      85012 HIT:      37018 MISS:      47994 MSHR_MERGE:          2
cpu0->cpu0_L2C PREFETCH     ACCESS:      26931 HIT:      14603 MISS:      12328 MSHR_MERGE:       1717
cpu0->cpu0_L2C WRITE        ACCESS:     252730 HIT:     250989 MISS:       1741 MSHR_MERGE:          0
cpu0->cpu0_L2C TRANSLATION  ACCESS:         63 HIT:          2 MISS:         61 MSHR_MERGE:          0
cpu0->cpu0_L2C PREFETCH REQUESTED:      35663 ISSUED:      22867 USEFUL:       4152 USELESS:       4164 LATE:        227
cpu0->cpu0_L2C AVERAGE MISS LATENCY: 27.12 cycles
cpu0->cpu0_L1I TOTAL        ACCESS:    7617168 HIT:    5567923 MISS:    2049245 MSHR_MERGE:     754465
cpu0->cpu0_L1I LOAD         ACCESS:    7617168 HIT:    5567923 MISS:    2049245 MSHR_MERGE:     754465
cpu0->cpu0_L1I RFO          ACCESS:          0 HIT:          0 MISS:          0 MSHR_MERGE:          0
cpu0->cpu0_L1I PREFETCH     ACCESS:          0 HIT:          0 MISS:          0 MSHR_MERGE:          0
cpu0->cpu0_L1I WRITE        ACCESS:          0 HIT:          0 MISS:          0 MSHR_MERGE:          0
cpu0->cpu0_L1I TRANSLATION  ACCESS:          0 HIT:          0 MISS:          0 MSHR_MERGE:          0
cpu0->cpu0_L1I PREFETCH REQUESTED:          0 ISSUED:          0 USEFUL:          0 USELESS:          0 LATE:          0
cpu0->cpu0_L1I AVERAGE MISS LATENCY: 14.77 cycles
cpu0->cpu0_L1D TOTAL        ACCESS:   11622069 HIT:   10662487 MISS:     959582 MSHR_MERGE:     328618
cpu0->cpu0_L1D LOAD         ACCESS:    6651494 HIT:    5928222 MISS:     723272 MSHR_MERGE:     182117
cpu0->cpu0_L1D RFO          ACCESS:          0 HIT:          0 MISS:          0 MSHR_MERGE:          0
cpu0->cpu0_L1D PREFETCH     ACCESS:      18625 HIT:      12606 MISS:       6019 MSHR_MERGE:       1289
cpu0->cpu0_L1D WRITE        ACCESS:    4951801 HIT:    4721573 MISS:     230228 MSHR_MERGE:     145212
cpu0->cpu0_L1D TRANSLATION  ACCESS:        149 HIT:         86 MISS:         63 MSHR_MERGE:          0
cpu0->cpu0_L1D PREFETCH REQUESTED:      75154 ISSUED:      18625 USEFUL:       1343 USELESS:        469 LATE:        497
cpu0->cpu0_L1D AVERAGE MISS LATENCY: 34.36 cycles
cpu0->cpu0_ITLB TOTAL        ACCESS:    6453469 HIT:    5990702 MISS:     462767 MSHR_MERGE:     270934
cpu0->cpu0_ITLB LOAD         ACCESS:    6453469 HIT:    5990702 MISS:     462767 MSHR_MERGE:     270934
cpu0->cpu0_ITLB RFO          ACCESS:          0 HIT:          0 MISS:          0 MSHR_MERGE:          0
cpu0->cpu0_ITLB PREFETCH     ACCESS:          0 HIT:          0 MISS:          0 MSHR_MERGE:          0
cpu0->cpu0_ITLB WRITE        ACCESS:          0 HIT:          0 MISS:          0 MSHR_MERGE:          0
cpu0->cpu0_ITLB TRANSLATION  ACCESS:          0 HIT:          0 MISS:          0 MSHR_MERGE:          0
cpu0->cpu0_ITLB PREFETCH REQUESTED:          0 ISSUED:          0 USEFUL:          0 USELESS:          0 LATE:          0
cpu0->cpu0_ITLB AVERAGE MISS LATENCY: 5.024 cycles
cpu0->cpu0_DTLB TOTAL        ACCESS:   10949765 HIT:   10121654 MISS:     828111 MSHR_MERGE:     201050
cpu0->cpu0_DTLB LOAD         ACCESS:   10949765 HIT:   10121654 MISS:     828111 MSHR_MERGE:     201050
cpu0->cpu0_DTLB RFO          ACCESS:          0 HIT:          0 MISS:          0 MSHR_MERGE:          0
cpu0->cpu0_DTLB PREFETCH     ACCESS:          0 HIT:          0 MISS:          0 MSHR_MERGE:          0
cpu0->cpu0_DTLB WRITE        ACCESS:          0 HIT:          0 MISS:          0 MSHR_MERGE:          0
cpu0->cpu0_DTLB TRANSLATION  ACCESS:          0 HIT:          0 MISS:          0 MSHR_MERGE:          0
cpu0->cpu0_DTLB PREFETCH REQUESTED:          0 ISSUED:          0 USEFUL:          0 USELESS:          0 LATE:          0
cpu0->cpu0_DTLB AVERAGE MISS LATENCY: 5.014 cycles
cpu0->LLC TOTAL        ACCESS:    1084304 HIT:    1017188 MISS:      67116 MSHR_MERGE:          0
cpu0->LLC LOAD         ACCESS:     879093 HIT:     827599 MISS:      51494 MSHR_MERGE:          0
cpu0->LLC RFO          ACCESS:      47992 HIT:      37703 MISS:      10289 MSHR_MERGE:          0
cpu0->LLC PREFETCH     ACCESS:      10611 HIT:       7620 MISS:       2991 MSHR_MERGE:          0
cpu0->LLC WRITE        ACCESS:     146547 HIT:     144210 MISS:       2337 MSHR_MERGE:          0
cpu0->LLC TRANSLATION  ACCESS:         61 HIT:         56 MISS:          5 MSHR_MERGE:          0
cpu0->LLC PREFETCH REQUESTED:          0 ISSUED:          0 USEFUL:          0 USELESS:          0 LATE:          0
cpu0->LLC AVERAGE MISS LATENCY: 175.2 cycles

DRAM Statistics

Channel 0 RQ ROW_BUFFER_HIT:       2028
  ROW_BUFFER_MISS:      62748
  AVG DBUS CONGESTED CYCLE: 16.1
Channel 0 WQ ROW_BUFFER_HIT:      10289
  ROW_BUFFER_MISS:      41465
  FULL:          0
Channel 0 REFRESHES ISSUED:       2444

[ROI Statistics]
[System Configuration]
num_cpus 1
cpu_freq 4000
fetch_width 6
decode_width 6
dispatch_width 6
execute_width 6
lq_width 2
sq_width 2
retire_width 6
scheduler_size 128
branch_mispredict_penalty 15
rob_size 352
lq_size 128
sq_size 72
ifetch_buffer_size 64
decode_buffer_size 32
dispatch_buffer_size 32
register_file_size 288
decode_latency 1
dispatch_latency 1
schedule_latency 1
execute_latency 1
page_size 4096
block_size 64
core_0_itlb_set 16
core_0_itlb_way 4
core_0_itlb_rq_size 16
core_0_itlb_wq_size 16
core_0_itlb_pq_size 0
core_0_itlb_mshr_size 8
core_0_itlb_hit_latency 1
core_0_itlb_fill_latency 1
core_0_itlb_max_tag_check 2
core_0_itlb_max_fill 2
core_0_dtlb_set 16
core_0_dtlb_way 4
core_0_dtlb_rq_size 16
core_0_dtlb_wq_size 16
core_0_dtlb_pq_size 0
core_0_dtlb_mshr_size 8
core_0_dtlb_hit_latency 1
core_0_dtlb_fill_latency 1
core_0_dtlb_max_tag_check 2
core_0_dtlb_max_fill 2
core_0_stlb_set 128
core_0_stlb_way 12
core_0_stlb_rq_size 32
core_0_stlb_wq_size 32
core_0_stlb_pq_size 0
core_0_stlb_mshr_size 16
core_0_stlb_hit_latency 4
core_0_stlb_fill_latency 4
core_0_stlb_max_tag_check 1
core_0_stlb_max_fill 1
core_0_l1i_set 64
core_0_l1i_way 8
core_0_l1i_rq_size 64
core_0_l1i_wq_size 64
core_0_l1i_pq_size 32
core_0_l1i_mshr_size 8
core_0_l1i_hit_latency 2
core_0_l1i_fill_latency 2
core_0_l1i_max_tag_check 2
core_0_l1i_max_fill 2
core_0_l1d_set 64
core_0_l1d_way 12
core_0_l1d_rq_size 64
core_0_l1d_wq_size 64
core_0_l1d_pq_size 8
core_0_l1d_mshr_size 16
core_0_l1d_hit_latency 2
core_0_l1d_fill_latency 3
core_0_l1d_max_tag_check 2
core_0_l1d_max_fill 2
core_0_l2c_set 1024
core_0_l2c_way 8
core_0_l2c_rq_size 32
core_0_l2c_wq_size 32
core_0_l2c_pq_size 16
core_0_l2c_mshr_size 32
core_0_l2c_hit_latency 5
core_0_l2c_fill_latency 5
core_0_l2c_max_tag_check 1
core_0_l2c_max_fill 1
llc_set 2048
llc_way 16
llc_rq_size 32
llc_wq_size 32
llc_pq_size 32
llc_mshr_size 64
llc_hit_latency 10
llc_fill_latency 10
llc_max_tag_check 1
llc_max_fill 1
dram_channels 1
dram_ranks 1
dram_bankgroups 8
dram_banks 4
dram_rows 65536
dram_columns 1024
dram_channel_width 8
dram_rq_size 64
dram_wq_size 64
dram_size 17179869184
core_0_itlb_prefetcher no
core_0_dtlb_prefetcher no
core_0_stlb_prefetcher no
core_0_l1i_prefetcher next_line
core_0_l1d_prefetcher vberti
core_0_l2c_prefetcher ip_stride
llc_prefetcher no
llc_replacement drrip

Core_0_instructions 50000001
Core_0_cycles 29337006
Core_0_IPC 1.70433
Core_0_branch_prediction_accuracy 97.2616
Core_0_branch_MPKI 4.94634
Core_0_average_ROB_occupancy_at_mispredict 90.631

Core_0_ITLB_total_access 6453469
Core_0_ITLB_total_hit 5990702
Core_0_ITLB_total_miss 462767
Core_0_ITLB_total_MPKI 9.25534
Core_0_ITLB_total_miss_rate 0.0717083
Core_0_ITLB_demand_access 6453469
Core_0_ITLB_demand_hit 5990702
Core_0_ITLB_demand_miss 462767
Core_0_ITLB_demand_MPKI 9.25534
Core_0_ITLB_demand_miss_rate 0.0717083
Core_0_ITLB_load_access 6453469
Core_0_ITLB_load_hit 5990702
Core_0_ITLB_load_miss 462767
Core_0_ITLB_load_MPKI 9.25534
Core_0_ITLB_load_miss_rate 0.0717083
Core_0_ITLB_rfo_access 0
Core_0_ITLB_rfo_hit 0
Core_0_ITLB_rfo_miss 0
Core_0_ITLB_rfo_MPKI 0
Core_0_ITLB_rfo_miss_rate 0
Core_0_ITLB_prefetch_access 0
Core_0_ITLB_prefetch_hit 0
Core_0_ITLB_prefetch_miss 0
Core_0_ITLB_prefetch_MPKI 0
Core_0_ITLB_prefetch_miss_rate 0
Core_0_ITLB_writeback_access 0
Core_0_ITLB_writeback_hit 0
Core_0_ITLB_writeback_miss 0
Core_0_ITLB_writeback_MPKI 0
Core_0_ITLB_writeback_miss_rate 0
Core_0_ITLB_prefetch_requested 0
Core_0_ITLB_prefetch_issued 0
Core_0_ITLB_prefetch_useful 0
Core_0_ITLB_prefetch_useless 0
Core_0_ITLB_prefetch_late 0
Core_0_ITLB_prefetch_accuracy 0
Core_0_ITLB_prefetch_coverage 0
Core_0_ITLB_total_eviction 191833

Core_0_DTLB_total_access 10949765
Core_0_DTLB_total_hit 10121654
Core_0_DTLB_total_miss 828111
Core_0_DTLB_total_MPKI 16.5622
Core_0_DTLB_total_miss_rate 0.0756282
Core_0_DTLB_demand_access 10949765
Core_0_DTLB_demand_hit 10121654
Core_0_DTLB_demand_miss 828111
Core_0_DTLB_demand_MPKI 16.5622
Core_0_DTLB_demand_miss_rate 0.0756282
Core_0_DTLB_load_access 10949765
Core_0_DTLB_load_hit 10121654
Core_0_DTLB_load_miss 828111
Core_0_DTLB_load_MPKI 16.5622
Core_0_DTLB_load_miss_rate 0.0756282
Core_0_DTLB_rfo_access 0
Core_0_DTLB_rfo_hit 0
Core_0_DTLB_rfo_miss 0
Core_0_DTLB_rfo_MPKI 0
Core_0_DTLB_rfo_miss_rate 0
Core_0_DTLB_prefetch_access 0
Core_0_DTLB_prefetch_hit 0
Core_0_DTLB_prefetch_miss 0
Core_0_DTLB_prefetch_MPKI 0
Core_0_DTLB_prefetch_miss_rate 0
Core_0_DTLB_writeback_access 0
Core_0_DTLB_writeback_hit 0
Core_0_DTLB_writeback_miss 0
Core_0_DTLB_writeback_MPKI 0
Core_0_DTLB_writeback_miss_rate 0
Core_0_DTLB_prefetch_requested 0
Core_0_DTLB_prefetch_issued 0
Core_0_DTLB_prefetch_useful 0
Core_0_DTLB_prefetch_useless 0
Core_0_DTLB_prefetch_late 0
Core_0_DTLB_prefetch_accuracy 0
Core_0_DTLB_prefetch_coverage 0
Core_0_DTLB_total_eviction 627061

Core_0_STLB_total_access 818894
Core_0_STLB_total_hit 818821
Core_0_STLB_total_miss 73
Core_0_STLB_total_MPKI 0.00146
Core_0_STLB_total_miss_rate 8.91446e-05
Core_0_STLB_demand_access 818894
Core_0_STLB_demand_hit 818821
Core_0_STLB_demand_miss 73
Core_0_STLB_demand_MPKI 0.00146
Core_0_STLB_demand_miss_rate 8.91446e-05
Core_0_STLB_load_access 818894
Core_0_STLB_load_hit 818821
Core_0_STLB_load_miss 73
Core_0_STLB_load_MPKI 0.00146
Core_0_STLB_load_miss_rate 8.91446e-05
Core_0_STLB_rfo_access 0
Core_0_STLB_rfo_hit 0
Core_0_STLB_rfo_miss 0
Core_0_STLB_rfo_MPKI 0
Core_0_STLB_rfo_miss_rate 0
Core_0_STLB_prefetch_access 0
Core_0_STLB_prefetch_hit 0
Core_0_STLB_prefetch_miss 0
Core_0_STLB_prefetch_MPKI 0
Core_0_STLB_prefetch_miss_rate 0
Core_0_STLB_writeback_access 0
Core_0_STLB_writeback_hit 0
Core_0_STLB_writeback_miss 0
Core_0_STLB_writeback_MPKI 0
Core_0_STLB_writeback_miss_rate 0
Core_0_STLB_prefetch_requested 0
Core_0_STLB_prefetch_issued 0
Core_0_STLB_prefetch_useful 0
Core_0_STLB_prefetch_useless 0
Core_0_STLB_prefetch_late 0
Core_0_STLB_prefetch_accuracy 0
Core_0_STLB_prefetch_coverage 0
Core_0_STLB_total_eviction 114039

Core_0_L1I_total_access 7617168
Core_0_L1I_total_hit 5567923
Core_0_L1I_total_miss 2049245
Core_0_L1I_total_MPKI 40.9849
Core_0_L1I_total_miss_rate 0.26903
Core_0_L1I_demand_access 7617168
Core_0_L1I_demand_hit 5567923
Core_0_L1I_demand_miss 2049245
Core_0_L1I_demand_MPKI 40.9849
Core_0_L1I_demand_miss_rate 0.26903
Core_0_L1I_load_access 7617168
Core_0_L1I_load_hit 5567923
Core_0_L1I_load_miss 2049245
Core_0_L1I_load_MPKI 40.9849
Core_0_L1I_load_miss_rate 0.26903
Core_0_L1I_rfo_access 0
Core_0_L1I_rfo_hit 0
Core_0_L1I_rfo_miss 0
Core_0_L1I_rfo_MPKI 0
Core_0_L1I_rfo_miss_rate 0
Core_0_L1I_prefetch_access 0
Core_0_L1I_prefetch_hit 0
Core_0_L1I_prefetch_miss 0
Core_0_L1I_prefetch_MPKI 0
Core_0_L1I_prefetch_miss_rate 0
Core_0_L1I_writeback_access 0
Core_0_L1I_writeback_hit 0
Core_0_L1I_writeback_miss 0
Core_0_L1I_writeback_MPKI 0
Core_0_L1I_writeback_miss_rate 0
Core_0_L1I_prefetch_requested 0
Core_0_L1I_prefetch_issued 0
Core_0_L1I_prefetch_useful 0
Core_0_L1I_prefetch_useless 0
Core_0_L1I_prefetch_late 0
Core_0_L1I_prefetch_accuracy 0
Core_0_L1I_prefetch_coverage 0
Core_0_L1I_total_eviction 1294780

Core_0_L1D_total_access 11621920
Core_0_L1D_total_hit 10662401
Core_0_L1D_total_miss 959519
Core_0_L1D_total_MPKI 19.1904
Core_0_L1D_total_miss_rate 0.0825611
Core_0_L1D_demand_access 6651494
Core_0_L1D_demand_hit 5928222
Core_0_L1D_demand_miss 723272
Core_0_L1D_demand_MPKI 14.4654
Core_0_L1D_demand_miss_rate 0.108738
Core_0_L1D_load_access 6651494
Core_0_L1D_load_hit 5928222
Core_0_L1D_load_miss 723272
Core_0_L1D_load_MPKI 14.4654
Core_0_L1D_load_miss_rate 0.108738
Core_0_L1D_rfo_access 0
Core_0_L1D_rfo_hit 0
Core_0_L1D_rfo_miss 0
Core_0_L1D_rfo_MPKI 0
Core_0_L1D_rfo_miss_rate 0
Core_0_L1D_prefetch_access 18625
Core_0_L1D_prefetch_hit 12606
Core_0_L1D_prefetch_miss 6019
Core_0_L1D_prefetch_MPKI 0.12038
Core_0_L1D_prefetch_miss_rate 0.323168
Core_0_L1D_writeback_access 4951801
Core_0_L1D_writeback_hit 4721573
Core_0_L1D_writeback_miss 230228
Core_0_L1D_writeback_MPKI 4.60456
Core_0_L1D_writeback_miss_rate 0.0464938
Core_0_L1D_prefetch_requested 75154
Core_0_L1D_prefetch_issued 18625
Core_0_L1D_prefetch_useful 1343
Core_0_L1D_prefetch_useless 469
Core_0_L1D_prefetch_late 497
Core_0_L1D_prefetch_accuracy 0.0721074
Core_0_L1D_prefetch_coverage 0.0018534
Core_0_L1D_total_eviction 628046

Core_0_L2C_total_access 2200604
Core_0_L2C_total_hit 1258828
Core_0_L2C_total_miss 941776
Core_0_L2C_total_MPKI 18.8355
Core_0_L2C_total_miss_rate 0.427963
Core_0_L2C_demand_access 1920943
Core_0_L2C_demand_hit 993236
Core_0_L2C_demand_miss 927707
Core_0_L2C_demand_MPKI 18.5541
Core_0_L2C_demand_miss_rate 0.482944
Core_0_L2C_load_access 1835931
Core_0_L2C_load_hit 956218
Core_0_L2C_load_miss 879713
Core_0_L2C_load_MPKI 17.5943
Core_0_L2C_load_miss_rate 0.479165
Core_0_L2C_rfo_access 85012
Core_0_L2C_rfo_hit 37018
Core_0_L2C_rfo_miss 47994
Core_0_L2C_rfo_MPKI 0.95988
Core_0_L2C_rfo_miss_rate 0.564556
Core_0_L2C_prefetch_access 26931
Core_0_L2C_prefetch_hit 14603
Core_0_L2C_prefetch_miss 12328
Core_0_L2C_prefetch_MPKI 0.24656
Core_0_L2C_prefetch_miss_rate 0.457762
Core_0_L2C_writeback_access 252730
Core_0_L2C_writeback_hit 250989
Core_0_L2C_writeback_miss 1741
Core_0_L2C_writeback_MPKI 0.03482
Core_0_L2C_writeback_miss_rate 0.00688877
Core_0_L2C_prefetch_requested 35663
Core_0_L2C_prefetch_issued 22867
Core_0_L2C_prefetch_useful 4152
Core_0_L2C_prefetch_useless 4164
Core_0_L2C_prefetch_late 227
Core_0_L2C_prefetch_accuracy 0.181572
Core_0_L2C_prefetch_coverage 0.00445561
Core_0_L2C_total_eviction 939499

Core_0_LLC_total_access 1084243
Core_0_LLC_total_hit 1017132
Core_0_LLC_total_miss 67111
Core_0_LLC_total_MPKI 1.34222
Core_0_LLC_total_miss_rate 0.0618966
Core_0_LLC_demand_access 927085
Core_0_LLC_demand_hit 865302
Core_0_LLC_demand_miss 61783
Core_0_LLC_demand_MPKI 1.23566
Core_0_LLC_demand_miss_rate 0.0666422
Core_0_LLC_load_access 879093
Core_0_LLC_load_hit 827599
Core_0_LLC_load_miss 51494
Core_0_LLC_load_MPKI 1.02988
Core_0_LLC_load_miss_rate 0.0585763
Core_0_LLC_rfo_access 47992
Core_0_LLC_rfo_hit 37703
Core_0_LLC_rfo_miss 10289
Core_0_LLC_rfo_MPKI 0.20578
Core_0_LLC_rfo_miss_rate 0.21439
Core_0_LLC_prefetch_access 10611
Core_0_LLC_prefetch_hit 7620
Core_0_LLC_prefetch_miss 2991
Core_0_LLC_prefetch_MPKI 0.05982
Core_0_LLC_prefetch_miss_rate 0.281877
Core_0_LLC_writeback_access 146547
Core_0_LLC_writeback_hit 144210
Core_0_LLC_writeback_miss 2337
Core_0_LLC_writeback_MPKI 0.04674
Core_0_LLC_writeback_miss_rate 0.0159471
Core_0_LLC_prefetch_requested 0
Core_0_LLC_prefetch_issued 0
Core_0_LLC_prefetch_useful 0
Core_0_LLC_prefetch_useless 0
Core_0_LLC_prefetch_late 0
Core_0_LLC_prefetch_accuracy 0
Core_0_LLC_prefetch_coverage 0
Core_0_LLC_total_eviction 66308

[DRAM Statistics]
Channel_0_RQ_row_buffer_hit 2028
Channel_0_RQ_row_buffer_miss 62748
Channel_0_WQ_row_buffer_hit 10289
Channel_0_WQ_row_buffer_miss 41465
Channel_0_WQ_full 0
Channel_0_dbus_congested 350397
DRAM_total_RQ_row_buffer_hit 2028
DRAM_total_RQ_row_buffer_miss 62748
DRAM_total_WQ_row_buffer_hit 10289
DRAM_total_WQ_row_buffer_miss 41465
DRAM_total_WQ_full 0
DRAM_total_dbus_congested 350397
DRAM_avg_congested_cycle 16.0988

======STLB miss causes ========
Core_0_STLB_miss_cause_breakdown
Core_0_STLB_cause_Demand_Data_miss 0
Core_0_STLB_cause_Demand_Data_miss_rate 0
Core_0_STLB_cause_Demand_Instruction_miss 0
Core_0_STLB_cause_Demand_Instruction_miss_rate 0
Core_0_STLB_cause_L1D_Prefetch_miss 73
Core_0_STLB_cause_L1D_Prefetch_miss_rate 8.91446e-05
Core_0_STLB_cause_L1I_Prefetch_miss 0
Core_0_STLB_cause_L1I_Prefetch_miss_rate 0
Core_0_STLB_cause_Other_miss 0
Core_0_STLB_cause_Other_miss_rate 0
Core_0_STLB_Demand_miss 0
Core_0_STLB_Demand_miss_rate 0
Core_0_STLB_L1D_Prefetch_miss 73
Core_0_STLB_L1D_Prefetch_miss_rate 8.91446e-05
Core_0_STLB_Other_miss 0
Core_0_STLB_Other_miss_rate 0
BERTI TO_L1: 132025 TO_L2: 88403 TO_L2_BC_MSHR: 7491
BERTI AVG_LAT: 26.4434 NUM_TRACK_LATENCY: 877613 NUM_CANT_TRACK_LATENCY: 0
BERTI CROSS_PAGE 24567 NO_CROSS_PAGE: 195861
BERTI FOUND_BERTI: 487567 NO_FOUND_BERTI: 14975218
BERTI AVERAGE_ISSUED: 2.33577
