[VMEM] WARNING: physical memory size is smaller than virtual memory size.

*** ChampSim Multicore Out-of-Order Simulator ***
Warmup Instructions: 20000000
Simulation Instructions: 50000000
Number of CPUs: 1
Page size: 4096
STLB ideal mode: demand
STLB ideal fill: on
Core 0: /data0/tzh/champsim_traces/QMM/srv_60_new.xz
VBerti Prefetcher
BERTI HASH ENTANGLING
BERTI IP MASK ffff
Off-chip DRAM Size: 16 GiB Channels: 1 Width: 64-bit Data Rate: 3205 MT/s
[BTB] WARNING: target of return is a lower address than the corresponding call. This is usually a problem with your trace.
[BTB] WARNING: target of return is a lower address than the corresponding call. This is usually a problem with your trace.
[BTB] WARNING: target of return is a lower address than the corresponding call. This is usually a problem with your trace.
[BTB] WARNING: target of return is a lower address than the corresponding call. This is usually a problem with your trace.
[BTB] WARNING: target of return is a lower address than the corresponding call. This is usually a problem with your trace.
[BTB] WARNING: target of return is a lower address than the corresponding call. This is usually a problem with your trace.
[BTB] WARNING: target of return is a lower address than the corresponding call. This is usually a problem with your trace.
[BTB] WARNING: target of return is a lower address than the corresponding call. This is usually a problem with your trace.
[BTB] WARNING: target of return is a lower address than the corresponding call. This is usually a problem with your trace.
[BTB] WARNING: target of return is a lower address than the corresponding call. This is usually a problem with your trace.
Warmup halting CPU 0 at instruction 20000005 cycle 4088931 for remainder of phase
Warmup finished CPU 0 instructions: 20000005 cycles: 4088931 cumulative IPC: 4.891 (Simulation time: 00 hr 00 min 58 sec)
Warmup complete CPU 0 instructions: 20000005 cycles: 4088931 cumulative IPC: 4.891 (Simulation time: 00 hr 00 min 58 sec)
*** Reached end of trace: (0, "/data0/tzh/champsim_traces/QMM/srv_60_new.xz")
*** Reached end of trace: (0, "/data0/tzh/champsim_traces/QMM/srv_60_new.xz")
Simulation finished CPU 0 instructions: 50000001 cycles: 30235614 cumulative IPC: 1.654 (Simulation time: 00 hr 05 min 19 sec)
Simulation complete CPU 0 instructions: 50000001 cycles: 30235614 cumulative IPC: 1.654 (Simulation time: 00 hr 05 min 19 sec)

ChampSim completed all CPUs

=== Simulation ===
CPU 0 runs /data0/tzh/champsim_traces/QMM/srv_60_new.xz

Region of Interest Statistics

CPU 0 cumulative IPC: 1.654 instructions: 50000001 cycles: 30235614
CPU 0 Branch Prediction Accuracy: 97.09% MPKI: 5.228 Average ROB Occupancy at Mispredict: 85.48
Branch type MPKI
BRANCH_DIRECT_JUMP: 0.4383
BRANCH_INDIRECT: 0.5446
BRANCH_CONDITIONAL: 2.638
BRANCH_DIRECT_CALL: 0.7409
BRANCH_INDIRECT_CALL: 0.1975
BRANCH_RETURN: 0.6692

cpu0->cpu0_STLB TOTAL        ACCESS:     832769 HIT:     832725 MISS:         44 MSHR_MERGE:          0
cpu0->cpu0_STLB LOAD         ACCESS:     832769 HIT:     832725 MISS:         44 MSHR_MERGE:          0
cpu0->cpu0_STLB RFO          ACCESS:          0 HIT:          0 MISS:          0 MSHR_MERGE:          0
cpu0->cpu0_STLB PREFETCH     ACCESS:          0 HIT:          0 MISS:          0 MSHR_MERGE:          0
cpu0->cpu0_STLB WRITE        ACCESS:          0 HIT:          0 MISS:          0 MSHR_MERGE:          0
cpu0->cpu0_STLB TRANSLATION  ACCESS:          0 HIT:          0 MISS:          0 MSHR_MERGE:          0
cpu0->cpu0_STLB PREFETCH REQUESTED:          0 ISSUED:          0 USEFUL:          0 USELESS:          0 LATE:          0
cpu0->cpu0_STLB AVERAGE MISS LATENCY: 105.2 cycles
cpu0->cpu0_L2C TOTAL        ACCESS:    2260990 HIT:    1277516 MISS:     983474 MSHR_MERGE:       1972
cpu0->cpu0_L2C LOAD         ACCESS:    1887621 HIT:     967753 MISS:     919868 MSHR_MERGE:        445
cpu0->cpu0_L2C RFO          ACCESS:      85482 HIT:      36119 MISS:      49363 MSHR_MERGE:          4
cpu0->cpu0_L2C PREFETCH     ACCESS:      26693 HIT:      14446 MISS:      12247 MSHR_MERGE:       1523
cpu0->cpu0_L2C WRITE        ACCESS:     261152 HIT:     259198 MISS:       1954 MSHR_MERGE:          0
cpu0->cpu0_L2C TRANSLATION  ACCESS:         42 HIT:          0 MISS:         42 MSHR_MERGE:          0
cpu0->cpu0_L2C PREFETCH REQUESTED:      35487 ISSUED:      22908 USEFUL:       4397 USELESS:       4431 LATE:        221
cpu0->cpu0_L2C AVERAGE MISS LATENCY: 26.25 cycles
cpu0->cpu0_L1I TOTAL        ACCESS:    7563710 HIT:    5497966 MISS:    2065744 MSHR_MERGE:     757777
cpu0->cpu0_L1I LOAD         ACCESS:    7563710 HIT:    5497966 MISS:    2065744 MSHR_MERGE:     757777
cpu0->cpu0_L1I RFO          ACCESS:          0 HIT:          0 MISS:          0 MSHR_MERGE:          0
cpu0->cpu0_L1I PREFETCH     ACCESS:          0 HIT:          0 MISS:          0 MSHR_MERGE:          0
cpu0->cpu0_L1I WRITE        ACCESS:          0 HIT:          0 MISS:          0 MSHR_MERGE:          0
cpu0->cpu0_L1I TRANSLATION  ACCESS:          0 HIT:          0 MISS:          0 MSHR_MERGE:          0
cpu0->cpu0_L1I PREFETCH REQUESTED:          0 ISSUED:          0 USEFUL:          0 USELESS:          0 LATE:          0
cpu0->cpu0_L1I AVERAGE MISS LATENCY: 14.93 cycles
cpu0->cpu0_L1D TOTAL        ACCESS:   11733180 HIT:   10724490 MISS:    1008690 MSHR_MERGE:     339025
cpu0->cpu0_L1D LOAD         ACCESS:    6770226 HIT:    5996504 MISS:     773722 MSHR_MERGE:     194062
cpu0->cpu0_L1D RFO          ACCESS:          0 HIT:          0 MISS:          0 MSHR_MERGE:          0
cpu0->cpu0_L1D PREFETCH     ACCESS:      16118 HIT:      10707 MISS:       5411 MSHR_MERGE:        931
cpu0->cpu0_L1D WRITE        ACCESS:    4946744 HIT:    4717229 MISS:     229515 MSHR_MERGE:     144032
cpu0->cpu0_L1D TRANSLATION  ACCESS:         92 HIT:         50 MISS:         42 MSHR_MERGE:          0
cpu0->cpu0_L1D PREFETCH REQUESTED:      72703 ISSUED:      16118 USEFUL:       1306 USELESS:        517 LATE:        412
cpu0->cpu0_L1D AVERAGE MISS LATENCY: 32.87 cycles
cpu0->cpu0_ITLB TOTAL        ACCESS:    6404603 HIT:    5933389 MISS:     471214 MSHR_MERGE:     275996
cpu0->cpu0_ITLB LOAD         ACCESS:    6404603 HIT:    5933389 MISS:     471214 MSHR_MERGE:     275996
cpu0->cpu0_ITLB RFO          ACCESS:          0 HIT:          0 MISS:          0 MSHR_MERGE:          0
cpu0->cpu0_ITLB PREFETCH     ACCESS:          0 HIT:          0 MISS:          0 MSHR_MERGE:          0
cpu0->cpu0_ITLB WRITE        ACCESS:          0 HIT:          0 MISS:          0 MSHR_MERGE:          0
cpu0->cpu0_ITLB TRANSLATION  ACCESS:          0 HIT:          0 MISS:          0 MSHR_MERGE:          0
cpu0->cpu0_ITLB PREFETCH REQUESTED:          0 ISSUED:          0 USEFUL:          0 USELESS:          0 LATE:          0
cpu0->cpu0_ITLB AVERAGE MISS LATENCY: 5.024 cycles
cpu0->cpu0_DTLB TOTAL        ACCESS:   11065502 HIT:   10220155 MISS:     845347 MSHR_MERGE:     207795
cpu0->cpu0_DTLB LOAD         ACCESS:   11065502 HIT:   10220155 MISS:     845347 MSHR_MERGE:     207795
cpu0->cpu0_DTLB RFO          ACCESS:          0 HIT:          0 MISS:          0 MSHR_MERGE:          0
cpu0->cpu0_DTLB PREFETCH     ACCESS:          0 HIT:          0 MISS:          0 MSHR_MERGE:          0
cpu0->cpu0_DTLB WRITE        ACCESS:          0 HIT:          0 MISS:          0 MSHR_MERGE:          0
cpu0->cpu0_DTLB TRANSLATION  ACCESS:          0 HIT:          0 MISS:          0 MSHR_MERGE:          0
cpu0->cpu0_DTLB PREFETCH REQUESTED:          0 ISSUED:          0 USEFUL:          0 USELESS:          0 LATE:          0
cpu0->cpu0_DTLB AVERAGE MISS LATENCY: 5.013 cycles
cpu0->LLC TOTAL        ACCESS:    1135021 HIT:    1069978 MISS:      65043 MSHR_MERGE:          0
cpu0->LLC LOAD         ACCESS:     919423 HIT:     869210 MISS:      50213 MSHR_MERGE:          0
cpu0->LLC RFO          ACCESS:      49359 HIT:      39625 MISS:       9734 MSHR_MERGE:          0
cpu0->LLC PREFETCH     ACCESS:      10724 HIT:       7663 MISS:       3061 MSHR_MERGE:          0
cpu0->LLC WRITE        ACCESS:     155473 HIT:     153448 MISS:       2025 MSHR_MERGE:          0
cpu0->LLC TRANSLATION  ACCESS:         42 HIT:         32 MISS:         10 MSHR_MERGE:          0
cpu0->LLC PREFETCH REQUESTED:          0 ISSUED:          0 USEFUL:          0 USELESS:          0 LATE:          0
cpu0->LLC AVERAGE MISS LATENCY: 175.8 cycles

DRAM Statistics

Channel 0 RQ ROW_BUFFER_HIT:       1736
  ROW_BUFFER_MISS:      61280
  AVG DBUS CONGESTED CYCLE: 15.93
Channel 0 WQ ROW_BUFFER_HIT:       9636
  ROW_BUFFER_MISS:      41099
  FULL:          0
Channel 0 REFRESHES ISSUED:       2520

[ROI Statistics]
[System Configuration]
num_cpus 1
cpu_freq 4000
fetch_width 6
decode_width 6
dispatch_width 6
execute_width 6
lq_width 2
sq_width 2
retire_width 6
scheduler_size 128
branch_mispredict_penalty 15
rob_size 352
lq_size 128
sq_size 72
ifetch_buffer_size 64
decode_buffer_size 32
dispatch_buffer_size 32
register_file_size 288
decode_latency 1
dispatch_latency 1
schedule_latency 1
execute_latency 1
page_size 4096
block_size 64
core_0_itlb_set 16
core_0_itlb_way 4
core_0_itlb_rq_size 16
core_0_itlb_wq_size 16
core_0_itlb_pq_size 0
core_0_itlb_mshr_size 8
core_0_itlb_hit_latency 1
core_0_itlb_fill_latency 1
core_0_itlb_max_tag_check 2
core_0_itlb_max_fill 2
core_0_dtlb_set 16
core_0_dtlb_way 4
core_0_dtlb_rq_size 16
core_0_dtlb_wq_size 16
core_0_dtlb_pq_size 0
core_0_dtlb_mshr_size 8
core_0_dtlb_hit_latency 1
core_0_dtlb_fill_latency 1
core_0_dtlb_max_tag_check 2
core_0_dtlb_max_fill 2
core_0_stlb_set 128
core_0_stlb_way 12
core_0_stlb_rq_size 32
core_0_stlb_wq_size 32
core_0_stlb_pq_size 0
core_0_stlb_mshr_size 16
core_0_stlb_hit_latency 4
core_0_stlb_fill_latency 4
core_0_stlb_max_tag_check 1
core_0_stlb_max_fill 1
core_0_l1i_set 64
core_0_l1i_way 8
core_0_l1i_rq_size 64
core_0_l1i_wq_size 64
core_0_l1i_pq_size 32
core_0_l1i_mshr_size 8
core_0_l1i_hit_latency 2
core_0_l1i_fill_latency 2
core_0_l1i_max_tag_check 2
core_0_l1i_max_fill 2
core_0_l1d_set 64
core_0_l1d_way 12
core_0_l1d_rq_size 64
core_0_l1d_wq_size 64
core_0_l1d_pq_size 8
core_0_l1d_mshr_size 16
core_0_l1d_hit_latency 2
core_0_l1d_fill_latency 3
core_0_l1d_max_tag_check 2
core_0_l1d_max_fill 2
core_0_l2c_set 1024
core_0_l2c_way 8
core_0_l2c_rq_size 32
core_0_l2c_wq_size 32
core_0_l2c_pq_size 16
core_0_l2c_mshr_size 32
core_0_l2c_hit_latency 5
core_0_l2c_fill_latency 5
core_0_l2c_max_tag_check 1
core_0_l2c_max_fill 1
llc_set 2048
llc_way 16
llc_rq_size 32
llc_wq_size 32
llc_pq_size 32
llc_mshr_size 64
llc_hit_latency 10
llc_fill_latency 10
llc_max_tag_check 1
llc_max_fill 1
dram_channels 1
dram_ranks 1
dram_bankgroups 8
dram_banks 4
dram_rows 65536
dram_columns 1024
dram_channel_width 8
dram_rq_size 64
dram_wq_size 64
dram_size 17179869184
core_0_itlb_prefetcher no
core_0_dtlb_prefetcher no
core_0_stlb_prefetcher no
core_0_l1i_prefetcher next_line
core_0_l1d_prefetcher vberti
core_0_l2c_prefetcher ip_stride
llc_prefetcher no
llc_replacement drrip

Core_0_instructions 50000001
Core_0_cycles 30235614
Core_0_IPC 1.65368
Core_0_branch_prediction_accuracy 97.0928
Core_0_branch_MPKI 5.22836
Core_0_average_ROB_occupancy_at_mispredict 85.4849

Core_0_ITLB_total_access 6404603
Core_0_ITLB_total_hit 5933389
Core_0_ITLB_total_miss 471214
Core_0_ITLB_total_MPKI 9.42428
Core_0_ITLB_total_miss_rate 0.0735743
Core_0_ITLB_demand_access 6404603
Core_0_ITLB_demand_hit 5933389
Core_0_ITLB_demand_miss 471214
Core_0_ITLB_demand_MPKI 9.42428
Core_0_ITLB_demand_miss_rate 0.0735743
Core_0_ITLB_load_access 6404603
Core_0_ITLB_load_hit 5933389
Core_0_ITLB_load_miss 471214
Core_0_ITLB_load_MPKI 9.42428
Core_0_ITLB_load_miss_rate 0.0735743
Core_0_ITLB_rfo_access 0
Core_0_ITLB_rfo_hit 0
Core_0_ITLB_rfo_miss 0
Core_0_ITLB_rfo_MPKI 0
Core_0_ITLB_rfo_miss_rate 0
Core_0_ITLB_prefetch_access 0
Core_0_ITLB_prefetch_hit 0
Core_0_ITLB_prefetch_miss 0
Core_0_ITLB_prefetch_MPKI 0
Core_0_ITLB_prefetch_miss_rate 0
Core_0_ITLB_writeback_access 0
Core_0_ITLB_writeback_hit 0
Core_0_ITLB_writeback_miss 0
Core_0_ITLB_writeback_MPKI 0
Core_0_ITLB_writeback_miss_rate 0
Core_0_ITLB_prefetch_requested 0
Core_0_ITLB_prefetch_issued 0
Core_0_ITLB_prefetch_useful 0
Core_0_ITLB_prefetch_useless 0
Core_0_ITLB_prefetch_late 0
Core_0_ITLB_prefetch_accuracy 0
Core_0_ITLB_prefetch_coverage 0
Core_0_ITLB_total_eviction 195218

Core_0_DTLB_total_access 11065502
Core_0_DTLB_total_hit 10220155
Core_0_DTLB_total_miss 845347
Core_0_DTLB_total_MPKI 16.9069
Core_0_DTLB_total_miss_rate 0.0763948
Core_0_DTLB_demand_access 11065502
Core_0_DTLB_demand_hit 10220155
Core_0_DTLB_demand_miss 845347
Core_0_DTLB_demand_MPKI 16.9069
Core_0_DTLB_demand_miss_rate 0.0763948
Core_0_DTLB_load_access 11065502
Core_0_DTLB_load_hit 10220155
Core_0_DTLB_load_miss 845347
Core_0_DTLB_load_MPKI 16.9069
Core_0_DTLB_load_miss_rate 0.0763948
Core_0_DTLB_rfo_access 0
Core_0_DTLB_rfo_hit 0
Core_0_DTLB_rfo_miss 0
Core_0_DTLB_rfo_MPKI 0
Core_0_DTLB_rfo_miss_rate 0
Core_0_DTLB_prefetch_access 0
Core_0_DTLB_prefetch_hit 0
Core_0_DTLB_prefetch_miss 0
Core_0_DTLB_prefetch_MPKI 0
Core_0_DTLB_prefetch_miss_rate 0
Core_0_DTLB_writeback_access 0
Core_0_DTLB_writeback_hit 0
Core_0_DTLB_writeback_miss 0
Core_0_DTLB_writeback_MPKI 0
Core_0_DTLB_writeback_miss_rate 0
Core_0_DTLB_prefetch_requested 0
Core_0_DTLB_prefetch_issued 0
Core_0_DTLB_prefetch_useful 0
Core_0_DTLB_prefetch_useless 0
Core_0_DTLB_prefetch_late 0
Core_0_DTLB_prefetch_accuracy 0
Core_0_DTLB_prefetch_coverage 0
Core_0_DTLB_total_eviction 637551

Core_0_STLB_total_access 832769
Core_0_STLB_total_hit 832725
Core_0_STLB_total_miss 44
Core_0_STLB_total_MPKI 0.00088
Core_0_STLB_total_miss_rate 5.28358e-05
Core_0_STLB_demand_access 832769
Core_0_STLB_demand_hit 832725
Core_0_STLB_demand_miss 44
Core_0_STLB_demand_MPKI 0.00088
Core_0_STLB_demand_miss_rate 5.28358e-05
Core_0_STLB_load_access 832769
Core_0_STLB_load_hit 832725
Core_0_STLB_load_miss 44
Core_0_STLB_load_MPKI 0.00088
Core_0_STLB_load_miss_rate 5.28358e-05
Core_0_STLB_rfo_access 0
Core_0_STLB_rfo_hit 0
Core_0_STLB_rfo_miss 0
Core_0_STLB_rfo_MPKI 0
Core_0_STLB_rfo_miss_rate 0
Core_0_STLB_prefetch_access 0
Core_0_STLB_prefetch_hit 0
Core_0_STLB_prefetch_miss 0
Core_0_STLB_prefetch_MPKI 0
Core_0_STLB_prefetch_miss_rate 0
Core_0_STLB_writeback_access 0
Core_0_STLB_writeback_hit 0
Core_0_STLB_writeback_miss 0
Core_0_STLB_writeback_MPKI 0
Core_0_STLB_writeback_miss_rate 0
Core_0_STLB_prefetch_requested 0
Core_0_STLB_prefetch_issued 0
Core_0_STLB_prefetch_useful 0
Core_0_STLB_prefetch_useless 0
Core_0_STLB_prefetch_late 0
Core_0_STLB_prefetch_accuracy 0
Core_0_STLB_prefetch_coverage 0
Core_0_STLB_total_eviction 125237

Core_0_L1I_total_access 7563710
Core_0_L1I_total_hit 5497966
Core_0_L1I_total_miss 2065744
Core_0_L1I_total_MPKI 41.3149
Core_0_L1I_total_miss_rate 0.273113
Core_0_L1I_demand_access 7563710
Core_0_L1I_demand_hit 5497966
Core_0_L1I_demand_miss 2065744
Core_0_L1I_demand_MPKI 41.3149
Core_0_L1I_demand_miss_rate 0.273113
Core_0_L1I_load_access 7563710
Core_0_L1I_load_hit 5497966
Core_0_L1I_load_miss 2065744
Core_0_L1I_load_MPKI 41.3149
Core_0_L1I_load_miss_rate 0.273113
Core_0_L1I_rfo_access 0
Core_0_L1I_rfo_hit 0
Core_0_L1I_rfo_miss 0
Core_0_L1I_rfo_MPKI 0
Core_0_L1I_rfo_miss_rate 0
Core_0_L1I_prefetch_access 0
Core_0_L1I_prefetch_hit 0
Core_0_L1I_prefetch_miss 0
Core_0_L1I_prefetch_MPKI 0
Core_0_L1I_prefetch_miss_rate 0
Core_0_L1I_writeback_access 0
Core_0_L1I_writeback_hit 0
Core_0_L1I_writeback_miss 0
Core_0_L1I_writeback_MPKI 0
Core_0_L1I_writeback_miss_rate 0
Core_0_L1I_prefetch_requested 0
Core_0_L1I_prefetch_issued 0
Core_0_L1I_prefetch_useful 0
Core_0_L1I_prefetch_useless 0
Core_0_L1I_prefetch_late 0
Core_0_L1I_prefetch_accuracy 0
Core_0_L1I_prefetch_coverage 0
Core_0_L1I_total_eviction 1307967

Core_0_L1D_total_access 11733088
Core_0_L1D_total_hit 10724440
Core_0_L1D_total_miss 1008648
Core_0_L1D_total_MPKI 20.173
Core_0_L1D_total_miss_rate 0.0859661
Core_0_L1D_demand_access 6770226
Core_0_L1D_demand_hit 5996504
Core_0_L1D_demand_miss 773722
Core_0_L1D_demand_MPKI 15.4744
Core_0_L1D_demand_miss_rate 0.114283
Core_0_L1D_load_access 6770226
Core_0_L1D_load_hit 5996504
Core_0_L1D_load_miss 773722
Core_0_L1D_load_MPKI 15.4744
Core_0_L1D_load_miss_rate 0.114283
Core_0_L1D_rfo_access 0
Core_0_L1D_rfo_hit 0
Core_0_L1D_rfo_miss 0
Core_0_L1D_rfo_MPKI 0
Core_0_L1D_rfo_miss_rate 0
Core_0_L1D_prefetch_access 16118
Core_0_L1D_prefetch_hit 10707
Core_0_L1D_prefetch_miss 5411
Core_0_L1D_prefetch_MPKI 0.10822
Core_0_L1D_prefetch_miss_rate 0.335712
Core_0_L1D_writeback_access 4946744
Core_0_L1D_writeback_hit 4717229
Core_0_L1D_writeback_miss 229515
Core_0_L1D_writeback_MPKI 4.5903
Core_0_L1D_writeback_miss_rate 0.0463972
Core_0_L1D_prefetch_requested 72703
Core_0_L1D_prefetch_issued 16118
Core_0_L1D_prefetch_useful 1306
Core_0_L1D_prefetch_useless 517
Core_0_L1D_prefetch_late 412
Core_0_L1D_prefetch_accuracy 0.0810274
Core_0_L1D_prefetch_coverage 0.0016851
Core_0_L1D_total_eviction 667008

Core_0_L2C_total_access 2260948
Core_0_L2C_total_hit 1277516
Core_0_L2C_total_miss 983432
Core_0_L2C_total_MPKI 19.6686
Core_0_L2C_total_miss_rate 0.434964
Core_0_L2C_demand_access 1973103
Core_0_L2C_demand_hit 1003872
Core_0_L2C_demand_miss 969231
Core_0_L2C_demand_MPKI 19.3846
Core_0_L2C_demand_miss_rate 0.491222
Core_0_L2C_load_access 1887621
Core_0_L2C_load_hit 967753
Core_0_L2C_load_miss 919868
Core_0_L2C_load_MPKI 18.3974
Core_0_L2C_load_miss_rate 0.487316
Core_0_L2C_rfo_access 85482
Core_0_L2C_rfo_hit 36119
Core_0_L2C_rfo_miss 49363
Core_0_L2C_rfo_MPKI 0.98726
Core_0_L2C_rfo_miss_rate 0.577467
Core_0_L2C_prefetch_access 26693
Core_0_L2C_prefetch_hit 14446
Core_0_L2C_prefetch_miss 12247
Core_0_L2C_prefetch_MPKI 0.24494
Core_0_L2C_prefetch_miss_rate 0.458809
Core_0_L2C_writeback_access 261152
Core_0_L2C_writeback_hit 259198
Core_0_L2C_writeback_miss 1954
Core_0_L2C_writeback_MPKI 0.03908
Core_0_L2C_writeback_miss_rate 0.00748223
Core_0_L2C_prefetch_requested 35487
Core_0_L2C_prefetch_issued 22908
Core_0_L2C_prefetch_useful 4397
Core_0_L2C_prefetch_useless 4431
Core_0_L2C_prefetch_late 221
Core_0_L2C_prefetch_accuracy 0.191942
Core_0_L2C_prefetch_coverage 0.0045161
Core_0_L2C_total_eviction 981502

Core_0_LLC_total_access 1134979
Core_0_LLC_total_hit 1069946
Core_0_LLC_total_miss 65033
Core_0_LLC_total_MPKI 1.30066
Core_0_LLC_total_miss_rate 0.0572989
Core_0_LLC_demand_access 968782
Core_0_LLC_demand_hit 908835
Core_0_LLC_demand_miss 59947
Core_0_LLC_demand_MPKI 1.19894
Core_0_LLC_demand_miss_rate 0.0618787
Core_0_LLC_load_access 919423
Core_0_LLC_load_hit 869210
Core_0_LLC_load_miss 50213
Core_0_LLC_load_MPKI 1.00426
Core_0_LLC_load_miss_rate 0.0546136
Core_0_LLC_rfo_access 49359
Core_0_LLC_rfo_hit 39625
Core_0_LLC_rfo_miss 9734
Core_0_LLC_rfo_MPKI 0.19468
Core_0_LLC_rfo_miss_rate 0.197208
Core_0_LLC_prefetch_access 10724
Core_0_LLC_prefetch_hit 7663
Core_0_LLC_prefetch_miss 3061
Core_0_LLC_prefetch_MPKI 0.06122
Core_0_LLC_prefetch_miss_rate 0.285435
Core_0_LLC_writeback_access 155473
Core_0_LLC_writeback_hit 153448
Core_0_LLC_writeback_miss 2025
Core_0_LLC_writeback_MPKI 0.0405
Core_0_LLC_writeback_miss_rate 0.0130248
Core_0_LLC_prefetch_requested 0
Core_0_LLC_prefetch_issued 0
Core_0_LLC_prefetch_useful 0
Core_0_LLC_prefetch_useless 0
Core_0_LLC_prefetch_late 0
Core_0_LLC_prefetch_accuracy 0
Core_0_LLC_prefetch_coverage 0
Core_0_LLC_total_eviction 64456

[DRAM Statistics]
Channel_0_RQ_row_buffer_hit 1736
Channel_0_RQ_row_buffer_miss 61280
Channel_0_WQ_row_buffer_hit 9636
Channel_0_WQ_row_buffer_miss 41099
Channel_0_WQ_full 0
Channel_0_dbus_congested 340877
DRAM_total_RQ_row_buffer_hit 1736
DRAM_total_RQ_row_buffer_miss 61280
DRAM_total_WQ_row_buffer_hit 9636
DRAM_total_WQ_row_buffer_miss 41099
DRAM_total_WQ_full 0
DRAM_total_dbus_congested 340877
DRAM_avg_congested_cycle 15.9346

======STLB miss causes ========
Core_0_STLB_miss_cause_breakdown
Core_0_STLB_cause_Demand_Data_miss 0
Core_0_STLB_cause_Demand_Data_miss_rate 0
Core_0_STLB_cause_Demand_Instruction_miss 0
Core_0_STLB_cause_Demand_Instruction_miss_rate 0
Core_0_STLB_cause_L1D_Prefetch_miss 44
Core_0_STLB_cause_L1D_Prefetch_miss_rate 5.28358e-05
Core_0_STLB_cause_L1I_Prefetch_miss 0
Core_0_STLB_cause_L1I_Prefetch_miss_rate 0
Core_0_STLB_cause_Other_miss 0
Core_0_STLB_cause_Other_miss_rate 0
Core_0_STLB_Demand_miss 0
Core_0_STLB_Demand_miss_rate 0
Core_0_STLB_L1D_Prefetch_miss 44
Core_0_STLB_L1D_Prefetch_miss_rate 5.28358e-05
Core_0_STLB_Other_miss 0
Core_0_STLB_Other_miss_rate 0
BERTI TO_L1: 112493 TO_L2: 80551 TO_L2_BC_MSHR: 6101
BERTI AVG_LAT: 25.2374 NUM_TRACK_LATENCY: 937782 NUM_CANT_TRACK_LATENCY: 0
BERTI CROSS_PAGE 21525 NO_CROSS_PAGE: 171519
BERTI FOUND_BERTI: 528833 NO_FOUND_BERTI: 15043731
BERTI AVERAGE_ISSUED: 2.28478
