[VMEM] WARNING: physical memory size is smaller than virtual memory size.

*** ChampSim Multicore Out-of-Order Simulator ***
Warmup Instructions: 20000000
Simulation Instructions: 50000000
Number of CPUs: 1
Page size: 4096
STLB ideal mode: demand
STLB ideal fill: on
Core 0: /data0/tzh/champsim_traces/QMM/srv_67_new.xz
VBerti Prefetcher
BERTI HASH ENTANGLING
BERTI IP MASK ffff
Off-chip DRAM Size: 16 GiB Channels: 1 Width: 64-bit Data Rate: 3205 MT/s
[BTB] WARNING: target of return is a lower address than the corresponding call. This is usually a problem with your trace.
[BTB] WARNING: target of return is a lower address than the corresponding call. This is usually a problem with your trace.
[BTB] WARNING: target of return is a lower address than the corresponding call. This is usually a problem with your trace.
[BTB] WARNING: target of return is a lower address than the corresponding call. This is usually a problem with your trace.
[BTB] WARNING: target of return is a lower address than the corresponding call. This is usually a problem with your trace.
[BTB] WARNING: target of return is a lower address than the corresponding call. This is usually a problem with your trace.
[BTB] WARNING: target of return is a lower address than the corresponding call. This is usually a problem with your trace.
[BTB] WARNING: target of return is a lower address than the corresponding call. This is usually a problem with your trace.
[BTB] WARNING: target of return is a lower address than the corresponding call. This is usually a problem with your trace.
[BTB] WARNING: target of return is a lower address than the corresponding call. This is usually a problem with your trace.
Warmup halting CPU 0 at instruction 20000004 cycle 4102606 for remainder of phase
Warmup finished CPU 0 instructions: 20000004 cycles: 4102606 cumulative IPC: 4.875 (Simulation time: 00 hr 00 min 58 sec)
Warmup complete CPU 0 instructions: 20000004 cycles: 4102606 cumulative IPC: 4.875 (Simulation time: 00 hr 00 min 58 sec)
*** Reached end of trace: (0, "/data0/tzh/champsim_traces/QMM/srv_67_new.xz")
*** Reached end of trace: (0, "/data0/tzh/champsim_traces/QMM/srv_67_new.xz")
Simulation finished CPU 0 instructions: 50000001 cycles: 25673195 cumulative IPC: 1.948 (Simulation time: 00 hr 05 min 10 sec)
Simulation complete CPU 0 instructions: 50000001 cycles: 25673195 cumulative IPC: 1.948 (Simulation time: 00 hr 05 min 10 sec)

ChampSim completed all CPUs

=== Simulation ===
CPU 0 runs /data0/tzh/champsim_traces/QMM/srv_67_new.xz

Region of Interest Statistics

CPU 0 cumulative IPC: 1.948 instructions: 50000001 cycles: 25673195
CPU 0 Branch Prediction Accuracy: 98.62% MPKI: 2.47 Average ROB Occupancy at Mispredict: 138.1
Branch type MPKI
BRANCH_DIRECT_JUMP: 0.1459
BRANCH_INDIRECT: 0.2109
BRANCH_CONDITIONAL: 1.475
BRANCH_DIRECT_CALL: 0.2678
BRANCH_INDIRECT_CALL: 0.1081
BRANCH_RETURN: 0.2629

cpu0->cpu0_STLB TOTAL        ACCESS:     819181 HIT:     819181 MISS:          0 MSHR_MERGE:          0
cpu0->cpu0_STLB LOAD         ACCESS:     819181 HIT:     819181 MISS:          0 MSHR_MERGE:          0
cpu0->cpu0_STLB RFO          ACCESS:          0 HIT:          0 MISS:          0 MSHR_MERGE:          0
cpu0->cpu0_STLB PREFETCH     ACCESS:          0 HIT:          0 MISS:          0 MSHR_MERGE:          0
cpu0->cpu0_STLB WRITE        ACCESS:          0 HIT:          0 MISS:          0 MSHR_MERGE:          0
cpu0->cpu0_STLB TRANSLATION  ACCESS:          0 HIT:          0 MISS:          0 MSHR_MERGE:          0
cpu0->cpu0_STLB PREFETCH REQUESTED:          0 ISSUED:          0 USEFUL:          0 USELESS:          0 LATE:          0
cpu0->cpu0_STLB AVERAGE MISS LATENCY: - cycles
cpu0->cpu0_L2C TOTAL        ACCESS:    2132952 HIT:    1453640 MISS:     679312 MSHR_MERGE:        398
cpu0->cpu0_L2C LOAD         ACCESS:    1783769 HIT:    1158565 MISS:     625204 MSHR_MERGE:         40
cpu0->cpu0_L2C RFO          ACCESS:      79705 HIT:      38010 MISS:      41695 MSHR_MERGE:          1
cpu0->cpu0_L2C PREFETCH     ACCESS:      17371 HIT:       8759 MISS:       8612 MSHR_MERGE:        357
cpu0->cpu0_L2C WRITE        ACCESS:     252107 HIT:     248306 MISS:       3801 MSHR_MERGE:          0
cpu0->cpu0_L2C TRANSLATION  ACCESS:          0 HIT:          0 MISS:          0 MSHR_MERGE:          0
cpu0->cpu0_L2C PREFETCH REQUESTED:      17031 ISSUED:      17004 USEFUL:       5098 USELESS:       3108 LATE:         41
cpu0->cpu0_L2C AVERAGE MISS LATENCY: 34.46 cycles
cpu0->cpu0_L1I TOTAL        ACCESS:    7859298 HIT:    5818444 MISS:    2040854 MSHR_MERGE:     782162
cpu0->cpu0_L1I LOAD         ACCESS:    7859298 HIT:    5818444 MISS:    2040854 MSHR_MERGE:     782162
cpu0->cpu0_L1I RFO          ACCESS:          0 HIT:          0 MISS:          0 MSHR_MERGE:          0
cpu0->cpu0_L1I PREFETCH     ACCESS:          0 HIT:          0 MISS:          0 MSHR_MERGE:          0
cpu0->cpu0_L1I WRITE        ACCESS:          0 HIT:          0 MISS:          0 MSHR_MERGE:          0
cpu0->cpu0_L1I TRANSLATION  ACCESS:          0 HIT:          0 MISS:          0 MSHR_MERGE:          0
cpu0->cpu0_L1I PREFETCH REQUESTED:          0 ISSUED:          0 USEFUL:          0 USELESS:          0 LATE:          0
cpu0->cpu0_L1I AVERAGE MISS LATENCY: 13 cycles
cpu0->cpu0_L1D TOTAL        ACCESS:   11407682 HIT:   10472886 MISS:     934796 MSHR_MERGE:     329619
cpu0->cpu0_L1D LOAD         ACCESS:    6413652 HIT:    5703370 MISS:     710282 MSHR_MERGE:     185201
cpu0->cpu0_L1D RFO          ACCESS:          0 HIT:          0 MISS:          0 MSHR_MERGE:          0
cpu0->cpu0_L1D PREFETCH     ACCESS:       9486 HIT:       9115 MISS:        371 MSHR_MERGE:          0
cpu0->cpu0_L1D WRITE        ACCESS:    4984544 HIT:    4760401 MISS:     224143 MSHR_MERGE:     144418
cpu0->cpu0_L1D TRANSLATION  ACCESS:          0 HIT:          0 MISS:          0 MSHR_MERGE:          0
cpu0->cpu0_L1D PREFETCH REQUESTED:      10124 ISSUED:       9486 USEFUL:         31 USELESS:          0 LATE:          0
cpu0->cpu0_L1D AVERAGE MISS LATENCY: 35.61 cycles
cpu0->cpu0_ITLB TOTAL        ACCESS:    6690866 HIT:    6232525 MISS:     458341 MSHR_MERGE:     269148
cpu0->cpu0_ITLB LOAD         ACCESS:    6690866 HIT:    6232525 MISS:     458341 MSHR_MERGE:     269148
cpu0->cpu0_ITLB RFO          ACCESS:          0 HIT:          0 MISS:          0 MSHR_MERGE:          0
cpu0->cpu0_ITLB PREFETCH     ACCESS:          0 HIT:          0 MISS:          0 MSHR_MERGE:          0
cpu0->cpu0_ITLB WRITE        ACCESS:          0 HIT:          0 MISS:          0 MSHR_MERGE:          0
cpu0->cpu0_ITLB TRANSLATION  ACCESS:          0 HIT:          0 MISS:          0 MSHR_MERGE:          0
cpu0->cpu0_ITLB PREFETCH REQUESTED:          0 ISSUED:          0 USEFUL:          0 USELESS:          0 LATE:          0
cpu0->cpu0_ITLB AVERAGE MISS LATENCY: 5.031 cycles
cpu0->cpu0_DTLB TOTAL        ACCESS:   10725368 HIT:    9887933 MISS:     837435 MSHR_MERGE:     207447
cpu0->cpu0_DTLB LOAD         ACCESS:   10725368 HIT:    9887933 MISS:     837435 MSHR_MERGE:     207447
cpu0->cpu0_DTLB RFO          ACCESS:          0 HIT:          0 MISS:          0 MSHR_MERGE:          0
cpu0->cpu0_DTLB PREFETCH     ACCESS:          0 HIT:          0 MISS:          0 MSHR_MERGE:          0
cpu0->cpu0_DTLB WRITE        ACCESS:          0 HIT:          0 MISS:          0 MSHR_MERGE:          0
cpu0->cpu0_DTLB TRANSLATION  ACCESS:          0 HIT:          0 MISS:          0 MSHR_MERGE:          0
cpu0->cpu0_DTLB PREFETCH REQUESTED:          0 ISSUED:          0 USEFUL:          0 USELESS:          0 LATE:          0
cpu0->cpu0_DTLB AVERAGE MISS LATENCY: 5.007 cycles
cpu0->LLC TOTAL        ACCESS:     808678 HIT:     731636 MISS:      77042 MSHR_MERGE:          0
cpu0->LLC LOAD         ACCESS:     625162 HIT:     567056 MISS:      58106 MSHR_MERGE:          0
cpu0->LLC RFO          ACCESS:      41693 HIT:      30234 MISS:      11459 MSHR_MERGE:          0
cpu0->LLC PREFETCH     ACCESS:       8255 HIT:       3309 MISS:       4946 MSHR_MERGE:          0
cpu0->LLC WRITE        ACCESS:     133568 HIT:     131037 MISS:       2531 MSHR_MERGE:          0
cpu0->LLC TRANSLATION  ACCESS:          0 HIT:          0 MISS:          0 MSHR_MERGE:          0
cpu0->LLC PREFETCH REQUESTED:          0 ISSUED:          0 USEFUL:          0 USELESS:          0 LATE:          0
cpu0->LLC AVERAGE MISS LATENCY: 180.8 cycles

DRAM Statistics

Channel 0 RQ ROW_BUFFER_HIT:       3041
  ROW_BUFFER_MISS:      71465
  AVG DBUS CONGESTED CYCLE: 15.99
Channel 0 WQ ROW_BUFFER_HIT:      11208
  ROW_BUFFER_MISS:      40463
  FULL:          0
Channel 0 REFRESHES ISSUED:       2140

[ROI Statistics]
[System Configuration]
num_cpus 1
cpu_freq 4000
fetch_width 6
decode_width 6
dispatch_width 6
execute_width 6
lq_width 2
sq_width 2
retire_width 6
scheduler_size 128
branch_mispredict_penalty 15
rob_size 352
lq_size 128
sq_size 72
ifetch_buffer_size 64
decode_buffer_size 32
dispatch_buffer_size 32
register_file_size 288
decode_latency 1
dispatch_latency 1
schedule_latency 1
execute_latency 1
page_size 4096
block_size 64
core_0_itlb_set 16
core_0_itlb_way 4
core_0_itlb_rq_size 16
core_0_itlb_wq_size 16
core_0_itlb_pq_size 0
core_0_itlb_mshr_size 8
core_0_itlb_hit_latency 1
core_0_itlb_fill_latency 1
core_0_itlb_max_tag_check 2
core_0_itlb_max_fill 2
core_0_dtlb_set 16
core_0_dtlb_way 4
core_0_dtlb_rq_size 16
core_0_dtlb_wq_size 16
core_0_dtlb_pq_size 0
core_0_dtlb_mshr_size 8
core_0_dtlb_hit_latency 1
core_0_dtlb_fill_latency 1
core_0_dtlb_max_tag_check 2
core_0_dtlb_max_fill 2
core_0_stlb_set 128
core_0_stlb_way 12
core_0_stlb_rq_size 32
core_0_stlb_wq_size 32
core_0_stlb_pq_size 0
core_0_stlb_mshr_size 16
core_0_stlb_hit_latency 4
core_0_stlb_fill_latency 4
core_0_stlb_max_tag_check 1
core_0_stlb_max_fill 1
core_0_l1i_set 64
core_0_l1i_way 8
core_0_l1i_rq_size 64
core_0_l1i_wq_size 64
core_0_l1i_pq_size 32
core_0_l1i_mshr_size 8
core_0_l1i_hit_latency 2
core_0_l1i_fill_latency 2
core_0_l1i_max_tag_check 2
core_0_l1i_max_fill 2
core_0_l1d_set 64
core_0_l1d_way 12
core_0_l1d_rq_size 64
core_0_l1d_wq_size 64
core_0_l1d_pq_size 8
core_0_l1d_mshr_size 16
core_0_l1d_hit_latency 2
core_0_l1d_fill_latency 3
core_0_l1d_max_tag_check 2
core_0_l1d_max_fill 2
core_0_l2c_set 1024
core_0_l2c_way 8
core_0_l2c_rq_size 32
core_0_l2c_wq_size 32
core_0_l2c_pq_size 16
core_0_l2c_mshr_size 32
core_0_l2c_hit_latency 5
core_0_l2c_fill_latency 5
core_0_l2c_max_tag_check 1
core_0_l2c_max_fill 1
llc_set 2048
llc_way 16
llc_rq_size 32
llc_wq_size 32
llc_pq_size 32
llc_mshr_size 64
llc_hit_latency 10
llc_fill_latency 10
llc_max_tag_check 1
llc_max_fill 1
dram_channels 1
dram_ranks 1
dram_bankgroups 8
dram_banks 4
dram_rows 65536
dram_columns 1024
dram_channel_width 8
dram_rq_size 64
dram_wq_size 64
dram_size 17179869184
core_0_itlb_prefetcher no
core_0_dtlb_prefetcher no
core_0_stlb_prefetcher no
core_0_l1i_prefetcher next_line
core_0_l1d_prefetcher vberti
core_0_l2c_prefetcher ip_stride
llc_prefetcher no
llc_replacement drrip

Core_0_instructions 50000001
Core_0_cycles 25673195
Core_0_IPC 1.94756
Core_0_branch_prediction_accuracy 98.6198
Core_0_branch_MPKI 2.47046
Core_0_average_ROB_occupancy_at_mispredict 138.133

Core_0_ITLB_total_access 6690866
Core_0_ITLB_total_hit 6232525
Core_0_ITLB_total_miss 458341
Core_0_ITLB_total_MPKI 9.16682
Core_0_ITLB_total_miss_rate 0.0685025
Core_0_ITLB_demand_access 6690866
Core_0_ITLB_demand_hit 6232525
Core_0_ITLB_demand_miss 458341
Core_0_ITLB_demand_MPKI 9.16682
Core_0_ITLB_demand_miss_rate 0.0685025
Core_0_ITLB_load_access 6690866
Core_0_ITLB_load_hit 6232525
Core_0_ITLB_load_miss 458341
Core_0_ITLB_load_MPKI 9.16682
Core_0_ITLB_load_miss_rate 0.0685025
Core_0_ITLB_rfo_access 0
Core_0_ITLB_rfo_hit 0
Core_0_ITLB_rfo_miss 0
Core_0_ITLB_rfo_MPKI 0
Core_0_ITLB_rfo_miss_rate 0
Core_0_ITLB_prefetch_access 0
Core_0_ITLB_prefetch_hit 0
Core_0_ITLB_prefetch_miss 0
Core_0_ITLB_prefetch_MPKI 0
Core_0_ITLB_prefetch_miss_rate 0
Core_0_ITLB_writeback_access 0
Core_0_ITLB_writeback_hit 0
Core_0_ITLB_writeback_miss 0
Core_0_ITLB_writeback_MPKI 0
Core_0_ITLB_writeback_miss_rate 0
Core_0_ITLB_prefetch_requested 0
Core_0_ITLB_prefetch_issued 0
Core_0_ITLB_prefetch_useful 0
Core_0_ITLB_prefetch_useless 0
Core_0_ITLB_prefetch_late 0
Core_0_ITLB_prefetch_accuracy 0
Core_0_ITLB_prefetch_coverage 0
Core_0_ITLB_total_eviction 189193

Core_0_DTLB_total_access 10725368
Core_0_DTLB_total_hit 9887933
Core_0_DTLB_total_miss 837435
Core_0_DTLB_total_MPKI 16.7487
Core_0_DTLB_total_miss_rate 0.0780798
Core_0_DTLB_demand_access 10725368
Core_0_DTLB_demand_hit 9887933
Core_0_DTLB_demand_miss 837435
Core_0_DTLB_demand_MPKI 16.7487
Core_0_DTLB_demand_miss_rate 0.0780798
Core_0_DTLB_load_access 10725368
Core_0_DTLB_load_hit 9887933
Core_0_DTLB_load_miss 837435
Core_0_DTLB_load_MPKI 16.7487
Core_0_DTLB_load_miss_rate 0.0780798
Core_0_DTLB_rfo_access 0
Core_0_DTLB_rfo_hit 0
Core_0_DTLB_rfo_miss 0
Core_0_DTLB_rfo_MPKI 0
Core_0_DTLB_rfo_miss_rate 0
Core_0_DTLB_prefetch_access 0
Core_0_DTLB_prefetch_hit 0
Core_0_DTLB_prefetch_miss 0
Core_0_DTLB_prefetch_MPKI 0
Core_0_DTLB_prefetch_miss_rate 0
Core_0_DTLB_writeback_access 0
Core_0_DTLB_writeback_hit 0
Core_0_DTLB_writeback_miss 0
Core_0_DTLB_writeback_MPKI 0
Core_0_DTLB_writeback_miss_rate 0
Core_0_DTLB_prefetch_requested 0
Core_0_DTLB_prefetch_issued 0
Core_0_DTLB_prefetch_useful 0
Core_0_DTLB_prefetch_useless 0
Core_0_DTLB_prefetch_late 0
Core_0_DTLB_prefetch_accuracy 0
Core_0_DTLB_prefetch_coverage 0
Core_0_DTLB_total_eviction 629988

Core_0_STLB_total_access 819181
Core_0_STLB_total_hit 819181
Core_0_STLB_total_miss 0
Core_0_STLB_total_MPKI 0
Core_0_STLB_total_miss_rate 0
Core_0_STLB_demand_access 819181
Core_0_STLB_demand_hit 819181
Core_0_STLB_demand_miss 0
Core_0_STLB_demand_MPKI 0
Core_0_STLB_demand_miss_rate 0
Core_0_STLB_load_access 819181
Core_0_STLB_load_hit 819181
Core_0_STLB_load_miss 0
Core_0_STLB_load_MPKI 0
Core_0_STLB_load_miss_rate 0
Core_0_STLB_rfo_access 0
Core_0_STLB_rfo_hit 0
Core_0_STLB_rfo_miss 0
Core_0_STLB_rfo_MPKI 0
Core_0_STLB_rfo_miss_rate 0
Core_0_STLB_prefetch_access 0
Core_0_STLB_prefetch_hit 0
Core_0_STLB_prefetch_miss 0
Core_0_STLB_prefetch_MPKI 0
Core_0_STLB_prefetch_miss_rate 0
Core_0_STLB_writeback_access 0
Core_0_STLB_writeback_hit 0
Core_0_STLB_writeback_miss 0
Core_0_STLB_writeback_MPKI 0
Core_0_STLB_writeback_miss_rate 0
Core_0_STLB_prefetch_requested 0
Core_0_STLB_prefetch_issued 0
Core_0_STLB_prefetch_useful 0
Core_0_STLB_prefetch_useless 0
Core_0_STLB_prefetch_late 0
Core_0_STLB_prefetch_accuracy 0
Core_0_STLB_prefetch_coverage 0
Core_0_STLB_total_eviction 81788

Core_0_L1I_total_access 7859298
Core_0_L1I_total_hit 5818444
Core_0_L1I_total_miss 2040854
Core_0_L1I_total_MPKI 40.8171
Core_0_L1I_total_miss_rate 0.259674
Core_0_L1I_demand_access 7859298
Core_0_L1I_demand_hit 5818444
Core_0_L1I_demand_miss 2040854
Core_0_L1I_demand_MPKI 40.8171
Core_0_L1I_demand_miss_rate 0.259674
Core_0_L1I_load_access 7859298
Core_0_L1I_load_hit 5818444
Core_0_L1I_load_miss 2040854
Core_0_L1I_load_MPKI 40.8171
Core_0_L1I_load_miss_rate 0.259674
Core_0_L1I_rfo_access 0
Core_0_L1I_rfo_hit 0
Core_0_L1I_rfo_miss 0
Core_0_L1I_rfo_MPKI 0
Core_0_L1I_rfo_miss_rate 0
Core_0_L1I_prefetch_access 0
Core_0_L1I_prefetch_hit 0
Core_0_L1I_prefetch_miss 0
Core_0_L1I_prefetch_MPKI 0
Core_0_L1I_prefetch_miss_rate 0
Core_0_L1I_writeback_access 0
Core_0_L1I_writeback_hit 0
Core_0_L1I_writeback_miss 0
Core_0_L1I_writeback_MPKI 0
Core_0_L1I_writeback_miss_rate 0
Core_0_L1I_prefetch_requested 0
Core_0_L1I_prefetch_issued 0
Core_0_L1I_prefetch_useful 0
Core_0_L1I_prefetch_useless 0
Core_0_L1I_prefetch_late 0
Core_0_L1I_prefetch_accuracy 0
Core_0_L1I_prefetch_coverage 0
Core_0_L1I_total_eviction 1258692

Core_0_L1D_total_access 11407682
Core_0_L1D_total_hit 10472886
Core_0_L1D_total_miss 934796
Core_0_L1D_total_MPKI 18.6959
Core_0_L1D_total_miss_rate 0.0819444
Core_0_L1D_demand_access 6413652
Core_0_L1D_demand_hit 5703370
Core_0_L1D_demand_miss 710282
Core_0_L1D_demand_MPKI 14.2056
Core_0_L1D_demand_miss_rate 0.110745
Core_0_L1D_load_access 6413652
Core_0_L1D_load_hit 5703370
Core_0_L1D_load_miss 710282
Core_0_L1D_load_MPKI 14.2056
Core_0_L1D_load_miss_rate 0.110745
Core_0_L1D_rfo_access 0
Core_0_L1D_rfo_hit 0
Core_0_L1D_rfo_miss 0
Core_0_L1D_rfo_MPKI 0
Core_0_L1D_rfo_miss_rate 0
Core_0_L1D_prefetch_access 9486
Core_0_L1D_prefetch_hit 9115
Core_0_L1D_prefetch_miss 371
Core_0_L1D_prefetch_MPKI 0.00742
Core_0_L1D_prefetch_miss_rate 0.0391103
Core_0_L1D_writeback_access 4984544
Core_0_L1D_writeback_hit 4760401
Core_0_L1D_writeback_miss 224143
Core_0_L1D_writeback_MPKI 4.48286
Core_0_L1D_writeback_miss_rate 0.0449676
Core_0_L1D_prefetch_requested 10124
Core_0_L1D_prefetch_issued 9486
Core_0_L1D_prefetch_useful 31
Core_0_L1D_prefetch_useless 0
Core_0_L1D_prefetch_late 0
Core_0_L1D_prefetch_accuracy 0.00326797
Core_0_L1D_prefetch_coverage 4.36427e-05
Core_0_L1D_total_eviction 604836

Core_0_L2C_total_access 2132952
Core_0_L2C_total_hit 1453640
Core_0_L2C_total_miss 679312
Core_0_L2C_total_MPKI 13.5862
Core_0_L2C_total_miss_rate 0.318484
Core_0_L2C_demand_access 1863474
Core_0_L2C_demand_hit 1196575
Core_0_L2C_demand_miss 666899
Core_0_L2C_demand_MPKI 13.338
Core_0_L2C_demand_miss_rate 0.357879
Core_0_L2C_load_access 1783769
Core_0_L2C_load_hit 1158565
Core_0_L2C_load_miss 625204
Core_0_L2C_load_MPKI 12.5041
Core_0_L2C_load_miss_rate 0.350496
Core_0_L2C_rfo_access 79705
Core_0_L2C_rfo_hit 38010
Core_0_L2C_rfo_miss 41695
Core_0_L2C_rfo_MPKI 0.8339
Core_0_L2C_rfo_miss_rate 0.523116
Core_0_L2C_prefetch_access 17371
Core_0_L2C_prefetch_hit 8759
Core_0_L2C_prefetch_miss 8612
Core_0_L2C_prefetch_MPKI 0.17224
Core_0_L2C_prefetch_miss_rate 0.495769
Core_0_L2C_writeback_access 252107
Core_0_L2C_writeback_hit 248306
Core_0_L2C_writeback_miss 3801
Core_0_L2C_writeback_MPKI 0.07602
Core_0_L2C_writeback_miss_rate 0.0150769
Core_0_L2C_prefetch_requested 17031
Core_0_L2C_prefetch_issued 17004
Core_0_L2C_prefetch_useful 5098
Core_0_L2C_prefetch_useless 3108
Core_0_L2C_prefetch_late 41
Core_0_L2C_prefetch_accuracy 0.299812
Core_0_L2C_prefetch_coverage 0.00758634
Core_0_L2C_total_eviction 678914

Core_0_LLC_total_access 808678
Core_0_LLC_total_hit 731636
Core_0_LLC_total_miss 77042
Core_0_LLC_total_MPKI 1.54084
Core_0_LLC_total_miss_rate 0.0952691
Core_0_LLC_demand_access 666855
Core_0_LLC_demand_hit 597290
Core_0_LLC_demand_miss 69565
Core_0_LLC_demand_MPKI 1.3913
Core_0_LLC_demand_miss_rate 0.104318
Core_0_LLC_load_access 625162
Core_0_LLC_load_hit 567056
Core_0_LLC_load_miss 58106
Core_0_LLC_load_MPKI 1.16212
Core_0_LLC_load_miss_rate 0.0929455
Core_0_LLC_rfo_access 41693
Core_0_LLC_rfo_hit 30234
Core_0_LLC_rfo_miss 11459
Core_0_LLC_rfo_MPKI 0.22918
Core_0_LLC_rfo_miss_rate 0.274842
Core_0_LLC_prefetch_access 8255
Core_0_LLC_prefetch_hit 3309
Core_0_LLC_prefetch_miss 4946
Core_0_LLC_prefetch_MPKI 0.09892
Core_0_LLC_prefetch_miss_rate 0.599152
Core_0_LLC_writeback_access 133568
Core_0_LLC_writeback_hit 131037
Core_0_LLC_writeback_miss 2531
Core_0_LLC_writeback_MPKI 0.05062
Core_0_LLC_writeback_miss_rate 0.0189491
Core_0_LLC_prefetch_requested 0
Core_0_LLC_prefetch_issued 0
Core_0_LLC_prefetch_useful 0
Core_0_LLC_prefetch_useless 0
Core_0_LLC_prefetch_late 0
Core_0_LLC_prefetch_accuracy 0
Core_0_LLC_prefetch_coverage 0
Core_0_LLC_total_eviction 76578

[DRAM Statistics]
Channel_0_RQ_row_buffer_hit 3041
Channel_0_RQ_row_buffer_miss 71465
Channel_0_WQ_row_buffer_hit 11208
Channel_0_WQ_row_buffer_miss 40463
Channel_0_WQ_full 0
Channel_0_dbus_congested 398978
DRAM_total_RQ_row_buffer_hit 3041
DRAM_total_RQ_row_buffer_miss 71465
DRAM_total_WQ_row_buffer_hit 11208
DRAM_total_WQ_row_buffer_miss 40463
DRAM_total_WQ_full 0
DRAM_total_dbus_congested 398978
DRAM_avg_congested_cycle 15.991

======STLB miss causes ========
Core_0_STLB_miss_cause_breakdown
Core_0_STLB_cause_Demand_Data_miss 0
Core_0_STLB_cause_Demand_Data_miss_rate 0
Core_0_STLB_cause_Demand_Instruction_miss 0
Core_0_STLB_cause_Demand_Instruction_miss_rate 0
Core_0_STLB_cause_L1D_Prefetch_miss 0
Core_0_STLB_cause_L1D_Prefetch_miss_rate 0
Core_0_STLB_cause_L1I_Prefetch_miss 0
Core_0_STLB_cause_L1I_Prefetch_miss_rate 0
Core_0_STLB_cause_Other_miss 0
Core_0_STLB_cause_Other_miss_rate 0
Core_0_STLB_Demand_miss 0
Core_0_STLB_Demand_miss_rate 0
Core_0_STLB_L1D_Prefetch_miss 0
Core_0_STLB_L1D_Prefetch_miss_rate 0
Core_0_STLB_Other_miss 0
Core_0_STLB_Other_miss_rate 0
BERTI TO_L1: 36994 TO_L2: 34707 TO_L2_BC_MSHR: 3
BERTI AVG_LAT: 27.2731 NUM_TRACK_LATENCY: 844770 NUM_CANT_TRACK_LATENCY: 0
BERTI CROSS_PAGE 10128 NO_CROSS_PAGE: 61573
BERTI FOUND_BERTI: 452292 NO_FOUND_BERTI: 14834941
BERTI AVERAGE_ISSUED: 5.31131
