[VMEM] WARNING: physical memory size is smaller than virtual memory size.

*** ChampSim Multicore Out-of-Order Simulator ***
Warmup Instructions: 20000000
Simulation Instructions: 50000000
Number of CPUs: 1
Page size: 4096
STLB ideal mode: demand
STLB ideal fill: on
Core 0: /data2/zcq/champsim_traces_xsbench/xs.XXL100nuclide-165B.champsimtrace.xz
VBerti Prefetcher
BERTI HASH ENTANGLING
BERTI IP MASK ffff
Off-chip DRAM Size: 16 GiB Channels: 1 Width: 64-bit Data Rate: 3205 MT/s
Warmup halting CPU 0 at instruction 20000003 cycle 4228616 for remainder of phase
Warmup finished CPU 0 instructions: 20000003 cycles: 4228616 cumulative IPC: 4.73 (Simulation time: 00 hr 00 min 48 sec)
Warmup complete CPU 0 instructions: 20000003 cycles: 4228616 cumulative IPC: 4.73 (Simulation time: 00 hr 00 min 48 sec)
Simulation finished CPU 0 instructions: 50000004 cycles: 259656167 cumulative IPC: 0.1926 (Simulation time: 00 hr 15 min 57 sec)
Simulation complete CPU 0 instructions: 50000004 cycles: 259656167 cumulative IPC: 0.1926 (Simulation time: 00 hr 15 min 57 sec)

ChampSim completed all CPUs

=== Simulation ===
CPU 0 runs /data2/zcq/champsim_traces_xsbench/xs.XXL100nuclide-165B.champsimtrace.xz

Region of Interest Statistics

CPU 0 cumulative IPC: 0.1926 instructions: 50000004 cycles: 259656167
CPU 0 Branch Prediction Accuracy: 87.26% MPKI: 21.5 Average ROB Occupancy at Mispredict: 26.21
Branch type MPKI
BRANCH_DIRECT_JUMP: 0
BRANCH_INDIRECT: 0
BRANCH_CONDITIONAL: 21.5
BRANCH_DIRECT_CALL: 0
BRANCH_INDIRECT_CALL: 0
BRANCH_RETURN: 0

cpu0->cpu0_STLB TOTAL        ACCESS:    1992130 HIT:    1991178 MISS:        952 MSHR_MERGE:          0
cpu0->cpu0_STLB LOAD         ACCESS:    1992130 HIT:    1991178 MISS:        952 MSHR_MERGE:          0
cpu0->cpu0_STLB RFO          ACCESS:          0 HIT:          0 MISS:          0 MSHR_MERGE:          0
cpu0->cpu0_STLB PREFETCH     ACCESS:          0 HIT:          0 MISS:          0 MSHR_MERGE:          0
cpu0->cpu0_STLB WRITE        ACCESS:          0 HIT:          0 MISS:          0 MSHR_MERGE:          0
cpu0->cpu0_STLB TRANSLATION  ACCESS:          0 HIT:          0 MISS:          0 MSHR_MERGE:          0
cpu0->cpu0_STLB PREFETCH REQUESTED:          0 ISSUED:          0 USEFUL:          0 USELESS:          0 LATE:          0
cpu0->cpu0_STLB AVERAGE MISS LATENCY: 20.99 cycles
cpu0->cpu0_L2C TOTAL        ACCESS:    3531934 HIT:     676400 MISS:    2855534 MSHR_MERGE:       3513
cpu0->cpu0_L2C LOAD         ACCESS:    2968192 HIT:     212628 MISS:    2755564 MSHR_MERGE:          0
cpu0->cpu0_L2C RFO          ACCESS:       3322 HIT:       3249 MISS:         73 MSHR_MERGE:          0
cpu0->cpu0_L2C PREFETCH     ACCESS:     553820 HIT:     454167 MISS:      99653 MSHR_MERGE:       3513
cpu0->cpu0_L2C WRITE        ACCESS:       5878 HIT:       5848 MISS:         30 MSHR_MERGE:          0
cpu0->cpu0_L2C TRANSLATION  ACCESS:        722 HIT:        508 MISS:        214 MSHR_MERGE:          0
cpu0->cpu0_L2C PREFETCH REQUESTED:     131948 ISSUED:     131948 USEFUL:       2687 USELESS:      67546 LATE:          0
cpu0->cpu0_L2C AVERAGE MISS LATENCY: 180.1 cycles
cpu0->cpu0_L1I TOTAL        ACCESS:      10621 HIT:      10621 MISS:          0 MSHR_MERGE:          0
cpu0->cpu0_L1I LOAD         ACCESS:      10621 HIT:      10621 MISS:          0 MSHR_MERGE:          0
cpu0->cpu0_L1I RFO          ACCESS:          0 HIT:          0 MISS:          0 MSHR_MERGE:          0
cpu0->cpu0_L1I PREFETCH     ACCESS:          0 HIT:          0 MISS:          0 MSHR_MERGE:          0
cpu0->cpu0_L1I WRITE        ACCESS:          0 HIT:          0 MISS:          0 MSHR_MERGE:          0
cpu0->cpu0_L1I TRANSLATION  ACCESS:          0 HIT:          0 MISS:          0 MSHR_MERGE:          0
cpu0->cpu0_L1I PREFETCH REQUESTED:          0 ISSUED:          0 USEFUL:          0 USELESS:          0 LATE:          0
cpu0->cpu0_L1I AVERAGE MISS LATENCY: - cycles
cpu0->cpu0_L1D TOTAL        ACCESS:    6775532 HIT:    3319474 MISS:    3456058 MSHR_MERGE:      61946
cpu0->cpu0_L1D LOAD         ACCESS:    4776364 HIT:    1758906 MISS:    3017458 MSHR_MERGE:      49266
cpu0->cpu0_L1D RFO          ACCESS:          0 HIT:          0 MISS:          0 MSHR_MERGE:          0
cpu0->cpu0_L1D PREFETCH     ACCESS:    1090217 HIT:     668345 MISS:     421872 MSHR_MERGE:          0
cpu0->cpu0_L1D WRITE        ACCESS:     907083 HIT:     891108 MISS:      15975 MSHR_MERGE:      12649
cpu0->cpu0_L1D TRANSLATION  ACCESS:       1868 HIT:       1115 MISS:        753 MSHR_MERGE:         31
cpu0->cpu0_L1D PREFETCH REQUESTED:    1218698 ISSUED:    1090217 USEFUL:      21061 USELESS:      20508 LATE:        141
cpu0->cpu0_L1D AVERAGE MISS LATENCY: 176 cycles
cpu0->cpu0_ITLB TOTAL        ACCESS:       8588 HIT:       8588 MISS:          0 MSHR_MERGE:          0
cpu0->cpu0_ITLB LOAD         ACCESS:       8588 HIT:       8588 MISS:          0 MSHR_MERGE:          0
cpu0->cpu0_ITLB RFO          ACCESS:          0 HIT:          0 MISS:          0 MSHR_MERGE:          0
cpu0->cpu0_ITLB PREFETCH     ACCESS:          0 HIT:          0 MISS:          0 MSHR_MERGE:          0
cpu0->cpu0_ITLB WRITE        ACCESS:          0 HIT:          0 MISS:          0 MSHR_MERGE:          0
cpu0->cpu0_ITLB TRANSLATION  ACCESS:          0 HIT:          0 MISS:          0 MSHR_MERGE:          0
cpu0->cpu0_ITLB PREFETCH REQUESTED:          0 ISSUED:          0 USEFUL:          0 USELESS:          0 LATE:          0
cpu0->cpu0_ITLB AVERAGE MISS LATENCY: - cycles
cpu0->cpu0_DTLB TOTAL        ACCESS:    6455063 HIT:    4403715 MISS:    2051348 MSHR_MERGE:      59218
cpu0->cpu0_DTLB LOAD         ACCESS:    6455063 HIT:    4403715 MISS:    2051348 MSHR_MERGE:      59218
cpu0->cpu0_DTLB RFO          ACCESS:          0 HIT:          0 MISS:          0 MSHR_MERGE:          0
cpu0->cpu0_DTLB PREFETCH     ACCESS:          0 HIT:          0 MISS:          0 MSHR_MERGE:          0
cpu0->cpu0_DTLB WRITE        ACCESS:          0 HIT:          0 MISS:          0 MSHR_MERGE:          0
cpu0->cpu0_DTLB TRANSLATION  ACCESS:          0 HIT:          0 MISS:          0 MSHR_MERGE:          0
cpu0->cpu0_DTLB PREFETCH REQUESTED:          0 ISSUED:          0 USEFUL:          0 USELESS:          0 LATE:          0
cpu0->cpu0_DTLB AVERAGE MISS LATENCY: 5.015 cycles
cpu0->LLC TOTAL        ACCESS:    2853310 HIT:     589642 MISS:    2263668 MSHR_MERGE:          0
cpu0->LLC LOAD         ACCESS:    2755562 HIT:     561231 MISS:    2194331 MSHR_MERGE:          0
cpu0->LLC RFO          ACCESS:         73 HIT:         73 MISS:          0 MSHR_MERGE:          0
cpu0->LLC PREFETCH     ACCESS:      96140 HIT:      26803 MISS:      69337 MSHR_MERGE:          0
cpu0->LLC WRITE        ACCESS:       1321 HIT:       1321 MISS:          0 MSHR_MERGE:          0
cpu0->LLC TRANSLATION  ACCESS:        214 HIT:        214 MISS:          0 MSHR_MERGE:          0
cpu0->LLC PREFETCH REQUESTED:          0 ISSUED:          0 USEFUL:          0 USELESS:          0 LATE:          0
cpu0->LLC AVERAGE MISS LATENCY: 206.4 cycles

DRAM Statistics

Channel 0 RQ ROW_BUFFER_HIT:      14761
  ROW_BUFFER_MISS:    2248904
  AVG DBUS CONGESTED CYCLE: 2.98
Channel 0 WQ ROW_BUFFER_HIT:          2
  ROW_BUFFER_MISS:         26
  FULL:          0
Channel 0 REFRESHES ISSUED:      21638

[ROI Statistics]
[System Configuration]
num_cpus 1
cpu_freq 4000
fetch_width 6
decode_width 6
dispatch_width 6
execute_width 6
lq_width 2
sq_width 2
retire_width 6
scheduler_size 128
branch_mispredict_penalty 15
rob_size 352
lq_size 128
sq_size 72
ifetch_buffer_size 64
decode_buffer_size 32
dispatch_buffer_size 32
register_file_size 288
decode_latency 1
dispatch_latency 1
schedule_latency 1
execute_latency 1
page_size 4096
block_size 64
core_0_itlb_set 16
core_0_itlb_way 4
core_0_itlb_rq_size 16
core_0_itlb_wq_size 16
core_0_itlb_pq_size 0
core_0_itlb_mshr_size 8
core_0_itlb_hit_latency 1
core_0_itlb_fill_latency 1
core_0_itlb_max_tag_check 2
core_0_itlb_max_fill 2
core_0_dtlb_set 16
core_0_dtlb_way 4
core_0_dtlb_rq_size 16
core_0_dtlb_wq_size 16
core_0_dtlb_pq_size 0
core_0_dtlb_mshr_size 8
core_0_dtlb_hit_latency 1
core_0_dtlb_fill_latency 1
core_0_dtlb_max_tag_check 2
core_0_dtlb_max_fill 2
core_0_stlb_set 128
core_0_stlb_way 12
core_0_stlb_rq_size 32
core_0_stlb_wq_size 32
core_0_stlb_pq_size 0
core_0_stlb_mshr_size 16
core_0_stlb_hit_latency 4
core_0_stlb_fill_latency 4
core_0_stlb_max_tag_check 1
core_0_stlb_max_fill 1
core_0_l1i_set 64
core_0_l1i_way 8
core_0_l1i_rq_size 64
core_0_l1i_wq_size 64
core_0_l1i_pq_size 32
core_0_l1i_mshr_size 8
core_0_l1i_hit_latency 2
core_0_l1i_fill_latency 2
core_0_l1i_max_tag_check 2
core_0_l1i_max_fill 2
core_0_l1d_set 64
core_0_l1d_way 12
core_0_l1d_rq_size 64
core_0_l1d_wq_size 64
core_0_l1d_pq_size 8
core_0_l1d_mshr_size 16
core_0_l1d_hit_latency 2
core_0_l1d_fill_latency 3
core_0_l1d_max_tag_check 2
core_0_l1d_max_fill 2
core_0_l2c_set 1024
core_0_l2c_way 8
core_0_l2c_rq_size 32
core_0_l2c_wq_size 32
core_0_l2c_pq_size 16
core_0_l2c_mshr_size 32
core_0_l2c_hit_latency 5
core_0_l2c_fill_latency 5
core_0_l2c_max_tag_check 1
core_0_l2c_max_fill 1
llc_set 2048
llc_way 16
llc_rq_size 32
llc_wq_size 32
llc_pq_size 32
llc_mshr_size 64
llc_hit_latency 10
llc_fill_latency 10
llc_max_tag_check 1
llc_max_fill 1
dram_channels 1
dram_ranks 1
dram_bankgroups 8
dram_banks 4
dram_rows 65536
dram_columns 1024
dram_channel_width 8
dram_rq_size 64
dram_wq_size 64
dram_size 17179869184
core_0_itlb_prefetcher no
core_0_dtlb_prefetcher no
core_0_stlb_prefetcher no
core_0_l1i_prefetcher next_line
core_0_l1d_prefetcher vberti
core_0_l2c_prefetcher ip_stride
llc_prefetcher no
llc_replacement drrip

Core_0_instructions 50000004
Core_0_cycles 259656167
Core_0_IPC 0.192562
Core_0_branch_prediction_accuracy 87.2594
Core_0_branch_MPKI 21.4997
Core_0_average_ROB_occupancy_at_mispredict 26.2147

Core_0_ITLB_total_access 8588
Core_0_ITLB_total_hit 8588
Core_0_ITLB_total_miss 0
Core_0_ITLB_total_MPKI 0
Core_0_ITLB_total_miss_rate 0
Core_0_ITLB_demand_access 8588
Core_0_ITLB_demand_hit 8588
Core_0_ITLB_demand_miss 0
Core_0_ITLB_demand_MPKI 0
Core_0_ITLB_demand_miss_rate 0
Core_0_ITLB_load_access 8588
Core_0_ITLB_load_hit 8588
Core_0_ITLB_load_miss 0
Core_0_ITLB_load_MPKI 0
Core_0_ITLB_load_miss_rate 0
Core_0_ITLB_rfo_access 0
Core_0_ITLB_rfo_hit 0
Core_0_ITLB_rfo_miss 0
Core_0_ITLB_rfo_MPKI 0
Core_0_ITLB_rfo_miss_rate 0
Core_0_ITLB_prefetch_access 0
Core_0_ITLB_prefetch_hit 0
Core_0_ITLB_prefetch_miss 0
Core_0_ITLB_prefetch_MPKI 0
Core_0_ITLB_prefetch_miss_rate 0
Core_0_ITLB_writeback_access 0
Core_0_ITLB_writeback_hit 0
Core_0_ITLB_writeback_miss 0
Core_0_ITLB_writeback_MPKI 0
Core_0_ITLB_writeback_miss_rate 0
Core_0_ITLB_prefetch_requested 0
Core_0_ITLB_prefetch_issued 0
Core_0_ITLB_prefetch_useful 0
Core_0_ITLB_prefetch_useless 0
Core_0_ITLB_prefetch_late 0
Core_0_ITLB_prefetch_accuracy 0
Core_0_ITLB_prefetch_coverage 0
Core_0_ITLB_total_eviction 0

Core_0_DTLB_total_access 6455063
Core_0_DTLB_total_hit 4403715
Core_0_DTLB_total_miss 2051348
Core_0_DTLB_total_MPKI 41.027
Core_0_DTLB_total_miss_rate 0.317789
Core_0_DTLB_demand_access 6455063
Core_0_DTLB_demand_hit 4403715
Core_0_DTLB_demand_miss 2051348
Core_0_DTLB_demand_MPKI 41.027
Core_0_DTLB_demand_miss_rate 0.317789
Core_0_DTLB_load_access 6455063
Core_0_DTLB_load_hit 4403715
Core_0_DTLB_load_miss 2051348
Core_0_DTLB_load_MPKI 41.027
Core_0_DTLB_load_miss_rate 0.317789
Core_0_DTLB_rfo_access 0
Core_0_DTLB_rfo_hit 0
Core_0_DTLB_rfo_miss 0
Core_0_DTLB_rfo_MPKI 0
Core_0_DTLB_rfo_miss_rate 0
Core_0_DTLB_prefetch_access 0
Core_0_DTLB_prefetch_hit 0
Core_0_DTLB_prefetch_miss 0
Core_0_DTLB_prefetch_MPKI 0
Core_0_DTLB_prefetch_miss_rate 0
Core_0_DTLB_writeback_access 0
Core_0_DTLB_writeback_hit 0
Core_0_DTLB_writeback_miss 0
Core_0_DTLB_writeback_MPKI 0
Core_0_DTLB_writeback_miss_rate 0
Core_0_DTLB_prefetch_requested 0
Core_0_DTLB_prefetch_issued 0
Core_0_DTLB_prefetch_useful 0
Core_0_DTLB_prefetch_useless 0
Core_0_DTLB_prefetch_late 0
Core_0_DTLB_prefetch_accuracy 0
Core_0_DTLB_prefetch_coverage 0
Core_0_DTLB_total_eviction 1992130

Core_0_STLB_total_access 1992130
Core_0_STLB_total_hit 1991178
Core_0_STLB_total_miss 952
Core_0_STLB_total_MPKI 0.01904
Core_0_STLB_total_miss_rate 0.00047788
Core_0_STLB_demand_access 1992130
Core_0_STLB_demand_hit 1991178
Core_0_STLB_demand_miss 952
Core_0_STLB_demand_MPKI 0.01904
Core_0_STLB_demand_miss_rate 0.00047788
Core_0_STLB_load_access 1992130
Core_0_STLB_load_hit 1991178
Core_0_STLB_load_miss 952
Core_0_STLB_load_MPKI 0.01904
Core_0_STLB_load_miss_rate 0.00047788
Core_0_STLB_rfo_access 0
Core_0_STLB_rfo_hit 0
Core_0_STLB_rfo_miss 0
Core_0_STLB_rfo_MPKI 0
Core_0_STLB_rfo_miss_rate 0
Core_0_STLB_prefetch_access 0
Core_0_STLB_prefetch_hit 0
Core_0_STLB_prefetch_miss 0
Core_0_STLB_prefetch_MPKI 0
Core_0_STLB_prefetch_miss_rate 0
Core_0_STLB_writeback_access 0
Core_0_STLB_writeback_hit 0
Core_0_STLB_writeback_miss 0
Core_0_STLB_writeback_MPKI 0
Core_0_STLB_writeback_miss_rate 0
Core_0_STLB_prefetch_requested 0
Core_0_STLB_prefetch_issued 0
Core_0_STLB_prefetch_useful 0
Core_0_STLB_prefetch_useless 0
Core_0_STLB_prefetch_late 0
Core_0_STLB_prefetch_accuracy 0
Core_0_STLB_prefetch_coverage 0
Core_0_STLB_total_eviction 1925472

Core_0_L1I_total_access 10621
Core_0_L1I_total_hit 10621
Core_0_L1I_total_miss 0
Core_0_L1I_total_MPKI 0
Core_0_L1I_total_miss_rate 0
Core_0_L1I_demand_access 10621
Core_0_L1I_demand_hit 10621
Core_0_L1I_demand_miss 0
Core_0_L1I_demand_MPKI 0
Core_0_L1I_demand_miss_rate 0
Core_0_L1I_load_access 10621
Core_0_L1I_load_hit 10621
Core_0_L1I_load_miss 0
Core_0_L1I_load_MPKI 0
Core_0_L1I_load_miss_rate 0
Core_0_L1I_rfo_access 0
Core_0_L1I_rfo_hit 0
Core_0_L1I_rfo_miss 0
Core_0_L1I_rfo_MPKI 0
Core_0_L1I_rfo_miss_rate 0
Core_0_L1I_prefetch_access 0
Core_0_L1I_prefetch_hit 0
Core_0_L1I_prefetch_miss 0
Core_0_L1I_prefetch_MPKI 0
Core_0_L1I_prefetch_miss_rate 0
Core_0_L1I_writeback_access 0
Core_0_L1I_writeback_hit 0
Core_0_L1I_writeback_miss 0
Core_0_L1I_writeback_MPKI 0
Core_0_L1I_writeback_miss_rate 0
Core_0_L1I_prefetch_requested 0
Core_0_L1I_prefetch_issued 0
Core_0_L1I_prefetch_useful 0
Core_0_L1I_prefetch_useless 0
Core_0_L1I_prefetch_late 0
Core_0_L1I_prefetch_accuracy 0
Core_0_L1I_prefetch_coverage 0
Core_0_L1I_total_eviction 0

Core_0_L1D_total_access 6773664
Core_0_L1D_total_hit 3318359
Core_0_L1D_total_miss 3455305
Core_0_L1D_total_MPKI 69.1061
Core_0_L1D_total_miss_rate 0.510109
Core_0_L1D_demand_access 4776364
Core_0_L1D_demand_hit 1758906
Core_0_L1D_demand_miss 3017458
Core_0_L1D_demand_MPKI 60.3492
Core_0_L1D_demand_miss_rate 0.631748
Core_0_L1D_load_access 4776364
Core_0_L1D_load_hit 1758906
Core_0_L1D_load_miss 3017458
Core_0_L1D_load_MPKI 60.3492
Core_0_L1D_load_miss_rate 0.631748
Core_0_L1D_rfo_access 0
Core_0_L1D_rfo_hit 0
Core_0_L1D_rfo_miss 0
Core_0_L1D_rfo_MPKI 0
Core_0_L1D_rfo_miss_rate 0
Core_0_L1D_prefetch_access 1090217
Core_0_L1D_prefetch_hit 668345
Core_0_L1D_prefetch_miss 421872
Core_0_L1D_prefetch_MPKI 8.43744
Core_0_L1D_prefetch_miss_rate 0.386961
Core_0_L1D_writeback_access 907083
Core_0_L1D_writeback_hit 891108
Core_0_L1D_writeback_miss 15975
Core_0_L1D_writeback_MPKI 0.3195
Core_0_L1D_writeback_miss_rate 0.0176114
Core_0_L1D_prefetch_requested 1218698
Core_0_L1D_prefetch_issued 1090217
Core_0_L1D_prefetch_useful 21061
Core_0_L1D_prefetch_useless 20508
Core_0_L1D_prefetch_late 141
Core_0_L1D_prefetch_accuracy 0.0193182
Core_0_L1D_prefetch_coverage 0.00693134
Core_0_L1D_total_eviction 3013807

Core_0_L2C_total_access 3531212
Core_0_L2C_total_hit 675892
Core_0_L2C_total_miss 2855320
Core_0_L2C_total_MPKI 57.1064
Core_0_L2C_total_miss_rate 0.808595
Core_0_L2C_demand_access 2971514
Core_0_L2C_demand_hit 215877
Core_0_L2C_demand_miss 2755637
Core_0_L2C_demand_MPKI 55.1127
Core_0_L2C_demand_miss_rate 0.927351
Core_0_L2C_load_access 2968192
Core_0_L2C_load_hit 212628
Core_0_L2C_load_miss 2755564
Core_0_L2C_load_MPKI 55.1113
Core_0_L2C_load_miss_rate 0.928364
Core_0_L2C_rfo_access 3322
Core_0_L2C_rfo_hit 3249
Core_0_L2C_rfo_miss 73
Core_0_L2C_rfo_MPKI 0.00146
Core_0_L2C_rfo_miss_rate 0.0219747
Core_0_L2C_prefetch_access 553820
Core_0_L2C_prefetch_hit 454167
Core_0_L2C_prefetch_miss 99653
Core_0_L2C_prefetch_MPKI 1.99306
Core_0_L2C_prefetch_miss_rate 0.179938
Core_0_L2C_writeback_access 5878
Core_0_L2C_writeback_hit 5848
Core_0_L2C_writeback_miss 30
Core_0_L2C_writeback_MPKI 0.0006
Core_0_L2C_writeback_miss_rate 0.00510378
Core_0_L2C_prefetch_requested 131948
Core_0_L2C_prefetch_issued 131948
Core_0_L2C_prefetch_useful 2687
Core_0_L2C_prefetch_useless 67546
Core_0_L2C_prefetch_late 0
Core_0_L2C_prefetch_accuracy 0.0203641
Core_0_L2C_prefetch_coverage 0.000974142
Core_0_L2C_total_eviction 2852008

Core_0_LLC_total_access 2853096
Core_0_LLC_total_hit 589428
Core_0_LLC_total_miss 2263668
Core_0_LLC_total_MPKI 45.2734
Core_0_LLC_total_miss_rate 0.793408
Core_0_LLC_demand_access 2755635
Core_0_LLC_demand_hit 561304
Core_0_LLC_demand_miss 2194331
Core_0_LLC_demand_MPKI 43.8866
Core_0_LLC_demand_miss_rate 0.796307
Core_0_LLC_load_access 2755562
Core_0_LLC_load_hit 561231
Core_0_LLC_load_miss 2194331
Core_0_LLC_load_MPKI 43.8866
Core_0_LLC_load_miss_rate 0.796328
Core_0_LLC_rfo_access 73
Core_0_LLC_rfo_hit 73
Core_0_LLC_rfo_miss 0
Core_0_LLC_rfo_MPKI 0
Core_0_LLC_rfo_miss_rate 0
Core_0_LLC_prefetch_access 96140
Core_0_LLC_prefetch_hit 26803
Core_0_LLC_prefetch_miss 69337
Core_0_LLC_prefetch_MPKI 1.38674
Core_0_LLC_prefetch_miss_rate 0.721209
Core_0_LLC_writeback_access 1321
Core_0_LLC_writeback_hit 1321
Core_0_LLC_writeback_miss 0
Core_0_LLC_writeback_MPKI 0
Core_0_LLC_writeback_miss_rate 0
Core_0_LLC_prefetch_requested 0
Core_0_LLC_prefetch_issued 0
Core_0_LLC_prefetch_useful 0
Core_0_LLC_prefetch_useless 0
Core_0_LLC_prefetch_late 0
Core_0_LLC_prefetch_accuracy 0
Core_0_LLC_prefetch_coverage 0
Core_0_LLC_total_eviction 2263665

[DRAM Statistics]
Channel_0_RQ_row_buffer_hit 14761
Channel_0_RQ_row_buffer_miss 2248904
Channel_0_WQ_row_buffer_hit 2
Channel_0_WQ_row_buffer_miss 26
Channel_0_WQ_full 0
Channel_0_dbus_congested 2999554
DRAM_total_RQ_row_buffer_hit 14761
DRAM_total_RQ_row_buffer_miss 2248904
DRAM_total_WQ_row_buffer_hit 2
DRAM_total_WQ_row_buffer_miss 26
DRAM_total_WQ_full 0
DRAM_total_dbus_congested 2999554
DRAM_avg_congested_cycle 2.98024

======STLB miss causes ========
Core_0_STLB_miss_cause_breakdown
Core_0_STLB_cause_Demand_Data_miss 0
Core_0_STLB_cause_Demand_Data_miss_rate 0
Core_0_STLB_cause_Demand_Instruction_miss 0
Core_0_STLB_cause_Demand_Instruction_miss_rate 0
Core_0_STLB_cause_L1D_Prefetch_miss 952
Core_0_STLB_cause_L1D_Prefetch_miss_rate 0.00047788
Core_0_STLB_cause_L1I_Prefetch_miss 0
Core_0_STLB_cause_L1I_Prefetch_miss_rate 0
Core_0_STLB_cause_Other_miss 0
Core_0_STLB_cause_Other_miss_rate 0
Core_0_STLB_Demand_miss 0
Core_0_STLB_Demand_miss_rate 0
Core_0_STLB_L1D_Prefetch_miss 952
Core_0_STLB_L1D_Prefetch_miss_rate 0.00047788
Core_0_STLB_Other_miss 0
Core_0_STLB_Other_miss_rate 0
BERTI TO_L1: 1182353 TO_L2: 884430 TO_L2_BC_MSHR: 0
BERTI AVG_LAT: 125.896 NUM_TRACK_LATENCY: 4209522 NUM_CANT_TRACK_LATENCY: 0
BERTI CROSS_PAGE 217482 NO_CROSS_PAGE: 1849301
BERTI FOUND_BERTI: 5481146 NO_FOUND_BERTI: 2457729
BERTI AVERAGE_ISSUED: 3.53602
