[VMEM] WARNING: physical memory size is smaller than virtual memory size.

*** ChampSim Multicore Out-of-Order Simulator ***
Warmup Instructions: 20000000
Simulation Instructions: 50000000
Number of CPUs: 1
Page size: 4096
STLB ideal mode: demand
STLB ideal fill: on
Core 0: /data2/zcq/champsim_traces_xsbench/xs.XXL100nuclide-648B.champsimtrace.xz
VBerti Prefetcher
BERTI HASH ENTANGLING
BERTI IP MASK ffff
Off-chip DRAM Size: 16 GiB Channels: 1 Width: 64-bit Data Rate: 3205 MT/s
Warmup halting CPU 0 at instruction 20000003 cycle 4225854 for remainder of phase
Warmup finished CPU 0 instructions: 20000003 cycles: 4225854 cumulative IPC: 4.733 (Simulation time: 00 hr 00 min 51 sec)
Warmup complete CPU 0 instructions: 20000003 cycles: 4225854 cumulative IPC: 4.733 (Simulation time: 00 hr 00 min 51 sec)
Simulation finished CPU 0 instructions: 50000000 cycles: 259715799 cumulative IPC: 0.1925 (Simulation time: 00 hr 15 min 23 sec)
Simulation complete CPU 0 instructions: 50000000 cycles: 259715799 cumulative IPC: 0.1925 (Simulation time: 00 hr 15 min 23 sec)

ChampSim completed all CPUs

=== Simulation ===
CPU 0 runs /data2/zcq/champsim_traces_xsbench/xs.XXL100nuclide-648B.champsimtrace.xz

Region of Interest Statistics

CPU 0 cumulative IPC: 0.1925 instructions: 50000000 cycles: 259715799
CPU 0 Branch Prediction Accuracy: 87.26% MPKI: 21.54 Average ROB Occupancy at Mispredict: 26.23
Branch type MPKI
BRANCH_DIRECT_JUMP: 0
BRANCH_INDIRECT: 0
BRANCH_CONDITIONAL: 21.54
BRANCH_DIRECT_CALL: 0
BRANCH_INDIRECT_CALL: 0
BRANCH_RETURN: 0

cpu0->cpu0_STLB TOTAL        ACCESS:    1994358 HIT:    1993413 MISS:        945 MSHR_MERGE:          0
cpu0->cpu0_STLB LOAD         ACCESS:    1994358 HIT:    1993413 MISS:        945 MSHR_MERGE:          0
cpu0->cpu0_STLB RFO          ACCESS:          0 HIT:          0 MISS:          0 MSHR_MERGE:          0
cpu0->cpu0_STLB PREFETCH     ACCESS:          0 HIT:          0 MISS:          0 MSHR_MERGE:          0
cpu0->cpu0_STLB WRITE        ACCESS:          0 HIT:          0 MISS:          0 MSHR_MERGE:          0
cpu0->cpu0_STLB TRANSLATION  ACCESS:          0 HIT:          0 MISS:          0 MSHR_MERGE:          0
cpu0->cpu0_STLB PREFETCH REQUESTED:          0 ISSUED:          0 USEFUL:          0 USELESS:          0 LATE:          0
cpu0->cpu0_STLB AVERAGE MISS LATENCY: 24.21 cycles
cpu0->cpu0_L2C TOTAL        ACCESS:    3543660 HIT:     680685 MISS:    2862975 MSHR_MERGE:       3606
cpu0->cpu0_L2C LOAD         ACCESS:    2971987 HIT:     208956 MISS:    2763031 MSHR_MERGE:          0
cpu0->cpu0_L2C RFO          ACCESS:       6891 HIT:       6784 MISS:        107 MSHR_MERGE:          0
cpu0->cpu0_L2C PREFETCH     ACCESS:     555719 HIT:     456235 MISS:      99484 MSHR_MERGE:       3606
cpu0->cpu0_L2C WRITE        ACCESS:       8246 HIT:       8187 MISS:         59 MSHR_MERGE:          0
cpu0->cpu0_L2C TRANSLATION  ACCESS:        817 HIT:        523 MISS:        294 MSHR_MERGE:          0
cpu0->cpu0_L2C PREFETCH REQUESTED:     131150 ISSUED:     131150 USEFUL:       2661 USELESS:      67063 LATE:          0
cpu0->cpu0_L2C AVERAGE MISS LATENCY: 179.7 cycles
cpu0->cpu0_L1I TOTAL        ACCESS:      10731 HIT:      10731 MISS:          0 MSHR_MERGE:          0
cpu0->cpu0_L1I LOAD         ACCESS:      10731 HIT:      10731 MISS:          0 MSHR_MERGE:          0
cpu0->cpu0_L1I RFO          ACCESS:          0 HIT:          0 MISS:          0 MSHR_MERGE:          0
cpu0->cpu0_L1I PREFETCH     ACCESS:          0 HIT:          0 MISS:          0 MSHR_MERGE:          0
cpu0->cpu0_L1I WRITE        ACCESS:          0 HIT:          0 MISS:          0 MSHR_MERGE:          0
cpu0->cpu0_L1I TRANSLATION  ACCESS:          0 HIT:          0 MISS:          0 MSHR_MERGE:          0
cpu0->cpu0_L1I PREFETCH REQUESTED:          0 ISSUED:          0 USEFUL:          0 USELESS:          0 LATE:          0
cpu0->cpu0_L1I AVERAGE MISS LATENCY: - cycles
cpu0->cpu0_L1D TOTAL        ACCESS:    6775534 HIT:    3311910 MISS:    3463624 MSHR_MERGE:      59360
cpu0->cpu0_L1D LOAD         ACCESS:    4782972 HIT:    1762314 MISS:    3020658 MSHR_MERGE:      48672
cpu0->cpu0_L1D RFO          ACCESS:          0 HIT:          0 MISS:          0 MSHR_MERGE:          0
cpu0->cpu0_L1D PREFETCH     ACCESS:    1087076 HIT:     662507 MISS:     424569 MSHR_MERGE:          0
cpu0->cpu0_L1D WRITE        ACCESS:     903644 HIT:     886100 MISS:      17544 MSHR_MERGE:      10652
cpu0->cpu0_L1D TRANSLATION  ACCESS:       1842 HIT:        989 MISS:        853 MSHR_MERGE:         36
cpu0->cpu0_L1D PREFETCH REQUESTED:    1221804 ISSUED:    1087076 USEFUL:      20690 USELESS:      20674 LATE:          0
cpu0->cpu0_L1D AVERAGE MISS LATENCY: 175.6 cycles
cpu0->cpu0_ITLB TOTAL        ACCESS:       8668 HIT:       8668 MISS:          0 MSHR_MERGE:          0
cpu0->cpu0_ITLB LOAD         ACCESS:       8668 HIT:       8668 MISS:          0 MSHR_MERGE:          0
cpu0->cpu0_ITLB RFO          ACCESS:          0 HIT:          0 MISS:          0 MSHR_MERGE:          0
cpu0->cpu0_ITLB PREFETCH     ACCESS:          0 HIT:          0 MISS:          0 MSHR_MERGE:          0
cpu0->cpu0_ITLB WRITE        ACCESS:          0 HIT:          0 MISS:          0 MSHR_MERGE:          0
cpu0->cpu0_ITLB TRANSLATION  ACCESS:          0 HIT:          0 MISS:          0 MSHR_MERGE:          0
cpu0->cpu0_ITLB PREFETCH REQUESTED:          0 ISSUED:          0 USEFUL:          0 USELESS:          0 LATE:          0
cpu0->cpu0_ITLB AVERAGE MISS LATENCY: - cycles
cpu0->cpu0_DTLB TOTAL        ACCESS:    6458182 HIT:    4403475 MISS:    2054707 MSHR_MERGE:      60350
cpu0->cpu0_DTLB LOAD         ACCESS:    6458182 HIT:    4403475 MISS:    2054707 MSHR_MERGE:      60350
cpu0->cpu0_DTLB RFO          ACCESS:          0 HIT:          0 MISS:          0 MSHR_MERGE:          0
cpu0->cpu0_DTLB PREFETCH     ACCESS:          0 HIT:          0 MISS:          0 MSHR_MERGE:          0
cpu0->cpu0_DTLB WRITE        ACCESS:          0 HIT:          0 MISS:          0 MSHR_MERGE:          0
cpu0->cpu0_DTLB TRANSLATION  ACCESS:          0 HIT:          0 MISS:          0 MSHR_MERGE:          0
cpu0->cpu0_DTLB PREFETCH REQUESTED:          0 ISSUED:          0 USEFUL:          0 USELESS:          0 LATE:          0
cpu0->cpu0_DTLB AVERAGE MISS LATENCY: 5.016 cycles
cpu0->LLC TOTAL        ACCESS:    2860081 HIT:     597783 MISS:    2262298 MSHR_MERGE:          0
cpu0->LLC LOAD         ACCESS:    2763031 HIT:     569464 MISS:    2193567 MSHR_MERGE:          0
cpu0->LLC RFO          ACCESS:        107 HIT:        107 MISS:          0 MSHR_MERGE:          0
cpu0->LLC PREFETCH     ACCESS:      95878 HIT:      27170 MISS:      68708 MSHR_MERGE:          0
cpu0->LLC WRITE        ACCESS:        771 HIT:        749 MISS:         22 MSHR_MERGE:          0
cpu0->LLC TRANSLATION  ACCESS:        294 HIT:        293 MISS:          1 MSHR_MERGE:          0
cpu0->LLC PREFETCH REQUESTED:          0 ISSUED:          0 USEFUL:          0 USELESS:          0 LATE:          0
cpu0->LLC AVERAGE MISS LATENCY: 206.5 cycles

DRAM Statistics

Channel 0 RQ ROW_BUFFER_HIT:      14553
  ROW_BUFFER_MISS:    2247723
  AVG DBUS CONGESTED CYCLE: 2.975
Channel 0 WQ ROW_BUFFER_HIT:          4
  ROW_BUFFER_MISS:         17
  FULL:          0
Channel 0 REFRESHES ISSUED:      21643

[ROI Statistics]
[System Configuration]
num_cpus 1
cpu_freq 4000
fetch_width 6
decode_width 6
dispatch_width 6
execute_width 6
lq_width 2
sq_width 2
retire_width 6
scheduler_size 128
branch_mispredict_penalty 15
rob_size 352
lq_size 128
sq_size 72
ifetch_buffer_size 64
decode_buffer_size 32
dispatch_buffer_size 32
register_file_size 288
decode_latency 1
dispatch_latency 1
schedule_latency 1
execute_latency 1
page_size 4096
block_size 64
core_0_itlb_set 16
core_0_itlb_way 4
core_0_itlb_rq_size 16
core_0_itlb_wq_size 16
core_0_itlb_pq_size 0
core_0_itlb_mshr_size 8
core_0_itlb_hit_latency 1
core_0_itlb_fill_latency 1
core_0_itlb_max_tag_check 2
core_0_itlb_max_fill 2
core_0_dtlb_set 16
core_0_dtlb_way 4
core_0_dtlb_rq_size 16
core_0_dtlb_wq_size 16
core_0_dtlb_pq_size 0
core_0_dtlb_mshr_size 8
core_0_dtlb_hit_latency 1
core_0_dtlb_fill_latency 1
core_0_dtlb_max_tag_check 2
core_0_dtlb_max_fill 2
core_0_stlb_set 128
core_0_stlb_way 12
core_0_stlb_rq_size 32
core_0_stlb_wq_size 32
core_0_stlb_pq_size 0
core_0_stlb_mshr_size 16
core_0_stlb_hit_latency 4
core_0_stlb_fill_latency 4
core_0_stlb_max_tag_check 1
core_0_stlb_max_fill 1
core_0_l1i_set 64
core_0_l1i_way 8
core_0_l1i_rq_size 64
core_0_l1i_wq_size 64
core_0_l1i_pq_size 32
core_0_l1i_mshr_size 8
core_0_l1i_hit_latency 2
core_0_l1i_fill_latency 2
core_0_l1i_max_tag_check 2
core_0_l1i_max_fill 2
core_0_l1d_set 64
core_0_l1d_way 12
core_0_l1d_rq_size 64
core_0_l1d_wq_size 64
core_0_l1d_pq_size 8
core_0_l1d_mshr_size 16
core_0_l1d_hit_latency 2
core_0_l1d_fill_latency 3
core_0_l1d_max_tag_check 2
core_0_l1d_max_fill 2
core_0_l2c_set 1024
core_0_l2c_way 8
core_0_l2c_rq_size 32
core_0_l2c_wq_size 32
core_0_l2c_pq_size 16
core_0_l2c_mshr_size 32
core_0_l2c_hit_latency 5
core_0_l2c_fill_latency 5
core_0_l2c_max_tag_check 1
core_0_l2c_max_fill 1
llc_set 2048
llc_way 16
llc_rq_size 32
llc_wq_size 32
llc_pq_size 32
llc_mshr_size 64
llc_hit_latency 10
llc_fill_latency 10
llc_max_tag_check 1
llc_max_fill 1
dram_channels 1
dram_ranks 1
dram_bankgroups 8
dram_banks 4
dram_rows 65536
dram_columns 1024
dram_channel_width 8
dram_rq_size 64
dram_wq_size 64
dram_size 17179869184
core_0_itlb_prefetcher no
core_0_dtlb_prefetcher no
core_0_stlb_prefetcher no
core_0_l1i_prefetcher next_line
core_0_l1d_prefetcher vberti
core_0_l2c_prefetcher ip_stride
llc_prefetcher no
llc_replacement drrip

Core_0_instructions 50000000
Core_0_cycles 259715799
Core_0_IPC 0.192518
Core_0_branch_prediction_accuracy 87.2577
Core_0_branch_MPKI 21.5402
Core_0_average_ROB_occupancy_at_mispredict 26.2348

Core_0_ITLB_total_access 8668
Core_0_ITLB_total_hit 8668
Core_0_ITLB_total_miss 0
Core_0_ITLB_total_MPKI 0
Core_0_ITLB_total_miss_rate 0
Core_0_ITLB_demand_access 8668
Core_0_ITLB_demand_hit 8668
Core_0_ITLB_demand_miss 0
Core_0_ITLB_demand_MPKI 0
Core_0_ITLB_demand_miss_rate 0
Core_0_ITLB_load_access 8668
Core_0_ITLB_load_hit 8668
Core_0_ITLB_load_miss 0
Core_0_ITLB_load_MPKI 0
Core_0_ITLB_load_miss_rate 0
Core_0_ITLB_rfo_access 0
Core_0_ITLB_rfo_hit 0
Core_0_ITLB_rfo_miss 0
Core_0_ITLB_rfo_MPKI 0
Core_0_ITLB_rfo_miss_rate 0
Core_0_ITLB_prefetch_access 0
Core_0_ITLB_prefetch_hit 0
Core_0_ITLB_prefetch_miss 0
Core_0_ITLB_prefetch_MPKI 0
Core_0_ITLB_prefetch_miss_rate 0
Core_0_ITLB_writeback_access 0
Core_0_ITLB_writeback_hit 0
Core_0_ITLB_writeback_miss 0
Core_0_ITLB_writeback_MPKI 0
Core_0_ITLB_writeback_miss_rate 0
Core_0_ITLB_prefetch_requested 0
Core_0_ITLB_prefetch_issued 0
Core_0_ITLB_prefetch_useful 0
Core_0_ITLB_prefetch_useless 0
Core_0_ITLB_prefetch_late 0
Core_0_ITLB_prefetch_accuracy 0
Core_0_ITLB_prefetch_coverage 0
Core_0_ITLB_total_eviction 0

Core_0_DTLB_total_access 6458182
Core_0_DTLB_total_hit 4403475
Core_0_DTLB_total_miss 2054707
Core_0_DTLB_total_MPKI 41.0941
Core_0_DTLB_total_miss_rate 0.318156
Core_0_DTLB_demand_access 6458182
Core_0_DTLB_demand_hit 4403475
Core_0_DTLB_demand_miss 2054707
Core_0_DTLB_demand_MPKI 41.0941
Core_0_DTLB_demand_miss_rate 0.318156
Core_0_DTLB_load_access 6458182
Core_0_DTLB_load_hit 4403475
Core_0_DTLB_load_miss 2054707
Core_0_DTLB_load_MPKI 41.0941
Core_0_DTLB_load_miss_rate 0.318156
Core_0_DTLB_rfo_access 0
Core_0_DTLB_rfo_hit 0
Core_0_DTLB_rfo_miss 0
Core_0_DTLB_rfo_MPKI 0
Core_0_DTLB_rfo_miss_rate 0
Core_0_DTLB_prefetch_access 0
Core_0_DTLB_prefetch_hit 0
Core_0_DTLB_prefetch_miss 0
Core_0_DTLB_prefetch_MPKI 0
Core_0_DTLB_prefetch_miss_rate 0
Core_0_DTLB_writeback_access 0
Core_0_DTLB_writeback_hit 0
Core_0_DTLB_writeback_miss 0
Core_0_DTLB_writeback_MPKI 0
Core_0_DTLB_writeback_miss_rate 0
Core_0_DTLB_prefetch_requested 0
Core_0_DTLB_prefetch_issued 0
Core_0_DTLB_prefetch_useful 0
Core_0_DTLB_prefetch_useless 0
Core_0_DTLB_prefetch_late 0
Core_0_DTLB_prefetch_accuracy 0
Core_0_DTLB_prefetch_coverage 0
Core_0_DTLB_total_eviction 1994358

Core_0_STLB_total_access 1994358
Core_0_STLB_total_hit 1993413
Core_0_STLB_total_miss 945
Core_0_STLB_total_MPKI 0.0189
Core_0_STLB_total_miss_rate 0.000473837
Core_0_STLB_demand_access 1994358
Core_0_STLB_demand_hit 1993413
Core_0_STLB_demand_miss 945
Core_0_STLB_demand_MPKI 0.0189
Core_0_STLB_demand_miss_rate 0.000473837
Core_0_STLB_load_access 1994358
Core_0_STLB_load_hit 1993413
Core_0_STLB_load_miss 945
Core_0_STLB_load_MPKI 0.0189
Core_0_STLB_load_miss_rate 0.000473837
Core_0_STLB_rfo_access 0
Core_0_STLB_rfo_hit 0
Core_0_STLB_rfo_miss 0
Core_0_STLB_rfo_MPKI 0
Core_0_STLB_rfo_miss_rate 0
Core_0_STLB_prefetch_access 0
Core_0_STLB_prefetch_hit 0
Core_0_STLB_prefetch_miss 0
Core_0_STLB_prefetch_MPKI 0
Core_0_STLB_prefetch_miss_rate 0
Core_0_STLB_writeback_access 0
Core_0_STLB_writeback_hit 0
Core_0_STLB_writeback_miss 0
Core_0_STLB_writeback_MPKI 0
Core_0_STLB_writeback_miss_rate 0
Core_0_STLB_prefetch_requested 0
Core_0_STLB_prefetch_issued 0
Core_0_STLB_prefetch_useful 0
Core_0_STLB_prefetch_useless 0
Core_0_STLB_prefetch_late 0
Core_0_STLB_prefetch_accuracy 0
Core_0_STLB_prefetch_coverage 0
Core_0_STLB_total_eviction 1931041

Core_0_L1I_total_access 10731
Core_0_L1I_total_hit 10731
Core_0_L1I_total_miss 0
Core_0_L1I_total_MPKI 0
Core_0_L1I_total_miss_rate 0
Core_0_L1I_demand_access 10731
Core_0_L1I_demand_hit 10731
Core_0_L1I_demand_miss 0
Core_0_L1I_demand_MPKI 0
Core_0_L1I_demand_miss_rate 0
Core_0_L1I_load_access 10731
Core_0_L1I_load_hit 10731
Core_0_L1I_load_miss 0
Core_0_L1I_load_MPKI 0
Core_0_L1I_load_miss_rate 0
Core_0_L1I_rfo_access 0
Core_0_L1I_rfo_hit 0
Core_0_L1I_rfo_miss 0
Core_0_L1I_rfo_MPKI 0
Core_0_L1I_rfo_miss_rate 0
Core_0_L1I_prefetch_access 0
Core_0_L1I_prefetch_hit 0
Core_0_L1I_prefetch_miss 0
Core_0_L1I_prefetch_MPKI 0
Core_0_L1I_prefetch_miss_rate 0
Core_0_L1I_writeback_access 0
Core_0_L1I_writeback_hit 0
Core_0_L1I_writeback_miss 0
Core_0_L1I_writeback_MPKI 0
Core_0_L1I_writeback_miss_rate 0
Core_0_L1I_prefetch_requested 0
Core_0_L1I_prefetch_issued 0
Core_0_L1I_prefetch_useful 0
Core_0_L1I_prefetch_useless 0
Core_0_L1I_prefetch_late 0
Core_0_L1I_prefetch_accuracy 0
Core_0_L1I_prefetch_coverage 0
Core_0_L1I_total_eviction 0

Core_0_L1D_total_access 6773692
Core_0_L1D_total_hit 3310921
Core_0_L1D_total_miss 3462771
Core_0_L1D_total_MPKI 69.2554
Core_0_L1D_total_miss_rate 0.511209
Core_0_L1D_demand_access 4782972
Core_0_L1D_demand_hit 1762314
Core_0_L1D_demand_miss 3020658
Core_0_L1D_demand_MPKI 60.4132
Core_0_L1D_demand_miss_rate 0.631544
Core_0_L1D_load_access 4782972
Core_0_L1D_load_hit 1762314
Core_0_L1D_load_miss 3020658
Core_0_L1D_load_MPKI 60.4132
Core_0_L1D_load_miss_rate 0.631544
Core_0_L1D_rfo_access 0
Core_0_L1D_rfo_hit 0
Core_0_L1D_rfo_miss 0
Core_0_L1D_rfo_MPKI 0
Core_0_L1D_rfo_miss_rate 0
Core_0_L1D_prefetch_access 1087076
Core_0_L1D_prefetch_hit 662507
Core_0_L1D_prefetch_miss 424569
Core_0_L1D_prefetch_MPKI 8.49138
Core_0_L1D_prefetch_miss_rate 0.390561
Core_0_L1D_writeback_access 903644
Core_0_L1D_writeback_hit 886100
Core_0_L1D_writeback_miss 17544
Core_0_L1D_writeback_MPKI 0.35088
Core_0_L1D_writeback_miss_rate 0.0194147
Core_0_L1D_prefetch_requested 1221804
Core_0_L1D_prefetch_issued 1087076
Core_0_L1D_prefetch_useful 20690
Core_0_L1D_prefetch_useless 20674
Core_0_L1D_prefetch_late 0
Core_0_L1D_prefetch_accuracy 0.0190327
Core_0_L1D_prefetch_coverage 0.0068029
Core_0_L1D_total_eviction 3021070

Core_0_L2C_total_access 3542843
Core_0_L2C_total_hit 680162
Core_0_L2C_total_miss 2862681
Core_0_L2C_total_MPKI 57.2536
Core_0_L2C_total_miss_rate 0.808018
Core_0_L2C_demand_access 2978878
Core_0_L2C_demand_hit 215740
Core_0_L2C_demand_miss 2763138
Core_0_L2C_demand_MPKI 55.2628
Core_0_L2C_demand_miss_rate 0.927577
Core_0_L2C_load_access 2971987
Core_0_L2C_load_hit 208956
Core_0_L2C_load_miss 2763031
Core_0_L2C_load_MPKI 55.2606
Core_0_L2C_load_miss_rate 0.929691
Core_0_L2C_rfo_access 6891
Core_0_L2C_rfo_hit 6784
Core_0_L2C_rfo_miss 107
Core_0_L2C_rfo_MPKI 0.00214
Core_0_L2C_rfo_miss_rate 0.0155275
Core_0_L2C_prefetch_access 555719
Core_0_L2C_prefetch_hit 456235
Core_0_L2C_prefetch_miss 99484
Core_0_L2C_prefetch_MPKI 1.98968
Core_0_L2C_prefetch_miss_rate 0.179019
Core_0_L2C_writeback_access 8246
Core_0_L2C_writeback_hit 8187
Core_0_L2C_writeback_miss 59
Core_0_L2C_writeback_MPKI 0.00118
Core_0_L2C_writeback_miss_rate 0.00715498
Core_0_L2C_prefetch_requested 131150
Core_0_L2C_prefetch_issued 131150
Core_0_L2C_prefetch_useful 2661
Core_0_L2C_prefetch_useless 67063
Core_0_L2C_prefetch_late 0
Core_0_L2C_prefetch_accuracy 0.0202897
Core_0_L2C_prefetch_coverage 0.000962109
Core_0_L2C_total_eviction 2859369

Core_0_LLC_total_access 2859787
Core_0_LLC_total_hit 597490
Core_0_LLC_total_miss 2262297
Core_0_LLC_total_MPKI 45.2459
Core_0_LLC_total_miss_rate 0.791072
Core_0_LLC_demand_access 2763138
Core_0_LLC_demand_hit 569571
Core_0_LLC_demand_miss 2193567
Core_0_LLC_demand_MPKI 43.8713
Core_0_LLC_demand_miss_rate 0.793868
Core_0_LLC_load_access 2763031
Core_0_LLC_load_hit 569464
Core_0_LLC_load_miss 2193567
Core_0_LLC_load_MPKI 43.8713
Core_0_LLC_load_miss_rate 0.793899
Core_0_LLC_rfo_access 107
Core_0_LLC_rfo_hit 107
Core_0_LLC_rfo_miss 0
Core_0_LLC_rfo_MPKI 0
Core_0_LLC_rfo_miss_rate 0
Core_0_LLC_prefetch_access 95878
Core_0_LLC_prefetch_hit 27170
Core_0_LLC_prefetch_miss 68708
Core_0_LLC_prefetch_MPKI 1.37416
Core_0_LLC_prefetch_miss_rate 0.716619
Core_0_LLC_writeback_access 771
Core_0_LLC_writeback_hit 749
Core_0_LLC_writeback_miss 22
Core_0_LLC_writeback_MPKI 0.00044
Core_0_LLC_writeback_miss_rate 0.0285344
Core_0_LLC_prefetch_requested 0
Core_0_LLC_prefetch_issued 0
Core_0_LLC_prefetch_useful 0
Core_0_LLC_prefetch_useless 0
Core_0_LLC_prefetch_late 0
Core_0_LLC_prefetch_accuracy 0
Core_0_LLC_prefetch_coverage 0
Core_0_LLC_total_eviction 2262298

[DRAM Statistics]
Channel_0_RQ_row_buffer_hit 14553
Channel_0_RQ_row_buffer_miss 2247723
Channel_0_WQ_row_buffer_hit 4
Channel_0_WQ_row_buffer_miss 17
Channel_0_WQ_full 0
Channel_0_dbus_congested 2996358
DRAM_total_RQ_row_buffer_hit 14553
DRAM_total_RQ_row_buffer_miss 2247723
DRAM_total_WQ_row_buffer_hit 4
DRAM_total_WQ_row_buffer_miss 17
DRAM_total_WQ_full 0
DRAM_total_dbus_congested 2996358
DRAM_avg_congested_cycle 2.97485

======STLB miss causes ========
Core_0_STLB_miss_cause_breakdown
Core_0_STLB_cause_Demand_Data_miss 0
Core_0_STLB_cause_Demand_Data_miss_rate 0
Core_0_STLB_cause_Demand_Instruction_miss 0
Core_0_STLB_cause_Demand_Instruction_miss_rate 0
Core_0_STLB_cause_L1D_Prefetch_miss 945
Core_0_STLB_cause_L1D_Prefetch_miss_rate 0.000473837
Core_0_STLB_cause_L1I_Prefetch_miss 0
Core_0_STLB_cause_L1I_Prefetch_miss_rate 0
Core_0_STLB_cause_Other_miss 0
Core_0_STLB_cause_Other_miss_rate 0
Core_0_STLB_Demand_miss 0
Core_0_STLB_Demand_miss_rate 0
Core_0_STLB_L1D_Prefetch_miss 945
Core_0_STLB_L1D_Prefetch_miss_rate 0.000473837
Core_0_STLB_Other_miss 0
Core_0_STLB_Other_miss_rate 0
BERTI TO_L1: 1157166 TO_L2: 883236 TO_L2_BC_MSHR: 0
BERTI AVG_LAT: 125.821 NUM_TRACK_LATENCY: 4215222 NUM_CANT_TRACK_LATENCY: 0
BERTI CROSS_PAGE 213824 NO_CROSS_PAGE: 1826578
BERTI FOUND_BERTI: 5326189 NO_FOUND_BERTI: 2618243
BERTI AVERAGE_ISSUED: 3.53585
