[VMEM] WARNING: physical memory size is smaller than virtual memory size.

*** ChampSim Multicore Out-of-Order Simulator ***
Warmup Instructions: 20000000
Simulation Instructions: 50000000
Number of CPUs: 1
Page size: 4096
STLB ideal mode: demand
STLB ideal fill: on
Core 0: /data2/zcq/champsim_traces_xsbench/xs.XXL64nuclide-24B.champsimtrace.xz
VBerti Prefetcher
BERTI HASH ENTANGLING
BERTI IP MASK ffff
Off-chip DRAM Size: 16 GiB Channels: 1 Width: 64-bit Data Rate: 3205 MT/s
Warmup halting CPU 0 at instruction 20000002 cycle 4943440 for remainder of phase
Warmup finished CPU 0 instructions: 20000002 cycles: 4943440 cumulative IPC: 4.046 (Simulation time: 00 hr 01 min 04 sec)
Warmup complete CPU 0 instructions: 20000002 cycles: 4943440 cumulative IPC: 4.046 (Simulation time: 00 hr 01 min 04 sec)
Simulation finished CPU 0 instructions: 50000000 cycles: 219885163 cumulative IPC: 0.2274 (Simulation time: 00 hr 17 min 47 sec)
Simulation complete CPU 0 instructions: 50000000 cycles: 219885163 cumulative IPC: 0.2274 (Simulation time: 00 hr 17 min 47 sec)

ChampSim completed all CPUs

=== Simulation ===
CPU 0 runs /data2/zcq/champsim_traces_xsbench/xs.XXL64nuclide-24B.champsimtrace.xz

Region of Interest Statistics

CPU 0 cumulative IPC: 0.2274 instructions: 50000000 cycles: 219885163
CPU 0 Branch Prediction Accuracy: 92.4% MPKI: 18.26 Average ROB Occupancy at Mispredict: 37.04
Branch type MPKI
BRANCH_DIRECT_JUMP: 2e-05
BRANCH_INDIRECT: 0
BRANCH_CONDITIONAL: 18.26
BRANCH_DIRECT_CALL: 4e-05
BRANCH_INDIRECT_CALL: 6e-05
BRANCH_RETURN: 0.00038

cpu0->cpu0_STLB TOTAL        ACCESS:    1376778 HIT:    1370249 MISS:       6529 MSHR_MERGE:          0
cpu0->cpu0_STLB LOAD         ACCESS:    1376778 HIT:    1370249 MISS:       6529 MSHR_MERGE:          0
cpu0->cpu0_STLB RFO          ACCESS:          0 HIT:          0 MISS:          0 MSHR_MERGE:          0
cpu0->cpu0_STLB PREFETCH     ACCESS:          0 HIT:          0 MISS:          0 MSHR_MERGE:          0
cpu0->cpu0_STLB WRITE        ACCESS:          0 HIT:          0 MISS:          0 MSHR_MERGE:          0
cpu0->cpu0_STLB TRANSLATION  ACCESS:          0 HIT:          0 MISS:          0 MSHR_MERGE:          0
cpu0->cpu0_STLB PREFETCH REQUESTED:          0 ISSUED:          0 USEFUL:          0 USELESS:          0 LATE:          0
cpu0->cpu0_STLB AVERAGE MISS LATENCY: 137.8 cycles
cpu0->cpu0_L2C TOTAL        ACCESS:    7840161 HIT:    5499115 MISS:    2341046 MSHR_MERGE:     261438
cpu0->cpu0_L2C LOAD         ACCESS:    1744354 HIT:     179798 MISS:    1564556 MSHR_MERGE:      50676
cpu0->cpu0_L2C RFO          ACCESS:      86779 HIT:      54532 MISS:      32247 MSHR_MERGE:       6074
cpu0->cpu0_L2C PREFETCH     ACCESS:    5263736 HIT:    4520432 MISS:     743304 MSHR_MERGE:     204688
cpu0->cpu0_L2C WRITE        ACCESS:     742318 HIT:     742304 MISS:         14 MSHR_MERGE:          0
cpu0->cpu0_L2C TRANSLATION  ACCESS:       2974 HIT:       2049 MISS:        925 MSHR_MERGE:          0
cpu0->cpu0_L2C PREFETCH REQUESTED:    1069664 ISSUED:    1056275 USEFUL:     148560 USELESS:       2205 LATE:      46739
cpu0->cpu0_L2C AVERAGE MISS LATENCY: 229.3 cycles
cpu0->cpu0_L1I TOTAL        ACCESS:     625240 HIT:     625237 MISS:          3 MSHR_MERGE:          0
cpu0->cpu0_L1I LOAD         ACCESS:     625240 HIT:     625237 MISS:          3 MSHR_MERGE:          0
cpu0->cpu0_L1I RFO          ACCESS:          0 HIT:          0 MISS:          0 MSHR_MERGE:          0
cpu0->cpu0_L1I PREFETCH     ACCESS:          0 HIT:          0 MISS:          0 MSHR_MERGE:          0
cpu0->cpu0_L1I WRITE        ACCESS:          0 HIT:          0 MISS:          0 MSHR_MERGE:          0
cpu0->cpu0_L1I TRANSLATION  ACCESS:          0 HIT:          0 MISS:          0 MSHR_MERGE:          0
cpu0->cpu0_L1I PREFETCH REQUESTED:          0 ISSUED:          0 USEFUL:          0 USELESS:          0 LATE:          0
cpu0->cpu0_L1I AVERAGE MISS LATENCY: 410.7 cycles
cpu0->cpu0_L1D TOTAL        ACCESS:   32792109 HIT:   25710808 MISS:    7081301 MSHR_MERGE:    1000195
cpu0->cpu0_L1D LOAD         ACCESS:   10441830 HIT:    8132940 MISS:    2308890 MSHR_MERGE:     564540
cpu0->cpu0_L1D RFO          ACCESS:          0 HIT:          0 MISS:          0 MSHR_MERGE:          0
cpu0->cpu0_L1D PREFETCH     ACCESS:   16047894 HIT:   11786713 MISS:    4261181 MSHR_MERGE:      14178
cpu0->cpu0_L1D WRITE        ACCESS:    6289324 HIT:    5781068 MISS:     508256 MSHR_MERGE:     421477
cpu0->cpu0_L1D TRANSLATION  ACCESS:      13061 HIT:      10087 MISS:       2974 MSHR_MERGE:          0
cpu0->cpu0_L1D PREFETCH REQUESTED:   64612547 ISSUED:   16047886 USEFUL:     361039 USELESS:       1972 LATE:      21844
cpu0->cpu0_L1D AVERAGE MISS LATENCY: 209.6 cycles
cpu0->cpu0_ITLB TOTAL        ACCESS:     596690 HIT:     596690 MISS:          0 MSHR_MERGE:          0
cpu0->cpu0_ITLB LOAD         ACCESS:     596690 HIT:     596690 MISS:          0 MSHR_MERGE:          0
cpu0->cpu0_ITLB RFO          ACCESS:          0 HIT:          0 MISS:          0 MSHR_MERGE:          0
cpu0->cpu0_ITLB PREFETCH     ACCESS:          0 HIT:          0 MISS:          0 MSHR_MERGE:          0
cpu0->cpu0_ITLB WRITE        ACCESS:          0 HIT:          0 MISS:          0 MSHR_MERGE:          0
cpu0->cpu0_ITLB TRANSLATION  ACCESS:          0 HIT:          0 MISS:          0 MSHR_MERGE:          0
cpu0->cpu0_ITLB PREFETCH REQUESTED:          0 ISSUED:          0 USEFUL:          0 USELESS:          0 LATE:          0
cpu0->cpu0_ITLB AVERAGE MISS LATENCY: - cycles
cpu0->cpu0_DTLB TOTAL        ACCESS:   26988606 HIT:   25221194 MISS:    1767412 MSHR_MERGE:     390634
cpu0->cpu0_DTLB LOAD         ACCESS:   26988606 HIT:   25221194 MISS:    1767412 MSHR_MERGE:     390634
cpu0->cpu0_DTLB RFO          ACCESS:          0 HIT:          0 MISS:          0 MSHR_MERGE:          0
cpu0->cpu0_DTLB PREFETCH     ACCESS:          0 HIT:          0 MISS:          0 MSHR_MERGE:          0
cpu0->cpu0_DTLB WRITE        ACCESS:          0 HIT:          0 MISS:          0 MSHR_MERGE:          0
cpu0->cpu0_DTLB TRANSLATION  ACCESS:          0 HIT:          0 MISS:          0 MSHR_MERGE:          0
cpu0->cpu0_DTLB PREFETCH REQUESTED:          0 ISSUED:          0 USEFUL:          0 USELESS:          0 LATE:          0
cpu0->cpu0_DTLB AVERAGE MISS LATENCY: 5.677 cycles
cpu0->LLC TOTAL        ACCESS:    2780015 HIT:     477371 MISS:    2302644 MSHR_MERGE:      51798
cpu0->LLC LOAD         ACCESS:    1513880 HIT:     185209 MISS:    1328671 MSHR_MERGE:      11384
cpu0->LLC RFO          ACCESS:      26173 HIT:       4073 MISS:      22100 MSHR_MERGE:        223
cpu0->LLC PREFETCH     ACCESS:     538601 HIT:      86559 MISS:     452042 MSHR_MERGE:      40191
cpu0->LLC WRITE        ACCESS:     700436 HIT:     201527 MISS:     498909 MSHR_MERGE:          0
cpu0->LLC TRANSLATION  ACCESS:        925 HIT:          3 MISS:        922 MSHR_MERGE:          0
cpu0->LLC PREFETCH REQUESTED:          0 ISSUED:          0 USEFUL:          0 USELESS:          0 LATE:          0
cpu0->LLC AVERAGE MISS LATENCY: 177.2 cycles

DRAM Statistics

Channel 0 RQ ROW_BUFFER_HIT:      18141
  ROW_BUFFER_MISS:    1733476
  AVG DBUS CONGESTED CYCLE: 6.263
Channel 0 WQ ROW_BUFFER_HIT:     167255
  ROW_BUFFER_MISS:     429783
  FULL:        609
Channel 0 REFRESHES ISSUED:      18324

[ROI Statistics]
[System Configuration]
num_cpus 1
cpu_freq 4000
fetch_width 6
decode_width 6
dispatch_width 6
execute_width 6
lq_width 2
sq_width 2
retire_width 6
scheduler_size 128
branch_mispredict_penalty 15
rob_size 352
lq_size 128
sq_size 72
ifetch_buffer_size 64
decode_buffer_size 32
dispatch_buffer_size 32
register_file_size 288
decode_latency 1
dispatch_latency 1
schedule_latency 1
execute_latency 1
page_size 4096
block_size 64
core_0_itlb_set 16
core_0_itlb_way 4
core_0_itlb_rq_size 16
core_0_itlb_wq_size 16
core_0_itlb_pq_size 0
core_0_itlb_mshr_size 8
core_0_itlb_hit_latency 1
core_0_itlb_fill_latency 1
core_0_itlb_max_tag_check 2
core_0_itlb_max_fill 2
core_0_dtlb_set 16
core_0_dtlb_way 4
core_0_dtlb_rq_size 16
core_0_dtlb_wq_size 16
core_0_dtlb_pq_size 0
core_0_dtlb_mshr_size 8
core_0_dtlb_hit_latency 1
core_0_dtlb_fill_latency 1
core_0_dtlb_max_tag_check 2
core_0_dtlb_max_fill 2
core_0_stlb_set 128
core_0_stlb_way 12
core_0_stlb_rq_size 32
core_0_stlb_wq_size 32
core_0_stlb_pq_size 0
core_0_stlb_mshr_size 16
core_0_stlb_hit_latency 4
core_0_stlb_fill_latency 4
core_0_stlb_max_tag_check 1
core_0_stlb_max_fill 1
core_0_l1i_set 64
core_0_l1i_way 8
core_0_l1i_rq_size 64
core_0_l1i_wq_size 64
core_0_l1i_pq_size 32
core_0_l1i_mshr_size 8
core_0_l1i_hit_latency 2
core_0_l1i_fill_latency 2
core_0_l1i_max_tag_check 2
core_0_l1i_max_fill 2
core_0_l1d_set 64
core_0_l1d_way 12
core_0_l1d_rq_size 64
core_0_l1d_wq_size 64
core_0_l1d_pq_size 8
core_0_l1d_mshr_size 16
core_0_l1d_hit_latency 2
core_0_l1d_fill_latency 3
core_0_l1d_max_tag_check 2
core_0_l1d_max_fill 2
core_0_l2c_set 1024
core_0_l2c_way 8
core_0_l2c_rq_size 32
core_0_l2c_wq_size 32
core_0_l2c_pq_size 16
core_0_l2c_mshr_size 32
core_0_l2c_hit_latency 5
core_0_l2c_fill_latency 5
core_0_l2c_max_tag_check 1
core_0_l2c_max_fill 1
llc_set 2048
llc_way 16
llc_rq_size 32
llc_wq_size 32
llc_pq_size 32
llc_mshr_size 64
llc_hit_latency 10
llc_fill_latency 10
llc_max_tag_check 1
llc_max_fill 1
dram_channels 1
dram_ranks 1
dram_bankgroups 8
dram_banks 4
dram_rows 65536
dram_columns 1024
dram_channel_width 8
dram_rq_size 64
dram_wq_size 64
dram_size 17179869184
core_0_itlb_prefetcher no
core_0_dtlb_prefetcher no
core_0_stlb_prefetcher no
core_0_l1i_prefetcher next_line
core_0_l1d_prefetcher vberti
core_0_l2c_prefetcher ip_stride
llc_prefetcher no
llc_replacement drrip

Core_0_instructions 50000000
Core_0_cycles 219885163
Core_0_IPC 0.227391
Core_0_branch_prediction_accuracy 92.3955
Core_0_branch_MPKI 18.2609
Core_0_average_ROB_occupancy_at_mispredict 37.0353

Core_0_ITLB_total_access 596690
Core_0_ITLB_total_hit 596690
Core_0_ITLB_total_miss 0
Core_0_ITLB_total_MPKI 0
Core_0_ITLB_total_miss_rate 0
Core_0_ITLB_demand_access 596690
Core_0_ITLB_demand_hit 596690
Core_0_ITLB_demand_miss 0
Core_0_ITLB_demand_MPKI 0
Core_0_ITLB_demand_miss_rate 0
Core_0_ITLB_load_access 596690
Core_0_ITLB_load_hit 596690
Core_0_ITLB_load_miss 0
Core_0_ITLB_load_MPKI 0
Core_0_ITLB_load_miss_rate 0
Core_0_ITLB_rfo_access 0
Core_0_ITLB_rfo_hit 0
Core_0_ITLB_rfo_miss 0
Core_0_ITLB_rfo_MPKI 0
Core_0_ITLB_rfo_miss_rate 0
Core_0_ITLB_prefetch_access 0
Core_0_ITLB_prefetch_hit 0
Core_0_ITLB_prefetch_miss 0
Core_0_ITLB_prefetch_MPKI 0
Core_0_ITLB_prefetch_miss_rate 0
Core_0_ITLB_writeback_access 0
Core_0_ITLB_writeback_hit 0
Core_0_ITLB_writeback_miss 0
Core_0_ITLB_writeback_MPKI 0
Core_0_ITLB_writeback_miss_rate 0
Core_0_ITLB_prefetch_requested 0
Core_0_ITLB_prefetch_issued 0
Core_0_ITLB_prefetch_useful 0
Core_0_ITLB_prefetch_useless 0
Core_0_ITLB_prefetch_late 0
Core_0_ITLB_prefetch_accuracy 0
Core_0_ITLB_prefetch_coverage 0
Core_0_ITLB_total_eviction 0

Core_0_DTLB_total_access 26988606
Core_0_DTLB_total_hit 25221194
Core_0_DTLB_total_miss 1767412
Core_0_DTLB_total_MPKI 35.3482
Core_0_DTLB_total_miss_rate 0.0654873
Core_0_DTLB_demand_access 26988606
Core_0_DTLB_demand_hit 25221194
Core_0_DTLB_demand_miss 1767412
Core_0_DTLB_demand_MPKI 35.3482
Core_0_DTLB_demand_miss_rate 0.0654873
Core_0_DTLB_load_access 26988606
Core_0_DTLB_load_hit 25221194
Core_0_DTLB_load_miss 1767412
Core_0_DTLB_load_MPKI 35.3482
Core_0_DTLB_load_miss_rate 0.0654873
Core_0_DTLB_rfo_access 0
Core_0_DTLB_rfo_hit 0
Core_0_DTLB_rfo_miss 0
Core_0_DTLB_rfo_MPKI 0
Core_0_DTLB_rfo_miss_rate 0
Core_0_DTLB_prefetch_access 0
Core_0_DTLB_prefetch_hit 0
Core_0_DTLB_prefetch_miss 0
Core_0_DTLB_prefetch_MPKI 0
Core_0_DTLB_prefetch_miss_rate 0
Core_0_DTLB_writeback_access 0
Core_0_DTLB_writeback_hit 0
Core_0_DTLB_writeback_miss 0
Core_0_DTLB_writeback_MPKI 0
Core_0_DTLB_writeback_miss_rate 0
Core_0_DTLB_prefetch_requested 0
Core_0_DTLB_prefetch_issued 0
Core_0_DTLB_prefetch_useful 0
Core_0_DTLB_prefetch_useless 0
Core_0_DTLB_prefetch_late 0
Core_0_DTLB_prefetch_accuracy 0
Core_0_DTLB_prefetch_coverage 0
Core_0_DTLB_total_eviction 1376777

Core_0_STLB_total_access 1376778
Core_0_STLB_total_hit 1370249
Core_0_STLB_total_miss 6529
Core_0_STLB_total_MPKI 0.13058
Core_0_STLB_total_miss_rate 0.00474223
Core_0_STLB_demand_access 1376778
Core_0_STLB_demand_hit 1370249
Core_0_STLB_demand_miss 6529
Core_0_STLB_demand_MPKI 0.13058
Core_0_STLB_demand_miss_rate 0.00474223
Core_0_STLB_load_access 1376778
Core_0_STLB_load_hit 1370249
Core_0_STLB_load_miss 6529
Core_0_STLB_load_MPKI 0.13058
Core_0_STLB_load_miss_rate 0.00474223
Core_0_STLB_rfo_access 0
Core_0_STLB_rfo_hit 0
Core_0_STLB_rfo_miss 0
Core_0_STLB_rfo_MPKI 0
Core_0_STLB_rfo_miss_rate 0
Core_0_STLB_prefetch_access 0
Core_0_STLB_prefetch_hit 0
Core_0_STLB_prefetch_miss 0
Core_0_STLB_prefetch_MPKI 0
Core_0_STLB_prefetch_miss_rate 0
Core_0_STLB_writeback_access 0
Core_0_STLB_writeback_hit 0
Core_0_STLB_writeback_miss 0
Core_0_STLB_writeback_MPKI 0
Core_0_STLB_writeback_miss_rate 0
Core_0_STLB_prefetch_requested 0
Core_0_STLB_prefetch_issued 0
Core_0_STLB_prefetch_useful 0
Core_0_STLB_prefetch_useless 0
Core_0_STLB_prefetch_late 0
Core_0_STLB_prefetch_accuracy 0
Core_0_STLB_prefetch_coverage 0
Core_0_STLB_total_eviction 720311

Core_0_L1I_total_access 625240
Core_0_L1I_total_hit 625237
Core_0_L1I_total_miss 3
Core_0_L1I_total_MPKI 6e-05
Core_0_L1I_total_miss_rate 4.79816e-06
Core_0_L1I_demand_access 625240
Core_0_L1I_demand_hit 625237
Core_0_L1I_demand_miss 3
Core_0_L1I_demand_MPKI 6e-05
Core_0_L1I_demand_miss_rate 4.79816e-06
Core_0_L1I_load_access 625240
Core_0_L1I_load_hit 625237
Core_0_L1I_load_miss 3
Core_0_L1I_load_MPKI 6e-05
Core_0_L1I_load_miss_rate 4.79816e-06
Core_0_L1I_rfo_access 0
Core_0_L1I_rfo_hit 0
Core_0_L1I_rfo_miss 0
Core_0_L1I_rfo_MPKI 0
Core_0_L1I_rfo_miss_rate 0
Core_0_L1I_prefetch_access 0
Core_0_L1I_prefetch_hit 0
Core_0_L1I_prefetch_miss 0
Core_0_L1I_prefetch_MPKI 0
Core_0_L1I_prefetch_miss_rate 0
Core_0_L1I_writeback_access 0
Core_0_L1I_writeback_hit 0
Core_0_L1I_writeback_miss 0
Core_0_L1I_writeback_MPKI 0
Core_0_L1I_writeback_miss_rate 0
Core_0_L1I_prefetch_requested 0
Core_0_L1I_prefetch_issued 0
Core_0_L1I_prefetch_useful 0
Core_0_L1I_prefetch_useless 0
Core_0_L1I_prefetch_late 0
Core_0_L1I_prefetch_accuracy 0
Core_0_L1I_prefetch_coverage 0
Core_0_L1I_total_eviction 0

Core_0_L1D_total_access 32779048
Core_0_L1D_total_hit 25700721
Core_0_L1D_total_miss 7078327
Core_0_L1D_total_MPKI 141.567
Core_0_L1D_total_miss_rate 0.215941
Core_0_L1D_demand_access 10441830
Core_0_L1D_demand_hit 8132940
Core_0_L1D_demand_miss 2308890
Core_0_L1D_demand_MPKI 46.1778
Core_0_L1D_demand_miss_rate 0.221119
Core_0_L1D_load_access 10441830
Core_0_L1D_load_hit 8132940
Core_0_L1D_load_miss 2308890
Core_0_L1D_load_MPKI 46.1778
Core_0_L1D_load_miss_rate 0.221119
Core_0_L1D_rfo_access 0
Core_0_L1D_rfo_hit 0
Core_0_L1D_rfo_miss 0
Core_0_L1D_rfo_MPKI 0
Core_0_L1D_rfo_miss_rate 0
Core_0_L1D_prefetch_access 16047894
Core_0_L1D_prefetch_hit 11786713
Core_0_L1D_prefetch_miss 4261181
Core_0_L1D_prefetch_MPKI 85.2236
Core_0_L1D_prefetch_miss_rate 0.265529
Core_0_L1D_writeback_access 6289324
Core_0_L1D_writeback_hit 5781068
Core_0_L1D_writeback_miss 508256
Core_0_L1D_writeback_MPKI 10.1651
Core_0_L1D_writeback_miss_rate 0.0808125
Core_0_L1D_prefetch_requested 64612547
Core_0_L1D_prefetch_issued 16047886
Core_0_L1D_prefetch_useful 361039
Core_0_L1D_prefetch_useless 1972
Core_0_L1D_prefetch_late 21844
Core_0_L1D_prefetch_accuracy 0.0224976
Core_0_L1D_prefetch_coverage 0.135224
Core_0_L1D_total_eviction 2197114

Core_0_L2C_total_access 7837187
Core_0_L2C_total_hit 5497066
Core_0_L2C_total_miss 2340121
Core_0_L2C_total_MPKI 46.8024
Core_0_L2C_total_miss_rate 0.298592
Core_0_L2C_demand_access 1831133
Core_0_L2C_demand_hit 234330
Core_0_L2C_demand_miss 1596803
Core_0_L2C_demand_MPKI 31.9361
Core_0_L2C_demand_miss_rate 0.87203
Core_0_L2C_load_access 1744354
Core_0_L2C_load_hit 179798
Core_0_L2C_load_miss 1564556
Core_0_L2C_load_MPKI 31.2911
Core_0_L2C_load_miss_rate 0.896926
Core_0_L2C_rfo_access 86779
Core_0_L2C_rfo_hit 54532
Core_0_L2C_rfo_miss 32247
Core_0_L2C_rfo_MPKI 0.64494
Core_0_L2C_rfo_miss_rate 0.371599
Core_0_L2C_prefetch_access 5263736
Core_0_L2C_prefetch_hit 4520432
Core_0_L2C_prefetch_miss 743304
Core_0_L2C_prefetch_MPKI 14.8661
Core_0_L2C_prefetch_miss_rate 0.141212
Core_0_L2C_writeback_access 742318
Core_0_L2C_writeback_hit 742304
Core_0_L2C_writeback_miss 14
Core_0_L2C_writeback_MPKI 0.00028
Core_0_L2C_writeback_miss_rate 1.88598e-05
Core_0_L2C_prefetch_requested 1069664
Core_0_L2C_prefetch_issued 1056275
Core_0_L2C_prefetch_useful 148560
Core_0_L2C_prefetch_useless 2205
Core_0_L2C_prefetch_late 46739
Core_0_L2C_prefetch_accuracy 0.140645
Core_0_L2C_prefetch_coverage 0.085117
Core_0_L2C_total_eviction 2009074

Core_0_LLC_total_access 2779090
Core_0_LLC_total_hit 477368
Core_0_LLC_total_miss 2301722
Core_0_LLC_total_MPKI 46.0344
Core_0_LLC_total_miss_rate 0.828229
Core_0_LLC_demand_access 1540053
Core_0_LLC_demand_hit 189282
Core_0_LLC_demand_miss 1350771
Core_0_LLC_demand_MPKI 27.0154
Core_0_LLC_demand_miss_rate 0.877094
Core_0_LLC_load_access 1513880
Core_0_LLC_load_hit 185209
Core_0_LLC_load_miss 1328671
Core_0_LLC_load_MPKI 26.5734
Core_0_LLC_load_miss_rate 0.877659
Core_0_LLC_rfo_access 26173
Core_0_LLC_rfo_hit 4073
Core_0_LLC_rfo_miss 22100
Core_0_LLC_rfo_MPKI 0.442
Core_0_LLC_rfo_miss_rate 0.844382
Core_0_LLC_prefetch_access 538601
Core_0_LLC_prefetch_hit 86559
Core_0_LLC_prefetch_miss 452042
Core_0_LLC_prefetch_MPKI 9.04084
Core_0_LLC_prefetch_miss_rate 0.839289
Core_0_LLC_writeback_access 700436
Core_0_LLC_writeback_hit 201527
Core_0_LLC_writeback_miss 498909
Core_0_LLC_writeback_MPKI 9.97818
Core_0_LLC_writeback_miss_rate 0.712283
Core_0_LLC_prefetch_requested 0
Core_0_LLC_prefetch_issued 0
Core_0_LLC_prefetch_useful 0
Core_0_LLC_prefetch_useless 0
Core_0_LLC_prefetch_late 0
Core_0_LLC_prefetch_accuracy 0
Core_0_LLC_prefetch_coverage 0
Core_0_LLC_total_eviction 2250845

[DRAM Statistics]
Channel_0_RQ_row_buffer_hit 18141
Channel_0_RQ_row_buffer_miss 1733476
Channel_0_WQ_row_buffer_hit 167255
Channel_0_WQ_row_buffer_miss 429783
Channel_0_WQ_full 609
Channel_0_dbus_congested 6474607
DRAM_total_RQ_row_buffer_hit 18141
DRAM_total_RQ_row_buffer_miss 1733476
DRAM_total_WQ_row_buffer_hit 167255
DRAM_total_WQ_row_buffer_miss 429783
DRAM_total_WQ_full 609
DRAM_total_dbus_congested 6474607
DRAM_avg_congested_cycle 6.26322

======STLB miss causes ========
Core_0_STLB_miss_cause_breakdown
Core_0_STLB_cause_Demand_Data_miss 0
Core_0_STLB_cause_Demand_Data_miss_rate 0
Core_0_STLB_cause_Demand_Instruction_miss 0
Core_0_STLB_cause_Demand_Instruction_miss_rate 0
Core_0_STLB_cause_L1D_Prefetch_miss 6529
Core_0_STLB_cause_L1D_Prefetch_miss_rate 0.00474223
Core_0_STLB_cause_L1I_Prefetch_miss 0
Core_0_STLB_cause_L1I_Prefetch_miss_rate 0
Core_0_STLB_cause_Other_miss 0
Core_0_STLB_cause_Other_miss_rate 0
Core_0_STLB_Demand_miss 0
Core_0_STLB_Demand_miss_rate 0
Core_0_STLB_L1D_Prefetch_miss 6529
Core_0_STLB_L1D_Prefetch_miss_rate 0.00474223
Core_0_STLB_Other_miss 0
Core_0_STLB_Other_miss_rate 0
BERTI TO_L1: 37722066 TO_L2: 47197056 TO_L2_BC_MSHR: 5633796
BERTI AVG_LAT: 167.241 NUM_TRACK_LATENCY: 2631614 NUM_CANT_TRACK_LATENCY: 32
BERTI CROSS_PAGE 10078897 NO_CROSS_PAGE: 74840225
BERTI FOUND_BERTI: 16314293 NO_FOUND_BERTI: 6042844
BERTI AVERAGE_ISSUED: 2.87725
