[VMEM] WARNING: physical memory size is smaller than virtual memory size.

*** ChampSim Multicore Out-of-Order Simulator ***
Warmup Instructions: 20000000
Simulation Instructions: 50000000
Number of CPUs: 1
Page size: 4096
STLB ideal mode: demand
STLB ideal fill: on
Core 0: /data2/zcq/champsim_traces_xsbench/xs.XXL64hash-24B.champsimtrace.xz
VBerti Prefetcher
BERTI HASH ENTANGLING
BERTI IP MASK ffff
Off-chip DRAM Size: 16 GiB Channels: 1 Width: 64-bit Data Rate: 3205 MT/s
Warmup halting CPU 0 at instruction 20000000 cycle 4969238 for remainder of phase
Warmup finished CPU 0 instructions: 20000000 cycles: 4969238 cumulative IPC: 4.025 (Simulation time: 00 hr 00 min 56 sec)
Warmup complete CPU 0 instructions: 20000000 cycles: 4969238 cumulative IPC: 4.025 (Simulation time: 00 hr 00 min 56 sec)
Simulation finished CPU 0 instructions: 50000002 cycles: 219800190 cumulative IPC: 0.2275 (Simulation time: 00 hr 17 min 55 sec)
Simulation complete CPU 0 instructions: 50000002 cycles: 219800190 cumulative IPC: 0.2275 (Simulation time: 00 hr 17 min 55 sec)

ChampSim completed all CPUs

=== Simulation ===
CPU 0 runs /data2/zcq/champsim_traces_xsbench/xs.XXL64hash-24B.champsimtrace.xz

Region of Interest Statistics

CPU 0 cumulative IPC: 0.2275 instructions: 50000002 cycles: 219800190
CPU 0 Branch Prediction Accuracy: 92.39% MPKI: 18.26 Average ROB Occupancy at Mispredict: 37
Branch type MPKI
BRANCH_DIRECT_JUMP: 2e-05
BRANCH_INDIRECT: 0
BRANCH_CONDITIONAL: 18.26
BRANCH_DIRECT_CALL: 4e-05
BRANCH_INDIRECT_CALL: 6e-05
BRANCH_RETURN: 0.00038

cpu0->cpu0_STLB TOTAL        ACCESS:    1376617 HIT:    1370098 MISS:       6519 MSHR_MERGE:          0
cpu0->cpu0_STLB LOAD         ACCESS:    1376617 HIT:    1370098 MISS:       6519 MSHR_MERGE:          0
cpu0->cpu0_STLB RFO          ACCESS:          0 HIT:          0 MISS:          0 MSHR_MERGE:          0
cpu0->cpu0_STLB PREFETCH     ACCESS:          0 HIT:          0 MISS:          0 MSHR_MERGE:          0
cpu0->cpu0_STLB WRITE        ACCESS:          0 HIT:          0 MISS:          0 MSHR_MERGE:          0
cpu0->cpu0_STLB TRANSLATION  ACCESS:          0 HIT:          0 MISS:          0 MSHR_MERGE:          0
cpu0->cpu0_STLB PREFETCH REQUESTED:          0 ISSUED:          0 USEFUL:          0 USELESS:          0 LATE:          0
cpu0->cpu0_STLB AVERAGE MISS LATENCY: 135.2 cycles
cpu0->cpu0_L2C TOTAL        ACCESS:    6704516 HIT:    4344307 MISS:    2360209 MSHR_MERGE:     274079
cpu0->cpu0_L2C LOAD         ACCESS:    1743094 HIT:     177990 MISS:    1565104 MSHR_MERGE:      50609
cpu0->cpu0_L2C RFO          ACCESS:      87431 HIT:      56660 MISS:      30771 MSHR_MERGE:       6812
cpu0->cpu0_L2C PREFETCH     ACCESS:    4128731 HIT:    3365343 MISS:     763388 MSHR_MERGE:     216658
cpu0->cpu0_L2C WRITE        ACCESS:     742294 HIT:     742280 MISS:         14 MSHR_MERGE:          0
cpu0->cpu0_L2C TRANSLATION  ACCESS:       2966 HIT:       2034 MISS:        932 MSHR_MERGE:          0
cpu0->cpu0_L2C PREFETCH REQUESTED:    1169574 ISSUED:    1159192 USEFUL:     174915 USELESS:       2292 LATE:      46598
cpu0->cpu0_L2C AVERAGE MISS LATENCY: 228.3 cycles
cpu0->cpu0_L1I TOTAL        ACCESS:     620543 HIT:     620540 MISS:          3 MSHR_MERGE:          0
cpu0->cpu0_L1I LOAD         ACCESS:     620543 HIT:     620540 MISS:          3 MSHR_MERGE:          0
cpu0->cpu0_L1I RFO          ACCESS:          0 HIT:          0 MISS:          0 MSHR_MERGE:          0
cpu0->cpu0_L1I PREFETCH     ACCESS:          0 HIT:          0 MISS:          0 MSHR_MERGE:          0
cpu0->cpu0_L1I WRITE        ACCESS:          0 HIT:          0 MISS:          0 MSHR_MERGE:          0
cpu0->cpu0_L1I TRANSLATION  ACCESS:          0 HIT:          0 MISS:          0 MSHR_MERGE:          0
cpu0->cpu0_L1I PREFETCH REQUESTED:          0 ISSUED:          0 USEFUL:          0 USELESS:          0 LATE:          0
cpu0->cpu0_L1I AVERAGE MISS LATENCY: 402 cycles
cpu0->cpu0_L1D TOTAL        ACCESS:   32143609 HIT:   26329968 MISS:    5813641 MSHR_MERGE:     996688
cpu0->cpu0_L1D LOAD         ACCESS:   10364631 HIT:    8075352 MISS:    2289279 MSHR_MERGE:     546188
cpu0->cpu0_L1D RFO          ACCESS:          0 HIT:          0 MISS:          0 MSHR_MERGE:          0
cpu0->cpu0_L1D PREFETCH     ACCESS:   15481943 HIT:   12483354 MISS:    2998589 MSHR_MERGE:      15124
cpu0->cpu0_L1D WRITE        ACCESS:    6283991 HIT:    5761184 MISS:     522807 MSHR_MERGE:     435376
cpu0->cpu0_L1D TRANSLATION  ACCESS:      13044 HIT:      10078 MISS:       2966 MSHR_MERGE:          0
cpu0->cpu0_L1D PREFETCH REQUESTED:   61220092 ISSUED:   15481935 USEFUL:     361636 USELESS:       2200 LATE:      22515
cpu0->cpu0_L1D AVERAGE MISS LATENCY: 208.8 cycles
cpu0->cpu0_ITLB TOTAL        ACCESS:     592034 HIT:     592034 MISS:          0 MSHR_MERGE:          0
cpu0->cpu0_ITLB LOAD         ACCESS:     592034 HIT:     592034 MISS:          0 MSHR_MERGE:          0
cpu0->cpu0_ITLB RFO          ACCESS:          0 HIT:          0 MISS:          0 MSHR_MERGE:          0
cpu0->cpu0_ITLB PREFETCH     ACCESS:          0 HIT:          0 MISS:          0 MSHR_MERGE:          0
cpu0->cpu0_ITLB WRITE        ACCESS:          0 HIT:          0 MISS:          0 MSHR_MERGE:          0
cpu0->cpu0_ITLB TRANSLATION  ACCESS:          0 HIT:          0 MISS:          0 MSHR_MERGE:          0
cpu0->cpu0_ITLB PREFETCH REQUESTED:          0 ISSUED:          0 USEFUL:          0 USELESS:          0 LATE:          0
cpu0->cpu0_ITLB AVERAGE MISS LATENCY: - cycles
cpu0->cpu0_DTLB TOTAL        ACCESS:   26690901 HIT:   24929237 MISS:    1761664 MSHR_MERGE:     385047
cpu0->cpu0_DTLB LOAD         ACCESS:   26690901 HIT:   24929237 MISS:    1761664 MSHR_MERGE:     385047
cpu0->cpu0_DTLB RFO          ACCESS:          0 HIT:          0 MISS:          0 MSHR_MERGE:          0
cpu0->cpu0_DTLB PREFETCH     ACCESS:          0 HIT:          0 MISS:          0 MSHR_MERGE:          0
cpu0->cpu0_DTLB WRITE        ACCESS:          0 HIT:          0 MISS:          0 MSHR_MERGE:          0
cpu0->cpu0_DTLB TRANSLATION  ACCESS:          0 HIT:          0 MISS:          0 MSHR_MERGE:          0
cpu0->cpu0_DTLB PREFETCH REQUESTED:          0 ISSUED:          0 USEFUL:          0 USELESS:          0 LATE:          0
cpu0->cpu0_DTLB AVERAGE MISS LATENCY: 5.65 cycles
cpu0->LLC TOTAL        ACCESS:    2786140 HIT:     480845 MISS:    2305295 MSHR_MERGE:      56170
cpu0->LLC LOAD         ACCESS:    1514495 HIT:     185278 MISS:    1329217 MSHR_MERGE:      11330
cpu0->LLC RFO          ACCESS:      23959 HIT:       4822 MISS:      19137 MSHR_MERGE:        237
cpu0->LLC PREFETCH     ACCESS:     546714 HIT:      87641 MISS:     459073 MSHR_MERGE:      44603
cpu0->LLC WRITE        ACCESS:     700040 HIT:     203100 MISS:     496940 MSHR_MERGE:          0
cpu0->LLC TRANSLATION  ACCESS:        932 HIT:          4 MISS:        928 MSHR_MERGE:          0
cpu0->LLC PREFETCH REQUESTED:          0 ISSUED:          0 USEFUL:          0 USELESS:          0 LATE:          0
cpu0->LLC AVERAGE MISS LATENCY: 176.6 cycles

DRAM Statistics

Channel 0 RQ ROW_BUFFER_HIT:      17838
  ROW_BUFFER_MISS:    1734051
  AVG DBUS CONGESTED CYCLE: 6.173
Channel 0 WQ ROW_BUFFER_HIT:     166005
  ROW_BUFFER_MISS:     430642
  FULL:        762
Channel 0 REFRESHES ISSUED:      18316

[ROI Statistics]
[System Configuration]
num_cpus 1
cpu_freq 4000
fetch_width 6
decode_width 6
dispatch_width 6
execute_width 6
lq_width 2
sq_width 2
retire_width 6
scheduler_size 128
branch_mispredict_penalty 15
rob_size 352
lq_size 128
sq_size 72
ifetch_buffer_size 64
decode_buffer_size 32
dispatch_buffer_size 32
register_file_size 288
decode_latency 1
dispatch_latency 1
schedule_latency 1
execute_latency 1
page_size 4096
block_size 64
core_0_itlb_set 16
core_0_itlb_way 4
core_0_itlb_rq_size 16
core_0_itlb_wq_size 16
core_0_itlb_pq_size 0
core_0_itlb_mshr_size 8
core_0_itlb_hit_latency 1
core_0_itlb_fill_latency 1
core_0_itlb_max_tag_check 2
core_0_itlb_max_fill 2
core_0_dtlb_set 16
core_0_dtlb_way 4
core_0_dtlb_rq_size 16
core_0_dtlb_wq_size 16
core_0_dtlb_pq_size 0
core_0_dtlb_mshr_size 8
core_0_dtlb_hit_latency 1
core_0_dtlb_fill_latency 1
core_0_dtlb_max_tag_check 2
core_0_dtlb_max_fill 2
core_0_stlb_set 128
core_0_stlb_way 12
core_0_stlb_rq_size 32
core_0_stlb_wq_size 32
core_0_stlb_pq_size 0
core_0_stlb_mshr_size 16
core_0_stlb_hit_latency 4
core_0_stlb_fill_latency 4
core_0_stlb_max_tag_check 1
core_0_stlb_max_fill 1
core_0_l1i_set 64
core_0_l1i_way 8
core_0_l1i_rq_size 64
core_0_l1i_wq_size 64
core_0_l1i_pq_size 32
core_0_l1i_mshr_size 8
core_0_l1i_hit_latency 2
core_0_l1i_fill_latency 2
core_0_l1i_max_tag_check 2
core_0_l1i_max_fill 2
core_0_l1d_set 64
core_0_l1d_way 12
core_0_l1d_rq_size 64
core_0_l1d_wq_size 64
core_0_l1d_pq_size 8
core_0_l1d_mshr_size 16
core_0_l1d_hit_latency 2
core_0_l1d_fill_latency 3
core_0_l1d_max_tag_check 2
core_0_l1d_max_fill 2
core_0_l2c_set 1024
core_0_l2c_way 8
core_0_l2c_rq_size 32
core_0_l2c_wq_size 32
core_0_l2c_pq_size 16
core_0_l2c_mshr_size 32
core_0_l2c_hit_latency 5
core_0_l2c_fill_latency 5
core_0_l2c_max_tag_check 1
core_0_l2c_max_fill 1
llc_set 2048
llc_way 16
llc_rq_size 32
llc_wq_size 32
llc_pq_size 32
llc_mshr_size 64
llc_hit_latency 10
llc_fill_latency 10
llc_max_tag_check 1
llc_max_fill 1
dram_channels 1
dram_ranks 1
dram_bankgroups 8
dram_banks 4
dram_rows 65536
dram_columns 1024
dram_channel_width 8
dram_rq_size 64
dram_wq_size 64
dram_size 17179869184
core_0_itlb_prefetcher no
core_0_dtlb_prefetcher no
core_0_stlb_prefetcher no
core_0_l1i_prefetcher next_line
core_0_l1d_prefetcher vberti
core_0_l2c_prefetcher ip_stride
llc_prefetcher no
llc_replacement drrip

Core_0_instructions 50000002
Core_0_cycles 219800190
Core_0_IPC 0.227479
Core_0_branch_prediction_accuracy 92.3949
Core_0_branch_MPKI 18.2624
Core_0_average_ROB_occupancy_at_mispredict 37.0036

Core_0_ITLB_total_access 592034
Core_0_ITLB_total_hit 592034
Core_0_ITLB_total_miss 0
Core_0_ITLB_total_MPKI 0
Core_0_ITLB_total_miss_rate 0
Core_0_ITLB_demand_access 592034
Core_0_ITLB_demand_hit 592034
Core_0_ITLB_demand_miss 0
Core_0_ITLB_demand_MPKI 0
Core_0_ITLB_demand_miss_rate 0
Core_0_ITLB_load_access 592034
Core_0_ITLB_load_hit 592034
Core_0_ITLB_load_miss 0
Core_0_ITLB_load_MPKI 0
Core_0_ITLB_load_miss_rate 0
Core_0_ITLB_rfo_access 0
Core_0_ITLB_rfo_hit 0
Core_0_ITLB_rfo_miss 0
Core_0_ITLB_rfo_MPKI 0
Core_0_ITLB_rfo_miss_rate 0
Core_0_ITLB_prefetch_access 0
Core_0_ITLB_prefetch_hit 0
Core_0_ITLB_prefetch_miss 0
Core_0_ITLB_prefetch_MPKI 0
Core_0_ITLB_prefetch_miss_rate 0
Core_0_ITLB_writeback_access 0
Core_0_ITLB_writeback_hit 0
Core_0_ITLB_writeback_miss 0
Core_0_ITLB_writeback_MPKI 0
Core_0_ITLB_writeback_miss_rate 0
Core_0_ITLB_prefetch_requested 0
Core_0_ITLB_prefetch_issued 0
Core_0_ITLB_prefetch_useful 0
Core_0_ITLB_prefetch_useless 0
Core_0_ITLB_prefetch_late 0
Core_0_ITLB_prefetch_accuracy 0
Core_0_ITLB_prefetch_coverage 0
Core_0_ITLB_total_eviction 0

Core_0_DTLB_total_access 26690901
Core_0_DTLB_total_hit 24929237
Core_0_DTLB_total_miss 1761664
Core_0_DTLB_total_MPKI 35.2333
Core_0_DTLB_total_miss_rate 0.0660024
Core_0_DTLB_demand_access 26690901
Core_0_DTLB_demand_hit 24929237
Core_0_DTLB_demand_miss 1761664
Core_0_DTLB_demand_MPKI 35.2333
Core_0_DTLB_demand_miss_rate 0.0660024
Core_0_DTLB_load_access 26690901
Core_0_DTLB_load_hit 24929237
Core_0_DTLB_load_miss 1761664
Core_0_DTLB_load_MPKI 35.2333
Core_0_DTLB_load_miss_rate 0.0660024
Core_0_DTLB_rfo_access 0
Core_0_DTLB_rfo_hit 0
Core_0_DTLB_rfo_miss 0
Core_0_DTLB_rfo_MPKI 0
Core_0_DTLB_rfo_miss_rate 0
Core_0_DTLB_prefetch_access 0
Core_0_DTLB_prefetch_hit 0
Core_0_DTLB_prefetch_miss 0
Core_0_DTLB_prefetch_MPKI 0
Core_0_DTLB_prefetch_miss_rate 0
Core_0_DTLB_writeback_access 0
Core_0_DTLB_writeback_hit 0
Core_0_DTLB_writeback_miss 0
Core_0_DTLB_writeback_MPKI 0
Core_0_DTLB_writeback_miss_rate 0
Core_0_DTLB_prefetch_requested 0
Core_0_DTLB_prefetch_issued 0
Core_0_DTLB_prefetch_useful 0
Core_0_DTLB_prefetch_useless 0
Core_0_DTLB_prefetch_late 0
Core_0_DTLB_prefetch_accuracy 0
Core_0_DTLB_prefetch_coverage 0
Core_0_DTLB_total_eviction 1376617

Core_0_STLB_total_access 1376617
Core_0_STLB_total_hit 1370098
Core_0_STLB_total_miss 6519
Core_0_STLB_total_MPKI 0.13038
Core_0_STLB_total_miss_rate 0.00473552
Core_0_STLB_demand_access 1376617
Core_0_STLB_demand_hit 1370098
Core_0_STLB_demand_miss 6519
Core_0_STLB_demand_MPKI 0.13038
Core_0_STLB_demand_miss_rate 0.00473552
Core_0_STLB_load_access 1376617
Core_0_STLB_load_hit 1370098
Core_0_STLB_load_miss 6519
Core_0_STLB_load_MPKI 0.13038
Core_0_STLB_load_miss_rate 0.00473552
Core_0_STLB_rfo_access 0
Core_0_STLB_rfo_hit 0
Core_0_STLB_rfo_miss 0
Core_0_STLB_rfo_MPKI 0
Core_0_STLB_rfo_miss_rate 0
Core_0_STLB_prefetch_access 0
Core_0_STLB_prefetch_hit 0
Core_0_STLB_prefetch_miss 0
Core_0_STLB_prefetch_MPKI 0
Core_0_STLB_prefetch_miss_rate 0
Core_0_STLB_writeback_access 0
Core_0_STLB_writeback_hit 0
Core_0_STLB_writeback_miss 0
Core_0_STLB_writeback_MPKI 0
Core_0_STLB_writeback_miss_rate 0
Core_0_STLB_prefetch_requested 0
Core_0_STLB_prefetch_issued 0
Core_0_STLB_prefetch_useful 0
Core_0_STLB_prefetch_useless 0
Core_0_STLB_prefetch_late 0
Core_0_STLB_prefetch_accuracy 0
Core_0_STLB_prefetch_coverage 0
Core_0_STLB_total_eviction 720127

Core_0_L1I_total_access 620543
Core_0_L1I_total_hit 620540
Core_0_L1I_total_miss 3
Core_0_L1I_total_MPKI 6e-05
Core_0_L1I_total_miss_rate 4.83448e-06
Core_0_L1I_demand_access 620543
Core_0_L1I_demand_hit 620540
Core_0_L1I_demand_miss 3
Core_0_L1I_demand_MPKI 6e-05
Core_0_L1I_demand_miss_rate 4.83448e-06
Core_0_L1I_load_access 620543
Core_0_L1I_load_hit 620540
Core_0_L1I_load_miss 3
Core_0_L1I_load_MPKI 6e-05
Core_0_L1I_load_miss_rate 4.83448e-06
Core_0_L1I_rfo_access 0
Core_0_L1I_rfo_hit 0
Core_0_L1I_rfo_miss 0
Core_0_L1I_rfo_MPKI 0
Core_0_L1I_rfo_miss_rate 0
Core_0_L1I_prefetch_access 0
Core_0_L1I_prefetch_hit 0
Core_0_L1I_prefetch_miss 0
Core_0_L1I_prefetch_MPKI 0
Core_0_L1I_prefetch_miss_rate 0
Core_0_L1I_writeback_access 0
Core_0_L1I_writeback_hit 0
Core_0_L1I_writeback_miss 0
Core_0_L1I_writeback_MPKI 0
Core_0_L1I_writeback_miss_rate 0
Core_0_L1I_prefetch_requested 0
Core_0_L1I_prefetch_issued 0
Core_0_L1I_prefetch_useful 0
Core_0_L1I_prefetch_useless 0
Core_0_L1I_prefetch_late 0
Core_0_L1I_prefetch_accuracy 0
Core_0_L1I_prefetch_coverage 0
Core_0_L1I_total_eviction 0

Core_0_L1D_total_access 32130565
Core_0_L1D_total_hit 26319890
Core_0_L1D_total_miss 5810675
Core_0_L1D_total_MPKI 116.213
Core_0_L1D_total_miss_rate 0.180846
Core_0_L1D_demand_access 10364631
Core_0_L1D_demand_hit 8075352
Core_0_L1D_demand_miss 2289279
Core_0_L1D_demand_MPKI 45.7856
Core_0_L1D_demand_miss_rate 0.220874
Core_0_L1D_load_access 10364631
Core_0_L1D_load_hit 8075352
Core_0_L1D_load_miss 2289279
Core_0_L1D_load_MPKI 45.7856
Core_0_L1D_load_miss_rate 0.220874
Core_0_L1D_rfo_access 0
Core_0_L1D_rfo_hit 0
Core_0_L1D_rfo_miss 0
Core_0_L1D_rfo_MPKI 0
Core_0_L1D_rfo_miss_rate 0
Core_0_L1D_prefetch_access 15481943
Core_0_L1D_prefetch_hit 12483354
Core_0_L1D_prefetch_miss 2998589
Core_0_L1D_prefetch_MPKI 59.9718
Core_0_L1D_prefetch_miss_rate 0.193683
Core_0_L1D_writeback_access 6283991
Core_0_L1D_writeback_hit 5761184
Core_0_L1D_writeback_miss 522807
Core_0_L1D_writeback_MPKI 10.4561
Core_0_L1D_writeback_miss_rate 0.0831967
Core_0_L1D_prefetch_requested 61220092
Core_0_L1D_prefetch_issued 15481935
Core_0_L1D_prefetch_useful 361636
Core_0_L1D_prefetch_useless 2200
Core_0_L1D_prefetch_late 22515
Core_0_L1D_prefetch_accuracy 0.0233586
Core_0_L1D_prefetch_coverage 0.136419
Core_0_L1D_total_eviction 2197312

Core_0_L2C_total_access 6701550
Core_0_L2C_total_hit 4342273
Core_0_L2C_total_miss 2359277
Core_0_L2C_total_MPKI 47.1855
Core_0_L2C_total_miss_rate 0.352049
Core_0_L2C_demand_access 1830525
Core_0_L2C_demand_hit 234650
Core_0_L2C_demand_miss 1595875
Core_0_L2C_demand_MPKI 31.9175
Core_0_L2C_demand_miss_rate 0.871813
Core_0_L2C_load_access 1743094
Core_0_L2C_load_hit 177990
Core_0_L2C_load_miss 1565104
Core_0_L2C_load_MPKI 31.3021
Core_0_L2C_load_miss_rate 0.897888
Core_0_L2C_rfo_access 87431
Core_0_L2C_rfo_hit 56660
Core_0_L2C_rfo_miss 30771
Core_0_L2C_rfo_MPKI 0.61542
Core_0_L2C_rfo_miss_rate 0.351946
Core_0_L2C_prefetch_access 4128731
Core_0_L2C_prefetch_hit 3365343
Core_0_L2C_prefetch_miss 763388
Core_0_L2C_prefetch_MPKI 15.2678
Core_0_L2C_prefetch_miss_rate 0.184897
Core_0_L2C_writeback_access 742294
Core_0_L2C_writeback_hit 742280
Core_0_L2C_writeback_miss 14
Core_0_L2C_writeback_MPKI 0.00028
Core_0_L2C_writeback_miss_rate 1.88605e-05
Core_0_L2C_prefetch_requested 1169574
Core_0_L2C_prefetch_issued 1159192
Core_0_L2C_prefetch_useful 174915
Core_0_L2C_prefetch_useless 2292
Core_0_L2C_prefetch_late 46598
Core_0_L2C_prefetch_accuracy 0.150894
Core_0_L2C_prefetch_coverage 0.0987779
Core_0_L2C_total_eviction 2009142

Core_0_LLC_total_access 2785208
Core_0_LLC_total_hit 480841
Core_0_LLC_total_miss 2304367
Core_0_LLC_total_MPKI 46.0873
Core_0_LLC_total_miss_rate 0.827359
Core_0_LLC_demand_access 1538454
Core_0_LLC_demand_hit 190100
Core_0_LLC_demand_miss 1348354
Core_0_LLC_demand_MPKI 26.9671
Core_0_LLC_demand_miss_rate 0.876434
Core_0_LLC_load_access 1514495
Core_0_LLC_load_hit 185278
Core_0_LLC_load_miss 1329217
Core_0_LLC_load_MPKI 26.5843
Core_0_LLC_load_miss_rate 0.877664
Core_0_LLC_rfo_access 23959
Core_0_LLC_rfo_hit 4822
Core_0_LLC_rfo_miss 19137
Core_0_LLC_rfo_MPKI 0.38274
Core_0_LLC_rfo_miss_rate 0.79874
Core_0_LLC_prefetch_access 546714
Core_0_LLC_prefetch_hit 87641
Core_0_LLC_prefetch_miss 459073
Core_0_LLC_prefetch_MPKI 9.18146
Core_0_LLC_prefetch_miss_rate 0.839695
Core_0_LLC_writeback_access 700040
Core_0_LLC_writeback_hit 203100
Core_0_LLC_writeback_miss 496940
Core_0_LLC_writeback_MPKI 9.9388
Core_0_LLC_writeback_miss_rate 0.709874
Core_0_LLC_prefetch_requested 0
Core_0_LLC_prefetch_issued 0
Core_0_LLC_prefetch_useful 0
Core_0_LLC_prefetch_useless 0
Core_0_LLC_prefetch_late 0
Core_0_LLC_prefetch_accuracy 0
Core_0_LLC_prefetch_coverage 0
Core_0_LLC_total_eviction 2249124

[DRAM Statistics]
Channel_0_RQ_row_buffer_hit 17838
Channel_0_RQ_row_buffer_miss 1734051
Channel_0_WQ_row_buffer_hit 166005
Channel_0_WQ_row_buffer_miss 430642
Channel_0_WQ_full 762
Channel_0_dbus_congested 6447218
DRAM_total_RQ_row_buffer_hit 17838
DRAM_total_RQ_row_buffer_miss 1734051
DRAM_total_WQ_row_buffer_hit 166005
DRAM_total_WQ_row_buffer_miss 430642
DRAM_total_WQ_full 762
DRAM_total_dbus_congested 6447218
DRAM_avg_congested_cycle 6.17261

======STLB miss causes ========
Core_0_STLB_miss_cause_breakdown
Core_0_STLB_cause_Demand_Data_miss 0
Core_0_STLB_cause_Demand_Data_miss_rate 0
Core_0_STLB_cause_Demand_Instruction_miss 0
Core_0_STLB_cause_Demand_Instruction_miss_rate 0
Core_0_STLB_cause_L1D_Prefetch_miss 6519
Core_0_STLB_cause_L1D_Prefetch_miss_rate 0.00473552
Core_0_STLB_cause_L1I_Prefetch_miss 0
Core_0_STLB_cause_L1I_Prefetch_miss_rate 0
Core_0_STLB_cause_Other_miss 0
Core_0_STLB_cause_Other_miss_rate 0
Core_0_STLB_Demand_miss 0
Core_0_STLB_Demand_miss_rate 0
Core_0_STLB_L1D_Prefetch_miss 6519
Core_0_STLB_L1D_Prefetch_miss_rate 0.00473552
Core_0_STLB_Other_miss 0
Core_0_STLB_Other_miss_rate 0
BERTI TO_L1: 39778213 TO_L2: 41271027 TO_L2_BC_MSHR: 5584995
BERTI AVG_LAT: 167.185 NUM_TRACK_LATENCY: 2631636 NUM_CANT_TRACK_LATENCY: 31
BERTI CROSS_PAGE 9954462 NO_CROSS_PAGE: 71094778
BERTI FOUND_BERTI: 16331832 NO_FOUND_BERTI: 6021675
BERTI AVERAGE_ISSUED: 2.76748
