[VMEM] WARNING: physical memory size is smaller than virtual memory size.

*** ChampSim Multicore Out-of-Order Simulator ***
Warmup Instructions: 20000000
Simulation Instructions: 50000000
Number of CPUs: 1
Page size: 4096
STLB ideal mode: demand
STLB ideal fill: on
Core 0: /data2/zcq/champsim_traces_xsbench/xs.XXL100hash-563B.champsimtrace.xz
VBerti Prefetcher
BERTI HASH ENTANGLING
BERTI IP MASK ffff
Off-chip DRAM Size: 16 GiB Channels: 1 Width: 64-bit Data Rate: 3205 MT/s
Warmup halting CPU 0 at instruction 20000001 cycle 4029558 for remainder of phase
Warmup finished CPU 0 instructions: 20000001 cycles: 4029558 cumulative IPC: 4.963 (Simulation time: 00 hr 00 min 53 sec)
Warmup complete CPU 0 instructions: 20000001 cycles: 4029558 cumulative IPC: 4.963 (Simulation time: 00 hr 00 min 53 sec)
Simulation finished CPU 0 instructions: 50000000 cycles: 160248331 cumulative IPC: 0.312 (Simulation time: 00 hr 11 min 53 sec)
Simulation complete CPU 0 instructions: 50000000 cycles: 160248331 cumulative IPC: 0.312 (Simulation time: 00 hr 11 min 53 sec)

ChampSim completed all CPUs

=== Simulation ===
CPU 0 runs /data2/zcq/champsim_traces_xsbench/xs.XXL100hash-563B.champsimtrace.xz

Region of Interest Statistics

CPU 0 cumulative IPC: 0.312 instructions: 50000000 cycles: 160248331
CPU 0 Branch Prediction Accuracy: 92.96% MPKI: 10.17 Average ROB Occupancy at Mispredict: 65.99
Branch type MPKI
BRANCH_DIRECT_JUMP: 2e-05
BRANCH_INDIRECT: 0
BRANCH_CONDITIONAL: 10.17
BRANCH_DIRECT_CALL: 0
BRANCH_INDIRECT_CALL: 0
BRANCH_RETURN: 0

cpu0->cpu0_STLB TOTAL        ACCESS:     474006 HIT:     473612 MISS:        394 MSHR_MERGE:          0
cpu0->cpu0_STLB LOAD         ACCESS:     474006 HIT:     473612 MISS:        394 MSHR_MERGE:          0
cpu0->cpu0_STLB RFO          ACCESS:          0 HIT:          0 MISS:          0 MSHR_MERGE:          0
cpu0->cpu0_STLB PREFETCH     ACCESS:          0 HIT:          0 MISS:          0 MSHR_MERGE:          0
cpu0->cpu0_STLB WRITE        ACCESS:          0 HIT:          0 MISS:          0 MSHR_MERGE:          0
cpu0->cpu0_STLB TRANSLATION  ACCESS:          0 HIT:          0 MISS:          0 MSHR_MERGE:          0
cpu0->cpu0_STLB PREFETCH REQUESTED:          0 ISSUED:          0 USEFUL:          0 USELESS:          0 LATE:          0
cpu0->cpu0_STLB AVERAGE MISS LATENCY: 249.3 cycles
cpu0->cpu0_L2C TOTAL        ACCESS:    3356323 HIT:     963500 MISS:    2392823 MSHR_MERGE:      19016
cpu0->cpu0_L2C LOAD         ACCESS:    2205308 HIT:      35442 MISS:    2169866 MSHR_MERGE:       1403
cpu0->cpu0_L2C RFO          ACCESS:       4811 HIT:       4800 MISS:         11 MSHR_MERGE:          0
cpu0->cpu0_L2C PREFETCH     ACCESS:    1138781 HIT:     916238 MISS:     222543 MSHR_MERGE:      17613
cpu0->cpu0_L2C WRITE        ACCESS:       7031 HIT:       7013 MISS:         18 MSHR_MERGE:          0
cpu0->cpu0_L2C TRANSLATION  ACCESS:        392 HIT:          7 MISS:        385 MSHR_MERGE:          0
cpu0->cpu0_L2C PREFETCH REQUESTED:     309136 ISSUED:     309136 USEFUL:      21855 USELESS:     139715 LATE:       1389
cpu0->cpu0_L2C AVERAGE MISS LATENCY: 234.7 cycles
cpu0->cpu0_L1I TOTAL        ACCESS:     175697 HIT:     175697 MISS:          0 MSHR_MERGE:          0
cpu0->cpu0_L1I LOAD         ACCESS:     175697 HIT:     175697 MISS:          0 MSHR_MERGE:          0
cpu0->cpu0_L1I RFO          ACCESS:          0 HIT:          0 MISS:          0 MSHR_MERGE:          0
cpu0->cpu0_L1I PREFETCH     ACCESS:          0 HIT:          0 MISS:          0 MSHR_MERGE:          0
cpu0->cpu0_L1I WRITE        ACCESS:          0 HIT:          0 MISS:          0 MSHR_MERGE:          0
cpu0->cpu0_L1I TRANSLATION  ACCESS:          0 HIT:          0 MISS:          0 MSHR_MERGE:          0
cpu0->cpu0_L1I PREFETCH REQUESTED:          0 ISSUED:          0 USEFUL:          0 USELESS:          0 LATE:          0
cpu0->cpu0_L1I AVERAGE MISS LATENCY: - cycles
cpu0->cpu0_L1D TOTAL        ACCESS:   10754743 HIT:    7207847 MISS:    3546896 MSHR_MERGE:     506706
cpu0->cpu0_L1D LOAD         ACCESS:    6862702 HIT:    4157994 MISS:    2704708 MSHR_MERGE:     499400
cpu0->cpu0_L1D RFO          ACCESS:          0 HIT:          0 MISS:          0 MSHR_MERGE:          0
cpu0->cpu0_L1D PREFETCH     ACCESS:    2262846 HIT:    1433147 MISS:     829699 MSHR_MERGE:         36
cpu0->cpu0_L1D WRITE        ACCESS:    1628407 HIT:    1616310 MISS:      12097 MSHR_MERGE:       7270
cpu0->cpu0_L1D TRANSLATION  ACCESS:        788 HIT:        396 MISS:        392 MSHR_MERGE:          0
cpu0->cpu0_L1D PREFETCH REQUESTED:    2267580 ISSUED:    2262843 USEFUL:      65807 USELESS:      21608 LATE:         30
cpu0->cpu0_L1D AVERAGE MISS LATENCY: 239.6 cycles
cpu0->cpu0_ITLB TOTAL        ACCESS:     147153 HIT:     147153 MISS:          0 MSHR_MERGE:          0
cpu0->cpu0_ITLB LOAD         ACCESS:     147153 HIT:     147153 MISS:          0 MSHR_MERGE:          0
cpu0->cpu0_ITLB RFO          ACCESS:          0 HIT:          0 MISS:          0 MSHR_MERGE:          0
cpu0->cpu0_ITLB PREFETCH     ACCESS:          0 HIT:          0 MISS:          0 MSHR_MERGE:          0
cpu0->cpu0_ITLB WRITE        ACCESS:          0 HIT:          0 MISS:          0 MSHR_MERGE:          0
cpu0->cpu0_ITLB TRANSLATION  ACCESS:          0 HIT:          0 MISS:          0 MSHR_MERGE:          0
cpu0->cpu0_ITLB PREFETCH REQUESTED:          0 ISSUED:          0 USEFUL:          0 USELESS:          0 LATE:          0
cpu0->cpu0_ITLB AVERAGE MISS LATENCY: - cycles
cpu0->cpu0_DTLB TOTAL        ACCESS:   10078929 HIT:    9405894 MISS:     673035 MSHR_MERGE:     199030
cpu0->cpu0_DTLB LOAD         ACCESS:   10078929 HIT:    9405894 MISS:     673035 MSHR_MERGE:     199030
cpu0->cpu0_DTLB RFO          ACCESS:          0 HIT:          0 MISS:          0 MSHR_MERGE:          0
cpu0->cpu0_DTLB PREFETCH     ACCESS:          0 HIT:          0 MISS:          0 MSHR_MERGE:          0
cpu0->cpu0_DTLB WRITE        ACCESS:          0 HIT:          0 MISS:          0 MSHR_MERGE:          0
cpu0->cpu0_DTLB TRANSLATION  ACCESS:          0 HIT:          0 MISS:          0 MSHR_MERGE:          0
cpu0->cpu0_DTLB PREFETCH REQUESTED:          0 ISSUED:          0 USEFUL:          0 USELESS:          0 LATE:          0
cpu0->cpu0_DTLB AVERAGE MISS LATENCY: 5.208 cycles
cpu0->LLC TOTAL        ACCESS:    2373967 HIT:      16260 MISS:    2357707 MSHR_MERGE:          0
cpu0->LLC LOAD         ACCESS:    2168463 HIT:       5657 MISS:    2162806 MSHR_MERGE:          0
cpu0->LLC RFO          ACCESS:         11 HIT:         11 MISS:          0 MSHR_MERGE:          0
cpu0->LLC PREFETCH     ACCESS:     204930 HIT:      10366 MISS:     194564 MSHR_MERGE:          0
cpu0->LLC WRITE        ACCESS:        178 HIT:        164 MISS:         14 MSHR_MERGE:          0
cpu0->LLC TRANSLATION  ACCESS:        385 HIT:         62 MISS:        323 MSHR_MERGE:          0
cpu0->LLC PREFETCH REQUESTED:          0 ISSUED:          0 USEFUL:          0 USELESS:          0 LATE:          0
cpu0->LLC AVERAGE MISS LATENCY: 219.3 cycles

DRAM Statistics

Channel 0 RQ ROW_BUFFER_HIT:      39947
  ROW_BUFFER_MISS:    2317746
  AVG DBUS CONGESTED CYCLE: 3.009
Channel 0 WQ ROW_BUFFER_HIT:          5
  ROW_BUFFER_MISS:         15
  FULL:          0
Channel 0 REFRESHES ISSUED:      13354

[ROI Statistics]
[System Configuration]
num_cpus 1
cpu_freq 4000
fetch_width 6
decode_width 6
dispatch_width 6
execute_width 6
lq_width 2
sq_width 2
retire_width 6
scheduler_size 128
branch_mispredict_penalty 15
rob_size 352
lq_size 128
sq_size 72
ifetch_buffer_size 64
decode_buffer_size 32
dispatch_buffer_size 32
register_file_size 288
decode_latency 1
dispatch_latency 1
schedule_latency 1
execute_latency 1
page_size 4096
block_size 64
core_0_itlb_set 16
core_0_itlb_way 4
core_0_itlb_rq_size 16
core_0_itlb_wq_size 16
core_0_itlb_pq_size 0
core_0_itlb_mshr_size 8
core_0_itlb_hit_latency 1
core_0_itlb_fill_latency 1
core_0_itlb_max_tag_check 2
core_0_itlb_max_fill 2
core_0_dtlb_set 16
core_0_dtlb_way 4
core_0_dtlb_rq_size 16
core_0_dtlb_wq_size 16
core_0_dtlb_pq_size 0
core_0_dtlb_mshr_size 8
core_0_dtlb_hit_latency 1
core_0_dtlb_fill_latency 1
core_0_dtlb_max_tag_check 2
core_0_dtlb_max_fill 2
core_0_stlb_set 128
core_0_stlb_way 12
core_0_stlb_rq_size 32
core_0_stlb_wq_size 32
core_0_stlb_pq_size 0
core_0_stlb_mshr_size 16
core_0_stlb_hit_latency 4
core_0_stlb_fill_latency 4
core_0_stlb_max_tag_check 1
core_0_stlb_max_fill 1
core_0_l1i_set 64
core_0_l1i_way 8
core_0_l1i_rq_size 64
core_0_l1i_wq_size 64
core_0_l1i_pq_size 32
core_0_l1i_mshr_size 8
core_0_l1i_hit_latency 2
core_0_l1i_fill_latency 2
core_0_l1i_max_tag_check 2
core_0_l1i_max_fill 2
core_0_l1d_set 64
core_0_l1d_way 12
core_0_l1d_rq_size 64
core_0_l1d_wq_size 64
core_0_l1d_pq_size 8
core_0_l1d_mshr_size 16
core_0_l1d_hit_latency 2
core_0_l1d_fill_latency 3
core_0_l1d_max_tag_check 2
core_0_l1d_max_fill 2
core_0_l2c_set 1024
core_0_l2c_way 8
core_0_l2c_rq_size 32
core_0_l2c_wq_size 32
core_0_l2c_pq_size 16
core_0_l2c_mshr_size 32
core_0_l2c_hit_latency 5
core_0_l2c_fill_latency 5
core_0_l2c_max_tag_check 1
core_0_l2c_max_fill 1
llc_set 2048
llc_way 16
llc_rq_size 32
llc_wq_size 32
llc_pq_size 32
llc_mshr_size 64
llc_hit_latency 10
llc_fill_latency 10
llc_max_tag_check 1
llc_max_fill 1
dram_channels 1
dram_ranks 1
dram_bankgroups 8
dram_banks 4
dram_rows 65536
dram_columns 1024
dram_channel_width 8
dram_rq_size 64
dram_wq_size 64
dram_size 17179869184
core_0_itlb_prefetcher no
core_0_dtlb_prefetcher no
core_0_stlb_prefetcher no
core_0_l1i_prefetcher next_line
core_0_l1d_prefetcher vberti
core_0_l2c_prefetcher ip_stride
llc_prefetcher no
llc_replacement drrip

Core_0_instructions 50000000
Core_0_cycles 160248331
Core_0_IPC 0.312016
Core_0_branch_prediction_accuracy 92.9579
Core_0_branch_MPKI 10.1736
Core_0_average_ROB_occupancy_at_mispredict 65.9874

Core_0_ITLB_total_access 147153
Core_0_ITLB_total_hit 147153
Core_0_ITLB_total_miss 0
Core_0_ITLB_total_MPKI 0
Core_0_ITLB_total_miss_rate 0
Core_0_ITLB_demand_access 147153
Core_0_ITLB_demand_hit 147153
Core_0_ITLB_demand_miss 0
Core_0_ITLB_demand_MPKI 0
Core_0_ITLB_demand_miss_rate 0
Core_0_ITLB_load_access 147153
Core_0_ITLB_load_hit 147153
Core_0_ITLB_load_miss 0
Core_0_ITLB_load_MPKI 0
Core_0_ITLB_load_miss_rate 0
Core_0_ITLB_rfo_access 0
Core_0_ITLB_rfo_hit 0
Core_0_ITLB_rfo_miss 0
Core_0_ITLB_rfo_MPKI 0
Core_0_ITLB_rfo_miss_rate 0
Core_0_ITLB_prefetch_access 0
Core_0_ITLB_prefetch_hit 0
Core_0_ITLB_prefetch_miss 0
Core_0_ITLB_prefetch_MPKI 0
Core_0_ITLB_prefetch_miss_rate 0
Core_0_ITLB_writeback_access 0
Core_0_ITLB_writeback_hit 0
Core_0_ITLB_writeback_miss 0
Core_0_ITLB_writeback_MPKI 0
Core_0_ITLB_writeback_miss_rate 0
Core_0_ITLB_prefetch_requested 0
Core_0_ITLB_prefetch_issued 0
Core_0_ITLB_prefetch_useful 0
Core_0_ITLB_prefetch_useless 0
Core_0_ITLB_prefetch_late 0
Core_0_ITLB_prefetch_accuracy 0
Core_0_ITLB_prefetch_coverage 0
Core_0_ITLB_total_eviction 0

Core_0_DTLB_total_access 10078929
Core_0_DTLB_total_hit 9405894
Core_0_DTLB_total_miss 673035
Core_0_DTLB_total_MPKI 13.4607
Core_0_DTLB_total_miss_rate 0.0667764
Core_0_DTLB_demand_access 10078929
Core_0_DTLB_demand_hit 9405894
Core_0_DTLB_demand_miss 673035
Core_0_DTLB_demand_MPKI 13.4607
Core_0_DTLB_demand_miss_rate 0.0667764
Core_0_DTLB_load_access 10078929
Core_0_DTLB_load_hit 9405894
Core_0_DTLB_load_miss 673035
Core_0_DTLB_load_MPKI 13.4607
Core_0_DTLB_load_miss_rate 0.0667764
Core_0_DTLB_rfo_access 0
Core_0_DTLB_rfo_hit 0
Core_0_DTLB_rfo_miss 0
Core_0_DTLB_rfo_MPKI 0
Core_0_DTLB_rfo_miss_rate 0
Core_0_DTLB_prefetch_access 0
Core_0_DTLB_prefetch_hit 0
Core_0_DTLB_prefetch_miss 0
Core_0_DTLB_prefetch_MPKI 0
Core_0_DTLB_prefetch_miss_rate 0
Core_0_DTLB_writeback_access 0
Core_0_DTLB_writeback_hit 0
Core_0_DTLB_writeback_miss 0
Core_0_DTLB_writeback_MPKI 0
Core_0_DTLB_writeback_miss_rate 0
Core_0_DTLB_prefetch_requested 0
Core_0_DTLB_prefetch_issued 0
Core_0_DTLB_prefetch_useful 0
Core_0_DTLB_prefetch_useless 0
Core_0_DTLB_prefetch_late 0
Core_0_DTLB_prefetch_accuracy 0
Core_0_DTLB_prefetch_coverage 0
Core_0_DTLB_total_eviction 474006

Core_0_STLB_total_access 474006
Core_0_STLB_total_hit 473612
Core_0_STLB_total_miss 394
Core_0_STLB_total_MPKI 0.00788
Core_0_STLB_total_miss_rate 0.000831213
Core_0_STLB_demand_access 474006
Core_0_STLB_demand_hit 473612
Core_0_STLB_demand_miss 394
Core_0_STLB_demand_MPKI 0.00788
Core_0_STLB_demand_miss_rate 0.000831213
Core_0_STLB_load_access 474006
Core_0_STLB_load_hit 473612
Core_0_STLB_load_miss 394
Core_0_STLB_load_MPKI 0.00788
Core_0_STLB_load_miss_rate 0.000831213
Core_0_STLB_rfo_access 0
Core_0_STLB_rfo_hit 0
Core_0_STLB_rfo_miss 0
Core_0_STLB_rfo_MPKI 0
Core_0_STLB_rfo_miss_rate 0
Core_0_STLB_prefetch_access 0
Core_0_STLB_prefetch_hit 0
Core_0_STLB_prefetch_miss 0
Core_0_STLB_prefetch_MPKI 0
Core_0_STLB_prefetch_miss_rate 0
Core_0_STLB_writeback_access 0
Core_0_STLB_writeback_hit 0
Core_0_STLB_writeback_miss 0
Core_0_STLB_writeback_MPKI 0
Core_0_STLB_writeback_miss_rate 0
Core_0_STLB_prefetch_requested 0
Core_0_STLB_prefetch_issued 0
Core_0_STLB_prefetch_useful 0
Core_0_STLB_prefetch_useless 0
Core_0_STLB_prefetch_late 0
Core_0_STLB_prefetch_accuracy 0
Core_0_STLB_prefetch_coverage 0
Core_0_STLB_total_eviction 466868

Core_0_L1I_total_access 175697
Core_0_L1I_total_hit 175697
Core_0_L1I_total_miss 0
Core_0_L1I_total_MPKI 0
Core_0_L1I_total_miss_rate 0
Core_0_L1I_demand_access 175697
Core_0_L1I_demand_hit 175697
Core_0_L1I_demand_miss 0
Core_0_L1I_demand_MPKI 0
Core_0_L1I_demand_miss_rate 0
Core_0_L1I_load_access 175697
Core_0_L1I_load_hit 175697
Core_0_L1I_load_miss 0
Core_0_L1I_load_MPKI 0
Core_0_L1I_load_miss_rate 0
Core_0_L1I_rfo_access 0
Core_0_L1I_rfo_hit 0
Core_0_L1I_rfo_miss 0
Core_0_L1I_rfo_MPKI 0
Core_0_L1I_rfo_miss_rate 0
Core_0_L1I_prefetch_access 0
Core_0_L1I_prefetch_hit 0
Core_0_L1I_prefetch_miss 0
Core_0_L1I_prefetch_MPKI 0
Core_0_L1I_prefetch_miss_rate 0
Core_0_L1I_writeback_access 0
Core_0_L1I_writeback_hit 0
Core_0_L1I_writeback_miss 0
Core_0_L1I_writeback_MPKI 0
Core_0_L1I_writeback_miss_rate 0
Core_0_L1I_prefetch_requested 0
Core_0_L1I_prefetch_issued 0
Core_0_L1I_prefetch_useful 0
Core_0_L1I_prefetch_useless 0
Core_0_L1I_prefetch_late 0
Core_0_L1I_prefetch_accuracy 0
Core_0_L1I_prefetch_coverage 0
Core_0_L1I_total_eviction 0

Core_0_L1D_total_access 10753955
Core_0_L1D_total_hit 7207451
Core_0_L1D_total_miss 3546504
Core_0_L1D_total_MPKI 70.9301
Core_0_L1D_total_miss_rate 0.329786
Core_0_L1D_demand_access 6862702
Core_0_L1D_demand_hit 4157994
Core_0_L1D_demand_miss 2704708
Core_0_L1D_demand_MPKI 54.0942
Core_0_L1D_demand_miss_rate 0.394117
Core_0_L1D_load_access 6862702
Core_0_L1D_load_hit 4157994
Core_0_L1D_load_miss 2704708
Core_0_L1D_load_MPKI 54.0942
Core_0_L1D_load_miss_rate 0.394117
Core_0_L1D_rfo_access 0
Core_0_L1D_rfo_hit 0
Core_0_L1D_rfo_miss 0
Core_0_L1D_rfo_MPKI 0
Core_0_L1D_rfo_miss_rate 0
Core_0_L1D_prefetch_access 2262846
Core_0_L1D_prefetch_hit 1433147
Core_0_L1D_prefetch_miss 829699
Core_0_L1D_prefetch_MPKI 16.594
Core_0_L1D_prefetch_miss_rate 0.366662
Core_0_L1D_writeback_access 1628407
Core_0_L1D_writeback_hit 1616310
Core_0_L1D_writeback_miss 12097
Core_0_L1D_writeback_MPKI 0.24194
Core_0_L1D_writeback_miss_rate 0.00742873
Core_0_L1D_prefetch_requested 2267580
Core_0_L1D_prefetch_issued 2262843
Core_0_L1D_prefetch_useful 65807
Core_0_L1D_prefetch_useless 21608
Core_0_L1D_prefetch_late 30
Core_0_L1D_prefetch_accuracy 0.0290816
Core_0_L1D_prefetch_coverage 0.0237526
Core_0_L1D_total_eviction 2297931

Core_0_L2C_total_access 3355931
Core_0_L2C_total_hit 963493
Core_0_L2C_total_miss 2392438
Core_0_L2C_total_MPKI 47.8488
Core_0_L2C_total_miss_rate 0.712898
Core_0_L2C_demand_access 2210119
Core_0_L2C_demand_hit 40242
Core_0_L2C_demand_miss 2169877
Core_0_L2C_demand_MPKI 43.3975
Core_0_L2C_demand_miss_rate 0.981792
Core_0_L2C_load_access 2205308
Core_0_L2C_load_hit 35442
Core_0_L2C_load_miss 2169866
Core_0_L2C_load_MPKI 43.3973
Core_0_L2C_load_miss_rate 0.983929
Core_0_L2C_rfo_access 4811
Core_0_L2C_rfo_hit 4800
Core_0_L2C_rfo_miss 11
Core_0_L2C_rfo_MPKI 0.00022
Core_0_L2C_rfo_miss_rate 0.00228643
Core_0_L2C_prefetch_access 1138781
Core_0_L2C_prefetch_hit 916238
Core_0_L2C_prefetch_miss 222543
Core_0_L2C_prefetch_MPKI 4.45086
Core_0_L2C_prefetch_miss_rate 0.195422
Core_0_L2C_writeback_access 7031
Core_0_L2C_writeback_hit 7013
Core_0_L2C_writeback_miss 18
Core_0_L2C_writeback_MPKI 0.00036
Core_0_L2C_writeback_miss_rate 0.00256009
Core_0_L2C_prefetch_requested 309136
Core_0_L2C_prefetch_issued 309136
Core_0_L2C_prefetch_useful 21855
Core_0_L2C_prefetch_useless 139715
Core_0_L2C_prefetch_late 1389
Core_0_L2C_prefetch_accuracy 0.070697
Core_0_L2C_prefetch_coverage 0.00997157
Core_0_L2C_total_eviction 2373791

Core_0_LLC_total_access 2373582
Core_0_LLC_total_hit 16198
Core_0_LLC_total_miss 2357384
Core_0_LLC_total_MPKI 47.1477
Core_0_LLC_total_miss_rate 0.993176
Core_0_LLC_demand_access 2168474
Core_0_LLC_demand_hit 5668
Core_0_LLC_demand_miss 2162806
Core_0_LLC_demand_MPKI 43.2561
Core_0_LLC_demand_miss_rate 0.997386
Core_0_LLC_load_access 2168463
Core_0_LLC_load_hit 5657
Core_0_LLC_load_miss 2162806
Core_0_LLC_load_MPKI 43.2561
Core_0_LLC_load_miss_rate 0.997391
Core_0_LLC_rfo_access 11
Core_0_LLC_rfo_hit 11
Core_0_LLC_rfo_miss 0
Core_0_LLC_rfo_MPKI 0
Core_0_LLC_rfo_miss_rate 0
Core_0_LLC_prefetch_access 204930
Core_0_LLC_prefetch_hit 10366
Core_0_LLC_prefetch_miss 194564
Core_0_LLC_prefetch_MPKI 3.89128
Core_0_LLC_prefetch_miss_rate 0.949417
Core_0_LLC_writeback_access 178
Core_0_LLC_writeback_hit 164
Core_0_LLC_writeback_miss 14
Core_0_LLC_writeback_MPKI 0.00028
Core_0_LLC_writeback_miss_rate 0.0786517
Core_0_LLC_prefetch_requested 0
Core_0_LLC_prefetch_issued 0
Core_0_LLC_prefetch_useful 0
Core_0_LLC_prefetch_useless 0
Core_0_LLC_prefetch_late 0
Core_0_LLC_prefetch_accuracy 0
Core_0_LLC_prefetch_coverage 0
Core_0_LLC_total_eviction 2357707

[DRAM Statistics]
Channel_0_RQ_row_buffer_hit 39947
Channel_0_RQ_row_buffer_miss 2317746
Channel_0_WQ_row_buffer_hit 5
Channel_0_WQ_row_buffer_miss 15
Channel_0_WQ_full 0
Channel_0_dbus_congested 4196331
DRAM_total_RQ_row_buffer_hit 39947
DRAM_total_RQ_row_buffer_miss 2317746
DRAM_total_WQ_row_buffer_hit 5
DRAM_total_WQ_row_buffer_miss 15
DRAM_total_WQ_full 0
DRAM_total_dbus_congested 4196331
DRAM_avg_congested_cycle 3.00923

======STLB miss causes ========
Core_0_STLB_miss_cause_breakdown
Core_0_STLB_cause_Demand_Data_miss 0
Core_0_STLB_cause_Demand_Data_miss_rate 0
Core_0_STLB_cause_Demand_Instruction_miss 0
Core_0_STLB_cause_Demand_Instruction_miss_rate 0
Core_0_STLB_cause_L1D_Prefetch_miss 394
Core_0_STLB_cause_L1D_Prefetch_miss_rate 0.000831213
Core_0_STLB_cause_L1I_Prefetch_miss 0
Core_0_STLB_cause_L1I_Prefetch_miss_rate 0
Core_0_STLB_cause_Other_miss 0
Core_0_STLB_cause_Other_miss_rate 0
Core_0_STLB_Demand_miss 0
Core_0_STLB_Demand_miss_rate 0
Core_0_STLB_L1D_Prefetch_miss 394
Core_0_STLB_L1D_Prefetch_miss_rate 0.000831213
Core_0_STLB_Other_miss 0
Core_0_STLB_Other_miss_rate 0
BERTI TO_L1: 2921362 TO_L2: 1703371 TO_L2_BC_MSHR: 2
BERTI AVG_LAT: 168.023 NUM_TRACK_LATENCY: 3210312 NUM_CANT_TRACK_LATENCY: 0
BERTI CROSS_PAGE 273310 NO_CROSS_PAGE: 4351423
BERTI FOUND_BERTI: 6808033 NO_FOUND_BERTI: 4880584
BERTI AVERAGE_ISSUED: 2.34042
