[VMEM] WARNING: physical memory size is smaller than virtual memory size.

*** ChampSim Multicore Out-of-Order Simulator ***
Warmup Instructions: 20000000
Simulation Instructions: 50000000
Number of CPUs: 1
Page size: 4096
STLB ideal mode: demand
STLB ideal fill: on
Core 0: /data2/zcq/champsim_traces_xsbench/xs.XXL100nuclide-487B.champsimtrace.xz
VBerti Prefetcher
BERTI HASH ENTANGLING
BERTI IP MASK ffff
Off-chip DRAM Size: 16 GiB Channels: 1 Width: 64-bit Data Rate: 3205 MT/s
Warmup halting CPU 0 at instruction 20000003 cycle 4224457 for remainder of phase
Warmup finished CPU 0 instructions: 20000003 cycles: 4224457 cumulative IPC: 4.734 (Simulation time: 00 hr 00 min 48 sec)
Warmup complete CPU 0 instructions: 20000003 cycles: 4224457 cumulative IPC: 4.734 (Simulation time: 00 hr 00 min 48 sec)
Simulation finished CPU 0 instructions: 50000000 cycles: 259224427 cumulative IPC: 0.1929 (Simulation time: 00 hr 15 min 39 sec)
Simulation complete CPU 0 instructions: 50000000 cycles: 259224427 cumulative IPC: 0.1929 (Simulation time: 00 hr 15 min 39 sec)

ChampSim completed all CPUs

=== Simulation ===
CPU 0 runs /data2/zcq/champsim_traces_xsbench/xs.XXL100nuclide-487B.champsimtrace.xz

Region of Interest Statistics

CPU 0 cumulative IPC: 0.1929 instructions: 50000000 cycles: 259224427
CPU 0 Branch Prediction Accuracy: 87.25% MPKI: 21.5 Average ROB Occupancy at Mispredict: 26.29
Branch type MPKI
BRANCH_DIRECT_JUMP: 0
BRANCH_INDIRECT: 0
BRANCH_CONDITIONAL: 21.5
BRANCH_DIRECT_CALL: 0
BRANCH_INDIRECT_CALL: 0
BRANCH_RETURN: 0

cpu0->cpu0_STLB TOTAL        ACCESS:    1993980 HIT:    1993071 MISS:        909 MSHR_MERGE:          0
cpu0->cpu0_STLB LOAD         ACCESS:    1993980 HIT:    1993071 MISS:        909 MSHR_MERGE:          0
cpu0->cpu0_STLB RFO          ACCESS:          0 HIT:          0 MISS:          0 MSHR_MERGE:          0
cpu0->cpu0_STLB PREFETCH     ACCESS:          0 HIT:          0 MISS:          0 MSHR_MERGE:          0
cpu0->cpu0_STLB WRITE        ACCESS:          0 HIT:          0 MISS:          0 MSHR_MERGE:          0
cpu0->cpu0_STLB TRANSLATION  ACCESS:          0 HIT:          0 MISS:          0 MSHR_MERGE:          0
cpu0->cpu0_STLB PREFETCH REQUESTED:          0 ISSUED:          0 USEFUL:          0 USELESS:          0 LATE:          0
cpu0->cpu0_STLB AVERAGE MISS LATENCY: 26.7 cycles
cpu0->cpu0_L2C TOTAL        ACCESS:    3523693 HIT:     670934 MISS:    2852759 MSHR_MERGE:       3149
cpu0->cpu0_L2C LOAD         ACCESS:    2968286 HIT:     213875 MISS:    2754411 MSHR_MERGE:          0
cpu0->cpu0_L2C RFO          ACCESS:       3272 HIT:       3230 MISS:         42 MSHR_MERGE:          0
cpu0->cpu0_L2C PREFETCH     ACCESS:     545424 HIT:     447434 MISS:      97990 MSHR_MERGE:       3149
cpu0->cpu0_L2C WRITE        ACCESS:       5844 HIT:       5791 MISS:         53 MSHR_MERGE:          0
cpu0->cpu0_L2C TRANSLATION  ACCESS:        867 HIT:        604 MISS:        263 MSHR_MERGE:          0
cpu0->cpu0_L2C PREFETCH REQUESTED:     128887 ISSUED:     128887 USEFUL:       2681 USELESS:      66835 LATE:          0
cpu0->cpu0_L2C AVERAGE MISS LATENCY: 179 cycles
cpu0->cpu0_L1I TOTAL        ACCESS:      10937 HIT:      10937 MISS:          0 MSHR_MERGE:          0
cpu0->cpu0_L1I LOAD         ACCESS:      10937 HIT:      10937 MISS:          0 MSHR_MERGE:          0
cpu0->cpu0_L1I RFO          ACCESS:          0 HIT:          0 MISS:          0 MSHR_MERGE:          0
cpu0->cpu0_L1I PREFETCH     ACCESS:          0 HIT:          0 MISS:          0 MSHR_MERGE:          0
cpu0->cpu0_L1I WRITE        ACCESS:          0 HIT:          0 MISS:          0 MSHR_MERGE:          0
cpu0->cpu0_L1I TRANSLATION  ACCESS:          0 HIT:          0 MISS:          0 MSHR_MERGE:          0
cpu0->cpu0_L1I PREFETCH REQUESTED:          0 ISSUED:          0 USEFUL:          0 USELESS:          0 LATE:          0
cpu0->cpu0_L1I AVERAGE MISS LATENCY: - cycles
cpu0->cpu0_L1D TOTAL        ACCESS:    6770979 HIT:    3320527 MISS:    3450452 MSHR_MERGE:      61485
cpu0->cpu0_L1D LOAD         ACCESS:    4775139 HIT:    1757531 MISS:    3017608 MSHR_MERGE:      49322
cpu0->cpu0_L1D RFO          ACCESS:          0 HIT:          0 MISS:          0 MSHR_MERGE:          0
cpu0->cpu0_L1D PREFETCH     ACCESS:    1089732 HIT:     673195 MISS:     416537 MSHR_MERGE:          0
cpu0->cpu0_L1D WRITE        ACCESS:     904290 HIT:     888850 MISS:      15440 MSHR_MERGE:      12163
cpu0->cpu0_L1D TRANSLATION  ACCESS:       1818 HIT:        951 MISS:        867 MSHR_MERGE:          0
cpu0->cpu0_L1D PREFETCH REQUESTED:    1227846 ISSUED:    1089732 USEFUL:      21163 USELESS:      20501 LATE:        136
cpu0->cpu0_L1D AVERAGE MISS LATENCY: 174.9 cycles
cpu0->cpu0_ITLB TOTAL        ACCESS:       8839 HIT:       8839 MISS:          0 MSHR_MERGE:          0
cpu0->cpu0_ITLB LOAD         ACCESS:       8839 HIT:       8839 MISS:          0 MSHR_MERGE:          0
cpu0->cpu0_ITLB RFO          ACCESS:          0 HIT:          0 MISS:          0 MSHR_MERGE:          0
cpu0->cpu0_ITLB PREFETCH     ACCESS:          0 HIT:          0 MISS:          0 MSHR_MERGE:          0
cpu0->cpu0_ITLB WRITE        ACCESS:          0 HIT:          0 MISS:          0 MSHR_MERGE:          0
cpu0->cpu0_ITLB TRANSLATION  ACCESS:          0 HIT:          0 MISS:          0 MSHR_MERGE:          0
cpu0->cpu0_ITLB PREFETCH REQUESTED:          0 ISSUED:          0 USEFUL:          0 USELESS:          0 LATE:          0
cpu0->cpu0_ITLB AVERAGE MISS LATENCY: - cycles
cpu0->cpu0_DTLB TOTAL        ACCESS:    6449928 HIT:    4397058 MISS:    2052870 MSHR_MERGE:      58890
cpu0->cpu0_DTLB LOAD         ACCESS:    6449928 HIT:    4397058 MISS:    2052870 MSHR_MERGE:      58890
cpu0->cpu0_DTLB RFO          ACCESS:          0 HIT:          0 MISS:          0 MSHR_MERGE:          0
cpu0->cpu0_DTLB PREFETCH     ACCESS:          0 HIT:          0 MISS:          0 MSHR_MERGE:          0
cpu0->cpu0_DTLB WRITE        ACCESS:          0 HIT:          0 MISS:          0 MSHR_MERGE:          0
cpu0->cpu0_DTLB TRANSLATION  ACCESS:          0 HIT:          0 MISS:          0 MSHR_MERGE:          0
cpu0->cpu0_DTLB PREFETCH REQUESTED:          0 ISSUED:          0 USEFUL:          0 USELESS:          0 LATE:          0
cpu0->cpu0_DTLB AVERAGE MISS LATENCY: 5.017 cycles
cpu0->LLC TOTAL        ACCESS:    2850779 HIT:     601259 MISS:    2249520 MSHR_MERGE:          0
cpu0->LLC LOAD         ACCESS:    2754411 HIT:     573796 MISS:    2180615 MSHR_MERGE:          0
cpu0->LLC RFO          ACCESS:         42 HIT:         42 MISS:          0 MSHR_MERGE:          0
cpu0->LLC PREFETCH     ACCESS:      94841 HIT:      25954 MISS:      68887 MSHR_MERGE:          0
cpu0->LLC WRITE        ACCESS:       1222 HIT:       1219 MISS:          3 MSHR_MERGE:          0
cpu0->LLC TRANSLATION  ACCESS:        263 HIT:        248 MISS:         15 MSHR_MERGE:          0
cpu0->LLC PREFETCH REQUESTED:          0 ISSUED:          0 USEFUL:          0 USELESS:          0 LATE:          0
cpu0->LLC AVERAGE MISS LATENCY: 206.2 cycles

DRAM Statistics

Channel 0 RQ ROW_BUFFER_HIT:      14729
  ROW_BUFFER_MISS:    2234788
  AVG DBUS CONGESTED CYCLE: 2.978
Channel 0 WQ ROW_BUFFER_HIT:          5
  ROW_BUFFER_MISS:         26
  FULL:          0
Channel 0 REFRESHES ISSUED:      21602

[ROI Statistics]
[System Configuration]
num_cpus 1
cpu_freq 4000
fetch_width 6
decode_width 6
dispatch_width 6
execute_width 6
lq_width 2
sq_width 2
retire_width 6
scheduler_size 128
branch_mispredict_penalty 15
rob_size 352
lq_size 128
sq_size 72
ifetch_buffer_size 64
decode_buffer_size 32
dispatch_buffer_size 32
register_file_size 288
decode_latency 1
dispatch_latency 1
schedule_latency 1
execute_latency 1
page_size 4096
block_size 64
core_0_itlb_set 16
core_0_itlb_way 4
core_0_itlb_rq_size 16
core_0_itlb_wq_size 16
core_0_itlb_pq_size 0
core_0_itlb_mshr_size 8
core_0_itlb_hit_latency 1
core_0_itlb_fill_latency 1
core_0_itlb_max_tag_check 2
core_0_itlb_max_fill 2
core_0_dtlb_set 16
core_0_dtlb_way 4
core_0_dtlb_rq_size 16
core_0_dtlb_wq_size 16
core_0_dtlb_pq_size 0
core_0_dtlb_mshr_size 8
core_0_dtlb_hit_latency 1
core_0_dtlb_fill_latency 1
core_0_dtlb_max_tag_check 2
core_0_dtlb_max_fill 2
core_0_stlb_set 128
core_0_stlb_way 12
core_0_stlb_rq_size 32
core_0_stlb_wq_size 32
core_0_stlb_pq_size 0
core_0_stlb_mshr_size 16
core_0_stlb_hit_latency 4
core_0_stlb_fill_latency 4
core_0_stlb_max_tag_check 1
core_0_stlb_max_fill 1
core_0_l1i_set 64
core_0_l1i_way 8
core_0_l1i_rq_size 64
core_0_l1i_wq_size 64
core_0_l1i_pq_size 32
core_0_l1i_mshr_size 8
core_0_l1i_hit_latency 2
core_0_l1i_fill_latency 2
core_0_l1i_max_tag_check 2
core_0_l1i_max_fill 2
core_0_l1d_set 64
core_0_l1d_way 12
core_0_l1d_rq_size 64
core_0_l1d_wq_size 64
core_0_l1d_pq_size 8
core_0_l1d_mshr_size 16
core_0_l1d_hit_latency 2
core_0_l1d_fill_latency 3
core_0_l1d_max_tag_check 2
core_0_l1d_max_fill 2
core_0_l2c_set 1024
core_0_l2c_way 8
core_0_l2c_rq_size 32
core_0_l2c_wq_size 32
core_0_l2c_pq_size 16
core_0_l2c_mshr_size 32
core_0_l2c_hit_latency 5
core_0_l2c_fill_latency 5
core_0_l2c_max_tag_check 1
core_0_l2c_max_fill 1
llc_set 2048
llc_way 16
llc_rq_size 32
llc_wq_size 32
llc_pq_size 32
llc_mshr_size 64
llc_hit_latency 10
llc_fill_latency 10
llc_max_tag_check 1
llc_max_fill 1
dram_channels 1
dram_ranks 1
dram_bankgroups 8
dram_banks 4
dram_rows 65536
dram_columns 1024
dram_channel_width 8
dram_rq_size 64
dram_wq_size 64
dram_size 17179869184
core_0_itlb_prefetcher no
core_0_dtlb_prefetcher no
core_0_stlb_prefetcher no
core_0_l1i_prefetcher next_line
core_0_l1d_prefetcher vberti
core_0_l2c_prefetcher ip_stride
llc_prefetcher no
llc_replacement drrip

Core_0_instructions 50000000
Core_0_cycles 259224427
Core_0_IPC 0.192883
Core_0_branch_prediction_accuracy 87.2468
Core_0_branch_MPKI 21.498
Core_0_average_ROB_occupancy_at_mispredict 26.2868

Core_0_ITLB_total_access 8839
Core_0_ITLB_total_hit 8839
Core_0_ITLB_total_miss 0
Core_0_ITLB_total_MPKI 0
Core_0_ITLB_total_miss_rate 0
Core_0_ITLB_demand_access 8839
Core_0_ITLB_demand_hit 8839
Core_0_ITLB_demand_miss 0
Core_0_ITLB_demand_MPKI 0
Core_0_ITLB_demand_miss_rate 0
Core_0_ITLB_load_access 8839
Core_0_ITLB_load_hit 8839
Core_0_ITLB_load_miss 0
Core_0_ITLB_load_MPKI 0
Core_0_ITLB_load_miss_rate 0
Core_0_ITLB_rfo_access 0
Core_0_ITLB_rfo_hit 0
Core_0_ITLB_rfo_miss 0
Core_0_ITLB_rfo_MPKI 0
Core_0_ITLB_rfo_miss_rate 0
Core_0_ITLB_prefetch_access 0
Core_0_ITLB_prefetch_hit 0
Core_0_ITLB_prefetch_miss 0
Core_0_ITLB_prefetch_MPKI 0
Core_0_ITLB_prefetch_miss_rate 0
Core_0_ITLB_writeback_access 0
Core_0_ITLB_writeback_hit 0
Core_0_ITLB_writeback_miss 0
Core_0_ITLB_writeback_MPKI 0
Core_0_ITLB_writeback_miss_rate 0
Core_0_ITLB_prefetch_requested 0
Core_0_ITLB_prefetch_issued 0
Core_0_ITLB_prefetch_useful 0
Core_0_ITLB_prefetch_useless 0
Core_0_ITLB_prefetch_late 0
Core_0_ITLB_prefetch_accuracy 0
Core_0_ITLB_prefetch_coverage 0
Core_0_ITLB_total_eviction 0

Core_0_DTLB_total_access 6449928
Core_0_DTLB_total_hit 4397058
Core_0_DTLB_total_miss 2052870
Core_0_DTLB_total_MPKI 41.0574
Core_0_DTLB_total_miss_rate 0.318278
Core_0_DTLB_demand_access 6449928
Core_0_DTLB_demand_hit 4397058
Core_0_DTLB_demand_miss 2052870
Core_0_DTLB_demand_MPKI 41.0574
Core_0_DTLB_demand_miss_rate 0.318278
Core_0_DTLB_load_access 6449928
Core_0_DTLB_load_hit 4397058
Core_0_DTLB_load_miss 2052870
Core_0_DTLB_load_MPKI 41.0574
Core_0_DTLB_load_miss_rate 0.318278
Core_0_DTLB_rfo_access 0
Core_0_DTLB_rfo_hit 0
Core_0_DTLB_rfo_miss 0
Core_0_DTLB_rfo_MPKI 0
Core_0_DTLB_rfo_miss_rate 0
Core_0_DTLB_prefetch_access 0
Core_0_DTLB_prefetch_hit 0
Core_0_DTLB_prefetch_miss 0
Core_0_DTLB_prefetch_MPKI 0
Core_0_DTLB_prefetch_miss_rate 0
Core_0_DTLB_writeback_access 0
Core_0_DTLB_writeback_hit 0
Core_0_DTLB_writeback_miss 0
Core_0_DTLB_writeback_MPKI 0
Core_0_DTLB_writeback_miss_rate 0
Core_0_DTLB_prefetch_requested 0
Core_0_DTLB_prefetch_issued 0
Core_0_DTLB_prefetch_useful 0
Core_0_DTLB_prefetch_useless 0
Core_0_DTLB_prefetch_late 0
Core_0_DTLB_prefetch_accuracy 0
Core_0_DTLB_prefetch_coverage 0
Core_0_DTLB_total_eviction 1993980

Core_0_STLB_total_access 1993980
Core_0_STLB_total_hit 1993071
Core_0_STLB_total_miss 909
Core_0_STLB_total_MPKI 0.01818
Core_0_STLB_total_miss_rate 0.000455872
Core_0_STLB_demand_access 1993980
Core_0_STLB_demand_hit 1993071
Core_0_STLB_demand_miss 909
Core_0_STLB_demand_MPKI 0.01818
Core_0_STLB_demand_miss_rate 0.000455872
Core_0_STLB_load_access 1993980
Core_0_STLB_load_hit 1993071
Core_0_STLB_load_miss 909
Core_0_STLB_load_MPKI 0.01818
Core_0_STLB_load_miss_rate 0.000455872
Core_0_STLB_rfo_access 0
Core_0_STLB_rfo_hit 0
Core_0_STLB_rfo_miss 0
Core_0_STLB_rfo_MPKI 0
Core_0_STLB_rfo_miss_rate 0
Core_0_STLB_prefetch_access 0
Core_0_STLB_prefetch_hit 0
Core_0_STLB_prefetch_miss 0
Core_0_STLB_prefetch_MPKI 0
Core_0_STLB_prefetch_miss_rate 0
Core_0_STLB_writeback_access 0
Core_0_STLB_writeback_hit 0
Core_0_STLB_writeback_miss 0
Core_0_STLB_writeback_MPKI 0
Core_0_STLB_writeback_miss_rate 0
Core_0_STLB_prefetch_requested 0
Core_0_STLB_prefetch_issued 0
Core_0_STLB_prefetch_useful 0
Core_0_STLB_prefetch_useless 0
Core_0_STLB_prefetch_late 0
Core_0_STLB_prefetch_accuracy 0
Core_0_STLB_prefetch_coverage 0
Core_0_STLB_total_eviction 1924566

Core_0_L1I_total_access 10937
Core_0_L1I_total_hit 10937
Core_0_L1I_total_miss 0
Core_0_L1I_total_MPKI 0
Core_0_L1I_total_miss_rate 0
Core_0_L1I_demand_access 10937
Core_0_L1I_demand_hit 10937
Core_0_L1I_demand_miss 0
Core_0_L1I_demand_MPKI 0
Core_0_L1I_demand_miss_rate 0
Core_0_L1I_load_access 10937
Core_0_L1I_load_hit 10937
Core_0_L1I_load_miss 0
Core_0_L1I_load_MPKI 0
Core_0_L1I_load_miss_rate 0
Core_0_L1I_rfo_access 0
Core_0_L1I_rfo_hit 0
Core_0_L1I_rfo_miss 0
Core_0_L1I_rfo_MPKI 0
Core_0_L1I_rfo_miss_rate 0
Core_0_L1I_prefetch_access 0
Core_0_L1I_prefetch_hit 0
Core_0_L1I_prefetch_miss 0
Core_0_L1I_prefetch_MPKI 0
Core_0_L1I_prefetch_miss_rate 0
Core_0_L1I_writeback_access 0
Core_0_L1I_writeback_hit 0
Core_0_L1I_writeback_miss 0
Core_0_L1I_writeback_MPKI 0
Core_0_L1I_writeback_miss_rate 0
Core_0_L1I_prefetch_requested 0
Core_0_L1I_prefetch_issued 0
Core_0_L1I_prefetch_useful 0
Core_0_L1I_prefetch_useless 0
Core_0_L1I_prefetch_late 0
Core_0_L1I_prefetch_accuracy 0
Core_0_L1I_prefetch_coverage 0
Core_0_L1I_total_eviction 0

Core_0_L1D_total_access 6769161
Core_0_L1D_total_hit 3319576
Core_0_L1D_total_miss 3449585
Core_0_L1D_total_MPKI 68.9917
Core_0_L1D_total_miss_rate 0.509603
Core_0_L1D_demand_access 4775139
Core_0_L1D_demand_hit 1757531
Core_0_L1D_demand_miss 3017608
Core_0_L1D_demand_MPKI 60.3522
Core_0_L1D_demand_miss_rate 0.631941
Core_0_L1D_load_access 4775139
Core_0_L1D_load_hit 1757531
Core_0_L1D_load_miss 3017608
Core_0_L1D_load_MPKI 60.3522
Core_0_L1D_load_miss_rate 0.631941
Core_0_L1D_rfo_access 0
Core_0_L1D_rfo_hit 0
Core_0_L1D_rfo_miss 0
Core_0_L1D_rfo_MPKI 0
Core_0_L1D_rfo_miss_rate 0
Core_0_L1D_prefetch_access 1089732
Core_0_L1D_prefetch_hit 673195
Core_0_L1D_prefetch_miss 416537
Core_0_L1D_prefetch_MPKI 8.33074
Core_0_L1D_prefetch_miss_rate 0.382238
Core_0_L1D_writeback_access 904290
Core_0_L1D_writeback_hit 888850
Core_0_L1D_writeback_miss 15440
Core_0_L1D_writeback_MPKI 0.3088
Core_0_L1D_writeback_miss_rate 0.0170742
Core_0_L1D_prefetch_requested 1227846
Core_0_L1D_prefetch_issued 1089732
Core_0_L1D_prefetch_useful 21163
Core_0_L1D_prefetch_useless 20501
Core_0_L1D_prefetch_late 136
Core_0_L1D_prefetch_accuracy 0.0194204
Core_0_L1D_prefetch_coverage 0.00696433
Core_0_L1D_total_eviction 3014084

Core_0_L2C_total_access 3522826
Core_0_L2C_total_hit 670330
Core_0_L2C_total_miss 2852496
Core_0_L2C_total_MPKI 57.0499
Core_0_L2C_total_miss_rate 0.809718
Core_0_L2C_demand_access 2971558
Core_0_L2C_demand_hit 217105
Core_0_L2C_demand_miss 2754453
Core_0_L2C_demand_MPKI 55.0891
Core_0_L2C_demand_miss_rate 0.926939
Core_0_L2C_load_access 2968286
Core_0_L2C_load_hit 213875
Core_0_L2C_load_miss 2754411
Core_0_L2C_load_MPKI 55.0882
Core_0_L2C_load_miss_rate 0.927947
Core_0_L2C_rfo_access 3272
Core_0_L2C_rfo_hit 3230
Core_0_L2C_rfo_miss 42
Core_0_L2C_rfo_MPKI 0.00084
Core_0_L2C_rfo_miss_rate 0.0128362
Core_0_L2C_prefetch_access 545424
Core_0_L2C_prefetch_hit 447434
Core_0_L2C_prefetch_miss 97990
Core_0_L2C_prefetch_MPKI 1.9598
Core_0_L2C_prefetch_miss_rate 0.179658
Core_0_L2C_writeback_access 5844
Core_0_L2C_writeback_hit 5791
Core_0_L2C_writeback_miss 53
Core_0_L2C_writeback_MPKI 0.00106
Core_0_L2C_writeback_miss_rate 0.00906913
Core_0_L2C_prefetch_requested 128887
Core_0_L2C_prefetch_issued 128887
Core_0_L2C_prefetch_useful 2681
Core_0_L2C_prefetch_useless 66835
Core_0_L2C_prefetch_late 0
Core_0_L2C_prefetch_accuracy 0.0208012
Core_0_L2C_prefetch_coverage 0.000972387
Core_0_L2C_total_eviction 2849606

Core_0_LLC_total_access 2850516
Core_0_LLC_total_hit 601011
Core_0_LLC_total_miss 2249505
Core_0_LLC_total_MPKI 44.9901
Core_0_LLC_total_miss_rate 0.789157
Core_0_LLC_demand_access 2754453
Core_0_LLC_demand_hit 573838
Core_0_LLC_demand_miss 2180615
Core_0_LLC_demand_MPKI 43.6123
Core_0_LLC_demand_miss_rate 0.791669
Core_0_LLC_load_access 2754411
Core_0_LLC_load_hit 573796
Core_0_LLC_load_miss 2180615
Core_0_LLC_load_MPKI 43.6123
Core_0_LLC_load_miss_rate 0.791681
Core_0_LLC_rfo_access 42
Core_0_LLC_rfo_hit 42
Core_0_LLC_rfo_miss 0
Core_0_LLC_rfo_MPKI 0
Core_0_LLC_rfo_miss_rate 0
Core_0_LLC_prefetch_access 94841
Core_0_LLC_prefetch_hit 25954
Core_0_LLC_prefetch_miss 68887
Core_0_LLC_prefetch_MPKI 1.37774
Core_0_LLC_prefetch_miss_rate 0.726342
Core_0_LLC_writeback_access 1222
Core_0_LLC_writeback_hit 1219
Core_0_LLC_writeback_miss 3
Core_0_LLC_writeback_MPKI 6e-05
Core_0_LLC_writeback_miss_rate 0.00245499
Core_0_LLC_prefetch_requested 0
Core_0_LLC_prefetch_issued 0
Core_0_LLC_prefetch_useful 0
Core_0_LLC_prefetch_useless 0
Core_0_LLC_prefetch_late 0
Core_0_LLC_prefetch_accuracy 0
Core_0_LLC_prefetch_coverage 0
Core_0_LLC_total_eviction 2249520

[DRAM Statistics]
Channel_0_RQ_row_buffer_hit 14729
Channel_0_RQ_row_buffer_miss 2234788
Channel_0_WQ_row_buffer_hit 5
Channel_0_WQ_row_buffer_miss 26
Channel_0_WQ_full 0
Channel_0_dbus_congested 2967168
DRAM_total_RQ_row_buffer_hit 14729
DRAM_total_RQ_row_buffer_miss 2234788
DRAM_total_WQ_row_buffer_hit 5
DRAM_total_WQ_row_buffer_miss 26
DRAM_total_WQ_full 0
DRAM_total_dbus_congested 2967168
DRAM_avg_congested_cycle 2.97824

======STLB miss causes ========
Core_0_STLB_miss_cause_breakdown
Core_0_STLB_cause_Demand_Data_miss 0
Core_0_STLB_cause_Demand_Data_miss_rate 0
Core_0_STLB_cause_Demand_Instruction_miss 0
Core_0_STLB_cause_Demand_Instruction_miss_rate 0
Core_0_STLB_cause_L1D_Prefetch_miss 909
Core_0_STLB_cause_L1D_Prefetch_miss_rate 0.000455872
Core_0_STLB_cause_L1I_Prefetch_miss 0
Core_0_STLB_cause_L1I_Prefetch_miss_rate 0
Core_0_STLB_cause_Other_miss 0
Core_0_STLB_cause_Other_miss_rate 0
Core_0_STLB_Demand_miss 0
Core_0_STLB_Demand_miss_rate 0
Core_0_STLB_L1D_Prefetch_miss 909
Core_0_STLB_L1D_Prefetch_miss_rate 0.000455872
Core_0_STLB_Other_miss 0
Core_0_STLB_Other_miss_rate 0
BERTI TO_L1: 1187046 TO_L2: 880679 TO_L2_BC_MSHR: 0
BERTI AVG_LAT: 125.314 NUM_TRACK_LATENCY: 4206469 NUM_CANT_TRACK_LATENCY: 0
BERTI CROSS_PAGE 220134 NO_CROSS_PAGE: 1847591
BERTI FOUND_BERTI: 5483951 NO_FOUND_BERTI: 2452385
BERTI AVERAGE_ISSUED: 3.51446
