[VMEM] WARNING: physical memory size is smaller than virtual memory size.

*** ChampSim Multicore Out-of-Order Simulator ***
Warmup Instructions: 20000000
Simulation Instructions: 50000000
Number of CPUs: 1
Page size: 4096
Core 0: /data0/tzh/champsim_traces/SPEC17/620.omnetpp_s-141B.champsimtrace.xz
Off-chip DRAM Size: 4 GiB Channels: 1 Width: 64-bit Data Rate: 3205 MT/s
Warmup halting CPU 0 at instruction 20000001 cycle 7673254 for remainder of phase
Warmup finished CPU 0 instructions: 20000001 cycles: 7673254 cumulative IPC: 2.606 (Simulation time: 00 hr 01 min 35 sec)
Warmup complete CPU 0 instructions: 20000001 cycles: 7673254 cumulative IPC: 2.606 (Simulation time: 00 hr 01 min 35 sec)
Simulation finished CPU 0 instructions: 50000000 cycles: 105102665 cumulative IPC: 0.4757 (Simulation time: 00 hr 12 min 01 sec)
Simulation complete CPU 0 instructions: 50000000 cycles: 105102665 cumulative IPC: 0.4757 (Simulation time: 00 hr 12 min 01 sec)

ChampSim completed all CPUs

=== Simulation ===
CPU 0 runs /data0/tzh/champsim_traces/SPEC17/620.omnetpp_s-141B.champsimtrace.xz

Region of Interest Statistics

CPU 0 cumulative IPC: 0.4757 instructions: 50000000 cycles: 105102665
CPU 0 Branch Prediction Accuracy: 93.7% MPKI: 13.25 Average ROB Occupancy at Mispredict: 70.73
Branch type MPKI
BRANCH_DIRECT_JUMP: 0.8235
BRANCH_INDIRECT: 0.3613
BRANCH_CONDITIONAL: 10.75
BRANCH_DIRECT_CALL: 0.00136
BRANCH_INDIRECT_CALL: 0.8598
BRANCH_RETURN: 0.4496

cpu0->cpu0_STLB TOTAL        ACCESS:    1039401 HIT:     796125 MISS:     243276 MSHR_MERGE:          0
cpu0->cpu0_STLB LOAD         ACCESS:    1039401 HIT:     796125 MISS:     243276 MSHR_MERGE:          0
cpu0->cpu0_STLB RFO          ACCESS:          0 HIT:          0 MISS:          0 MSHR_MERGE:          0
cpu0->cpu0_STLB PREFETCH     ACCESS:          0 HIT:          0 MISS:          0 MSHR_MERGE:          0
cpu0->cpu0_STLB WRITE        ACCESS:          0 HIT:          0 MISS:          0 MSHR_MERGE:          0
cpu0->cpu0_STLB TRANSLATION  ACCESS:          0 HIT:          0 MISS:          0 MSHR_MERGE:          0
cpu0->cpu0_STLB PREFETCH REQUESTED:          0 ISSUED:          0 USEFUL:          0 USELESS:          0 LATE:          0
cpu0->cpu0_STLB AVERAGE MISS LATENCY: 64.22 cycles
cpu0->cpu0_L2C TOTAL        ACCESS:    1635651 HIT:     793663 MISS:     841988 MSHR_MERGE:          0
cpu0->cpu0_L2C LOAD         ACCESS:     841452 HIT:     230064 MISS:     611388 MSHR_MERGE:          0
cpu0->cpu0_L2C RFO          ACCESS:     112695 HIT:      25368 MISS:      87327 MSHR_MERGE:          0
cpu0->cpu0_L2C PREFETCH     ACCESS:          0 HIT:          0 MISS:          0 MSHR_MERGE:          0
cpu0->cpu0_L2C WRITE        ACCESS:     464426 HIT:     463553 MISS:        873 MSHR_MERGE:          0
cpu0->cpu0_L2C TRANSLATION  ACCESS:     217078 HIT:      74678 MISS:     142400 MSHR_MERGE:          0
cpu0->cpu0_L2C PREFETCH REQUESTED:          0 ISSUED:          0 USEFUL:          0 USELESS:          0 LATE:          0
cpu0->cpu0_L2C AVERAGE MISS LATENCY: 139.8 cycles
cpu0->cpu0_L1I TOTAL        ACCESS:     495390 HIT:     495034 MISS:        356 MSHR_MERGE:         44
cpu0->cpu0_L1I LOAD         ACCESS:     495390 HIT:     495034 MISS:        356 MSHR_MERGE:         44
cpu0->cpu0_L1I RFO          ACCESS:          0 HIT:          0 MISS:          0 MSHR_MERGE:          0
cpu0->cpu0_L1I PREFETCH     ACCESS:          0 HIT:          0 MISS:          0 MSHR_MERGE:          0
cpu0->cpu0_L1I WRITE        ACCESS:          0 HIT:          0 MISS:          0 MSHR_MERGE:          0
cpu0->cpu0_L1I TRANSLATION  ACCESS:          0 HIT:          0 MISS:          0 MSHR_MERGE:          0
cpu0->cpu0_L1I PREFETCH REQUESTED:          0 ISSUED:          0 USEFUL:          0 USELESS:          0 LATE:          0
cpu0->cpu0_L1I AVERAGE MISS LATENCY: 201.9 cycles
cpu0->cpu0_L1D TOTAL        ACCESS:   19551596 HIT:   17895154 MISS:    1656442 MSHR_MERGE:     485526
cpu0->cpu0_L1D LOAD         ACCESS:   10116591 HIT:    9028033 MISS:    1088558 MSHR_MERGE:     247418
cpu0->cpu0_L1D RFO          ACCESS:          0 HIT:          0 MISS:          0 MSHR_MERGE:          0
cpu0->cpu0_L1D PREFETCH     ACCESS:          0 HIT:          0 MISS:          0 MSHR_MERGE:          0
cpu0->cpu0_L1D WRITE        ACCESS:    8849665 HIT:    8499115 MISS:     350550 MSHR_MERGE:     237852
cpu0->cpu0_L1D TRANSLATION  ACCESS:     585340 HIT:     368006 MISS:     217334 MSHR_MERGE:        256
cpu0->cpu0_L1D PREFETCH REQUESTED:          0 ISSUED:          0 USEFUL:          0 USELESS:          0 LATE:          0
cpu0->cpu0_L1D AVERAGE MISS LATENCY: 109.2 cycles
cpu0->cpu0_ITLB TOTAL        ACCESS:     441734 HIT:     430655 MISS:      11079 MSHR_MERGE:       5963
cpu0->cpu0_ITLB LOAD         ACCESS:     441734 HIT:     430655 MISS:      11079 MSHR_MERGE:       5963
cpu0->cpu0_ITLB RFO          ACCESS:          0 HIT:          0 MISS:          0 MSHR_MERGE:          0
cpu0->cpu0_ITLB PREFETCH     ACCESS:          0 HIT:          0 MISS:          0 MSHR_MERGE:          0
cpu0->cpu0_ITLB WRITE        ACCESS:          0 HIT:          0 MISS:          0 MSHR_MERGE:          0
cpu0->cpu0_ITLB TRANSLATION  ACCESS:          0 HIT:          0 MISS:          0 MSHR_MERGE:          0
cpu0->cpu0_ITLB PREFETCH REQUESTED:          0 ISSUED:          0 USEFUL:          0 USELESS:          0 LATE:          0
cpu0->cpu0_ITLB AVERAGE MISS LATENCY: 13.35 cycles
cpu0->cpu0_DTLB TOTAL        ACCESS:   18068073 HIT:   16836892 MISS:    1231181 MSHR_MERGE:     196896
cpu0->cpu0_DTLB LOAD         ACCESS:   18068073 HIT:   16836892 MISS:    1231181 MSHR_MERGE:     196896
cpu0->cpu0_DTLB RFO          ACCESS:          0 HIT:          0 MISS:          0 MSHR_MERGE:          0
cpu0->cpu0_DTLB PREFETCH     ACCESS:          0 HIT:          0 MISS:          0 MSHR_MERGE:          0
cpu0->cpu0_DTLB WRITE        ACCESS:          0 HIT:          0 MISS:          0 MSHR_MERGE:          0
cpu0->cpu0_DTLB TRANSLATION  ACCESS:          0 HIT:          0 MISS:          0 MSHR_MERGE:          0
cpu0->cpu0_DTLB PREFETCH REQUESTED:          0 ISSUED:          0 USEFUL:          0 USELESS:          0 LATE:          0
cpu0->cpu0_DTLB AVERAGE MISS LATENCY: 20.3 cycles
cpu0->LLC TOTAL        ACCESS:    1185606 HIT:     593885 MISS:     591721 MSHR_MERGE:          0
cpu0->LLC LOAD         ACCESS:     611388 HIT:     133313 MISS:     478075 MSHR_MERGE:          0
cpu0->LLC RFO          ACCESS:      87327 HIT:      29949 MISS:      57378 MSHR_MERGE:          0
cpu0->LLC PREFETCH     ACCESS:          0 HIT:          0 MISS:          0 MSHR_MERGE:          0
cpu0->LLC WRITE        ACCESS:     344491 HIT:     316255 MISS:      28236 MSHR_MERGE:          0
cpu0->LLC TRANSLATION  ACCESS:     142400 HIT:     114368 MISS:      28032 MSHR_MERGE:          0
cpu0->LLC PREFETCH REQUESTED:          0 ISSUED:          0 USEFUL:          0 USELESS:          0 LATE:          0
cpu0->LLC AVERAGE MISS LATENCY: 177 cycles

DRAM Statistics

Channel 0 RQ ROW_BUFFER_HIT:       3177
  ROW_BUFFER_MISS:     560296
  AVG DBUS CONGESTED CYCLE: 18.8
Channel 0 WQ ROW_BUFFER_HIT:      77754
  ROW_BUFFER_MISS:     171632
  FULL:          0
Channel 0 REFRESHES ISSUED:       8758

[ROI Statistics]
[System Configuration]
num_cpus 1
cpu_freq 4000
fetch_width 6
decode_width 6
dispatch_width 6
execute_width 6
lq_width 2
sq_width 2
retire_width 6
scheduler_size 160
branch_mispredict_penalty 1
rob_size 352
lq_size 240
sq_size 112
ifetch_buffer_size 64
decode_buffer_size 32
dispatch_buffer_size 32
register_file_size 288
decode_latency 1
dispatch_latency 1
schedule_latency 0
execute_latency 0
page_size 4096
block_size 64
core_0_itlb_set 16
core_0_itlb_way 4
core_0_itlb_rq_size 16
core_0_itlb_wq_size 16
core_0_itlb_pq_size 0
core_0_itlb_mshr_size 8
core_0_itlb_hit_latency 1
core_0_itlb_fill_latency 1
core_0_itlb_max_tag_check 2
core_0_itlb_max_fill 2
core_0_dtlb_set 16
core_0_dtlb_way 4
core_0_dtlb_rq_size 16
core_0_dtlb_wq_size 16
core_0_dtlb_pq_size 0
core_0_dtlb_mshr_size 8
core_0_dtlb_hit_latency 1
core_0_dtlb_fill_latency 1
core_0_dtlb_max_tag_check 2
core_0_dtlb_max_fill 2
core_0_stlb_set 128
core_0_stlb_way 12
core_0_stlb_rq_size 32
core_0_stlb_wq_size 32
core_0_stlb_pq_size 0
core_0_stlb_mshr_size 16
core_0_stlb_hit_latency 4
core_0_stlb_fill_latency 4
core_0_stlb_max_tag_check 1
core_0_stlb_max_fill 1
core_0_l1i_set 64
core_0_l1i_way 8
core_0_l1i_rq_size 64
core_0_l1i_wq_size 64
core_0_l1i_pq_size 32
core_0_l1i_mshr_size 8
core_0_l1i_hit_latency 2
core_0_l1i_fill_latency 2
core_0_l1i_max_tag_check 2
core_0_l1i_max_fill 2
core_0_l1d_set 64
core_0_l1d_way 12
core_0_l1d_rq_size 64
core_0_l1d_wq_size 64
core_0_l1d_pq_size 8
core_0_l1d_mshr_size 16
core_0_l1d_hit_latency 2
core_0_l1d_fill_latency 3
core_0_l1d_max_tag_check 2
core_0_l1d_max_fill 2
core_0_l2c_set 1024
core_0_l2c_way 8
core_0_l2c_rq_size 32
core_0_l2c_wq_size 32
core_0_l2c_pq_size 16
core_0_l2c_mshr_size 32
core_0_l2c_hit_latency 5
core_0_l2c_fill_latency 5
core_0_l2c_max_tag_check 1
core_0_l2c_max_fill 1
llc_set 2048
llc_way 16
llc_rq_size 32
llc_wq_size 32
llc_pq_size 32
llc_mshr_size 64
llc_hit_latency 10
llc_fill_latency 10
llc_max_tag_check 1
llc_max_fill 1
dram_channels 1
dram_ranks 1
dram_bankgroups 8
dram_banks 4
dram_rows 16384
dram_columns 1024
dram_channel_width 8
dram_rq_size 64
dram_wq_size 64
dram_size 4294967296
core_0_itlb_prefetcher no
core_0_dtlb_prefetcher no
core_0_stlb_prefetcher no
core_0_l1i_prefetcher no
core_0_l1d_prefetcher no
core_0_l2c_prefetcher no
llc_prefetcher no
llc_replacement drrip

Core_0_instructions 50000000
Core_0_cycles 105102665
Core_0_IPC 0.475725
Core_0_branch_prediction_accuracy 93.6995
Core_0_branch_MPKI 13.2453
Core_0_average_ROB_occupancy_at_mispredict 70.7323

Core_0_ITLB_total_access 441734
Core_0_ITLB_total_hit 430655
Core_0_ITLB_total_miss 11079
Core_0_ITLB_total_MPKI 0.22158
Core_0_ITLB_total_miss_rate 0.0250807
Core_0_ITLB_demand_access 441734
Core_0_ITLB_demand_hit 430655
Core_0_ITLB_demand_miss 11079
Core_0_ITLB_demand_MPKI 0.22158
Core_0_ITLB_demand_miss_rate 0.0250807
Core_0_ITLB_load_access 441734
Core_0_ITLB_load_hit 430655
Core_0_ITLB_load_miss 11079
Core_0_ITLB_load_MPKI 0.22158
Core_0_ITLB_load_miss_rate 0.0250807
Core_0_ITLB_rfo_access 0
Core_0_ITLB_rfo_hit 0
Core_0_ITLB_rfo_miss 0
Core_0_ITLB_rfo_MPKI 0
Core_0_ITLB_rfo_miss_rate 0
Core_0_ITLB_prefetch_access 0
Core_0_ITLB_prefetch_hit 0
Core_0_ITLB_prefetch_miss 0
Core_0_ITLB_prefetch_MPKI 0
Core_0_ITLB_prefetch_miss_rate 0
Core_0_ITLB_writeback_access 0
Core_0_ITLB_writeback_hit 0
Core_0_ITLB_writeback_miss 0
Core_0_ITLB_writeback_MPKI 0
Core_0_ITLB_writeback_miss_rate 0
Core_0_ITLB_prefetch_requested 0
Core_0_ITLB_prefetch_issued 0
Core_0_ITLB_prefetch_useful 0
Core_0_ITLB_prefetch_useless 0
Core_0_ITLB_prefetch_late 0
Core_0_ITLB_prefetch_accuracy 0
Core_0_ITLB_prefetch_coverage 0

Core_0_DTLB_total_access 18068073
Core_0_DTLB_total_hit 16836892
Core_0_DTLB_total_miss 1231181
Core_0_DTLB_total_MPKI 24.6236
Core_0_DTLB_total_miss_rate 0.0681412
Core_0_DTLB_demand_access 18068073
Core_0_DTLB_demand_hit 16836892
Core_0_DTLB_demand_miss 1231181
Core_0_DTLB_demand_MPKI 24.6236
Core_0_DTLB_demand_miss_rate 0.0681412
Core_0_DTLB_load_access 18068073
Core_0_DTLB_load_hit 16836892
Core_0_DTLB_load_miss 1231181
Core_0_DTLB_load_MPKI 24.6236
Core_0_DTLB_load_miss_rate 0.0681412
Core_0_DTLB_rfo_access 0
Core_0_DTLB_rfo_hit 0
Core_0_DTLB_rfo_miss 0
Core_0_DTLB_rfo_MPKI 0
Core_0_DTLB_rfo_miss_rate 0
Core_0_DTLB_prefetch_access 0
Core_0_DTLB_prefetch_hit 0
Core_0_DTLB_prefetch_miss 0
Core_0_DTLB_prefetch_MPKI 0
Core_0_DTLB_prefetch_miss_rate 0
Core_0_DTLB_writeback_access 0
Core_0_DTLB_writeback_hit 0
Core_0_DTLB_writeback_miss 0
Core_0_DTLB_writeback_MPKI 0
Core_0_DTLB_writeback_miss_rate 0
Core_0_DTLB_prefetch_requested 0
Core_0_DTLB_prefetch_issued 0
Core_0_DTLB_prefetch_useful 0
Core_0_DTLB_prefetch_useless 0
Core_0_DTLB_prefetch_late 0
Core_0_DTLB_prefetch_accuracy 0
Core_0_DTLB_prefetch_coverage 0

Core_0_STLB_total_access 1039401
Core_0_STLB_total_hit 796125
Core_0_STLB_total_miss 243276
Core_0_STLB_total_MPKI 4.86552
Core_0_STLB_total_miss_rate 0.234054
Core_0_STLB_demand_access 1039401
Core_0_STLB_demand_hit 796125
Core_0_STLB_demand_miss 243276
Core_0_STLB_demand_MPKI 4.86552
Core_0_STLB_demand_miss_rate 0.234054
Core_0_STLB_load_access 1039401
Core_0_STLB_load_hit 796125
Core_0_STLB_load_miss 243276
Core_0_STLB_load_MPKI 4.86552
Core_0_STLB_load_miss_rate 0.234054
Core_0_STLB_rfo_access 0
Core_0_STLB_rfo_hit 0
Core_0_STLB_rfo_miss 0
Core_0_STLB_rfo_MPKI 0
Core_0_STLB_rfo_miss_rate 0
Core_0_STLB_prefetch_access 0
Core_0_STLB_prefetch_hit 0
Core_0_STLB_prefetch_miss 0
Core_0_STLB_prefetch_MPKI 0
Core_0_STLB_prefetch_miss_rate 0
Core_0_STLB_writeback_access 0
Core_0_STLB_writeback_hit 0
Core_0_STLB_writeback_miss 0
Core_0_STLB_writeback_MPKI 0
Core_0_STLB_writeback_miss_rate 0
Core_0_STLB_prefetch_requested 0
Core_0_STLB_prefetch_issued 0
Core_0_STLB_prefetch_useful 0
Core_0_STLB_prefetch_useless 0
Core_0_STLB_prefetch_late 0
Core_0_STLB_prefetch_accuracy 0
Core_0_STLB_prefetch_coverage 0

Core_0_L1I_total_access 495390
Core_0_L1I_total_hit 495034
Core_0_L1I_total_miss 356
Core_0_L1I_total_MPKI 0.00712
Core_0_L1I_total_miss_rate 0.000718626
Core_0_L1I_demand_access 495390
Core_0_L1I_demand_hit 495034
Core_0_L1I_demand_miss 356
Core_0_L1I_demand_MPKI 0.00712
Core_0_L1I_demand_miss_rate 0.000718626
Core_0_L1I_load_access 495390
Core_0_L1I_load_hit 495034
Core_0_L1I_load_miss 356
Core_0_L1I_load_MPKI 0.00712
Core_0_L1I_load_miss_rate 0.000718626
Core_0_L1I_rfo_access 0
Core_0_L1I_rfo_hit 0
Core_0_L1I_rfo_miss 0
Core_0_L1I_rfo_MPKI 0
Core_0_L1I_rfo_miss_rate 0
Core_0_L1I_prefetch_access 0
Core_0_L1I_prefetch_hit 0
Core_0_L1I_prefetch_miss 0
Core_0_L1I_prefetch_MPKI 0
Core_0_L1I_prefetch_miss_rate 0
Core_0_L1I_writeback_access 0
Core_0_L1I_writeback_hit 0
Core_0_L1I_writeback_miss 0
Core_0_L1I_writeback_MPKI 0
Core_0_L1I_writeback_miss_rate 0
Core_0_L1I_prefetch_requested 0
Core_0_L1I_prefetch_issued 0
Core_0_L1I_prefetch_useful 0
Core_0_L1I_prefetch_useless 0
Core_0_L1I_prefetch_late 0
Core_0_L1I_prefetch_accuracy 0
Core_0_L1I_prefetch_coverage 0

Core_0_L1D_total_access 18966256
Core_0_L1D_total_hit 17527148
Core_0_L1D_total_miss 1439108
Core_0_L1D_total_MPKI 28.7822
Core_0_L1D_total_miss_rate 0.0758773
Core_0_L1D_demand_access 10116591
Core_0_L1D_demand_hit 9028033
Core_0_L1D_demand_miss 1088558
Core_0_L1D_demand_MPKI 21.7712
Core_0_L1D_demand_miss_rate 0.107601
Core_0_L1D_load_access 10116591
Core_0_L1D_load_hit 9028033
Core_0_L1D_load_miss 1088558
Core_0_L1D_load_MPKI 21.7712
Core_0_L1D_load_miss_rate 0.107601
Core_0_L1D_rfo_access 0
Core_0_L1D_rfo_hit 0
Core_0_L1D_rfo_miss 0
Core_0_L1D_rfo_MPKI 0
Core_0_L1D_rfo_miss_rate 0
Core_0_L1D_prefetch_access 0
Core_0_L1D_prefetch_hit 0
Core_0_L1D_prefetch_miss 0
Core_0_L1D_prefetch_MPKI 0
Core_0_L1D_prefetch_miss_rate 0
Core_0_L1D_writeback_access 8849665
Core_0_L1D_writeback_hit 8499115
Core_0_L1D_writeback_miss 350550
Core_0_L1D_writeback_MPKI 7.011
Core_0_L1D_writeback_miss_rate 0.0396117
Core_0_L1D_prefetch_requested 0
Core_0_L1D_prefetch_issued 0
Core_0_L1D_prefetch_useful 0
Core_0_L1D_prefetch_useless 0
Core_0_L1D_prefetch_late 0
Core_0_L1D_prefetch_accuracy 0
Core_0_L1D_prefetch_coverage 0

Core_0_L2C_total_access 1418573
Core_0_L2C_total_hit 718985
Core_0_L2C_total_miss 699588
Core_0_L2C_total_MPKI 13.9918
Core_0_L2C_total_miss_rate 0.493163
Core_0_L2C_demand_access 954147
Core_0_L2C_demand_hit 255432
Core_0_L2C_demand_miss 698715
Core_0_L2C_demand_MPKI 13.9743
Core_0_L2C_demand_miss_rate 0.732293
Core_0_L2C_load_access 841452
Core_0_L2C_load_hit 230064
Core_0_L2C_load_miss 611388
Core_0_L2C_load_MPKI 12.2278
Core_0_L2C_load_miss_rate 0.726587
Core_0_L2C_rfo_access 112695
Core_0_L2C_rfo_hit 25368
Core_0_L2C_rfo_miss 87327
Core_0_L2C_rfo_MPKI 1.74654
Core_0_L2C_rfo_miss_rate 0.774897
Core_0_L2C_prefetch_access 0
Core_0_L2C_prefetch_hit 0
Core_0_L2C_prefetch_miss 0
Core_0_L2C_prefetch_MPKI 0
Core_0_L2C_prefetch_miss_rate 0
Core_0_L2C_writeback_access 464426
Core_0_L2C_writeback_hit 463553
Core_0_L2C_writeback_miss 873
Core_0_L2C_writeback_MPKI 0.01746
Core_0_L2C_writeback_miss_rate 0.00187974
Core_0_L2C_prefetch_requested 0
Core_0_L2C_prefetch_issued 0
Core_0_L2C_prefetch_useful 0
Core_0_L2C_prefetch_useless 0
Core_0_L2C_prefetch_late 0
Core_0_L2C_prefetch_accuracy 0
Core_0_L2C_prefetch_coverage 0

Core_0_LLC_total_access 1043206
Core_0_LLC_total_hit 479517
Core_0_LLC_total_miss 563689
Core_0_LLC_total_MPKI 11.2738
Core_0_LLC_total_miss_rate 0.540343
Core_0_LLC_demand_access 698715
Core_0_LLC_demand_hit 163262
Core_0_LLC_demand_miss 535453
Core_0_LLC_demand_MPKI 10.7091
Core_0_LLC_demand_miss_rate 0.76634
Core_0_LLC_load_access 611388
Core_0_LLC_load_hit 133313
Core_0_LLC_load_miss 478075
Core_0_LLC_load_MPKI 9.5615
Core_0_LLC_load_miss_rate 0.78195
Core_0_LLC_rfo_access 87327
Core_0_LLC_rfo_hit 29949
Core_0_LLC_rfo_miss 57378
Core_0_LLC_rfo_MPKI 1.14756
Core_0_LLC_rfo_miss_rate 0.657048
Core_0_LLC_prefetch_access 0
Core_0_LLC_prefetch_hit 0
Core_0_LLC_prefetch_miss 0
Core_0_LLC_prefetch_MPKI 0
Core_0_LLC_prefetch_miss_rate 0
Core_0_LLC_writeback_access 344491
Core_0_LLC_writeback_hit 316255
Core_0_LLC_writeback_miss 28236
Core_0_LLC_writeback_MPKI 0.56472
Core_0_LLC_writeback_miss_rate 0.0819644
Core_0_LLC_prefetch_requested 0
Core_0_LLC_prefetch_issued 0
Core_0_LLC_prefetch_useful 0
Core_0_LLC_prefetch_useless 0
Core_0_LLC_prefetch_late 0
Core_0_LLC_prefetch_accuracy 0
Core_0_LLC_prefetch_coverage 0

[DRAM Statistics]
Channel_0_RQ_row_buffer_hit 3177
Channel_0_RQ_row_buffer_miss 560296
Channel_0_WQ_row_buffer_hit 77754
Channel_0_WQ_row_buffer_miss 171632
Channel_0_WQ_full 0
Channel_0_dbus_congested 2711422
DRAM_total_RQ_row_buffer_hit 3177
DRAM_total_RQ_row_buffer_miss 560296
DRAM_total_WQ_row_buffer_hit 77754
DRAM_total_WQ_row_buffer_miss 171632
DRAM_total_WQ_full 0
DRAM_total_dbus_congested 2711422
DRAM_avg_congested_cycle 18.8047

======STLB miss causes ========
Core_0_STLB_miss_cause_breakdown
Core_0_STLB_cause_Demand_Data_miss 242511
Core_0_STLB_cause_Demand_Data_miss_rate 0.233318
Core_0_STLB_cause_Demand_Instruction_miss 765
Core_0_STLB_cause_Demand_Instruction_miss_rate 0.000736001
Core_0_STLB_cause_L1D_Prefetch_miss 0
Core_0_STLB_cause_L1D_Prefetch_miss_rate 0
Core_0_STLB_cause_L1I_Prefetch_miss 0
Core_0_STLB_cause_L1I_Prefetch_miss_rate 0
Core_0_STLB_cause_Other_miss 0
Core_0_STLB_cause_Other_miss_rate 0
Core_0_STLB_Demand_miss 243276
Core_0_STLB_Demand_miss_rate 0.234054
Core_0_STLB_L1D_Prefetch_miss 0
Core_0_STLB_L1D_Prefetch_miss_rate 0
Core_0_STLB_Other_miss 0
Core_0_STLB_Other_miss_rate 0
