[VMEM] WARNING: physical memory size is smaller than virtual memory size.

*** ChampSim Multicore Out-of-Order Simulator ***
Warmup Instructions: 20000000
Simulation Instructions: 50000000
Number of CPUs: 1
Page size: 4096
Core 0: /data0/tzh/champsim_traces/SPEC17/623.xalancbmk_s-165B.champsimtrace.xz
Off-chip DRAM Size: 4 GiB Channels: 1 Width: 64-bit Data Rate: 3205 MT/s
Warmup halting CPU 0 at instruction 20000000 cycle 4997794 for remainder of phase
Warmup finished CPU 0 instructions: 20000000 cycles: 4997794 cumulative IPC: 4.002 (Simulation time: 00 hr 00 min 46 sec)
Warmup complete CPU 0 instructions: 20000000 cycles: 4997794 cumulative IPC: 4.002 (Simulation time: 00 hr 00 min 46 sec)
Simulation finished CPU 0 instructions: 50000001 cycles: 56819888 cumulative IPC: 0.88 (Simulation time: 00 hr 06 min 26 sec)
Simulation complete CPU 0 instructions: 50000001 cycles: 56819888 cumulative IPC: 0.88 (Simulation time: 00 hr 06 min 26 sec)

ChampSim completed all CPUs

=== Simulation ===
CPU 0 runs /data0/tzh/champsim_traces/SPEC17/623.xalancbmk_s-165B.champsimtrace.xz

Region of Interest Statistics

CPU 0 cumulative IPC: 0.88 instructions: 50000001 cycles: 56819888
CPU 0 Branch Prediction Accuracy: 96.52% MPKI: 9.702 Average ROB Occupancy at Mispredict: 62.98
Branch type MPKI
BRANCH_DIRECT_JUMP: 0
BRANCH_INDIRECT: 0
BRANCH_CONDITIONAL: 9.702
BRANCH_DIRECT_CALL: 0
BRANCH_INDIRECT_CALL: 0
BRANCH_RETURN: 0

cpu0->cpu0_STLB TOTAL        ACCESS:      17932 HIT:      17866 MISS:         66 MSHR_MERGE:          0
cpu0->cpu0_STLB LOAD         ACCESS:      17932 HIT:      17866 MISS:         66 MSHR_MERGE:          0
cpu0->cpu0_STLB RFO          ACCESS:          0 HIT:          0 MISS:          0 MSHR_MERGE:          0
cpu0->cpu0_STLB PREFETCH     ACCESS:          0 HIT:          0 MISS:          0 MSHR_MERGE:          0
cpu0->cpu0_STLB WRITE        ACCESS:          0 HIT:          0 MISS:          0 MSHR_MERGE:          0
cpu0->cpu0_STLB TRANSLATION  ACCESS:          0 HIT:          0 MISS:          0 MSHR_MERGE:          0
cpu0->cpu0_STLB PREFETCH REQUESTED:          0 ISSUED:          0 USEFUL:          0 USELESS:          0 LATE:          0
cpu0->cpu0_STLB AVERAGE MISS LATENCY: 299.2 cycles
cpu0->cpu0_L2C TOTAL        ACCESS:     951610 HIT:        675 MISS:     950935 MSHR_MERGE:          0
cpu0->cpu0_L2C LOAD         ACCESS:     950844 HIT:        248 MISS:     950596 MSHR_MERGE:          0
cpu0->cpu0_L2C RFO          ACCESS:        291 HIT:          0 MISS:        291 MSHR_MERGE:          0
cpu0->cpu0_L2C PREFETCH     ACCESS:          0 HIT:          0 MISS:          0 MSHR_MERGE:          0
cpu0->cpu0_L2C WRITE        ACCESS:        427 HIT:        427 MISS:          0 MSHR_MERGE:          0
cpu0->cpu0_L2C TRANSLATION  ACCESS:         48 HIT:          0 MISS:         48 MSHR_MERGE:          0
cpu0->cpu0_L2C PREFETCH REQUESTED:          0 ISSUED:          0 USEFUL:          0 USELESS:          0 LATE:          0
cpu0->cpu0_L2C AVERAGE MISS LATENCY: 48.26 cycles
cpu0->cpu0_L1I TOTAL        ACCESS:       1815 HIT:       1815 MISS:          0 MSHR_MERGE:          0
cpu0->cpu0_L1I LOAD         ACCESS:       1815 HIT:       1815 MISS:          0 MSHR_MERGE:          0
cpu0->cpu0_L1I RFO          ACCESS:          0 HIT:          0 MISS:          0 MSHR_MERGE:          0
cpu0->cpu0_L1I PREFETCH     ACCESS:          0 HIT:          0 MISS:          0 MSHR_MERGE:          0
cpu0->cpu0_L1I WRITE        ACCESS:          0 HIT:          0 MISS:          0 MSHR_MERGE:          0
cpu0->cpu0_L1I TRANSLATION  ACCESS:          0 HIT:          0 MISS:          0 MSHR_MERGE:          0
cpu0->cpu0_L1I PREFETCH REQUESTED:          0 ISSUED:          0 USEFUL:          0 USELESS:          0 LATE:          0
cpu0->cpu0_L1I AVERAGE MISS LATENCY: - cycles
cpu0->cpu0_L1D TOTAL        ACCESS:   13708767 HIT:   10510487 MISS:    3198280 MSHR_MERGE:    2247097
cpu0->cpu0_L1D LOAD         ACCESS:   13052148 HIT:    9855370 MISS:    3196778 MSHR_MERGE:    2245934
cpu0->cpu0_L1D RFO          ACCESS:          0 HIT:          0 MISS:          0 MSHR_MERGE:          0
cpu0->cpu0_L1D PREFETCH     ACCESS:          0 HIT:          0 MISS:          0 MSHR_MERGE:          0
cpu0->cpu0_L1D WRITE        ACCESS:     656490 HIT:     655039 MISS:       1451 MSHR_MERGE:       1160
cpu0->cpu0_L1D TRANSLATION  ACCESS:        129 HIT:         78 MISS:         51 MSHR_MERGE:          3
cpu0->cpu0_L1D PREFETCH REQUESTED:          0 ISSUED:          0 USEFUL:          0 USELESS:          0 LATE:          0
cpu0->cpu0_L1D AVERAGE MISS LATENCY: 57.26 cycles
cpu0->cpu0_ITLB TOTAL        ACCESS:       1543 HIT:       1543 MISS:          0 MSHR_MERGE:          0
cpu0->cpu0_ITLB LOAD         ACCESS:       1543 HIT:       1543 MISS:          0 MSHR_MERGE:          0
cpu0->cpu0_ITLB RFO          ACCESS:          0 HIT:          0 MISS:          0 MSHR_MERGE:          0
cpu0->cpu0_ITLB PREFETCH     ACCESS:          0 HIT:          0 MISS:          0 MSHR_MERGE:          0
cpu0->cpu0_ITLB WRITE        ACCESS:          0 HIT:          0 MISS:          0 MSHR_MERGE:          0
cpu0->cpu0_ITLB TRANSLATION  ACCESS:          0 HIT:          0 MISS:          0 MSHR_MERGE:          0
cpu0->cpu0_ITLB PREFETCH REQUESTED:          0 ISSUED:          0 USEFUL:          0 USELESS:          0 LATE:          0
cpu0->cpu0_ITLB AVERAGE MISS LATENCY: - cycles
cpu0->cpu0_DTLB TOTAL        ACCESS:   13609538 HIT:   13569287 MISS:      40251 MSHR_MERGE:      22319
cpu0->cpu0_DTLB LOAD         ACCESS:   13609538 HIT:   13569287 MISS:      40251 MSHR_MERGE:      22319
cpu0->cpu0_DTLB RFO          ACCESS:          0 HIT:          0 MISS:          0 MSHR_MERGE:          0
cpu0->cpu0_DTLB PREFETCH     ACCESS:          0 HIT:          0 MISS:          0 MSHR_MERGE:          0
cpu0->cpu0_DTLB WRITE        ACCESS:          0 HIT:          0 MISS:          0 MSHR_MERGE:          0
cpu0->cpu0_DTLB TRANSLATION  ACCESS:          0 HIT:          0 MISS:          0 MSHR_MERGE:          0
cpu0->cpu0_DTLB PREFETCH REQUESTED:          0 ISSUED:          0 USEFUL:          0 USELESS:          0 LATE:          0
cpu0->cpu0_DTLB AVERAGE MISS LATENCY: 6.105 cycles
cpu0->LLC TOTAL        ACCESS:     951348 HIT:     743738 MISS:     207610 MSHR_MERGE:          0
cpu0->LLC LOAD         ACCESS:     950596 HIT:     743282 MISS:     207314 MSHR_MERGE:          0
cpu0->LLC RFO          ACCESS:        291 HIT:        112 MISS:        179 MSHR_MERGE:          0
cpu0->LLC PREFETCH     ACCESS:          0 HIT:          0 MISS:          0 MSHR_MERGE:          0
cpu0->LLC WRITE        ACCESS:        413 HIT:        322 MISS:         91 MSHR_MERGE:          0
cpu0->LLC TRANSLATION  ACCESS:         48 HIT:         22 MISS:         26 MSHR_MERGE:          0
cpu0->LLC PREFETCH REQUESTED:          0 ISSUED:          0 USEFUL:          0 USELESS:          0 LATE:          0
cpu0->LLC AVERAGE MISS LATENCY: 151.4 cycles

DRAM Statistics

Channel 0 RQ ROW_BUFFER_HIT:      32723
  ROW_BUFFER_MISS:     174796
  AVG DBUS CONGESTED CYCLE: 3.46
Channel 0 WQ ROW_BUFFER_HIT:         42
  ROW_BUFFER_MISS:         85
  FULL:          0
Channel 0 REFRESHES ISSUED:       4735

[ROI Statistics]
[System Configuration]
num_cpus 1
cpu_freq 4000
fetch_width 6
decode_width 6
dispatch_width 6
execute_width 6
lq_width 2
sq_width 2
retire_width 6
scheduler_size 160
branch_mispredict_penalty 1
rob_size 352
lq_size 240
sq_size 112
ifetch_buffer_size 64
decode_buffer_size 32
dispatch_buffer_size 32
register_file_size 288
decode_latency 1
dispatch_latency 1
schedule_latency 0
execute_latency 0
page_size 4096
block_size 64
core_0_itlb_set 16
core_0_itlb_way 4
core_0_itlb_rq_size 16
core_0_itlb_wq_size 16
core_0_itlb_pq_size 0
core_0_itlb_mshr_size 8
core_0_itlb_hit_latency 1
core_0_itlb_fill_latency 1
core_0_itlb_max_tag_check 2
core_0_itlb_max_fill 2
core_0_dtlb_set 16
core_0_dtlb_way 4
core_0_dtlb_rq_size 16
core_0_dtlb_wq_size 16
core_0_dtlb_pq_size 0
core_0_dtlb_mshr_size 8
core_0_dtlb_hit_latency 1
core_0_dtlb_fill_latency 1
core_0_dtlb_max_tag_check 2
core_0_dtlb_max_fill 2
core_0_stlb_set 128
core_0_stlb_way 12
core_0_stlb_rq_size 32
core_0_stlb_wq_size 32
core_0_stlb_pq_size 0
core_0_stlb_mshr_size 16
core_0_stlb_hit_latency 4
core_0_stlb_fill_latency 4
core_0_stlb_max_tag_check 1
core_0_stlb_max_fill 1
core_0_l1i_set 64
core_0_l1i_way 8
core_0_l1i_rq_size 64
core_0_l1i_wq_size 64
core_0_l1i_pq_size 32
core_0_l1i_mshr_size 8
core_0_l1i_hit_latency 2
core_0_l1i_fill_latency 2
core_0_l1i_max_tag_check 2
core_0_l1i_max_fill 2
core_0_l1d_set 64
core_0_l1d_way 12
core_0_l1d_rq_size 64
core_0_l1d_wq_size 64
core_0_l1d_pq_size 8
core_0_l1d_mshr_size 16
core_0_l1d_hit_latency 2
core_0_l1d_fill_latency 3
core_0_l1d_max_tag_check 2
core_0_l1d_max_fill 2
core_0_l2c_set 1024
core_0_l2c_way 8
core_0_l2c_rq_size 32
core_0_l2c_wq_size 32
core_0_l2c_pq_size 16
core_0_l2c_mshr_size 32
core_0_l2c_hit_latency 5
core_0_l2c_fill_latency 5
core_0_l2c_max_tag_check 1
core_0_l2c_max_fill 1
llc_set 2048
llc_way 16
llc_rq_size 32
llc_wq_size 32
llc_pq_size 32
llc_mshr_size 64
llc_hit_latency 10
llc_fill_latency 10
llc_max_tag_check 1
llc_max_fill 1
dram_channels 1
dram_ranks 1
dram_bankgroups 8
dram_banks 4
dram_rows 16384
dram_columns 1024
dram_channel_width 8
dram_rq_size 64
dram_wq_size 64
dram_size 4294967296
core_0_itlb_prefetcher no
core_0_dtlb_prefetcher no
core_0_stlb_prefetcher no
core_0_l1i_prefetcher no
core_0_l1d_prefetcher no
core_0_l2c_prefetcher no
llc_prefetcher no
llc_replacement drrip

Core_0_instructions 50000001
Core_0_cycles 56819888
Core_0_IPC 0.879974
Core_0_branch_prediction_accuracy 96.5207
Core_0_branch_MPKI 9.7025
Core_0_average_ROB_occupancy_at_mispredict 62.9843

Core_0_ITLB_total_access 1543
Core_0_ITLB_total_hit 1543
Core_0_ITLB_total_miss 0
Core_0_ITLB_total_MPKI 0
Core_0_ITLB_total_miss_rate 0
Core_0_ITLB_demand_access 1543
Core_0_ITLB_demand_hit 1543
Core_0_ITLB_demand_miss 0
Core_0_ITLB_demand_MPKI 0
Core_0_ITLB_demand_miss_rate 0
Core_0_ITLB_load_access 1543
Core_0_ITLB_load_hit 1543
Core_0_ITLB_load_miss 0
Core_0_ITLB_load_MPKI 0
Core_0_ITLB_load_miss_rate 0
Core_0_ITLB_rfo_access 0
Core_0_ITLB_rfo_hit 0
Core_0_ITLB_rfo_miss 0
Core_0_ITLB_rfo_MPKI 0
Core_0_ITLB_rfo_miss_rate 0
Core_0_ITLB_prefetch_access 0
Core_0_ITLB_prefetch_hit 0
Core_0_ITLB_prefetch_miss 0
Core_0_ITLB_prefetch_MPKI 0
Core_0_ITLB_prefetch_miss_rate 0
Core_0_ITLB_writeback_access 0
Core_0_ITLB_writeback_hit 0
Core_0_ITLB_writeback_miss 0
Core_0_ITLB_writeback_MPKI 0
Core_0_ITLB_writeback_miss_rate 0
Core_0_ITLB_prefetch_requested 0
Core_0_ITLB_prefetch_issued 0
Core_0_ITLB_prefetch_useful 0
Core_0_ITLB_prefetch_useless 0
Core_0_ITLB_prefetch_late 0
Core_0_ITLB_prefetch_accuracy 0
Core_0_ITLB_prefetch_coverage 0

Core_0_DTLB_total_access 13609538
Core_0_DTLB_total_hit 13569287
Core_0_DTLB_total_miss 40251
Core_0_DTLB_total_MPKI 0.80502
Core_0_DTLB_total_miss_rate 0.00295756
Core_0_DTLB_demand_access 13609538
Core_0_DTLB_demand_hit 13569287
Core_0_DTLB_demand_miss 40251
Core_0_DTLB_demand_MPKI 0.80502
Core_0_DTLB_demand_miss_rate 0.00295756
Core_0_DTLB_load_access 13609538
Core_0_DTLB_load_hit 13569287
Core_0_DTLB_load_miss 40251
Core_0_DTLB_load_MPKI 0.80502
Core_0_DTLB_load_miss_rate 0.00295756
Core_0_DTLB_rfo_access 0
Core_0_DTLB_rfo_hit 0
Core_0_DTLB_rfo_miss 0
Core_0_DTLB_rfo_MPKI 0
Core_0_DTLB_rfo_miss_rate 0
Core_0_DTLB_prefetch_access 0
Core_0_DTLB_prefetch_hit 0
Core_0_DTLB_prefetch_miss 0
Core_0_DTLB_prefetch_MPKI 0
Core_0_DTLB_prefetch_miss_rate 0
Core_0_DTLB_writeback_access 0
Core_0_DTLB_writeback_hit 0
Core_0_DTLB_writeback_miss 0
Core_0_DTLB_writeback_MPKI 0
Core_0_DTLB_writeback_miss_rate 0
Core_0_DTLB_prefetch_requested 0
Core_0_DTLB_prefetch_issued 0
Core_0_DTLB_prefetch_useful 0
Core_0_DTLB_prefetch_useless 0
Core_0_DTLB_prefetch_late 0
Core_0_DTLB_prefetch_accuracy 0
Core_0_DTLB_prefetch_coverage 0

Core_0_STLB_total_access 17932
Core_0_STLB_total_hit 17866
Core_0_STLB_total_miss 66
Core_0_STLB_total_MPKI 0.00132
Core_0_STLB_total_miss_rate 0.00368057
Core_0_STLB_demand_access 17932
Core_0_STLB_demand_hit 17866
Core_0_STLB_demand_miss 66
Core_0_STLB_demand_MPKI 0.00132
Core_0_STLB_demand_miss_rate 0.00368057
Core_0_STLB_load_access 17932
Core_0_STLB_load_hit 17866
Core_0_STLB_load_miss 66
Core_0_STLB_load_MPKI 0.00132
Core_0_STLB_load_miss_rate 0.00368057
Core_0_STLB_rfo_access 0
Core_0_STLB_rfo_hit 0
Core_0_STLB_rfo_miss 0
Core_0_STLB_rfo_MPKI 0
Core_0_STLB_rfo_miss_rate 0
Core_0_STLB_prefetch_access 0
Core_0_STLB_prefetch_hit 0
Core_0_STLB_prefetch_miss 0
Core_0_STLB_prefetch_MPKI 0
Core_0_STLB_prefetch_miss_rate 0
Core_0_STLB_writeback_access 0
Core_0_STLB_writeback_hit 0
Core_0_STLB_writeback_miss 0
Core_0_STLB_writeback_MPKI 0
Core_0_STLB_writeback_miss_rate 0
Core_0_STLB_prefetch_requested 0
Core_0_STLB_prefetch_issued 0
Core_0_STLB_prefetch_useful 0
Core_0_STLB_prefetch_useless 0
Core_0_STLB_prefetch_late 0
Core_0_STLB_prefetch_accuracy 0
Core_0_STLB_prefetch_coverage 0

Core_0_L1I_total_access 1815
Core_0_L1I_total_hit 1815
Core_0_L1I_total_miss 0
Core_0_L1I_total_MPKI 0
Core_0_L1I_total_miss_rate 0
Core_0_L1I_demand_access 1815
Core_0_L1I_demand_hit 1815
Core_0_L1I_demand_miss 0
Core_0_L1I_demand_MPKI 0
Core_0_L1I_demand_miss_rate 0
Core_0_L1I_load_access 1815
Core_0_L1I_load_hit 1815
Core_0_L1I_load_miss 0
Core_0_L1I_load_MPKI 0
Core_0_L1I_load_miss_rate 0
Core_0_L1I_rfo_access 0
Core_0_L1I_rfo_hit 0
Core_0_L1I_rfo_miss 0
Core_0_L1I_rfo_MPKI 0
Core_0_L1I_rfo_miss_rate 0
Core_0_L1I_prefetch_access 0
Core_0_L1I_prefetch_hit 0
Core_0_L1I_prefetch_miss 0
Core_0_L1I_prefetch_MPKI 0
Core_0_L1I_prefetch_miss_rate 0
Core_0_L1I_writeback_access 0
Core_0_L1I_writeback_hit 0
Core_0_L1I_writeback_miss 0
Core_0_L1I_writeback_MPKI 0
Core_0_L1I_writeback_miss_rate 0
Core_0_L1I_prefetch_requested 0
Core_0_L1I_prefetch_issued 0
Core_0_L1I_prefetch_useful 0
Core_0_L1I_prefetch_useless 0
Core_0_L1I_prefetch_late 0
Core_0_L1I_prefetch_accuracy 0
Core_0_L1I_prefetch_coverage 0

Core_0_L1D_total_access 13708638
Core_0_L1D_total_hit 10510409
Core_0_L1D_total_miss 3198229
Core_0_L1D_total_MPKI 63.9646
Core_0_L1D_total_miss_rate 0.2333
Core_0_L1D_demand_access 13052148
Core_0_L1D_demand_hit 9855370
Core_0_L1D_demand_miss 3196778
Core_0_L1D_demand_MPKI 63.9356
Core_0_L1D_demand_miss_rate 0.244924
Core_0_L1D_load_access 13052148
Core_0_L1D_load_hit 9855370
Core_0_L1D_load_miss 3196778
Core_0_L1D_load_MPKI 63.9356
Core_0_L1D_load_miss_rate 0.244924
Core_0_L1D_rfo_access 0
Core_0_L1D_rfo_hit 0
Core_0_L1D_rfo_miss 0
Core_0_L1D_rfo_MPKI 0
Core_0_L1D_rfo_miss_rate 0
Core_0_L1D_prefetch_access 0
Core_0_L1D_prefetch_hit 0
Core_0_L1D_prefetch_miss 0
Core_0_L1D_prefetch_MPKI 0
Core_0_L1D_prefetch_miss_rate 0
Core_0_L1D_writeback_access 656490
Core_0_L1D_writeback_hit 655039
Core_0_L1D_writeback_miss 1451
Core_0_L1D_writeback_MPKI 0.02902
Core_0_L1D_writeback_miss_rate 0.00221024
Core_0_L1D_prefetch_requested 0
Core_0_L1D_prefetch_issued 0
Core_0_L1D_prefetch_useful 0
Core_0_L1D_prefetch_useless 0
Core_0_L1D_prefetch_late 0
Core_0_L1D_prefetch_accuracy 0
Core_0_L1D_prefetch_coverage 0

Core_0_L2C_total_access 951562
Core_0_L2C_total_hit 675
Core_0_L2C_total_miss 950887
Core_0_L2C_total_MPKI 19.0177
Core_0_L2C_total_miss_rate 0.999291
Core_0_L2C_demand_access 951135
Core_0_L2C_demand_hit 248
Core_0_L2C_demand_miss 950887
Core_0_L2C_demand_MPKI 19.0177
Core_0_L2C_demand_miss_rate 0.999739
Core_0_L2C_load_access 950844
Core_0_L2C_load_hit 248
Core_0_L2C_load_miss 950596
Core_0_L2C_load_MPKI 19.0119
Core_0_L2C_load_miss_rate 0.999739
Core_0_L2C_rfo_access 291
Core_0_L2C_rfo_hit 0
Core_0_L2C_rfo_miss 291
Core_0_L2C_rfo_MPKI 0.00582
Core_0_L2C_rfo_miss_rate 1
Core_0_L2C_prefetch_access 0
Core_0_L2C_prefetch_hit 0
Core_0_L2C_prefetch_miss 0
Core_0_L2C_prefetch_MPKI 0
Core_0_L2C_prefetch_miss_rate 0
Core_0_L2C_writeback_access 427
Core_0_L2C_writeback_hit 427
Core_0_L2C_writeback_miss 0
Core_0_L2C_writeback_MPKI 0
Core_0_L2C_writeback_miss_rate 0
Core_0_L2C_prefetch_requested 0
Core_0_L2C_prefetch_issued 0
Core_0_L2C_prefetch_useful 0
Core_0_L2C_prefetch_useless 0
Core_0_L2C_prefetch_late 0
Core_0_L2C_prefetch_accuracy 0
Core_0_L2C_prefetch_coverage 0

Core_0_LLC_total_access 951300
Core_0_LLC_total_hit 743716
Core_0_LLC_total_miss 207584
Core_0_LLC_total_MPKI 4.15168
Core_0_LLC_total_miss_rate 0.218211
Core_0_LLC_demand_access 950887
Core_0_LLC_demand_hit 743394
Core_0_LLC_demand_miss 207493
Core_0_LLC_demand_MPKI 4.14986
Core_0_LLC_demand_miss_rate 0.21821
Core_0_LLC_load_access 950596
Core_0_LLC_load_hit 743282
Core_0_LLC_load_miss 207314
Core_0_LLC_load_MPKI 4.14628
Core_0_LLC_load_miss_rate 0.218088
Core_0_LLC_rfo_access 291
Core_0_LLC_rfo_hit 112
Core_0_LLC_rfo_miss 179
Core_0_LLC_rfo_MPKI 0.00358
Core_0_LLC_rfo_miss_rate 0.61512
Core_0_LLC_prefetch_access 0
Core_0_LLC_prefetch_hit 0
Core_0_LLC_prefetch_miss 0
Core_0_LLC_prefetch_MPKI 0
Core_0_LLC_prefetch_miss_rate 0
Core_0_LLC_writeback_access 413
Core_0_LLC_writeback_hit 322
Core_0_LLC_writeback_miss 91
Core_0_LLC_writeback_MPKI 0.00182
Core_0_LLC_writeback_miss_rate 0.220339
Core_0_LLC_prefetch_requested 0
Core_0_LLC_prefetch_issued 0
Core_0_LLC_prefetch_useful 0
Core_0_LLC_prefetch_useless 0
Core_0_LLC_prefetch_late 0
Core_0_LLC_prefetch_accuracy 0
Core_0_LLC_prefetch_coverage 0

[DRAM Statistics]
Channel_0_RQ_row_buffer_hit 32723
Channel_0_RQ_row_buffer_miss 174796
Channel_0_WQ_row_buffer_hit 42
Channel_0_WQ_row_buffer_miss 85
Channel_0_WQ_full 0
Channel_0_dbus_congested 103386
DRAM_total_RQ_row_buffer_hit 32723
DRAM_total_RQ_row_buffer_miss 174796
DRAM_total_WQ_row_buffer_hit 42
DRAM_total_WQ_row_buffer_miss 85
DRAM_total_WQ_full 0
DRAM_total_dbus_congested 103386
DRAM_avg_congested_cycle 3.46

======STLB miss causes ========
Core_0_STLB_miss_cause_breakdown
Core_0_STLB_cause_Demand_Data_miss 66
Core_0_STLB_cause_Demand_Data_miss_rate 0.00368057
Core_0_STLB_cause_Demand_Instruction_miss 0
Core_0_STLB_cause_Demand_Instruction_miss_rate 0
Core_0_STLB_cause_L1D_Prefetch_miss 0
Core_0_STLB_cause_L1D_Prefetch_miss_rate 0
Core_0_STLB_cause_L1I_Prefetch_miss 0
Core_0_STLB_cause_L1I_Prefetch_miss_rate 0
Core_0_STLB_cause_Other_miss 0
Core_0_STLB_cause_Other_miss_rate 0
Core_0_STLB_Demand_miss 66
Core_0_STLB_Demand_miss_rate 0.00368057
Core_0_STLB_L1D_Prefetch_miss 0
Core_0_STLB_L1D_Prefetch_miss_rate 0
Core_0_STLB_Other_miss 0
Core_0_STLB_Other_miss_rate 0
