[VMEM] WARNING: physical memory size is smaller than virtual memory size.

*** ChampSim Multicore Out-of-Order Simulator ***
Warmup Instructions: 20000000
Simulation Instructions: 50000000
Number of CPUs: 1
Page size: 4096
Core 0: /data0/tzh/champsim_traces/SPEC17/641.leela_s-334B.champsimtrace.xz
Off-chip DRAM Size: 4 GiB Channels: 1 Width: 64-bit Data Rate: 3205 MT/s
Warmup halting CPU 0 at instruction 20000004 cycle 4483096 for remainder of phase
Warmup finished CPU 0 instructions: 20000004 cycles: 4483096 cumulative IPC: 4.461 (Simulation time: 00 hr 00 min 53 sec)
Warmup complete CPU 0 instructions: 20000004 cycles: 4483096 cumulative IPC: 4.461 (Simulation time: 00 hr 00 min 53 sec)
Simulation finished CPU 0 instructions: 50000000 cycles: 33046279 cumulative IPC: 1.513 (Simulation time: 00 hr 04 min 51 sec)
Simulation complete CPU 0 instructions: 50000000 cycles: 33046279 cumulative IPC: 1.513 (Simulation time: 00 hr 04 min 51 sec)

ChampSim completed all CPUs

=== Simulation ===
CPU 0 runs /data0/tzh/champsim_traces/SPEC17/641.leela_s-334B.champsimtrace.xz

Region of Interest Statistics

CPU 0 cumulative IPC: 1.513 instructions: 50000000 cycles: 33046279
CPU 0 Branch Prediction Accuracy: 88.98% MPKI: 19.29 Average ROB Occupancy at Mispredict: 25.9
Branch type MPKI
BRANCH_DIRECT_JUMP: 0.1991
BRANCH_INDIRECT: 0.00166
BRANCH_CONDITIONAL: 19.06
BRANCH_DIRECT_CALL: 0
BRANCH_INDIRECT_CALL: 0
BRANCH_RETURN: 0.02578

cpu0->cpu0_STLB TOTAL        ACCESS:      32984 HIT:      32779 MISS:        205 MSHR_MERGE:          0
cpu0->cpu0_STLB LOAD         ACCESS:      32984 HIT:      32779 MISS:        205 MSHR_MERGE:          0
cpu0->cpu0_STLB RFO          ACCESS:          0 HIT:          0 MISS:          0 MSHR_MERGE:          0
cpu0->cpu0_STLB PREFETCH     ACCESS:          0 HIT:          0 MISS:          0 MSHR_MERGE:          0
cpu0->cpu0_STLB WRITE        ACCESS:          0 HIT:          0 MISS:          0 MSHR_MERGE:          0
cpu0->cpu0_STLB TRANSLATION  ACCESS:          0 HIT:          0 MISS:          0 MSHR_MERGE:          0
cpu0->cpu0_STLB PREFETCH REQUESTED:          0 ISSUED:          0 USEFUL:          0 USELESS:          0 LATE:          0
cpu0->cpu0_STLB AVERAGE MISS LATENCY: 237.4 cycles
cpu0->cpu0_L2C TOTAL        ACCESS:     118452 HIT:     117246 MISS:       1206 MSHR_MERGE:          0
cpu0->cpu0_L2C LOAD         ACCESS:      59657 HIT:      58725 MISS:        932 MSHR_MERGE:          0
cpu0->cpu0_L2C RFO          ACCESS:      22551 HIT:      22307 MISS:        244 MSHR_MERGE:          0
cpu0->cpu0_L2C PREFETCH     ACCESS:          0 HIT:          0 MISS:          0 MSHR_MERGE:          0
cpu0->cpu0_L2C WRITE        ACCESS:      36041 HIT:      36040 MISS:          1 MSHR_MERGE:          0
cpu0->cpu0_L2C TRANSLATION  ACCESS:        203 HIT:        174 MISS:         29 MSHR_MERGE:          0
cpu0->cpu0_L2C PREFETCH REQUESTED:          0 ISSUED:          0 USEFUL:          0 USELESS:          0 LATE:          0
cpu0->cpu0_L2C AVERAGE MISS LATENCY: 158.5 cycles
cpu0->cpu0_L1I TOTAL        ACCESS:     349704 HIT:     349703 MISS:          1 MSHR_MERGE:          0
cpu0->cpu0_L1I LOAD         ACCESS:     349704 HIT:     349703 MISS:          1 MSHR_MERGE:          0
cpu0->cpu0_L1I RFO          ACCESS:          0 HIT:          0 MISS:          0 MSHR_MERGE:          0
cpu0->cpu0_L1I PREFETCH     ACCESS:          0 HIT:          0 MISS:          0 MSHR_MERGE:          0
cpu0->cpu0_L1I WRITE        ACCESS:          0 HIT:          0 MISS:          0 MSHR_MERGE:          0
cpu0->cpu0_L1I TRANSLATION  ACCESS:          0 HIT:          0 MISS:          0 MSHR_MERGE:          0
cpu0->cpu0_L1I PREFETCH REQUESTED:          0 ISSUED:          0 USEFUL:          0 USELESS:          0 LATE:          0
cpu0->cpu0_L1I AVERAGE MISS LATENCY: 166 cycles
cpu0->cpu0_L1D TOTAL        ACCESS:   14677362 HIT:   14551778 MISS:     125584 MSHR_MERGE:      43168
cpu0->cpu0_L1D LOAD         ACCESS:    8738398 HIT:    8667601 MISS:      70797 MSHR_MERGE:      11139
cpu0->cpu0_L1D RFO          ACCESS:          0 HIT:          0 MISS:          0 MSHR_MERGE:          0
cpu0->cpu0_L1D PREFETCH     ACCESS:          0 HIT:          0 MISS:          0 MSHR_MERGE:          0
cpu0->cpu0_L1D WRITE        ACCESS:    5938554 HIT:    5883970 MISS:      54584 MSHR_MERGE:      32029
cpu0->cpu0_L1D TRANSLATION  ACCESS:        410 HIT:        207 MISS:        203 MSHR_MERGE:          0
cpu0->cpu0_L1D PREFETCH REQUESTED:          0 ISSUED:          0 USEFUL:          0 USELESS:          0 LATE:          0
cpu0->cpu0_L1D AVERAGE MISS LATENCY: 10.34 cycles
cpu0->cpu0_ITLB TOTAL        ACCESS:     349636 HIT:     349636 MISS:          0 MSHR_MERGE:          0
cpu0->cpu0_ITLB LOAD         ACCESS:     349636 HIT:     349636 MISS:          0 MSHR_MERGE:          0
cpu0->cpu0_ITLB RFO          ACCESS:          0 HIT:          0 MISS:          0 MSHR_MERGE:          0
cpu0->cpu0_ITLB PREFETCH     ACCESS:          0 HIT:          0 MISS:          0 MSHR_MERGE:          0
cpu0->cpu0_ITLB WRITE        ACCESS:          0 HIT:          0 MISS:          0 MSHR_MERGE:          0
cpu0->cpu0_ITLB TRANSLATION  ACCESS:          0 HIT:          0 MISS:          0 MSHR_MERGE:          0
cpu0->cpu0_ITLB PREFETCH REQUESTED:          0 ISSUED:          0 USEFUL:          0 USELESS:          0 LATE:          0
cpu0->cpu0_ITLB AVERAGE MISS LATENCY: - cycles
cpu0->cpu0_DTLB TOTAL        ACCESS:   13936251 HIT:   13895810 MISS:      40441 MSHR_MERGE:       7457
cpu0->cpu0_DTLB LOAD         ACCESS:   13936251 HIT:   13895810 MISS:      40441 MSHR_MERGE:       7457
cpu0->cpu0_DTLB RFO          ACCESS:          0 HIT:          0 MISS:          0 MSHR_MERGE:          0
cpu0->cpu0_DTLB PREFETCH     ACCESS:          0 HIT:          0 MISS:          0 MSHR_MERGE:          0
cpu0->cpu0_DTLB WRITE        ACCESS:          0 HIT:          0 MISS:          0 MSHR_MERGE:          0
cpu0->cpu0_DTLB TRANSLATION  ACCESS:          0 HIT:          0 MISS:          0 MSHR_MERGE:          0
cpu0->cpu0_DTLB PREFETCH REQUESTED:          0 ISSUED:          0 USEFUL:          0 USELESS:          0 LATE:          0
cpu0->cpu0_DTLB AVERAGE MISS LATENCY: 6.482 cycles
cpu0->LLC TOTAL        ACCESS:       1220 HIT:         49 MISS:       1171 MSHR_MERGE:          0
cpu0->LLC LOAD         ACCESS:        932 HIT:         28 MISS:        904 MSHR_MERGE:          0
cpu0->LLC RFO          ACCESS:        244 HIT:          0 MISS:        244 MSHR_MERGE:          0
cpu0->LLC PREFETCH     ACCESS:          0 HIT:          0 MISS:          0 MSHR_MERGE:          0
cpu0->LLC WRITE        ACCESS:         15 HIT:         15 MISS:          0 MSHR_MERGE:          0
cpu0->LLC TRANSLATION  ACCESS:         29 HIT:          6 MISS:         23 MSHR_MERGE:          0
cpu0->LLC PREFETCH REQUESTED:          0 ISSUED:          0 USEFUL:          0 USELESS:          0 LATE:          0
cpu0->LLC AVERAGE MISS LATENCY: 146.8 cycles

DRAM Statistics

Channel 0 RQ ROW_BUFFER_HIT:          9
  ROW_BUFFER_MISS:       1162
  AVG DBUS CONGESTED CYCLE: 2.889
Channel 0 WQ ROW_BUFFER_HIT:          0
  ROW_BUFFER_MISS:          0
  FULL:          0
Channel 0 REFRESHES ISSUED:       2754

[ROI Statistics]
[System Configuration]
num_cpus 1
cpu_freq 4000
fetch_width 6
decode_width 6
dispatch_width 6
execute_width 6
lq_width 2
sq_width 2
retire_width 6
scheduler_size 160
branch_mispredict_penalty 1
rob_size 352
lq_size 240
sq_size 112
ifetch_buffer_size 64
decode_buffer_size 32
dispatch_buffer_size 32
register_file_size 288
decode_latency 1
dispatch_latency 1
schedule_latency 0
execute_latency 0
page_size 4096
block_size 64
core_0_itlb_set 16
core_0_itlb_way 4
core_0_itlb_rq_size 16
core_0_itlb_wq_size 16
core_0_itlb_pq_size 0
core_0_itlb_mshr_size 8
core_0_itlb_hit_latency 1
core_0_itlb_fill_latency 1
core_0_itlb_max_tag_check 2
core_0_itlb_max_fill 2
core_0_dtlb_set 16
core_0_dtlb_way 4
core_0_dtlb_rq_size 16
core_0_dtlb_wq_size 16
core_0_dtlb_pq_size 0
core_0_dtlb_mshr_size 8
core_0_dtlb_hit_latency 1
core_0_dtlb_fill_latency 1
core_0_dtlb_max_tag_check 2
core_0_dtlb_max_fill 2
core_0_stlb_set 128
core_0_stlb_way 12
core_0_stlb_rq_size 32
core_0_stlb_wq_size 32
core_0_stlb_pq_size 0
core_0_stlb_mshr_size 16
core_0_stlb_hit_latency 4
core_0_stlb_fill_latency 4
core_0_stlb_max_tag_check 1
core_0_stlb_max_fill 1
core_0_l1i_set 64
core_0_l1i_way 8
core_0_l1i_rq_size 64
core_0_l1i_wq_size 64
core_0_l1i_pq_size 32
core_0_l1i_mshr_size 8
core_0_l1i_hit_latency 2
core_0_l1i_fill_latency 2
core_0_l1i_max_tag_check 2
core_0_l1i_max_fill 2
core_0_l1d_set 64
core_0_l1d_way 12
core_0_l1d_rq_size 64
core_0_l1d_wq_size 64
core_0_l1d_pq_size 8
core_0_l1d_mshr_size 16
core_0_l1d_hit_latency 2
core_0_l1d_fill_latency 3
core_0_l1d_max_tag_check 2
core_0_l1d_max_fill 2
core_0_l2c_set 1024
core_0_l2c_way 8
core_0_l2c_rq_size 32
core_0_l2c_wq_size 32
core_0_l2c_pq_size 16
core_0_l2c_mshr_size 32
core_0_l2c_hit_latency 5
core_0_l2c_fill_latency 5
core_0_l2c_max_tag_check 1
core_0_l2c_max_fill 1
llc_set 2048
llc_way 16
llc_rq_size 32
llc_wq_size 32
llc_pq_size 32
llc_mshr_size 64
llc_hit_latency 10
llc_fill_latency 10
llc_max_tag_check 1
llc_max_fill 1
dram_channels 1
dram_ranks 1
dram_bankgroups 8
dram_banks 4
dram_rows 16384
dram_columns 1024
dram_channel_width 8
dram_rq_size 64
dram_wq_size 64
dram_size 4294967296
core_0_itlb_prefetcher no
core_0_dtlb_prefetcher no
core_0_stlb_prefetcher no
core_0_l1i_prefetcher no
core_0_l1d_prefetcher no
core_0_l2c_prefetcher no
llc_prefetcher no
llc_replacement drrip

Core_0_instructions 50000000
Core_0_cycles 33046279
Core_0_IPC 1.51303
Core_0_branch_prediction_accuracy 88.9762
Core_0_branch_MPKI 19.2906
Core_0_average_ROB_occupancy_at_mispredict 25.898

Core_0_ITLB_total_access 349636
Core_0_ITLB_total_hit 349636
Core_0_ITLB_total_miss 0
Core_0_ITLB_total_MPKI 0
Core_0_ITLB_total_miss_rate 0
Core_0_ITLB_demand_access 349636
Core_0_ITLB_demand_hit 349636
Core_0_ITLB_demand_miss 0
Core_0_ITLB_demand_MPKI 0
Core_0_ITLB_demand_miss_rate 0
Core_0_ITLB_load_access 349636
Core_0_ITLB_load_hit 349636
Core_0_ITLB_load_miss 0
Core_0_ITLB_load_MPKI 0
Core_0_ITLB_load_miss_rate 0
Core_0_ITLB_rfo_access 0
Core_0_ITLB_rfo_hit 0
Core_0_ITLB_rfo_miss 0
Core_0_ITLB_rfo_MPKI 0
Core_0_ITLB_rfo_miss_rate 0
Core_0_ITLB_prefetch_access 0
Core_0_ITLB_prefetch_hit 0
Core_0_ITLB_prefetch_miss 0
Core_0_ITLB_prefetch_MPKI 0
Core_0_ITLB_prefetch_miss_rate 0
Core_0_ITLB_writeback_access 0
Core_0_ITLB_writeback_hit 0
Core_0_ITLB_writeback_miss 0
Core_0_ITLB_writeback_MPKI 0
Core_0_ITLB_writeback_miss_rate 0
Core_0_ITLB_prefetch_requested 0
Core_0_ITLB_prefetch_issued 0
Core_0_ITLB_prefetch_useful 0
Core_0_ITLB_prefetch_useless 0
Core_0_ITLB_prefetch_late 0
Core_0_ITLB_prefetch_accuracy 0
Core_0_ITLB_prefetch_coverage 0

Core_0_DTLB_total_access 13936251
Core_0_DTLB_total_hit 13895810
Core_0_DTLB_total_miss 40441
Core_0_DTLB_total_MPKI 0.80882
Core_0_DTLB_total_miss_rate 0.00290186
Core_0_DTLB_demand_access 13936251
Core_0_DTLB_demand_hit 13895810
Core_0_DTLB_demand_miss 40441
Core_0_DTLB_demand_MPKI 0.80882
Core_0_DTLB_demand_miss_rate 0.00290186
Core_0_DTLB_load_access 13936251
Core_0_DTLB_load_hit 13895810
Core_0_DTLB_load_miss 40441
Core_0_DTLB_load_MPKI 0.80882
Core_0_DTLB_load_miss_rate 0.00290186
Core_0_DTLB_rfo_access 0
Core_0_DTLB_rfo_hit 0
Core_0_DTLB_rfo_miss 0
Core_0_DTLB_rfo_MPKI 0
Core_0_DTLB_rfo_miss_rate 0
Core_0_DTLB_prefetch_access 0
Core_0_DTLB_prefetch_hit 0
Core_0_DTLB_prefetch_miss 0
Core_0_DTLB_prefetch_MPKI 0
Core_0_DTLB_prefetch_miss_rate 0
Core_0_DTLB_writeback_access 0
Core_0_DTLB_writeback_hit 0
Core_0_DTLB_writeback_miss 0
Core_0_DTLB_writeback_MPKI 0
Core_0_DTLB_writeback_miss_rate 0
Core_0_DTLB_prefetch_requested 0
Core_0_DTLB_prefetch_issued 0
Core_0_DTLB_prefetch_useful 0
Core_0_DTLB_prefetch_useless 0
Core_0_DTLB_prefetch_late 0
Core_0_DTLB_prefetch_accuracy 0
Core_0_DTLB_prefetch_coverage 0

Core_0_STLB_total_access 32984
Core_0_STLB_total_hit 32779
Core_0_STLB_total_miss 205
Core_0_STLB_total_MPKI 0.0041
Core_0_STLB_total_miss_rate 0.00621513
Core_0_STLB_demand_access 32984
Core_0_STLB_demand_hit 32779
Core_0_STLB_demand_miss 205
Core_0_STLB_demand_MPKI 0.0041
Core_0_STLB_demand_miss_rate 0.00621513
Core_0_STLB_load_access 32984
Core_0_STLB_load_hit 32779
Core_0_STLB_load_miss 205
Core_0_STLB_load_MPKI 0.0041
Core_0_STLB_load_miss_rate 0.00621513
Core_0_STLB_rfo_access 0
Core_0_STLB_rfo_hit 0
Core_0_STLB_rfo_miss 0
Core_0_STLB_rfo_MPKI 0
Core_0_STLB_rfo_miss_rate 0
Core_0_STLB_prefetch_access 0
Core_0_STLB_prefetch_hit 0
Core_0_STLB_prefetch_miss 0
Core_0_STLB_prefetch_MPKI 0
Core_0_STLB_prefetch_miss_rate 0
Core_0_STLB_writeback_access 0
Core_0_STLB_writeback_hit 0
Core_0_STLB_writeback_miss 0
Core_0_STLB_writeback_MPKI 0
Core_0_STLB_writeback_miss_rate 0
Core_0_STLB_prefetch_requested 0
Core_0_STLB_prefetch_issued 0
Core_0_STLB_prefetch_useful 0
Core_0_STLB_prefetch_useless 0
Core_0_STLB_prefetch_late 0
Core_0_STLB_prefetch_accuracy 0
Core_0_STLB_prefetch_coverage 0

Core_0_L1I_total_access 349704
Core_0_L1I_total_hit 349703
Core_0_L1I_total_miss 1
Core_0_L1I_total_MPKI 2e-05
Core_0_L1I_total_miss_rate 2.85956e-06
Core_0_L1I_demand_access 349704
Core_0_L1I_demand_hit 349703
Core_0_L1I_demand_miss 1
Core_0_L1I_demand_MPKI 2e-05
Core_0_L1I_demand_miss_rate 2.85956e-06
Core_0_L1I_load_access 349704
Core_0_L1I_load_hit 349703
Core_0_L1I_load_miss 1
Core_0_L1I_load_MPKI 2e-05
Core_0_L1I_load_miss_rate 2.85956e-06
Core_0_L1I_rfo_access 0
Core_0_L1I_rfo_hit 0
Core_0_L1I_rfo_miss 0
Core_0_L1I_rfo_MPKI 0
Core_0_L1I_rfo_miss_rate 0
Core_0_L1I_prefetch_access 0
Core_0_L1I_prefetch_hit 0
Core_0_L1I_prefetch_miss 0
Core_0_L1I_prefetch_MPKI 0
Core_0_L1I_prefetch_miss_rate 0
Core_0_L1I_writeback_access 0
Core_0_L1I_writeback_hit 0
Core_0_L1I_writeback_miss 0
Core_0_L1I_writeback_MPKI 0
Core_0_L1I_writeback_miss_rate 0
Core_0_L1I_prefetch_requested 0
Core_0_L1I_prefetch_issued 0
Core_0_L1I_prefetch_useful 0
Core_0_L1I_prefetch_useless 0
Core_0_L1I_prefetch_late 0
Core_0_L1I_prefetch_accuracy 0
Core_0_L1I_prefetch_coverage 0

Core_0_L1D_total_access 14676952
Core_0_L1D_total_hit 14551571
Core_0_L1D_total_miss 125381
Core_0_L1D_total_MPKI 2.50762
Core_0_L1D_total_miss_rate 0.00854271
Core_0_L1D_demand_access 8738398
Core_0_L1D_demand_hit 8667601
Core_0_L1D_demand_miss 70797
Core_0_L1D_demand_MPKI 1.41594
Core_0_L1D_demand_miss_rate 0.00810183
Core_0_L1D_load_access 8738398
Core_0_L1D_load_hit 8667601
Core_0_L1D_load_miss 70797
Core_0_L1D_load_MPKI 1.41594
Core_0_L1D_load_miss_rate 0.00810183
Core_0_L1D_rfo_access 0
Core_0_L1D_rfo_hit 0
Core_0_L1D_rfo_miss 0
Core_0_L1D_rfo_MPKI 0
Core_0_L1D_rfo_miss_rate 0
Core_0_L1D_prefetch_access 0
Core_0_L1D_prefetch_hit 0
Core_0_L1D_prefetch_miss 0
Core_0_L1D_prefetch_MPKI 0
Core_0_L1D_prefetch_miss_rate 0
Core_0_L1D_writeback_access 5938554
Core_0_L1D_writeback_hit 5883970
Core_0_L1D_writeback_miss 54584
Core_0_L1D_writeback_MPKI 1.09168
Core_0_L1D_writeback_miss_rate 0.00919146
Core_0_L1D_prefetch_requested 0
Core_0_L1D_prefetch_issued 0
Core_0_L1D_prefetch_useful 0
Core_0_L1D_prefetch_useless 0
Core_0_L1D_prefetch_late 0
Core_0_L1D_prefetch_accuracy 0
Core_0_L1D_prefetch_coverage 0

Core_0_L2C_total_access 118249
Core_0_L2C_total_hit 117072
Core_0_L2C_total_miss 1177
Core_0_L2C_total_MPKI 0.02354
Core_0_L2C_total_miss_rate 0.00995357
Core_0_L2C_demand_access 82208
Core_0_L2C_demand_hit 81032
Core_0_L2C_demand_miss 1176
Core_0_L2C_demand_MPKI 0.02352
Core_0_L2C_demand_miss_rate 0.0143052
Core_0_L2C_load_access 59657
Core_0_L2C_load_hit 58725
Core_0_L2C_load_miss 932
Core_0_L2C_load_MPKI 0.01864
Core_0_L2C_load_miss_rate 0.0156226
Core_0_L2C_rfo_access 22551
Core_0_L2C_rfo_hit 22307
Core_0_L2C_rfo_miss 244
Core_0_L2C_rfo_MPKI 0.00488
Core_0_L2C_rfo_miss_rate 0.0108199
Core_0_L2C_prefetch_access 0
Core_0_L2C_prefetch_hit 0
Core_0_L2C_prefetch_miss 0
Core_0_L2C_prefetch_MPKI 0
Core_0_L2C_prefetch_miss_rate 0
Core_0_L2C_writeback_access 36041
Core_0_L2C_writeback_hit 36040
Core_0_L2C_writeback_miss 1
Core_0_L2C_writeback_MPKI 2e-05
Core_0_L2C_writeback_miss_rate 2.77462e-05
Core_0_L2C_prefetch_requested 0
Core_0_L2C_prefetch_issued 0
Core_0_L2C_prefetch_useful 0
Core_0_L2C_prefetch_useless 0
Core_0_L2C_prefetch_late 0
Core_0_L2C_prefetch_accuracy 0
Core_0_L2C_prefetch_coverage 0

Core_0_LLC_total_access 1191
Core_0_LLC_total_hit 43
Core_0_LLC_total_miss 1148
Core_0_LLC_total_MPKI 0.02296
Core_0_LLC_total_miss_rate 0.963896
Core_0_LLC_demand_access 1176
Core_0_LLC_demand_hit 28
Core_0_LLC_demand_miss 1148
Core_0_LLC_demand_MPKI 0.02296
Core_0_LLC_demand_miss_rate 0.97619
Core_0_LLC_load_access 932
Core_0_LLC_load_hit 28
Core_0_LLC_load_miss 904
Core_0_LLC_load_MPKI 0.01808
Core_0_LLC_load_miss_rate 0.969957
Core_0_LLC_rfo_access 244
Core_0_LLC_rfo_hit 0
Core_0_LLC_rfo_miss 244
Core_0_LLC_rfo_MPKI 0.00488
Core_0_LLC_rfo_miss_rate 1
Core_0_LLC_prefetch_access 0
Core_0_LLC_prefetch_hit 0
Core_0_LLC_prefetch_miss 0
Core_0_LLC_prefetch_MPKI 0
Core_0_LLC_prefetch_miss_rate 0
Core_0_LLC_writeback_access 15
Core_0_LLC_writeback_hit 15
Core_0_LLC_writeback_miss 0
Core_0_LLC_writeback_MPKI 0
Core_0_LLC_writeback_miss_rate 0
Core_0_LLC_prefetch_requested 0
Core_0_LLC_prefetch_issued 0
Core_0_LLC_prefetch_useful 0
Core_0_LLC_prefetch_useless 0
Core_0_LLC_prefetch_late 0
Core_0_LLC_prefetch_accuracy 0
Core_0_LLC_prefetch_coverage 0

[DRAM Statistics]
Channel_0_RQ_row_buffer_hit 9
Channel_0_RQ_row_buffer_miss 1162
Channel_0_WQ_row_buffer_hit 0
Channel_0_WQ_row_buffer_miss 0
Channel_0_WQ_full 0
Channel_0_dbus_congested 307
DRAM_total_RQ_row_buffer_hit 9
DRAM_total_RQ_row_buffer_miss 1162
DRAM_total_WQ_row_buffer_hit 0
DRAM_total_WQ_row_buffer_miss 0
DRAM_total_WQ_full 0
DRAM_total_dbus_congested 307
DRAM_avg_congested_cycle 2.88925

======STLB miss causes ========
Core_0_STLB_miss_cause_breakdown
Core_0_STLB_cause_Demand_Data_miss 205
Core_0_STLB_cause_Demand_Data_miss_rate 0.00621513
Core_0_STLB_cause_Demand_Instruction_miss 0
Core_0_STLB_cause_Demand_Instruction_miss_rate 0
Core_0_STLB_cause_L1D_Prefetch_miss 0
Core_0_STLB_cause_L1D_Prefetch_miss_rate 0
Core_0_STLB_cause_L1I_Prefetch_miss 0
Core_0_STLB_cause_L1I_Prefetch_miss_rate 0
Core_0_STLB_cause_Other_miss 0
Core_0_STLB_cause_Other_miss_rate 0
Core_0_STLB_Demand_miss 205
Core_0_STLB_Demand_miss_rate 0.00621513
Core_0_STLB_L1D_Prefetch_miss 0
Core_0_STLB_L1D_Prefetch_miss_rate 0
Core_0_STLB_Other_miss 0
Core_0_STLB_Other_miss_rate 0
