[VMEM] WARNING: physical memory size is smaller than virtual memory size.

*** ChampSim Multicore Out-of-Order Simulator ***
Warmup Instructions: 20000000
Simulation Instructions: 50000000
Number of CPUs: 1
Page size: 4096
Core 0: /data0/tzh/champsim_traces/SPEC06/433.milc-127B.champsimtrace.xz
IPCP_AT_L1_CONFIG
NUM_IP_TABLE_L1_ENTRIES 1024
NUM_GHB_ENTRIES 16
NUM_IP_INDEX_BITS 10
NUM_IP_TAG_BITS 6
S_TYPE 1
CS_TYPE 2
CPLX_TYPE 3
NL_TYPE 4

Off-chip DRAM Size: 16 GiB Channels: 1 Width: 64-bit Data Rate: 3205 MT/s
Warmup halting CPU 0 at instruction 20000002 cycle 11053985 for remainder of phase
Warmup finished CPU 0 instructions: 20000002 cycles: 11053985 cumulative IPC: 1.809 (Simulation time: 00 hr 01 min 46 sec)
Warmup complete CPU 0 instructions: 20000002 cycles: 11053985 cumulative IPC: 1.809 (Simulation time: 00 hr 01 min 46 sec)
Simulation finished CPU 0 instructions: 50000005 cycles: 43428717 cumulative IPC: 1.151 (Simulation time: 00 hr 07 min 24 sec)
Simulation complete CPU 0 instructions: 50000005 cycles: 43428717 cumulative IPC: 1.151 (Simulation time: 00 hr 07 min 24 sec)

ChampSim completed all CPUs

=== Simulation ===
CPU 0 runs /data0/tzh/champsim_traces/SPEC06/433.milc-127B.champsimtrace.xz

Region of Interest Statistics

CPU 0 cumulative IPC: 1.151 instructions: 50000005 cycles: 43428717
CPU 0 Branch Prediction Accuracy: 94.52% MPKI: 4.241 Average ROB Occupancy at Mispredict: 139.9
Branch type MPKI
BRANCH_DIRECT_JUMP: 0.00012
BRANCH_INDIRECT: 0
BRANCH_CONDITIONAL: 2.121
BRANCH_DIRECT_CALL: 0.00016
BRANCH_INDIRECT_CALL: 0
BRANCH_RETURN: 2.12

cpu0->cpu0_STLB TOTAL        ACCESS:      59800 HIT:        119 MISS:      59681 MSHR_MERGE:          0
cpu0->cpu0_STLB LOAD         ACCESS:      59800 HIT:        119 MISS:      59681 MSHR_MERGE:          0
cpu0->cpu0_STLB RFO          ACCESS:          0 HIT:          0 MISS:          0 MSHR_MERGE:          0
cpu0->cpu0_STLB PREFETCH     ACCESS:          0 HIT:          0 MISS:          0 MSHR_MERGE:          0
cpu0->cpu0_STLB WRITE        ACCESS:          0 HIT:          0 MISS:          0 MSHR_MERGE:          0
cpu0->cpu0_STLB TRANSLATION  ACCESS:          0 HIT:          0 MISS:          0 MSHR_MERGE:          0
cpu0->cpu0_STLB PREFETCH REQUESTED:          0 ISSUED:          0 USEFUL:          0 USELESS:          0 LATE:          0
cpu0->cpu0_STLB AVERAGE MISS LATENCY: 99.99 cycles
cpu0->cpu0_L2C TOTAL        ACCESS:    3014395 HIT:    1254774 MISS:    1759621 MSHR_MERGE:     800953
cpu0->cpu0_L2C LOAD         ACCESS:     175999 HIT:       5827 MISS:     170172 MSHR_MERGE:       3375
cpu0->cpu0_L2C RFO          ACCESS:     130002 HIT:          1 MISS:     130001 MSHR_MERGE:          0
cpu0->cpu0_L2C PREFETCH     ACCESS:    2357931 HIT:     906024 MISS:    1451907 MSHR_MERGE:     797578
cpu0->cpu0_L2C WRITE        ACCESS:     342456 HIT:     342440 MISS:         16 MSHR_MERGE:          0
cpu0->cpu0_L2C TRANSLATION  ACCESS:       8007 HIT:        482 MISS:       7525 MSHR_MERGE:          0
cpu0->cpu0_L2C PREFETCH REQUESTED:    1932885 ISSUED:    1885683 USEFUL:     247699 USELESS:     300845 LATE:       3375
cpu0->cpu0_L2C AVERAGE MISS LATENCY: 340.4 cycles
cpu0->cpu0_L1I TOTAL        ACCESS:     815568 HIT:     815514 MISS:         54 MSHR_MERGE:         12
cpu0->cpu0_L1I LOAD         ACCESS:     815568 HIT:     815514 MISS:         54 MSHR_MERGE:         12
cpu0->cpu0_L1I RFO          ACCESS:          0 HIT:          0 MISS:          0 MSHR_MERGE:          0
cpu0->cpu0_L1I PREFETCH     ACCESS:          0 HIT:          0 MISS:          0 MSHR_MERGE:          0
cpu0->cpu0_L1I WRITE        ACCESS:          0 HIT:          0 MISS:          0 MSHR_MERGE:          0
cpu0->cpu0_L1I TRANSLATION  ACCESS:          0 HIT:          0 MISS:          0 MSHR_MERGE:          0
cpu0->cpu0_L1I PREFETCH REQUESTED:          0 ISSUED:          0 USEFUL:          0 USELESS:          0 LATE:          0
cpu0->cpu0_L1I AVERAGE MISS LATENCY: 236.4 cycles
cpu0->cpu0_L1D TOTAL        ACCESS:   19693490 HIT:   16945823 MISS:    2747667 MSHR_MERGE:    1961456
cpu0->cpu0_L1D LOAD         ACCESS:    7379790 HIT:    6759519 MISS:     620271 MSHR_MERGE:     444314
cpu0->cpu0_L1D RFO          ACCESS:          0 HIT:          0 MISS:          0 MSHR_MERGE:          0
cpu0->cpu0_L1D PREFETCH     ACCESS:    3932760 HIT:    2840162 MISS:    1092598 MSHR_MERGE:     620353
cpu0->cpu0_L1D WRITE        ACCESS:    8261458 HIT:    7234667 MISS:    1026791 MSHR_MERGE:     896789
cpu0->cpu0_L1D TRANSLATION  ACCESS:     119482 HIT:     111475 MISS:       8007 MSHR_MERGE:          0
cpu0->cpu0_L1D PREFETCH REQUESTED:    6189883 ISSUED:    3932752 USEFUL:     446052 USELESS:      26159 LATE:      62078
cpu0->cpu0_L1D AVERAGE MISS LATENCY: 337.8 cycles
cpu0->cpu0_ITLB TOTAL        ACCESS:     704662 HIT:     704653 MISS:          9 MSHR_MERGE:          5
cpu0->cpu0_ITLB LOAD         ACCESS:     704662 HIT:     704653 MISS:          9 MSHR_MERGE:          5
cpu0->cpu0_ITLB RFO          ACCESS:          0 HIT:          0 MISS:          0 MSHR_MERGE:          0
cpu0->cpu0_ITLB PREFETCH     ACCESS:          0 HIT:          0 MISS:          0 MSHR_MERGE:          0
cpu0->cpu0_ITLB WRITE        ACCESS:          0 HIT:          0 MISS:          0 MSHR_MERGE:          0
cpu0->cpu0_ITLB TRANSLATION  ACCESS:          0 HIT:          0 MISS:          0 MSHR_MERGE:          0
cpu0->cpu0_ITLB PREFETCH REQUESTED:          0 ISSUED:          0 USEFUL:          0 USELESS:          0 LATE:          0
cpu0->cpu0_ITLB AVERAGE MISS LATENCY: 454 cycles
cpu0->cpu0_DTLB TOTAL        ACCESS:   16706119 HIT:   16274798 MISS:     431321 MSHR_MERGE:     371525
cpu0->cpu0_DTLB LOAD         ACCESS:   16706119 HIT:   16274798 MISS:     431321 MSHR_MERGE:     371525
cpu0->cpu0_DTLB RFO          ACCESS:          0 HIT:          0 MISS:          0 MSHR_MERGE:          0
cpu0->cpu0_DTLB PREFETCH     ACCESS:          0 HIT:          0 MISS:          0 MSHR_MERGE:          0
cpu0->cpu0_DTLB WRITE        ACCESS:          0 HIT:          0 MISS:          0 MSHR_MERGE:          0
cpu0->cpu0_DTLB TRANSLATION  ACCESS:          0 HIT:          0 MISS:          0 MSHR_MERGE:          0
cpu0->cpu0_DTLB PREFETCH REQUESTED:          0 ISSUED:          0 USEFUL:          0 USELESS:          0 LATE:          0
cpu0->cpu0_DTLB AVERAGE MISS LATENCY: 105.8 cycles
cpu0->LLC TOTAL        ACCESS:    1305636 HIT:     128926 MISS:    1176710 MSHR_MERGE:          0
cpu0->LLC LOAD         ACCESS:     166797 HIT:         93 MISS:     166704 MSHR_MERGE:          0
cpu0->LLC RFO          ACCESS:     130001 HIT:          0 MISS:     130001 MSHR_MERGE:          0
cpu0->LLC PREFETCH     ACCESS:     654329 HIT:       2824 MISS:     651505 MSHR_MERGE:          0
cpu0->LLC WRITE        ACCESS:     346984 HIT:     126007 MISS:     220977 MSHR_MERGE:          0
cpu0->LLC TRANSLATION  ACCESS:       7525 HIT:          2 MISS:       7523 MSHR_MERGE:          0
cpu0->LLC PREFETCH REQUESTED:          0 ISSUED:          0 USEFUL:          0 USELESS:          0 LATE:          0
cpu0->LLC AVERAGE MISS LATENCY: 191.8 cycles

DRAM Statistics

Channel 0 RQ ROW_BUFFER_HIT:     190154
  ROW_BUFFER_MISS:     765564
  AVG DBUS CONGESTED CYCLE: 7.968
Channel 0 WQ ROW_BUFFER_HIT:      72357
  ROW_BUFFER_MISS:     286097
  FULL:          0
Channel 0 REFRESHES ISSUED:       3619

[ROI Statistics]
[System Configuration]
num_cpus 1
cpu_freq 4000
fetch_width 6
decode_width 6
dispatch_width 6
execute_width 6
lq_width 2
sq_width 2
retire_width 6
scheduler_size 128
branch_mispredict_penalty 15
rob_size 352
lq_size 128
sq_size 72
ifetch_buffer_size 64
decode_buffer_size 32
dispatch_buffer_size 32
register_file_size 288
decode_latency 1
dispatch_latency 1
schedule_latency 1
execute_latency 1
page_size 4096
block_size 64
core_0_itlb_set 16
core_0_itlb_way 4
core_0_itlb_rq_size 16
core_0_itlb_wq_size 16
core_0_itlb_pq_size 0
core_0_itlb_mshr_size 8
core_0_itlb_hit_latency 1
core_0_itlb_fill_latency 1
core_0_itlb_max_tag_check 2
core_0_itlb_max_fill 2
core_0_dtlb_set 16
core_0_dtlb_way 4
core_0_dtlb_rq_size 16
core_0_dtlb_wq_size 16
core_0_dtlb_pq_size 0
core_0_dtlb_mshr_size 8
core_0_dtlb_hit_latency 1
core_0_dtlb_fill_latency 1
core_0_dtlb_max_tag_check 2
core_0_dtlb_max_fill 2
core_0_stlb_set 128
core_0_stlb_way 12
core_0_stlb_rq_size 32
core_0_stlb_wq_size 32
core_0_stlb_pq_size 0
core_0_stlb_mshr_size 16
core_0_stlb_hit_latency 4
core_0_stlb_fill_latency 4
core_0_stlb_max_tag_check 1
core_0_stlb_max_fill 1
core_0_l1i_set 64
core_0_l1i_way 8
core_0_l1i_rq_size 64
core_0_l1i_wq_size 64
core_0_l1i_pq_size 32
core_0_l1i_mshr_size 8
core_0_l1i_hit_latency 2
core_0_l1i_fill_latency 2
core_0_l1i_max_tag_check 2
core_0_l1i_max_fill 2
core_0_l1d_set 64
core_0_l1d_way 12
core_0_l1d_rq_size 64
core_0_l1d_wq_size 64
core_0_l1d_pq_size 8
core_0_l1d_mshr_size 16
core_0_l1d_hit_latency 2
core_0_l1d_fill_latency 3
core_0_l1d_max_tag_check 2
core_0_l1d_max_fill 2
core_0_l2c_set 1024
core_0_l2c_way 8
core_0_l2c_rq_size 32
core_0_l2c_wq_size 32
core_0_l2c_pq_size 16
core_0_l2c_mshr_size 32
core_0_l2c_hit_latency 5
core_0_l2c_fill_latency 5
core_0_l2c_max_tag_check 1
core_0_l2c_max_fill 1
llc_set 2048
llc_way 16
llc_rq_size 32
llc_wq_size 32
llc_pq_size 32
llc_mshr_size 64
llc_hit_latency 10
llc_fill_latency 10
llc_max_tag_check 1
llc_max_fill 1
dram_channels 1
dram_ranks 1
dram_bankgroups 8
dram_banks 4
dram_rows 65536
dram_columns 1024
dram_channel_width 8
dram_rq_size 64
dram_wq_size 64
dram_size 17179869184
core_0_itlb_prefetcher no
core_0_dtlb_prefetcher no
core_0_stlb_prefetcher no
core_0_l1i_prefetcher next_line
core_0_l1d_prefetcher ipcp
core_0_l2c_prefetcher pythia
llc_prefetcher no
llc_replacement drrip

Core_0_instructions 50000005
Core_0_cycles 43428717
Core_0_IPC 1.15131
Core_0_branch_prediction_accuracy 94.5205
Core_0_branch_MPKI 4.24098
Core_0_average_ROB_occupancy_at_mispredict 139.85

Core_0_ITLB_total_access 704662
Core_0_ITLB_total_hit 704653
Core_0_ITLB_total_miss 9
Core_0_ITLB_total_MPKI 0.00018
Core_0_ITLB_total_miss_rate 1.27721e-05
Core_0_ITLB_demand_access 704662
Core_0_ITLB_demand_hit 704653
Core_0_ITLB_demand_miss 9
Core_0_ITLB_demand_MPKI 0.00018
Core_0_ITLB_demand_miss_rate 1.27721e-05
Core_0_ITLB_load_access 704662
Core_0_ITLB_load_hit 704653
Core_0_ITLB_load_miss 9
Core_0_ITLB_load_MPKI 0.00018
Core_0_ITLB_load_miss_rate 1.27721e-05
Core_0_ITLB_rfo_access 0
Core_0_ITLB_rfo_hit 0
Core_0_ITLB_rfo_miss 0
Core_0_ITLB_rfo_MPKI 0
Core_0_ITLB_rfo_miss_rate 0
Core_0_ITLB_prefetch_access 0
Core_0_ITLB_prefetch_hit 0
Core_0_ITLB_prefetch_miss 0
Core_0_ITLB_prefetch_MPKI 0
Core_0_ITLB_prefetch_miss_rate 0
Core_0_ITLB_writeback_access 0
Core_0_ITLB_writeback_hit 0
Core_0_ITLB_writeback_miss 0
Core_0_ITLB_writeback_MPKI 0
Core_0_ITLB_writeback_miss_rate 0
Core_0_ITLB_prefetch_requested 0
Core_0_ITLB_prefetch_issued 0
Core_0_ITLB_prefetch_useful 0
Core_0_ITLB_prefetch_useless 0
Core_0_ITLB_prefetch_late 0
Core_0_ITLB_prefetch_accuracy 0
Core_0_ITLB_prefetch_coverage 0

Core_0_DTLB_total_access 16706119
Core_0_DTLB_total_hit 16274798
Core_0_DTLB_total_miss 431321
Core_0_DTLB_total_MPKI 8.62642
Core_0_DTLB_total_miss_rate 0.0258181
Core_0_DTLB_demand_access 16706119
Core_0_DTLB_demand_hit 16274798
Core_0_DTLB_demand_miss 431321
Core_0_DTLB_demand_MPKI 8.62642
Core_0_DTLB_demand_miss_rate 0.0258181
Core_0_DTLB_load_access 16706119
Core_0_DTLB_load_hit 16274798
Core_0_DTLB_load_miss 431321
Core_0_DTLB_load_MPKI 8.62642
Core_0_DTLB_load_miss_rate 0.0258181
Core_0_DTLB_rfo_access 0
Core_0_DTLB_rfo_hit 0
Core_0_DTLB_rfo_miss 0
Core_0_DTLB_rfo_MPKI 0
Core_0_DTLB_rfo_miss_rate 0
Core_0_DTLB_prefetch_access 0
Core_0_DTLB_prefetch_hit 0
Core_0_DTLB_prefetch_miss 0
Core_0_DTLB_prefetch_MPKI 0
Core_0_DTLB_prefetch_miss_rate 0
Core_0_DTLB_writeback_access 0
Core_0_DTLB_writeback_hit 0
Core_0_DTLB_writeback_miss 0
Core_0_DTLB_writeback_MPKI 0
Core_0_DTLB_writeback_miss_rate 0
Core_0_DTLB_prefetch_requested 0
Core_0_DTLB_prefetch_issued 0
Core_0_DTLB_prefetch_useful 0
Core_0_DTLB_prefetch_useless 0
Core_0_DTLB_prefetch_late 0
Core_0_DTLB_prefetch_accuracy 0
Core_0_DTLB_prefetch_coverage 0

Core_0_STLB_total_access 59800
Core_0_STLB_total_hit 119
Core_0_STLB_total_miss 59681
Core_0_STLB_total_MPKI 1.19362
Core_0_STLB_total_miss_rate 0.99801
Core_0_STLB_demand_access 59800
Core_0_STLB_demand_hit 119
Core_0_STLB_demand_miss 59681
Core_0_STLB_demand_MPKI 1.19362
Core_0_STLB_demand_miss_rate 0.99801
Core_0_STLB_load_access 59800
Core_0_STLB_load_hit 119
Core_0_STLB_load_miss 59681
Core_0_STLB_load_MPKI 1.19362
Core_0_STLB_load_miss_rate 0.99801
Core_0_STLB_rfo_access 0
Core_0_STLB_rfo_hit 0
Core_0_STLB_rfo_miss 0
Core_0_STLB_rfo_MPKI 0
Core_0_STLB_rfo_miss_rate 0
Core_0_STLB_prefetch_access 0
Core_0_STLB_prefetch_hit 0
Core_0_STLB_prefetch_miss 0
Core_0_STLB_prefetch_MPKI 0
Core_0_STLB_prefetch_miss_rate 0
Core_0_STLB_writeback_access 0
Core_0_STLB_writeback_hit 0
Core_0_STLB_writeback_miss 0
Core_0_STLB_writeback_MPKI 0
Core_0_STLB_writeback_miss_rate 0
Core_0_STLB_prefetch_requested 0
Core_0_STLB_prefetch_issued 0
Core_0_STLB_prefetch_useful 0
Core_0_STLB_prefetch_useless 0
Core_0_STLB_prefetch_late 0
Core_0_STLB_prefetch_accuracy 0
Core_0_STLB_prefetch_coverage 0

Core_0_L1I_total_access 815568
Core_0_L1I_total_hit 815514
Core_0_L1I_total_miss 54
Core_0_L1I_total_MPKI 0.00108
Core_0_L1I_total_miss_rate 6.62115e-05
Core_0_L1I_demand_access 815568
Core_0_L1I_demand_hit 815514
Core_0_L1I_demand_miss 54
Core_0_L1I_demand_MPKI 0.00108
Core_0_L1I_demand_miss_rate 6.62115e-05
Core_0_L1I_load_access 815568
Core_0_L1I_load_hit 815514
Core_0_L1I_load_miss 54
Core_0_L1I_load_MPKI 0.00108
Core_0_L1I_load_miss_rate 6.62115e-05
Core_0_L1I_rfo_access 0
Core_0_L1I_rfo_hit 0
Core_0_L1I_rfo_miss 0
Core_0_L1I_rfo_MPKI 0
Core_0_L1I_rfo_miss_rate 0
Core_0_L1I_prefetch_access 0
Core_0_L1I_prefetch_hit 0
Core_0_L1I_prefetch_miss 0
Core_0_L1I_prefetch_MPKI 0
Core_0_L1I_prefetch_miss_rate 0
Core_0_L1I_writeback_access 0
Core_0_L1I_writeback_hit 0
Core_0_L1I_writeback_miss 0
Core_0_L1I_writeback_MPKI 0
Core_0_L1I_writeback_miss_rate 0
Core_0_L1I_prefetch_requested 0
Core_0_L1I_prefetch_issued 0
Core_0_L1I_prefetch_useful 0
Core_0_L1I_prefetch_useless 0
Core_0_L1I_prefetch_late 0
Core_0_L1I_prefetch_accuracy 0
Core_0_L1I_prefetch_coverage 0

Core_0_L1D_total_access 19574008
Core_0_L1D_total_hit 16834348
Core_0_L1D_total_miss 2739660
Core_0_L1D_total_MPKI 54.7932
Core_0_L1D_total_miss_rate 0.139964
Core_0_L1D_demand_access 7379790
Core_0_L1D_demand_hit 6759519
Core_0_L1D_demand_miss 620271
Core_0_L1D_demand_MPKI 12.4054
Core_0_L1D_demand_miss_rate 0.08405
Core_0_L1D_load_access 7379790
Core_0_L1D_load_hit 6759519
Core_0_L1D_load_miss 620271
Core_0_L1D_load_MPKI 12.4054
Core_0_L1D_load_miss_rate 0.08405
Core_0_L1D_rfo_access 0
Core_0_L1D_rfo_hit 0
Core_0_L1D_rfo_miss 0
Core_0_L1D_rfo_MPKI 0
Core_0_L1D_rfo_miss_rate 0
Core_0_L1D_prefetch_access 3932760
Core_0_L1D_prefetch_hit 2840162
Core_0_L1D_prefetch_miss 1092598
Core_0_L1D_prefetch_MPKI 21.852
Core_0_L1D_prefetch_miss_rate 0.27782
Core_0_L1D_writeback_access 8261458
Core_0_L1D_writeback_hit 7234667
Core_0_L1D_writeback_miss 1026791
Core_0_L1D_writeback_MPKI 20.5358
Core_0_L1D_writeback_miss_rate 0.124287
Core_0_L1D_prefetch_requested 6189883
Core_0_L1D_prefetch_issued 3932752
Core_0_L1D_prefetch_useful 446052
Core_0_L1D_prefetch_useless 26159
Core_0_L1D_prefetch_late 62078
Core_0_L1D_prefetch_accuracy 0.11342
Core_0_L1D_prefetch_coverage 0.418309

Core_0_L2C_total_access 3006388
Core_0_L2C_total_hit 1254292
Core_0_L2C_total_miss 1752096
Core_0_L2C_total_MPKI 35.0419
Core_0_L2C_total_miss_rate 0.582791
Core_0_L2C_demand_access 306001
Core_0_L2C_demand_hit 5828
Core_0_L2C_demand_miss 300173
Core_0_L2C_demand_MPKI 6.00346
Core_0_L2C_demand_miss_rate 0.980954
Core_0_L2C_load_access 175999
Core_0_L2C_load_hit 5827
Core_0_L2C_load_miss 170172
Core_0_L2C_load_MPKI 3.40344
Core_0_L2C_load_miss_rate 0.966892
Core_0_L2C_rfo_access 130002
Core_0_L2C_rfo_hit 1
Core_0_L2C_rfo_miss 130001
Core_0_L2C_rfo_MPKI 2.60002
Core_0_L2C_rfo_miss_rate 0.999992
Core_0_L2C_prefetch_access 2357931
Core_0_L2C_prefetch_hit 906024
Core_0_L2C_prefetch_miss 1451907
Core_0_L2C_prefetch_MPKI 29.0381
Core_0_L2C_prefetch_miss_rate 0.615755
Core_0_L2C_writeback_access 342456
Core_0_L2C_writeback_hit 342440
Core_0_L2C_writeback_miss 16
Core_0_L2C_writeback_MPKI 0.00032
Core_0_L2C_writeback_miss_rate 4.67213e-05
Core_0_L2C_prefetch_requested 1932885
Core_0_L2C_prefetch_issued 1885683
Core_0_L2C_prefetch_useful 247699
Core_0_L2C_prefetch_useless 300845
Core_0_L2C_prefetch_late 3375
Core_0_L2C_prefetch_accuracy 0.131358
Core_0_L2C_prefetch_coverage 0.452111

Core_0_LLC_total_access 1298111
Core_0_LLC_total_hit 128924
Core_0_LLC_total_miss 1169187
Core_0_LLC_total_MPKI 23.3837
Core_0_LLC_total_miss_rate 0.900683
Core_0_LLC_demand_access 296798
Core_0_LLC_demand_hit 93
Core_0_LLC_demand_miss 296705
Core_0_LLC_demand_MPKI 5.9341
Core_0_LLC_demand_miss_rate 0.999687
Core_0_LLC_load_access 166797
Core_0_LLC_load_hit 93
Core_0_LLC_load_miss 166704
Core_0_LLC_load_MPKI 3.33408
Core_0_LLC_load_miss_rate 0.999442
Core_0_LLC_rfo_access 130001
Core_0_LLC_rfo_hit 0
Core_0_LLC_rfo_miss 130001
Core_0_LLC_rfo_MPKI 2.60002
Core_0_LLC_rfo_miss_rate 1
Core_0_LLC_prefetch_access 654329
Core_0_LLC_prefetch_hit 2824
Core_0_LLC_prefetch_miss 651505
Core_0_LLC_prefetch_MPKI 13.0301
Core_0_LLC_prefetch_miss_rate 0.995684
Core_0_LLC_writeback_access 346984
Core_0_LLC_writeback_hit 126007
Core_0_LLC_writeback_miss 220977
Core_0_LLC_writeback_MPKI 4.41954
Core_0_LLC_writeback_miss_rate 0.636851
Core_0_LLC_prefetch_requested 0
Core_0_LLC_prefetch_issued 0
Core_0_LLC_prefetch_useful 0
Core_0_LLC_prefetch_useless 0
Core_0_LLC_prefetch_late 0
Core_0_LLC_prefetch_accuracy 0
Core_0_LLC_prefetch_coverage 0

[DRAM Statistics]
Channel_0_RQ_row_buffer_hit 190154
Channel_0_RQ_row_buffer_miss 765564
Channel_0_WQ_row_buffer_hit 72357
Channel_0_WQ_row_buffer_miss 286097
Channel_0_WQ_full 0
Channel_0_dbus_congested 3793355
DRAM_total_RQ_row_buffer_hit 190154
DRAM_total_RQ_row_buffer_miss 765564
DRAM_total_WQ_row_buffer_hit 72357
DRAM_total_WQ_row_buffer_miss 286097
DRAM_total_WQ_full 0
DRAM_total_dbus_congested 3793355
DRAM_avg_congested_cycle 7.96774

====== DRAM_RQ_TRAFFIC ========
DRAM_RQ_READ_TRAFFIC_BREAKDOWN:
data_demand_read.count = 296663
data_demand_read.share = 31.04%

inst_demand_read.count = 42
inst_demand_read.share = 0.00%

cache_inst_prefetch.count = 0
cache_inst_prefetch.share = 0.00%

cache_data_prefetch.count = 651505
cache_data_prefetch.share = 68.17%

stlb_data_demand.count = 7369
stlb_data_demand.share = 0.77%

stlb_inst_demand.count = 4
stlb_inst_demand.share = 0.00%

stlb_l1i_pref.count = 0
stlb_l1i_pref.share = 0.00%

stlb_l1d_pref.count = 150
stlb_l1d_pref.share = 0.02%

DRAM_RQ_READ_TRAFFIC_SUMMARY:
cache_demand.count = 296705
cache_demand.share = 31.04%

cache_prefetch.count = 651505
cache_prefetch.share = 68.17%

stlb_demand.count = 7373
stlb_demand.share = 0.77%

stlb_prefetch.count = 150
stlb_prefetch.share = 0.02%

DRAM_RQ_READ_TRAFFIC_DEBUG:
total_classified_read.count = 955733
unclassified_read.count = 0
total_read_with_other.count = 955733

classified_plus_unclassified_check.count = 955733
dram_rq_read_total_observed.count = 955733
dram_rq_read_total_observed.per_1K_instructions = 19.1147

STLB_MISS_PTW_DRAM_TOUCH_BREAKDOWN:
stlb_miss_total.count = 59681

stlb_miss_touch_dram.count = 7480
stlb_miss_touch_dram.share = 12.53%

stlb_miss_no_dram_touch.count = 52201
stlb_miss_no_dram_touch.share = 87.47%

STLB_MISS_PTW_DRAM_TOUCH_DEBUG:
stlb_miss_touch_plus_no_touch.count = 59681
stlb_miss_total_check.count = 59681

======STLB miss causes ========
Core_0_STLB_miss_cause_breakdown
Core_0_STLB_cause_Demand_Data_miss 58540
Core_0_STLB_cause_Demand_Data_miss_rate 0.97893
Core_0_STLB_cause_Demand_Instruction_miss 4
Core_0_STLB_cause_Demand_Instruction_miss_rate 6.68896e-05
Core_0_STLB_cause_L1D_Prefetch_miss 1137
Core_0_STLB_cause_L1D_Prefetch_miss_rate 0.0190134
Core_0_STLB_cause_L1I_Prefetch_miss 0
Core_0_STLB_cause_L1I_Prefetch_miss_rate 0
Core_0_STLB_cause_Other_miss 0
Core_0_STLB_cause_Other_miss_rate 0
Core_0_STLB_Demand_miss 58544
Core_0_STLB_Demand_miss_rate 0.978997
Core_0_STLB_L1D_Prefetch_miss 1137
Core_0_STLB_L1D_Prefetch_miss_rate 0.0190134
Core_0_STLB_Other_miss 0
Core_0_STLB_Other_miss_rate 0
