[VMEM] WARNING: physical memory size is smaller than virtual memory size.

*** ChampSim Multicore Out-of-Order Simulator ***
Warmup Instructions: 20000000
Simulation Instructions: 50000000
Number of CPUs: 1
Page size: 4096
Core 0: /data0/tzh/champsim_traces/SPEC06/450.soplex-92B.champsimtrace.xz
IPCP_AT_L1_CONFIG
NUM_IP_TABLE_L1_ENTRIES 1024
NUM_GHB_ENTRIES 16
NUM_IP_INDEX_BITS 10
NUM_IP_TAG_BITS 6
S_TYPE 1
CS_TYPE 2
CPLX_TYPE 3
NL_TYPE 4

Off-chip DRAM Size: 16 GiB Channels: 1 Width: 64-bit Data Rate: 3205 MT/s
Warmup halting CPU 0 at instruction 20000004 cycle 4912542 for remainder of phase
Warmup finished CPU 0 instructions: 20000004 cycles: 4912542 cumulative IPC: 4.071 (Simulation time: 00 hr 00 min 59 sec)
Warmup complete CPU 0 instructions: 20000004 cycles: 4912542 cumulative IPC: 4.071 (Simulation time: 00 hr 00 min 59 sec)
Simulation finished CPU 0 instructions: 50000000 cycles: 80533780 cumulative IPC: 0.6209 (Simulation time: 00 hr 08 min 31 sec)
Simulation complete CPU 0 instructions: 50000000 cycles: 80533780 cumulative IPC: 0.6209 (Simulation time: 00 hr 08 min 31 sec)

ChampSim completed all CPUs

=== Simulation ===
CPU 0 runs /data0/tzh/champsim_traces/SPEC06/450.soplex-92B.champsimtrace.xz

Region of Interest Statistics

CPU 0 cumulative IPC: 0.6209 instructions: 50000000 cycles: 80533780
CPU 0 Branch Prediction Accuracy: 94.51% MPKI: 10.68 Average ROB Occupancy at Mispredict: 44.56
Branch type MPKI
BRANCH_DIRECT_JUMP: 0.0005
BRANCH_INDIRECT: 2e-05
BRANCH_CONDITIONAL: 10.68
BRANCH_DIRECT_CALL: 0.0004
BRANCH_INDIRECT_CALL: 6e-05
BRANCH_RETURN: 0.00102

cpu0->cpu0_STLB TOTAL        ACCESS:     251920 HIT:     198030 MISS:      53890 MSHR_MERGE:          0
cpu0->cpu0_STLB LOAD         ACCESS:     251920 HIT:     198030 MISS:      53890 MSHR_MERGE:          0
cpu0->cpu0_STLB RFO          ACCESS:          0 HIT:          0 MISS:          0 MSHR_MERGE:          0
cpu0->cpu0_STLB PREFETCH     ACCESS:          0 HIT:          0 MISS:          0 MSHR_MERGE:          0
cpu0->cpu0_STLB WRITE        ACCESS:          0 HIT:          0 MISS:          0 MSHR_MERGE:          0
cpu0->cpu0_STLB TRANSLATION  ACCESS:          0 HIT:          0 MISS:          0 MSHR_MERGE:          0
cpu0->cpu0_STLB PREFETCH REQUESTED:          0 ISSUED:          0 USEFUL:          0 USELESS:          0 LATE:          0
cpu0->cpu0_STLB AVERAGE MISS LATENCY: 112.7 cycles
cpu0->cpu0_L2C TOTAL        ACCESS:    9658110 HIT:    4781764 MISS:    4876346 MSHR_MERGE:    2141821
cpu0->cpu0_L2C LOAD         ACCESS:     845976 HIT:     394938 MISS:     451038 MSHR_MERGE:      43011
cpu0->cpu0_L2C RFO          ACCESS:     324042 HIT:      27436 MISS:     296606 MSHR_MERGE:          1
cpu0->cpu0_L2C PREFETCH     ACCESS:    7696682 HIT:    3586321 MISS:    4110361 MSHR_MERGE:    2098809
cpu0->cpu0_L2C WRITE        ACCESS:     766402 HIT:     766080 MISS:        322 MSHR_MERGE:          0
cpu0->cpu0_L2C TRANSLATION  ACCESS:      25008 HIT:       6989 MISS:      18019 MSHR_MERGE:          0
cpu0->cpu0_L2C PREFETCH REQUESTED:    8292840 ISSUED:    6139325 USEFUL:     713107 USELESS:     674181 LATE:      43012
cpu0->cpu0_L2C AVERAGE MISS LATENCY: 234.4 cycles
cpu0->cpu0_L1I TOTAL        ACCESS:    2496910 HIT:    2496741 MISS:        169 MSHR_MERGE:         32
cpu0->cpu0_L1I LOAD         ACCESS:    2496910 HIT:    2496741 MISS:        169 MSHR_MERGE:         32
cpu0->cpu0_L1I RFO          ACCESS:          0 HIT:          0 MISS:          0 MSHR_MERGE:          0
cpu0->cpu0_L1I PREFETCH     ACCESS:          0 HIT:          0 MISS:          0 MSHR_MERGE:          0
cpu0->cpu0_L1I WRITE        ACCESS:          0 HIT:          0 MISS:          0 MSHR_MERGE:          0
cpu0->cpu0_L1I TRANSLATION  ACCESS:          0 HIT:          0 MISS:          0 MSHR_MERGE:          0
cpu0->cpu0_L1I PREFETCH REQUESTED:          0 ISSUED:          0 USEFUL:          0 USELESS:          0 LATE:          0
cpu0->cpu0_L1I AVERAGE MISS LATENCY: 258.3 cycles
cpu0->cpu0_L1D TOTAL        ACCESS:   18244691 HIT:   13417315 MISS:    4827376 MSHR_MERGE:    2075107
cpu0->cpu0_L1D LOAD         ACCESS:    9581423 HIT:    8324170 MISS:    1257253 MSHR_MERGE:     411394
cpu0->cpu0_L1D RFO          ACCESS:          0 HIT:          0 MISS:          0 MSHR_MERGE:          0
cpu0->cpu0_L1D PREFETCH     ACCESS:    4535076 HIT:    2479805 MISS:    2055271 MSHR_MERGE:     497918
cpu0->cpu0_L1D WRITE        ACCESS:    4020986 HIT:    2531805 MISS:    1489181 MSHR_MERGE:    1165132
cpu0->cpu0_L1D TRANSLATION  ACCESS:     107206 HIT:      81535 MISS:      25671 MSHR_MERGE:        663
cpu0->cpu0_L1D PREFETCH REQUESTED:   10547654 ISSUED:    4535068 USEFUL:     690351 USELESS:     866932 LATE:      88238
cpu0->cpu0_L1D AVERAGE MISS LATENCY: 158.4 cycles
cpu0->cpu0_ITLB TOTAL        ACCESS:    2135528 HIT:    2135512 MISS:         16 MSHR_MERGE:          7
cpu0->cpu0_ITLB LOAD         ACCESS:    2135528 HIT:    2135512 MISS:         16 MSHR_MERGE:          7
cpu0->cpu0_ITLB RFO          ACCESS:          0 HIT:          0 MISS:          0 MSHR_MERGE:          0
cpu0->cpu0_ITLB PREFETCH     ACCESS:          0 HIT:          0 MISS:          0 MSHR_MERGE:          0
cpu0->cpu0_ITLB WRITE        ACCESS:          0 HIT:          0 MISS:          0 MSHR_MERGE:          0
cpu0->cpu0_ITLB TRANSLATION  ACCESS:          0 HIT:          0 MISS:          0 MSHR_MERGE:          0
cpu0->cpu0_ITLB PREFETCH REQUESTED:          0 ISSUED:          0 USEFUL:          0 USELESS:          0 LATE:          0
cpu0->cpu0_ITLB AVERAGE MISS LATENCY: 394.9 cycles
cpu0->cpu0_DTLB TOTAL        ACCESS:   15926781 HIT:   15467501 MISS:     459280 MSHR_MERGE:     207369
cpu0->cpu0_DTLB LOAD         ACCESS:   15926781 HIT:   15467501 MISS:     459280 MSHR_MERGE:     207369
cpu0->cpu0_DTLB RFO          ACCESS:          0 HIT:          0 MISS:          0 MSHR_MERGE:          0
cpu0->cpu0_DTLB PREFETCH     ACCESS:          0 HIT:          0 MISS:          0 MSHR_MERGE:          0
cpu0->cpu0_DTLB WRITE        ACCESS:          0 HIT:          0 MISS:          0 MSHR_MERGE:          0
cpu0->cpu0_DTLB TRANSLATION  ACCESS:          0 HIT:          0 MISS:          0 MSHR_MERGE:          0
cpu0->cpu0_DTLB PREFETCH REQUESTED:          0 ISSUED:          0 USEFUL:          0 USELESS:          0 LATE:          0
cpu0->cpu0_DTLB AVERAGE MISS LATENCY: 29.31 cycles
cpu0->LLC TOTAL        ACCESS:    3334741 HIT:    1156291 MISS:    2178450 MSHR_MERGE:          0
cpu0->LLC LOAD         ACCESS:     408027 HIT:     129774 MISS:     278253 MSHR_MERGE:          0
cpu0->LLC RFO          ACCESS:     296605 HIT:      67948 MISS:     228657 MSHR_MERGE:          0
cpu0->LLC PREFETCH     ACCESS:    2011549 HIT:     561251 MISS:    1450298 MSHR_MERGE:          0
cpu0->LLC WRITE        ACCESS:     600541 HIT:     391956 MISS:     208585 MSHR_MERGE:          0
cpu0->LLC TRANSLATION  ACCESS:      18019 HIT:       5362 MISS:      12657 MSHR_MERGE:          0
cpu0->LLC PREFETCH REQUESTED:          0 ISSUED:          0 USEFUL:          0 USELESS:          0 LATE:          0
cpu0->LLC AVERAGE MISS LATENCY: 220.6 cycles

DRAM Statistics

Channel 0 RQ ROW_BUFFER_HIT:      92965
  ROW_BUFFER_MISS:    1875548
  AVG DBUS CONGESTED CYCLE: 5.966
Channel 0 WQ ROW_BUFFER_HIT:      56430
  ROW_BUFFER_MISS:     313204
  FULL:        511
Channel 0 REFRESHES ISSUED:       6711

[ROI Statistics]
[System Configuration]
num_cpus 1
cpu_freq 4000
fetch_width 6
decode_width 6
dispatch_width 6
execute_width 6
lq_width 2
sq_width 2
retire_width 6
scheduler_size 128
branch_mispredict_penalty 15
rob_size 352
lq_size 128
sq_size 72
ifetch_buffer_size 64
decode_buffer_size 32
dispatch_buffer_size 32
register_file_size 288
decode_latency 1
dispatch_latency 1
schedule_latency 1
execute_latency 1
page_size 4096
block_size 64
core_0_itlb_set 16
core_0_itlb_way 4
core_0_itlb_rq_size 16
core_0_itlb_wq_size 16
core_0_itlb_pq_size 0
core_0_itlb_mshr_size 8
core_0_itlb_hit_latency 1
core_0_itlb_fill_latency 1
core_0_itlb_max_tag_check 2
core_0_itlb_max_fill 2
core_0_dtlb_set 16
core_0_dtlb_way 4
core_0_dtlb_rq_size 16
core_0_dtlb_wq_size 16
core_0_dtlb_pq_size 0
core_0_dtlb_mshr_size 8
core_0_dtlb_hit_latency 1
core_0_dtlb_fill_latency 1
core_0_dtlb_max_tag_check 2
core_0_dtlb_max_fill 2
core_0_stlb_set 128
core_0_stlb_way 12
core_0_stlb_rq_size 32
core_0_stlb_wq_size 32
core_0_stlb_pq_size 0
core_0_stlb_mshr_size 16
core_0_stlb_hit_latency 4
core_0_stlb_fill_latency 4
core_0_stlb_max_tag_check 1
core_0_stlb_max_fill 1
core_0_l1i_set 64
core_0_l1i_way 8
core_0_l1i_rq_size 64
core_0_l1i_wq_size 64
core_0_l1i_pq_size 32
core_0_l1i_mshr_size 8
core_0_l1i_hit_latency 2
core_0_l1i_fill_latency 2
core_0_l1i_max_tag_check 2
core_0_l1i_max_fill 2
core_0_l1d_set 64
core_0_l1d_way 12
core_0_l1d_rq_size 64
core_0_l1d_wq_size 64
core_0_l1d_pq_size 8
core_0_l1d_mshr_size 16
core_0_l1d_hit_latency 2
core_0_l1d_fill_latency 3
core_0_l1d_max_tag_check 2
core_0_l1d_max_fill 2
core_0_l2c_set 1024
core_0_l2c_way 8
core_0_l2c_rq_size 32
core_0_l2c_wq_size 32
core_0_l2c_pq_size 16
core_0_l2c_mshr_size 32
core_0_l2c_hit_latency 5
core_0_l2c_fill_latency 5
core_0_l2c_max_tag_check 1
core_0_l2c_max_fill 1
llc_set 2048
llc_way 16
llc_rq_size 32
llc_wq_size 32
llc_pq_size 32
llc_mshr_size 64
llc_hit_latency 10
llc_fill_latency 10
llc_max_tag_check 1
llc_max_fill 1
dram_channels 1
dram_ranks 1
dram_bankgroups 8
dram_banks 4
dram_rows 65536
dram_columns 1024
dram_channel_width 8
dram_rq_size 64
dram_wq_size 64
dram_size 17179869184
core_0_itlb_prefetcher no
core_0_dtlb_prefetcher no
core_0_stlb_prefetcher no
core_0_l1i_prefetcher next_line
core_0_l1d_prefetcher ipcp
core_0_l2c_prefetcher pythia
llc_prefetcher no
llc_replacement drrip

Core_0_instructions 50000000
Core_0_cycles 80533780
Core_0_IPC 0.620857
Core_0_branch_prediction_accuracy 94.5075
Core_0_branch_MPKI 10.6826
Core_0_average_ROB_occupancy_at_mispredict 44.5647

Core_0_ITLB_total_access 2135528
Core_0_ITLB_total_hit 2135512
Core_0_ITLB_total_miss 16
Core_0_ITLB_total_MPKI 0.00032
Core_0_ITLB_total_miss_rate 7.49229e-06
Core_0_ITLB_demand_access 2135528
Core_0_ITLB_demand_hit 2135512
Core_0_ITLB_demand_miss 16
Core_0_ITLB_demand_MPKI 0.00032
Core_0_ITLB_demand_miss_rate 7.49229e-06
Core_0_ITLB_load_access 2135528
Core_0_ITLB_load_hit 2135512
Core_0_ITLB_load_miss 16
Core_0_ITLB_load_MPKI 0.00032
Core_0_ITLB_load_miss_rate 7.49229e-06
Core_0_ITLB_rfo_access 0
Core_0_ITLB_rfo_hit 0
Core_0_ITLB_rfo_miss 0
Core_0_ITLB_rfo_MPKI 0
Core_0_ITLB_rfo_miss_rate 0
Core_0_ITLB_prefetch_access 0
Core_0_ITLB_prefetch_hit 0
Core_0_ITLB_prefetch_miss 0
Core_0_ITLB_prefetch_MPKI 0
Core_0_ITLB_prefetch_miss_rate 0
Core_0_ITLB_writeback_access 0
Core_0_ITLB_writeback_hit 0
Core_0_ITLB_writeback_miss 0
Core_0_ITLB_writeback_MPKI 0
Core_0_ITLB_writeback_miss_rate 0
Core_0_ITLB_prefetch_requested 0
Core_0_ITLB_prefetch_issued 0
Core_0_ITLB_prefetch_useful 0
Core_0_ITLB_prefetch_useless 0
Core_0_ITLB_prefetch_late 0
Core_0_ITLB_prefetch_accuracy 0
Core_0_ITLB_prefetch_coverage 0

Core_0_DTLB_total_access 15926781
Core_0_DTLB_total_hit 15467501
Core_0_DTLB_total_miss 459280
Core_0_DTLB_total_MPKI 9.1856
Core_0_DTLB_total_miss_rate 0.028837
Core_0_DTLB_demand_access 15926781
Core_0_DTLB_demand_hit 15467501
Core_0_DTLB_demand_miss 459280
Core_0_DTLB_demand_MPKI 9.1856
Core_0_DTLB_demand_miss_rate 0.028837
Core_0_DTLB_load_access 15926781
Core_0_DTLB_load_hit 15467501
Core_0_DTLB_load_miss 459280
Core_0_DTLB_load_MPKI 9.1856
Core_0_DTLB_load_miss_rate 0.028837
Core_0_DTLB_rfo_access 0
Core_0_DTLB_rfo_hit 0
Core_0_DTLB_rfo_miss 0
Core_0_DTLB_rfo_MPKI 0
Core_0_DTLB_rfo_miss_rate 0
Core_0_DTLB_prefetch_access 0
Core_0_DTLB_prefetch_hit 0
Core_0_DTLB_prefetch_miss 0
Core_0_DTLB_prefetch_MPKI 0
Core_0_DTLB_prefetch_miss_rate 0
Core_0_DTLB_writeback_access 0
Core_0_DTLB_writeback_hit 0
Core_0_DTLB_writeback_miss 0
Core_0_DTLB_writeback_MPKI 0
Core_0_DTLB_writeback_miss_rate 0
Core_0_DTLB_prefetch_requested 0
Core_0_DTLB_prefetch_issued 0
Core_0_DTLB_prefetch_useful 0
Core_0_DTLB_prefetch_useless 0
Core_0_DTLB_prefetch_late 0
Core_0_DTLB_prefetch_accuracy 0
Core_0_DTLB_prefetch_coverage 0

Core_0_STLB_total_access 251920
Core_0_STLB_total_hit 198030
Core_0_STLB_total_miss 53890
Core_0_STLB_total_MPKI 1.0778
Core_0_STLB_total_miss_rate 0.213917
Core_0_STLB_demand_access 251920
Core_0_STLB_demand_hit 198030
Core_0_STLB_demand_miss 53890
Core_0_STLB_demand_MPKI 1.0778
Core_0_STLB_demand_miss_rate 0.213917
Core_0_STLB_load_access 251920
Core_0_STLB_load_hit 198030
Core_0_STLB_load_miss 53890
Core_0_STLB_load_MPKI 1.0778
Core_0_STLB_load_miss_rate 0.213917
Core_0_STLB_rfo_access 0
Core_0_STLB_rfo_hit 0
Core_0_STLB_rfo_miss 0
Core_0_STLB_rfo_MPKI 0
Core_0_STLB_rfo_miss_rate 0
Core_0_STLB_prefetch_access 0
Core_0_STLB_prefetch_hit 0
Core_0_STLB_prefetch_miss 0
Core_0_STLB_prefetch_MPKI 0
Core_0_STLB_prefetch_miss_rate 0
Core_0_STLB_writeback_access 0
Core_0_STLB_writeback_hit 0
Core_0_STLB_writeback_miss 0
Core_0_STLB_writeback_MPKI 0
Core_0_STLB_writeback_miss_rate 0
Core_0_STLB_prefetch_requested 0
Core_0_STLB_prefetch_issued 0
Core_0_STLB_prefetch_useful 0
Core_0_STLB_prefetch_useless 0
Core_0_STLB_prefetch_late 0
Core_0_STLB_prefetch_accuracy 0
Core_0_STLB_prefetch_coverage 0

Core_0_L1I_total_access 2496910
Core_0_L1I_total_hit 2496741
Core_0_L1I_total_miss 169
Core_0_L1I_total_MPKI 0.00338
Core_0_L1I_total_miss_rate 6.76837e-05
Core_0_L1I_demand_access 2496910
Core_0_L1I_demand_hit 2496741
Core_0_L1I_demand_miss 169
Core_0_L1I_demand_MPKI 0.00338
Core_0_L1I_demand_miss_rate 6.76837e-05
Core_0_L1I_load_access 2496910
Core_0_L1I_load_hit 2496741
Core_0_L1I_load_miss 169
Core_0_L1I_load_MPKI 0.00338
Core_0_L1I_load_miss_rate 6.76837e-05
Core_0_L1I_rfo_access 0
Core_0_L1I_rfo_hit 0
Core_0_L1I_rfo_miss 0
Core_0_L1I_rfo_MPKI 0
Core_0_L1I_rfo_miss_rate 0
Core_0_L1I_prefetch_access 0
Core_0_L1I_prefetch_hit 0
Core_0_L1I_prefetch_miss 0
Core_0_L1I_prefetch_MPKI 0
Core_0_L1I_prefetch_miss_rate 0
Core_0_L1I_writeback_access 0
Core_0_L1I_writeback_hit 0
Core_0_L1I_writeback_miss 0
Core_0_L1I_writeback_MPKI 0
Core_0_L1I_writeback_miss_rate 0
Core_0_L1I_prefetch_requested 0
Core_0_L1I_prefetch_issued 0
Core_0_L1I_prefetch_useful 0
Core_0_L1I_prefetch_useless 0
Core_0_L1I_prefetch_late 0
Core_0_L1I_prefetch_accuracy 0
Core_0_L1I_prefetch_coverage 0

Core_0_L1D_total_access 18137485
Core_0_L1D_total_hit 13335780
Core_0_L1D_total_miss 4801705
Core_0_L1D_total_MPKI 96.0341
Core_0_L1D_total_miss_rate 0.264739
Core_0_L1D_demand_access 9581423
Core_0_L1D_demand_hit 8324170
Core_0_L1D_demand_miss 1257253
Core_0_L1D_demand_MPKI 25.1451
Core_0_L1D_demand_miss_rate 0.131218
Core_0_L1D_load_access 9581423
Core_0_L1D_load_hit 8324170
Core_0_L1D_load_miss 1257253
Core_0_L1D_load_MPKI 25.1451
Core_0_L1D_load_miss_rate 0.131218
Core_0_L1D_rfo_access 0
Core_0_L1D_rfo_hit 0
Core_0_L1D_rfo_miss 0
Core_0_L1D_rfo_MPKI 0
Core_0_L1D_rfo_miss_rate 0
Core_0_L1D_prefetch_access 4535076
Core_0_L1D_prefetch_hit 2479805
Core_0_L1D_prefetch_miss 2055271
Core_0_L1D_prefetch_MPKI 41.1054
Core_0_L1D_prefetch_miss_rate 0.453194
Core_0_L1D_writeback_access 4020986
Core_0_L1D_writeback_hit 2531805
Core_0_L1D_writeback_miss 1489181
Core_0_L1D_writeback_MPKI 29.7836
Core_0_L1D_writeback_miss_rate 0.370352
Core_0_L1D_prefetch_requested 10547654
Core_0_L1D_prefetch_issued 4535068
Core_0_L1D_prefetch_useful 690351
Core_0_L1D_prefetch_useless 866932
Core_0_L1D_prefetch_late 88238
Core_0_L1D_prefetch_accuracy 0.152225
Core_0_L1D_prefetch_coverage 0.354462

Core_0_L2C_total_access 9633102
Core_0_L2C_total_hit 4774775
Core_0_L2C_total_miss 4858327
Core_0_L2C_total_MPKI 97.1665
Core_0_L2C_total_miss_rate 0.504337
Core_0_L2C_demand_access 1170018
Core_0_L2C_demand_hit 422374
Core_0_L2C_demand_miss 747644
Core_0_L2C_demand_MPKI 14.9529
Core_0_L2C_demand_miss_rate 0.639002
Core_0_L2C_load_access 845976
Core_0_L2C_load_hit 394938
Core_0_L2C_load_miss 451038
Core_0_L2C_load_MPKI 9.02076
Core_0_L2C_load_miss_rate 0.533157
Core_0_L2C_rfo_access 324042
Core_0_L2C_rfo_hit 27436
Core_0_L2C_rfo_miss 296606
Core_0_L2C_rfo_MPKI 5.93212
Core_0_L2C_rfo_miss_rate 0.915332
Core_0_L2C_prefetch_access 7696682
Core_0_L2C_prefetch_hit 3586321
Core_0_L2C_prefetch_miss 4110361
Core_0_L2C_prefetch_MPKI 82.2072
Core_0_L2C_prefetch_miss_rate 0.534043
Core_0_L2C_writeback_access 766402
Core_0_L2C_writeback_hit 766080
Core_0_L2C_writeback_miss 322
Core_0_L2C_writeback_MPKI 0.00644
Core_0_L2C_writeback_miss_rate 0.000420145
Core_0_L2C_prefetch_requested 8292840
Core_0_L2C_prefetch_issued 6139325
Core_0_L2C_prefetch_useful 713107
Core_0_L2C_prefetch_useless 674181
Core_0_L2C_prefetch_late 43012
Core_0_L2C_prefetch_accuracy 0.116154
Core_0_L2C_prefetch_coverage 0.488178

Core_0_LLC_total_access 3316722
Core_0_LLC_total_hit 1150929
Core_0_LLC_total_miss 2165793
Core_0_LLC_total_MPKI 43.3159
Core_0_LLC_total_miss_rate 0.652992
Core_0_LLC_demand_access 704632
Core_0_LLC_demand_hit 197722
Core_0_LLC_demand_miss 506910
Core_0_LLC_demand_MPKI 10.1382
Core_0_LLC_demand_miss_rate 0.719397
Core_0_LLC_load_access 408027
Core_0_LLC_load_hit 129774
Core_0_LLC_load_miss 278253
Core_0_LLC_load_MPKI 5.56506
Core_0_LLC_load_miss_rate 0.681948
Core_0_LLC_rfo_access 296605
Core_0_LLC_rfo_hit 67948
Core_0_LLC_rfo_miss 228657
Core_0_LLC_rfo_MPKI 4.57314
Core_0_LLC_rfo_miss_rate 0.770914
Core_0_LLC_prefetch_access 2011549
Core_0_LLC_prefetch_hit 561251
Core_0_LLC_prefetch_miss 1450298
Core_0_LLC_prefetch_MPKI 29.006
Core_0_LLC_prefetch_miss_rate 0.720986
Core_0_LLC_writeback_access 600541
Core_0_LLC_writeback_hit 391956
Core_0_LLC_writeback_miss 208585
Core_0_LLC_writeback_MPKI 4.1717
Core_0_LLC_writeback_miss_rate 0.347328
Core_0_LLC_prefetch_requested 0
Core_0_LLC_prefetch_issued 0
Core_0_LLC_prefetch_useful 0
Core_0_LLC_prefetch_useless 0
Core_0_LLC_prefetch_late 0
Core_0_LLC_prefetch_accuracy 0
Core_0_LLC_prefetch_coverage 0

[DRAM Statistics]
Channel_0_RQ_row_buffer_hit 92965
Channel_0_RQ_row_buffer_miss 1875548
Channel_0_WQ_row_buffer_hit 56430
Channel_0_WQ_row_buffer_miss 313204
Channel_0_WQ_full 511
Channel_0_dbus_congested 6105800
DRAM_total_RQ_row_buffer_hit 92965
DRAM_total_RQ_row_buffer_miss 1875548
DRAM_total_WQ_row_buffer_hit 56430
DRAM_total_WQ_row_buffer_miss 313204
DRAM_total_WQ_full 511
DRAM_total_dbus_congested 6105800
DRAM_avg_congested_cycle 5.96571

====== DRAM_RQ_TRAFFIC ========
DRAM_RQ_READ_TRAFFIC_BREAKDOWN:
data_demand_read.count = 506773
data_demand_read.share = 25.73%

inst_demand_read.count = 137
inst_demand_read.share = 0.01%

cache_inst_prefetch.count = 0
cache_inst_prefetch.share = 0.00%

cache_data_prefetch.count = 1450299
cache_data_prefetch.share = 73.62%

stlb_data_demand.count = 12650
stlb_data_demand.share = 0.64%

stlb_inst_demand.count = 7
stlb_inst_demand.share = 0.00%

stlb_l1i_pref.count = 0
stlb_l1i_pref.share = 0.00%

stlb_l1d_pref.count = 0
stlb_l1d_pref.share = 0.00%

DRAM_RQ_READ_TRAFFIC_SUMMARY:
cache_demand.count = 506910
cache_demand.share = 25.73%

cache_prefetch.count = 1450299
cache_prefetch.share = 73.62%

stlb_demand.count = 12657
stlb_demand.share = 0.64%

stlb_prefetch.count = 0
stlb_prefetch.share = 0.00%

DRAM_RQ_READ_TRAFFIC_DEBUG:
total_classified_read.count = 1969866
unclassified_read.count = 0
total_read_with_other.count = 1969866

classified_plus_unclassified_check.count = 1969866
dram_rq_read_total_observed.count = 1969866
dram_rq_read_total_observed.per_1K_instructions = 39.3973

STLB_MISS_PTW_DRAM_TOUCH_BREAKDOWN:
stlb_miss_total.count = 53890

stlb_miss_touch_dram.count = 12587
stlb_miss_touch_dram.share = 23.36%

stlb_miss_no_dram_touch.count = 41303
stlb_miss_no_dram_touch.share = 76.64%

STLB_MISS_PTW_DRAM_TOUCH_DEBUG:
stlb_miss_touch_plus_no_touch.count = 53890
stlb_miss_total_check.count = 53890

======STLB miss causes ========
Core_0_STLB_miss_cause_breakdown
Core_0_STLB_cause_Demand_Data_miss 53875
Core_0_STLB_cause_Demand_Data_miss_rate 0.213858
Core_0_STLB_cause_Demand_Instruction_miss 9
Core_0_STLB_cause_Demand_Instruction_miss_rate 3.57256e-05
Core_0_STLB_cause_L1D_Prefetch_miss 6
Core_0_STLB_cause_L1D_Prefetch_miss_rate 2.38171e-05
Core_0_STLB_cause_L1I_Prefetch_miss 0
Core_0_STLB_cause_L1I_Prefetch_miss_rate 0
Core_0_STLB_cause_Other_miss 0
Core_0_STLB_cause_Other_miss_rate 0
Core_0_STLB_Demand_miss 53884
Core_0_STLB_Demand_miss_rate 0.213893
Core_0_STLB_L1D_Prefetch_miss 6
Core_0_STLB_L1D_Prefetch_miss_rate 2.38171e-05
Core_0_STLB_Other_miss 0
Core_0_STLB_Other_miss_rate 0
