[VMEM] WARNING: physical memory size is smaller than virtual memory size.

*** ChampSim Multicore Out-of-Order Simulator ***
Warmup Instructions: 20000000
Simulation Instructions: 50000000
Number of CPUs: 1
Page size: 4096
Core 0: /data0/tzh/champsim_traces/SPEC06/459.GemsFDTD-765B.champsimtrace.xz
IPCP_AT_L1_CONFIG
NUM_IP_TABLE_L1_ENTRIES 1024
NUM_GHB_ENTRIES 16
NUM_IP_INDEX_BITS 10
NUM_IP_TAG_BITS 6
S_TYPE 1
CS_TYPE 2
CPLX_TYPE 3
NL_TYPE 4

Off-chip DRAM Size: 16 GiB Channels: 1 Width: 64-bit Data Rate: 3205 MT/s
Warmup halting CPU 0 at instruction 20000005 cycle 6986222 for remainder of phase
Warmup finished CPU 0 instructions: 20000005 cycles: 6986222 cumulative IPC: 2.863 (Simulation time: 00 hr 01 min 23 sec)
Warmup complete CPU 0 instructions: 20000005 cycles: 6986222 cumulative IPC: 2.863 (Simulation time: 00 hr 01 min 23 sec)
Simulation finished CPU 0 instructions: 50000004 cycles: 63520817 cumulative IPC: 0.7871 (Simulation time: 00 hr 09 min 48 sec)
Simulation complete CPU 0 instructions: 50000004 cycles: 63520817 cumulative IPC: 0.7871 (Simulation time: 00 hr 09 min 48 sec)

ChampSim completed all CPUs

=== Simulation ===
CPU 0 runs /data0/tzh/champsim_traces/SPEC06/459.GemsFDTD-765B.champsimtrace.xz

Region of Interest Statistics

CPU 0 cumulative IPC: 0.7871 instructions: 50000004 cycles: 63520817
CPU 0 Branch Prediction Accuracy: 99.9% MPKI: 0.00656 Average ROB Occupancy at Mispredict: 319.9
Branch type MPKI
BRANCH_DIRECT_JUMP: 0.00012
BRANCH_INDIRECT: 0
BRANCH_CONDITIONAL: 0.00644
BRANCH_DIRECT_CALL: 0
BRANCH_INDIRECT_CALL: 0
BRANCH_RETURN: 0

cpu0->cpu0_STLB TOTAL        ACCESS:     302837 HIT:      75373 MISS:     227464 MSHR_MERGE:          0
cpu0->cpu0_STLB LOAD         ACCESS:     302837 HIT:      75373 MISS:     227464 MSHR_MERGE:          0
cpu0->cpu0_STLB RFO          ACCESS:          0 HIT:          0 MISS:          0 MSHR_MERGE:          0
cpu0->cpu0_STLB PREFETCH     ACCESS:          0 HIT:          0 MISS:          0 MSHR_MERGE:          0
cpu0->cpu0_STLB WRITE        ACCESS:          0 HIT:          0 MISS:          0 MSHR_MERGE:          0
cpu0->cpu0_STLB TRANSLATION  ACCESS:          0 HIT:          0 MISS:          0 MSHR_MERGE:          0
cpu0->cpu0_STLB PREFETCH REQUESTED:          0 ISSUED:          0 USEFUL:          0 USELESS:          0 LATE:          0
cpu0->cpu0_STLB AVERAGE MISS LATENCY: 178.3 cycles
cpu0->cpu0_L2C TOTAL        ACCESS:    3573570 HIT:    1700845 MISS:    1872725 MSHR_MERGE:     189536
cpu0->cpu0_L2C LOAD         ACCESS:     433840 HIT:      96182 MISS:     337658 MSHR_MERGE:      14370
cpu0->cpu0_L2C RFO          ACCESS:       1258 HIT:       1249 MISS:          9 MSHR_MERGE:          0
cpu0->cpu0_L2C PREFETCH     ACCESS:    2629912 HIT:    1125596 MISS:    1504316 MSHR_MERGE:     175166
cpu0->cpu0_L2C WRITE        ACCESS:     476665 HIT:     476622 MISS:         43 MSHR_MERGE:          0
cpu0->cpu0_L2C TRANSLATION  ACCESS:      31895 HIT:       1196 MISS:      30699 MSHR_MERGE:          0
cpu0->cpu0_L2C PREFETCH REQUESTED:    1902542 ISSUED:    1900291 USEFUL:     271382 USELESS:     693896 LATE:      14370
cpu0->cpu0_L2C AVERAGE MISS LATENCY: 341.9 cycles
cpu0->cpu0_L1I TOTAL        ACCESS:   14396266 HIT:   14396076 MISS:        190 MSHR_MERGE:         81
cpu0->cpu0_L1I LOAD         ACCESS:   14396266 HIT:   14396076 MISS:        190 MSHR_MERGE:         81
cpu0->cpu0_L1I RFO          ACCESS:          0 HIT:          0 MISS:          0 MSHR_MERGE:          0
cpu0->cpu0_L1I PREFETCH     ACCESS:          0 HIT:          0 MISS:          0 MSHR_MERGE:          0
cpu0->cpu0_L1I WRITE        ACCESS:          0 HIT:          0 MISS:          0 MSHR_MERGE:          0
cpu0->cpu0_L1I TRANSLATION  ACCESS:          0 HIT:          0 MISS:          0 MSHR_MERGE:          0
cpu0->cpu0_L1I PREFETCH REQUESTED:          0 ISSUED:          0 USEFUL:          0 USELESS:          0 LATE:          0
cpu0->cpu0_L1I AVERAGE MISS LATENCY: 243.5 cycles
cpu0->cpu0_L1D TOTAL        ACCESS:   28418937 HIT:   26811530 MISS:    1607407 MSHR_MERGE:     410892
cpu0->cpu0_L1D LOAD         ACCESS:   22017296 HIT:   21433596 MISS:     583700 MSHR_MERGE:     149969
cpu0->cpu0_L1D RFO          ACCESS:          0 HIT:          0 MISS:          0 MSHR_MERGE:          0
cpu0->cpu0_L1D PREFETCH     ACCESS:    2553036 HIT:    1567431 MISS:     985605 MSHR_MERGE:     255984
cpu0->cpu0_L1D WRITE        ACCESS:    3396595 HIT:    3393768 MISS:       2827 MSHR_MERGE:       1559
cpu0->cpu0_L1D TRANSLATION  ACCESS:     452010 HIT:     416735 MISS:      35275 MSHR_MERGE:       3380
cpu0->cpu0_L1D PREFETCH REQUESTED:    2884036 ISSUED:    2553033 USEFUL:     636494 USELESS:      93147 LATE:      76822
cpu0->cpu0_L1D AVERAGE MISS LATENCY: 275.4 cycles
cpu0->cpu0_ITLB TOTAL        ACCESS:   12475288 HIT:   12475280 MISS:          8 MSHR_MERGE:          6
cpu0->cpu0_ITLB LOAD         ACCESS:   12475288 HIT:   12475280 MISS:          8 MSHR_MERGE:          6
cpu0->cpu0_ITLB RFO          ACCESS:          0 HIT:          0 MISS:          0 MSHR_MERGE:          0
cpu0->cpu0_ITLB PREFETCH     ACCESS:          0 HIT:          0 MISS:          0 MSHR_MERGE:          0
cpu0->cpu0_ITLB WRITE        ACCESS:          0 HIT:          0 MISS:          0 MSHR_MERGE:          0
cpu0->cpu0_ITLB TRANSLATION  ACCESS:          0 HIT:          0 MISS:          0 MSHR_MERGE:          0
cpu0->cpu0_ITLB PREFETCH REQUESTED:          0 ISSUED:          0 USEFUL:          0 USELESS:          0 LATE:          0
cpu0->cpu0_ITLB AVERAGE MISS LATENCY: 1010 cycles
cpu0->cpu0_DTLB TOTAL        ACCESS:   26659947 HIT:   26254624 MISS:     405323 MSHR_MERGE:     102488
cpu0->cpu0_DTLB LOAD         ACCESS:   26659947 HIT:   26254624 MISS:     405323 MSHR_MERGE:     102488
cpu0->cpu0_DTLB RFO          ACCESS:          0 HIT:          0 MISS:          0 MSHR_MERGE:          0
cpu0->cpu0_DTLB PREFETCH     ACCESS:          0 HIT:          0 MISS:          0 MSHR_MERGE:          0
cpu0->cpu0_DTLB WRITE        ACCESS:          0 HIT:          0 MISS:          0 MSHR_MERGE:          0
cpu0->cpu0_DTLB TRANSLATION  ACCESS:          0 HIT:          0 MISS:          0 MSHR_MERGE:          0
cpu0->cpu0_DTLB PREFETCH REQUESTED:          0 ISSUED:          0 USEFUL:          0 USELESS:          0 LATE:          0
cpu0->cpu0_DTLB AVERAGE MISS LATENCY: 139.7 cycles
cpu0->LLC TOTAL        ACCESS:    2158210 HIT:     321080 MISS:    1837130 MSHR_MERGE:          0
cpu0->LLC LOAD         ACCESS:     323288 HIT:       6354 MISS:     316934 MSHR_MERGE:          0
cpu0->LLC RFO          ACCESS:          9 HIT:          0 MISS:          9 MSHR_MERGE:          0
cpu0->LLC PREFETCH     ACCESS:    1329150 HIT:      64970 MISS:    1264180 MSHR_MERGE:          0
cpu0->LLC WRITE        ACCESS:     475064 HIT:     249493 MISS:     225571 MSHR_MERGE:          0
cpu0->LLC TRANSLATION  ACCESS:      30699 HIT:        263 MISS:      30436 MSHR_MERGE:          0
cpu0->LLC PREFETCH REQUESTED:          0 ISSUED:          0 USEFUL:          0 USELESS:          0 LATE:          0
cpu0->LLC AVERAGE MISS LATENCY: 207.5 cycles

DRAM Statistics

Channel 0 RQ ROW_BUFFER_HIT:      80468
  ROW_BUFFER_MISS:    1531088
  AVG DBUS CONGESTED CYCLE: 5.955
Channel 0 WQ ROW_BUFFER_HIT:      53723
  ROW_BUFFER_MISS:     421584
  FULL:          0
Channel 0 REFRESHES ISSUED:       5293

[ROI Statistics]
[System Configuration]
num_cpus 1
cpu_freq 4000
fetch_width 6
decode_width 6
dispatch_width 6
execute_width 6
lq_width 2
sq_width 2
retire_width 6
scheduler_size 128
branch_mispredict_penalty 15
rob_size 352
lq_size 128
sq_size 72
ifetch_buffer_size 64
decode_buffer_size 32
dispatch_buffer_size 32
register_file_size 288
decode_latency 1
dispatch_latency 1
schedule_latency 1
execute_latency 1
page_size 4096
block_size 64
core_0_itlb_set 16
core_0_itlb_way 4
core_0_itlb_rq_size 16
core_0_itlb_wq_size 16
core_0_itlb_pq_size 0
core_0_itlb_mshr_size 8
core_0_itlb_hit_latency 1
core_0_itlb_fill_latency 1
core_0_itlb_max_tag_check 2
core_0_itlb_max_fill 2
core_0_dtlb_set 16
core_0_dtlb_way 4
core_0_dtlb_rq_size 16
core_0_dtlb_wq_size 16
core_0_dtlb_pq_size 0
core_0_dtlb_mshr_size 8
core_0_dtlb_hit_latency 1
core_0_dtlb_fill_latency 1
core_0_dtlb_max_tag_check 2
core_0_dtlb_max_fill 2
core_0_stlb_set 128
core_0_stlb_way 12
core_0_stlb_rq_size 32
core_0_stlb_wq_size 32
core_0_stlb_pq_size 0
core_0_stlb_mshr_size 16
core_0_stlb_hit_latency 4
core_0_stlb_fill_latency 4
core_0_stlb_max_tag_check 1
core_0_stlb_max_fill 1
core_0_l1i_set 64
core_0_l1i_way 8
core_0_l1i_rq_size 64
core_0_l1i_wq_size 64
core_0_l1i_pq_size 32
core_0_l1i_mshr_size 8
core_0_l1i_hit_latency 2
core_0_l1i_fill_latency 2
core_0_l1i_max_tag_check 2
core_0_l1i_max_fill 2
core_0_l1d_set 64
core_0_l1d_way 12
core_0_l1d_rq_size 64
core_0_l1d_wq_size 64
core_0_l1d_pq_size 8
core_0_l1d_mshr_size 16
core_0_l1d_hit_latency 2
core_0_l1d_fill_latency 3
core_0_l1d_max_tag_check 2
core_0_l1d_max_fill 2
core_0_l2c_set 1024
core_0_l2c_way 8
core_0_l2c_rq_size 32
core_0_l2c_wq_size 32
core_0_l2c_pq_size 16
core_0_l2c_mshr_size 32
core_0_l2c_hit_latency 5
core_0_l2c_fill_latency 5
core_0_l2c_max_tag_check 1
core_0_l2c_max_fill 1
llc_set 2048
llc_way 16
llc_rq_size 32
llc_wq_size 32
llc_pq_size 32
llc_mshr_size 64
llc_hit_latency 10
llc_fill_latency 10
llc_max_tag_check 1
llc_max_fill 1
dram_channels 1
dram_ranks 1
dram_bankgroups 8
dram_banks 4
dram_rows 65536
dram_columns 1024
dram_channel_width 8
dram_rq_size 64
dram_wq_size 64
dram_size 17179869184
core_0_itlb_prefetcher no
core_0_dtlb_prefetcher no
core_0_stlb_prefetcher no
core_0_l1i_prefetcher next_line
core_0_l1d_prefetcher ipcp
core_0_l2c_prefetcher pythia
llc_prefetcher no
llc_replacement drrip

Core_0_instructions 50000004
Core_0_cycles 63520817
Core_0_IPC 0.787144
Core_0_branch_prediction_accuracy 99.9006
Core_0_branch_MPKI 0.00656
Core_0_average_ROB_occupancy_at_mispredict 319.921

Core_0_ITLB_total_access 12475288
Core_0_ITLB_total_hit 12475280
Core_0_ITLB_total_miss 8
Core_0_ITLB_total_MPKI 0.00016
Core_0_ITLB_total_miss_rate 6.41268e-07
Core_0_ITLB_demand_access 12475288
Core_0_ITLB_demand_hit 12475280
Core_0_ITLB_demand_miss 8
Core_0_ITLB_demand_MPKI 0.00016
Core_0_ITLB_demand_miss_rate 6.41268e-07
Core_0_ITLB_load_access 12475288
Core_0_ITLB_load_hit 12475280
Core_0_ITLB_load_miss 8
Core_0_ITLB_load_MPKI 0.00016
Core_0_ITLB_load_miss_rate 6.41268e-07
Core_0_ITLB_rfo_access 0
Core_0_ITLB_rfo_hit 0
Core_0_ITLB_rfo_miss 0
Core_0_ITLB_rfo_MPKI 0
Core_0_ITLB_rfo_miss_rate 0
Core_0_ITLB_prefetch_access 0
Core_0_ITLB_prefetch_hit 0
Core_0_ITLB_prefetch_miss 0
Core_0_ITLB_prefetch_MPKI 0
Core_0_ITLB_prefetch_miss_rate 0
Core_0_ITLB_writeback_access 0
Core_0_ITLB_writeback_hit 0
Core_0_ITLB_writeback_miss 0
Core_0_ITLB_writeback_MPKI 0
Core_0_ITLB_writeback_miss_rate 0
Core_0_ITLB_prefetch_requested 0
Core_0_ITLB_prefetch_issued 0
Core_0_ITLB_prefetch_useful 0
Core_0_ITLB_prefetch_useless 0
Core_0_ITLB_prefetch_late 0
Core_0_ITLB_prefetch_accuracy 0
Core_0_ITLB_prefetch_coverage 0

Core_0_DTLB_total_access 26659947
Core_0_DTLB_total_hit 26254624
Core_0_DTLB_total_miss 405323
Core_0_DTLB_total_MPKI 8.10646
Core_0_DTLB_total_miss_rate 0.0152034
Core_0_DTLB_demand_access 26659947
Core_0_DTLB_demand_hit 26254624
Core_0_DTLB_demand_miss 405323
Core_0_DTLB_demand_MPKI 8.10646
Core_0_DTLB_demand_miss_rate 0.0152034
Core_0_DTLB_load_access 26659947
Core_0_DTLB_load_hit 26254624
Core_0_DTLB_load_miss 405323
Core_0_DTLB_load_MPKI 8.10646
Core_0_DTLB_load_miss_rate 0.0152034
Core_0_DTLB_rfo_access 0
Core_0_DTLB_rfo_hit 0
Core_0_DTLB_rfo_miss 0
Core_0_DTLB_rfo_MPKI 0
Core_0_DTLB_rfo_miss_rate 0
Core_0_DTLB_prefetch_access 0
Core_0_DTLB_prefetch_hit 0
Core_0_DTLB_prefetch_miss 0
Core_0_DTLB_prefetch_MPKI 0
Core_0_DTLB_prefetch_miss_rate 0
Core_0_DTLB_writeback_access 0
Core_0_DTLB_writeback_hit 0
Core_0_DTLB_writeback_miss 0
Core_0_DTLB_writeback_MPKI 0
Core_0_DTLB_writeback_miss_rate 0
Core_0_DTLB_prefetch_requested 0
Core_0_DTLB_prefetch_issued 0
Core_0_DTLB_prefetch_useful 0
Core_0_DTLB_prefetch_useless 0
Core_0_DTLB_prefetch_late 0
Core_0_DTLB_prefetch_accuracy 0
Core_0_DTLB_prefetch_coverage 0

Core_0_STLB_total_access 302837
Core_0_STLB_total_hit 75373
Core_0_STLB_total_miss 227464
Core_0_STLB_total_MPKI 4.54928
Core_0_STLB_total_miss_rate 0.75111
Core_0_STLB_demand_access 302837
Core_0_STLB_demand_hit 75373
Core_0_STLB_demand_miss 227464
Core_0_STLB_demand_MPKI 4.54928
Core_0_STLB_demand_miss_rate 0.75111
Core_0_STLB_load_access 302837
Core_0_STLB_load_hit 75373
Core_0_STLB_load_miss 227464
Core_0_STLB_load_MPKI 4.54928
Core_0_STLB_load_miss_rate 0.75111
Core_0_STLB_rfo_access 0
Core_0_STLB_rfo_hit 0
Core_0_STLB_rfo_miss 0
Core_0_STLB_rfo_MPKI 0
Core_0_STLB_rfo_miss_rate 0
Core_0_STLB_prefetch_access 0
Core_0_STLB_prefetch_hit 0
Core_0_STLB_prefetch_miss 0
Core_0_STLB_prefetch_MPKI 0
Core_0_STLB_prefetch_miss_rate 0
Core_0_STLB_writeback_access 0
Core_0_STLB_writeback_hit 0
Core_0_STLB_writeback_miss 0
Core_0_STLB_writeback_MPKI 0
Core_0_STLB_writeback_miss_rate 0
Core_0_STLB_prefetch_requested 0
Core_0_STLB_prefetch_issued 0
Core_0_STLB_prefetch_useful 0
Core_0_STLB_prefetch_useless 0
Core_0_STLB_prefetch_late 0
Core_0_STLB_prefetch_accuracy 0
Core_0_STLB_prefetch_coverage 0

Core_0_L1I_total_access 14396266
Core_0_L1I_total_hit 14396076
Core_0_L1I_total_miss 190
Core_0_L1I_total_MPKI 0.0038
Core_0_L1I_total_miss_rate 1.31979e-05
Core_0_L1I_demand_access 14396266
Core_0_L1I_demand_hit 14396076
Core_0_L1I_demand_miss 190
Core_0_L1I_demand_MPKI 0.0038
Core_0_L1I_demand_miss_rate 1.31979e-05
Core_0_L1I_load_access 14396266
Core_0_L1I_load_hit 14396076
Core_0_L1I_load_miss 190
Core_0_L1I_load_MPKI 0.0038
Core_0_L1I_load_miss_rate 1.31979e-05
Core_0_L1I_rfo_access 0
Core_0_L1I_rfo_hit 0
Core_0_L1I_rfo_miss 0
Core_0_L1I_rfo_MPKI 0
Core_0_L1I_rfo_miss_rate 0
Core_0_L1I_prefetch_access 0
Core_0_L1I_prefetch_hit 0
Core_0_L1I_prefetch_miss 0
Core_0_L1I_prefetch_MPKI 0
Core_0_L1I_prefetch_miss_rate 0
Core_0_L1I_writeback_access 0
Core_0_L1I_writeback_hit 0
Core_0_L1I_writeback_miss 0
Core_0_L1I_writeback_MPKI 0
Core_0_L1I_writeback_miss_rate 0
Core_0_L1I_prefetch_requested 0
Core_0_L1I_prefetch_issued 0
Core_0_L1I_prefetch_useful 0
Core_0_L1I_prefetch_useless 0
Core_0_L1I_prefetch_late 0
Core_0_L1I_prefetch_accuracy 0
Core_0_L1I_prefetch_coverage 0

Core_0_L1D_total_access 27966927
Core_0_L1D_total_hit 26394795
Core_0_L1D_total_miss 1572132
Core_0_L1D_total_MPKI 31.4426
Core_0_L1D_total_miss_rate 0.056214
Core_0_L1D_demand_access 22017296
Core_0_L1D_demand_hit 21433596
Core_0_L1D_demand_miss 583700
Core_0_L1D_demand_MPKI 11.674
Core_0_L1D_demand_miss_rate 0.026511
Core_0_L1D_load_access 22017296
Core_0_L1D_load_hit 21433596
Core_0_L1D_load_miss 583700
Core_0_L1D_load_MPKI 11.674
Core_0_L1D_load_miss_rate 0.026511
Core_0_L1D_rfo_access 0
Core_0_L1D_rfo_hit 0
Core_0_L1D_rfo_miss 0
Core_0_L1D_rfo_MPKI 0
Core_0_L1D_rfo_miss_rate 0
Core_0_L1D_prefetch_access 2553036
Core_0_L1D_prefetch_hit 1567431
Core_0_L1D_prefetch_miss 985605
Core_0_L1D_prefetch_MPKI 19.7121
Core_0_L1D_prefetch_miss_rate 0.386052
Core_0_L1D_writeback_access 3396595
Core_0_L1D_writeback_hit 3393768
Core_0_L1D_writeback_miss 2827
Core_0_L1D_writeback_MPKI 0.05654
Core_0_L1D_writeback_miss_rate 0.000832304
Core_0_L1D_prefetch_requested 2884036
Core_0_L1D_prefetch_issued 2553033
Core_0_L1D_prefetch_useful 636494
Core_0_L1D_prefetch_useless 93147
Core_0_L1D_prefetch_late 76822
Core_0_L1D_prefetch_accuracy 0.249309
Core_0_L1D_prefetch_coverage 0.521633

Core_0_L2C_total_access 3541675
Core_0_L2C_total_hit 1699649
Core_0_L2C_total_miss 1842026
Core_0_L2C_total_MPKI 36.8405
Core_0_L2C_total_miss_rate 0.5201
Core_0_L2C_demand_access 435098
Core_0_L2C_demand_hit 97431
Core_0_L2C_demand_miss 337667
Core_0_L2C_demand_MPKI 6.75334
Core_0_L2C_demand_miss_rate 0.776071
Core_0_L2C_load_access 433840
Core_0_L2C_load_hit 96182
Core_0_L2C_load_miss 337658
Core_0_L2C_load_MPKI 6.75316
Core_0_L2C_load_miss_rate 0.778301
Core_0_L2C_rfo_access 1258
Core_0_L2C_rfo_hit 1249
Core_0_L2C_rfo_miss 9
Core_0_L2C_rfo_MPKI 0.00018
Core_0_L2C_rfo_miss_rate 0.00715421
Core_0_L2C_prefetch_access 2629912
Core_0_L2C_prefetch_hit 1125596
Core_0_L2C_prefetch_miss 1504316
Core_0_L2C_prefetch_MPKI 30.0863
Core_0_L2C_prefetch_miss_rate 0.572002
Core_0_L2C_writeback_access 476665
Core_0_L2C_writeback_hit 476622
Core_0_L2C_writeback_miss 43
Core_0_L2C_writeback_MPKI 0.00086
Core_0_L2C_writeback_miss_rate 9.02101e-05
Core_0_L2C_prefetch_requested 1902542
Core_0_L2C_prefetch_issued 1900291
Core_0_L2C_prefetch_useful 271382
Core_0_L2C_prefetch_useless 693896
Core_0_L2C_prefetch_late 14370
Core_0_L2C_prefetch_accuracy 0.142811
Core_0_L2C_prefetch_coverage 0.445583

Core_0_LLC_total_access 2127511
Core_0_LLC_total_hit 320817
Core_0_LLC_total_miss 1806694
Core_0_LLC_total_MPKI 36.1339
Core_0_LLC_total_miss_rate 0.849205
Core_0_LLC_demand_access 323297
Core_0_LLC_demand_hit 6354
Core_0_LLC_demand_miss 316943
Core_0_LLC_demand_MPKI 6.33886
Core_0_LLC_demand_miss_rate 0.980346
Core_0_LLC_load_access 323288
Core_0_LLC_load_hit 6354
Core_0_LLC_load_miss 316934
Core_0_LLC_load_MPKI 6.33868
Core_0_LLC_load_miss_rate 0.980346
Core_0_LLC_rfo_access 9
Core_0_LLC_rfo_hit 0
Core_0_LLC_rfo_miss 9
Core_0_LLC_rfo_MPKI 0.00018
Core_0_LLC_rfo_miss_rate 1
Core_0_LLC_prefetch_access 1329150
Core_0_LLC_prefetch_hit 64970
Core_0_LLC_prefetch_miss 1264180
Core_0_LLC_prefetch_MPKI 25.2836
Core_0_LLC_prefetch_miss_rate 0.951119
Core_0_LLC_writeback_access 475064
Core_0_LLC_writeback_hit 249493
Core_0_LLC_writeback_miss 225571
Core_0_LLC_writeback_MPKI 4.51142
Core_0_LLC_writeback_miss_rate 0.474822
Core_0_LLC_prefetch_requested 0
Core_0_LLC_prefetch_issued 0
Core_0_LLC_prefetch_useful 0
Core_0_LLC_prefetch_useless 0
Core_0_LLC_prefetch_late 0
Core_0_LLC_prefetch_accuracy 0
Core_0_LLC_prefetch_coverage 0

[DRAM Statistics]
Channel_0_RQ_row_buffer_hit 80468
Channel_0_RQ_row_buffer_miss 1531088
Channel_0_WQ_row_buffer_hit 53723
Channel_0_WQ_row_buffer_miss 421584
Channel_0_WQ_full 0
Channel_0_dbus_congested 5361381
DRAM_total_RQ_row_buffer_hit 80468
DRAM_total_RQ_row_buffer_miss 1531088
DRAM_total_WQ_row_buffer_hit 53723
DRAM_total_WQ_row_buffer_miss 421584
DRAM_total_WQ_full 0
DRAM_total_dbus_congested 5361381
DRAM_avg_congested_cycle 5.95504

====== DRAM_RQ_TRAFFIC ========
DRAM_RQ_READ_TRAFFIC_BREAKDOWN:
data_demand_read.count = 316834
data_demand_read.share = 19.66%

inst_demand_read.count = 109
inst_demand_read.share = 0.01%

cache_inst_prefetch.count = 0
cache_inst_prefetch.share = 0.00%

cache_data_prefetch.count = 1264180
cache_data_prefetch.share = 78.44%

stlb_data_demand.count = 30431
stlb_data_demand.share = 1.89%

stlb_inst_demand.count = 4
stlb_inst_demand.share = 0.00%

stlb_l1i_pref.count = 0
stlb_l1i_pref.share = 0.00%

stlb_l1d_pref.count = 1
stlb_l1d_pref.share = 0.00%

DRAM_RQ_READ_TRAFFIC_SUMMARY:
cache_demand.count = 316943
cache_demand.share = 19.67%

cache_prefetch.count = 1264180
cache_prefetch.share = 78.44%

stlb_demand.count = 30435
stlb_demand.share = 1.89%

stlb_prefetch.count = 1
stlb_prefetch.share = 0.00%

DRAM_RQ_READ_TRAFFIC_DEBUG:
total_classified_read.count = 1611559
unclassified_read.count = 0
total_read_with_other.count = 1611559

classified_plus_unclassified_check.count = 1611559
dram_rq_read_total_observed.count = 1611559
dram_rq_read_total_observed.per_1K_instructions = 32.2312

STLB_MISS_PTW_DRAM_TOUCH_BREAKDOWN:
stlb_miss_total.count = 227464

stlb_miss_touch_dram.count = 30188
stlb_miss_touch_dram.share = 13.27%

stlb_miss_no_dram_touch.count = 197276
stlb_miss_no_dram_touch.share = 86.73%

STLB_MISS_PTW_DRAM_TOUCH_DEBUG:
stlb_miss_touch_plus_no_touch.count = 227464
stlb_miss_total_check.count = 227464

======STLB miss causes ========
Core_0_STLB_miss_cause_breakdown
Core_0_STLB_cause_Demand_Data_miss 227459
Core_0_STLB_cause_Demand_Data_miss_rate 0.751094
Core_0_STLB_cause_Demand_Instruction_miss 2
Core_0_STLB_cause_Demand_Instruction_miss_rate 6.60421e-06
Core_0_STLB_cause_L1D_Prefetch_miss 3
Core_0_STLB_cause_L1D_Prefetch_miss_rate 9.90632e-06
Core_0_STLB_cause_L1I_Prefetch_miss 0
Core_0_STLB_cause_L1I_Prefetch_miss_rate 0
Core_0_STLB_cause_Other_miss 0
Core_0_STLB_cause_Other_miss_rate 0
Core_0_STLB_Demand_miss 227461
Core_0_STLB_Demand_miss_rate 0.7511
Core_0_STLB_L1D_Prefetch_miss 3
Core_0_STLB_L1D_Prefetch_miss_rate 9.90632e-06
Core_0_STLB_Other_miss 0
Core_0_STLB_Other_miss_rate 0
