[VMEM] WARNING: physical memory size is smaller than virtual memory size.

*** ChampSim Multicore Out-of-Order Simulator ***
Warmup Instructions: 20000000
Simulation Instructions: 50000000
Number of CPUs: 1
Page size: 4096
Core 0: /data0/tzh/champsim_traces/SPEC17/605.mcf_s-994B.champsimtrace.xz
IPCP_AT_L1_CONFIG
NUM_IP_TABLE_L1_ENTRIES 1024
NUM_GHB_ENTRIES 16
NUM_IP_INDEX_BITS 10
NUM_IP_TAG_BITS 6
S_TYPE 1
CS_TYPE 2
CPLX_TYPE 3
NL_TYPE 4

Off-chip DRAM Size: 16 GiB Channels: 1 Width: 64-bit Data Rate: 3205 MT/s
Warmup halting CPU 0 at instruction 20000004 cycle 5258989 for remainder of phase
Warmup finished CPU 0 instructions: 20000004 cycles: 5258989 cumulative IPC: 3.803 (Simulation time: 00 hr 01 min 05 sec)
Warmup complete CPU 0 instructions: 20000004 cycles: 5258989 cumulative IPC: 3.803 (Simulation time: 00 hr 01 min 05 sec)
Simulation finished CPU 0 instructions: 50000001 cycles: 199022133 cumulative IPC: 0.2512 (Simulation time: 00 hr 17 min 09 sec)
Simulation complete CPU 0 instructions: 50000001 cycles: 199022133 cumulative IPC: 0.2512 (Simulation time: 00 hr 17 min 09 sec)

ChampSim completed all CPUs

=== Simulation ===
CPU 0 runs /data0/tzh/champsim_traces/SPEC17/605.mcf_s-994B.champsimtrace.xz

Region of Interest Statistics

CPU 0 cumulative IPC: 0.2512 instructions: 50000001 cycles: 199022133
CPU 0 Branch Prediction Accuracy: 94.39% MPKI: 14.14 Average ROB Occupancy at Mispredict: 51.88
Branch type MPKI
BRANCH_DIRECT_JUMP: 0.1366
BRANCH_INDIRECT: 0
BRANCH_CONDITIONAL: 14
BRANCH_DIRECT_CALL: 0
BRANCH_INDIRECT_CALL: 0.00264
BRANCH_RETURN: 4e-05

cpu0->cpu0_STLB TOTAL        ACCESS:     807698 HIT:     367213 MISS:     440485 MSHR_MERGE:          0
cpu0->cpu0_STLB LOAD         ACCESS:     807698 HIT:     367213 MISS:     440485 MSHR_MERGE:          0
cpu0->cpu0_STLB RFO          ACCESS:          0 HIT:          0 MISS:          0 MSHR_MERGE:          0
cpu0->cpu0_STLB PREFETCH     ACCESS:          0 HIT:          0 MISS:          0 MSHR_MERGE:          0
cpu0->cpu0_STLB WRITE        ACCESS:          0 HIT:          0 MISS:          0 MSHR_MERGE:          0
cpu0->cpu0_STLB TRANSLATION  ACCESS:          0 HIT:          0 MISS:          0 MSHR_MERGE:          0
cpu0->cpu0_STLB PREFETCH REQUESTED:          0 ISSUED:          0 USEFUL:          0 USELESS:          0 LATE:          0
cpu0->cpu0_STLB AVERAGE MISS LATENCY: 210.2 cycles
cpu0->cpu0_L2C TOTAL        ACCESS:   25921184 HIT:    8035643 MISS:   17885541 MSHR_MERGE:    8245761
cpu0->cpu0_L2C LOAD         ACCESS:    1814568 HIT:     536988 MISS:    1277580 MSHR_MERGE:      42884
cpu0->cpu0_L2C RFO          ACCESS:      33146 HIT:      29865 MISS:       3281 MSHR_MERGE:         79
cpu0->cpu0_L2C PREFETCH     ACCESS:   23398676 HIT:    7030305 MISS:   16368371 MSHR_MERGE:    8202798
cpu0->cpu0_L2C WRITE        ACCESS:     181673 HIT:     181155 MISS:        518 MSHR_MERGE:          0
cpu0->cpu0_L2C TRANSLATION  ACCESS:     493121 HIT:     257330 MISS:     235791 MSHR_MERGE:          0
cpu0->cpu0_L2C PREFETCH REQUESTED:   21513478 ISSUED:   16410005 USEFUL:     684679 USELESS:    3673543 LATE:      42963
cpu0->cpu0_L2C AVERAGE MISS LATENCY: 239.2 cycles
cpu0->cpu0_L1I TOTAL        ACCESS:      49096 HIT:      49096 MISS:          0 MSHR_MERGE:          0
cpu0->cpu0_L1I LOAD         ACCESS:      49096 HIT:      49096 MISS:          0 MSHR_MERGE:          0
cpu0->cpu0_L1I RFO          ACCESS:          0 HIT:          0 MISS:          0 MSHR_MERGE:          0
cpu0->cpu0_L1I PREFETCH     ACCESS:          0 HIT:          0 MISS:          0 MSHR_MERGE:          0
cpu0->cpu0_L1I WRITE        ACCESS:          0 HIT:          0 MISS:          0 MSHR_MERGE:          0
cpu0->cpu0_L1I TRANSLATION  ACCESS:          0 HIT:          0 MISS:          0 MSHR_MERGE:          0
cpu0->cpu0_L1I PREFETCH REQUESTED:          0 ISSUED:          0 USEFUL:          0 USELESS:          0 LATE:          0
cpu0->cpu0_L1I AVERAGE MISS LATENCY: - cycles
cpu0->cpu0_L1D TOTAL        ACCESS:   31457314 HIT:   21549830 MISS:    9907484 MSHR_MERGE:     577891
cpu0->cpu0_L1D LOAD         ACCESS:   14287529 HIT:   12377392 MISS:    1910137 MSHR_MERGE:      95564
cpu0->cpu0_L1D RFO          ACCESS:          0 HIT:          0 MISS:          0 MSHR_MERGE:          0
cpu0->cpu0_L1D PREFETCH     ACCESS:   10938303 HIT:    3522955 MISS:    7415348 MSHR_MERGE:     426676
cpu0->cpu0_L1D WRITE        ACCESS:    5045472 HIT:    4959053 MISS:      86419 MSHR_MERGE:      53192
cpu0->cpu0_L1D TRANSLATION  ACCESS:    1186010 HIT:     690430 MISS:     495580 MSHR_MERGE:       2459
cpu0->cpu0_L1D PREFETCH REQUESTED:   22000833 ISSUED:   10938296 USEFUL:     333677 USELESS:    6654590 LATE:      31518
cpu0->cpu0_L1D AVERAGE MISS LATENCY: 163.2 cycles
cpu0->cpu0_ITLB TOTAL        ACCESS:      44593 HIT:      44593 MISS:          0 MSHR_MERGE:          0
cpu0->cpu0_ITLB LOAD         ACCESS:      44593 HIT:      44593 MISS:          0 MSHR_MERGE:          0
cpu0->cpu0_ITLB RFO          ACCESS:          0 HIT:          0 MISS:          0 MSHR_MERGE:          0
cpu0->cpu0_ITLB PREFETCH     ACCESS:          0 HIT:          0 MISS:          0 MSHR_MERGE:          0
cpu0->cpu0_ITLB WRITE        ACCESS:          0 HIT:          0 MISS:          0 MSHR_MERGE:          0
cpu0->cpu0_ITLB TRANSLATION  ACCESS:          0 HIT:          0 MISS:          0 MSHR_MERGE:          0
cpu0->cpu0_ITLB PREFETCH REQUESTED:          0 ISSUED:          0 USEFUL:          0 USELESS:          0 LATE:          0
cpu0->cpu0_ITLB AVERAGE MISS LATENCY: - cycles
cpu0->cpu0_DTLB TOTAL        ACCESS:   26000793 HIT:   24911841 MISS:    1088952 MSHR_MERGE:     281254
cpu0->cpu0_DTLB LOAD         ACCESS:   26000793 HIT:   24911841 MISS:    1088952 MSHR_MERGE:     281254
cpu0->cpu0_DTLB RFO          ACCESS:          0 HIT:          0 MISS:          0 MSHR_MERGE:          0
cpu0->cpu0_DTLB PREFETCH     ACCESS:          0 HIT:          0 MISS:          0 MSHR_MERGE:          0
cpu0->cpu0_DTLB WRITE        ACCESS:          0 HIT:          0 MISS:          0 MSHR_MERGE:          0
cpu0->cpu0_DTLB TRANSLATION  ACCESS:          0 HIT:          0 MISS:          0 MSHR_MERGE:          0
cpu0->cpu0_DTLB PREFETCH REQUESTED:          0 ISSUED:          0 USEFUL:          0 USELESS:          0 LATE:          0
cpu0->cpu0_DTLB AVERAGE MISS LATENCY: 120.2 cycles
cpu0->LLC TOTAL        ACCESS:    9752071 HIT:    1400530 MISS:    8351541 MSHR_MERGE:          0
cpu0->LLC LOAD         ACCESS:    1234696 HIT:     221252 MISS:    1013444 MSHR_MERGE:          0
cpu0->LLC RFO          ACCESS:       3202 HIT:       2249 MISS:        953 MSHR_MERGE:          0
cpu0->LLC PREFETCH     ACCESS:    8165573 HIT:    1072703 MISS:    7092870 MSHR_MERGE:          0
cpu0->LLC WRITE        ACCESS:     112809 HIT:      65286 MISS:      47523 MSHR_MERGE:          0
cpu0->LLC TRANSLATION  ACCESS:     235791 HIT:      39040 MISS:     196751 MSHR_MERGE:          0
cpu0->LLC PREFETCH REQUESTED:          0 ISSUED:          0 USEFUL:          0 USELESS:          0 LATE:          0
cpu0->LLC AVERAGE MISS LATENCY: 261.2 cycles

DRAM Statistics

Channel 0 RQ ROW_BUFFER_HIT:      20157
  ROW_BUFFER_MISS:    8282519
  AVG DBUS CONGESTED CYCLE: 3.239
Channel 0 WQ ROW_BUFFER_HIT:      12564
  ROW_BUFFER_MISS:      63039
  FULL:          0
Channel 0 REFRESHES ISSUED:      16585

[ROI Statistics]
[System Configuration]
num_cpus 1
cpu_freq 4000
fetch_width 6
decode_width 6
dispatch_width 6
execute_width 6
lq_width 2
sq_width 2
retire_width 6
scheduler_size 128
branch_mispredict_penalty 15
rob_size 352
lq_size 128
sq_size 72
ifetch_buffer_size 64
decode_buffer_size 32
dispatch_buffer_size 32
register_file_size 288
decode_latency 1
dispatch_latency 1
schedule_latency 1
execute_latency 1
page_size 4096
block_size 64
core_0_itlb_set 16
core_0_itlb_way 4
core_0_itlb_rq_size 16
core_0_itlb_wq_size 16
core_0_itlb_pq_size 0
core_0_itlb_mshr_size 8
core_0_itlb_hit_latency 1
core_0_itlb_fill_latency 1
core_0_itlb_max_tag_check 2
core_0_itlb_max_fill 2
core_0_dtlb_set 16
core_0_dtlb_way 4
core_0_dtlb_rq_size 16
core_0_dtlb_wq_size 16
core_0_dtlb_pq_size 0
core_0_dtlb_mshr_size 8
core_0_dtlb_hit_latency 1
core_0_dtlb_fill_latency 1
core_0_dtlb_max_tag_check 2
core_0_dtlb_max_fill 2
core_0_stlb_set 128
core_0_stlb_way 12
core_0_stlb_rq_size 32
core_0_stlb_wq_size 32
core_0_stlb_pq_size 0
core_0_stlb_mshr_size 16
core_0_stlb_hit_latency 4
core_0_stlb_fill_latency 4
core_0_stlb_max_tag_check 1
core_0_stlb_max_fill 1
core_0_l1i_set 64
core_0_l1i_way 8
core_0_l1i_rq_size 64
core_0_l1i_wq_size 64
core_0_l1i_pq_size 32
core_0_l1i_mshr_size 8
core_0_l1i_hit_latency 2
core_0_l1i_fill_latency 2
core_0_l1i_max_tag_check 2
core_0_l1i_max_fill 2
core_0_l1d_set 64
core_0_l1d_way 12
core_0_l1d_rq_size 64
core_0_l1d_wq_size 64
core_0_l1d_pq_size 8
core_0_l1d_mshr_size 16
core_0_l1d_hit_latency 2
core_0_l1d_fill_latency 3
core_0_l1d_max_tag_check 2
core_0_l1d_max_fill 2
core_0_l2c_set 1024
core_0_l2c_way 8
core_0_l2c_rq_size 32
core_0_l2c_wq_size 32
core_0_l2c_pq_size 16
core_0_l2c_mshr_size 32
core_0_l2c_hit_latency 5
core_0_l2c_fill_latency 5
core_0_l2c_max_tag_check 1
core_0_l2c_max_fill 1
llc_set 2048
llc_way 16
llc_rq_size 32
llc_wq_size 32
llc_pq_size 32
llc_mshr_size 64
llc_hit_latency 10
llc_fill_latency 10
llc_max_tag_check 1
llc_max_fill 1
dram_channels 1
dram_ranks 1
dram_bankgroups 8
dram_banks 4
dram_rows 65536
dram_columns 1024
dram_channel_width 8
dram_rq_size 64
dram_wq_size 64
dram_size 17179869184
core_0_itlb_prefetcher no
core_0_dtlb_prefetcher no
core_0_stlb_prefetcher no
core_0_l1i_prefetcher next_line
core_0_l1d_prefetcher ipcp
core_0_l2c_prefetcher pythia
llc_prefetcher no
llc_replacement drrip

Core_0_instructions 50000001
Core_0_cycles 199022133
Core_0_IPC 0.251228
Core_0_branch_prediction_accuracy 94.391
Core_0_branch_MPKI 14.1351
Core_0_average_ROB_occupancy_at_mispredict 51.8769

Core_0_ITLB_total_access 44593
Core_0_ITLB_total_hit 44593
Core_0_ITLB_total_miss 0
Core_0_ITLB_total_MPKI 0
Core_0_ITLB_total_miss_rate 0
Core_0_ITLB_demand_access 44593
Core_0_ITLB_demand_hit 44593
Core_0_ITLB_demand_miss 0
Core_0_ITLB_demand_MPKI 0
Core_0_ITLB_demand_miss_rate 0
Core_0_ITLB_load_access 44593
Core_0_ITLB_load_hit 44593
Core_0_ITLB_load_miss 0
Core_0_ITLB_load_MPKI 0
Core_0_ITLB_load_miss_rate 0
Core_0_ITLB_rfo_access 0
Core_0_ITLB_rfo_hit 0
Core_0_ITLB_rfo_miss 0
Core_0_ITLB_rfo_MPKI 0
Core_0_ITLB_rfo_miss_rate 0
Core_0_ITLB_prefetch_access 0
Core_0_ITLB_prefetch_hit 0
Core_0_ITLB_prefetch_miss 0
Core_0_ITLB_prefetch_MPKI 0
Core_0_ITLB_prefetch_miss_rate 0
Core_0_ITLB_writeback_access 0
Core_0_ITLB_writeback_hit 0
Core_0_ITLB_writeback_miss 0
Core_0_ITLB_writeback_MPKI 0
Core_0_ITLB_writeback_miss_rate 0
Core_0_ITLB_prefetch_requested 0
Core_0_ITLB_prefetch_issued 0
Core_0_ITLB_prefetch_useful 0
Core_0_ITLB_prefetch_useless 0
Core_0_ITLB_prefetch_late 0
Core_0_ITLB_prefetch_accuracy 0
Core_0_ITLB_prefetch_coverage 0

Core_0_DTLB_total_access 26000793
Core_0_DTLB_total_hit 24911841
Core_0_DTLB_total_miss 1088952
Core_0_DTLB_total_MPKI 21.779
Core_0_DTLB_total_miss_rate 0.0418815
Core_0_DTLB_demand_access 26000793
Core_0_DTLB_demand_hit 24911841
Core_0_DTLB_demand_miss 1088952
Core_0_DTLB_demand_MPKI 21.779
Core_0_DTLB_demand_miss_rate 0.0418815
Core_0_DTLB_load_access 26000793
Core_0_DTLB_load_hit 24911841
Core_0_DTLB_load_miss 1088952
Core_0_DTLB_load_MPKI 21.779
Core_0_DTLB_load_miss_rate 0.0418815
Core_0_DTLB_rfo_access 0
Core_0_DTLB_rfo_hit 0
Core_0_DTLB_rfo_miss 0
Core_0_DTLB_rfo_MPKI 0
Core_0_DTLB_rfo_miss_rate 0
Core_0_DTLB_prefetch_access 0
Core_0_DTLB_prefetch_hit 0
Core_0_DTLB_prefetch_miss 0
Core_0_DTLB_prefetch_MPKI 0
Core_0_DTLB_prefetch_miss_rate 0
Core_0_DTLB_writeback_access 0
Core_0_DTLB_writeback_hit 0
Core_0_DTLB_writeback_miss 0
Core_0_DTLB_writeback_MPKI 0
Core_0_DTLB_writeback_miss_rate 0
Core_0_DTLB_prefetch_requested 0
Core_0_DTLB_prefetch_issued 0
Core_0_DTLB_prefetch_useful 0
Core_0_DTLB_prefetch_useless 0
Core_0_DTLB_prefetch_late 0
Core_0_DTLB_prefetch_accuracy 0
Core_0_DTLB_prefetch_coverage 0

Core_0_STLB_total_access 807698
Core_0_STLB_total_hit 367213
Core_0_STLB_total_miss 440485
Core_0_STLB_total_MPKI 8.8097
Core_0_STLB_total_miss_rate 0.545359
Core_0_STLB_demand_access 807698
Core_0_STLB_demand_hit 367213
Core_0_STLB_demand_miss 440485
Core_0_STLB_demand_MPKI 8.8097
Core_0_STLB_demand_miss_rate 0.545359
Core_0_STLB_load_access 807698
Core_0_STLB_load_hit 367213
Core_0_STLB_load_miss 440485
Core_0_STLB_load_MPKI 8.8097
Core_0_STLB_load_miss_rate 0.545359
Core_0_STLB_rfo_access 0
Core_0_STLB_rfo_hit 0
Core_0_STLB_rfo_miss 0
Core_0_STLB_rfo_MPKI 0
Core_0_STLB_rfo_miss_rate 0
Core_0_STLB_prefetch_access 0
Core_0_STLB_prefetch_hit 0
Core_0_STLB_prefetch_miss 0
Core_0_STLB_prefetch_MPKI 0
Core_0_STLB_prefetch_miss_rate 0
Core_0_STLB_writeback_access 0
Core_0_STLB_writeback_hit 0
Core_0_STLB_writeback_miss 0
Core_0_STLB_writeback_MPKI 0
Core_0_STLB_writeback_miss_rate 0
Core_0_STLB_prefetch_requested 0
Core_0_STLB_prefetch_issued 0
Core_0_STLB_prefetch_useful 0
Core_0_STLB_prefetch_useless 0
Core_0_STLB_prefetch_late 0
Core_0_STLB_prefetch_accuracy 0
Core_0_STLB_prefetch_coverage 0

Core_0_L1I_total_access 49096
Core_0_L1I_total_hit 49096
Core_0_L1I_total_miss 0
Core_0_L1I_total_MPKI 0
Core_0_L1I_total_miss_rate 0
Core_0_L1I_demand_access 49096
Core_0_L1I_demand_hit 49096
Core_0_L1I_demand_miss 0
Core_0_L1I_demand_MPKI 0
Core_0_L1I_demand_miss_rate 0
Core_0_L1I_load_access 49096
Core_0_L1I_load_hit 49096
Core_0_L1I_load_miss 0
Core_0_L1I_load_MPKI 0
Core_0_L1I_load_miss_rate 0
Core_0_L1I_rfo_access 0
Core_0_L1I_rfo_hit 0
Core_0_L1I_rfo_miss 0
Core_0_L1I_rfo_MPKI 0
Core_0_L1I_rfo_miss_rate 0
Core_0_L1I_prefetch_access 0
Core_0_L1I_prefetch_hit 0
Core_0_L1I_prefetch_miss 0
Core_0_L1I_prefetch_MPKI 0
Core_0_L1I_prefetch_miss_rate 0
Core_0_L1I_writeback_access 0
Core_0_L1I_writeback_hit 0
Core_0_L1I_writeback_miss 0
Core_0_L1I_writeback_MPKI 0
Core_0_L1I_writeback_miss_rate 0
Core_0_L1I_prefetch_requested 0
Core_0_L1I_prefetch_issued 0
Core_0_L1I_prefetch_useful 0
Core_0_L1I_prefetch_useless 0
Core_0_L1I_prefetch_late 0
Core_0_L1I_prefetch_accuracy 0
Core_0_L1I_prefetch_coverage 0

Core_0_L1D_total_access 30271304
Core_0_L1D_total_hit 20859400
Core_0_L1D_total_miss 9411904
Core_0_L1D_total_MPKI 188.238
Core_0_L1D_total_miss_rate 0.310918
Core_0_L1D_demand_access 14287529
Core_0_L1D_demand_hit 12377392
Core_0_L1D_demand_miss 1910137
Core_0_L1D_demand_MPKI 38.2027
Core_0_L1D_demand_miss_rate 0.133693
Core_0_L1D_load_access 14287529
Core_0_L1D_load_hit 12377392
Core_0_L1D_load_miss 1910137
Core_0_L1D_load_MPKI 38.2027
Core_0_L1D_load_miss_rate 0.133693
Core_0_L1D_rfo_access 0
Core_0_L1D_rfo_hit 0
Core_0_L1D_rfo_miss 0
Core_0_L1D_rfo_MPKI 0
Core_0_L1D_rfo_miss_rate 0
Core_0_L1D_prefetch_access 10938303
Core_0_L1D_prefetch_hit 3522955
Core_0_L1D_prefetch_miss 7415348
Core_0_L1D_prefetch_MPKI 148.307
Core_0_L1D_prefetch_miss_rate 0.677925
Core_0_L1D_writeback_access 5045472
Core_0_L1D_writeback_hit 4959053
Core_0_L1D_writeback_miss 86419
Core_0_L1D_writeback_MPKI 1.72838
Core_0_L1D_writeback_miss_rate 0.017128
Core_0_L1D_prefetch_requested 22000833
Core_0_L1D_prefetch_issued 10938296
Core_0_L1D_prefetch_useful 333677
Core_0_L1D_prefetch_useless 6654590
Core_0_L1D_prefetch_late 31518
Core_0_L1D_prefetch_accuracy 0.0305054
Core_0_L1D_prefetch_coverage 0.14871

Core_0_L2C_total_access 25428063
Core_0_L2C_total_hit 7778313
Core_0_L2C_total_miss 17649750
Core_0_L2C_total_MPKI 352.995
Core_0_L2C_total_miss_rate 0.694105
Core_0_L2C_demand_access 1847714
Core_0_L2C_demand_hit 566853
Core_0_L2C_demand_miss 1280861
Core_0_L2C_demand_MPKI 25.6172
Core_0_L2C_demand_miss_rate 0.693214
Core_0_L2C_load_access 1814568
Core_0_L2C_load_hit 536988
Core_0_L2C_load_miss 1277580
Core_0_L2C_load_MPKI 25.5516
Core_0_L2C_load_miss_rate 0.704068
Core_0_L2C_rfo_access 33146
Core_0_L2C_rfo_hit 29865
Core_0_L2C_rfo_miss 3281
Core_0_L2C_rfo_MPKI 0.06562
Core_0_L2C_rfo_miss_rate 0.0989863
Core_0_L2C_prefetch_access 23398676
Core_0_L2C_prefetch_hit 7030305
Core_0_L2C_prefetch_miss 16368371
Core_0_L2C_prefetch_MPKI 327.367
Core_0_L2C_prefetch_miss_rate 0.699543
Core_0_L2C_writeback_access 181673
Core_0_L2C_writeback_hit 181155
Core_0_L2C_writeback_miss 518
Core_0_L2C_writeback_MPKI 0.01036
Core_0_L2C_writeback_miss_rate 0.00285128
Core_0_L2C_prefetch_requested 21513478
Core_0_L2C_prefetch_issued 16410005
Core_0_L2C_prefetch_useful 684679
Core_0_L2C_prefetch_useless 3673543
Core_0_L2C_prefetch_late 42963
Core_0_L2C_prefetch_accuracy 0.0417233
Core_0_L2C_prefetch_coverage 0.348341

Core_0_LLC_total_access 9516280
Core_0_LLC_total_hit 1361490
Core_0_LLC_total_miss 8154790
Core_0_LLC_total_MPKI 163.096
Core_0_LLC_total_miss_rate 0.85693
Core_0_LLC_demand_access 1237898
Core_0_LLC_demand_hit 223501
Core_0_LLC_demand_miss 1014397
Core_0_LLC_demand_MPKI 20.2879
Core_0_LLC_demand_miss_rate 0.819451
Core_0_LLC_load_access 1234696
Core_0_LLC_load_hit 221252
Core_0_LLC_load_miss 1013444
Core_0_LLC_load_MPKI 20.2689
Core_0_LLC_load_miss_rate 0.820804
Core_0_LLC_rfo_access 3202
Core_0_LLC_rfo_hit 2249
Core_0_LLC_rfo_miss 953
Core_0_LLC_rfo_MPKI 0.01906
Core_0_LLC_rfo_miss_rate 0.297626
Core_0_LLC_prefetch_access 8165573
Core_0_LLC_prefetch_hit 1072703
Core_0_LLC_prefetch_miss 7092870
Core_0_LLC_prefetch_MPKI 141.857
Core_0_LLC_prefetch_miss_rate 0.868631
Core_0_LLC_writeback_access 112809
Core_0_LLC_writeback_hit 65286
Core_0_LLC_writeback_miss 47523
Core_0_LLC_writeback_MPKI 0.95046
Core_0_LLC_writeback_miss_rate 0.42127
Core_0_LLC_prefetch_requested 0
Core_0_LLC_prefetch_issued 0
Core_0_LLC_prefetch_useful 0
Core_0_LLC_prefetch_useless 0
Core_0_LLC_prefetch_late 0
Core_0_LLC_prefetch_accuracy 0
Core_0_LLC_prefetch_coverage 0

[DRAM Statistics]
Channel_0_RQ_row_buffer_hit 20157
Channel_0_RQ_row_buffer_miss 8282519
Channel_0_WQ_row_buffer_hit 12564
Channel_0_WQ_row_buffer_miss 63039
Channel_0_WQ_full 0
Channel_0_dbus_congested 20001217
DRAM_total_RQ_row_buffer_hit 20157
DRAM_total_RQ_row_buffer_miss 8282519
DRAM_total_WQ_row_buffer_hit 12564
DRAM_total_WQ_row_buffer_miss 63039
DRAM_total_WQ_full 0
DRAM_total_dbus_congested 20001217
DRAM_avg_congested_cycle 3.23926

====== DRAM_RQ_TRAFFIC ========
DRAM_RQ_READ_TRAFFIC_BREAKDOWN:
data_demand_read.count = 1014397
data_demand_read.share = 12.22%

inst_demand_read.count = 0
inst_demand_read.share = 0.00%

cache_inst_prefetch.count = 0
cache_inst_prefetch.share = 0.00%

cache_data_prefetch.count = 7092870
cache_data_prefetch.share = 85.41%

stlb_data_demand.count = 196751
stlb_data_demand.share = 2.37%

stlb_inst_demand.count = 0
stlb_inst_demand.share = 0.00%

stlb_l1i_pref.count = 0
stlb_l1i_pref.share = 0.00%

stlb_l1d_pref.count = 0
stlb_l1d_pref.share = 0.00%

DRAM_RQ_READ_TRAFFIC_SUMMARY:
cache_demand.count = 1014397
cache_demand.share = 12.22%

cache_prefetch.count = 7092870
cache_prefetch.share = 85.41%

stlb_demand.count = 196751
stlb_demand.share = 2.37%

stlb_prefetch.count = 0
stlb_prefetch.share = 0.00%

DRAM_RQ_READ_TRAFFIC_DEBUG:
total_classified_read.count = 8304018
unclassified_read.count = 0
total_read_with_other.count = 8304018

classified_plus_unclassified_check.count = 8304018
dram_rq_read_total_observed.count = 8304018
dram_rq_read_total_observed.per_1K_instructions = 166.08

STLB_MISS_PTW_DRAM_TOUCH_BREAKDOWN:
stlb_miss_total.count = 440485

stlb_miss_touch_dram.count = 194084
stlb_miss_touch_dram.share = 44.06%

stlb_miss_no_dram_touch.count = 246401
stlb_miss_no_dram_touch.share = 55.94%

STLB_MISS_PTW_DRAM_TOUCH_DEBUG:
stlb_miss_touch_plus_no_touch.count = 440485
stlb_miss_total_check.count = 440485

======STLB miss causes ========
Core_0_STLB_miss_cause_breakdown
Core_0_STLB_cause_Demand_Data_miss 440485
Core_0_STLB_cause_Demand_Data_miss_rate 0.545359
Core_0_STLB_cause_Demand_Instruction_miss 0
Core_0_STLB_cause_Demand_Instruction_miss_rate 0
Core_0_STLB_cause_L1D_Prefetch_miss 0
Core_0_STLB_cause_L1D_Prefetch_miss_rate 0
Core_0_STLB_cause_L1I_Prefetch_miss 0
Core_0_STLB_cause_L1I_Prefetch_miss_rate 0
Core_0_STLB_cause_Other_miss 0
Core_0_STLB_cause_Other_miss_rate 0
Core_0_STLB_Demand_miss 440485
Core_0_STLB_Demand_miss_rate 0.545359
Core_0_STLB_L1D_Prefetch_miss 0
Core_0_STLB_L1D_Prefetch_miss_rate 0
Core_0_STLB_Other_miss 0
Core_0_STLB_Other_miss_rate 0
