[VMEM] WARNING: physical memory size is smaller than virtual memory size.

*** ChampSim Multicore Out-of-Order Simulator ***
Warmup Instructions: 20000000
Simulation Instructions: 50000000
Number of CPUs: 1
Page size: 4096
Core 0: /data0/tzh/champsim_traces/SPEC17/623.xalancbmk_s-592B.champsimtrace.xz
IPCP_AT_L1_CONFIG
NUM_IP_TABLE_L1_ENTRIES 1024
NUM_GHB_ENTRIES 16
NUM_IP_INDEX_BITS 10
NUM_IP_TAG_BITS 6
S_TYPE 1
CS_TYPE 2
CPLX_TYPE 3
NL_TYPE 4

Off-chip DRAM Size: 16 GiB Channels: 1 Width: 64-bit Data Rate: 3205 MT/s
Warmup halting CPU 0 at instruction 20000003 cycle 4798536 for remainder of phase
Warmup finished CPU 0 instructions: 20000003 cycles: 4798536 cumulative IPC: 4.168 (Simulation time: 00 hr 01 min 00 sec)
Warmup complete CPU 0 instructions: 20000003 cycles: 4798536 cumulative IPC: 4.168 (Simulation time: 00 hr 01 min 00 sec)
Simulation finished CPU 0 instructions: 50000000 cycles: 53497772 cumulative IPC: 0.9346 (Simulation time: 00 hr 07 min 34 sec)
Simulation complete CPU 0 instructions: 50000000 cycles: 53497772 cumulative IPC: 0.9346 (Simulation time: 00 hr 07 min 34 sec)

ChampSim completed all CPUs

=== Simulation ===
CPU 0 runs /data0/tzh/champsim_traces/SPEC17/623.xalancbmk_s-592B.champsimtrace.xz

Region of Interest Statistics

CPU 0 cumulative IPC: 0.9346 instructions: 50000000 cycles: 53497772
CPU 0 Branch Prediction Accuracy: 97.13% MPKI: 7.59 Average ROB Occupancy at Mispredict: 42.57
Branch type MPKI
BRANCH_DIRECT_JUMP: 0.1648
BRANCH_INDIRECT: 0.5087
BRANCH_CONDITIONAL: 4.263
BRANCH_DIRECT_CALL: 0.0076
BRANCH_INDIRECT_CALL: 0.5543
BRANCH_RETURN: 2.092

cpu0->cpu0_STLB TOTAL        ACCESS:    1228068 HIT:    1156794 MISS:      71274 MSHR_MERGE:          0
cpu0->cpu0_STLB LOAD         ACCESS:    1228068 HIT:    1156794 MISS:      71274 MSHR_MERGE:          0
cpu0->cpu0_STLB RFO          ACCESS:          0 HIT:          0 MISS:          0 MSHR_MERGE:          0
cpu0->cpu0_STLB PREFETCH     ACCESS:          0 HIT:          0 MISS:          0 MSHR_MERGE:          0
cpu0->cpu0_STLB WRITE        ACCESS:          0 HIT:          0 MISS:          0 MSHR_MERGE:          0
cpu0->cpu0_STLB TRANSLATION  ACCESS:          0 HIT:          0 MISS:          0 MSHR_MERGE:          0
cpu0->cpu0_STLB PREFETCH REQUESTED:          0 ISSUED:          0 USEFUL:          0 USELESS:          0 LATE:          0
cpu0->cpu0_STLB AVERAGE MISS LATENCY: 39.52 cycles
cpu0->cpu0_L2C TOTAL        ACCESS:    8425015 HIT:    5441327 MISS:    2983688 MSHR_MERGE:     452887
cpu0->cpu0_L2C LOAD         ACCESS:    2218456 HIT:    1470702 MISS:     747754 MSHR_MERGE:      26676
cpu0->cpu0_L2C RFO          ACCESS:     116868 HIT:      16748 MISS:     100120 MSHR_MERGE:       3798
cpu0->cpu0_L2C PREFETCH     ACCESS:    5838666 HIT:    3738067 MISS:    2100599 MSHR_MERGE:     422413
cpu0->cpu0_L2C WRITE        ACCESS:     183906 HIT:     183785 MISS:        121 MSHR_MERGE:          0
cpu0->cpu0_L2C TRANSLATION  ACCESS:      67119 HIT:      32025 MISS:      35094 MSHR_MERGE:          0
cpu0->cpu0_L2C PREFETCH REQUESTED:    4960446 ISSUED:    4854732 USEFUL:     269023 USELESS:     959880 LATE:      30474
cpu0->cpu0_L2C AVERAGE MISS LATENCY: 39.14 cycles
cpu0->cpu0_L1I TOTAL        ACCESS:    9132311 HIT:    8868697 MISS:     263614 MSHR_MERGE:      81134
cpu0->cpu0_L1I LOAD         ACCESS:    9132311 HIT:    8868697 MISS:     263614 MSHR_MERGE:      81134
cpu0->cpu0_L1I RFO          ACCESS:          0 HIT:          0 MISS:          0 MSHR_MERGE:          0
cpu0->cpu0_L1I PREFETCH     ACCESS:          0 HIT:          0 MISS:          0 MSHR_MERGE:          0
cpu0->cpu0_L1I WRITE        ACCESS:          0 HIT:          0 MISS:          0 MSHR_MERGE:          0
cpu0->cpu0_L1I TRANSLATION  ACCESS:          0 HIT:          0 MISS:          0 MSHR_MERGE:          0
cpu0->cpu0_L1I PREFETCH REQUESTED:          0 ISSUED:          0 USEFUL:          0 USELESS:          0 LATE:          0
cpu0->cpu0_L1I AVERAGE MISS LATENCY: 11.67 cycles
cpu0->cpu0_L1D TOTAL        ACCESS:   20183064 HIT:   15944874 MISS:    4238190 MSHR_MERGE:    1034298
cpu0->cpu0_L1D LOAD         ACCESS:    8854295 HIT:    6390091 MISS:    2464204 MSHR_MERGE:     428225
cpu0->cpu0_L1D RFO          ACCESS:          0 HIT:          0 MISS:          0 MSHR_MERGE:          0
cpu0->cpu0_L1D PREFETCH     ACCESS:    6305101 HIT:    5052716 MISS:    1252385 MSHR_MERGE:     268461
cpu0->cpu0_L1D WRITE        ACCESS:    4880864 HIT:    4426514 MISS:     454350 MSHR_MERGE:     337480
cpu0->cpu0_L1D TRANSLATION  ACCESS:     142804 HIT:      75553 MISS:      67251 MSHR_MERGE:        132
cpu0->cpu0_L1D PREFETCH REQUESTED:    9212070 ISSUED:    6305107 USEFUL:     306998 USELESS:     676964 LATE:      13838
cpu0->cpu0_L1D AVERAGE MISS LATENCY: 23.82 cycles
cpu0->cpu0_ITLB TOTAL        ACCESS:    8350047 HIT:    8286816 MISS:      63231 MSHR_MERGE:      36356
cpu0->cpu0_ITLB LOAD         ACCESS:    8350047 HIT:    8286816 MISS:      63231 MSHR_MERGE:      36356
cpu0->cpu0_ITLB RFO          ACCESS:          0 HIT:          0 MISS:          0 MSHR_MERGE:          0
cpu0->cpu0_ITLB PREFETCH     ACCESS:          0 HIT:          0 MISS:          0 MSHR_MERGE:          0
cpu0->cpu0_ITLB WRITE        ACCESS:          0 HIT:          0 MISS:          0 MSHR_MERGE:          0
cpu0->cpu0_ITLB TRANSLATION  ACCESS:          0 HIT:          0 MISS:          0 MSHR_MERGE:          0
cpu0->cpu0_ITLB PREFETCH REQUESTED:          0 ISSUED:          0 USEFUL:          0 USELESS:          0 LATE:          0
cpu0->cpu0_ITLB AVERAGE MISS LATENCY: 7.745 cycles
cpu0->cpu0_DTLB TOTAL        ACCESS:   16447437 HIT:   14631675 MISS:    1815762 MSHR_MERGE:     614569
cpu0->cpu0_DTLB LOAD         ACCESS:   16447437 HIT:   14631675 MISS:    1815762 MSHR_MERGE:     614569
cpu0->cpu0_DTLB RFO          ACCESS:          0 HIT:          0 MISS:          0 MSHR_MERGE:          0
cpu0->cpu0_DTLB PREFETCH     ACCESS:          0 HIT:          0 MISS:          0 MSHR_MERGE:          0
cpu0->cpu0_DTLB WRITE        ACCESS:          0 HIT:          0 MISS:          0 MSHR_MERGE:          0
cpu0->cpu0_DTLB TRANSLATION  ACCESS:          0 HIT:          0 MISS:          0 MSHR_MERGE:          0
cpu0->cpu0_DTLB PREFETCH REQUESTED:          0 ISSUED:          0 USEFUL:          0 USELESS:          0 LATE:          0
cpu0->cpu0_DTLB AVERAGE MISS LATENCY: 7.343 cycles
cpu0->LLC TOTAL        ACCESS:    2678099 HIT:    2230758 MISS:     447341 MSHR_MERGE:          0
cpu0->LLC LOAD         ACCESS:     721077 HIT:     706281 MISS:      14796 MSHR_MERGE:          0
cpu0->LLC RFO          ACCESS:      96322 HIT:       6986 MISS:      89336 MSHR_MERGE:          0
cpu0->LLC PREFETCH     ACCESS:    1678186 HIT:    1346891 MISS:     331295 MSHR_MERGE:          0
cpu0->LLC WRITE        ACCESS:     147420 HIT:     138566 MISS:       8854 MSHR_MERGE:          0
cpu0->LLC TRANSLATION  ACCESS:      35094 HIT:      32034 MISS:       3060 MSHR_MERGE:          0
cpu0->LLC PREFETCH REQUESTED:          0 ISSUED:          0 USEFUL:          0 USELESS:          0 LATE:          0
cpu0->LLC AVERAGE MISS LATENCY: 181.5 cycles

DRAM Statistics

Channel 0 RQ ROW_BUFFER_HIT:      14609
  ROW_BUFFER_MISS:     423869
  AVG DBUS CONGESTED CYCLE: 8.959
Channel 0 WQ ROW_BUFFER_HIT:      20113
  ROW_BUFFER_MISS:      93328
  FULL:          0
Channel 0 REFRESHES ISSUED:       4459

[ROI Statistics]
[System Configuration]
num_cpus 1
cpu_freq 4000
fetch_width 6
decode_width 6
dispatch_width 6
execute_width 6
lq_width 2
sq_width 2
retire_width 6
scheduler_size 128
branch_mispredict_penalty 15
rob_size 352
lq_size 128
sq_size 72
ifetch_buffer_size 64
decode_buffer_size 32
dispatch_buffer_size 32
register_file_size 288
decode_latency 1
dispatch_latency 1
schedule_latency 1
execute_latency 1
page_size 4096
block_size 64
core_0_itlb_set 16
core_0_itlb_way 4
core_0_itlb_rq_size 16
core_0_itlb_wq_size 16
core_0_itlb_pq_size 0
core_0_itlb_mshr_size 8
core_0_itlb_hit_latency 1
core_0_itlb_fill_latency 1
core_0_itlb_max_tag_check 2
core_0_itlb_max_fill 2
core_0_dtlb_set 16
core_0_dtlb_way 4
core_0_dtlb_rq_size 16
core_0_dtlb_wq_size 16
core_0_dtlb_pq_size 0
core_0_dtlb_mshr_size 8
core_0_dtlb_hit_latency 1
core_0_dtlb_fill_latency 1
core_0_dtlb_max_tag_check 2
core_0_dtlb_max_fill 2
core_0_stlb_set 128
core_0_stlb_way 12
core_0_stlb_rq_size 32
core_0_stlb_wq_size 32
core_0_stlb_pq_size 0
core_0_stlb_mshr_size 16
core_0_stlb_hit_latency 4
core_0_stlb_fill_latency 4
core_0_stlb_max_tag_check 1
core_0_stlb_max_fill 1
core_0_l1i_set 64
core_0_l1i_way 8
core_0_l1i_rq_size 64
core_0_l1i_wq_size 64
core_0_l1i_pq_size 32
core_0_l1i_mshr_size 8
core_0_l1i_hit_latency 2
core_0_l1i_fill_latency 2
core_0_l1i_max_tag_check 2
core_0_l1i_max_fill 2
core_0_l1d_set 64
core_0_l1d_way 12
core_0_l1d_rq_size 64
core_0_l1d_wq_size 64
core_0_l1d_pq_size 8
core_0_l1d_mshr_size 16
core_0_l1d_hit_latency 2
core_0_l1d_fill_latency 3
core_0_l1d_max_tag_check 2
core_0_l1d_max_fill 2
core_0_l2c_set 1024
core_0_l2c_way 8
core_0_l2c_rq_size 32
core_0_l2c_wq_size 32
core_0_l2c_pq_size 16
core_0_l2c_mshr_size 32
core_0_l2c_hit_latency 5
core_0_l2c_fill_latency 5
core_0_l2c_max_tag_check 1
core_0_l2c_max_fill 1
llc_set 2048
llc_way 16
llc_rq_size 32
llc_wq_size 32
llc_pq_size 32
llc_mshr_size 64
llc_hit_latency 10
llc_fill_latency 10
llc_max_tag_check 1
llc_max_fill 1
dram_channels 1
dram_ranks 1
dram_bankgroups 8
dram_banks 4
dram_rows 65536
dram_columns 1024
dram_channel_width 8
dram_rq_size 64
dram_wq_size 64
dram_size 17179869184
core_0_itlb_prefetcher no
core_0_dtlb_prefetcher no
core_0_stlb_prefetcher no
core_0_l1i_prefetcher next_line
core_0_l1d_prefetcher ipcp
core_0_l2c_prefetcher pythia
llc_prefetcher no
llc_replacement drrip

Core_0_instructions 50000000
Core_0_cycles 53497772
Core_0_IPC 0.934618
Core_0_branch_prediction_accuracy 97.1281
Core_0_branch_MPKI 7.59034
Core_0_average_ROB_occupancy_at_mispredict 42.5725

Core_0_ITLB_total_access 8350047
Core_0_ITLB_total_hit 8286816
Core_0_ITLB_total_miss 63231
Core_0_ITLB_total_MPKI 1.26462
Core_0_ITLB_total_miss_rate 0.00757253
Core_0_ITLB_demand_access 8350047
Core_0_ITLB_demand_hit 8286816
Core_0_ITLB_demand_miss 63231
Core_0_ITLB_demand_MPKI 1.26462
Core_0_ITLB_demand_miss_rate 0.00757253
Core_0_ITLB_load_access 8350047
Core_0_ITLB_load_hit 8286816
Core_0_ITLB_load_miss 63231
Core_0_ITLB_load_MPKI 1.26462
Core_0_ITLB_load_miss_rate 0.00757253
Core_0_ITLB_rfo_access 0
Core_0_ITLB_rfo_hit 0
Core_0_ITLB_rfo_miss 0
Core_0_ITLB_rfo_MPKI 0
Core_0_ITLB_rfo_miss_rate 0
Core_0_ITLB_prefetch_access 0
Core_0_ITLB_prefetch_hit 0
Core_0_ITLB_prefetch_miss 0
Core_0_ITLB_prefetch_MPKI 0
Core_0_ITLB_prefetch_miss_rate 0
Core_0_ITLB_writeback_access 0
Core_0_ITLB_writeback_hit 0
Core_0_ITLB_writeback_miss 0
Core_0_ITLB_writeback_MPKI 0
Core_0_ITLB_writeback_miss_rate 0
Core_0_ITLB_prefetch_requested 0
Core_0_ITLB_prefetch_issued 0
Core_0_ITLB_prefetch_useful 0
Core_0_ITLB_prefetch_useless 0
Core_0_ITLB_prefetch_late 0
Core_0_ITLB_prefetch_accuracy 0
Core_0_ITLB_prefetch_coverage 0

Core_0_DTLB_total_access 16447437
Core_0_DTLB_total_hit 14631675
Core_0_DTLB_total_miss 1815762
Core_0_DTLB_total_MPKI 36.3152
Core_0_DTLB_total_miss_rate 0.110398
Core_0_DTLB_demand_access 16447437
Core_0_DTLB_demand_hit 14631675
Core_0_DTLB_demand_miss 1815762
Core_0_DTLB_demand_MPKI 36.3152
Core_0_DTLB_demand_miss_rate 0.110398
Core_0_DTLB_load_access 16447437
Core_0_DTLB_load_hit 14631675
Core_0_DTLB_load_miss 1815762
Core_0_DTLB_load_MPKI 36.3152
Core_0_DTLB_load_miss_rate 0.110398
Core_0_DTLB_rfo_access 0
Core_0_DTLB_rfo_hit 0
Core_0_DTLB_rfo_miss 0
Core_0_DTLB_rfo_MPKI 0
Core_0_DTLB_rfo_miss_rate 0
Core_0_DTLB_prefetch_access 0
Core_0_DTLB_prefetch_hit 0
Core_0_DTLB_prefetch_miss 0
Core_0_DTLB_prefetch_MPKI 0
Core_0_DTLB_prefetch_miss_rate 0
Core_0_DTLB_writeback_access 0
Core_0_DTLB_writeback_hit 0
Core_0_DTLB_writeback_miss 0
Core_0_DTLB_writeback_MPKI 0
Core_0_DTLB_writeback_miss_rate 0
Core_0_DTLB_prefetch_requested 0
Core_0_DTLB_prefetch_issued 0
Core_0_DTLB_prefetch_useful 0
Core_0_DTLB_prefetch_useless 0
Core_0_DTLB_prefetch_late 0
Core_0_DTLB_prefetch_accuracy 0
Core_0_DTLB_prefetch_coverage 0

Core_0_STLB_total_access 1228068
Core_0_STLB_total_hit 1156794
Core_0_STLB_total_miss 71274
Core_0_STLB_total_MPKI 1.42548
Core_0_STLB_total_miss_rate 0.0580375
Core_0_STLB_demand_access 1228068
Core_0_STLB_demand_hit 1156794
Core_0_STLB_demand_miss 71274
Core_0_STLB_demand_MPKI 1.42548
Core_0_STLB_demand_miss_rate 0.0580375
Core_0_STLB_load_access 1228068
Core_0_STLB_load_hit 1156794
Core_0_STLB_load_miss 71274
Core_0_STLB_load_MPKI 1.42548
Core_0_STLB_load_miss_rate 0.0580375
Core_0_STLB_rfo_access 0
Core_0_STLB_rfo_hit 0
Core_0_STLB_rfo_miss 0
Core_0_STLB_rfo_MPKI 0
Core_0_STLB_rfo_miss_rate 0
Core_0_STLB_prefetch_access 0
Core_0_STLB_prefetch_hit 0
Core_0_STLB_prefetch_miss 0
Core_0_STLB_prefetch_MPKI 0
Core_0_STLB_prefetch_miss_rate 0
Core_0_STLB_writeback_access 0
Core_0_STLB_writeback_hit 0
Core_0_STLB_writeback_miss 0
Core_0_STLB_writeback_MPKI 0
Core_0_STLB_writeback_miss_rate 0
Core_0_STLB_prefetch_requested 0
Core_0_STLB_prefetch_issued 0
Core_0_STLB_prefetch_useful 0
Core_0_STLB_prefetch_useless 0
Core_0_STLB_prefetch_late 0
Core_0_STLB_prefetch_accuracy 0
Core_0_STLB_prefetch_coverage 0

Core_0_L1I_total_access 9132311
Core_0_L1I_total_hit 8868697
Core_0_L1I_total_miss 263614
Core_0_L1I_total_MPKI 5.27228
Core_0_L1I_total_miss_rate 0.0288661
Core_0_L1I_demand_access 9132311
Core_0_L1I_demand_hit 8868697
Core_0_L1I_demand_miss 263614
Core_0_L1I_demand_MPKI 5.27228
Core_0_L1I_demand_miss_rate 0.0288661
Core_0_L1I_load_access 9132311
Core_0_L1I_load_hit 8868697
Core_0_L1I_load_miss 263614
Core_0_L1I_load_MPKI 5.27228
Core_0_L1I_load_miss_rate 0.0288661
Core_0_L1I_rfo_access 0
Core_0_L1I_rfo_hit 0
Core_0_L1I_rfo_miss 0
Core_0_L1I_rfo_MPKI 0
Core_0_L1I_rfo_miss_rate 0
Core_0_L1I_prefetch_access 0
Core_0_L1I_prefetch_hit 0
Core_0_L1I_prefetch_miss 0
Core_0_L1I_prefetch_MPKI 0
Core_0_L1I_prefetch_miss_rate 0
Core_0_L1I_writeback_access 0
Core_0_L1I_writeback_hit 0
Core_0_L1I_writeback_miss 0
Core_0_L1I_writeback_MPKI 0
Core_0_L1I_writeback_miss_rate 0
Core_0_L1I_prefetch_requested 0
Core_0_L1I_prefetch_issued 0
Core_0_L1I_prefetch_useful 0
Core_0_L1I_prefetch_useless 0
Core_0_L1I_prefetch_late 0
Core_0_L1I_prefetch_accuracy 0
Core_0_L1I_prefetch_coverage 0

Core_0_L1D_total_access 20040260
Core_0_L1D_total_hit 15869321
Core_0_L1D_total_miss 4170939
Core_0_L1D_total_MPKI 83.4188
Core_0_L1D_total_miss_rate 0.208128
Core_0_L1D_demand_access 8854295
Core_0_L1D_demand_hit 6390091
Core_0_L1D_demand_miss 2464204
Core_0_L1D_demand_MPKI 49.2841
Core_0_L1D_demand_miss_rate 0.278306
Core_0_L1D_load_access 8854295
Core_0_L1D_load_hit 6390091
Core_0_L1D_load_miss 2464204
Core_0_L1D_load_MPKI 49.2841
Core_0_L1D_load_miss_rate 0.278306
Core_0_L1D_rfo_access 0
Core_0_L1D_rfo_hit 0
Core_0_L1D_rfo_miss 0
Core_0_L1D_rfo_MPKI 0
Core_0_L1D_rfo_miss_rate 0
Core_0_L1D_prefetch_access 6305101
Core_0_L1D_prefetch_hit 5052716
Core_0_L1D_prefetch_miss 1252385
Core_0_L1D_prefetch_MPKI 25.0477
Core_0_L1D_prefetch_miss_rate 0.19863
Core_0_L1D_writeback_access 4880864
Core_0_L1D_writeback_hit 4426514
Core_0_L1D_writeback_miss 454350
Core_0_L1D_writeback_MPKI 9.087
Core_0_L1D_writeback_miss_rate 0.093088
Core_0_L1D_prefetch_requested 9212070
Core_0_L1D_prefetch_issued 6305107
Core_0_L1D_prefetch_useful 306998
Core_0_L1D_prefetch_useless 676964
Core_0_L1D_prefetch_late 13838
Core_0_L1D_prefetch_accuracy 0.0486904
Core_0_L1D_prefetch_coverage 0.110782

Core_0_L2C_total_access 8357896
Core_0_L2C_total_hit 5409302
Core_0_L2C_total_miss 2948594
Core_0_L2C_total_MPKI 58.9719
Core_0_L2C_total_miss_rate 0.352791
Core_0_L2C_demand_access 2335324
Core_0_L2C_demand_hit 1487450
Core_0_L2C_demand_miss 847874
Core_0_L2C_demand_MPKI 16.9575
Core_0_L2C_demand_miss_rate 0.363065
Core_0_L2C_load_access 2218456
Core_0_L2C_load_hit 1470702
Core_0_L2C_load_miss 747754
Core_0_L2C_load_MPKI 14.9551
Core_0_L2C_load_miss_rate 0.337061
Core_0_L2C_rfo_access 116868
Core_0_L2C_rfo_hit 16748
Core_0_L2C_rfo_miss 100120
Core_0_L2C_rfo_MPKI 2.0024
Core_0_L2C_rfo_miss_rate 0.856693
Core_0_L2C_prefetch_access 5838666
Core_0_L2C_prefetch_hit 3738067
Core_0_L2C_prefetch_miss 2100599
Core_0_L2C_prefetch_MPKI 42.012
Core_0_L2C_prefetch_miss_rate 0.359774
Core_0_L2C_writeback_access 183906
Core_0_L2C_writeback_hit 183785
Core_0_L2C_writeback_miss 121
Core_0_L2C_writeback_MPKI 0.00242
Core_0_L2C_writeback_miss_rate 0.000657945
Core_0_L2C_prefetch_requested 4960446
Core_0_L2C_prefetch_issued 4854732
Core_0_L2C_prefetch_useful 269023
Core_0_L2C_prefetch_useless 959880
Core_0_L2C_prefetch_late 30474
Core_0_L2C_prefetch_accuracy 0.0554146
Core_0_L2C_prefetch_coverage 0.240866

Core_0_LLC_total_access 2643005
Core_0_LLC_total_hit 2198724
Core_0_LLC_total_miss 444281
Core_0_LLC_total_MPKI 8.88562
Core_0_LLC_total_miss_rate 0.168097
Core_0_LLC_demand_access 817399
Core_0_LLC_demand_hit 713267
Core_0_LLC_demand_miss 104132
Core_0_LLC_demand_MPKI 2.08264
Core_0_LLC_demand_miss_rate 0.127394
Core_0_LLC_load_access 721077
Core_0_LLC_load_hit 706281
Core_0_LLC_load_miss 14796
Core_0_LLC_load_MPKI 0.29592
Core_0_LLC_load_miss_rate 0.0205193
Core_0_LLC_rfo_access 96322
Core_0_LLC_rfo_hit 6986
Core_0_LLC_rfo_miss 89336
Core_0_LLC_rfo_MPKI 1.78672
Core_0_LLC_rfo_miss_rate 0.927472
Core_0_LLC_prefetch_access 1678186
Core_0_LLC_prefetch_hit 1346891
Core_0_LLC_prefetch_miss 331295
Core_0_LLC_prefetch_MPKI 6.6259
Core_0_LLC_prefetch_miss_rate 0.197413
Core_0_LLC_writeback_access 147420
Core_0_LLC_writeback_hit 138566
Core_0_LLC_writeback_miss 8854
Core_0_LLC_writeback_MPKI 0.17708
Core_0_LLC_writeback_miss_rate 0.0600597
Core_0_LLC_prefetch_requested 0
Core_0_LLC_prefetch_issued 0
Core_0_LLC_prefetch_useful 0
Core_0_LLC_prefetch_useless 0
Core_0_LLC_prefetch_late 0
Core_0_LLC_prefetch_accuracy 0
Core_0_LLC_prefetch_coverage 0

[DRAM Statistics]
Channel_0_RQ_row_buffer_hit 14609
Channel_0_RQ_row_buffer_miss 423869
Channel_0_WQ_row_buffer_hit 20113
Channel_0_WQ_row_buffer_miss 93328
Channel_0_WQ_full 0
Channel_0_dbus_congested 1140075
DRAM_total_RQ_row_buffer_hit 14609
DRAM_total_RQ_row_buffer_miss 423869
DRAM_total_WQ_row_buffer_hit 20113
DRAM_total_WQ_row_buffer_miss 93328
DRAM_total_WQ_full 0
DRAM_total_dbus_congested 1140075
DRAM_avg_congested_cycle 8.95874

====== DRAM_RQ_TRAFFIC ========
DRAM_RQ_READ_TRAFFIC_BREAKDOWN:
data_demand_read.count = 101718
data_demand_read.share = 23.20%

inst_demand_read.count = 2414
inst_demand_read.share = 0.55%

cache_inst_prefetch.count = 0
cache_inst_prefetch.share = 0.00%

cache_data_prefetch.count = 331295
cache_data_prefetch.share = 75.55%

stlb_data_demand.count = 2943
stlb_data_demand.share = 0.67%

stlb_inst_demand.count = 109
stlb_inst_demand.share = 0.02%

stlb_l1i_pref.count = 0
stlb_l1i_pref.share = 0.00%

stlb_l1d_pref.count = 8
stlb_l1d_pref.share = 0.00%

DRAM_RQ_READ_TRAFFIC_SUMMARY:
cache_demand.count = 104132
cache_demand.share = 23.75%

cache_prefetch.count = 331295
cache_prefetch.share = 75.55%

stlb_demand.count = 3052
stlb_demand.share = 0.70%

stlb_prefetch.count = 8
stlb_prefetch.share = 0.00%

DRAM_RQ_READ_TRAFFIC_DEBUG:
total_classified_read.count = 438487
unclassified_read.count = 0
total_read_with_other.count = 438487

classified_plus_unclassified_check.count = 438487
dram_rq_read_total_observed.count = 438487
dram_rq_read_total_observed.per_1K_instructions = 8.76974

STLB_MISS_PTW_DRAM_TOUCH_BREAKDOWN:
stlb_miss_total.count = 71274

stlb_miss_touch_dram.count = 3038
stlb_miss_touch_dram.share = 4.26%

stlb_miss_no_dram_touch.count = 68236
stlb_miss_no_dram_touch.share = 95.74%

STLB_MISS_PTW_DRAM_TOUCH_DEBUG:
stlb_miss_touch_plus_no_touch.count = 71274
stlb_miss_total_check.count = 71274

======STLB miss causes ========
Core_0_STLB_miss_cause_breakdown
Core_0_STLB_cause_Demand_Data_miss 69622
Core_0_STLB_cause_Demand_Data_miss_rate 0.0566923
Core_0_STLB_cause_Demand_Instruction_miss 1572
Core_0_STLB_cause_Demand_Instruction_miss_rate 0.00128006
Core_0_STLB_cause_L1D_Prefetch_miss 80
Core_0_STLB_cause_L1D_Prefetch_miss_rate 6.5143e-05
Core_0_STLB_cause_L1I_Prefetch_miss 0
Core_0_STLB_cause_L1I_Prefetch_miss_rate 0
Core_0_STLB_cause_Other_miss 0
Core_0_STLB_cause_Other_miss_rate 0
Core_0_STLB_Demand_miss 71194
Core_0_STLB_Demand_miss_rate 0.0579724
Core_0_STLB_L1D_Prefetch_miss 80
Core_0_STLB_L1D_Prefetch_miss_rate 6.5143e-05
Core_0_STLB_Other_miss 0
Core_0_STLB_Other_miss_rate 0
