[VMEM] WARNING: physical memory size is smaller than virtual memory size.

*** ChampSim Multicore Out-of-Order Simulator ***
Warmup Instructions: 20000000
Simulation Instructions: 50000000
Number of CPUs: 1
Page size: 4096
Core 0: /data0/tzh/champsim_traces/Ligra/ligra_CF.com-lj.ungraph.gcc_6.3.0_O3.drop_184750M.length_250M.champsimtrace.xz
IPCP_AT_L1_CONFIG
NUM_IP_TABLE_L1_ENTRIES 1024
NUM_GHB_ENTRIES 16
NUM_IP_INDEX_BITS 10
NUM_IP_TAG_BITS 6
S_TYPE 1
CS_TYPE 2
CPLX_TYPE 3
NL_TYPE 4

Off-chip DRAM Size: 16 GiB Channels: 1 Width: 64-bit Data Rate: 3205 MT/s
Warmup halting CPU 0 at instruction 20000000 cycle 6320560 for remainder of phase
Warmup finished CPU 0 instructions: 20000000 cycles: 6320560 cumulative IPC: 3.164 (Simulation time: 00 hr 01 min 12 sec)
Warmup complete CPU 0 instructions: 20000000 cycles: 6320560 cumulative IPC: 3.164 (Simulation time: 00 hr 01 min 12 sec)
Simulation finished CPU 0 instructions: 50000005 cycles: 44501385 cumulative IPC: 1.124 (Simulation time: 00 hr 06 min 40 sec)
Simulation complete CPU 0 instructions: 50000005 cycles: 44501385 cumulative IPC: 1.124 (Simulation time: 00 hr 06 min 40 sec)

ChampSim completed all CPUs

=== Simulation ===
CPU 0 runs /data0/tzh/champsim_traces/Ligra/ligra_CF.com-lj.ungraph.gcc_6.3.0_O3.drop_184750M.length_250M.champsimtrace.xz

Region of Interest Statistics

CPU 0 cumulative IPC: 1.124 instructions: 50000005 cycles: 44501385
CPU 0 Branch Prediction Accuracy: 99.67% MPKI: 0.4582 Average ROB Occupancy at Mispredict: 277.7
Branch type MPKI
BRANCH_DIRECT_JUMP: 0
BRANCH_INDIRECT: 0
BRANCH_CONDITIONAL: 0.4582
BRANCH_DIRECT_CALL: 0
BRANCH_INDIRECT_CALL: 0
BRANCH_RETURN: 0

cpu0->cpu0_STLB TOTAL        ACCESS:     142977 HIT:      76501 MISS:      66476 MSHR_MERGE:          0
cpu0->cpu0_STLB LOAD         ACCESS:     142977 HIT:      76501 MISS:      66476 MSHR_MERGE:          0
cpu0->cpu0_STLB RFO          ACCESS:          0 HIT:          0 MISS:          0 MSHR_MERGE:          0
cpu0->cpu0_STLB PREFETCH     ACCESS:          0 HIT:          0 MISS:          0 MSHR_MERGE:          0
cpu0->cpu0_STLB WRITE        ACCESS:          0 HIT:          0 MISS:          0 MSHR_MERGE:          0
cpu0->cpu0_STLB TRANSLATION  ACCESS:          0 HIT:          0 MISS:          0 MSHR_MERGE:          0
cpu0->cpu0_STLB PREFETCH REQUESTED:          0 ISSUED:          0 USEFUL:          0 USELESS:          0 LATE:          0
cpu0->cpu0_STLB AVERAGE MISS LATENCY: 284.5 cycles
cpu0->cpu0_L2C TOTAL        ACCESS:    4459417 HIT:    1604749 MISS:    2854668 MSHR_MERGE:    1351241
cpu0->cpu0_L2C LOAD         ACCESS:     343246 HIT:     105057 MISS:     238189 MSHR_MERGE:       9261
cpu0->cpu0_L2C RFO          ACCESS:       1390 HIT:       1390 MISS:          0 MSHR_MERGE:          0
cpu0->cpu0_L2C PREFETCH     ACCESS:    3977491 HIT:    1415147 MISS:    2562344 MSHR_MERGE:    1341980
cpu0->cpu0_L2C WRITE        ACCESS:      58919 HIT:      58918 MISS:          1 MSHR_MERGE:          0
cpu0->cpu0_L2C TRANSLATION  ACCESS:      78371 HIT:      24237 MISS:      54134 MSHR_MERGE:          0
cpu0->cpu0_L2C PREFETCH REQUESTED:    3106933 ISSUED:    2993585 USEFUL:     181554 USELESS:     498794 LATE:       9261
cpu0->cpu0_L2C AVERAGE MISS LATENCY: 224.4 cycles
cpu0->cpu0_L1I TOTAL        ACCESS:    4760336 HIT:    4760336 MISS:          0 MSHR_MERGE:          0
cpu0->cpu0_L1I LOAD         ACCESS:    4760336 HIT:    4760336 MISS:          0 MSHR_MERGE:          0
cpu0->cpu0_L1I RFO          ACCESS:          0 HIT:          0 MISS:          0 MSHR_MERGE:          0
cpu0->cpu0_L1I PREFETCH     ACCESS:          0 HIT:          0 MISS:          0 MSHR_MERGE:          0
cpu0->cpu0_L1I WRITE        ACCESS:          0 HIT:          0 MISS:          0 MSHR_MERGE:          0
cpu0->cpu0_L1I TRANSLATION  ACCESS:          0 HIT:          0 MISS:          0 MSHR_MERGE:          0
cpu0->cpu0_L1I PREFETCH REQUESTED:          0 ISSUED:          0 USEFUL:          0 USELESS:          0 LATE:          0
cpu0->cpu0_L1I AVERAGE MISS LATENCY: - cycles
cpu0->cpu0_L1D TOTAL        ACCESS:   12521766 HIT:    9888166 MISS:    2633600 MSHR_MERGE:    1226670
cpu0->cpu0_L1D LOAD         ACCESS:    6068375 HIT:    4822598 MISS:    1245777 MSHR_MERGE:     902532
cpu0->cpu0_L1D RFO          ACCESS:          0 HIT:          0 MISS:          0 MSHR_MERGE:          0
cpu0->cpu0_L1D PREFETCH     ACCESS:    3994630 HIT:    2687827 MISS:    1306803 MSHR_MERGE:     322897
cpu0->cpu0_L1D WRITE        ACCESS:    2287236 HIT:    2285717 MISS:       1519 MSHR_MERGE:        111
cpu0->cpu0_L1D TRANSLATION  ACCESS:     171525 HIT:      92024 MISS:      79501 MSHR_MERGE:       1130
cpu0->cpu0_L1D PREFETCH REQUESTED:   13810501 ISSUED:    3994630 USEFUL:     182783 USELESS:     801090 LATE:      12567
cpu0->cpu0_L1D AVERAGE MISS LATENCY: 161.5 cycles
cpu0->cpu0_ITLB TOTAL        ACCESS:    4498814 HIT:    4498814 MISS:          0 MSHR_MERGE:          0
cpu0->cpu0_ITLB LOAD         ACCESS:    4498814 HIT:    4498814 MISS:          0 MSHR_MERGE:          0
cpu0->cpu0_ITLB RFO          ACCESS:          0 HIT:          0 MISS:          0 MSHR_MERGE:          0
cpu0->cpu0_ITLB PREFETCH     ACCESS:          0 HIT:          0 MISS:          0 MSHR_MERGE:          0
cpu0->cpu0_ITLB WRITE        ACCESS:          0 HIT:          0 MISS:          0 MSHR_MERGE:          0
cpu0->cpu0_ITLB TRANSLATION  ACCESS:          0 HIT:          0 MISS:          0 MSHR_MERGE:          0
cpu0->cpu0_ITLB PREFETCH REQUESTED:          0 ISSUED:          0 USEFUL:          0 USELESS:          0 LATE:          0
cpu0->cpu0_ITLB AVERAGE MISS LATENCY: - cycles
cpu0->cpu0_DTLB TOTAL        ACCESS:   10380331 HIT:    9592623 MISS:     787708 MSHR_MERGE:     644731
cpu0->cpu0_DTLB LOAD         ACCESS:   10380331 HIT:    9592623 MISS:     787708 MSHR_MERGE:     644731
cpu0->cpu0_DTLB RFO          ACCESS:          0 HIT:          0 MISS:          0 MSHR_MERGE:          0
cpu0->cpu0_DTLB PREFETCH     ACCESS:          0 HIT:          0 MISS:          0 MSHR_MERGE:          0
cpu0->cpu0_DTLB WRITE        ACCESS:          0 HIT:          0 MISS:          0 MSHR_MERGE:          0
cpu0->cpu0_DTLB TRANSLATION  ACCESS:          0 HIT:          0 MISS:          0 MSHR_MERGE:          0
cpu0->cpu0_DTLB PREFETCH REQUESTED:          0 ISSUED:          0 USEFUL:          0 USELESS:          0 LATE:          0
cpu0->cpu0_DTLB AVERAGE MISS LATENCY: 137.7 cycles
cpu0->LLC TOTAL        ACCESS:    1560935 HIT:      70360 MISS:    1490575 MSHR_MERGE:          0
cpu0->LLC LOAD         ACCESS:     228928 HIT:      11503 MISS:     217425 MSHR_MERGE:          0
cpu0->LLC RFO          ACCESS:          0 HIT:          0 MISS:          0 MSHR_MERGE:          0
cpu0->LLC PREFETCH     ACCESS:    1220361 HIT:      36228 MISS:    1184133 MSHR_MERGE:          0
cpu0->LLC WRITE        ACCESS:      57512 HIT:       8992 MISS:      48520 MSHR_MERGE:          0
cpu0->LLC TRANSLATION  ACCESS:      54134 HIT:      13637 MISS:      40497 MSHR_MERGE:          0
cpu0->LLC PREFETCH REQUESTED:          0 ISSUED:          0 USEFUL:          0 USELESS:          0 LATE:          0
cpu0->LLC AVERAGE MISS LATENCY: 194.5 cycles

DRAM Statistics

Channel 0 RQ ROW_BUFFER_HIT:      11277
  ROW_BUFFER_MISS:    1430774
  AVG DBUS CONGESTED CYCLE: 4.19
Channel 0 WQ ROW_BUFFER_HIT:      12630
  ROW_BUFFER_MISS:      47891
  FULL:          0
Channel 0 REFRESHES ISSUED:       3709

[ROI Statistics]
[System Configuration]
num_cpus 1
cpu_freq 4000
fetch_width 6
decode_width 6
dispatch_width 6
execute_width 6
lq_width 2
sq_width 2
retire_width 6
scheduler_size 128
branch_mispredict_penalty 15
rob_size 352
lq_size 128
sq_size 72
ifetch_buffer_size 64
decode_buffer_size 32
dispatch_buffer_size 32
register_file_size 288
decode_latency 1
dispatch_latency 1
schedule_latency 1
execute_latency 1
page_size 4096
block_size 64
core_0_itlb_set 16
core_0_itlb_way 4
core_0_itlb_rq_size 16
core_0_itlb_wq_size 16
core_0_itlb_pq_size 0
core_0_itlb_mshr_size 8
core_0_itlb_hit_latency 1
core_0_itlb_fill_latency 1
core_0_itlb_max_tag_check 2
core_0_itlb_max_fill 2
core_0_dtlb_set 16
core_0_dtlb_way 4
core_0_dtlb_rq_size 16
core_0_dtlb_wq_size 16
core_0_dtlb_pq_size 0
core_0_dtlb_mshr_size 8
core_0_dtlb_hit_latency 1
core_0_dtlb_fill_latency 1
core_0_dtlb_max_tag_check 2
core_0_dtlb_max_fill 2
core_0_stlb_set 128
core_0_stlb_way 12
core_0_stlb_rq_size 32
core_0_stlb_wq_size 32
core_0_stlb_pq_size 0
core_0_stlb_mshr_size 16
core_0_stlb_hit_latency 4
core_0_stlb_fill_latency 4
core_0_stlb_max_tag_check 1
core_0_stlb_max_fill 1
core_0_l1i_set 64
core_0_l1i_way 8
core_0_l1i_rq_size 64
core_0_l1i_wq_size 64
core_0_l1i_pq_size 32
core_0_l1i_mshr_size 8
core_0_l1i_hit_latency 2
core_0_l1i_fill_latency 2
core_0_l1i_max_tag_check 2
core_0_l1i_max_fill 2
core_0_l1d_set 64
core_0_l1d_way 12
core_0_l1d_rq_size 64
core_0_l1d_wq_size 64
core_0_l1d_pq_size 8
core_0_l1d_mshr_size 16
core_0_l1d_hit_latency 2
core_0_l1d_fill_latency 3
core_0_l1d_max_tag_check 2
core_0_l1d_max_fill 2
core_0_l2c_set 1024
core_0_l2c_way 8
core_0_l2c_rq_size 32
core_0_l2c_wq_size 32
core_0_l2c_pq_size 16
core_0_l2c_mshr_size 32
core_0_l2c_hit_latency 5
core_0_l2c_fill_latency 5
core_0_l2c_max_tag_check 1
core_0_l2c_max_fill 1
llc_set 2048
llc_way 16
llc_rq_size 32
llc_wq_size 32
llc_pq_size 32
llc_mshr_size 64
llc_hit_latency 10
llc_fill_latency 10
llc_max_tag_check 1
llc_max_fill 1
dram_channels 1
dram_ranks 1
dram_bankgroups 8
dram_banks 4
dram_rows 65536
dram_columns 1024
dram_channel_width 8
dram_rq_size 64
dram_wq_size 64
dram_size 17179869184
core_0_itlb_prefetcher no
core_0_dtlb_prefetcher no
core_0_stlb_prefetcher no
core_0_l1i_prefetcher next_line
core_0_l1d_prefetcher ipcp
core_0_l2c_prefetcher pythia
llc_prefetcher no
llc_replacement drrip

Core_0_instructions 50000005
Core_0_cycles 44501385
Core_0_IPC 1.12356
Core_0_branch_prediction_accuracy 99.6695
Core_0_branch_MPKI 0.45822
Core_0_average_ROB_occupancy_at_mispredict 277.689

Core_0_ITLB_total_access 4498814
Core_0_ITLB_total_hit 4498814
Core_0_ITLB_total_miss 0
Core_0_ITLB_total_MPKI 0
Core_0_ITLB_total_miss_rate 0
Core_0_ITLB_demand_access 4498814
Core_0_ITLB_demand_hit 4498814
Core_0_ITLB_demand_miss 0
Core_0_ITLB_demand_MPKI 0
Core_0_ITLB_demand_miss_rate 0
Core_0_ITLB_load_access 4498814
Core_0_ITLB_load_hit 4498814
Core_0_ITLB_load_miss 0
Core_0_ITLB_load_MPKI 0
Core_0_ITLB_load_miss_rate 0
Core_0_ITLB_rfo_access 0
Core_0_ITLB_rfo_hit 0
Core_0_ITLB_rfo_miss 0
Core_0_ITLB_rfo_MPKI 0
Core_0_ITLB_rfo_miss_rate 0
Core_0_ITLB_prefetch_access 0
Core_0_ITLB_prefetch_hit 0
Core_0_ITLB_prefetch_miss 0
Core_0_ITLB_prefetch_MPKI 0
Core_0_ITLB_prefetch_miss_rate 0
Core_0_ITLB_writeback_access 0
Core_0_ITLB_writeback_hit 0
Core_0_ITLB_writeback_miss 0
Core_0_ITLB_writeback_MPKI 0
Core_0_ITLB_writeback_miss_rate 0
Core_0_ITLB_prefetch_requested 0
Core_0_ITLB_prefetch_issued 0
Core_0_ITLB_prefetch_useful 0
Core_0_ITLB_prefetch_useless 0
Core_0_ITLB_prefetch_late 0
Core_0_ITLB_prefetch_accuracy 0
Core_0_ITLB_prefetch_coverage 0

Core_0_DTLB_total_access 10380331
Core_0_DTLB_total_hit 9592623
Core_0_DTLB_total_miss 787708
Core_0_DTLB_total_MPKI 15.7542
Core_0_DTLB_total_miss_rate 0.0758847
Core_0_DTLB_demand_access 10380331
Core_0_DTLB_demand_hit 9592623
Core_0_DTLB_demand_miss 787708
Core_0_DTLB_demand_MPKI 15.7542
Core_0_DTLB_demand_miss_rate 0.0758847
Core_0_DTLB_load_access 10380331
Core_0_DTLB_load_hit 9592623
Core_0_DTLB_load_miss 787708
Core_0_DTLB_load_MPKI 15.7542
Core_0_DTLB_load_miss_rate 0.0758847
Core_0_DTLB_rfo_access 0
Core_0_DTLB_rfo_hit 0
Core_0_DTLB_rfo_miss 0
Core_0_DTLB_rfo_MPKI 0
Core_0_DTLB_rfo_miss_rate 0
Core_0_DTLB_prefetch_access 0
Core_0_DTLB_prefetch_hit 0
Core_0_DTLB_prefetch_miss 0
Core_0_DTLB_prefetch_MPKI 0
Core_0_DTLB_prefetch_miss_rate 0
Core_0_DTLB_writeback_access 0
Core_0_DTLB_writeback_hit 0
Core_0_DTLB_writeback_miss 0
Core_0_DTLB_writeback_MPKI 0
Core_0_DTLB_writeback_miss_rate 0
Core_0_DTLB_prefetch_requested 0
Core_0_DTLB_prefetch_issued 0
Core_0_DTLB_prefetch_useful 0
Core_0_DTLB_prefetch_useless 0
Core_0_DTLB_prefetch_late 0
Core_0_DTLB_prefetch_accuracy 0
Core_0_DTLB_prefetch_coverage 0

Core_0_STLB_total_access 142977
Core_0_STLB_total_hit 76501
Core_0_STLB_total_miss 66476
Core_0_STLB_total_MPKI 1.32952
Core_0_STLB_total_miss_rate 0.464942
Core_0_STLB_demand_access 142977
Core_0_STLB_demand_hit 76501
Core_0_STLB_demand_miss 66476
Core_0_STLB_demand_MPKI 1.32952
Core_0_STLB_demand_miss_rate 0.464942
Core_0_STLB_load_access 142977
Core_0_STLB_load_hit 76501
Core_0_STLB_load_miss 66476
Core_0_STLB_load_MPKI 1.32952
Core_0_STLB_load_miss_rate 0.464942
Core_0_STLB_rfo_access 0
Core_0_STLB_rfo_hit 0
Core_0_STLB_rfo_miss 0
Core_0_STLB_rfo_MPKI 0
Core_0_STLB_rfo_miss_rate 0
Core_0_STLB_prefetch_access 0
Core_0_STLB_prefetch_hit 0
Core_0_STLB_prefetch_miss 0
Core_0_STLB_prefetch_MPKI 0
Core_0_STLB_prefetch_miss_rate 0
Core_0_STLB_writeback_access 0
Core_0_STLB_writeback_hit 0
Core_0_STLB_writeback_miss 0
Core_0_STLB_writeback_MPKI 0
Core_0_STLB_writeback_miss_rate 0
Core_0_STLB_prefetch_requested 0
Core_0_STLB_prefetch_issued 0
Core_0_STLB_prefetch_useful 0
Core_0_STLB_prefetch_useless 0
Core_0_STLB_prefetch_late 0
Core_0_STLB_prefetch_accuracy 0
Core_0_STLB_prefetch_coverage 0

Core_0_L1I_total_access 4760336
Core_0_L1I_total_hit 4760336
Core_0_L1I_total_miss 0
Core_0_L1I_total_MPKI 0
Core_0_L1I_total_miss_rate 0
Core_0_L1I_demand_access 4760336
Core_0_L1I_demand_hit 4760336
Core_0_L1I_demand_miss 0
Core_0_L1I_demand_MPKI 0
Core_0_L1I_demand_miss_rate 0
Core_0_L1I_load_access 4760336
Core_0_L1I_load_hit 4760336
Core_0_L1I_load_miss 0
Core_0_L1I_load_MPKI 0
Core_0_L1I_load_miss_rate 0
Core_0_L1I_rfo_access 0
Core_0_L1I_rfo_hit 0
Core_0_L1I_rfo_miss 0
Core_0_L1I_rfo_MPKI 0
Core_0_L1I_rfo_miss_rate 0
Core_0_L1I_prefetch_access 0
Core_0_L1I_prefetch_hit 0
Core_0_L1I_prefetch_miss 0
Core_0_L1I_prefetch_MPKI 0
Core_0_L1I_prefetch_miss_rate 0
Core_0_L1I_writeback_access 0
Core_0_L1I_writeback_hit 0
Core_0_L1I_writeback_miss 0
Core_0_L1I_writeback_MPKI 0
Core_0_L1I_writeback_miss_rate 0
Core_0_L1I_prefetch_requested 0
Core_0_L1I_prefetch_issued 0
Core_0_L1I_prefetch_useful 0
Core_0_L1I_prefetch_useless 0
Core_0_L1I_prefetch_late 0
Core_0_L1I_prefetch_accuracy 0
Core_0_L1I_prefetch_coverage 0

Core_0_L1D_total_access 12350241
Core_0_L1D_total_hit 9796142
Core_0_L1D_total_miss 2554099
Core_0_L1D_total_MPKI 51.082
Core_0_L1D_total_miss_rate 0.206806
Core_0_L1D_demand_access 6068375
Core_0_L1D_demand_hit 4822598
Core_0_L1D_demand_miss 1245777
Core_0_L1D_demand_MPKI 24.9155
Core_0_L1D_demand_miss_rate 0.20529
Core_0_L1D_load_access 6068375
Core_0_L1D_load_hit 4822598
Core_0_L1D_load_miss 1245777
Core_0_L1D_load_MPKI 24.9155
Core_0_L1D_load_miss_rate 0.20529
Core_0_L1D_rfo_access 0
Core_0_L1D_rfo_hit 0
Core_0_L1D_rfo_miss 0
Core_0_L1D_rfo_MPKI 0
Core_0_L1D_rfo_miss_rate 0
Core_0_L1D_prefetch_access 3994630
Core_0_L1D_prefetch_hit 2687827
Core_0_L1D_prefetch_miss 1306803
Core_0_L1D_prefetch_MPKI 26.1361
Core_0_L1D_prefetch_miss_rate 0.32714
Core_0_L1D_writeback_access 2287236
Core_0_L1D_writeback_hit 2285717
Core_0_L1D_writeback_miss 1519
Core_0_L1D_writeback_MPKI 0.03038
Core_0_L1D_writeback_miss_rate 0.00066412
Core_0_L1D_prefetch_requested 13810501
Core_0_L1D_prefetch_issued 3994630
Core_0_L1D_prefetch_useful 182783
Core_0_L1D_prefetch_useless 801090
Core_0_L1D_prefetch_late 12567
Core_0_L1D_prefetch_accuracy 0.0457572
Core_0_L1D_prefetch_coverage 0.127949

Core_0_L2C_total_access 4381046
Core_0_L2C_total_hit 1580512
Core_0_L2C_total_miss 2800534
Core_0_L2C_total_MPKI 56.0107
Core_0_L2C_total_miss_rate 0.639239
Core_0_L2C_demand_access 344636
Core_0_L2C_demand_hit 106447
Core_0_L2C_demand_miss 238189
Core_0_L2C_demand_MPKI 4.76378
Core_0_L2C_demand_miss_rate 0.691132
Core_0_L2C_load_access 343246
Core_0_L2C_load_hit 105057
Core_0_L2C_load_miss 238189
Core_0_L2C_load_MPKI 4.76378
Core_0_L2C_load_miss_rate 0.693931
Core_0_L2C_rfo_access 1390
Core_0_L2C_rfo_hit 1390
Core_0_L2C_rfo_miss 0
Core_0_L2C_rfo_MPKI 0
Core_0_L2C_rfo_miss_rate 0
Core_0_L2C_prefetch_access 3977491
Core_0_L2C_prefetch_hit 1415147
Core_0_L2C_prefetch_miss 2562344
Core_0_L2C_prefetch_MPKI 51.2469
Core_0_L2C_prefetch_miss_rate 0.644211
Core_0_L2C_writeback_access 58919
Core_0_L2C_writeback_hit 58918
Core_0_L2C_writeback_miss 1
Core_0_L2C_writeback_MPKI 2e-05
Core_0_L2C_writeback_miss_rate 1.69725e-05
Core_0_L2C_prefetch_requested 3106933
Core_0_L2C_prefetch_issued 2993585
Core_0_L2C_prefetch_useful 181554
Core_0_L2C_prefetch_useless 498794
Core_0_L2C_prefetch_late 9261
Core_0_L2C_prefetch_accuracy 0.0606477
Core_0_L2C_prefetch_coverage 0.432536

Core_0_LLC_total_access 1506801
Core_0_LLC_total_hit 56723
Core_0_LLC_total_miss 1450078
Core_0_LLC_total_MPKI 29.0016
Core_0_LLC_total_miss_rate 0.962355
Core_0_LLC_demand_access 228928
Core_0_LLC_demand_hit 11503
Core_0_LLC_demand_miss 217425
Core_0_LLC_demand_MPKI 4.3485
Core_0_LLC_demand_miss_rate 0.949753
Core_0_LLC_load_access 228928
Core_0_LLC_load_hit 11503
Core_0_LLC_load_miss 217425
Core_0_LLC_load_MPKI 4.3485
Core_0_LLC_load_miss_rate 0.949753
Core_0_LLC_rfo_access 0
Core_0_LLC_rfo_hit 0
Core_0_LLC_rfo_miss 0
Core_0_LLC_rfo_MPKI 0
Core_0_LLC_rfo_miss_rate 0
Core_0_LLC_prefetch_access 1220361
Core_0_LLC_prefetch_hit 36228
Core_0_LLC_prefetch_miss 1184133
Core_0_LLC_prefetch_MPKI 23.6827
Core_0_LLC_prefetch_miss_rate 0.970314
Core_0_LLC_writeback_access 57512
Core_0_LLC_writeback_hit 8992
Core_0_LLC_writeback_miss 48520
Core_0_LLC_writeback_MPKI 0.9704
Core_0_LLC_writeback_miss_rate 0.84365
Core_0_LLC_prefetch_requested 0
Core_0_LLC_prefetch_issued 0
Core_0_LLC_prefetch_useful 0
Core_0_LLC_prefetch_useless 0
Core_0_LLC_prefetch_late 0
Core_0_LLC_prefetch_accuracy 0
Core_0_LLC_prefetch_coverage 0

[DRAM Statistics]
Channel_0_RQ_row_buffer_hit 11277
Channel_0_RQ_row_buffer_miss 1430774
Channel_0_WQ_row_buffer_hit 12630
Channel_0_WQ_row_buffer_miss 47891
Channel_0_WQ_full 0
Channel_0_dbus_congested 3716020
DRAM_total_RQ_row_buffer_hit 11277
DRAM_total_RQ_row_buffer_miss 1430774
DRAM_total_WQ_row_buffer_hit 12630
DRAM_total_WQ_row_buffer_miss 47891
DRAM_total_WQ_full 0
DRAM_total_dbus_congested 3716020
DRAM_avg_congested_cycle 4.18971

====== DRAM_RQ_TRAFFIC ========
DRAM_RQ_READ_TRAFFIC_BREAKDOWN:
data_demand_read.count = 217425
data_demand_read.share = 15.08%

inst_demand_read.count = 0
inst_demand_read.share = 0.00%

cache_inst_prefetch.count = 0
cache_inst_prefetch.share = 0.00%

cache_data_prefetch.count = 1184133
cache_data_prefetch.share = 82.11%

stlb_data_demand.count = 40497
stlb_data_demand.share = 2.81%

stlb_inst_demand.count = 0
stlb_inst_demand.share = 0.00%

stlb_l1i_pref.count = 0
stlb_l1i_pref.share = 0.00%

stlb_l1d_pref.count = 0
stlb_l1d_pref.share = 0.00%

DRAM_RQ_READ_TRAFFIC_SUMMARY:
cache_demand.count = 217425
cache_demand.share = 15.08%

cache_prefetch.count = 1184133
cache_prefetch.share = 82.11%

stlb_demand.count = 40497
stlb_demand.share = 2.81%

stlb_prefetch.count = 0
stlb_prefetch.share = 0.00%

DRAM_RQ_READ_TRAFFIC_DEBUG:
total_classified_read.count = 1442055
unclassified_read.count = 0
total_read_with_other.count = 1442055

classified_plus_unclassified_check.count = 1442055
dram_rq_read_total_observed.count = 1442055
dram_rq_read_total_observed.per_1K_instructions = 28.8411

STLB_MISS_PTW_DRAM_TOUCH_BREAKDOWN:
stlb_miss_total.count = 66476

stlb_miss_touch_dram.count = 40612
stlb_miss_touch_dram.share = 61.09%

stlb_miss_no_dram_touch.count = 25864
stlb_miss_no_dram_touch.share = 38.91%

STLB_MISS_PTW_DRAM_TOUCH_DEBUG:
stlb_miss_touch_plus_no_touch.count = 66476
stlb_miss_total_check.count = 66476

======STLB miss causes ========
Core_0_STLB_miss_cause_breakdown
Core_0_STLB_cause_Demand_Data_miss 66476
Core_0_STLB_cause_Demand_Data_miss_rate 0.464942
Core_0_STLB_cause_Demand_Instruction_miss 0
Core_0_STLB_cause_Demand_Instruction_miss_rate 0
Core_0_STLB_cause_L1D_Prefetch_miss 0
Core_0_STLB_cause_L1D_Prefetch_miss_rate 0
Core_0_STLB_cause_L1I_Prefetch_miss 0
Core_0_STLB_cause_L1I_Prefetch_miss_rate 0
Core_0_STLB_cause_Other_miss 0
Core_0_STLB_cause_Other_miss_rate 0
Core_0_STLB_Demand_miss 66476
Core_0_STLB_Demand_miss_rate 0.464942
Core_0_STLB_L1D_Prefetch_miss 0
Core_0_STLB_L1D_Prefetch_miss_rate 0
Core_0_STLB_Other_miss 0
Core_0_STLB_Other_miss_rate 0
