[VMEM] WARNING: physical memory size is smaller than virtual memory size.

*** ChampSim Multicore Out-of-Order Simulator ***
Warmup Instructions: 20000000
Simulation Instructions: 50000000
Number of CPUs: 1
Page size: 4096
Core 0: /data0/tzh/champsim_traces/Ligra/ligra_PageRankDelta.com-lj.ungraph.gcc_6.3.0_O3.drop_52000M.length_250M.champsimtrace.xz
IPCP_AT_L1_CONFIG
NUM_IP_TABLE_L1_ENTRIES 1024
NUM_GHB_ENTRIES 16
NUM_IP_INDEX_BITS 10
NUM_IP_TAG_BITS 6
S_TYPE 1
CS_TYPE 2
CPLX_TYPE 3
NL_TYPE 4

Off-chip DRAM Size: 16 GiB Channels: 1 Width: 64-bit Data Rate: 3205 MT/s
Warmup halting CPU 0 at instruction 20000002 cycle 4599405 for remainder of phase
Warmup finished CPU 0 instructions: 20000002 cycles: 4599405 cumulative IPC: 4.348 (Simulation time: 00 hr 00 min 59 sec)
Warmup complete CPU 0 instructions: 20000002 cycles: 4599405 cumulative IPC: 4.348 (Simulation time: 00 hr 00 min 59 sec)
Simulation finished CPU 0 instructions: 50000001 cycles: 101248929 cumulative IPC: 0.4938 (Simulation time: 00 hr 10 min 52 sec)
Simulation complete CPU 0 instructions: 50000001 cycles: 101248929 cumulative IPC: 0.4938 (Simulation time: 00 hr 10 min 52 sec)

ChampSim completed all CPUs

=== Simulation ===
CPU 0 runs /data0/tzh/champsim_traces/Ligra/ligra_PageRankDelta.com-lj.ungraph.gcc_6.3.0_O3.drop_52000M.length_250M.champsimtrace.xz

Region of Interest Statistics

CPU 0 cumulative IPC: 0.4938 instructions: 50000001 cycles: 101248929
CPU 0 Branch Prediction Accuracy: 90.09% MPKI: 10.67 Average ROB Occupancy at Mispredict: 44.15
Branch type MPKI
BRANCH_DIRECT_JUMP: 0
BRANCH_INDIRECT: 0
BRANCH_CONDITIONAL: 10.67
BRANCH_DIRECT_CALL: 0
BRANCH_INDIRECT_CALL: 0
BRANCH_RETURN: 0

cpu0->cpu0_STLB TOTAL        ACCESS:     380401 HIT:     196817 MISS:     183584 MSHR_MERGE:          0
cpu0->cpu0_STLB LOAD         ACCESS:     380401 HIT:     196817 MISS:     183584 MSHR_MERGE:          0
cpu0->cpu0_STLB RFO          ACCESS:          0 HIT:          0 MISS:          0 MSHR_MERGE:          0
cpu0->cpu0_STLB PREFETCH     ACCESS:          0 HIT:          0 MISS:          0 MSHR_MERGE:          0
cpu0->cpu0_STLB WRITE        ACCESS:          0 HIT:          0 MISS:          0 MSHR_MERGE:          0
cpu0->cpu0_STLB TRANSLATION  ACCESS:          0 HIT:          0 MISS:          0 MSHR_MERGE:          0
cpu0->cpu0_STLB PREFETCH REQUESTED:          0 ISSUED:          0 USEFUL:          0 USELESS:          0 LATE:          0
cpu0->cpu0_STLB AVERAGE MISS LATENCY: 40.81 cycles
cpu0->cpu0_L2C TOTAL        ACCESS:   11398111 HIT:    3598726 MISS:    7799385 MSHR_MERGE:    3547292
cpu0->cpu0_L2C LOAD         ACCESS:     487913 HIT:      62904 MISS:     425009 MSHR_MERGE:       2589
cpu0->cpu0_L2C RFO          ACCESS:       4924 HIT:       4924 MISS:          0 MSHR_MERGE:          0
cpu0->cpu0_L2C PREFETCH     ACCESS:   10183109 HIT:    2894907 MISS:    7288202 MSHR_MERGE:    3544703
cpu0->cpu0_L2C WRITE        ACCESS:     554378 HIT:     554287 MISS:         91 MSHR_MERGE:          0
cpu0->cpu0_L2C TRANSLATION  ACCESS:     167787 HIT:      81704 MISS:      86083 MSHR_MERGE:          0
cpu0->cpu0_L2C PREFETCH REQUESTED:    7903275 ISSUED:    7381502 USEFUL:     618928 USELESS:    1417681 LATE:       2589
cpu0->cpu0_L2C AVERAGE MISS LATENCY: 213.1 cycles
cpu0->cpu0_L1I TOTAL        ACCESS:    1412166 HIT:    1412166 MISS:          0 MSHR_MERGE:          0
cpu0->cpu0_L1I LOAD         ACCESS:    1412166 HIT:    1412166 MISS:          0 MSHR_MERGE:          0
cpu0->cpu0_L1I RFO          ACCESS:          0 HIT:          0 MISS:          0 MSHR_MERGE:          0
cpu0->cpu0_L1I PREFETCH     ACCESS:          0 HIT:          0 MISS:          0 MSHR_MERGE:          0
cpu0->cpu0_L1I WRITE        ACCESS:          0 HIT:          0 MISS:          0 MSHR_MERGE:          0
cpu0->cpu0_L1I TRANSLATION  ACCESS:          0 HIT:          0 MISS:          0 MSHR_MERGE:          0
cpu0->cpu0_L1I PREFETCH REQUESTED:          0 ISSUED:          0 USEFUL:          0 USELESS:          0 LATE:          0
cpu0->cpu0_L1I AVERAGE MISS LATENCY: - cycles
cpu0->cpu0_L1D TOTAL        ACCESS:   24195687 HIT:   19803662 MISS:    4392025 MSHR_MERGE:     929479
cpu0->cpu0_L1D LOAD         ACCESS:   10277580 HIT:    9667958 MISS:     609622 MSHR_MERGE:     121708
cpu0->cpu0_L1D RFO          ACCESS:          0 HIT:          0 MISS:          0 MSHR_MERGE:          0
cpu0->cpu0_L1D PREFETCH     ACCESS:    8841112 HIT:    5237606 MISS:    3603506 MSHR_MERGE:     801902
cpu0->cpu0_L1D WRITE        ACCESS:    4710419 HIT:    4699755 MISS:      10664 MSHR_MERGE:       5423
cpu0->cpu0_L1D TRANSLATION  ACCESS:     366576 HIT:     198343 MISS:     168233 MSHR_MERGE:        446
cpu0->cpu0_L1D PREFETCH REQUESTED:   15285873 ISSUED:    8841110 USEFUL:     450969 USELESS:    2350215 LATE:       4780
cpu0->cpu0_L1D AVERAGE MISS LATENCY: 173.4 cycles
cpu0->cpu0_ITLB TOTAL        ACCESS:    1093328 HIT:    1093328 MISS:          0 MSHR_MERGE:          0
cpu0->cpu0_ITLB LOAD         ACCESS:    1093328 HIT:    1093328 MISS:          0 MSHR_MERGE:          0
cpu0->cpu0_ITLB RFO          ACCESS:          0 HIT:          0 MISS:          0 MSHR_MERGE:          0
cpu0->cpu0_ITLB PREFETCH     ACCESS:          0 HIT:          0 MISS:          0 MSHR_MERGE:          0
cpu0->cpu0_ITLB WRITE        ACCESS:          0 HIT:          0 MISS:          0 MSHR_MERGE:          0
cpu0->cpu0_ITLB TRANSLATION  ACCESS:          0 HIT:          0 MISS:          0 MSHR_MERGE:          0
cpu0->cpu0_ITLB PREFETCH REQUESTED:          0 ISSUED:          0 USEFUL:          0 USELESS:          0 LATE:          0
cpu0->cpu0_ITLB AVERAGE MISS LATENCY: - cycles
cpu0->cpu0_DTLB TOTAL        ACCESS:   20282065 HIT:   19817443 MISS:     464622 MSHR_MERGE:      84221
cpu0->cpu0_DTLB LOAD         ACCESS:   20282065 HIT:   19817443 MISS:     464622 MSHR_MERGE:      84221
cpu0->cpu0_DTLB RFO          ACCESS:          0 HIT:          0 MISS:          0 MSHR_MERGE:          0
cpu0->cpu0_DTLB PREFETCH     ACCESS:          0 HIT:          0 MISS:          0 MSHR_MERGE:          0
cpu0->cpu0_DTLB WRITE        ACCESS:          0 HIT:          0 MISS:          0 MSHR_MERGE:          0
cpu0->cpu0_DTLB TRANSLATION  ACCESS:          0 HIT:          0 MISS:          0 MSHR_MERGE:          0
cpu0->cpu0_DTLB PREFETCH REQUESTED:          0 ISSUED:          0 USEFUL:          0 USELESS:          0 LATE:          0
cpu0->cpu0_DTLB AVERAGE MISS LATENCY: 25.18 cycles
cpu0->LLC TOTAL        ACCESS:    4785443 HIT:     932636 MISS:    3852807 MSHR_MERGE:          0
cpu0->LLC LOAD         ACCESS:     422420 HIT:      80217 MISS:     342203 MSHR_MERGE:          0
cpu0->LLC RFO          ACCESS:          0 HIT:          0 MISS:          0 MSHR_MERGE:          0
cpu0->LLC PREFETCH     ACCESS:    3743499 HIT:     586456 MISS:    3157043 MSHR_MERGE:          0
cpu0->LLC WRITE        ACCESS:     533441 HIT:     181782 MISS:     351659 MSHR_MERGE:          0
cpu0->LLC TRANSLATION  ACCESS:      86083 HIT:      84181 MISS:       1902 MSHR_MERGE:          0
cpu0->LLC PREFETCH REQUESTED:          0 ISSUED:          0 USEFUL:          0 USELESS:          0 LATE:          0
cpu0->LLC AVERAGE MISS LATENCY: 148.8 cycles

DRAM Statistics

Channel 0 RQ ROW_BUFFER_HIT:      25292
  ROW_BUFFER_MISS:    3474927
  AVG DBUS CONGESTED CYCLE: 4.157
Channel 0 WQ ROW_BUFFER_HIT:      60752
  ROW_BUFFER_MISS:     384741
  FULL:          0
Channel 0 REFRESHES ISSUED:       8437

[ROI Statistics]
[System Configuration]
num_cpus 1
cpu_freq 4000
fetch_width 6
decode_width 6
dispatch_width 6
execute_width 6
lq_width 2
sq_width 2
retire_width 6
scheduler_size 128
branch_mispredict_penalty 15
rob_size 352
lq_size 128
sq_size 72
ifetch_buffer_size 64
decode_buffer_size 32
dispatch_buffer_size 32
register_file_size 288
decode_latency 1
dispatch_latency 1
schedule_latency 1
execute_latency 1
page_size 4096
block_size 64
core_0_itlb_set 16
core_0_itlb_way 4
core_0_itlb_rq_size 16
core_0_itlb_wq_size 16
core_0_itlb_pq_size 0
core_0_itlb_mshr_size 8
core_0_itlb_hit_latency 1
core_0_itlb_fill_latency 1
core_0_itlb_max_tag_check 2
core_0_itlb_max_fill 2
core_0_dtlb_set 16
core_0_dtlb_way 4
core_0_dtlb_rq_size 16
core_0_dtlb_wq_size 16
core_0_dtlb_pq_size 0
core_0_dtlb_mshr_size 8
core_0_dtlb_hit_latency 1
core_0_dtlb_fill_latency 1
core_0_dtlb_max_tag_check 2
core_0_dtlb_max_fill 2
core_0_stlb_set 128
core_0_stlb_way 12
core_0_stlb_rq_size 32
core_0_stlb_wq_size 32
core_0_stlb_pq_size 0
core_0_stlb_mshr_size 16
core_0_stlb_hit_latency 4
core_0_stlb_fill_latency 4
core_0_stlb_max_tag_check 1
core_0_stlb_max_fill 1
core_0_l1i_set 64
core_0_l1i_way 8
core_0_l1i_rq_size 64
core_0_l1i_wq_size 64
core_0_l1i_pq_size 32
core_0_l1i_mshr_size 8
core_0_l1i_hit_latency 2
core_0_l1i_fill_latency 2
core_0_l1i_max_tag_check 2
core_0_l1i_max_fill 2
core_0_l1d_set 64
core_0_l1d_way 12
core_0_l1d_rq_size 64
core_0_l1d_wq_size 64
core_0_l1d_pq_size 8
core_0_l1d_mshr_size 16
core_0_l1d_hit_latency 2
core_0_l1d_fill_latency 3
core_0_l1d_max_tag_check 2
core_0_l1d_max_fill 2
core_0_l2c_set 1024
core_0_l2c_way 8
core_0_l2c_rq_size 32
core_0_l2c_wq_size 32
core_0_l2c_pq_size 16
core_0_l2c_mshr_size 32
core_0_l2c_hit_latency 5
core_0_l2c_fill_latency 5
core_0_l2c_max_tag_check 1
core_0_l2c_max_fill 1
llc_set 2048
llc_way 16
llc_rq_size 32
llc_wq_size 32
llc_pq_size 32
llc_mshr_size 64
llc_hit_latency 10
llc_fill_latency 10
llc_max_tag_check 1
llc_max_fill 1
dram_channels 1
dram_ranks 1
dram_bankgroups 8
dram_banks 4
dram_rows 65536
dram_columns 1024
dram_channel_width 8
dram_rq_size 64
dram_wq_size 64
dram_size 17179869184
core_0_itlb_prefetcher no
core_0_dtlb_prefetcher no
core_0_stlb_prefetcher no
core_0_l1i_prefetcher next_line
core_0_l1d_prefetcher ipcp
core_0_l2c_prefetcher pythia
llc_prefetcher no
llc_replacement drrip

Core_0_instructions 50000001
Core_0_cycles 101248929
Core_0_IPC 0.493832
Core_0_branch_prediction_accuracy 90.0906
Core_0_branch_MPKI 10.6679
Core_0_average_ROB_occupancy_at_mispredict 44.1458

Core_0_ITLB_total_access 1093328
Core_0_ITLB_total_hit 1093328
Core_0_ITLB_total_miss 0
Core_0_ITLB_total_MPKI 0
Core_0_ITLB_total_miss_rate 0
Core_0_ITLB_demand_access 1093328
Core_0_ITLB_demand_hit 1093328
Core_0_ITLB_demand_miss 0
Core_0_ITLB_demand_MPKI 0
Core_0_ITLB_demand_miss_rate 0
Core_0_ITLB_load_access 1093328
Core_0_ITLB_load_hit 1093328
Core_0_ITLB_load_miss 0
Core_0_ITLB_load_MPKI 0
Core_0_ITLB_load_miss_rate 0
Core_0_ITLB_rfo_access 0
Core_0_ITLB_rfo_hit 0
Core_0_ITLB_rfo_miss 0
Core_0_ITLB_rfo_MPKI 0
Core_0_ITLB_rfo_miss_rate 0
Core_0_ITLB_prefetch_access 0
Core_0_ITLB_prefetch_hit 0
Core_0_ITLB_prefetch_miss 0
Core_0_ITLB_prefetch_MPKI 0
Core_0_ITLB_prefetch_miss_rate 0
Core_0_ITLB_writeback_access 0
Core_0_ITLB_writeback_hit 0
Core_0_ITLB_writeback_miss 0
Core_0_ITLB_writeback_MPKI 0
Core_0_ITLB_writeback_miss_rate 0
Core_0_ITLB_prefetch_requested 0
Core_0_ITLB_prefetch_issued 0
Core_0_ITLB_prefetch_useful 0
Core_0_ITLB_prefetch_useless 0
Core_0_ITLB_prefetch_late 0
Core_0_ITLB_prefetch_accuracy 0
Core_0_ITLB_prefetch_coverage 0

Core_0_DTLB_total_access 20282065
Core_0_DTLB_total_hit 19817443
Core_0_DTLB_total_miss 464622
Core_0_DTLB_total_MPKI 9.29244
Core_0_DTLB_total_miss_rate 0.022908
Core_0_DTLB_demand_access 20282065
Core_0_DTLB_demand_hit 19817443
Core_0_DTLB_demand_miss 464622
Core_0_DTLB_demand_MPKI 9.29244
Core_0_DTLB_demand_miss_rate 0.022908
Core_0_DTLB_load_access 20282065
Core_0_DTLB_load_hit 19817443
Core_0_DTLB_load_miss 464622
Core_0_DTLB_load_MPKI 9.29244
Core_0_DTLB_load_miss_rate 0.022908
Core_0_DTLB_rfo_access 0
Core_0_DTLB_rfo_hit 0
Core_0_DTLB_rfo_miss 0
Core_0_DTLB_rfo_MPKI 0
Core_0_DTLB_rfo_miss_rate 0
Core_0_DTLB_prefetch_access 0
Core_0_DTLB_prefetch_hit 0
Core_0_DTLB_prefetch_miss 0
Core_0_DTLB_prefetch_MPKI 0
Core_0_DTLB_prefetch_miss_rate 0
Core_0_DTLB_writeback_access 0
Core_0_DTLB_writeback_hit 0
Core_0_DTLB_writeback_miss 0
Core_0_DTLB_writeback_MPKI 0
Core_0_DTLB_writeback_miss_rate 0
Core_0_DTLB_prefetch_requested 0
Core_0_DTLB_prefetch_issued 0
Core_0_DTLB_prefetch_useful 0
Core_0_DTLB_prefetch_useless 0
Core_0_DTLB_prefetch_late 0
Core_0_DTLB_prefetch_accuracy 0
Core_0_DTLB_prefetch_coverage 0

Core_0_STLB_total_access 380401
Core_0_STLB_total_hit 196817
Core_0_STLB_total_miss 183584
Core_0_STLB_total_MPKI 3.67168
Core_0_STLB_total_miss_rate 0.482607
Core_0_STLB_demand_access 380401
Core_0_STLB_demand_hit 196817
Core_0_STLB_demand_miss 183584
Core_0_STLB_demand_MPKI 3.67168
Core_0_STLB_demand_miss_rate 0.482607
Core_0_STLB_load_access 380401
Core_0_STLB_load_hit 196817
Core_0_STLB_load_miss 183584
Core_0_STLB_load_MPKI 3.67168
Core_0_STLB_load_miss_rate 0.482607
Core_0_STLB_rfo_access 0
Core_0_STLB_rfo_hit 0
Core_0_STLB_rfo_miss 0
Core_0_STLB_rfo_MPKI 0
Core_0_STLB_rfo_miss_rate 0
Core_0_STLB_prefetch_access 0
Core_0_STLB_prefetch_hit 0
Core_0_STLB_prefetch_miss 0
Core_0_STLB_prefetch_MPKI 0
Core_0_STLB_prefetch_miss_rate 0
Core_0_STLB_writeback_access 0
Core_0_STLB_writeback_hit 0
Core_0_STLB_writeback_miss 0
Core_0_STLB_writeback_MPKI 0
Core_0_STLB_writeback_miss_rate 0
Core_0_STLB_prefetch_requested 0
Core_0_STLB_prefetch_issued 0
Core_0_STLB_prefetch_useful 0
Core_0_STLB_prefetch_useless 0
Core_0_STLB_prefetch_late 0
Core_0_STLB_prefetch_accuracy 0
Core_0_STLB_prefetch_coverage 0

Core_0_L1I_total_access 1412166
Core_0_L1I_total_hit 1412166
Core_0_L1I_total_miss 0
Core_0_L1I_total_MPKI 0
Core_0_L1I_total_miss_rate 0
Core_0_L1I_demand_access 1412166
Core_0_L1I_demand_hit 1412166
Core_0_L1I_demand_miss 0
Core_0_L1I_demand_MPKI 0
Core_0_L1I_demand_miss_rate 0
Core_0_L1I_load_access 1412166
Core_0_L1I_load_hit 1412166
Core_0_L1I_load_miss 0
Core_0_L1I_load_MPKI 0
Core_0_L1I_load_miss_rate 0
Core_0_L1I_rfo_access 0
Core_0_L1I_rfo_hit 0
Core_0_L1I_rfo_miss 0
Core_0_L1I_rfo_MPKI 0
Core_0_L1I_rfo_miss_rate 0
Core_0_L1I_prefetch_access 0
Core_0_L1I_prefetch_hit 0
Core_0_L1I_prefetch_miss 0
Core_0_L1I_prefetch_MPKI 0
Core_0_L1I_prefetch_miss_rate 0
Core_0_L1I_writeback_access 0
Core_0_L1I_writeback_hit 0
Core_0_L1I_writeback_miss 0
Core_0_L1I_writeback_MPKI 0
Core_0_L1I_writeback_miss_rate 0
Core_0_L1I_prefetch_requested 0
Core_0_L1I_prefetch_issued 0
Core_0_L1I_prefetch_useful 0
Core_0_L1I_prefetch_useless 0
Core_0_L1I_prefetch_late 0
Core_0_L1I_prefetch_accuracy 0
Core_0_L1I_prefetch_coverage 0

Core_0_L1D_total_access 23829111
Core_0_L1D_total_hit 19605319
Core_0_L1D_total_miss 4223792
Core_0_L1D_total_MPKI 84.4758
Core_0_L1D_total_miss_rate 0.177253
Core_0_L1D_demand_access 10277580
Core_0_L1D_demand_hit 9667958
Core_0_L1D_demand_miss 609622
Core_0_L1D_demand_MPKI 12.1924
Core_0_L1D_demand_miss_rate 0.0593157
Core_0_L1D_load_access 10277580
Core_0_L1D_load_hit 9667958
Core_0_L1D_load_miss 609622
Core_0_L1D_load_MPKI 12.1924
Core_0_L1D_load_miss_rate 0.0593157
Core_0_L1D_rfo_access 0
Core_0_L1D_rfo_hit 0
Core_0_L1D_rfo_miss 0
Core_0_L1D_rfo_MPKI 0
Core_0_L1D_rfo_miss_rate 0
Core_0_L1D_prefetch_access 8841112
Core_0_L1D_prefetch_hit 5237606
Core_0_L1D_prefetch_miss 3603506
Core_0_L1D_prefetch_MPKI 72.0701
Core_0_L1D_prefetch_miss_rate 0.407585
Core_0_L1D_writeback_access 4710419
Core_0_L1D_writeback_hit 4699755
Core_0_L1D_writeback_miss 10664
Core_0_L1D_writeback_MPKI 0.21328
Core_0_L1D_writeback_miss_rate 0.00226392
Core_0_L1D_prefetch_requested 15285873
Core_0_L1D_prefetch_issued 8841110
Core_0_L1D_prefetch_useful 450969
Core_0_L1D_prefetch_useless 2350215
Core_0_L1D_prefetch_late 4780
Core_0_L1D_prefetch_accuracy 0.0510082
Core_0_L1D_prefetch_coverage 0.425205

Core_0_L2C_total_access 11230324
Core_0_L2C_total_hit 3517022
Core_0_L2C_total_miss 7713302
Core_0_L2C_total_MPKI 154.266
Core_0_L2C_total_miss_rate 0.686828
Core_0_L2C_demand_access 492837
Core_0_L2C_demand_hit 67828
Core_0_L2C_demand_miss 425009
Core_0_L2C_demand_MPKI 8.50018
Core_0_L2C_demand_miss_rate 0.862372
Core_0_L2C_load_access 487913
Core_0_L2C_load_hit 62904
Core_0_L2C_load_miss 425009
Core_0_L2C_load_MPKI 8.50018
Core_0_L2C_load_miss_rate 0.871075
Core_0_L2C_rfo_access 4924
Core_0_L2C_rfo_hit 4924
Core_0_L2C_rfo_miss 0
Core_0_L2C_rfo_MPKI 0
Core_0_L2C_rfo_miss_rate 0
Core_0_L2C_prefetch_access 10183109
Core_0_L2C_prefetch_hit 2894907
Core_0_L2C_prefetch_miss 7288202
Core_0_L2C_prefetch_MPKI 145.764
Core_0_L2C_prefetch_miss_rate 0.715715
Core_0_L2C_writeback_access 554378
Core_0_L2C_writeback_hit 554287
Core_0_L2C_writeback_miss 91
Core_0_L2C_writeback_MPKI 0.00182
Core_0_L2C_writeback_miss_rate 0.000164148
Core_0_L2C_prefetch_requested 7903275
Core_0_L2C_prefetch_issued 7381502
Core_0_L2C_prefetch_useful 618928
Core_0_L2C_prefetch_useless 1417681
Core_0_L2C_prefetch_late 2589
Core_0_L2C_prefetch_accuracy 0.0838485
Core_0_L2C_prefetch_coverage 0.592879

Core_0_LLC_total_access 4699360
Core_0_LLC_total_hit 848455
Core_0_LLC_total_miss 3850905
Core_0_LLC_total_MPKI 77.0181
Core_0_LLC_total_miss_rate 0.819453
Core_0_LLC_demand_access 422420
Core_0_LLC_demand_hit 80217
Core_0_LLC_demand_miss 342203
Core_0_LLC_demand_MPKI 6.84406
Core_0_LLC_demand_miss_rate 0.810101
Core_0_LLC_load_access 422420
Core_0_LLC_load_hit 80217
Core_0_LLC_load_miss 342203
Core_0_LLC_load_MPKI 6.84406
Core_0_LLC_load_miss_rate 0.810101
Core_0_LLC_rfo_access 0
Core_0_LLC_rfo_hit 0
Core_0_LLC_rfo_miss 0
Core_0_LLC_rfo_MPKI 0
Core_0_LLC_rfo_miss_rate 0
Core_0_LLC_prefetch_access 3743499
Core_0_LLC_prefetch_hit 586456
Core_0_LLC_prefetch_miss 3157043
Core_0_LLC_prefetch_MPKI 63.1409
Core_0_LLC_prefetch_miss_rate 0.84334
Core_0_LLC_writeback_access 533441
Core_0_LLC_writeback_hit 181782
Core_0_LLC_writeback_miss 351659
Core_0_LLC_writeback_MPKI 7.03318
Core_0_LLC_writeback_miss_rate 0.659228
Core_0_LLC_prefetch_requested 0
Core_0_LLC_prefetch_issued 0
Core_0_LLC_prefetch_useful 0
Core_0_LLC_prefetch_useless 0
Core_0_LLC_prefetch_late 0
Core_0_LLC_prefetch_accuracy 0
Core_0_LLC_prefetch_coverage 0

[DRAM Statistics]
Channel_0_RQ_row_buffer_hit 25292
Channel_0_RQ_row_buffer_miss 3474927
Channel_0_WQ_row_buffer_hit 60752
Channel_0_WQ_row_buffer_miss 384741
Channel_0_WQ_full 0
Channel_0_dbus_congested 9624336
DRAM_total_RQ_row_buffer_hit 25292
DRAM_total_RQ_row_buffer_miss 3474927
DRAM_total_WQ_row_buffer_hit 60752
DRAM_total_WQ_row_buffer_miss 384741
DRAM_total_WQ_full 0
DRAM_total_dbus_congested 9624336
DRAM_avg_congested_cycle 4.15691

====== DRAM_RQ_TRAFFIC ========
DRAM_RQ_READ_TRAFFIC_BREAKDOWN:
data_demand_read.count = 342203
data_demand_read.share = 9.77%

inst_demand_read.count = 0
inst_demand_read.share = 0.00%

cache_inst_prefetch.count = 0
cache_inst_prefetch.share = 0.00%

cache_data_prefetch.count = 3157043
cache_data_prefetch.share = 90.17%

stlb_data_demand.count = 1902
stlb_data_demand.share = 0.05%

stlb_inst_demand.count = 0
stlb_inst_demand.share = 0.00%

stlb_l1i_pref.count = 0
stlb_l1i_pref.share = 0.00%

stlb_l1d_pref.count = 0
stlb_l1d_pref.share = 0.00%

DRAM_RQ_READ_TRAFFIC_SUMMARY:
cache_demand.count = 342203
cache_demand.share = 9.77%

cache_prefetch.count = 3157043
cache_prefetch.share = 90.17%

stlb_demand.count = 1902
stlb_demand.share = 0.05%

stlb_prefetch.count = 0
stlb_prefetch.share = 0.00%

DRAM_RQ_READ_TRAFFIC_DEBUG:
total_classified_read.count = 3501148
unclassified_read.count = 0
total_read_with_other.count = 3501148

classified_plus_unclassified_check.count = 3501148
dram_rq_read_total_observed.count = 3501148
dram_rq_read_total_observed.per_1K_instructions = 70.023

STLB_MISS_PTW_DRAM_TOUCH_BREAKDOWN:
stlb_miss_total.count = 183584

stlb_miss_touch_dram.count = 1889
stlb_miss_touch_dram.share = 1.03%

stlb_miss_no_dram_touch.count = 181695
stlb_miss_no_dram_touch.share = 98.97%

STLB_MISS_PTW_DRAM_TOUCH_DEBUG:
stlb_miss_touch_plus_no_touch.count = 183584
stlb_miss_total_check.count = 183584

======STLB miss causes ========
Core_0_STLB_miss_cause_breakdown
Core_0_STLB_cause_Demand_Data_miss 183584
Core_0_STLB_cause_Demand_Data_miss_rate 0.482607
Core_0_STLB_cause_Demand_Instruction_miss 0
Core_0_STLB_cause_Demand_Instruction_miss_rate 0
Core_0_STLB_cause_L1D_Prefetch_miss 0
Core_0_STLB_cause_L1D_Prefetch_miss_rate 0
Core_0_STLB_cause_L1I_Prefetch_miss 0
Core_0_STLB_cause_L1I_Prefetch_miss_rate 0
Core_0_STLB_cause_Other_miss 0
Core_0_STLB_cause_Other_miss_rate 0
Core_0_STLB_Demand_miss 183584
Core_0_STLB_Demand_miss_rate 0.482607
Core_0_STLB_L1D_Prefetch_miss 0
Core_0_STLB_L1D_Prefetch_miss_rate 0
Core_0_STLB_Other_miss 0
Core_0_STLB_Other_miss_rate 0
