[VMEM] WARNING: physical memory size is smaller than virtual memory size.

*** ChampSim Multicore Out-of-Order Simulator ***
Warmup Instructions: 20000000
Simulation Instructions: 50000000
Number of CPUs: 1
Page size: 4096
STLB ideal mode: off
Core 0: /data0/tzh/champsim_traces/SPEC06/410.bwaves-1963B.champsimtrace.xz
Off-chip DRAM Size: 4 GiB Channels: 1 Width: 64-bit Data Rate: 3205 MT/s
Warmup halting CPU 0 at instruction 20000002 cycle 5147805 for remainder of phase
Warmup finished CPU 0 instructions: 20000002 cycles: 5147805 cumulative IPC: 3.885 (Simulation time: 00 hr 01 min 16 sec)
Warmup complete CPU 0 instructions: 20000002 cycles: 5147805 cumulative IPC: 3.885 (Simulation time: 00 hr 01 min 16 sec)
Simulation finished CPU 0 instructions: 50000001 cycles: 44868465 cumulative IPC: 1.114 (Simulation time: 00 hr 07 min 08 sec)
Simulation complete CPU 0 instructions: 50000001 cycles: 44868465 cumulative IPC: 1.114 (Simulation time: 00 hr 07 min 08 sec)

ChampSim completed all CPUs

=== Simulation ===
CPU 0 runs /data0/tzh/champsim_traces/SPEC06/410.bwaves-1963B.champsimtrace.xz

Region of Interest Statistics

CPU 0 cumulative IPC: 1.114 instructions: 50000001 cycles: 44868465
CPU 0 Branch Prediction Accuracy: 83.76% MPKI: 4.529 Average ROB Occupancy at Mispredict: 222.1
Branch type MPKI
BRANCH_DIRECT_JUMP: 0
BRANCH_INDIRECT: 0
BRANCH_CONDITIONAL: 4.529
BRANCH_DIRECT_CALL: 0
BRANCH_INDIRECT_CALL: 0
BRANCH_RETURN: 0

cpu0->cpu0_STLB TOTAL        ACCESS:      37772 HIT:      23807 MISS:      13965 MSHR_MERGE:          0
cpu0->cpu0_STLB LOAD         ACCESS:      37772 HIT:      23807 MISS:      13965 MSHR_MERGE:          0
cpu0->cpu0_STLB RFO          ACCESS:          0 HIT:          0 MISS:          0 MSHR_MERGE:          0
cpu0->cpu0_STLB PREFETCH     ACCESS:          0 HIT:          0 MISS:          0 MSHR_MERGE:          0
cpu0->cpu0_STLB WRITE        ACCESS:          0 HIT:          0 MISS:          0 MSHR_MERGE:          0
cpu0->cpu0_STLB TRANSLATION  ACCESS:          0 HIT:          0 MISS:          0 MSHR_MERGE:          0
cpu0->cpu0_STLB PREFETCH REQUESTED:          0 ISSUED:          0 USEFUL:          0 USELESS:          0 LATE:          0
cpu0->cpu0_STLB AVERAGE MISS LATENCY: 244.8 cycles
cpu0->cpu0_L2C TOTAL        ACCESS:     991141 HIT:      71764 MISS:     919377 MSHR_MERGE:          0
cpu0->cpu0_L2C LOAD         ACCESS:     941122 HIT:      47087 MISS:     894035 MSHR_MERGE:          0
cpu0->cpu0_L2C RFO          ACCESS:      23527 HIT:          0 MISS:      23527 MSHR_MERGE:          0
cpu0->cpu0_L2C PREFETCH     ACCESS:          0 HIT:          0 MISS:          0 MSHR_MERGE:          0
cpu0->cpu0_L2C WRITE        ACCESS:      23519 HIT:      23519 MISS:          0 MSHR_MERGE:          0
cpu0->cpu0_L2C TRANSLATION  ACCESS:       2973 HIT:       1158 MISS:       1815 MSHR_MERGE:          0
cpu0->cpu0_L2C PREFETCH REQUESTED:          0 ISSUED:          0 USEFUL:          0 USELESS:          0 LATE:          0
cpu0->cpu0_L2C AVERAGE MISS LATENCY: 265.1 cycles
cpu0->cpu0_L1I TOTAL        ACCESS:     734187 HIT:     734187 MISS:          0 MSHR_MERGE:          0
cpu0->cpu0_L1I LOAD         ACCESS:     734187 HIT:     734187 MISS:          0 MSHR_MERGE:          0
cpu0->cpu0_L1I RFO          ACCESS:          0 HIT:          0 MISS:          0 MSHR_MERGE:          0
cpu0->cpu0_L1I PREFETCH     ACCESS:          0 HIT:          0 MISS:          0 MSHR_MERGE:          0
cpu0->cpu0_L1I WRITE        ACCESS:          0 HIT:          0 MISS:          0 MSHR_MERGE:          0
cpu0->cpu0_L1I TRANSLATION  ACCESS:          0 HIT:          0 MISS:          0 MSHR_MERGE:          0
cpu0->cpu0_L1I PREFETCH REQUESTED:          0 ISSUED:          0 USEFUL:          0 USELESS:          0 LATE:          0
cpu0->cpu0_L1I AVERAGE MISS LATENCY: - cycles
cpu0->cpu0_L1D TOTAL        ACCESS:   19431478 HIT:   18175152 MISS:    1256326 MSHR_MERGE:     288705
cpu0->cpu0_L1D LOAD         ACCESS:   15659819 HIT:   14467669 MISS:    1192150 MSHR_MERGE:     251029
cpu0->cpu0_L1D RFO          ACCESS:          0 HIT:          0 MISS:          0 MSHR_MERGE:          0
cpu0->cpu0_L1D PREFETCH     ACCESS:          0 HIT:          0 MISS:          0 MSHR_MERGE:          0
cpu0->cpu0_L1D WRITE        ACCESS:    3743702 HIT:    3682499 MISS:      61203 MSHR_MERGE:      37676
cpu0->cpu0_L1D TRANSLATION  ACCESS:      27957 HIT:      24984 MISS:       2973 MSHR_MERGE:          0
cpu0->cpu0_L1D PREFETCH REQUESTED:          0 ISSUED:          0 USEFUL:          0 USELESS:          0 LATE:          0
cpu0->cpu0_L1D AVERAGE MISS LATENCY: 260.9 cycles
cpu0->cpu0_ITLB TOTAL        ACCESS:     543113 HIT:     543113 MISS:          0 MSHR_MERGE:          0
cpu0->cpu0_ITLB LOAD         ACCESS:     543113 HIT:     543113 MISS:          0 MSHR_MERGE:          0
cpu0->cpu0_ITLB RFO          ACCESS:          0 HIT:          0 MISS:          0 MSHR_MERGE:          0
cpu0->cpu0_ITLB PREFETCH     ACCESS:          0 HIT:          0 MISS:          0 MSHR_MERGE:          0
cpu0->cpu0_ITLB WRITE        ACCESS:          0 HIT:          0 MISS:          0 MSHR_MERGE:          0
cpu0->cpu0_ITLB TRANSLATION  ACCESS:          0 HIT:          0 MISS:          0 MSHR_MERGE:          0
cpu0->cpu0_ITLB PREFETCH REQUESTED:          0 ISSUED:          0 USEFUL:          0 USELESS:          0 LATE:          0
cpu0->cpu0_ITLB AVERAGE MISS LATENCY: - cycles
cpu0->cpu0_DTLB TOTAL        ACCESS:   18503481 HIT:   18451732 MISS:      51749 MSHR_MERGE:      13977
cpu0->cpu0_DTLB LOAD         ACCESS:   18503481 HIT:   18451732 MISS:      51749 MSHR_MERGE:      13977
cpu0->cpu0_DTLB RFO          ACCESS:          0 HIT:          0 MISS:          0 MSHR_MERGE:          0
cpu0->cpu0_DTLB PREFETCH     ACCESS:          0 HIT:          0 MISS:          0 MSHR_MERGE:          0
cpu0->cpu0_DTLB WRITE        ACCESS:          0 HIT:          0 MISS:          0 MSHR_MERGE:          0
cpu0->cpu0_DTLB TRANSLATION  ACCESS:          0 HIT:          0 MISS:          0 MSHR_MERGE:          0
cpu0->cpu0_DTLB PREFETCH REQUESTED:          0 ISSUED:          0 USEFUL:          0 USELESS:          0 LATE:          0
cpu0->cpu0_DTLB AVERAGE MISS LATENCY: 95.87 cycles
cpu0->LLC TOTAL        ACCESS:     942872 HIT:       5480 MISS:     937392 MSHR_MERGE:          0
cpu0->LLC LOAD         ACCESS:     894030 HIT:       1858 MISS:     892172 MSHR_MERGE:          0
cpu0->LLC RFO          ACCESS:      23527 HIT:          0 MISS:      23527 MSHR_MERGE:          0
cpu0->LLC PREFETCH     ACCESS:          0 HIT:          0 MISS:          0 MSHR_MERGE:          0
cpu0->LLC WRITE        ACCESS:      23500 HIT:       3619 MISS:      19881 MSHR_MERGE:          0
cpu0->LLC TRANSLATION  ACCESS:       1815 HIT:          3 MISS:       1812 MSHR_MERGE:          0
cpu0->LLC PREFETCH REQUESTED:          0 ISSUED:          0 USEFUL:          0 USELESS:          0 LATE:          0
cpu0->LLC AVERAGE MISS LATENCY: 244.5 cycles

DRAM Statistics

Channel 0 RQ ROW_BUFFER_HIT:         42
  ROW_BUFFER_MISS:     917467
  AVG DBUS CONGESTED CYCLE: 3.935
Channel 0 WQ ROW_BUFFER_HIT:       2688
  ROW_BUFFER_MISS:      15793
  FULL:          0
Channel 0 REFRESHES ISSUED:       3740

[ROI Statistics]
[System Configuration]
num_cpus 1
cpu_freq 4000
fetch_width 6
decode_width 6
dispatch_width 6
execute_width 6
lq_width 2
sq_width 2
retire_width 6
scheduler_size 160
branch_mispredict_penalty 1
rob_size 352
lq_size 240
sq_size 112
ifetch_buffer_size 64
decode_buffer_size 32
dispatch_buffer_size 32
register_file_size 288
decode_latency 1
dispatch_latency 1
schedule_latency 0
execute_latency 0
page_size 4096
block_size 64
core_0_itlb_set 16
core_0_itlb_way 4
core_0_itlb_rq_size 16
core_0_itlb_wq_size 16
core_0_itlb_pq_size 0
core_0_itlb_mshr_size 8
core_0_itlb_hit_latency 1
core_0_itlb_fill_latency 1
core_0_itlb_max_tag_check 2
core_0_itlb_max_fill 2
core_0_dtlb_set 16
core_0_dtlb_way 4
core_0_dtlb_rq_size 16
core_0_dtlb_wq_size 16
core_0_dtlb_pq_size 0
core_0_dtlb_mshr_size 8
core_0_dtlb_hit_latency 1
core_0_dtlb_fill_latency 1
core_0_dtlb_max_tag_check 2
core_0_dtlb_max_fill 2
core_0_stlb_set 128
core_0_stlb_way 12
core_0_stlb_rq_size 32
core_0_stlb_wq_size 32
core_0_stlb_pq_size 0
core_0_stlb_mshr_size 16
core_0_stlb_hit_latency 4
core_0_stlb_fill_latency 4
core_0_stlb_max_tag_check 1
core_0_stlb_max_fill 1
core_0_l1i_set 64
core_0_l1i_way 8
core_0_l1i_rq_size 64
core_0_l1i_wq_size 64
core_0_l1i_pq_size 32
core_0_l1i_mshr_size 8
core_0_l1i_hit_latency 2
core_0_l1i_fill_latency 2
core_0_l1i_max_tag_check 2
core_0_l1i_max_fill 2
core_0_l1d_set 64
core_0_l1d_way 12
core_0_l1d_rq_size 64
core_0_l1d_wq_size 64
core_0_l1d_pq_size 8
core_0_l1d_mshr_size 16
core_0_l1d_hit_latency 2
core_0_l1d_fill_latency 3
core_0_l1d_max_tag_check 2
core_0_l1d_max_fill 2
core_0_l2c_set 1024
core_0_l2c_way 8
core_0_l2c_rq_size 32
core_0_l2c_wq_size 32
core_0_l2c_pq_size 16
core_0_l2c_mshr_size 32
core_0_l2c_hit_latency 5
core_0_l2c_fill_latency 5
core_0_l2c_max_tag_check 1
core_0_l2c_max_fill 1
llc_set 2048
llc_way 16
llc_rq_size 32
llc_wq_size 32
llc_pq_size 32
llc_mshr_size 64
llc_hit_latency 10
llc_fill_latency 10
llc_max_tag_check 1
llc_max_fill 1
dram_channels 1
dram_ranks 1
dram_bankgroups 8
dram_banks 4
dram_rows 16384
dram_columns 1024
dram_channel_width 8
dram_rq_size 64
dram_wq_size 64
dram_size 4294967296
core_0_itlb_prefetcher no
core_0_dtlb_prefetcher no
core_0_stlb_prefetcher no
core_0_l1i_prefetcher no
core_0_l1d_prefetcher no
core_0_l2c_prefetcher no
llc_prefetcher no
llc_replacement drrip

Core_0_instructions 50000001
Core_0_cycles 44868465
Core_0_IPC 1.11437
Core_0_branch_prediction_accuracy 83.7552
Core_0_branch_MPKI 4.52892
Core_0_average_ROB_occupancy_at_mispredict 222.072

Core_0_ITLB_total_access 543113
Core_0_ITLB_total_hit 543113
Core_0_ITLB_total_miss 0
Core_0_ITLB_total_MPKI 0
Core_0_ITLB_total_miss_rate 0
Core_0_ITLB_demand_access 543113
Core_0_ITLB_demand_hit 543113
Core_0_ITLB_demand_miss 0
Core_0_ITLB_demand_MPKI 0
Core_0_ITLB_demand_miss_rate 0
Core_0_ITLB_load_access 543113
Core_0_ITLB_load_hit 543113
Core_0_ITLB_load_miss 0
Core_0_ITLB_load_MPKI 0
Core_0_ITLB_load_miss_rate 0
Core_0_ITLB_rfo_access 0
Core_0_ITLB_rfo_hit 0
Core_0_ITLB_rfo_miss 0
Core_0_ITLB_rfo_MPKI 0
Core_0_ITLB_rfo_miss_rate 0
Core_0_ITLB_prefetch_access 0
Core_0_ITLB_prefetch_hit 0
Core_0_ITLB_prefetch_miss 0
Core_0_ITLB_prefetch_MPKI 0
Core_0_ITLB_prefetch_miss_rate 0
Core_0_ITLB_writeback_access 0
Core_0_ITLB_writeback_hit 0
Core_0_ITLB_writeback_miss 0
Core_0_ITLB_writeback_MPKI 0
Core_0_ITLB_writeback_miss_rate 0
Core_0_ITLB_prefetch_requested 0
Core_0_ITLB_prefetch_issued 0
Core_0_ITLB_prefetch_useful 0
Core_0_ITLB_prefetch_useless 0
Core_0_ITLB_prefetch_late 0
Core_0_ITLB_prefetch_accuracy 0
Core_0_ITLB_prefetch_coverage 0

Core_0_DTLB_total_access 18503481
Core_0_DTLB_total_hit 18451732
Core_0_DTLB_total_miss 51749
Core_0_DTLB_total_MPKI 1.03498
Core_0_DTLB_total_miss_rate 0.00279672
Core_0_DTLB_demand_access 18503481
Core_0_DTLB_demand_hit 18451732
Core_0_DTLB_demand_miss 51749
Core_0_DTLB_demand_MPKI 1.03498
Core_0_DTLB_demand_miss_rate 0.00279672
Core_0_DTLB_load_access 18503481
Core_0_DTLB_load_hit 18451732
Core_0_DTLB_load_miss 51749
Core_0_DTLB_load_MPKI 1.03498
Core_0_DTLB_load_miss_rate 0.00279672
Core_0_DTLB_rfo_access 0
Core_0_DTLB_rfo_hit 0
Core_0_DTLB_rfo_miss 0
Core_0_DTLB_rfo_MPKI 0
Core_0_DTLB_rfo_miss_rate 0
Core_0_DTLB_prefetch_access 0
Core_0_DTLB_prefetch_hit 0
Core_0_DTLB_prefetch_miss 0
Core_0_DTLB_prefetch_MPKI 0
Core_0_DTLB_prefetch_miss_rate 0
Core_0_DTLB_writeback_access 0
Core_0_DTLB_writeback_hit 0
Core_0_DTLB_writeback_miss 0
Core_0_DTLB_writeback_MPKI 0
Core_0_DTLB_writeback_miss_rate 0
Core_0_DTLB_prefetch_requested 0
Core_0_DTLB_prefetch_issued 0
Core_0_DTLB_prefetch_useful 0
Core_0_DTLB_prefetch_useless 0
Core_0_DTLB_prefetch_late 0
Core_0_DTLB_prefetch_accuracy 0
Core_0_DTLB_prefetch_coverage 0

Core_0_STLB_total_access 37772
Core_0_STLB_total_hit 23807
Core_0_STLB_total_miss 13965
Core_0_STLB_total_MPKI 0.2793
Core_0_STLB_total_miss_rate 0.369718
Core_0_STLB_demand_access 37772
Core_0_STLB_demand_hit 23807
Core_0_STLB_demand_miss 13965
Core_0_STLB_demand_MPKI 0.2793
Core_0_STLB_demand_miss_rate 0.369718
Core_0_STLB_load_access 37772
Core_0_STLB_load_hit 23807
Core_0_STLB_load_miss 13965
Core_0_STLB_load_MPKI 0.2793
Core_0_STLB_load_miss_rate 0.369718
Core_0_STLB_rfo_access 0
Core_0_STLB_rfo_hit 0
Core_0_STLB_rfo_miss 0
Core_0_STLB_rfo_MPKI 0
Core_0_STLB_rfo_miss_rate 0
Core_0_STLB_prefetch_access 0
Core_0_STLB_prefetch_hit 0
Core_0_STLB_prefetch_miss 0
Core_0_STLB_prefetch_MPKI 0
Core_0_STLB_prefetch_miss_rate 0
Core_0_STLB_writeback_access 0
Core_0_STLB_writeback_hit 0
Core_0_STLB_writeback_miss 0
Core_0_STLB_writeback_MPKI 0
Core_0_STLB_writeback_miss_rate 0
Core_0_STLB_prefetch_requested 0
Core_0_STLB_prefetch_issued 0
Core_0_STLB_prefetch_useful 0
Core_0_STLB_prefetch_useless 0
Core_0_STLB_prefetch_late 0
Core_0_STLB_prefetch_accuracy 0
Core_0_STLB_prefetch_coverage 0

Core_0_L1I_total_access 734187
Core_0_L1I_total_hit 734187
Core_0_L1I_total_miss 0
Core_0_L1I_total_MPKI 0
Core_0_L1I_total_miss_rate 0
Core_0_L1I_demand_access 734187
Core_0_L1I_demand_hit 734187
Core_0_L1I_demand_miss 0
Core_0_L1I_demand_MPKI 0
Core_0_L1I_demand_miss_rate 0
Core_0_L1I_load_access 734187
Core_0_L1I_load_hit 734187
Core_0_L1I_load_miss 0
Core_0_L1I_load_MPKI 0
Core_0_L1I_load_miss_rate 0
Core_0_L1I_rfo_access 0
Core_0_L1I_rfo_hit 0
Core_0_L1I_rfo_miss 0
Core_0_L1I_rfo_MPKI 0
Core_0_L1I_rfo_miss_rate 0
Core_0_L1I_prefetch_access 0
Core_0_L1I_prefetch_hit 0
Core_0_L1I_prefetch_miss 0
Core_0_L1I_prefetch_MPKI 0
Core_0_L1I_prefetch_miss_rate 0
Core_0_L1I_writeback_access 0
Core_0_L1I_writeback_hit 0
Core_0_L1I_writeback_miss 0
Core_0_L1I_writeback_MPKI 0
Core_0_L1I_writeback_miss_rate 0
Core_0_L1I_prefetch_requested 0
Core_0_L1I_prefetch_issued 0
Core_0_L1I_prefetch_useful 0
Core_0_L1I_prefetch_useless 0
Core_0_L1I_prefetch_late 0
Core_0_L1I_prefetch_accuracy 0
Core_0_L1I_prefetch_coverage 0

Core_0_L1D_total_access 19403521
Core_0_L1D_total_hit 18150168
Core_0_L1D_total_miss 1253353
Core_0_L1D_total_MPKI 25.0671
Core_0_L1D_total_miss_rate 0.0645941
Core_0_L1D_demand_access 15659819
Core_0_L1D_demand_hit 14467669
Core_0_L1D_demand_miss 1192150
Core_0_L1D_demand_MPKI 23.843
Core_0_L1D_demand_miss_rate 0.076128
Core_0_L1D_load_access 15659819
Core_0_L1D_load_hit 14467669
Core_0_L1D_load_miss 1192150
Core_0_L1D_load_MPKI 23.843
Core_0_L1D_load_miss_rate 0.076128
Core_0_L1D_rfo_access 0
Core_0_L1D_rfo_hit 0
Core_0_L1D_rfo_miss 0
Core_0_L1D_rfo_MPKI 0
Core_0_L1D_rfo_miss_rate 0
Core_0_L1D_prefetch_access 0
Core_0_L1D_prefetch_hit 0
Core_0_L1D_prefetch_miss 0
Core_0_L1D_prefetch_MPKI 0
Core_0_L1D_prefetch_miss_rate 0
Core_0_L1D_writeback_access 3743702
Core_0_L1D_writeback_hit 3682499
Core_0_L1D_writeback_miss 61203
Core_0_L1D_writeback_MPKI 1.22406
Core_0_L1D_writeback_miss_rate 0.0163483
Core_0_L1D_prefetch_requested 0
Core_0_L1D_prefetch_issued 0
Core_0_L1D_prefetch_useful 0
Core_0_L1D_prefetch_useless 0
Core_0_L1D_prefetch_late 0
Core_0_L1D_prefetch_accuracy 0
Core_0_L1D_prefetch_coverage 0

Core_0_L2C_total_access 988168
Core_0_L2C_total_hit 70606
Core_0_L2C_total_miss 917562
Core_0_L2C_total_MPKI 18.3512
Core_0_L2C_total_miss_rate 0.928549
Core_0_L2C_demand_access 964649
Core_0_L2C_demand_hit 47087
Core_0_L2C_demand_miss 917562
Core_0_L2C_demand_MPKI 18.3512
Core_0_L2C_demand_miss_rate 0.951187
Core_0_L2C_load_access 941122
Core_0_L2C_load_hit 47087
Core_0_L2C_load_miss 894035
Core_0_L2C_load_MPKI 17.8807
Core_0_L2C_load_miss_rate 0.949967
Core_0_L2C_rfo_access 23527
Core_0_L2C_rfo_hit 0
Core_0_L2C_rfo_miss 23527
Core_0_L2C_rfo_MPKI 0.47054
Core_0_L2C_rfo_miss_rate 1
Core_0_L2C_prefetch_access 0
Core_0_L2C_prefetch_hit 0
Core_0_L2C_prefetch_miss 0
Core_0_L2C_prefetch_MPKI 0
Core_0_L2C_prefetch_miss_rate 0
Core_0_L2C_writeback_access 23519
Core_0_L2C_writeback_hit 23519
Core_0_L2C_writeback_miss 0
Core_0_L2C_writeback_MPKI 0
Core_0_L2C_writeback_miss_rate 0
Core_0_L2C_prefetch_requested 0
Core_0_L2C_prefetch_issued 0
Core_0_L2C_prefetch_useful 0
Core_0_L2C_prefetch_useless 0
Core_0_L2C_prefetch_late 0
Core_0_L2C_prefetch_accuracy 0
Core_0_L2C_prefetch_coverage 0

Core_0_LLC_total_access 941057
Core_0_LLC_total_hit 5477
Core_0_LLC_total_miss 935580
Core_0_LLC_total_MPKI 18.7116
Core_0_LLC_total_miss_rate 0.99418
Core_0_LLC_demand_access 917557
Core_0_LLC_demand_hit 1858
Core_0_LLC_demand_miss 915699
Core_0_LLC_demand_MPKI 18.314
Core_0_LLC_demand_miss_rate 0.997975
Core_0_LLC_load_access 894030
Core_0_LLC_load_hit 1858
Core_0_LLC_load_miss 892172
Core_0_LLC_load_MPKI 17.8434
Core_0_LLC_load_miss_rate 0.997922
Core_0_LLC_rfo_access 23527
Core_0_LLC_rfo_hit 0
Core_0_LLC_rfo_miss 23527
Core_0_LLC_rfo_MPKI 0.47054
Core_0_LLC_rfo_miss_rate 1
Core_0_LLC_prefetch_access 0
Core_0_LLC_prefetch_hit 0
Core_0_LLC_prefetch_miss 0
Core_0_LLC_prefetch_MPKI 0
Core_0_LLC_prefetch_miss_rate 0
Core_0_LLC_writeback_access 23500
Core_0_LLC_writeback_hit 3619
Core_0_LLC_writeback_miss 19881
Core_0_LLC_writeback_MPKI 0.39762
Core_0_LLC_writeback_miss_rate 0.846
Core_0_LLC_prefetch_requested 0
Core_0_LLC_prefetch_issued 0
Core_0_LLC_prefetch_useful 0
Core_0_LLC_prefetch_useless 0
Core_0_LLC_prefetch_late 0
Core_0_LLC_prefetch_accuracy 0
Core_0_LLC_prefetch_coverage 0

[DRAM Statistics]
Channel_0_RQ_row_buffer_hit 42
Channel_0_RQ_row_buffer_miss 917467
Channel_0_WQ_row_buffer_hit 2688
Channel_0_WQ_row_buffer_miss 15793
Channel_0_WQ_full 0
Channel_0_dbus_congested 1865530
DRAM_total_RQ_row_buffer_hit 42
DRAM_total_RQ_row_buffer_miss 917467
DRAM_total_WQ_row_buffer_hit 2688
DRAM_total_WQ_row_buffer_miss 15793
DRAM_total_WQ_full 0
DRAM_total_dbus_congested 1865530
DRAM_avg_congested_cycle 3.93513

======STLB miss causes ========
Core_0_STLB_miss_cause_breakdown
Core_0_STLB_cause_Demand_Data_miss 13965
Core_0_STLB_cause_Demand_Data_miss_rate 0.369718
Core_0_STLB_cause_Demand_Instruction_miss 0
Core_0_STLB_cause_Demand_Instruction_miss_rate 0
Core_0_STLB_cause_L1D_Prefetch_miss 0
Core_0_STLB_cause_L1D_Prefetch_miss_rate 0
Core_0_STLB_cause_L1I_Prefetch_miss 0
Core_0_STLB_cause_L1I_Prefetch_miss_rate 0
Core_0_STLB_cause_Other_miss 0
Core_0_STLB_cause_Other_miss_rate 0
Core_0_STLB_Demand_miss 13965
Core_0_STLB_Demand_miss_rate 0.369718
Core_0_STLB_L1D_Prefetch_miss 0
Core_0_STLB_L1D_Prefetch_miss_rate 0
Core_0_STLB_Other_miss 0
Core_0_STLB_Other_miss_rate 0
