[VMEM] WARNING: physical memory size is smaller than virtual memory size.

*** ChampSim Multicore Out-of-Order Simulator ***
Warmup Instructions: 20000000
Simulation Instructions: 50000000
Number of CPUs: 1
Page size: 4096
Core 0: /data0/tzh/champsim_traces/SPEC06/437.leslie3d-265B.champsimtrace.xz
Off-chip DRAM Size: 4 GiB Channels: 1 Width: 64-bit Data Rate: 3205 MT/s
Warmup halting CPU 0 at instruction 20000001 cycle 4408269 for remainder of phase
Warmup finished CPU 0 instructions: 20000001 cycles: 4408269 cumulative IPC: 4.537 (Simulation time: 00 hr 00 min 53 sec)
Warmup complete CPU 0 instructions: 20000001 cycles: 4408269 cumulative IPC: 4.537 (Simulation time: 00 hr 00 min 53 sec)
Simulation finished CPU 0 instructions: 50000004 cycles: 32621949 cumulative IPC: 1.533 (Simulation time: 00 hr 05 min 53 sec)
Simulation complete CPU 0 instructions: 50000004 cycles: 32621949 cumulative IPC: 1.533 (Simulation time: 00 hr 05 min 53 sec)

ChampSim completed all CPUs

=== Simulation ===
CPU 0 runs /data0/tzh/champsim_traces/SPEC06/437.leslie3d-265B.champsimtrace.xz

Region of Interest Statistics

CPU 0 cumulative IPC: 1.533 instructions: 50000004 cycles: 32621949
CPU 0 Branch Prediction Accuracy: 99.09% MPKI: 0.2409 Average ROB Occupancy at Mispredict: 322.6
Branch type MPKI
BRANCH_DIRECT_JUMP: 0
BRANCH_INDIRECT: 0
BRANCH_CONDITIONAL: 0.2409
BRANCH_DIRECT_CALL: 0
BRANCH_INDIRECT_CALL: 0
BRANCH_RETURN: 0

cpu0->cpu0_STLB TOTAL        ACCESS:      11736 HIT:       8947 MISS:       2789 MSHR_MERGE:          0
cpu0->cpu0_STLB LOAD         ACCESS:      11736 HIT:       8947 MISS:       2789 MSHR_MERGE:          0
cpu0->cpu0_STLB RFO          ACCESS:          0 HIT:          0 MISS:          0 MSHR_MERGE:          0
cpu0->cpu0_STLB PREFETCH     ACCESS:          0 HIT:          0 MISS:          0 MSHR_MERGE:          0
cpu0->cpu0_STLB WRITE        ACCESS:          0 HIT:          0 MISS:          0 MSHR_MERGE:          0
cpu0->cpu0_STLB TRANSLATION  ACCESS:          0 HIT:          0 MISS:          0 MSHR_MERGE:          0
cpu0->cpu0_STLB PREFETCH REQUESTED:          0 ISSUED:          0 USEFUL:          0 USELESS:          0 LATE:          0
cpu0->cpu0_STLB AVERAGE MISS LATENCY: 246.3 cycles
cpu0->cpu0_L2C TOTAL        ACCESS:     587765 HIT:     306397 MISS:     281368 MSHR_MERGE:          0
cpu0->cpu0_L2C LOAD         ACCESS:     362495 HIT:     126735 MISS:     235760 MSHR_MERGE:          0
cpu0->cpu0_L2C RFO          ACCESS:      87650 HIT:      42430 MISS:      45220 MSHR_MERGE:          0
cpu0->cpu0_L2C PREFETCH     ACCESS:          0 HIT:          0 MISS:          0 MSHR_MERGE:          0
cpu0->cpu0_L2C WRITE        ACCESS:     134883 HIT:     134855 MISS:         28 MSHR_MERGE:          0
cpu0->cpu0_L2C TRANSLATION  ACCESS:       2737 HIT:       2377 MISS:        360 MSHR_MERGE:          0
cpu0->cpu0_L2C PREFETCH REQUESTED:          0 ISSUED:          0 USEFUL:          0 USELESS:          0 LATE:          0
cpu0->cpu0_L2C AVERAGE MISS LATENCY: 190.7 cycles
cpu0->cpu0_L1I TOTAL        ACCESS:    7641623 HIT:    7641623 MISS:          0 MSHR_MERGE:          0
cpu0->cpu0_L1I LOAD         ACCESS:    7641623 HIT:    7641623 MISS:          0 MSHR_MERGE:          0
cpu0->cpu0_L1I RFO          ACCESS:          0 HIT:          0 MISS:          0 MSHR_MERGE:          0
cpu0->cpu0_L1I PREFETCH     ACCESS:          0 HIT:          0 MISS:          0 MSHR_MERGE:          0
cpu0->cpu0_L1I WRITE        ACCESS:          0 HIT:          0 MISS:          0 MSHR_MERGE:          0
cpu0->cpu0_L1I TRANSLATION  ACCESS:          0 HIT:          0 MISS:          0 MSHR_MERGE:          0
cpu0->cpu0_L1I PREFETCH REQUESTED:          0 ISSUED:          0 USEFUL:          0 USELESS:          0 LATE:          0
cpu0->cpu0_L1I AVERAGE MISS LATENCY: - cycles
cpu0->cpu0_L1D TOTAL        ACCESS:   14482464 HIT:   13305597 MISS:    1176867 MSHR_MERGE:     723982
cpu0->cpu0_L1D LOAD         ACCESS:   12396181 HIT:   11659945 MISS:     736236 MSHR_MERGE:     373738
cpu0->cpu0_L1D RFO          ACCESS:          0 HIT:          0 MISS:          0 MSHR_MERGE:          0
cpu0->cpu0_L1D PREFETCH     ACCESS:          0 HIT:          0 MISS:          0 MSHR_MERGE:          0
cpu0->cpu0_L1D WRITE        ACCESS:    2080702 HIT:    1642808 MISS:     437894 MSHR_MERGE:     350244
cpu0->cpu0_L1D TRANSLATION  ACCESS:       5581 HIT:       2844 MISS:       2737 MSHR_MERGE:          0
cpu0->cpu0_L1D PREFETCH REQUESTED:          0 ISSUED:          0 USEFUL:          0 USELESS:          0 LATE:          0
cpu0->cpu0_L1D AVERAGE MISS LATENCY: 127.1 cycles
cpu0->cpu0_ITLB TOTAL        ACCESS:    6546153 HIT:    6546153 MISS:          0 MSHR_MERGE:          0
cpu0->cpu0_ITLB LOAD         ACCESS:    6546153 HIT:    6546153 MISS:          0 MSHR_MERGE:          0
cpu0->cpu0_ITLB RFO          ACCESS:          0 HIT:          0 MISS:          0 MSHR_MERGE:          0
cpu0->cpu0_ITLB PREFETCH     ACCESS:          0 HIT:          0 MISS:          0 MSHR_MERGE:          0
cpu0->cpu0_ITLB WRITE        ACCESS:          0 HIT:          0 MISS:          0 MSHR_MERGE:          0
cpu0->cpu0_ITLB TRANSLATION  ACCESS:          0 HIT:          0 MISS:          0 MSHR_MERGE:          0
cpu0->cpu0_ITLB PREFETCH REQUESTED:          0 ISSUED:          0 USEFUL:          0 USELESS:          0 LATE:          0
cpu0->cpu0_ITLB AVERAGE MISS LATENCY: - cycles
cpu0->cpu0_DTLB TOTAL        ACCESS:   13768603 HIT:   13738050 MISS:      30553 MSHR_MERGE:      18817
cpu0->cpu0_DTLB LOAD         ACCESS:   13768603 HIT:   13738050 MISS:      30553 MSHR_MERGE:      18817
cpu0->cpu0_DTLB RFO          ACCESS:          0 HIT:          0 MISS:          0 MSHR_MERGE:          0
cpu0->cpu0_DTLB PREFETCH     ACCESS:          0 HIT:          0 MISS:          0 MSHR_MERGE:          0
cpu0->cpu0_DTLB WRITE        ACCESS:          0 HIT:          0 MISS:          0 MSHR_MERGE:          0
cpu0->cpu0_DTLB TRANSLATION  ACCESS:          0 HIT:          0 MISS:          0 MSHR_MERGE:          0
cpu0->cpu0_DTLB PREFETCH REQUESTED:          0 ISSUED:          0 USEFUL:          0 USELESS:          0 LATE:          0
cpu0->cpu0_DTLB AVERAGE MISS LATENCY: 63.76 cycles
cpu0->LLC TOTAL        ACCESS:     326636 HIT:      25389 MISS:     301247 MSHR_MERGE:          0
cpu0->LLC LOAD         ACCESS:     235760 HIT:      18245 MISS:     217515 MSHR_MERGE:          0
cpu0->LLC RFO          ACCESS:      45220 HIT:          5 MISS:      45215 MSHR_MERGE:          0
cpu0->LLC PREFETCH     ACCESS:          0 HIT:          0 MISS:          0 MSHR_MERGE:          0
cpu0->LLC WRITE        ACCESS:      45296 HIT:       7139 MISS:      38157 MSHR_MERGE:          0
cpu0->LLC TRANSLATION  ACCESS:        360 HIT:          0 MISS:        360 MSHR_MERGE:          0
cpu0->LLC PREFETCH REQUESTED:          0 ISSUED:          0 USEFUL:          0 USELESS:          0 LATE:          0
cpu0->LLC AVERAGE MISS LATENCY: 164.4 cycles

DRAM Statistics

Channel 0 RQ ROW_BUFFER_HIT:         24
  ROW_BUFFER_MISS:     263066
  AVG DBUS CONGESTED CYCLE: 17.91
Channel 0 WQ ROW_BUFFER_HIT:       6526
  ROW_BUFFER_MISS:      33700
  FULL:          0
Channel 0 REFRESHES ISSUED:       2718

[ROI Statistics]
[System Configuration]
num_cpus 1
cpu_freq 4000
fetch_width 6
decode_width 6
dispatch_width 6
execute_width 6
lq_width 2
sq_width 2
retire_width 6
scheduler_size 160
branch_mispredict_penalty 1
rob_size 352
lq_size 240
sq_size 112
ifetch_buffer_size 64
decode_buffer_size 32
dispatch_buffer_size 32
register_file_size 288
decode_latency 1
dispatch_latency 1
schedule_latency 0
execute_latency 0
page_size 4096
block_size 64
core_0_itlb_set 16
core_0_itlb_way 4
core_0_itlb_rq_size 16
core_0_itlb_wq_size 16
core_0_itlb_pq_size 0
core_0_itlb_mshr_size 8
core_0_itlb_hit_latency 1
core_0_itlb_fill_latency 1
core_0_itlb_max_tag_check 2
core_0_itlb_max_fill 2
core_0_dtlb_set 16
core_0_dtlb_way 4
core_0_dtlb_rq_size 16
core_0_dtlb_wq_size 16
core_0_dtlb_pq_size 0
core_0_dtlb_mshr_size 8
core_0_dtlb_hit_latency 1
core_0_dtlb_fill_latency 1
core_0_dtlb_max_tag_check 2
core_0_dtlb_max_fill 2
core_0_stlb_set 128
core_0_stlb_way 12
core_0_stlb_rq_size 32
core_0_stlb_wq_size 32
core_0_stlb_pq_size 0
core_0_stlb_mshr_size 16
core_0_stlb_hit_latency 4
core_0_stlb_fill_latency 4
core_0_stlb_max_tag_check 1
core_0_stlb_max_fill 1
core_0_l1i_set 64
core_0_l1i_way 8
core_0_l1i_rq_size 64
core_0_l1i_wq_size 64
core_0_l1i_pq_size 32
core_0_l1i_mshr_size 8
core_0_l1i_hit_latency 2
core_0_l1i_fill_latency 2
core_0_l1i_max_tag_check 2
core_0_l1i_max_fill 2
core_0_l1d_set 64
core_0_l1d_way 12
core_0_l1d_rq_size 64
core_0_l1d_wq_size 64
core_0_l1d_pq_size 8
core_0_l1d_mshr_size 16
core_0_l1d_hit_latency 2
core_0_l1d_fill_latency 3
core_0_l1d_max_tag_check 2
core_0_l1d_max_fill 2
core_0_l2c_set 1024
core_0_l2c_way 8
core_0_l2c_rq_size 32
core_0_l2c_wq_size 32
core_0_l2c_pq_size 16
core_0_l2c_mshr_size 32
core_0_l2c_hit_latency 5
core_0_l2c_fill_latency 5
core_0_l2c_max_tag_check 1
core_0_l2c_max_fill 1
llc_set 2048
llc_way 16
llc_rq_size 32
llc_wq_size 32
llc_pq_size 32
llc_mshr_size 64
llc_hit_latency 10
llc_fill_latency 10
llc_max_tag_check 1
llc_max_fill 1
dram_channels 1
dram_ranks 1
dram_bankgroups 8
dram_banks 4
dram_rows 16384
dram_columns 1024
dram_channel_width 8
dram_rq_size 64
dram_wq_size 64
dram_size 4294967296
core_0_itlb_prefetcher no
core_0_dtlb_prefetcher no
core_0_stlb_prefetcher no
core_0_l1i_prefetcher no
core_0_l1d_prefetcher no
core_0_l2c_prefetcher no
llc_prefetcher no
llc_replacement drrip

Core_0_instructions 50000004
Core_0_cycles 32621949
Core_0_IPC 1.53271
Core_0_branch_prediction_accuracy 99.0945
Core_0_branch_MPKI 0.24094
Core_0_average_ROB_occupancy_at_mispredict 322.56

Core_0_ITLB_total_access 6546153
Core_0_ITLB_total_hit 6546153
Core_0_ITLB_total_miss 0
Core_0_ITLB_total_MPKI 0
Core_0_ITLB_total_miss_rate 0
Core_0_ITLB_demand_access 6546153
Core_0_ITLB_demand_hit 6546153
Core_0_ITLB_demand_miss 0
Core_0_ITLB_demand_MPKI 0
Core_0_ITLB_demand_miss_rate 0
Core_0_ITLB_load_access 6546153
Core_0_ITLB_load_hit 6546153
Core_0_ITLB_load_miss 0
Core_0_ITLB_load_MPKI 0
Core_0_ITLB_load_miss_rate 0
Core_0_ITLB_rfo_access 0
Core_0_ITLB_rfo_hit 0
Core_0_ITLB_rfo_miss 0
Core_0_ITLB_rfo_MPKI 0
Core_0_ITLB_rfo_miss_rate 0
Core_0_ITLB_prefetch_access 0
Core_0_ITLB_prefetch_hit 0
Core_0_ITLB_prefetch_miss 0
Core_0_ITLB_prefetch_MPKI 0
Core_0_ITLB_prefetch_miss_rate 0
Core_0_ITLB_writeback_access 0
Core_0_ITLB_writeback_hit 0
Core_0_ITLB_writeback_miss 0
Core_0_ITLB_writeback_MPKI 0
Core_0_ITLB_writeback_miss_rate 0
Core_0_ITLB_prefetch_requested 0
Core_0_ITLB_prefetch_issued 0
Core_0_ITLB_prefetch_useful 0
Core_0_ITLB_prefetch_useless 0
Core_0_ITLB_prefetch_late 0
Core_0_ITLB_prefetch_accuracy 0
Core_0_ITLB_prefetch_coverage 0

Core_0_DTLB_total_access 13768603
Core_0_DTLB_total_hit 13738050
Core_0_DTLB_total_miss 30553
Core_0_DTLB_total_MPKI 0.61106
Core_0_DTLB_total_miss_rate 0.00221903
Core_0_DTLB_demand_access 13768603
Core_0_DTLB_demand_hit 13738050
Core_0_DTLB_demand_miss 30553
Core_0_DTLB_demand_MPKI 0.61106
Core_0_DTLB_demand_miss_rate 0.00221903
Core_0_DTLB_load_access 13768603
Core_0_DTLB_load_hit 13738050
Core_0_DTLB_load_miss 30553
Core_0_DTLB_load_MPKI 0.61106
Core_0_DTLB_load_miss_rate 0.00221903
Core_0_DTLB_rfo_access 0
Core_0_DTLB_rfo_hit 0
Core_0_DTLB_rfo_miss 0
Core_0_DTLB_rfo_MPKI 0
Core_0_DTLB_rfo_miss_rate 0
Core_0_DTLB_prefetch_access 0
Core_0_DTLB_prefetch_hit 0
Core_0_DTLB_prefetch_miss 0
Core_0_DTLB_prefetch_MPKI 0
Core_0_DTLB_prefetch_miss_rate 0
Core_0_DTLB_writeback_access 0
Core_0_DTLB_writeback_hit 0
Core_0_DTLB_writeback_miss 0
Core_0_DTLB_writeback_MPKI 0
Core_0_DTLB_writeback_miss_rate 0
Core_0_DTLB_prefetch_requested 0
Core_0_DTLB_prefetch_issued 0
Core_0_DTLB_prefetch_useful 0
Core_0_DTLB_prefetch_useless 0
Core_0_DTLB_prefetch_late 0
Core_0_DTLB_prefetch_accuracy 0
Core_0_DTLB_prefetch_coverage 0

Core_0_STLB_total_access 11736
Core_0_STLB_total_hit 8947
Core_0_STLB_total_miss 2789
Core_0_STLB_total_MPKI 0.05578
Core_0_STLB_total_miss_rate 0.237645
Core_0_STLB_demand_access 11736
Core_0_STLB_demand_hit 8947
Core_0_STLB_demand_miss 2789
Core_0_STLB_demand_MPKI 0.05578
Core_0_STLB_demand_miss_rate 0.237645
Core_0_STLB_load_access 11736
Core_0_STLB_load_hit 8947
Core_0_STLB_load_miss 2789
Core_0_STLB_load_MPKI 0.05578
Core_0_STLB_load_miss_rate 0.237645
Core_0_STLB_rfo_access 0
Core_0_STLB_rfo_hit 0
Core_0_STLB_rfo_miss 0
Core_0_STLB_rfo_MPKI 0
Core_0_STLB_rfo_miss_rate 0
Core_0_STLB_prefetch_access 0
Core_0_STLB_prefetch_hit 0
Core_0_STLB_prefetch_miss 0
Core_0_STLB_prefetch_MPKI 0
Core_0_STLB_prefetch_miss_rate 0
Core_0_STLB_writeback_access 0
Core_0_STLB_writeback_hit 0
Core_0_STLB_writeback_miss 0
Core_0_STLB_writeback_MPKI 0
Core_0_STLB_writeback_miss_rate 0
Core_0_STLB_prefetch_requested 0
Core_0_STLB_prefetch_issued 0
Core_0_STLB_prefetch_useful 0
Core_0_STLB_prefetch_useless 0
Core_0_STLB_prefetch_late 0
Core_0_STLB_prefetch_accuracy 0
Core_0_STLB_prefetch_coverage 0

Core_0_L1I_total_access 7641623
Core_0_L1I_total_hit 7641623
Core_0_L1I_total_miss 0
Core_0_L1I_total_MPKI 0
Core_0_L1I_total_miss_rate 0
Core_0_L1I_demand_access 7641623
Core_0_L1I_demand_hit 7641623
Core_0_L1I_demand_miss 0
Core_0_L1I_demand_MPKI 0
Core_0_L1I_demand_miss_rate 0
Core_0_L1I_load_access 7641623
Core_0_L1I_load_hit 7641623
Core_0_L1I_load_miss 0
Core_0_L1I_load_MPKI 0
Core_0_L1I_load_miss_rate 0
Core_0_L1I_rfo_access 0
Core_0_L1I_rfo_hit 0
Core_0_L1I_rfo_miss 0
Core_0_L1I_rfo_MPKI 0
Core_0_L1I_rfo_miss_rate 0
Core_0_L1I_prefetch_access 0
Core_0_L1I_prefetch_hit 0
Core_0_L1I_prefetch_miss 0
Core_0_L1I_prefetch_MPKI 0
Core_0_L1I_prefetch_miss_rate 0
Core_0_L1I_writeback_access 0
Core_0_L1I_writeback_hit 0
Core_0_L1I_writeback_miss 0
Core_0_L1I_writeback_MPKI 0
Core_0_L1I_writeback_miss_rate 0
Core_0_L1I_prefetch_requested 0
Core_0_L1I_prefetch_issued 0
Core_0_L1I_prefetch_useful 0
Core_0_L1I_prefetch_useless 0
Core_0_L1I_prefetch_late 0
Core_0_L1I_prefetch_accuracy 0
Core_0_L1I_prefetch_coverage 0

Core_0_L1D_total_access 14476883
Core_0_L1D_total_hit 13302753
Core_0_L1D_total_miss 1174130
Core_0_L1D_total_MPKI 23.4826
Core_0_L1D_total_miss_rate 0.0811038
Core_0_L1D_demand_access 12396181
Core_0_L1D_demand_hit 11659945
Core_0_L1D_demand_miss 736236
Core_0_L1D_demand_MPKI 14.7247
Core_0_L1D_demand_miss_rate 0.0593922
Core_0_L1D_load_access 12396181
Core_0_L1D_load_hit 11659945
Core_0_L1D_load_miss 736236
Core_0_L1D_load_MPKI 14.7247
Core_0_L1D_load_miss_rate 0.0593922
Core_0_L1D_rfo_access 0
Core_0_L1D_rfo_hit 0
Core_0_L1D_rfo_miss 0
Core_0_L1D_rfo_MPKI 0
Core_0_L1D_rfo_miss_rate 0
Core_0_L1D_prefetch_access 0
Core_0_L1D_prefetch_hit 0
Core_0_L1D_prefetch_miss 0
Core_0_L1D_prefetch_MPKI 0
Core_0_L1D_prefetch_miss_rate 0
Core_0_L1D_writeback_access 2080702
Core_0_L1D_writeback_hit 1642808
Core_0_L1D_writeback_miss 437894
Core_0_L1D_writeback_MPKI 8.75788
Core_0_L1D_writeback_miss_rate 0.210455
Core_0_L1D_prefetch_requested 0
Core_0_L1D_prefetch_issued 0
Core_0_L1D_prefetch_useful 0
Core_0_L1D_prefetch_useless 0
Core_0_L1D_prefetch_late 0
Core_0_L1D_prefetch_accuracy 0
Core_0_L1D_prefetch_coverage 0

Core_0_L2C_total_access 585028
Core_0_L2C_total_hit 304020
Core_0_L2C_total_miss 281008
Core_0_L2C_total_MPKI 5.62016
Core_0_L2C_total_miss_rate 0.480333
Core_0_L2C_demand_access 450145
Core_0_L2C_demand_hit 169165
Core_0_L2C_demand_miss 280980
Core_0_L2C_demand_MPKI 5.6196
Core_0_L2C_demand_miss_rate 0.624199
Core_0_L2C_load_access 362495
Core_0_L2C_load_hit 126735
Core_0_L2C_load_miss 235760
Core_0_L2C_load_MPKI 4.7152
Core_0_L2C_load_miss_rate 0.650381
Core_0_L2C_rfo_access 87650
Core_0_L2C_rfo_hit 42430
Core_0_L2C_rfo_miss 45220
Core_0_L2C_rfo_MPKI 0.9044
Core_0_L2C_rfo_miss_rate 0.515916
Core_0_L2C_prefetch_access 0
Core_0_L2C_prefetch_hit 0
Core_0_L2C_prefetch_miss 0
Core_0_L2C_prefetch_MPKI 0
Core_0_L2C_prefetch_miss_rate 0
Core_0_L2C_writeback_access 134883
Core_0_L2C_writeback_hit 134855
Core_0_L2C_writeback_miss 28
Core_0_L2C_writeback_MPKI 0.00056
Core_0_L2C_writeback_miss_rate 0.000207587
Core_0_L2C_prefetch_requested 0
Core_0_L2C_prefetch_issued 0
Core_0_L2C_prefetch_useful 0
Core_0_L2C_prefetch_useless 0
Core_0_L2C_prefetch_late 0
Core_0_L2C_prefetch_accuracy 0
Core_0_L2C_prefetch_coverage 0

Core_0_LLC_total_access 326276
Core_0_LLC_total_hit 25389
Core_0_LLC_total_miss 300887
Core_0_LLC_total_MPKI 6.01774
Core_0_LLC_total_miss_rate 0.922186
Core_0_LLC_demand_access 280980
Core_0_LLC_demand_hit 18250
Core_0_LLC_demand_miss 262730
Core_0_LLC_demand_MPKI 5.2546
Core_0_LLC_demand_miss_rate 0.935049
Core_0_LLC_load_access 235760
Core_0_LLC_load_hit 18245
Core_0_LLC_load_miss 217515
Core_0_LLC_load_MPKI 4.3503
Core_0_LLC_load_miss_rate 0.922612
Core_0_LLC_rfo_access 45220
Core_0_LLC_rfo_hit 5
Core_0_LLC_rfo_miss 45215
Core_0_LLC_rfo_MPKI 0.9043
Core_0_LLC_rfo_miss_rate 0.999889
Core_0_LLC_prefetch_access 0
Core_0_LLC_prefetch_hit 0
Core_0_LLC_prefetch_miss 0
Core_0_LLC_prefetch_MPKI 0
Core_0_LLC_prefetch_miss_rate 0
Core_0_LLC_writeback_access 45296
Core_0_LLC_writeback_hit 7139
Core_0_LLC_writeback_miss 38157
Core_0_LLC_writeback_MPKI 0.76314
Core_0_LLC_writeback_miss_rate 0.842392
Core_0_LLC_prefetch_requested 0
Core_0_LLC_prefetch_issued 0
Core_0_LLC_prefetch_useful 0
Core_0_LLC_prefetch_useless 0
Core_0_LLC_prefetch_late 0
Core_0_LLC_prefetch_accuracy 0
Core_0_LLC_prefetch_coverage 0

[DRAM Statistics]
Channel_0_RQ_row_buffer_hit 24
Channel_0_RQ_row_buffer_miss 263066
Channel_0_WQ_row_buffer_hit 6526
Channel_0_WQ_row_buffer_miss 33700
Channel_0_WQ_full 0
Channel_0_dbus_congested 521531
DRAM_total_RQ_row_buffer_hit 24
DRAM_total_RQ_row_buffer_miss 263066
DRAM_total_WQ_row_buffer_hit 6526
DRAM_total_WQ_row_buffer_miss 33700
DRAM_total_WQ_full 0
DRAM_total_dbus_congested 521531
DRAM_avg_congested_cycle 17.9135

======STLB miss causes ========
Core_0_STLB_miss_cause_breakdown
Core_0_STLB_cause_Demand_Data_miss 2789
Core_0_STLB_cause_Demand_Data_miss_rate 0.237645
Core_0_STLB_cause_Demand_Instruction_miss 0
Core_0_STLB_cause_Demand_Instruction_miss_rate 0
Core_0_STLB_cause_L1D_Prefetch_miss 0
Core_0_STLB_cause_L1D_Prefetch_miss_rate 0
Core_0_STLB_cause_L1I_Prefetch_miss 0
Core_0_STLB_cause_L1I_Prefetch_miss_rate 0
Core_0_STLB_cause_Other_miss 0
Core_0_STLB_cause_Other_miss_rate 0
Core_0_STLB_Demand_miss 2789
Core_0_STLB_Demand_miss_rate 0.237645
Core_0_STLB_L1D_Prefetch_miss 0
Core_0_STLB_L1D_Prefetch_miss_rate 0
Core_0_STLB_Other_miss 0
Core_0_STLB_Other_miss_rate 0
