[VMEM] WARNING: physical memory size is smaller than virtual memory size.

*** ChampSim Multicore Out-of-Order Simulator ***
Warmup Instructions: 20000000
Simulation Instructions: 50000000
Number of CPUs: 1
Page size: 4096
Core 0: /data0/tzh/champsim_traces/GAP/gap.bfs.twitter-10B.champsimtrace.xz
Off-chip DRAM Size: 4 GiB Channels: 1 Width: 64-bit Data Rate: 3205 MT/s
Warmup halting CPU 0 at instruction 20000000 cycle 7292818 for remainder of phase
Warmup finished CPU 0 instructions: 20000000 cycles: 7292818 cumulative IPC: 2.742 (Simulation time: 00 hr 01 min 29 sec)
Warmup complete CPU 0 instructions: 20000000 cycles: 7292818 cumulative IPC: 2.742 (Simulation time: 00 hr 01 min 29 sec)
Simulation finished CPU 0 instructions: 50000002 cycles: 68488036 cumulative IPC: 0.7301 (Simulation time: 00 hr 07 min 21 sec)
Simulation complete CPU 0 instructions: 50000002 cycles: 68488036 cumulative IPC: 0.7301 (Simulation time: 00 hr 07 min 21 sec)

ChampSim completed all CPUs

=== Simulation ===
CPU 0 runs /data0/tzh/champsim_traces/GAP/gap.bfs.twitter-10B.champsimtrace.xz

Region of Interest Statistics

CPU 0 cumulative IPC: 0.7301 instructions: 50000002 cycles: 68488036
CPU 0 Branch Prediction Accuracy: 94.52% MPKI: 11.48 Average ROB Occupancy at Mispredict: 9.839
Branch type MPKI
BRANCH_DIRECT_JUMP: 0.00022
BRANCH_INDIRECT: 0
BRANCH_CONDITIONAL: 11.48
BRANCH_DIRECT_CALL: 0.00014
BRANCH_INDIRECT_CALL: 4e-05
BRANCH_RETURN: 0.00016

cpu0->cpu0_STLB TOTAL        ACCESS:      26434 HIT:      10252 MISS:      16182 MSHR_MERGE:          0
cpu0->cpu0_STLB LOAD         ACCESS:      26434 HIT:      10252 MISS:      16182 MSHR_MERGE:          0
cpu0->cpu0_STLB RFO          ACCESS:          0 HIT:          0 MISS:          0 MSHR_MERGE:          0
cpu0->cpu0_STLB PREFETCH     ACCESS:          0 HIT:          0 MISS:          0 MSHR_MERGE:          0
cpu0->cpu0_STLB WRITE        ACCESS:          0 HIT:          0 MISS:          0 MSHR_MERGE:          0
cpu0->cpu0_STLB TRANSLATION  ACCESS:          0 HIT:          0 MISS:          0 MSHR_MERGE:          0
cpu0->cpu0_STLB PREFETCH REQUESTED:          0 ISSUED:          0 USEFUL:          0 USELESS:          0 LATE:          0
cpu0->cpu0_STLB AVERAGE MISS LATENCY: 188.9 cycles
cpu0->cpu0_L2C TOTAL        ACCESS:     288928 HIT:      18847 MISS:     270081 MSHR_MERGE:          0
cpu0->cpu0_L2C LOAD         ACCESS:     269453 HIT:       3762 MISS:     265691 MSHR_MERGE:          0
cpu0->cpu0_L2C RFO          ACCESS:        115 HIT:          0 MISS:        115 MSHR_MERGE:          0
cpu0->cpu0_L2C PREFETCH     ACCESS:          0 HIT:          0 MISS:          0 MSHR_MERGE:          0
cpu0->cpu0_L2C WRITE        ACCESS:      13283 HIT:      13283 MISS:          0 MSHR_MERGE:          0
cpu0->cpu0_L2C TRANSLATION  ACCESS:       6077 HIT:       1802 MISS:       4275 MSHR_MERGE:          0
cpu0->cpu0_L2C PREFETCH REQUESTED:          0 ISSUED:          0 USEFUL:          0 USELESS:          0 LATE:          0
cpu0->cpu0_L2C AVERAGE MISS LATENCY: 180.9 cycles
cpu0->cpu0_L1I TOTAL        ACCESS:    3299416 HIT:    3299369 MISS:         47 MSHR_MERGE:          3
cpu0->cpu0_L1I LOAD         ACCESS:    3299416 HIT:    3299369 MISS:         47 MSHR_MERGE:          3
cpu0->cpu0_L1I RFO          ACCESS:          0 HIT:          0 MISS:          0 MSHR_MERGE:          0
cpu0->cpu0_L1I PREFETCH     ACCESS:          0 HIT:          0 MISS:          0 MSHR_MERGE:          0
cpu0->cpu0_L1I WRITE        ACCESS:          0 HIT:          0 MISS:          0 MSHR_MERGE:          0
cpu0->cpu0_L1I TRANSLATION  ACCESS:          0 HIT:          0 MISS:          0 MSHR_MERGE:          0
cpu0->cpu0_L1I PREFETCH REQUESTED:          0 ISSUED:          0 USEFUL:          0 USELESS:          0 LATE:          0
cpu0->cpu0_L1I AVERAGE MISS LATENCY: 187 cycles
cpu0->cpu0_L1D TOTAL        ACCESS:    9991634 HIT:    9371276 MISS:     620358 MSHR_MERGE:     344756
cpu0->cpu0_L1D LOAD         ACCESS:    9933645 HIT:    9319529 MISS:     614116 MSHR_MERGE:     344706
cpu0->cpu0_L1D RFO          ACCESS:          0 HIT:          0 MISS:          0 MSHR_MERGE:          0
cpu0->cpu0_L1D PREFETCH     ACCESS:          0 HIT:          0 MISS:          0 MSHR_MERGE:          0
cpu0->cpu0_L1D WRITE        ACCESS:      25581 HIT:      25417 MISS:        164 MSHR_MERGE:         49
cpu0->cpu0_L1D TRANSLATION  ACCESS:      32408 HIT:      26330 MISS:       6078 MSHR_MERGE:          1
cpu0->cpu0_L1D PREFETCH REQUESTED:          0 ISSUED:          0 USEFUL:          0 USELESS:          0 LATE:          0
cpu0->cpu0_L1D AVERAGE MISS LATENCY: 186.2 cycles
cpu0->cpu0_ITLB TOTAL        ACCESS:    3299394 HIT:    3299385 MISS:          9 MSHR_MERGE:          0
cpu0->cpu0_ITLB LOAD         ACCESS:    3299394 HIT:    3299385 MISS:          9 MSHR_MERGE:          0
cpu0->cpu0_ITLB RFO          ACCESS:          0 HIT:          0 MISS:          0 MSHR_MERGE:          0
cpu0->cpu0_ITLB PREFETCH     ACCESS:          0 HIT:          0 MISS:          0 MSHR_MERGE:          0
cpu0->cpu0_ITLB WRITE        ACCESS:          0 HIT:          0 MISS:          0 MSHR_MERGE:          0
cpu0->cpu0_ITLB TRANSLATION  ACCESS:          0 HIT:          0 MISS:          0 MSHR_MERGE:          0
cpu0->cpu0_ITLB PREFETCH REQUESTED:          0 ISSUED:          0 USEFUL:          0 USELESS:          0 LATE:          0
cpu0->cpu0_ITLB AVERAGE MISS LATENCY: 710.9 cycles
cpu0->cpu0_DTLB TOTAL        ACCESS:    9959208 HIT:    9927522 MISS:      31686 MSHR_MERGE:       5261
cpu0->cpu0_DTLB LOAD         ACCESS:    9959208 HIT:    9927522 MISS:      31686 MSHR_MERGE:       5261
cpu0->cpu0_DTLB RFO          ACCESS:          0 HIT:          0 MISS:          0 MSHR_MERGE:          0
cpu0->cpu0_DTLB PREFETCH     ACCESS:          0 HIT:          0 MISS:          0 MSHR_MERGE:          0
cpu0->cpu0_DTLB WRITE        ACCESS:          0 HIT:          0 MISS:          0 MSHR_MERGE:          0
cpu0->cpu0_DTLB TRANSLATION  ACCESS:          0 HIT:          0 MISS:          0 MSHR_MERGE:          0
cpu0->cpu0_DTLB PREFETCH REQUESTED:          0 ISSUED:          0 USEFUL:          0 USELESS:          0 LATE:          0
cpu0->cpu0_DTLB AVERAGE MISS LATENCY: 121.1 cycles
cpu0->LLC TOTAL        ACCESS:     283688 HIT:      17504 MISS:     266184 MSHR_MERGE:          0
cpu0->LLC LOAD         ACCESS:     265691 HIT:       3340 MISS:     262351 MSHR_MERGE:          0
cpu0->LLC RFO          ACCESS:        115 HIT:          0 MISS:        115 MSHR_MERGE:          0
cpu0->LLC PREFETCH     ACCESS:          0 HIT:          0 MISS:          0 MSHR_MERGE:          0
cpu0->LLC WRITE        ACCESS:      13607 HIT:      11974 MISS:       1633 MSHR_MERGE:          0
cpu0->LLC TRANSLATION  ACCESS:       4275 HIT:       2190 MISS:       2085 MSHR_MERGE:          0
cpu0->LLC PREFETCH REQUESTED:          0 ISSUED:          0 USEFUL:          0 USELESS:          0 LATE:          0
cpu0->LLC AVERAGE MISS LATENCY: 167.3 cycles

DRAM Statistics

Channel 0 RQ ROW_BUFFER_HIT:       1174
  ROW_BUFFER_MISS:     263377
  AVG DBUS CONGESTED CYCLE: 21.57
Channel 0 WQ ROW_BUFFER_HIT:       5037
  ROW_BUFFER_MISS:       9903
  FULL:          0
Channel 0 REFRESHES ISSUED:       5708

[ROI Statistics]
[System Configuration]
num_cpus 1
cpu_freq 4000
fetch_width 6
decode_width 6
dispatch_width 6
execute_width 6
lq_width 2
sq_width 2
retire_width 6
scheduler_size 160
branch_mispredict_penalty 1
rob_size 352
lq_size 240
sq_size 112
ifetch_buffer_size 64
decode_buffer_size 32
dispatch_buffer_size 32
register_file_size 288
decode_latency 1
dispatch_latency 1
schedule_latency 0
execute_latency 0
page_size 4096
block_size 64
core_0_itlb_set 16
core_0_itlb_way 4
core_0_itlb_rq_size 16
core_0_itlb_wq_size 16
core_0_itlb_pq_size 0
core_0_itlb_mshr_size 8
core_0_itlb_hit_latency 1
core_0_itlb_fill_latency 1
core_0_itlb_max_tag_check 2
core_0_itlb_max_fill 2
core_0_dtlb_set 16
core_0_dtlb_way 4
core_0_dtlb_rq_size 16
core_0_dtlb_wq_size 16
core_0_dtlb_pq_size 0
core_0_dtlb_mshr_size 8
core_0_dtlb_hit_latency 1
core_0_dtlb_fill_latency 1
core_0_dtlb_max_tag_check 2
core_0_dtlb_max_fill 2
core_0_stlb_set 128
core_0_stlb_way 12
core_0_stlb_rq_size 32
core_0_stlb_wq_size 32
core_0_stlb_pq_size 0
core_0_stlb_mshr_size 16
core_0_stlb_hit_latency 4
core_0_stlb_fill_latency 4
core_0_stlb_max_tag_check 1
core_0_stlb_max_fill 1
core_0_l1i_set 64
core_0_l1i_way 8
core_0_l1i_rq_size 64
core_0_l1i_wq_size 64
core_0_l1i_pq_size 32
core_0_l1i_mshr_size 8
core_0_l1i_hit_latency 2
core_0_l1i_fill_latency 2
core_0_l1i_max_tag_check 2
core_0_l1i_max_fill 2
core_0_l1d_set 64
core_0_l1d_way 12
core_0_l1d_rq_size 64
core_0_l1d_wq_size 64
core_0_l1d_pq_size 8
core_0_l1d_mshr_size 16
core_0_l1d_hit_latency 2
core_0_l1d_fill_latency 3
core_0_l1d_max_tag_check 2
core_0_l1d_max_fill 2
core_0_l2c_set 1024
core_0_l2c_way 8
core_0_l2c_rq_size 32
core_0_l2c_wq_size 32
core_0_l2c_pq_size 16
core_0_l2c_mshr_size 32
core_0_l2c_hit_latency 5
core_0_l2c_fill_latency 5
core_0_l2c_max_tag_check 1
core_0_l2c_max_fill 1
llc_set 2048
llc_way 16
llc_rq_size 32
llc_wq_size 32
llc_pq_size 32
llc_mshr_size 64
llc_hit_latency 10
llc_fill_latency 10
llc_max_tag_check 1
llc_max_fill 1
dram_channels 1
dram_ranks 1
dram_bankgroups 8
dram_banks 4
dram_rows 16384
dram_columns 1024
dram_channel_width 8
dram_rq_size 64
dram_wq_size 64
dram_size 4294967296
core_0_itlb_prefetcher no
core_0_dtlb_prefetcher no
core_0_stlb_prefetcher no
core_0_l1i_prefetcher no
core_0_l1d_prefetcher no
core_0_l2c_prefetcher no
llc_prefetcher no
llc_replacement drrip

Core_0_instructions 50000002
Core_0_cycles 68488036
Core_0_IPC 0.730055
Core_0_branch_prediction_accuracy 94.515
Core_0_branch_MPKI 11.4846
Core_0_average_ROB_occupancy_at_mispredict 9.8387

Core_0_ITLB_total_access 3299394
Core_0_ITLB_total_hit 3299385
Core_0_ITLB_total_miss 9
Core_0_ITLB_total_MPKI 0.00018
Core_0_ITLB_total_miss_rate 2.72777e-06
Core_0_ITLB_demand_access 3299394
Core_0_ITLB_demand_hit 3299385
Core_0_ITLB_demand_miss 9
Core_0_ITLB_demand_MPKI 0.00018
Core_0_ITLB_demand_miss_rate 2.72777e-06
Core_0_ITLB_load_access 3299394
Core_0_ITLB_load_hit 3299385
Core_0_ITLB_load_miss 9
Core_0_ITLB_load_MPKI 0.00018
Core_0_ITLB_load_miss_rate 2.72777e-06
Core_0_ITLB_rfo_access 0
Core_0_ITLB_rfo_hit 0
Core_0_ITLB_rfo_miss 0
Core_0_ITLB_rfo_MPKI 0
Core_0_ITLB_rfo_miss_rate 0
Core_0_ITLB_prefetch_access 0
Core_0_ITLB_prefetch_hit 0
Core_0_ITLB_prefetch_miss 0
Core_0_ITLB_prefetch_MPKI 0
Core_0_ITLB_prefetch_miss_rate 0
Core_0_ITLB_writeback_access 0
Core_0_ITLB_writeback_hit 0
Core_0_ITLB_writeback_miss 0
Core_0_ITLB_writeback_MPKI 0
Core_0_ITLB_writeback_miss_rate 0
Core_0_ITLB_prefetch_requested 0
Core_0_ITLB_prefetch_issued 0
Core_0_ITLB_prefetch_useful 0
Core_0_ITLB_prefetch_useless 0
Core_0_ITLB_prefetch_late 0
Core_0_ITLB_prefetch_accuracy 0
Core_0_ITLB_prefetch_coverage 0

Core_0_DTLB_total_access 9959208
Core_0_DTLB_total_hit 9927522
Core_0_DTLB_total_miss 31686
Core_0_DTLB_total_MPKI 0.63372
Core_0_DTLB_total_miss_rate 0.00318158
Core_0_DTLB_demand_access 9959208
Core_0_DTLB_demand_hit 9927522
Core_0_DTLB_demand_miss 31686
Core_0_DTLB_demand_MPKI 0.63372
Core_0_DTLB_demand_miss_rate 0.00318158
Core_0_DTLB_load_access 9959208
Core_0_DTLB_load_hit 9927522
Core_0_DTLB_load_miss 31686
Core_0_DTLB_load_MPKI 0.63372
Core_0_DTLB_load_miss_rate 0.00318158
Core_0_DTLB_rfo_access 0
Core_0_DTLB_rfo_hit 0
Core_0_DTLB_rfo_miss 0
Core_0_DTLB_rfo_MPKI 0
Core_0_DTLB_rfo_miss_rate 0
Core_0_DTLB_prefetch_access 0
Core_0_DTLB_prefetch_hit 0
Core_0_DTLB_prefetch_miss 0
Core_0_DTLB_prefetch_MPKI 0
Core_0_DTLB_prefetch_miss_rate 0
Core_0_DTLB_writeback_access 0
Core_0_DTLB_writeback_hit 0
Core_0_DTLB_writeback_miss 0
Core_0_DTLB_writeback_MPKI 0
Core_0_DTLB_writeback_miss_rate 0
Core_0_DTLB_prefetch_requested 0
Core_0_DTLB_prefetch_issued 0
Core_0_DTLB_prefetch_useful 0
Core_0_DTLB_prefetch_useless 0
Core_0_DTLB_prefetch_late 0
Core_0_DTLB_prefetch_accuracy 0
Core_0_DTLB_prefetch_coverage 0

Core_0_STLB_total_access 26434
Core_0_STLB_total_hit 10252
Core_0_STLB_total_miss 16182
Core_0_STLB_total_MPKI 0.32364
Core_0_STLB_total_miss_rate 0.612166
Core_0_STLB_demand_access 26434
Core_0_STLB_demand_hit 10252
Core_0_STLB_demand_miss 16182
Core_0_STLB_demand_MPKI 0.32364
Core_0_STLB_demand_miss_rate 0.612166
Core_0_STLB_load_access 26434
Core_0_STLB_load_hit 10252
Core_0_STLB_load_miss 16182
Core_0_STLB_load_MPKI 0.32364
Core_0_STLB_load_miss_rate 0.612166
Core_0_STLB_rfo_access 0
Core_0_STLB_rfo_hit 0
Core_0_STLB_rfo_miss 0
Core_0_STLB_rfo_MPKI 0
Core_0_STLB_rfo_miss_rate 0
Core_0_STLB_prefetch_access 0
Core_0_STLB_prefetch_hit 0
Core_0_STLB_prefetch_miss 0
Core_0_STLB_prefetch_MPKI 0
Core_0_STLB_prefetch_miss_rate 0
Core_0_STLB_writeback_access 0
Core_0_STLB_writeback_hit 0
Core_0_STLB_writeback_miss 0
Core_0_STLB_writeback_MPKI 0
Core_0_STLB_writeback_miss_rate 0
Core_0_STLB_prefetch_requested 0
Core_0_STLB_prefetch_issued 0
Core_0_STLB_prefetch_useful 0
Core_0_STLB_prefetch_useless 0
Core_0_STLB_prefetch_late 0
Core_0_STLB_prefetch_accuracy 0
Core_0_STLB_prefetch_coverage 0

Core_0_L1I_total_access 3299416
Core_0_L1I_total_hit 3299369
Core_0_L1I_total_miss 47
Core_0_L1I_total_MPKI 0.00094
Core_0_L1I_total_miss_rate 1.42449e-05
Core_0_L1I_demand_access 3299416
Core_0_L1I_demand_hit 3299369
Core_0_L1I_demand_miss 47
Core_0_L1I_demand_MPKI 0.00094
Core_0_L1I_demand_miss_rate 1.42449e-05
Core_0_L1I_load_access 3299416
Core_0_L1I_load_hit 3299369
Core_0_L1I_load_miss 47
Core_0_L1I_load_MPKI 0.00094
Core_0_L1I_load_miss_rate 1.42449e-05
Core_0_L1I_rfo_access 0
Core_0_L1I_rfo_hit 0
Core_0_L1I_rfo_miss 0
Core_0_L1I_rfo_MPKI 0
Core_0_L1I_rfo_miss_rate 0
Core_0_L1I_prefetch_access 0
Core_0_L1I_prefetch_hit 0
Core_0_L1I_prefetch_miss 0
Core_0_L1I_prefetch_MPKI 0
Core_0_L1I_prefetch_miss_rate 0
Core_0_L1I_writeback_access 0
Core_0_L1I_writeback_hit 0
Core_0_L1I_writeback_miss 0
Core_0_L1I_writeback_MPKI 0
Core_0_L1I_writeback_miss_rate 0
Core_0_L1I_prefetch_requested 0
Core_0_L1I_prefetch_issued 0
Core_0_L1I_prefetch_useful 0
Core_0_L1I_prefetch_useless 0
Core_0_L1I_prefetch_late 0
Core_0_L1I_prefetch_accuracy 0
Core_0_L1I_prefetch_coverage 0

Core_0_L1D_total_access 9959226
Core_0_L1D_total_hit 9344946
Core_0_L1D_total_miss 614280
Core_0_L1D_total_MPKI 12.2856
Core_0_L1D_total_miss_rate 0.0616795
Core_0_L1D_demand_access 9933645
Core_0_L1D_demand_hit 9319529
Core_0_L1D_demand_miss 614116
Core_0_L1D_demand_MPKI 12.2823
Core_0_L1D_demand_miss_rate 0.0618218
Core_0_L1D_load_access 9933645
Core_0_L1D_load_hit 9319529
Core_0_L1D_load_miss 614116
Core_0_L1D_load_MPKI 12.2823
Core_0_L1D_load_miss_rate 0.0618218
Core_0_L1D_rfo_access 0
Core_0_L1D_rfo_hit 0
Core_0_L1D_rfo_miss 0
Core_0_L1D_rfo_MPKI 0
Core_0_L1D_rfo_miss_rate 0
Core_0_L1D_prefetch_access 0
Core_0_L1D_prefetch_hit 0
Core_0_L1D_prefetch_miss 0
Core_0_L1D_prefetch_MPKI 0
Core_0_L1D_prefetch_miss_rate 0
Core_0_L1D_writeback_access 25581
Core_0_L1D_writeback_hit 25417
Core_0_L1D_writeback_miss 164
Core_0_L1D_writeback_MPKI 0.00328
Core_0_L1D_writeback_miss_rate 0.00641101
Core_0_L1D_prefetch_requested 0
Core_0_L1D_prefetch_issued 0
Core_0_L1D_prefetch_useful 0
Core_0_L1D_prefetch_useless 0
Core_0_L1D_prefetch_late 0
Core_0_L1D_prefetch_accuracy 0
Core_0_L1D_prefetch_coverage 0

Core_0_L2C_total_access 282851
Core_0_L2C_total_hit 17045
Core_0_L2C_total_miss 265806
Core_0_L2C_total_MPKI 5.31612
Core_0_L2C_total_miss_rate 0.939739
Core_0_L2C_demand_access 269568
Core_0_L2C_demand_hit 3762
Core_0_L2C_demand_miss 265806
Core_0_L2C_demand_MPKI 5.31612
Core_0_L2C_demand_miss_rate 0.986044
Core_0_L2C_load_access 269453
Core_0_L2C_load_hit 3762
Core_0_L2C_load_miss 265691
Core_0_L2C_load_MPKI 5.31382
Core_0_L2C_load_miss_rate 0.986038
Core_0_L2C_rfo_access 115
Core_0_L2C_rfo_hit 0
Core_0_L2C_rfo_miss 115
Core_0_L2C_rfo_MPKI 0.0023
Core_0_L2C_rfo_miss_rate 1
Core_0_L2C_prefetch_access 0
Core_0_L2C_prefetch_hit 0
Core_0_L2C_prefetch_miss 0
Core_0_L2C_prefetch_MPKI 0
Core_0_L2C_prefetch_miss_rate 0
Core_0_L2C_writeback_access 13283
Core_0_L2C_writeback_hit 13283
Core_0_L2C_writeback_miss 0
Core_0_L2C_writeback_MPKI 0
Core_0_L2C_writeback_miss_rate 0
Core_0_L2C_prefetch_requested 0
Core_0_L2C_prefetch_issued 0
Core_0_L2C_prefetch_useful 0
Core_0_L2C_prefetch_useless 0
Core_0_L2C_prefetch_late 0
Core_0_L2C_prefetch_accuracy 0
Core_0_L2C_prefetch_coverage 0

Core_0_LLC_total_access 279413
Core_0_LLC_total_hit 15314
Core_0_LLC_total_miss 264099
Core_0_LLC_total_MPKI 5.28198
Core_0_LLC_total_miss_rate 0.945192
Core_0_LLC_demand_access 265806
Core_0_LLC_demand_hit 3340
Core_0_LLC_demand_miss 262466
Core_0_LLC_demand_MPKI 5.24932
Core_0_LLC_demand_miss_rate 0.987434
Core_0_LLC_load_access 265691
Core_0_LLC_load_hit 3340
Core_0_LLC_load_miss 262351
Core_0_LLC_load_MPKI 5.24702
Core_0_LLC_load_miss_rate 0.987429
Core_0_LLC_rfo_access 115
Core_0_LLC_rfo_hit 0
Core_0_LLC_rfo_miss 115
Core_0_LLC_rfo_MPKI 0.0023
Core_0_LLC_rfo_miss_rate 1
Core_0_LLC_prefetch_access 0
Core_0_LLC_prefetch_hit 0
Core_0_LLC_prefetch_miss 0
Core_0_LLC_prefetch_MPKI 0
Core_0_LLC_prefetch_miss_rate 0
Core_0_LLC_writeback_access 13607
Core_0_LLC_writeback_hit 11974
Core_0_LLC_writeback_miss 1633
Core_0_LLC_writeback_MPKI 0.03266
Core_0_LLC_writeback_miss_rate 0.120012
Core_0_LLC_prefetch_requested 0
Core_0_LLC_prefetch_issued 0
Core_0_LLC_prefetch_useful 0
Core_0_LLC_prefetch_useless 0
Core_0_LLC_prefetch_late 0
Core_0_LLC_prefetch_accuracy 0
Core_0_LLC_prefetch_coverage 0

[DRAM Statistics]
Channel_0_RQ_row_buffer_hit 1174
Channel_0_RQ_row_buffer_miss 263377
Channel_0_WQ_row_buffer_hit 5037
Channel_0_WQ_row_buffer_miss 9903
Channel_0_WQ_full 0
Channel_0_dbus_congested 562857
DRAM_total_RQ_row_buffer_hit 1174
DRAM_total_RQ_row_buffer_miss 263377
DRAM_total_WQ_row_buffer_hit 5037
DRAM_total_WQ_row_buffer_miss 9903
DRAM_total_WQ_full 0
DRAM_total_dbus_congested 562857
DRAM_avg_congested_cycle 21.5687

======STLB miss causes ========
Core_0_STLB_miss_cause_breakdown
Core_0_STLB_cause_Demand_Data_miss 16173
Core_0_STLB_cause_Demand_Data_miss_rate 0.611826
Core_0_STLB_cause_Demand_Instruction_miss 9
Core_0_STLB_cause_Demand_Instruction_miss_rate 0.000340471
Core_0_STLB_cause_L1D_Prefetch_miss 0
Core_0_STLB_cause_L1D_Prefetch_miss_rate 0
Core_0_STLB_cause_L1I_Prefetch_miss 0
Core_0_STLB_cause_L1I_Prefetch_miss_rate 0
Core_0_STLB_cause_Other_miss 0
Core_0_STLB_cause_Other_miss_rate 0
Core_0_STLB_Demand_miss 16182
Core_0_STLB_Demand_miss_rate 0.612166
Core_0_STLB_L1D_Prefetch_miss 0
Core_0_STLB_L1D_Prefetch_miss_rate 0
Core_0_STLB_Other_miss 0
Core_0_STLB_Other_miss_rate 0
