[VMEM] WARNING: physical memory size is smaller than virtual memory size.

*** ChampSim Multicore Out-of-Order Simulator ***
Warmup Instructions: 20000000
Simulation Instructions: 50000000
Number of CPUs: 1
Page size: 4096
Core 0: /data0/tzh/champsim_traces/Ligra/ligra_MIS.com-lj.ungraph.gcc_6.3.0_O3.drop_17000M.length_250M.champsimtrace.xz
Off-chip DRAM Size: 4 GiB Channels: 1 Width: 64-bit Data Rate: 3205 MT/s
Warmup halting CPU 0 at instruction 20000004 cycle 6165702 for remainder of phase
Warmup finished CPU 0 instructions: 20000004 cycles: 6165702 cumulative IPC: 3.244 (Simulation time: 00 hr 01 min 04 sec)
Warmup complete CPU 0 instructions: 20000004 cycles: 6165702 cumulative IPC: 3.244 (Simulation time: 00 hr 01 min 04 sec)
Simulation finished CPU 0 instructions: 50000002 cycles: 45323042 cumulative IPC: 1.103 (Simulation time: 00 hr 07 min 31 sec)
Simulation complete CPU 0 instructions: 50000002 cycles: 45323042 cumulative IPC: 1.103 (Simulation time: 00 hr 07 min 31 sec)

ChampSim completed all CPUs

=== Simulation ===
CPU 0 runs /data0/tzh/champsim_traces/Ligra/ligra_MIS.com-lj.ungraph.gcc_6.3.0_O3.drop_17000M.length_250M.champsimtrace.xz

Region of Interest Statistics

CPU 0 cumulative IPC: 1.103 instructions: 50000002 cycles: 45323042
CPU 0 Branch Prediction Accuracy: 99.3% MPKI: 0.6945 Average ROB Occupancy at Mispredict: 244.3
Branch type MPKI
BRANCH_DIRECT_JUMP: 2e-05
BRANCH_INDIRECT: 0
BRANCH_CONDITIONAL: 0.6943
BRANCH_DIRECT_CALL: 4e-05
BRANCH_INDIRECT_CALL: 0
BRANCH_RETURN: 0.00012

cpu0->cpu0_STLB TOTAL        ACCESS:      21772 HIT:      11223 MISS:      10549 MSHR_MERGE:          0
cpu0->cpu0_STLB LOAD         ACCESS:      21772 HIT:      11223 MISS:      10549 MSHR_MERGE:          0
cpu0->cpu0_STLB RFO          ACCESS:          0 HIT:          0 MISS:          0 MSHR_MERGE:          0
cpu0->cpu0_STLB PREFETCH     ACCESS:          0 HIT:          0 MISS:          0 MSHR_MERGE:          0
cpu0->cpu0_STLB WRITE        ACCESS:          0 HIT:          0 MISS:          0 MSHR_MERGE:          0
cpu0->cpu0_STLB TRANSLATION  ACCESS:          0 HIT:          0 MISS:          0 MSHR_MERGE:          0
cpu0->cpu0_STLB PREFETCH REQUESTED:          0 ISSUED:          0 USEFUL:          0 USELESS:          0 LATE:          0
cpu0->cpu0_STLB AVERAGE MISS LATENCY: 169.9 cycles
cpu0->cpu0_L2C TOTAL        ACCESS:    1614821 HIT:     733255 MISS:     881566 MSHR_MERGE:          0
cpu0->cpu0_L2C LOAD         ACCESS:     600902 HIT:     173174 MISS:     427728 MSHR_MERGE:          0
cpu0->cpu0_L2C RFO          ACCESS:     485353 HIT:      33643 MISS:     451710 MSHR_MERGE:          0
cpu0->cpu0_L2C PREFETCH     ACCESS:          0 HIT:          0 MISS:          0 MSHR_MERGE:          0
cpu0->cpu0_L2C WRITE        ACCESS:     524571 HIT:     524523 MISS:         48 MSHR_MERGE:          0
cpu0->cpu0_L2C TRANSLATION  ACCESS:       3995 HIT:       1915 MISS:       2080 MSHR_MERGE:          0
cpu0->cpu0_L2C PREFETCH REQUESTED:          0 ISSUED:          0 USEFUL:          0 USELESS:          0 LATE:          0
cpu0->cpu0_L2C AVERAGE MISS LATENCY: 365.9 cycles
cpu0->cpu0_L1I TOTAL        ACCESS:    6288047 HIT:    6288042 MISS:          5 MSHR_MERGE:          2
cpu0->cpu0_L1I LOAD         ACCESS:    6288047 HIT:    6288042 MISS:          5 MSHR_MERGE:          2
cpu0->cpu0_L1I RFO          ACCESS:          0 HIT:          0 MISS:          0 MSHR_MERGE:          0
cpu0->cpu0_L1I PREFETCH     ACCESS:          0 HIT:          0 MISS:          0 MSHR_MERGE:          0
cpu0->cpu0_L1I WRITE        ACCESS:          0 HIT:          0 MISS:          0 MSHR_MERGE:          0
cpu0->cpu0_L1I TRANSLATION  ACCESS:          0 HIT:          0 MISS:          0 MSHR_MERGE:          0
cpu0->cpu0_L1I PREFETCH REQUESTED:          0 ISSUED:          0 USEFUL:          0 USELESS:          0 LATE:          0
cpu0->cpu0_L1I AVERAGE MISS LATENCY: 224 cycles
cpu0->cpu0_L1D TOTAL        ACCESS:   13907485 HIT:    9846501 MISS:    4060984 MSHR_MERGE:    2970726
cpu0->cpu0_L1D LOAD         ACCESS:    3661233 HIT:    2287616 MISS:    1373617 MSHR_MERGE:     772718
cpu0->cpu0_L1D RFO          ACCESS:          0 HIT:          0 MISS:          0 MSHR_MERGE:          0
cpu0->cpu0_L1D PREFETCH     ACCESS:          0 HIT:          0 MISS:          0 MSHR_MERGE:          0
cpu0->cpu0_L1D WRITE        ACCESS:   10225864 HIT:    7543260 MISS:    2682604 MSHR_MERGE:    2197240
cpu0->cpu0_L1D TRANSLATION  ACCESS:      20388 HIT:      15625 MISS:       4763 MSHR_MERGE:        768
cpu0->cpu0_L1D PREFETCH REQUESTED:          0 ISSUED:          0 USEFUL:          0 USELESS:          0 LATE:          0
cpu0->cpu0_L1D AVERAGE MISS LATENCY: 304.8 cycles
cpu0->cpu0_ITLB TOTAL        ACCESS:    6172847 HIT:    6172847 MISS:          0 MSHR_MERGE:          0
cpu0->cpu0_ITLB LOAD         ACCESS:    6172847 HIT:    6172847 MISS:          0 MSHR_MERGE:          0
cpu0->cpu0_ITLB RFO          ACCESS:          0 HIT:          0 MISS:          0 MSHR_MERGE:          0
cpu0->cpu0_ITLB PREFETCH     ACCESS:          0 HIT:          0 MISS:          0 MSHR_MERGE:          0
cpu0->cpu0_ITLB WRITE        ACCESS:          0 HIT:          0 MISS:          0 MSHR_MERGE:          0
cpu0->cpu0_ITLB TRANSLATION  ACCESS:          0 HIT:          0 MISS:          0 MSHR_MERGE:          0
cpu0->cpu0_ITLB PREFETCH REQUESTED:          0 ISSUED:          0 USEFUL:          0 USELESS:          0 LATE:          0
cpu0->cpu0_ITLB AVERAGE MISS LATENCY: - cycles
cpu0->cpu0_DTLB TOTAL        ACCESS:   12179092 HIT:   12081783 MISS:      97309 MSHR_MERGE:      75537
cpu0->cpu0_DTLB LOAD         ACCESS:   12179092 HIT:   12081783 MISS:      97309 MSHR_MERGE:      75537
cpu0->cpu0_DTLB RFO          ACCESS:          0 HIT:          0 MISS:          0 MSHR_MERGE:          0
cpu0->cpu0_DTLB PREFETCH     ACCESS:          0 HIT:          0 MISS:          0 MSHR_MERGE:          0
cpu0->cpu0_DTLB WRITE        ACCESS:          0 HIT:          0 MISS:          0 MSHR_MERGE:          0
cpu0->cpu0_DTLB TRANSLATION  ACCESS:          0 HIT:          0 MISS:          0 MSHR_MERGE:          0
cpu0->cpu0_DTLB PREFETCH REQUESTED:          0 ISSUED:          0 USEFUL:          0 USELESS:          0 LATE:          0
cpu0->cpu0_DTLB AVERAGE MISS LATENCY: 87.82 cycles
cpu0->LLC TOTAL        ACCESS:    1377255 HIT:     103577 MISS:    1273678 MSHR_MERGE:          0
cpu0->LLC LOAD         ACCESS:     427728 HIT:      21592 MISS:     406136 MSHR_MERGE:          0
cpu0->LLC RFO          ACCESS:     451710 HIT:       3133 MISS:     448577 MSHR_MERGE:          0
cpu0->LLC PREFETCH     ACCESS:          0 HIT:          0 MISS:          0 MSHR_MERGE:          0
cpu0->LLC WRITE        ACCESS:     495737 HIT:      78796 MISS:     416941 MSHR_MERGE:          0
cpu0->LLC TRANSLATION  ACCESS:       2080 HIT:         56 MISS:       2024 MSHR_MERGE:          0
cpu0->LLC PREFETCH REQUESTED:          0 ISSUED:          0 USEFUL:          0 USELESS:          0 LATE:          0
cpu0->LLC AVERAGE MISS LATENCY: 245.1 cycles

DRAM Statistics

Channel 0 RQ ROW_BUFFER_HIT:      45266
  ROW_BUFFER_MISS:     811402
  AVG DBUS CONGESTED CYCLE: 7.608
Channel 0 WQ ROW_BUFFER_HIT:      84258
  ROW_BUFFER_MISS:     410960
  FULL:        638
Channel 0 REFRESHES ISSUED:       3777

[ROI Statistics]
[System Configuration]
num_cpus 1
cpu_freq 4000
fetch_width 6
decode_width 6
dispatch_width 6
execute_width 6
lq_width 2
sq_width 2
retire_width 6
scheduler_size 160
branch_mispredict_penalty 1
rob_size 352
lq_size 240
sq_size 112
ifetch_buffer_size 64
decode_buffer_size 32
dispatch_buffer_size 32
register_file_size 288
decode_latency 1
dispatch_latency 1
schedule_latency 0
execute_latency 0
page_size 4096
block_size 64
core_0_itlb_set 16
core_0_itlb_way 4
core_0_itlb_rq_size 16
core_0_itlb_wq_size 16
core_0_itlb_pq_size 0
core_0_itlb_mshr_size 8
core_0_itlb_hit_latency 1
core_0_itlb_fill_latency 1
core_0_itlb_max_tag_check 2
core_0_itlb_max_fill 2
core_0_dtlb_set 16
core_0_dtlb_way 4
core_0_dtlb_rq_size 16
core_0_dtlb_wq_size 16
core_0_dtlb_pq_size 0
core_0_dtlb_mshr_size 8
core_0_dtlb_hit_latency 1
core_0_dtlb_fill_latency 1
core_0_dtlb_max_tag_check 2
core_0_dtlb_max_fill 2
core_0_stlb_set 128
core_0_stlb_way 12
core_0_stlb_rq_size 32
core_0_stlb_wq_size 32
core_0_stlb_pq_size 0
core_0_stlb_mshr_size 16
core_0_stlb_hit_latency 4
core_0_stlb_fill_latency 4
core_0_stlb_max_tag_check 1
core_0_stlb_max_fill 1
core_0_l1i_set 64
core_0_l1i_way 8
core_0_l1i_rq_size 64
core_0_l1i_wq_size 64
core_0_l1i_pq_size 32
core_0_l1i_mshr_size 8
core_0_l1i_hit_latency 2
core_0_l1i_fill_latency 2
core_0_l1i_max_tag_check 2
core_0_l1i_max_fill 2
core_0_l1d_set 64
core_0_l1d_way 12
core_0_l1d_rq_size 64
core_0_l1d_wq_size 64
core_0_l1d_pq_size 8
core_0_l1d_mshr_size 16
core_0_l1d_hit_latency 2
core_0_l1d_fill_latency 3
core_0_l1d_max_tag_check 2
core_0_l1d_max_fill 2
core_0_l2c_set 1024
core_0_l2c_way 8
core_0_l2c_rq_size 32
core_0_l2c_wq_size 32
core_0_l2c_pq_size 16
core_0_l2c_mshr_size 32
core_0_l2c_hit_latency 5
core_0_l2c_fill_latency 5
core_0_l2c_max_tag_check 1
core_0_l2c_max_fill 1
llc_set 2048
llc_way 16
llc_rq_size 32
llc_wq_size 32
llc_pq_size 32
llc_mshr_size 64
llc_hit_latency 10
llc_fill_latency 10
llc_max_tag_check 1
llc_max_fill 1
dram_channels 1
dram_ranks 1
dram_bankgroups 8
dram_banks 4
dram_rows 16384
dram_columns 1024
dram_channel_width 8
dram_rq_size 64
dram_wq_size 64
dram_size 4294967296
core_0_itlb_prefetcher no
core_0_dtlb_prefetcher no
core_0_stlb_prefetcher no
core_0_l1i_prefetcher no
core_0_l1d_prefetcher no
core_0_l2c_prefetcher no
llc_prefetcher no
llc_replacement drrip

Core_0_instructions 50000002
Core_0_cycles 45323042
Core_0_IPC 1.10319
Core_0_branch_prediction_accuracy 99.3043
Core_0_branch_MPKI 0.6945
Core_0_average_ROB_occupancy_at_mispredict 244.269

Core_0_ITLB_total_access 6172847
Core_0_ITLB_total_hit 6172847
Core_0_ITLB_total_miss 0
Core_0_ITLB_total_MPKI 0
Core_0_ITLB_total_miss_rate 0
Core_0_ITLB_demand_access 6172847
Core_0_ITLB_demand_hit 6172847
Core_0_ITLB_demand_miss 0
Core_0_ITLB_demand_MPKI 0
Core_0_ITLB_demand_miss_rate 0
Core_0_ITLB_load_access 6172847
Core_0_ITLB_load_hit 6172847
Core_0_ITLB_load_miss 0
Core_0_ITLB_load_MPKI 0
Core_0_ITLB_load_miss_rate 0
Core_0_ITLB_rfo_access 0
Core_0_ITLB_rfo_hit 0
Core_0_ITLB_rfo_miss 0
Core_0_ITLB_rfo_MPKI 0
Core_0_ITLB_rfo_miss_rate 0
Core_0_ITLB_prefetch_access 0
Core_0_ITLB_prefetch_hit 0
Core_0_ITLB_prefetch_miss 0
Core_0_ITLB_prefetch_MPKI 0
Core_0_ITLB_prefetch_miss_rate 0
Core_0_ITLB_writeback_access 0
Core_0_ITLB_writeback_hit 0
Core_0_ITLB_writeback_miss 0
Core_0_ITLB_writeback_MPKI 0
Core_0_ITLB_writeback_miss_rate 0
Core_0_ITLB_prefetch_requested 0
Core_0_ITLB_prefetch_issued 0
Core_0_ITLB_prefetch_useful 0
Core_0_ITLB_prefetch_useless 0
Core_0_ITLB_prefetch_late 0
Core_0_ITLB_prefetch_accuracy 0
Core_0_ITLB_prefetch_coverage 0

Core_0_DTLB_total_access 12179092
Core_0_DTLB_total_hit 12081783
Core_0_DTLB_total_miss 97309
Core_0_DTLB_total_MPKI 1.94618
Core_0_DTLB_total_miss_rate 0.00798984
Core_0_DTLB_demand_access 12179092
Core_0_DTLB_demand_hit 12081783
Core_0_DTLB_demand_miss 97309
Core_0_DTLB_demand_MPKI 1.94618
Core_0_DTLB_demand_miss_rate 0.00798984
Core_0_DTLB_load_access 12179092
Core_0_DTLB_load_hit 12081783
Core_0_DTLB_load_miss 97309
Core_0_DTLB_load_MPKI 1.94618
Core_0_DTLB_load_miss_rate 0.00798984
Core_0_DTLB_rfo_access 0
Core_0_DTLB_rfo_hit 0
Core_0_DTLB_rfo_miss 0
Core_0_DTLB_rfo_MPKI 0
Core_0_DTLB_rfo_miss_rate 0
Core_0_DTLB_prefetch_access 0
Core_0_DTLB_prefetch_hit 0
Core_0_DTLB_prefetch_miss 0
Core_0_DTLB_prefetch_MPKI 0
Core_0_DTLB_prefetch_miss_rate 0
Core_0_DTLB_writeback_access 0
Core_0_DTLB_writeback_hit 0
Core_0_DTLB_writeback_miss 0
Core_0_DTLB_writeback_MPKI 0
Core_0_DTLB_writeback_miss_rate 0
Core_0_DTLB_prefetch_requested 0
Core_0_DTLB_prefetch_issued 0
Core_0_DTLB_prefetch_useful 0
Core_0_DTLB_prefetch_useless 0
Core_0_DTLB_prefetch_late 0
Core_0_DTLB_prefetch_accuracy 0
Core_0_DTLB_prefetch_coverage 0

Core_0_STLB_total_access 21772
Core_0_STLB_total_hit 11223
Core_0_STLB_total_miss 10549
Core_0_STLB_total_MPKI 0.21098
Core_0_STLB_total_miss_rate 0.484521
Core_0_STLB_demand_access 21772
Core_0_STLB_demand_hit 11223
Core_0_STLB_demand_miss 10549
Core_0_STLB_demand_MPKI 0.21098
Core_0_STLB_demand_miss_rate 0.484521
Core_0_STLB_load_access 21772
Core_0_STLB_load_hit 11223
Core_0_STLB_load_miss 10549
Core_0_STLB_load_MPKI 0.21098
Core_0_STLB_load_miss_rate 0.484521
Core_0_STLB_rfo_access 0
Core_0_STLB_rfo_hit 0
Core_0_STLB_rfo_miss 0
Core_0_STLB_rfo_MPKI 0
Core_0_STLB_rfo_miss_rate 0
Core_0_STLB_prefetch_access 0
Core_0_STLB_prefetch_hit 0
Core_0_STLB_prefetch_miss 0
Core_0_STLB_prefetch_MPKI 0
Core_0_STLB_prefetch_miss_rate 0
Core_0_STLB_writeback_access 0
Core_0_STLB_writeback_hit 0
Core_0_STLB_writeback_miss 0
Core_0_STLB_writeback_MPKI 0
Core_0_STLB_writeback_miss_rate 0
Core_0_STLB_prefetch_requested 0
Core_0_STLB_prefetch_issued 0
Core_0_STLB_prefetch_useful 0
Core_0_STLB_prefetch_useless 0
Core_0_STLB_prefetch_late 0
Core_0_STLB_prefetch_accuracy 0
Core_0_STLB_prefetch_coverage 0

Core_0_L1I_total_access 6288047
Core_0_L1I_total_hit 6288042
Core_0_L1I_total_miss 5
Core_0_L1I_total_MPKI 0.0001
Core_0_L1I_total_miss_rate 7.95159e-07
Core_0_L1I_demand_access 6288047
Core_0_L1I_demand_hit 6288042
Core_0_L1I_demand_miss 5
Core_0_L1I_demand_MPKI 0.0001
Core_0_L1I_demand_miss_rate 7.95159e-07
Core_0_L1I_load_access 6288047
Core_0_L1I_load_hit 6288042
Core_0_L1I_load_miss 5
Core_0_L1I_load_MPKI 0.0001
Core_0_L1I_load_miss_rate 7.95159e-07
Core_0_L1I_rfo_access 0
Core_0_L1I_rfo_hit 0
Core_0_L1I_rfo_miss 0
Core_0_L1I_rfo_MPKI 0
Core_0_L1I_rfo_miss_rate 0
Core_0_L1I_prefetch_access 0
Core_0_L1I_prefetch_hit 0
Core_0_L1I_prefetch_miss 0
Core_0_L1I_prefetch_MPKI 0
Core_0_L1I_prefetch_miss_rate 0
Core_0_L1I_writeback_access 0
Core_0_L1I_writeback_hit 0
Core_0_L1I_writeback_miss 0
Core_0_L1I_writeback_MPKI 0
Core_0_L1I_writeback_miss_rate 0
Core_0_L1I_prefetch_requested 0
Core_0_L1I_prefetch_issued 0
Core_0_L1I_prefetch_useful 0
Core_0_L1I_prefetch_useless 0
Core_0_L1I_prefetch_late 0
Core_0_L1I_prefetch_accuracy 0
Core_0_L1I_prefetch_coverage 0

Core_0_L1D_total_access 13887097
Core_0_L1D_total_hit 9830876
Core_0_L1D_total_miss 4056221
Core_0_L1D_total_MPKI 81.1244
Core_0_L1D_total_miss_rate 0.292086
Core_0_L1D_demand_access 3661233
Core_0_L1D_demand_hit 2287616
Core_0_L1D_demand_miss 1373617
Core_0_L1D_demand_MPKI 27.4723
Core_0_L1D_demand_miss_rate 0.375179
Core_0_L1D_load_access 3661233
Core_0_L1D_load_hit 2287616
Core_0_L1D_load_miss 1373617
Core_0_L1D_load_MPKI 27.4723
Core_0_L1D_load_miss_rate 0.375179
Core_0_L1D_rfo_access 0
Core_0_L1D_rfo_hit 0
Core_0_L1D_rfo_miss 0
Core_0_L1D_rfo_MPKI 0
Core_0_L1D_rfo_miss_rate 0
Core_0_L1D_prefetch_access 0
Core_0_L1D_prefetch_hit 0
Core_0_L1D_prefetch_miss 0
Core_0_L1D_prefetch_MPKI 0
Core_0_L1D_prefetch_miss_rate 0
Core_0_L1D_writeback_access 10225864
Core_0_L1D_writeback_hit 7543260
Core_0_L1D_writeback_miss 2682604
Core_0_L1D_writeback_MPKI 53.6521
Core_0_L1D_writeback_miss_rate 0.262335
Core_0_L1D_prefetch_requested 0
Core_0_L1D_prefetch_issued 0
Core_0_L1D_prefetch_useful 0
Core_0_L1D_prefetch_useless 0
Core_0_L1D_prefetch_late 0
Core_0_L1D_prefetch_accuracy 0
Core_0_L1D_prefetch_coverage 0

Core_0_L2C_total_access 1610826
Core_0_L2C_total_hit 731340
Core_0_L2C_total_miss 879486
Core_0_L2C_total_MPKI 17.5897
Core_0_L2C_total_miss_rate 0.545984
Core_0_L2C_demand_access 1086255
Core_0_L2C_demand_hit 206817
Core_0_L2C_demand_miss 879438
Core_0_L2C_demand_MPKI 17.5888
Core_0_L2C_demand_miss_rate 0.809605
Core_0_L2C_load_access 600902
Core_0_L2C_load_hit 173174
Core_0_L2C_load_miss 427728
Core_0_L2C_load_MPKI 8.55456
Core_0_L2C_load_miss_rate 0.71181
Core_0_L2C_rfo_access 485353
Core_0_L2C_rfo_hit 33643
Core_0_L2C_rfo_miss 451710
Core_0_L2C_rfo_MPKI 9.0342
Core_0_L2C_rfo_miss_rate 0.930683
Core_0_L2C_prefetch_access 0
Core_0_L2C_prefetch_hit 0
Core_0_L2C_prefetch_miss 0
Core_0_L2C_prefetch_MPKI 0
Core_0_L2C_prefetch_miss_rate 0
Core_0_L2C_writeback_access 524571
Core_0_L2C_writeback_hit 524523
Core_0_L2C_writeback_miss 48
Core_0_L2C_writeback_MPKI 0.00096
Core_0_L2C_writeback_miss_rate 9.15033e-05
Core_0_L2C_prefetch_requested 0
Core_0_L2C_prefetch_issued 0
Core_0_L2C_prefetch_useful 0
Core_0_L2C_prefetch_useless 0
Core_0_L2C_prefetch_late 0
Core_0_L2C_prefetch_accuracy 0
Core_0_L2C_prefetch_coverage 0

Core_0_LLC_total_access 1375175
Core_0_LLC_total_hit 103521
Core_0_LLC_total_miss 1271654
Core_0_LLC_total_MPKI 25.4331
Core_0_LLC_total_miss_rate 0.924722
Core_0_LLC_demand_access 879438
Core_0_LLC_demand_hit 24725
Core_0_LLC_demand_miss 854713
Core_0_LLC_demand_MPKI 17.0943
Core_0_LLC_demand_miss_rate 0.971885
Core_0_LLC_load_access 427728
Core_0_LLC_load_hit 21592
Core_0_LLC_load_miss 406136
Core_0_LLC_load_MPKI 8.12272
Core_0_LLC_load_miss_rate 0.949519
Core_0_LLC_rfo_access 451710
Core_0_LLC_rfo_hit 3133
Core_0_LLC_rfo_miss 448577
Core_0_LLC_rfo_MPKI 8.97154
Core_0_LLC_rfo_miss_rate 0.993064
Core_0_LLC_prefetch_access 0
Core_0_LLC_prefetch_hit 0
Core_0_LLC_prefetch_miss 0
Core_0_LLC_prefetch_MPKI 0
Core_0_LLC_prefetch_miss_rate 0
Core_0_LLC_writeback_access 495737
Core_0_LLC_writeback_hit 78796
Core_0_LLC_writeback_miss 416941
Core_0_LLC_writeback_MPKI 8.33882
Core_0_LLC_writeback_miss_rate 0.841053
Core_0_LLC_prefetch_requested 0
Core_0_LLC_prefetch_issued 0
Core_0_LLC_prefetch_useful 0
Core_0_LLC_prefetch_useless 0
Core_0_LLC_prefetch_late 0
Core_0_LLC_prefetch_accuracy 0
Core_0_LLC_prefetch_coverage 0

[DRAM Statistics]
Channel_0_RQ_row_buffer_hit 45266
Channel_0_RQ_row_buffer_miss 811402
Channel_0_WQ_row_buffer_hit 84258
Channel_0_WQ_row_buffer_miss 410960
Channel_0_WQ_full 638
Channel_0_dbus_congested 4342984
DRAM_total_RQ_row_buffer_hit 45266
DRAM_total_RQ_row_buffer_miss 811402
DRAM_total_WQ_row_buffer_hit 84258
DRAM_total_WQ_row_buffer_miss 410960
DRAM_total_WQ_full 638
DRAM_total_dbus_congested 4342984
DRAM_avg_congested_cycle 7.60815

======STLB miss causes ========
Core_0_STLB_miss_cause_breakdown
Core_0_STLB_cause_Demand_Data_miss 10549
Core_0_STLB_cause_Demand_Data_miss_rate 0.484521
Core_0_STLB_cause_Demand_Instruction_miss 0
Core_0_STLB_cause_Demand_Instruction_miss_rate 0
Core_0_STLB_cause_L1D_Prefetch_miss 0
Core_0_STLB_cause_L1D_Prefetch_miss_rate 0
Core_0_STLB_cause_L1I_Prefetch_miss 0
Core_0_STLB_cause_L1I_Prefetch_miss_rate 0
Core_0_STLB_cause_Other_miss 0
Core_0_STLB_cause_Other_miss_rate 0
Core_0_STLB_Demand_miss 10549
Core_0_STLB_Demand_miss_rate 0.484521
Core_0_STLB_L1D_Prefetch_miss 0
Core_0_STLB_L1D_Prefetch_miss_rate 0
Core_0_STLB_Other_miss 0
Core_0_STLB_Other_miss_rate 0
