[VMEM] WARNING: physical memory size is smaller than virtual memory size.

*** ChampSim Multicore Out-of-Order Simulator ***
Warmup Instructions: 20000000
Simulation Instructions: 50000000
Number of CPUs: 1
Page size: 4096
Core 0: /data0/tzh/champsim_traces/Ligra/ligra_Components-Shortcut.com-lj.ungraph.gcc_6.3.0_O3.drop_22000M.length_250M.champsimtrace.xz
Off-chip DRAM Size: 4 GiB Channels: 1 Width: 64-bit Data Rate: 3205 MT/s
Warmup halting CPU 0 at instruction 20000005 cycle 5573421 for remainder of phase
Warmup finished CPU 0 instructions: 20000005 cycles: 5573421 cumulative IPC: 3.588 (Simulation time: 00 hr 00 min 55 sec)
Warmup complete CPU 0 instructions: 20000005 cycles: 5573421 cumulative IPC: 3.588 (Simulation time: 00 hr 00 min 55 sec)
Simulation finished CPU 0 instructions: 50000005 cycles: 95468383 cumulative IPC: 0.5237 (Simulation time: 00 hr 10 min 03 sec)
Simulation complete CPU 0 instructions: 50000005 cycles: 95468383 cumulative IPC: 0.5237 (Simulation time: 00 hr 10 min 03 sec)

ChampSim completed all CPUs

=== Simulation ===
CPU 0 runs /data0/tzh/champsim_traces/Ligra/ligra_Components-Shortcut.com-lj.ungraph.gcc_6.3.0_O3.drop_22000M.length_250M.champsimtrace.xz

Region of Interest Statistics

CPU 0 cumulative IPC: 0.5237 instructions: 50000005 cycles: 95468383
CPU 0 Branch Prediction Accuracy: 97.5% MPKI: 6.582 Average ROB Occupancy at Mispredict: 128.2
Branch type MPKI
BRANCH_DIRECT_JUMP: 0
BRANCH_INDIRECT: 0
BRANCH_CONDITIONAL: 6.582
BRANCH_DIRECT_CALL: 0
BRANCH_INDIRECT_CALL: 0
BRANCH_RETURN: 0

cpu0->cpu0_STLB TOTAL        ACCESS:    3646554 HIT:    3640236 MISS:       6318 MSHR_MERGE:          0
cpu0->cpu0_STLB LOAD         ACCESS:    3646554 HIT:    3640236 MISS:       6318 MSHR_MERGE:          0
cpu0->cpu0_STLB RFO          ACCESS:          0 HIT:          0 MISS:          0 MSHR_MERGE:          0
cpu0->cpu0_STLB PREFETCH     ACCESS:          0 HIT:          0 MISS:          0 MSHR_MERGE:          0
cpu0->cpu0_STLB WRITE        ACCESS:          0 HIT:          0 MISS:          0 MSHR_MERGE:          0
cpu0->cpu0_STLB TRANSLATION  ACCESS:          0 HIT:          0 MISS:          0 MSHR_MERGE:          0
cpu0->cpu0_STLB PREFETCH REQUESTED:          0 ISSUED:          0 USEFUL:          0 USELESS:          0 LATE:          0
cpu0->cpu0_STLB AVERAGE MISS LATENCY: 251.5 cycles
cpu0->cpu0_L2C TOTAL        ACCESS:    4364204 HIT:    1467723 MISS:    2896481 MSHR_MERGE:          0
cpu0->cpu0_L2C LOAD         ACCESS:    4337981 HIT:    1442624 MISS:    2895357 MSHR_MERGE:          0
cpu0->cpu0_L2C RFO          ACCESS:          0 HIT:          0 MISS:          0 MSHR_MERGE:          0
cpu0->cpu0_L2C PREFETCH     ACCESS:          0 HIT:          0 MISS:          0 MSHR_MERGE:          0
cpu0->cpu0_L2C WRITE        ACCESS:      20499 HIT:      20480 MISS:         19 MSHR_MERGE:          0
cpu0->cpu0_L2C TRANSLATION  ACCESS:       5724 HIT:       4619 MISS:       1105 MSHR_MERGE:          0
cpu0->cpu0_L2C PREFETCH REQUESTED:          0 ISSUED:          0 USEFUL:          0 USELESS:          0 LATE:          0
cpu0->cpu0_L2C AVERAGE MISS LATENCY: 101.7 cycles
cpu0->cpu0_L1I TOTAL        ACCESS:     887661 HIT:     887661 MISS:          0 MSHR_MERGE:          0
cpu0->cpu0_L1I LOAD         ACCESS:     887661 HIT:     887661 MISS:          0 MSHR_MERGE:          0
cpu0->cpu0_L1I RFO          ACCESS:          0 HIT:          0 MISS:          0 MSHR_MERGE:          0
cpu0->cpu0_L1I PREFETCH     ACCESS:          0 HIT:          0 MISS:          0 MSHR_MERGE:          0
cpu0->cpu0_L1I WRITE        ACCESS:          0 HIT:          0 MISS:          0 MSHR_MERGE:          0
cpu0->cpu0_L1I TRANSLATION  ACCESS:          0 HIT:          0 MISS:          0 MSHR_MERGE:          0
cpu0->cpu0_L1I PREFETCH REQUESTED:          0 ISSUED:          0 USEFUL:          0 USELESS:          0 LATE:          0
cpu0->cpu0_L1I AVERAGE MISS LATENCY: - cycles
cpu0->cpu0_L1D TOTAL        ACCESS:   14443561 HIT:    8717918 MISS:    5725643 MSHR_MERGE:    1381935
cpu0->cpu0_L1D LOAD         ACCESS:   14103031 HIT:    8383112 MISS:    5719919 MSHR_MERGE:    1381935
cpu0->cpu0_L1D RFO          ACCESS:          0 HIT:          0 MISS:          0 MSHR_MERGE:          0
cpu0->cpu0_L1D PREFETCH     ACCESS:          0 HIT:          0 MISS:          0 MSHR_MERGE:          0
cpu0->cpu0_L1D WRITE        ACCESS:     327882 HIT:     327882 MISS:          0 MSHR_MERGE:          0
cpu0->cpu0_L1D TRANSLATION  ACCESS:      12648 HIT:       6924 MISS:       5724 MSHR_MERGE:          0
cpu0->cpu0_L1D PREFETCH REQUESTED:          0 ISSUED:          0 USEFUL:          0 USELESS:          0 LATE:          0
cpu0->cpu0_L1D AVERAGE MISS LATENCY: 76.61 cycles
cpu0->cpu0_ITLB TOTAL        ACCESS:     623363 HIT:     623363 MISS:          0 MSHR_MERGE:          0
cpu0->cpu0_ITLB LOAD         ACCESS:     623363 HIT:     623363 MISS:          0 MSHR_MERGE:          0
cpu0->cpu0_ITLB RFO          ACCESS:          0 HIT:          0 MISS:          0 MSHR_MERGE:          0
cpu0->cpu0_ITLB PREFETCH     ACCESS:          0 HIT:          0 MISS:          0 MSHR_MERGE:          0
cpu0->cpu0_ITLB WRITE        ACCESS:          0 HIT:          0 MISS:          0 MSHR_MERGE:          0
cpu0->cpu0_ITLB TRANSLATION  ACCESS:          0 HIT:          0 MISS:          0 MSHR_MERGE:          0
cpu0->cpu0_ITLB PREFETCH REQUESTED:          0 ISSUED:          0 USEFUL:          0 USELESS:          0 LATE:          0
cpu0->cpu0_ITLB AVERAGE MISS LATENCY: - cycles
cpu0->cpu0_DTLB TOTAL        ACCESS:   14414323 HIT:   10381937 MISS:    4032386 MSHR_MERGE:     385832
cpu0->cpu0_DTLB LOAD         ACCESS:   14414323 HIT:   10381937 MISS:    4032386 MSHR_MERGE:     385832
cpu0->cpu0_DTLB RFO          ACCESS:          0 HIT:          0 MISS:          0 MSHR_MERGE:          0
cpu0->cpu0_DTLB PREFETCH     ACCESS:          0 HIT:          0 MISS:          0 MSHR_MERGE:          0
cpu0->cpu0_DTLB WRITE        ACCESS:          0 HIT:          0 MISS:          0 MSHR_MERGE:          0
cpu0->cpu0_DTLB TRANSLATION  ACCESS:          0 HIT:          0 MISS:          0 MSHR_MERGE:          0
cpu0->cpu0_DTLB PREFETCH REQUESTED:          0 ISSUED:          0 USEFUL:          0 USELESS:          0 LATE:          0
cpu0->cpu0_DTLB AVERAGE MISS LATENCY: 5.443 cycles
cpu0->LLC TOTAL        ACCESS:    2916816 HIT:    1685450 MISS:    1231366 MSHR_MERGE:          0
cpu0->LLC LOAD         ACCESS:    2895357 HIT:    1678363 MISS:    1216994 MSHR_MERGE:          0
cpu0->LLC RFO          ACCESS:          0 HIT:          0 MISS:          0 MSHR_MERGE:          0
cpu0->LLC PREFETCH     ACCESS:          0 HIT:          0 MISS:          0 MSHR_MERGE:          0
cpu0->LLC WRITE        ACCESS:      20354 HIT:       6957 MISS:      13397 MSHR_MERGE:          0
cpu0->LLC TRANSLATION  ACCESS:       1105 HIT:        130 MISS:        975 MSHR_MERGE:          0
cpu0->LLC PREFETCH REQUESTED:          0 ISSUED:          0 USEFUL:          0 USELESS:          0 LATE:          0
cpu0->LLC AVERAGE MISS LATENCY: 203.2 cycles

DRAM Statistics

Channel 0 RQ ROW_BUFFER_HIT:       4434
  ROW_BUFFER_MISS:    1213382
  AVG DBUS CONGESTED CYCLE: 13.26
Channel 0 WQ ROW_BUFFER_HIT:       7715
  ROW_BUFFER_MISS:      10908
  FULL:          0
Channel 0 REFRESHES ISSUED:       7956

[ROI Statistics]
[System Configuration]
num_cpus 1
cpu_freq 4000
fetch_width 6
decode_width 6
dispatch_width 6
execute_width 6
lq_width 2
sq_width 2
retire_width 6
scheduler_size 160
branch_mispredict_penalty 1
rob_size 352
lq_size 240
sq_size 112
ifetch_buffer_size 64
decode_buffer_size 32
dispatch_buffer_size 32
register_file_size 288
decode_latency 1
dispatch_latency 1
schedule_latency 0
execute_latency 0
page_size 4096
block_size 64
core_0_itlb_set 16
core_0_itlb_way 4
core_0_itlb_rq_size 16
core_0_itlb_wq_size 16
core_0_itlb_pq_size 0
core_0_itlb_mshr_size 8
core_0_itlb_hit_latency 1
core_0_itlb_fill_latency 1
core_0_itlb_max_tag_check 2
core_0_itlb_max_fill 2
core_0_dtlb_set 16
core_0_dtlb_way 4
core_0_dtlb_rq_size 16
core_0_dtlb_wq_size 16
core_0_dtlb_pq_size 0
core_0_dtlb_mshr_size 8
core_0_dtlb_hit_latency 1
core_0_dtlb_fill_latency 1
core_0_dtlb_max_tag_check 2
core_0_dtlb_max_fill 2
core_0_stlb_set 128
core_0_stlb_way 12
core_0_stlb_rq_size 32
core_0_stlb_wq_size 32
core_0_stlb_pq_size 0
core_0_stlb_mshr_size 16
core_0_stlb_hit_latency 4
core_0_stlb_fill_latency 4
core_0_stlb_max_tag_check 1
core_0_stlb_max_fill 1
core_0_l1i_set 64
core_0_l1i_way 8
core_0_l1i_rq_size 64
core_0_l1i_wq_size 64
core_0_l1i_pq_size 32
core_0_l1i_mshr_size 8
core_0_l1i_hit_latency 2
core_0_l1i_fill_latency 2
core_0_l1i_max_tag_check 2
core_0_l1i_max_fill 2
core_0_l1d_set 64
core_0_l1d_way 12
core_0_l1d_rq_size 64
core_0_l1d_wq_size 64
core_0_l1d_pq_size 8
core_0_l1d_mshr_size 16
core_0_l1d_hit_latency 2
core_0_l1d_fill_latency 3
core_0_l1d_max_tag_check 2
core_0_l1d_max_fill 2
core_0_l2c_set 1024
core_0_l2c_way 8
core_0_l2c_rq_size 32
core_0_l2c_wq_size 32
core_0_l2c_pq_size 16
core_0_l2c_mshr_size 32
core_0_l2c_hit_latency 5
core_0_l2c_fill_latency 5
core_0_l2c_max_tag_check 1
core_0_l2c_max_fill 1
llc_set 2048
llc_way 16
llc_rq_size 32
llc_wq_size 32
llc_pq_size 32
llc_mshr_size 64
llc_hit_latency 10
llc_fill_latency 10
llc_max_tag_check 1
llc_max_fill 1
dram_channels 1
dram_ranks 1
dram_bankgroups 8
dram_banks 4
dram_rows 16384
dram_columns 1024
dram_channel_width 8
dram_rq_size 64
dram_wq_size 64
dram_size 4294967296
core_0_itlb_prefetcher no
core_0_dtlb_prefetcher no
core_0_stlb_prefetcher no
core_0_l1i_prefetcher no
core_0_l1d_prefetcher no
core_0_l2c_prefetcher no
llc_prefetcher no
llc_replacement drrip

Core_0_instructions 50000005
Core_0_cycles 95468383
Core_0_IPC 0.523734
Core_0_branch_prediction_accuracy 97.5048
Core_0_branch_MPKI 6.58188
Core_0_average_ROB_occupancy_at_mispredict 128.193

Core_0_ITLB_total_access 623363
Core_0_ITLB_total_hit 623363
Core_0_ITLB_total_miss 0
Core_0_ITLB_total_MPKI 0
Core_0_ITLB_total_miss_rate 0
Core_0_ITLB_demand_access 623363
Core_0_ITLB_demand_hit 623363
Core_0_ITLB_demand_miss 0
Core_0_ITLB_demand_MPKI 0
Core_0_ITLB_demand_miss_rate 0
Core_0_ITLB_load_access 623363
Core_0_ITLB_load_hit 623363
Core_0_ITLB_load_miss 0
Core_0_ITLB_load_MPKI 0
Core_0_ITLB_load_miss_rate 0
Core_0_ITLB_rfo_access 0
Core_0_ITLB_rfo_hit 0
Core_0_ITLB_rfo_miss 0
Core_0_ITLB_rfo_MPKI 0
Core_0_ITLB_rfo_miss_rate 0
Core_0_ITLB_prefetch_access 0
Core_0_ITLB_prefetch_hit 0
Core_0_ITLB_prefetch_miss 0
Core_0_ITLB_prefetch_MPKI 0
Core_0_ITLB_prefetch_miss_rate 0
Core_0_ITLB_writeback_access 0
Core_0_ITLB_writeback_hit 0
Core_0_ITLB_writeback_miss 0
Core_0_ITLB_writeback_MPKI 0
Core_0_ITLB_writeback_miss_rate 0
Core_0_ITLB_prefetch_requested 0
Core_0_ITLB_prefetch_issued 0
Core_0_ITLB_prefetch_useful 0
Core_0_ITLB_prefetch_useless 0
Core_0_ITLB_prefetch_late 0
Core_0_ITLB_prefetch_accuracy 0
Core_0_ITLB_prefetch_coverage 0

Core_0_DTLB_total_access 14414323
Core_0_DTLB_total_hit 10381937
Core_0_DTLB_total_miss 4032386
Core_0_DTLB_total_MPKI 80.6477
Core_0_DTLB_total_miss_rate 0.279749
Core_0_DTLB_demand_access 14414323
Core_0_DTLB_demand_hit 10381937
Core_0_DTLB_demand_miss 4032386
Core_0_DTLB_demand_MPKI 80.6477
Core_0_DTLB_demand_miss_rate 0.279749
Core_0_DTLB_load_access 14414323
Core_0_DTLB_load_hit 10381937
Core_0_DTLB_load_miss 4032386
Core_0_DTLB_load_MPKI 80.6477
Core_0_DTLB_load_miss_rate 0.279749
Core_0_DTLB_rfo_access 0
Core_0_DTLB_rfo_hit 0
Core_0_DTLB_rfo_miss 0
Core_0_DTLB_rfo_MPKI 0
Core_0_DTLB_rfo_miss_rate 0
Core_0_DTLB_prefetch_access 0
Core_0_DTLB_prefetch_hit 0
Core_0_DTLB_prefetch_miss 0
Core_0_DTLB_prefetch_MPKI 0
Core_0_DTLB_prefetch_miss_rate 0
Core_0_DTLB_writeback_access 0
Core_0_DTLB_writeback_hit 0
Core_0_DTLB_writeback_miss 0
Core_0_DTLB_writeback_MPKI 0
Core_0_DTLB_writeback_miss_rate 0
Core_0_DTLB_prefetch_requested 0
Core_0_DTLB_prefetch_issued 0
Core_0_DTLB_prefetch_useful 0
Core_0_DTLB_prefetch_useless 0
Core_0_DTLB_prefetch_late 0
Core_0_DTLB_prefetch_accuracy 0
Core_0_DTLB_prefetch_coverage 0

Core_0_STLB_total_access 3646554
Core_0_STLB_total_hit 3640236
Core_0_STLB_total_miss 6318
Core_0_STLB_total_MPKI 0.12636
Core_0_STLB_total_miss_rate 0.00173259
Core_0_STLB_demand_access 3646554
Core_0_STLB_demand_hit 3640236
Core_0_STLB_demand_miss 6318
Core_0_STLB_demand_MPKI 0.12636
Core_0_STLB_demand_miss_rate 0.00173259
Core_0_STLB_load_access 3646554
Core_0_STLB_load_hit 3640236
Core_0_STLB_load_miss 6318
Core_0_STLB_load_MPKI 0.12636
Core_0_STLB_load_miss_rate 0.00173259
Core_0_STLB_rfo_access 0
Core_0_STLB_rfo_hit 0
Core_0_STLB_rfo_miss 0
Core_0_STLB_rfo_MPKI 0
Core_0_STLB_rfo_miss_rate 0
Core_0_STLB_prefetch_access 0
Core_0_STLB_prefetch_hit 0
Core_0_STLB_prefetch_miss 0
Core_0_STLB_prefetch_MPKI 0
Core_0_STLB_prefetch_miss_rate 0
Core_0_STLB_writeback_access 0
Core_0_STLB_writeback_hit 0
Core_0_STLB_writeback_miss 0
Core_0_STLB_writeback_MPKI 0
Core_0_STLB_writeback_miss_rate 0
Core_0_STLB_prefetch_requested 0
Core_0_STLB_prefetch_issued 0
Core_0_STLB_prefetch_useful 0
Core_0_STLB_prefetch_useless 0
Core_0_STLB_prefetch_late 0
Core_0_STLB_prefetch_accuracy 0
Core_0_STLB_prefetch_coverage 0

Core_0_L1I_total_access 887661
Core_0_L1I_total_hit 887661
Core_0_L1I_total_miss 0
Core_0_L1I_total_MPKI 0
Core_0_L1I_total_miss_rate 0
Core_0_L1I_demand_access 887661
Core_0_L1I_demand_hit 887661
Core_0_L1I_demand_miss 0
Core_0_L1I_demand_MPKI 0
Core_0_L1I_demand_miss_rate 0
Core_0_L1I_load_access 887661
Core_0_L1I_load_hit 887661
Core_0_L1I_load_miss 0
Core_0_L1I_load_MPKI 0
Core_0_L1I_load_miss_rate 0
Core_0_L1I_rfo_access 0
Core_0_L1I_rfo_hit 0
Core_0_L1I_rfo_miss 0
Core_0_L1I_rfo_MPKI 0
Core_0_L1I_rfo_miss_rate 0
Core_0_L1I_prefetch_access 0
Core_0_L1I_prefetch_hit 0
Core_0_L1I_prefetch_miss 0
Core_0_L1I_prefetch_MPKI 0
Core_0_L1I_prefetch_miss_rate 0
Core_0_L1I_writeback_access 0
Core_0_L1I_writeback_hit 0
Core_0_L1I_writeback_miss 0
Core_0_L1I_writeback_MPKI 0
Core_0_L1I_writeback_miss_rate 0
Core_0_L1I_prefetch_requested 0
Core_0_L1I_prefetch_issued 0
Core_0_L1I_prefetch_useful 0
Core_0_L1I_prefetch_useless 0
Core_0_L1I_prefetch_late 0
Core_0_L1I_prefetch_accuracy 0
Core_0_L1I_prefetch_coverage 0

Core_0_L1D_total_access 14430913
Core_0_L1D_total_hit 8710994
Core_0_L1D_total_miss 5719919
Core_0_L1D_total_MPKI 114.398
Core_0_L1D_total_miss_rate 0.396366
Core_0_L1D_demand_access 14103031
Core_0_L1D_demand_hit 8383112
Core_0_L1D_demand_miss 5719919
Core_0_L1D_demand_MPKI 114.398
Core_0_L1D_demand_miss_rate 0.405581
Core_0_L1D_load_access 14103031
Core_0_L1D_load_hit 8383112
Core_0_L1D_load_miss 5719919
Core_0_L1D_load_MPKI 114.398
Core_0_L1D_load_miss_rate 0.405581
Core_0_L1D_rfo_access 0
Core_0_L1D_rfo_hit 0
Core_0_L1D_rfo_miss 0
Core_0_L1D_rfo_MPKI 0
Core_0_L1D_rfo_miss_rate 0
Core_0_L1D_prefetch_access 0
Core_0_L1D_prefetch_hit 0
Core_0_L1D_prefetch_miss 0
Core_0_L1D_prefetch_MPKI 0
Core_0_L1D_prefetch_miss_rate 0
Core_0_L1D_writeback_access 327882
Core_0_L1D_writeback_hit 327882
Core_0_L1D_writeback_miss 0
Core_0_L1D_writeback_MPKI 0
Core_0_L1D_writeback_miss_rate 0
Core_0_L1D_prefetch_requested 0
Core_0_L1D_prefetch_issued 0
Core_0_L1D_prefetch_useful 0
Core_0_L1D_prefetch_useless 0
Core_0_L1D_prefetch_late 0
Core_0_L1D_prefetch_accuracy 0
Core_0_L1D_prefetch_coverage 0

Core_0_L2C_total_access 4358480
Core_0_L2C_total_hit 1463104
Core_0_L2C_total_miss 2895376
Core_0_L2C_total_MPKI 57.9075
Core_0_L2C_total_miss_rate 0.664309
Core_0_L2C_demand_access 4337981
Core_0_L2C_demand_hit 1442624
Core_0_L2C_demand_miss 2895357
Core_0_L2C_demand_MPKI 57.9071
Core_0_L2C_demand_miss_rate 0.667443
Core_0_L2C_load_access 4337981
Core_0_L2C_load_hit 1442624
Core_0_L2C_load_miss 2895357
Core_0_L2C_load_MPKI 57.9071
Core_0_L2C_load_miss_rate 0.667443
Core_0_L2C_rfo_access 0
Core_0_L2C_rfo_hit 0
Core_0_L2C_rfo_miss 0
Core_0_L2C_rfo_MPKI 0
Core_0_L2C_rfo_miss_rate 0
Core_0_L2C_prefetch_access 0
Core_0_L2C_prefetch_hit 0
Core_0_L2C_prefetch_miss 0
Core_0_L2C_prefetch_MPKI 0
Core_0_L2C_prefetch_miss_rate 0
Core_0_L2C_writeback_access 20499
Core_0_L2C_writeback_hit 20480
Core_0_L2C_writeback_miss 19
Core_0_L2C_writeback_MPKI 0.00038
Core_0_L2C_writeback_miss_rate 0.000926874
Core_0_L2C_prefetch_requested 0
Core_0_L2C_prefetch_issued 0
Core_0_L2C_prefetch_useful 0
Core_0_L2C_prefetch_useless 0
Core_0_L2C_prefetch_late 0
Core_0_L2C_prefetch_accuracy 0
Core_0_L2C_prefetch_coverage 0

Core_0_LLC_total_access 2915711
Core_0_LLC_total_hit 1685320
Core_0_LLC_total_miss 1230391
Core_0_LLC_total_MPKI 24.6078
Core_0_LLC_total_miss_rate 0.421987
Core_0_LLC_demand_access 2895357
Core_0_LLC_demand_hit 1678363
Core_0_LLC_demand_miss 1216994
Core_0_LLC_demand_MPKI 24.3399
Core_0_LLC_demand_miss_rate 0.420326
Core_0_LLC_load_access 2895357
Core_0_LLC_load_hit 1678363
Core_0_LLC_load_miss 1216994
Core_0_LLC_load_MPKI 24.3399
Core_0_LLC_load_miss_rate 0.420326
Core_0_LLC_rfo_access 0
Core_0_LLC_rfo_hit 0
Core_0_LLC_rfo_miss 0
Core_0_LLC_rfo_MPKI 0
Core_0_LLC_rfo_miss_rate 0
Core_0_LLC_prefetch_access 0
Core_0_LLC_prefetch_hit 0
Core_0_LLC_prefetch_miss 0
Core_0_LLC_prefetch_MPKI 0
Core_0_LLC_prefetch_miss_rate 0
Core_0_LLC_writeback_access 20354
Core_0_LLC_writeback_hit 6957
Core_0_LLC_writeback_miss 13397
Core_0_LLC_writeback_MPKI 0.26794
Core_0_LLC_writeback_miss_rate 0.6582
Core_0_LLC_prefetch_requested 0
Core_0_LLC_prefetch_issued 0
Core_0_LLC_prefetch_useful 0
Core_0_LLC_prefetch_useless 0
Core_0_LLC_prefetch_late 0
Core_0_LLC_prefetch_accuracy 0
Core_0_LLC_prefetch_coverage 0

[DRAM Statistics]
Channel_0_RQ_row_buffer_hit 4434
Channel_0_RQ_row_buffer_miss 1213382
Channel_0_WQ_row_buffer_hit 7715
Channel_0_WQ_row_buffer_miss 10908
Channel_0_WQ_full 0
Channel_0_dbus_congested 2041953
DRAM_total_RQ_row_buffer_hit 4434
DRAM_total_RQ_row_buffer_miss 1213382
DRAM_total_WQ_row_buffer_hit 7715
DRAM_total_WQ_row_buffer_miss 10908
DRAM_total_WQ_full 0
DRAM_total_dbus_congested 2041953
DRAM_avg_congested_cycle 13.2559

======STLB miss causes ========
Core_0_STLB_miss_cause_breakdown
Core_0_STLB_cause_Demand_Data_miss 6318
Core_0_STLB_cause_Demand_Data_miss_rate 0.00173259
Core_0_STLB_cause_Demand_Instruction_miss 0
Core_0_STLB_cause_Demand_Instruction_miss_rate 0
Core_0_STLB_cause_L1D_Prefetch_miss 0
Core_0_STLB_cause_L1D_Prefetch_miss_rate 0
Core_0_STLB_cause_L1I_Prefetch_miss 0
Core_0_STLB_cause_L1I_Prefetch_miss_rate 0
Core_0_STLB_cause_Other_miss 0
Core_0_STLB_cause_Other_miss_rate 0
Core_0_STLB_Demand_miss 6318
Core_0_STLB_Demand_miss_rate 0.00173259
Core_0_STLB_L1D_Prefetch_miss 0
Core_0_STLB_L1D_Prefetch_miss_rate 0
Core_0_STLB_Other_miss 0
Core_0_STLB_Other_miss_rate 0
