[VMEM] WARNING: physical memory size is smaller than virtual memory size.

*** ChampSim Multicore Out-of-Order Simulator ***
Warmup Instructions: 20000000
Simulation Instructions: 50000000
Number of CPUs: 1
Page size: 4096
Core 0: /data0/tzh/champsim_traces/Ligra/ligra_PageRank.com-lj.ungraph.gcc_6.3.0_O3.drop_51000M.length_250M.champsimtrace.xz
Off-chip DRAM Size: 4 GiB Channels: 1 Width: 64-bit Data Rate: 3205 MT/s
Warmup halting CPU 0 at instruction 20000005 cycle 6607503 for remainder of phase
Warmup finished CPU 0 instructions: 20000005 cycles: 6607503 cumulative IPC: 3.027 (Simulation time: 00 hr 01 min 13 sec)
Warmup complete CPU 0 instructions: 20000005 cycles: 6607503 cumulative IPC: 3.027 (Simulation time: 00 hr 01 min 13 sec)
Simulation finished CPU 0 instructions: 50000004 cycles: 128946082 cumulative IPC: 0.3878 (Simulation time: 00 hr 15 min 25 sec)
Simulation complete CPU 0 instructions: 50000004 cycles: 128946082 cumulative IPC: 0.3878 (Simulation time: 00 hr 15 min 25 sec)

ChampSim completed all CPUs

=== Simulation ===
CPU 0 runs /data0/tzh/champsim_traces/Ligra/ligra_PageRank.com-lj.ungraph.gcc_6.3.0_O3.drop_51000M.length_250M.champsimtrace.xz

Region of Interest Statistics

CPU 0 cumulative IPC: 0.3878 instructions: 50000004 cycles: 128946082
CPU 0 Branch Prediction Accuracy: 99.63% MPKI: 0.9158 Average ROB Occupancy at Mispredict: 190.2
Branch type MPKI
BRANCH_DIRECT_JUMP: 0.0002
BRANCH_INDIRECT: 0
BRANCH_CONDITIONAL: 0.9154
BRANCH_DIRECT_CALL: 0.00012
BRANCH_INDIRECT_CALL: 0
BRANCH_RETURN: 0.00012

cpu0->cpu0_STLB TOTAL        ACCESS:     111054 HIT:      95222 MISS:      15832 MSHR_MERGE:          0
cpu0->cpu0_STLB LOAD         ACCESS:     111054 HIT:      95222 MISS:      15832 MSHR_MERGE:          0
cpu0->cpu0_STLB RFO          ACCESS:          0 HIT:          0 MISS:          0 MSHR_MERGE:          0
cpu0->cpu0_STLB PREFETCH     ACCESS:          0 HIT:          0 MISS:          0 MSHR_MERGE:          0
cpu0->cpu0_STLB WRITE        ACCESS:          0 HIT:          0 MISS:          0 MSHR_MERGE:          0
cpu0->cpu0_STLB TRANSLATION  ACCESS:          0 HIT:          0 MISS:          0 MSHR_MERGE:          0
cpu0->cpu0_STLB PREFETCH REQUESTED:          0 ISSUED:          0 USEFUL:          0 USELESS:          0 LATE:          0
cpu0->cpu0_STLB AVERAGE MISS LATENCY: 72.84 cycles
cpu0->cpu0_L2C TOTAL        ACCESS:    1760781 HIT:     722680 MISS:    1038101 MSHR_MERGE:          0
cpu0->cpu0_L2C LOAD         ACCESS:     742259 HIT:     211135 MISS:     531124 MSHR_MERGE:          0
cpu0->cpu0_L2C RFO          ACCESS:     505337 HIT:        378 MISS:     504959 MSHR_MERGE:          0
cpu0->cpu0_L2C PREFETCH     ACCESS:          0 HIT:          0 MISS:          0 MSHR_MERGE:          0
cpu0->cpu0_L2C WRITE        ACCESS:     510604 HIT:     510604 MISS:          0 MSHR_MERGE:          0
cpu0->cpu0_L2C TRANSLATION  ACCESS:       2581 HIT:        563 MISS:       2018 MSHR_MERGE:          0
cpu0->cpu0_L2C PREFETCH REQUESTED:          0 ISSUED:          0 USEFUL:          0 USELESS:          0 LATE:          0
cpu0->cpu0_L2C AVERAGE MISS LATENCY: 282.7 cycles
cpu0->cpu0_L1I TOTAL        ACCESS:    7340843 HIT:    7340778 MISS:         65 MSHR_MERGE:          6
cpu0->cpu0_L1I LOAD         ACCESS:    7340843 HIT:    7340778 MISS:         65 MSHR_MERGE:          6
cpu0->cpu0_L1I RFO          ACCESS:          0 HIT:          0 MISS:          0 MSHR_MERGE:          0
cpu0->cpu0_L1I PREFETCH     ACCESS:          0 HIT:          0 MISS:          0 MSHR_MERGE:          0
cpu0->cpu0_L1I WRITE        ACCESS:          0 HIT:          0 MISS:          0 MSHR_MERGE:          0
cpu0->cpu0_L1I TRANSLATION  ACCESS:          0 HIT:          0 MISS:          0 MSHR_MERGE:          0
cpu0->cpu0_L1I PREFETCH REQUESTED:          0 ISSUED:          0 USEFUL:          0 USELESS:          0 LATE:          0
cpu0->cpu0_L1I AVERAGE MISS LATENCY: 191.4 cycles
cpu0->cpu0_L1D TOTAL        ACCESS:   13602174 HIT:    6536621 MISS:    7065553 MSHR_MERGE:    5815435
cpu0->cpu0_L1D LOAD         ACCESS:    9073221 HIT:    6047123 MISS:    3026098 MSHR_MERGE:    2283898
cpu0->cpu0_L1D RFO          ACCESS:          0 HIT:          0 MISS:          0 MSHR_MERGE:          0
cpu0->cpu0_L1D PREFETCH     ACCESS:          0 HIT:          0 MISS:          0 MSHR_MERGE:          0
cpu0->cpu0_L1D WRITE        ACCESS:    4497279 HIT:     460406 MISS:    4036873 MSHR_MERGE:    3531536
cpu0->cpu0_L1D TRANSLATION  ACCESS:      31674 HIT:      29092 MISS:       2582 MSHR_MERGE:          1
cpu0->cpu0_L1D PREFETCH REQUESTED:          0 ISSUED:          0 USEFUL:          0 USELESS:          0 LATE:          0
cpu0->cpu0_L1D AVERAGE MISS LATENCY: 243.6 cycles
cpu0->cpu0_ITLB TOTAL        ACCESS:    7335174 HIT:    7335169 MISS:          5 MSHR_MERGE:          2
cpu0->cpu0_ITLB LOAD         ACCESS:    7335174 HIT:    7335169 MISS:          5 MSHR_MERGE:          2
cpu0->cpu0_ITLB RFO          ACCESS:          0 HIT:          0 MISS:          0 MSHR_MERGE:          0
cpu0->cpu0_ITLB PREFETCH     ACCESS:          0 HIT:          0 MISS:          0 MSHR_MERGE:          0
cpu0->cpu0_ITLB WRITE        ACCESS:          0 HIT:          0 MISS:          0 MSHR_MERGE:          0
cpu0->cpu0_ITLB TRANSLATION  ACCESS:          0 HIT:          0 MISS:          0 MSHR_MERGE:          0
cpu0->cpu0_ITLB PREFETCH REQUESTED:          0 ISSUED:          0 USEFUL:          0 USELESS:          0 LATE:          0
cpu0->cpu0_ITLB AVERAGE MISS LATENCY: 327.3 cycles
cpu0->cpu0_DTLB TOTAL        ACCESS:   13537293 HIT:   13325208 MISS:     212085 MSHR_MERGE:     101034
cpu0->cpu0_DTLB LOAD         ACCESS:   13537293 HIT:   13325208 MISS:     212085 MSHR_MERGE:     101034
cpu0->cpu0_DTLB RFO          ACCESS:          0 HIT:          0 MISS:          0 MSHR_MERGE:          0
cpu0->cpu0_DTLB PREFETCH     ACCESS:          0 HIT:          0 MISS:          0 MSHR_MERGE:          0
cpu0->cpu0_DTLB WRITE        ACCESS:          0 HIT:          0 MISS:          0 MSHR_MERGE:          0
cpu0->cpu0_DTLB TRANSLATION  ACCESS:          0 HIT:          0 MISS:          0 MSHR_MERGE:          0
cpu0->cpu0_DTLB PREFETCH REQUESTED:          0 ISSUED:          0 USEFUL:          0 USELESS:          0 LATE:          0
cpu0->cpu0_DTLB AVERAGE MISS LATENCY: 15.52 cycles
cpu0->LLC TOTAL        ACCESS:    1548151 HIT:     106651 MISS:    1441500 MSHR_MERGE:          0
cpu0->LLC LOAD         ACCESS:     531124 HIT:      26535 MISS:     504589 MSHR_MERGE:          0
cpu0->LLC RFO          ACCESS:     504959 HIT:        280 MISS:     504679 MSHR_MERGE:          0
cpu0->LLC PREFETCH     ACCESS:          0 HIT:          0 MISS:          0 MSHR_MERGE:          0
cpu0->LLC WRITE        ACCESS:     510050 HIT:      79831 MISS:     430219 MSHR_MERGE:          0
cpu0->LLC TRANSLATION  ACCESS:       2018 HIT:          5 MISS:       2013 MSHR_MERGE:          0
cpu0->LLC PREFETCH REQUESTED:          0 ISSUED:          0 USEFUL:          0 USELESS:          0 LATE:          0
cpu0->LLC AVERAGE MISS LATENCY: 194.7 cycles

DRAM Statistics

Channel 0 RQ ROW_BUFFER_HIT:      61337
  ROW_BUFFER_MISS:     949943
  AVG DBUS CONGESTED CYCLE: 10.21
Channel 0 WQ ROW_BUFFER_HIT:     107989
  ROW_BUFFER_MISS:     417189
  FULL:          0
Channel 0 REFRESHES ISSUED:      10746

[ROI Statistics]
[System Configuration]
num_cpus 1
cpu_freq 4000
fetch_width 6
decode_width 6
dispatch_width 6
execute_width 6
lq_width 2
sq_width 2
retire_width 6
scheduler_size 160
branch_mispredict_penalty 1
rob_size 352
lq_size 240
sq_size 112
ifetch_buffer_size 64
decode_buffer_size 32
dispatch_buffer_size 32
register_file_size 288
decode_latency 1
dispatch_latency 1
schedule_latency 0
execute_latency 0
page_size 4096
block_size 64
core_0_itlb_set 16
core_0_itlb_way 4
core_0_itlb_rq_size 16
core_0_itlb_wq_size 16
core_0_itlb_pq_size 0
core_0_itlb_mshr_size 8
core_0_itlb_hit_latency 1
core_0_itlb_fill_latency 1
core_0_itlb_max_tag_check 2
core_0_itlb_max_fill 2
core_0_dtlb_set 16
core_0_dtlb_way 4
core_0_dtlb_rq_size 16
core_0_dtlb_wq_size 16
core_0_dtlb_pq_size 0
core_0_dtlb_mshr_size 8
core_0_dtlb_hit_latency 1
core_0_dtlb_fill_latency 1
core_0_dtlb_max_tag_check 2
core_0_dtlb_max_fill 2
core_0_stlb_set 128
core_0_stlb_way 12
core_0_stlb_rq_size 32
core_0_stlb_wq_size 32
core_0_stlb_pq_size 0
core_0_stlb_mshr_size 16
core_0_stlb_hit_latency 4
core_0_stlb_fill_latency 4
core_0_stlb_max_tag_check 1
core_0_stlb_max_fill 1
core_0_l1i_set 64
core_0_l1i_way 8
core_0_l1i_rq_size 64
core_0_l1i_wq_size 64
core_0_l1i_pq_size 32
core_0_l1i_mshr_size 8
core_0_l1i_hit_latency 2
core_0_l1i_fill_latency 2
core_0_l1i_max_tag_check 2
core_0_l1i_max_fill 2
core_0_l1d_set 64
core_0_l1d_way 12
core_0_l1d_rq_size 64
core_0_l1d_wq_size 64
core_0_l1d_pq_size 8
core_0_l1d_mshr_size 16
core_0_l1d_hit_latency 2
core_0_l1d_fill_latency 3
core_0_l1d_max_tag_check 2
core_0_l1d_max_fill 2
core_0_l2c_set 1024
core_0_l2c_way 8
core_0_l2c_rq_size 32
core_0_l2c_wq_size 32
core_0_l2c_pq_size 16
core_0_l2c_mshr_size 32
core_0_l2c_hit_latency 5
core_0_l2c_fill_latency 5
core_0_l2c_max_tag_check 1
core_0_l2c_max_fill 1
llc_set 2048
llc_way 16
llc_rq_size 32
llc_wq_size 32
llc_pq_size 32
llc_mshr_size 64
llc_hit_latency 10
llc_fill_latency 10
llc_max_tag_check 1
llc_max_fill 1
dram_channels 1
dram_ranks 1
dram_bankgroups 8
dram_banks 4
dram_rows 16384
dram_columns 1024
dram_channel_width 8
dram_rq_size 64
dram_wq_size 64
dram_size 4294967296
core_0_itlb_prefetcher no
core_0_dtlb_prefetcher no
core_0_stlb_prefetcher no
core_0_l1i_prefetcher no
core_0_l1d_prefetcher no
core_0_l2c_prefetcher no
llc_prefetcher no
llc_replacement drrip

Core_0_instructions 50000004
Core_0_cycles 128946082
Core_0_IPC 0.387759
Core_0_branch_prediction_accuracy 99.6254
Core_0_branch_MPKI 0.91584
Core_0_average_ROB_occupancy_at_mispredict 190.162

Core_0_ITLB_total_access 7335174
Core_0_ITLB_total_hit 7335169
Core_0_ITLB_total_miss 5
Core_0_ITLB_total_MPKI 0.0001
Core_0_ITLB_total_miss_rate 6.81647e-07
Core_0_ITLB_demand_access 7335174
Core_0_ITLB_demand_hit 7335169
Core_0_ITLB_demand_miss 5
Core_0_ITLB_demand_MPKI 0.0001
Core_0_ITLB_demand_miss_rate 6.81647e-07
Core_0_ITLB_load_access 7335174
Core_0_ITLB_load_hit 7335169
Core_0_ITLB_load_miss 5
Core_0_ITLB_load_MPKI 0.0001
Core_0_ITLB_load_miss_rate 6.81647e-07
Core_0_ITLB_rfo_access 0
Core_0_ITLB_rfo_hit 0
Core_0_ITLB_rfo_miss 0
Core_0_ITLB_rfo_MPKI 0
Core_0_ITLB_rfo_miss_rate 0
Core_0_ITLB_prefetch_access 0
Core_0_ITLB_prefetch_hit 0
Core_0_ITLB_prefetch_miss 0
Core_0_ITLB_prefetch_MPKI 0
Core_0_ITLB_prefetch_miss_rate 0
Core_0_ITLB_writeback_access 0
Core_0_ITLB_writeback_hit 0
Core_0_ITLB_writeback_miss 0
Core_0_ITLB_writeback_MPKI 0
Core_0_ITLB_writeback_miss_rate 0
Core_0_ITLB_prefetch_requested 0
Core_0_ITLB_prefetch_issued 0
Core_0_ITLB_prefetch_useful 0
Core_0_ITLB_prefetch_useless 0
Core_0_ITLB_prefetch_late 0
Core_0_ITLB_prefetch_accuracy 0
Core_0_ITLB_prefetch_coverage 0

Core_0_DTLB_total_access 13537293
Core_0_DTLB_total_hit 13325208
Core_0_DTLB_total_miss 212085
Core_0_DTLB_total_MPKI 4.2417
Core_0_DTLB_total_miss_rate 0.0156667
Core_0_DTLB_demand_access 13537293
Core_0_DTLB_demand_hit 13325208
Core_0_DTLB_demand_miss 212085
Core_0_DTLB_demand_MPKI 4.2417
Core_0_DTLB_demand_miss_rate 0.0156667
Core_0_DTLB_load_access 13537293
Core_0_DTLB_load_hit 13325208
Core_0_DTLB_load_miss 212085
Core_0_DTLB_load_MPKI 4.2417
Core_0_DTLB_load_miss_rate 0.0156667
Core_0_DTLB_rfo_access 0
Core_0_DTLB_rfo_hit 0
Core_0_DTLB_rfo_miss 0
Core_0_DTLB_rfo_MPKI 0
Core_0_DTLB_rfo_miss_rate 0
Core_0_DTLB_prefetch_access 0
Core_0_DTLB_prefetch_hit 0
Core_0_DTLB_prefetch_miss 0
Core_0_DTLB_prefetch_MPKI 0
Core_0_DTLB_prefetch_miss_rate 0
Core_0_DTLB_writeback_access 0
Core_0_DTLB_writeback_hit 0
Core_0_DTLB_writeback_miss 0
Core_0_DTLB_writeback_MPKI 0
Core_0_DTLB_writeback_miss_rate 0
Core_0_DTLB_prefetch_requested 0
Core_0_DTLB_prefetch_issued 0
Core_0_DTLB_prefetch_useful 0
Core_0_DTLB_prefetch_useless 0
Core_0_DTLB_prefetch_late 0
Core_0_DTLB_prefetch_accuracy 0
Core_0_DTLB_prefetch_coverage 0

Core_0_STLB_total_access 111054
Core_0_STLB_total_hit 95222
Core_0_STLB_total_miss 15832
Core_0_STLB_total_MPKI 0.31664
Core_0_STLB_total_miss_rate 0.142561
Core_0_STLB_demand_access 111054
Core_0_STLB_demand_hit 95222
Core_0_STLB_demand_miss 15832
Core_0_STLB_demand_MPKI 0.31664
Core_0_STLB_demand_miss_rate 0.142561
Core_0_STLB_load_access 111054
Core_0_STLB_load_hit 95222
Core_0_STLB_load_miss 15832
Core_0_STLB_load_MPKI 0.31664
Core_0_STLB_load_miss_rate 0.142561
Core_0_STLB_rfo_access 0
Core_0_STLB_rfo_hit 0
Core_0_STLB_rfo_miss 0
Core_0_STLB_rfo_MPKI 0
Core_0_STLB_rfo_miss_rate 0
Core_0_STLB_prefetch_access 0
Core_0_STLB_prefetch_hit 0
Core_0_STLB_prefetch_miss 0
Core_0_STLB_prefetch_MPKI 0
Core_0_STLB_prefetch_miss_rate 0
Core_0_STLB_writeback_access 0
Core_0_STLB_writeback_hit 0
Core_0_STLB_writeback_miss 0
Core_0_STLB_writeback_MPKI 0
Core_0_STLB_writeback_miss_rate 0
Core_0_STLB_prefetch_requested 0
Core_0_STLB_prefetch_issued 0
Core_0_STLB_prefetch_useful 0
Core_0_STLB_prefetch_useless 0
Core_0_STLB_prefetch_late 0
Core_0_STLB_prefetch_accuracy 0
Core_0_STLB_prefetch_coverage 0

Core_0_L1I_total_access 7340843
Core_0_L1I_total_hit 7340778
Core_0_L1I_total_miss 65
Core_0_L1I_total_MPKI 0.0013
Core_0_L1I_total_miss_rate 8.85457e-06
Core_0_L1I_demand_access 7340843
Core_0_L1I_demand_hit 7340778
Core_0_L1I_demand_miss 65
Core_0_L1I_demand_MPKI 0.0013
Core_0_L1I_demand_miss_rate 8.85457e-06
Core_0_L1I_load_access 7340843
Core_0_L1I_load_hit 7340778
Core_0_L1I_load_miss 65
Core_0_L1I_load_MPKI 0.0013
Core_0_L1I_load_miss_rate 8.85457e-06
Core_0_L1I_rfo_access 0
Core_0_L1I_rfo_hit 0
Core_0_L1I_rfo_miss 0
Core_0_L1I_rfo_MPKI 0
Core_0_L1I_rfo_miss_rate 0
Core_0_L1I_prefetch_access 0
Core_0_L1I_prefetch_hit 0
Core_0_L1I_prefetch_miss 0
Core_0_L1I_prefetch_MPKI 0
Core_0_L1I_prefetch_miss_rate 0
Core_0_L1I_writeback_access 0
Core_0_L1I_writeback_hit 0
Core_0_L1I_writeback_miss 0
Core_0_L1I_writeback_MPKI 0
Core_0_L1I_writeback_miss_rate 0
Core_0_L1I_prefetch_requested 0
Core_0_L1I_prefetch_issued 0
Core_0_L1I_prefetch_useful 0
Core_0_L1I_prefetch_useless 0
Core_0_L1I_prefetch_late 0
Core_0_L1I_prefetch_accuracy 0
Core_0_L1I_prefetch_coverage 0

Core_0_L1D_total_access 13570500
Core_0_L1D_total_hit 6507529
Core_0_L1D_total_miss 7062971
Core_0_L1D_total_MPKI 141.259
Core_0_L1D_total_miss_rate 0.520465
Core_0_L1D_demand_access 9073221
Core_0_L1D_demand_hit 6047123
Core_0_L1D_demand_miss 3026098
Core_0_L1D_demand_MPKI 60.522
Core_0_L1D_demand_miss_rate 0.33352
Core_0_L1D_load_access 9073221
Core_0_L1D_load_hit 6047123
Core_0_L1D_load_miss 3026098
Core_0_L1D_load_MPKI 60.522
Core_0_L1D_load_miss_rate 0.33352
Core_0_L1D_rfo_access 0
Core_0_L1D_rfo_hit 0
Core_0_L1D_rfo_miss 0
Core_0_L1D_rfo_MPKI 0
Core_0_L1D_rfo_miss_rate 0
Core_0_L1D_prefetch_access 0
Core_0_L1D_prefetch_hit 0
Core_0_L1D_prefetch_miss 0
Core_0_L1D_prefetch_MPKI 0
Core_0_L1D_prefetch_miss_rate 0
Core_0_L1D_writeback_access 4497279
Core_0_L1D_writeback_hit 460406
Core_0_L1D_writeback_miss 4036873
Core_0_L1D_writeback_MPKI 80.7375
Core_0_L1D_writeback_miss_rate 0.897626
Core_0_L1D_prefetch_requested 0
Core_0_L1D_prefetch_issued 0
Core_0_L1D_prefetch_useful 0
Core_0_L1D_prefetch_useless 0
Core_0_L1D_prefetch_late 0
Core_0_L1D_prefetch_accuracy 0
Core_0_L1D_prefetch_coverage 0

Core_0_L2C_total_access 1758200
Core_0_L2C_total_hit 722117
Core_0_L2C_total_miss 1036083
Core_0_L2C_total_MPKI 20.7217
Core_0_L2C_total_miss_rate 0.589286
Core_0_L2C_demand_access 1247596
Core_0_L2C_demand_hit 211513
Core_0_L2C_demand_miss 1036083
Core_0_L2C_demand_MPKI 20.7217
Core_0_L2C_demand_miss_rate 0.830464
Core_0_L2C_load_access 742259
Core_0_L2C_load_hit 211135
Core_0_L2C_load_miss 531124
Core_0_L2C_load_MPKI 10.6225
Core_0_L2C_load_miss_rate 0.715551
Core_0_L2C_rfo_access 505337
Core_0_L2C_rfo_hit 378
Core_0_L2C_rfo_miss 504959
Core_0_L2C_rfo_MPKI 10.0992
Core_0_L2C_rfo_miss_rate 0.999252
Core_0_L2C_prefetch_access 0
Core_0_L2C_prefetch_hit 0
Core_0_L2C_prefetch_miss 0
Core_0_L2C_prefetch_MPKI 0
Core_0_L2C_prefetch_miss_rate 0
Core_0_L2C_writeback_access 510604
Core_0_L2C_writeback_hit 510604
Core_0_L2C_writeback_miss 0
Core_0_L2C_writeback_MPKI 0
Core_0_L2C_writeback_miss_rate 0
Core_0_L2C_prefetch_requested 0
Core_0_L2C_prefetch_issued 0
Core_0_L2C_prefetch_useful 0
Core_0_L2C_prefetch_useless 0
Core_0_L2C_prefetch_late 0
Core_0_L2C_prefetch_accuracy 0
Core_0_L2C_prefetch_coverage 0

Core_0_LLC_total_access 1546133
Core_0_LLC_total_hit 106646
Core_0_LLC_total_miss 1439487
Core_0_LLC_total_MPKI 28.7897
Core_0_LLC_total_miss_rate 0.931024
Core_0_LLC_demand_access 1036083
Core_0_LLC_demand_hit 26815
Core_0_LLC_demand_miss 1009268
Core_0_LLC_demand_MPKI 20.1854
Core_0_LLC_demand_miss_rate 0.974119
Core_0_LLC_load_access 531124
Core_0_LLC_load_hit 26535
Core_0_LLC_load_miss 504589
Core_0_LLC_load_MPKI 10.0918
Core_0_LLC_load_miss_rate 0.95004
Core_0_LLC_rfo_access 504959
Core_0_LLC_rfo_hit 280
Core_0_LLC_rfo_miss 504679
Core_0_LLC_rfo_MPKI 10.0936
Core_0_LLC_rfo_miss_rate 0.999445
Core_0_LLC_prefetch_access 0
Core_0_LLC_prefetch_hit 0
Core_0_LLC_prefetch_miss 0
Core_0_LLC_prefetch_MPKI 0
Core_0_LLC_prefetch_miss_rate 0
Core_0_LLC_writeback_access 510050
Core_0_LLC_writeback_hit 79831
Core_0_LLC_writeback_miss 430219
Core_0_LLC_writeback_MPKI 8.60438
Core_0_LLC_writeback_miss_rate 0.843484
Core_0_LLC_prefetch_requested 0
Core_0_LLC_prefetch_issued 0
Core_0_LLC_prefetch_useful 0
Core_0_LLC_prefetch_useless 0
Core_0_LLC_prefetch_late 0
Core_0_LLC_prefetch_accuracy 0
Core_0_LLC_prefetch_coverage 0

[DRAM Statistics]
Channel_0_RQ_row_buffer_hit 61337
Channel_0_RQ_row_buffer_miss 949943
Channel_0_WQ_row_buffer_hit 107989
Channel_0_WQ_row_buffer_miss 417189
Channel_0_WQ_full 0
Channel_0_dbus_congested 5389175
DRAM_total_RQ_row_buffer_hit 61337
DRAM_total_RQ_row_buffer_miss 949943
DRAM_total_WQ_row_buffer_hit 107989
DRAM_total_WQ_row_buffer_miss 417189
DRAM_total_WQ_full 0
DRAM_total_dbus_congested 5389175
DRAM_avg_congested_cycle 10.2084

======STLB miss causes ========
Core_0_STLB_miss_cause_breakdown
Core_0_STLB_cause_Demand_Data_miss 15829
Core_0_STLB_cause_Demand_Data_miss_rate 0.142534
Core_0_STLB_cause_Demand_Instruction_miss 3
Core_0_STLB_cause_Demand_Instruction_miss_rate 2.70139e-05
Core_0_STLB_cause_L1D_Prefetch_miss 0
Core_0_STLB_cause_L1D_Prefetch_miss_rate 0
Core_0_STLB_cause_L1I_Prefetch_miss 0
Core_0_STLB_cause_L1I_Prefetch_miss_rate 0
Core_0_STLB_cause_Other_miss 0
Core_0_STLB_cause_Other_miss_rate 0
Core_0_STLB_Demand_miss 15832
Core_0_STLB_Demand_miss_rate 0.142561
Core_0_STLB_L1D_Prefetch_miss 0
Core_0_STLB_L1D_Prefetch_miss_rate 0
Core_0_STLB_Other_miss 0
Core_0_STLB_Other_miss_rate 0
