[VMEM] WARNING: physical memory size is smaller than virtual memory size.

*** ChampSim Multicore Out-of-Order Simulator ***
Warmup Instructions: 50000000
Simulation Instructions: 100000000
Number of CPUs: 1
Page size: 4096
Core 0: /data0/tzh/champsim_traces/SPEC06/429.mcf-51B.champsimtrace.xz
VBerti Prefetcher
No Crossing Page
BERTI HASH ENTANGLING
BERTI IP MASK ffff
Off-chip DRAM Size: 16 GiB Channels: 1 Width: 64-bit Data Rate: 3205 MT/s
Warmup halting CPU 0 at instruction 50000000 cycle 14137018 for remainder of phase
Warmup finished CPU 0 instructions: 50000000 cycles: 14137018 cumulative IPC: 3.537 (Simulation time: 00 hr 03 min 46 sec)
Warmup complete CPU 0 instructions: 50000000 cycles: 14137018 cumulative IPC: 3.537 (Simulation time: 00 hr 03 min 46 sec)
Simulation CPU 0 warning: IPC 0.040474 < 0.05
Simulation finished CPU 0 instructions: 100000002 cycles: 631686264 cumulative IPC: 0.1583 (Simulation time: 01 hr 07 min 30 sec)
Simulation complete CPU 0 instructions: 100000002 cycles: 631686264 cumulative IPC: 0.1583 (Simulation time: 01 hr 07 min 30 sec)

ChampSim completed all CPUs

=== Simulation ===
CPU 0 runs /data0/tzh/champsim_traces/SPEC06/429.mcf-51B.champsimtrace.xz

Region of Interest Statistics

CPU 0 cumulative IPC: 0.1583 instructions: 100000002 cycles: 631686264
CPU 0 Branch Prediction Accuracy: 94.42% MPKI: 13.38 Average ROB Occupancy at Mispredict: 50.14
Branch type MPKI
BRANCH_DIRECT_JUMP: 0.7003
BRANCH_INDIRECT: 0
BRANCH_CONDITIONAL: 12.68
BRANCH_DIRECT_CALL: 0
BRANCH_INDIRECT_CALL: 0
BRANCH_RETURN: 0

cpu0->cpu0_STLB TOTAL        ACCESS:    7887159 HIT:    6836713 MISS:    1050446 MSHR_MERGE:          0
cpu0->cpu0_STLB LOAD         ACCESS:    7887159 HIT:    6836713 MISS:    1050446 MSHR_MERGE:          0
cpu0->cpu0_STLB RFO          ACCESS:          0 HIT:          0 MISS:          0 MSHR_MERGE:          0
cpu0->cpu0_STLB PREFETCH     ACCESS:          0 HIT:          0 MISS:          0 MSHR_MERGE:          0
cpu0->cpu0_STLB WRITE        ACCESS:          0 HIT:          0 MISS:          0 MSHR_MERGE:          0
cpu0->cpu0_STLB TRANSLATION  ACCESS:          0 HIT:          0 MISS:          0 MSHR_MERGE:          0
cpu0->cpu0_STLB PREFETCH REQUESTED:          0 ISSUED:          0 USEFUL:          0 USELESS:          0 LATE:          0 TOO_EARLY:          0
cpu0->cpu0_STLB AVERAGE MISS LATENCY: 115 cycles
cpu0->cpu0_L2C TOTAL        ACCESS:   13697201 HIT:    6458589 MISS:    7238612 MSHR_MERGE:       3519
cpu0->cpu0_L2C LOAD         ACCESS:    9725492 HIT:    3168056 MISS:    6557436 MSHR_MERGE:        239
cpu0->cpu0_L2C RFO          ACCESS:     317974 HIT:     172791 MISS:     145183 MSHR_MERGE:          0
cpu0->cpu0_L2C PREFETCH     ACCESS:     280407 HIT:     248389 MISS:      32018 MSHR_MERGE:       3280
cpu0->cpu0_L2C WRITE        ACCESS:    2412450 HIT:    2412242 MISS:        208 MSHR_MERGE:          0
cpu0->cpu0_L2C TRANSLATION  ACCESS:     960878 HIT:     457111 MISS:     503767 MSHR_MERGE:          0
cpu0->cpu0_L2C PREFETCH REQUESTED:      40351 ISSUED:      40351 USEFUL:       5737 USELESS:       9237 LATE:        194 TOO_EARLY:       1169
cpu0->cpu0_L2C AVERAGE MISS LATENCY: 195.8 cycles
cpu0->cpu0_L1I TOTAL        ACCESS:    3275249 HIT:    3275249 MISS:          0 MSHR_MERGE:          0
cpu0->cpu0_L1I LOAD         ACCESS:    3275249 HIT:    3275249 MISS:          0 MSHR_MERGE:          0
cpu0->cpu0_L1I RFO          ACCESS:          0 HIT:          0 MISS:          0 MSHR_MERGE:          0
cpu0->cpu0_L1I PREFETCH     ACCESS:          0 HIT:          0 MISS:          0 MSHR_MERGE:          0
cpu0->cpu0_L1I WRITE        ACCESS:          0 HIT:          0 MISS:          0 MSHR_MERGE:          0
cpu0->cpu0_L1I TRANSLATION  ACCESS:          0 HIT:          0 MISS:          0 MSHR_MERGE:          0
cpu0->cpu0_L1I PREFETCH REQUESTED:          0 ISSUED:          0 USEFUL:          0 USELESS:          0 LATE:          0 TOO_EARLY:          0
cpu0->cpu0_L1I AVERAGE MISS LATENCY: - cycles
cpu0->cpu0_L1D TOTAL        ACCESS:   35054872 HIT:   20183265 MISS:   14871607 MSHR_MERGE:    3624632
cpu0->cpu0_L1D LOAD         ACCESS:   24969722 HIT:   11866647 MISS:   13103075 MSHR_MERGE:    3377519
cpu0->cpu0_L1D RFO          ACCESS:          0 HIT:          0 MISS:          0 MSHR_MERGE:          0
cpu0->cpu0_L1D PREFETCH     ACCESS:    2785397 HIT:    2533150 MISS:     252247 MSHR_MERGE:       9686
cpu0->cpu0_L1D WRITE        ACCESS:    4884967 HIT:    4339561 MISS:     545406 MSHR_MERGE:     227426
cpu0->cpu0_L1D TRANSLATION  ACCESS:    2414786 HIT:    1443907 MISS:     970879 MSHR_MERGE:      10001
cpu0->cpu0_L1D PREFETCH REQUESTED:    3071271 ISSUED:    2785391 USEFUL:      21542 USELESS:       6802 LATE:        691 TOO_EARLY:        470
cpu0->cpu0_L1D AVERAGE MISS LATENCY: 137 cycles
cpu0->cpu0_ITLB TOTAL        ACCESS:    3015128 HIT:    3015128 MISS:          0 MSHR_MERGE:          0
cpu0->cpu0_ITLB LOAD         ACCESS:    3015128 HIT:    3015128 MISS:          0 MSHR_MERGE:          0
cpu0->cpu0_ITLB RFO          ACCESS:          0 HIT:          0 MISS:          0 MSHR_MERGE:          0
cpu0->cpu0_ITLB PREFETCH     ACCESS:          0 HIT:          0 MISS:          0 MSHR_MERGE:          0
cpu0->cpu0_ITLB WRITE        ACCESS:          0 HIT:          0 MISS:          0 MSHR_MERGE:          0
cpu0->cpu0_ITLB TRANSLATION  ACCESS:          0 HIT:          0 MISS:          0 MSHR_MERGE:          0
cpu0->cpu0_ITLB PREFETCH REQUESTED:          0 ISSUED:          0 USEFUL:          0 USELESS:          0 LATE:          0 TOO_EARLY:          0
cpu0->cpu0_ITLB AVERAGE MISS LATENCY: - cycles
cpu0->cpu0_DTLB TOTAL        ACCESS:   31193833 HIT:   18706403 MISS:   12487430 MSHR_MERGE:    4600272
cpu0->cpu0_DTLB LOAD         ACCESS:   31193833 HIT:   18706403 MISS:   12487430 MSHR_MERGE:    4600272
cpu0->cpu0_DTLB RFO          ACCESS:          0 HIT:          0 MISS:          0 MSHR_MERGE:          0
cpu0->cpu0_DTLB PREFETCH     ACCESS:          0 HIT:          0 MISS:          0 MSHR_MERGE:          0
cpu0->cpu0_DTLB WRITE        ACCESS:          0 HIT:          0 MISS:          0 MSHR_MERGE:          0
cpu0->cpu0_DTLB TRANSLATION  ACCESS:          0 HIT:          0 MISS:          0 MSHR_MERGE:          0
cpu0->cpu0_DTLB PREFETCH REQUESTED:          0 ISSUED:          0 USEFUL:          0 USELESS:          0 LATE:          0 TOO_EARLY:          0
cpu0->cpu0_DTLB AVERAGE MISS LATENCY: 20.45 cycles
cpu0->LLC TOTAL        ACCESS:    8772202 HIT:    2261499 MISS:    6510703 MSHR_MERGE:          6
cpu0->LLC LOAD         ACCESS:    6557197 HIT:    1286337 MISS:    5270860 MSHR_MERGE:          0
cpu0->LLC RFO          ACCESS:     145183 HIT:      48195 MISS:      96988 MSHR_MERGE:          0
cpu0->LLC PREFETCH     ACCESS:      28738 HIT:       1663 MISS:      27075 MSHR_MERGE:          6
cpu0->LLC WRITE        ACCESS:    1537317 HIT:     782923 MISS:     754394 MSHR_MERGE:          0
cpu0->LLC TRANSLATION  ACCESS:     503767 HIT:     142381 MISS:     361386 MSHR_MERGE:          0
cpu0->LLC PREFETCH REQUESTED:          0 ISSUED:          0 USEFUL:          0 USELESS:          0 LATE:          0 TOO_EARLY:          0
cpu0->LLC AVERAGE MISS LATENCY: 201.1 cycles

DRAM Statistics

Channel 0 RQ ROW_BUFFER_HIT:       8298
  ROW_BUFFER_MISS:    5747255
  AVG DBUS CONGESTED CYCLE: 8.671
Channel 0 WQ ROW_BUFFER_HIT:     376110
  ROW_BUFFER_MISS:     889058
  FULL:          0
Channel 0 REFRESHES ISSUED:      52640

[ROI Statistics]
[System Configuration]
num_cpus 1
cpu_freq 4000
fetch_width 6
decode_width 6
dispatch_width 6
execute_width 6
lq_width 2
sq_width 2
retire_width 6
scheduler_size 128
branch_mispredict_penalty 15
rob_size 352
lq_size 128
sq_size 72
ifetch_buffer_size 64
decode_buffer_size 32
dispatch_buffer_size 32
register_file_size 288
decode_latency 1
dispatch_latency 1
schedule_latency 1
execute_latency 1
page_size 4096
block_size 64
core_0_itlb_set 16
core_0_itlb_way 4
core_0_itlb_rq_size 16
core_0_itlb_wq_size 16
core_0_itlb_pq_size 0
core_0_itlb_mshr_size 8
core_0_itlb_hit_latency 1
core_0_itlb_fill_latency 1
core_0_itlb_max_tag_check 2
core_0_itlb_max_fill 2
core_0_dtlb_set 16
core_0_dtlb_way 4
core_0_dtlb_rq_size 16
core_0_dtlb_wq_size 16
core_0_dtlb_pq_size 0
core_0_dtlb_mshr_size 8
core_0_dtlb_hit_latency 1
core_0_dtlb_fill_latency 1
core_0_dtlb_max_tag_check 2
core_0_dtlb_max_fill 2
core_0_stlb_set 128
core_0_stlb_way 12
core_0_stlb_rq_size 32
core_0_stlb_wq_size 32
core_0_stlb_pq_size 0
core_0_stlb_mshr_size 16
core_0_stlb_hit_latency 4
core_0_stlb_fill_latency 4
core_0_stlb_max_tag_check 1
core_0_stlb_max_fill 1
core_0_l1i_set 64
core_0_l1i_way 8
core_0_l1i_rq_size 64
core_0_l1i_wq_size 64
core_0_l1i_pq_size 32
core_0_l1i_mshr_size 8
core_0_l1i_hit_latency 2
core_0_l1i_fill_latency 2
core_0_l1i_max_tag_check 2
core_0_l1i_max_fill 2
core_0_l1d_set 64
core_0_l1d_way 12
core_0_l1d_rq_size 64
core_0_l1d_wq_size 64
core_0_l1d_pq_size 8
core_0_l1d_mshr_size 16
core_0_l1d_hit_latency 2
core_0_l1d_fill_latency 3
core_0_l1d_max_tag_check 2
core_0_l1d_max_fill 2
core_0_l2c_set 1024
core_0_l2c_way 8
core_0_l2c_rq_size 32
core_0_l2c_wq_size 32
core_0_l2c_pq_size 16
core_0_l2c_mshr_size 32
core_0_l2c_hit_latency 5
core_0_l2c_fill_latency 5
core_0_l2c_max_tag_check 1
core_0_l2c_max_fill 1
llc_set 2048
llc_way 16
llc_rq_size 32
llc_wq_size 32
llc_pq_size 32
llc_mshr_size 64
llc_hit_latency 10
llc_fill_latency 10
llc_max_tag_check 1
llc_max_fill 1
dram_channels 1
dram_ranks 1
dram_bankgroups 8
dram_banks 4
dram_rows 65536
dram_columns 1024
dram_channel_width 8
dram_rq_size 64
dram_wq_size 64
dram_size 17179869184
core_0_itlb_prefetcher no
core_0_dtlb_prefetcher no
core_0_stlb_prefetcher no
core_0_l1i_prefetcher next_line
core_0_l1d_prefetcher vberti_nocross
core_0_l2c_prefetcher ip_stride
llc_prefetcher no
llc_replacement drrip

Core_0_instructions 100000002
Core_0_cycles 631686264
Core_0_IPC 0.158306
Core_0_branch_prediction_accuracy 94.423
Core_0_branch_MPKI 13.38
Core_0_average_ROB_occupancy_at_mispredict 50.1423

Core_0_ITLB_total_access 3015128
Core_0_ITLB_total_hit 3015128
Core_0_ITLB_total_miss 0
Core_0_ITLB_total_MPKI 0
Core_0_ITLB_total_miss_rate 0
Core_0_ITLB_demand_access 3015128
Core_0_ITLB_demand_hit 3015128
Core_0_ITLB_demand_miss 0
Core_0_ITLB_demand_MPKI 0
Core_0_ITLB_demand_miss_rate 0
Core_0_ITLB_load_access 3015128
Core_0_ITLB_load_hit 3015128
Core_0_ITLB_load_miss 0
Core_0_ITLB_load_MPKI 0
Core_0_ITLB_load_miss_rate 0
Core_0_ITLB_rfo_access 0
Core_0_ITLB_rfo_hit 0
Core_0_ITLB_rfo_miss 0
Core_0_ITLB_rfo_MPKI 0
Core_0_ITLB_rfo_miss_rate 0
Core_0_ITLB_prefetch_access 0
Core_0_ITLB_prefetch_hit 0
Core_0_ITLB_prefetch_miss 0
Core_0_ITLB_prefetch_MPKI 0
Core_0_ITLB_prefetch_miss_rate 0
Core_0_ITLB_writeback_access 0
Core_0_ITLB_writeback_hit 0
Core_0_ITLB_writeback_miss 0
Core_0_ITLB_writeback_MPKI 0
Core_0_ITLB_writeback_miss_rate 0
Core_0_ITLB_prefetch_requested 0
Core_0_ITLB_prefetch_issued 0
Core_0_ITLB_prefetch_useful 0
Core_0_ITLB_prefetch_useless 0
Core_0_ITLB_prefetch_late 0
Core_0_ITLB_prefetch_fill 0
Core_0_ITLB_prefetch_too_early 0
Core_0_ITLB_prefetch_too_early_among_fill 0
Core_0_ITLB_prefetch_too_early_among_useless 0
Core_0_ITLB_prefetch_pollution_evict 0
Core_0_ITLB_prefetch_pollution_demand 0
Core_0_ITLB_prefetch_pollution_among_prefetch_fill 0
Core_0_ITLB_prefetch_accuracy 0
Core_0_ITLB_prefetch_coverage 0

Core_0_DTLB_total_access 31193833
Core_0_DTLB_total_hit 18706403
Core_0_DTLB_total_miss 12487430
Core_0_DTLB_total_MPKI 124.874
Core_0_DTLB_total_miss_rate 0.400317
Core_0_DTLB_demand_access 31193833
Core_0_DTLB_demand_hit 18706403
Core_0_DTLB_demand_miss 12487430
Core_0_DTLB_demand_MPKI 124.874
Core_0_DTLB_demand_miss_rate 0.400317
Core_0_DTLB_load_access 31193833
Core_0_DTLB_load_hit 18706403
Core_0_DTLB_load_miss 12487430
Core_0_DTLB_load_MPKI 124.874
Core_0_DTLB_load_miss_rate 0.400317
Core_0_DTLB_rfo_access 0
Core_0_DTLB_rfo_hit 0
Core_0_DTLB_rfo_miss 0
Core_0_DTLB_rfo_MPKI 0
Core_0_DTLB_rfo_miss_rate 0
Core_0_DTLB_prefetch_access 0
Core_0_DTLB_prefetch_hit 0
Core_0_DTLB_prefetch_miss 0
Core_0_DTLB_prefetch_MPKI 0
Core_0_DTLB_prefetch_miss_rate 0
Core_0_DTLB_writeback_access 0
Core_0_DTLB_writeback_hit 0
Core_0_DTLB_writeback_miss 0
Core_0_DTLB_writeback_MPKI 0
Core_0_DTLB_writeback_miss_rate 0
Core_0_DTLB_prefetch_requested 0
Core_0_DTLB_prefetch_issued 0
Core_0_DTLB_prefetch_useful 0
Core_0_DTLB_prefetch_useless 0
Core_0_DTLB_prefetch_late 0
Core_0_DTLB_prefetch_fill 0
Core_0_DTLB_prefetch_too_early 0
Core_0_DTLB_prefetch_too_early_among_fill 0
Core_0_DTLB_prefetch_too_early_among_useless 0
Core_0_DTLB_prefetch_pollution_evict 0
Core_0_DTLB_prefetch_pollution_demand 0
Core_0_DTLB_prefetch_pollution_among_prefetch_fill 0
Core_0_DTLB_prefetch_accuracy 0
Core_0_DTLB_prefetch_coverage 0

Core_0_STLB_total_access 7887159
Core_0_STLB_total_hit 6836713
Core_0_STLB_total_miss 1050446
Core_0_STLB_total_MPKI 10.5045
Core_0_STLB_total_miss_rate 0.133184
Core_0_STLB_demand_access 7887159
Core_0_STLB_demand_hit 6836713
Core_0_STLB_demand_miss 1050446
Core_0_STLB_demand_MPKI 10.5045
Core_0_STLB_demand_miss_rate 0.133184
Core_0_STLB_load_access 7887159
Core_0_STLB_load_hit 6836713
Core_0_STLB_load_miss 1050446
Core_0_STLB_load_MPKI 10.5045
Core_0_STLB_load_miss_rate 0.133184
Core_0_STLB_rfo_access 0
Core_0_STLB_rfo_hit 0
Core_0_STLB_rfo_miss 0
Core_0_STLB_rfo_MPKI 0
Core_0_STLB_rfo_miss_rate 0
Core_0_STLB_prefetch_access 0
Core_0_STLB_prefetch_hit 0
Core_0_STLB_prefetch_miss 0
Core_0_STLB_prefetch_MPKI 0
Core_0_STLB_prefetch_miss_rate 0
Core_0_STLB_writeback_access 0
Core_0_STLB_writeback_hit 0
Core_0_STLB_writeback_miss 0
Core_0_STLB_writeback_MPKI 0
Core_0_STLB_writeback_miss_rate 0
Core_0_STLB_prefetch_requested 0
Core_0_STLB_prefetch_issued 0
Core_0_STLB_prefetch_useful 0
Core_0_STLB_prefetch_useless 0
Core_0_STLB_prefetch_late 0
Core_0_STLB_prefetch_fill 0
Core_0_STLB_prefetch_too_early 0
Core_0_STLB_prefetch_too_early_among_fill 0
Core_0_STLB_prefetch_too_early_among_useless 0
Core_0_STLB_prefetch_pollution_evict 0
Core_0_STLB_prefetch_pollution_demand 0
Core_0_STLB_prefetch_pollution_among_prefetch_fill 0
Core_0_STLB_prefetch_accuracy 0
Core_0_STLB_prefetch_coverage 0

Core_0_L1I_total_access 3275249
Core_0_L1I_total_hit 3275249
Core_0_L1I_total_miss 0
Core_0_L1I_total_MPKI 0
Core_0_L1I_total_miss_rate 0
Core_0_L1I_demand_access 3275249
Core_0_L1I_demand_hit 3275249
Core_0_L1I_demand_miss 0
Core_0_L1I_demand_MPKI 0
Core_0_L1I_demand_miss_rate 0
Core_0_L1I_load_access 3275249
Core_0_L1I_load_hit 3275249
Core_0_L1I_load_miss 0
Core_0_L1I_load_MPKI 0
Core_0_L1I_load_miss_rate 0
Core_0_L1I_rfo_access 0
Core_0_L1I_rfo_hit 0
Core_0_L1I_rfo_miss 0
Core_0_L1I_rfo_MPKI 0
Core_0_L1I_rfo_miss_rate 0
Core_0_L1I_prefetch_access 0
Core_0_L1I_prefetch_hit 0
Core_0_L1I_prefetch_miss 0
Core_0_L1I_prefetch_MPKI 0
Core_0_L1I_prefetch_miss_rate 0
Core_0_L1I_writeback_access 0
Core_0_L1I_writeback_hit 0
Core_0_L1I_writeback_miss 0
Core_0_L1I_writeback_MPKI 0
Core_0_L1I_writeback_miss_rate 0
Core_0_L1I_prefetch_requested 0
Core_0_L1I_prefetch_issued 0
Core_0_L1I_prefetch_useful 0
Core_0_L1I_prefetch_useless 0
Core_0_L1I_prefetch_late 0
Core_0_L1I_prefetch_fill 0
Core_0_L1I_prefetch_too_early 0
Core_0_L1I_prefetch_too_early_among_fill 0
Core_0_L1I_prefetch_too_early_among_useless 0
Core_0_L1I_prefetch_pollution_evict 0
Core_0_L1I_prefetch_pollution_demand 0
Core_0_L1I_prefetch_pollution_among_prefetch_fill 0
Core_0_L1I_prefetch_accuracy 0
Core_0_L1I_prefetch_coverage 0

Core_0_L1D_total_access 32640086
Core_0_L1D_total_hit 18739358
Core_0_L1D_total_miss 13900728
Core_0_L1D_total_MPKI 139.007
Core_0_L1D_total_miss_rate 0.425879
Core_0_L1D_demand_access 24969722
Core_0_L1D_demand_hit 11866647
Core_0_L1D_demand_miss 13103075
Core_0_L1D_demand_MPKI 131.031
Core_0_L1D_demand_miss_rate 0.524759
Core_0_L1D_load_access 24969722
Core_0_L1D_load_hit 11866647
Core_0_L1D_load_miss 13103075
Core_0_L1D_load_MPKI 131.031
Core_0_L1D_load_miss_rate 0.524759
Core_0_L1D_rfo_access 0
Core_0_L1D_rfo_hit 0
Core_0_L1D_rfo_miss 0
Core_0_L1D_rfo_MPKI 0
Core_0_L1D_rfo_miss_rate 0
Core_0_L1D_prefetch_access 2785397
Core_0_L1D_prefetch_hit 2533150
Core_0_L1D_prefetch_miss 252247
Core_0_L1D_prefetch_MPKI 2.52247
Core_0_L1D_prefetch_miss_rate 0.0905605
Core_0_L1D_writeback_access 4884967
Core_0_L1D_writeback_hit 4339561
Core_0_L1D_writeback_miss 545406
Core_0_L1D_writeback_MPKI 5.45406
Core_0_L1D_writeback_miss_rate 0.11165
Core_0_L1D_prefetch_requested 3071271
Core_0_L1D_prefetch_issued 2785391
Core_0_L1D_prefetch_useful 21542
Core_0_L1D_prefetch_useless 6802
Core_0_L1D_prefetch_late 691
Core_0_L1D_prefetch_fill 27652
Core_0_L1D_prefetch_too_early 470
Core_0_L1D_prefetch_too_early_among_fill 0.016997
Core_0_L1D_prefetch_too_early_among_useless 0.0690973
Core_0_L1D_prefetch_pollution_evict 22189
Core_0_L1D_prefetch_pollution_demand 22188
Core_0_L1D_prefetch_pollution_among_prefetch_fill 0.802437
Core_0_L1D_prefetch_accuracy 0.00773392
Core_0_L1D_prefetch_coverage 0.00164134

Core_0_L2C_total_access 12736323
Core_0_L2C_total_hit 6001478
Core_0_L2C_total_miss 6734845
Core_0_L2C_total_MPKI 67.3484
Core_0_L2C_total_miss_rate 0.52879
Core_0_L2C_demand_access 10043466
Core_0_L2C_demand_hit 3340847
Core_0_L2C_demand_miss 6702619
Core_0_L2C_demand_MPKI 67.0262
Core_0_L2C_demand_miss_rate 0.667361
Core_0_L2C_load_access 9725492
Core_0_L2C_load_hit 3168056
Core_0_L2C_load_miss 6557436
Core_0_L2C_load_MPKI 65.5744
Core_0_L2C_load_miss_rate 0.674252
Core_0_L2C_rfo_access 317974
Core_0_L2C_rfo_hit 172791
Core_0_L2C_rfo_miss 145183
Core_0_L2C_rfo_MPKI 1.45183
Core_0_L2C_rfo_miss_rate 0.456588
Core_0_L2C_prefetch_access 280407
Core_0_L2C_prefetch_hit 248389
Core_0_L2C_prefetch_miss 32018
Core_0_L2C_prefetch_MPKI 0.32018
Core_0_L2C_prefetch_miss_rate 0.114184
Core_0_L2C_writeback_access 2412450
Core_0_L2C_writeback_hit 2412242
Core_0_L2C_writeback_miss 208
Core_0_L2C_writeback_MPKI 0.00208
Core_0_L2C_writeback_miss_rate 8.62194e-05
Core_0_L2C_prefetch_requested 40351
Core_0_L2C_prefetch_issued 40351
Core_0_L2C_prefetch_useful 5737
Core_0_L2C_prefetch_useless 9237
Core_0_L2C_prefetch_late 194
Core_0_L2C_prefetch_fill 28371
Core_0_L2C_prefetch_too_early 1169
Core_0_L2C_prefetch_too_early_among_fill 0.041204
Core_0_L2C_prefetch_too_early_among_useless 0.126556
Core_0_L2C_prefetch_pollution_evict 23425
Core_0_L2C_prefetch_pollution_demand 23415
Core_0_L2C_prefetch_pollution_among_prefetch_fill 0.825667
Core_0_L2C_prefetch_accuracy 0.142177
Core_0_L2C_prefetch_coverage 0.000855202

Core_0_LLC_total_access 8268435
Core_0_LLC_total_hit 2119118
Core_0_LLC_total_miss 6149317
Core_0_LLC_total_MPKI 61.4932
Core_0_LLC_total_miss_rate 0.74371
Core_0_LLC_demand_access 6702380
Core_0_LLC_demand_hit 1334532
Core_0_LLC_demand_miss 5367848
Core_0_LLC_demand_MPKI 53.6785
Core_0_LLC_demand_miss_rate 0.800887
Core_0_LLC_load_access 6557197
Core_0_LLC_load_hit 1286337
Core_0_LLC_load_miss 5270860
Core_0_LLC_load_MPKI 52.7086
Core_0_LLC_load_miss_rate 0.803828
Core_0_LLC_rfo_access 145183
Core_0_LLC_rfo_hit 48195
Core_0_LLC_rfo_miss 96988
Core_0_LLC_rfo_MPKI 0.96988
Core_0_LLC_rfo_miss_rate 0.66804
Core_0_LLC_prefetch_access 28738
Core_0_LLC_prefetch_hit 1663
Core_0_LLC_prefetch_miss 27075
Core_0_LLC_prefetch_MPKI 0.27075
Core_0_LLC_prefetch_miss_rate 0.942132
Core_0_LLC_writeback_access 1537317
Core_0_LLC_writeback_hit 782923
Core_0_LLC_writeback_miss 754394
Core_0_LLC_writeback_MPKI 7.54394
Core_0_LLC_writeback_miss_rate 0.490721
Core_0_LLC_prefetch_requested 0
Core_0_LLC_prefetch_issued 0
Core_0_LLC_prefetch_useful 0
Core_0_LLC_prefetch_useless 0
Core_0_LLC_prefetch_late 0
Core_0_LLC_prefetch_fill 27069
Core_0_LLC_prefetch_too_early 0
Core_0_LLC_prefetch_too_early_among_fill 0
Core_0_LLC_prefetch_too_early_among_useless 0
Core_0_LLC_prefetch_pollution_evict 19150
Core_0_LLC_prefetch_pollution_demand 19150
Core_0_LLC_prefetch_pollution_among_prefetch_fill 0.707451
Core_0_LLC_prefetch_accuracy 0
Core_0_LLC_prefetch_coverage 0

[DRAM Statistics]
Channel_0_RQ_row_buffer_hit 8298
Channel_0_RQ_row_buffer_miss 5747255
Channel_0_WQ_row_buffer_hit 376110
Channel_0_WQ_row_buffer_miss 889058
Channel_0_WQ_full 0
Channel_0_dbus_congested 16591843
DRAM_total_RQ_row_buffer_hit 8298
DRAM_total_RQ_row_buffer_miss 5747255
DRAM_total_WQ_row_buffer_hit 376110
DRAM_total_WQ_row_buffer_miss 889058
DRAM_total_WQ_full 0
DRAM_total_dbus_congested 16591843
DRAM_avg_congested_cycle 8.67083

====== DRAM_RQ_TRAFFIC ========
DRAM_RQ_READ_TRAFFIC_BREAKDOWN:
data_demand_read.count = 5367848
data_demand_read.share = 93.25%

inst_demand_read.count = 0
inst_demand_read.share = 0.00%

cache_inst_prefetch.count = 0
cache_inst_prefetch.share = 0.00%

cache_data_prefetch.count = 27069
cache_data_prefetch.share = 0.47%

stlb_data_demand.count = 361386
stlb_data_demand.share = 6.28%

stlb_inst_demand.count = 0
stlb_inst_demand.share = 0.00%

stlb_l1i_pref.count = 0
stlb_l1i_pref.share = 0.00%

stlb_l1d_pref.count = 0
stlb_l1d_pref.share = 0.00%

DRAM_RQ_READ_TRAFFIC_SUMMARY:
cache_demand.count = 5367848
cache_demand.share = 93.25%

cache_prefetch.count = 27069
cache_prefetch.share = 0.47%

stlb_demand.count = 361386
stlb_demand.share = 6.28%

stlb_prefetch.count = 0
stlb_prefetch.share = 0.00%

DRAM_RQ_READ_TRAFFIC_DEBUG:
total_classified_read.count = 5756303
unclassified_read.count = 0
total_read_with_other.count = 5756303

classified_plus_unclassified_check.count = 5756303
dram_rq_read_total_observed.count = 5756303
dram_rq_read_total_observed.per_1K_instructions = 57.563

STLB_MISS_PTW_DRAM_TOUCH_BREAKDOWN:
stlb_miss_total.count = 1050445

stlb_miss_touch_dram.count = 363111
stlb_miss_touch_dram.share = 34.57%

stlb_miss_no_dram_touch.count = 687334
stlb_miss_no_dram_touch.share = 65.43%

STLB_MISS_PTW_DRAM_TOUCH_DEBUG:
stlb_miss_touch_plus_no_touch.count = 1050445
stlb_miss_total_check.count = 1050445

======STLB miss causes ========
Core_0_STLB_miss_cause_breakdown
Core_0_STLB_cause_Demand_Data_miss 1050446
Core_0_STLB_cause_Demand_Data_miss_rate 0.133184
Core_0_STLB_cause_Demand_Instruction_miss 0
Core_0_STLB_cause_Demand_Instruction_miss_rate 0
Core_0_STLB_cause_L1D_Prefetch_miss 0
Core_0_STLB_cause_L1D_Prefetch_miss_rate 0
Core_0_STLB_cause_L1D_Prefetch_Same_Page_miss 0
Core_0_STLB_cause_L1D_Prefetch_Same_Page_miss_rate 0
Core_0_STLB_cause_L1D_Prefetch_Cross_Page_miss 0
Core_0_STLB_cause_L1D_Prefetch_Cross_Page_miss_rate 0
Core_0_STLB_cause_L1I_Prefetch_miss 0
Core_0_STLB_cause_L1I_Prefetch_miss_rate 0
Core_0_STLB_cause_Other_miss 0
Core_0_STLB_cause_Other_miss_rate 0
Core_0_STLB_Demand_miss 1050446
Core_0_STLB_Demand_miss_rate 0.133184
Core_0_STLB_L1D_Prefetch_miss 0
Core_0_STLB_L1D_Prefetch_miss_rate 0
Core_0_STLB_Other_miss 0
Core_0_STLB_Other_miss_rate 0

========== vBerti-TLB Cross-page Flow Stats ==========

Core_0_vBerti_Requested 3071271
Core_0_vBerti_Cross_page_prefetch_in_Requested 0
Core_0_vBerti_Same_page_prefetch_in_Requested 3071271
Core_0_vBerti_Cross_page_prefetch_of_Requested 0
Core_0_vBerti_Issued 2785391
Core_0_vBerti_InPQ_Same_page_prefetch 2785391
Core_0_vBerti_InPQ_Cross_page_prefetch 0
Core_0_vBerti_PQ_Drop_Rate 0.093082
Core_0_vBerti_InPQ_Cross_page_prefetch_of_Requested 0
Core_0_vBerti_Cross_page_PQ_Drop_rate 0
Core_0_vBerti_Cross_page_prefetch_of_Issued 0
Core_0_CP_PF_PQFULL_drop 0
Core_0_CP_PF_PQFULL_TLB_rescue_enqueued 0
Core_0_CP_PF_PQFULL_TLB_rescue_issued 0
Core_0_CP_PF_PQFULL_TLB_rescue_translated 0

========= DTLB_vBerti Prefetch Stats =========
Core_0_DTLB_demand_access 29345650
Core_0_DTLB_demand_hit 16858220
Core_0_DTLB_demand_miss 12487430
Core_0_DTLB_demand_mshr_merge 4600272
Core_0_DTLB_demand_fill 7887158
Core_0_DTLB_demand_miss_rate 0.425529
Core_0_DTLB_demand_mpki 124.874
Core_0_DTLB_vberti_prefetch_access 1848183
Core_0_DTLB_vberti_prefetch_hit 1848183
Core_0_DTLB_vberti_prefetch_miss 0
Core_0_DTLB_vberti_prefetch_mshr_merge 0
Core_0_DTLB_vberti_prefetch_fill 0
Core_0_DTLB_vberti_prefetch_miss_rate 0
Core_0_DTLB_vberti_prefetch_mpki 0

=== DTLB_vBerti Same/Cross-page Prefetch Stats ===
Core_0_DTLB_vberti_same_page_prefetch 1848183
Core_0_DTLB_vberti_same_page_prefetch_hit 1848183
Core_0_DTLB_vberti_same_page_prefetch_miss 0
Core_0_DTLB_vberti_same_page_prefetch_mshr_merge 0
Core_0_DTLB_vberti_same_page_prefetch_fill 0
Core_0_DTLB_vberti_same_page_prefetch_miss_rate 0
Core_0_DTLB_vberti_same_page_prefetch_mpki 0
Core_0_DTLB_vberti_cross_page_prefetch 0
Core_0_DTLB_vberti_cross_page_prefetch_hit 0
Core_0_DTLB_vberti_cross_page_prefetch_miss 0
Core_0_DTLB_vberti_cross_page_prefetch_mshr_merge 0
Core_0_DTLB_vberti_cross_page_prefetch_fill 0
Core_0_DTLB_vberti_cross_page_prefetch_miss_rate 0
Core_0_DTLB_vberti_cross_page_prefetch_mpki 0
Core_0_DTLB_same_page_prefetch_miss_rate 0
Core_0_DTLB_same_page_prefetch_mpki 0
Core_0_DTLB_cross_page_prefetch_miss_rate 0
Core_0_DTLB_cross_page_prefetch_mpki 0
Core_0_DTLB_cross_page_prefetch_issued 0
Core_0_DTLB_cross_page_prefetch_lookups 0
Core_0_DTLB_cross_page_prefetch_useful 0
Core_0_DTLB_cross_page_prefetch_useless 0
Core_0_DTLB_cross_page_prefetch_late 0
Core_0_DTLB_cross_page_prefetch_too_early 0
Core_0_DTLB_cross_page_prefetch_too_early_among_fill 0
Core_0_DTLB_cross_page_prefetch_too_early_among_useless 0
Core_0_DTLB_cross_page_prefetch_pollution_evict 0
Core_0_DTLB_cross_page_prefetch_pollution_demand 0
Core_0_DTLB_cross_page_prefetch_pollution_among_prefetch_fill 0
Core_0_DTLB_cross_page_prefetch_accuracy 0
Core_0_DTLB_cross_page_prefetch_coverage 0

========= STLB_vBerti Prefetch Stats =========
Core_0_STLB_demand_access 7887159
Core_0_STLB_demand_hit 6836713
Core_0_STLB_demand_miss 1050446
Core_0_STLB_demand_mshr_merge 0
Core_0_STLB_demand_fill 1050445
Core_0_STLB_demand_miss_rate 0.133184
Core_0_STLB_demand_mpki 10.5045
Core_0_STLB_vberti_prefetch_access 0
Core_0_STLB_vberti_prefetch_hit 0
Core_0_STLB_vberti_prefetch_miss 0
Core_0_STLB_vberti_prefetch_mshr_merge 0
Core_0_STLB_vberti_prefetch_fill 0
Core_0_STLB_vberti_prefetch_miss_rate 0
Core_0_STLB_vberti_prefetch_mpki 0

=== STLB_vBerti Same/Cross-page Prefetch Stats ===
Core_0_STLB_vberti_same_page_prefetch 0
Core_0_STLB_vberti_same_page_prefetch_hit 0
Core_0_STLB_vberti_same_page_prefetch_miss 0
Core_0_STLB_vberti_same_page_prefetch_mshr_merge 0
Core_0_STLB_vberti_same_page_prefetch_fill 0
Core_0_STLB_vberti_same_page_prefetch_miss_rate 0
Core_0_STLB_vberti_same_page_prefetch_mpki 0
Core_0_STLB_vberti_cross_page_prefetch 0
Core_0_STLB_vberti_cross_page_prefetch_hit 0
Core_0_STLB_vberti_cross_page_prefetch_miss 0
Core_0_STLB_vberti_cross_page_prefetch_mshr_merge 0
Core_0_STLB_vberti_cross_page_prefetch_fill 0
Core_0_STLB_vberti_cross_page_prefetch_miss_rate 0
Core_0_STLB_vberti_cross_page_prefetch_mpki 0
Core_0_STLB_same_page_prefetch_miss_rate 0
Core_0_STLB_same_page_prefetch_mpki 0
Core_0_STLB_cross_page_prefetch_miss_rate 0
Core_0_STLB_cross_page_prefetch_mpki 0
Core_0_STLB_cross_page_prefetch_issued 0
Core_0_STLB_cross_page_prefetch_lookups 0
Core_0_STLB_cross_page_prefetch_useful 0
Core_0_STLB_cross_page_prefetch_useless 0
Core_0_STLB_cross_page_prefetch_late 0
Core_0_STLB_cross_page_prefetch_too_early 0
Core_0_STLB_cross_page_prefetch_too_early_among_fill 0
Core_0_STLB_cross_page_prefetch_too_early_among_useless 0
Core_0_STLB_cross_page_prefetch_pollution_evict 0
Core_0_STLB_cross_page_prefetch_pollution_demand 0
Core_0_STLB_cross_page_prefetch_pollution_among_prefetch_fill 0
Core_0_STLB_cross_page_prefetch_accuracy 0
Core_0_STLB_cross_page_prefetch_coverage 0

========= STLB Cross-page Prefetch Buffer Stats =========
Core_0_STLB_raw_demand_miss 1050446
Core_0_CP_PB_insert 0
Core_0_CP_PB_demand_hit 0
Core_0_STLB_PB_demand_miss 1050446
Core_0_CP_PB_coverage 0
Core_0_STLB_raw_demand_mpki 10.5045
Core_0_STLB_PB_demand_mpki 10.5045
Core_0_CP_PB_demand_hit_mpki 0

Core_0_TLB_demand_miss_rate 0.0357956
Core_0_TLB_demand_mpki 10.5045
Core_0_TLB_same_page_prefetch_miss_rate 0
Core_0_TLB_same_page_prefetch_mpki 0
Core_0_TLB_cross_page_prefetch_miss_rate 0
Core_0_TLB_cross_page_prefetch_mpki 0
Core_0_TLB_cross_page_prefetch_issued 0
Core_0_TLB_cross_page_prefetch_lookups 0
Core_0_TLB_cross_page_prefetch_useful 0
Core_0_TLB_cross_page_prefetch_useless 0
Core_0_TLB_cross_page_prefetch_late 0
Core_0_TLB_cross_page_prefetch_too_early 0
Core_0_TLB_cross_page_prefetch_too_early_among_fill 0
Core_0_TLB_cross_page_prefetch_too_early_among_useless 0
Core_0_TLB_cross_page_prefetch_accuracy 0
Core_0_TLB_cross_page_prefetch_coverage 0
====== vBerti internal metric ========
BERTI TO_L1: 1038785 TO_L2: 2032486 TO_L2_BC_MSHR: 8
BERTI AVG_LAT: 142.508 NUM_TRACK_LATENCY: 10049956 NUM_CANT_TRACK_LATENCY: 0
BERTI CROSS_PAGE 1051039 NO_CROSS_PAGE: 3071271
BERTI FOUND_BERTI: 22286540 NO_FOUND_BERTI: 7568602
BERTI AVERAGE_ISSUED: 1.77417
