[VMEM] WARNING: physical memory size is smaller than virtual memory size.

*** ChampSim Multicore Out-of-Order Simulator ***
Warmup Instructions: 50000000
Simulation Instructions: 100000000
Number of CPUs: 1
Page size: 4096
Core 0: /data0/tzh/champsim_traces/SPEC06/429.mcf-184B.champsimtrace.xz
VBerti Prefetcher
No Crossing Page
BERTI HASH ENTANGLING
BERTI IP MASK ffff
Off-chip DRAM Size: 16 GiB Channels: 1 Width: 64-bit Data Rate: 3205 MT/s
Warmup halting CPU 0 at instruction 50000002 cycle 13132955 for remainder of phase
Warmup finished CPU 0 instructions: 50000002 cycles: 13132955 cumulative IPC: 3.807 (Simulation time: 00 hr 03 min 44 sec)
Warmup complete CPU 0 instructions: 50000002 cycles: 13132955 cumulative IPC: 3.807 (Simulation time: 00 hr 03 min 44 sec)
Simulation finished CPU 0 instructions: 100000001 cycles: 823603742 cumulative IPC: 0.1214 (Simulation time: 01 hr 16 min 37 sec)
Simulation complete CPU 0 instructions: 100000001 cycles: 823603742 cumulative IPC: 0.1214 (Simulation time: 01 hr 16 min 37 sec)

ChampSim completed all CPUs

=== Simulation ===
CPU 0 runs /data0/tzh/champsim_traces/SPEC06/429.mcf-184B.champsimtrace.xz

Region of Interest Statistics

CPU 0 cumulative IPC: 0.1214 instructions: 100000001 cycles: 823603742
CPU 0 Branch Prediction Accuracy: 93.42% MPKI: 15.87 Average ROB Occupancy at Mispredict: 54.67
Branch type MPKI
BRANCH_DIRECT_JUMP: 0.6636
BRANCH_INDIRECT: 0
BRANCH_CONDITIONAL: 15.2
BRANCH_DIRECT_CALL: 0
BRANCH_INDIRECT_CALL: 0
BRANCH_RETURN: 0

cpu0->cpu0_STLB TOTAL        ACCESS:    9912845 HIT:    9003935 MISS:     908910 MSHR_MERGE:          0
cpu0->cpu0_STLB LOAD         ACCESS:    9912845 HIT:    9003935 MISS:     908910 MSHR_MERGE:          0
cpu0->cpu0_STLB RFO          ACCESS:          0 HIT:          0 MISS:          0 MSHR_MERGE:          0
cpu0->cpu0_STLB PREFETCH     ACCESS:          0 HIT:          0 MISS:          0 MSHR_MERGE:          0
cpu0->cpu0_STLB WRITE        ACCESS:          0 HIT:          0 MISS:          0 MSHR_MERGE:          0
cpu0->cpu0_STLB TRANSLATION  ACCESS:          0 HIT:          0 MISS:          0 MSHR_MERGE:          0
cpu0->cpu0_STLB PREFETCH REQUESTED:          0 ISSUED:          0 USEFUL:          0 USELESS:          0 LATE:          0 TOO_EARLY:          0
cpu0->cpu0_STLB AVERAGE MISS LATENCY: 138.8 cycles
cpu0->cpu0_L2C TOTAL        ACCESS:   14692630 HIT:    5686324 MISS:    9006306 MSHR_MERGE:       2090
cpu0->cpu0_L2C LOAD         ACCESS:   11800304 HIT:    3464874 MISS:    8335430 MSHR_MERGE:        124
cpu0->cpu0_L2C RFO          ACCESS:     160317 HIT:      53181 MISS:     107136 MSHR_MERGE:          0
cpu0->cpu0_L2C PREFETCH     ACCESS:     145789 HIT:     121301 MISS:      24488 MSHR_MERGE:       1966
cpu0->cpu0_L2C WRITE        ACCESS:    1729818 HIT:    1729657 MISS:        161 MSHR_MERGE:          0
cpu0->cpu0_L2C TRANSLATION  ACCESS:     856402 HIT:     317311 MISS:     539091 MSHR_MERGE:          0
cpu0->cpu0_L2C PREFETCH REQUESTED:      20529 ISSUED:      20529 USEFUL:       3408 USELESS:       8468 LATE:         94 TOO_EARLY:        929
cpu0->cpu0_L2C AVERAGE MISS LATENCY: 171.8 cycles
cpu0->cpu0_L1I TOTAL        ACCESS:    1416974 HIT:    1416974 MISS:          0 MSHR_MERGE:          0
cpu0->cpu0_L1I LOAD         ACCESS:    1416974 HIT:    1416974 MISS:          0 MSHR_MERGE:          0
cpu0->cpu0_L1I RFO          ACCESS:          0 HIT:          0 MISS:          0 MSHR_MERGE:          0
cpu0->cpu0_L1I PREFETCH     ACCESS:          0 HIT:          0 MISS:          0 MSHR_MERGE:          0
cpu0->cpu0_L1I WRITE        ACCESS:          0 HIT:          0 MISS:          0 MSHR_MERGE:          0
cpu0->cpu0_L1I TRANSLATION  ACCESS:          0 HIT:          0 MISS:          0 MSHR_MERGE:          0
cpu0->cpu0_L1I PREFETCH REQUESTED:          0 ISSUED:          0 USEFUL:          0 USELESS:          0 LATE:          0 TOO_EARLY:          0
cpu0->cpu0_L1I AVERAGE MISS LATENCY: - cycles
cpu0->cpu0_L1D TOTAL        ACCESS:   31642340 HIT:   14967975 MISS:   16674365 MSHR_MERGE:    3731519
cpu0->cpu0_L1D LOAD         ACCESS:   24891237 HIT:    9397781 MISS:   15493456 MSHR_MERGE:    3693128
cpu0->cpu0_L1D RFO          ACCESS:          0 HIT:          0 MISS:          0 MSHR_MERGE:          0
cpu0->cpu0_L1D PREFETCH     ACCESS:    1195114 HIT:    1067522 MISS:     127592 MSHR_MERGE:       1796
cpu0->cpu0_L1D WRITE        ACCESS:    3412949 HIT:    3238105 MISS:     174844 MSHR_MERGE:      14524
cpu0->cpu0_L1D TRANSLATION  ACCESS:    2143040 HIT:    1264567 MISS:     878473 MSHR_MERGE:      22071
cpu0->cpu0_L1D PREFETCH REQUESTED:    1249185 ISSUED:    1195114 USEFUL:      15561 USELESS:      11708 LATE:        472 TOO_EARLY:        127
cpu0->cpu0_L1D AVERAGE MISS LATENCY: 129.2 cycles
cpu0->cpu0_ITLB TOTAL        ACCESS:    1263811 HIT:    1263811 MISS:          0 MSHR_MERGE:          0
cpu0->cpu0_ITLB LOAD         ACCESS:    1263811 HIT:    1263811 MISS:          0 MSHR_MERGE:          0
cpu0->cpu0_ITLB RFO          ACCESS:          0 HIT:          0 MISS:          0 MSHR_MERGE:          0
cpu0->cpu0_ITLB PREFETCH     ACCESS:          0 HIT:          0 MISS:          0 MSHR_MERGE:          0
cpu0->cpu0_ITLB WRITE        ACCESS:          0 HIT:          0 MISS:          0 MSHR_MERGE:          0
cpu0->cpu0_ITLB TRANSLATION  ACCESS:          0 HIT:          0 MISS:          0 MSHR_MERGE:          0
cpu0->cpu0_ITLB PREFETCH REQUESTED:          0 ISSUED:          0 USEFUL:          0 USELESS:          0 LATE:          0 TOO_EARLY:          0
cpu0->cpu0_ITLB AVERAGE MISS LATENCY: - cycles
cpu0->cpu0_DTLB TOTAL        ACCESS:   28655039 HIT:   14752319 MISS:   13902720 MSHR_MERGE:    3989874
cpu0->cpu0_DTLB LOAD         ACCESS:   28655039 HIT:   14752319 MISS:   13902720 MSHR_MERGE:    3989874
cpu0->cpu0_DTLB RFO          ACCESS:          0 HIT:          0 MISS:          0 MSHR_MERGE:          0
cpu0->cpu0_DTLB PREFETCH     ACCESS:          0 HIT:          0 MISS:          0 MSHR_MERGE:          0
cpu0->cpu0_DTLB WRITE        ACCESS:          0 HIT:          0 MISS:          0 MSHR_MERGE:          0
cpu0->cpu0_DTLB TRANSLATION  ACCESS:          0 HIT:          0 MISS:          0 MSHR_MERGE:          0
cpu0->cpu0_DTLB PREFETCH REQUESTED:          0 ISSUED:          0 USEFUL:          0 USELESS:          0 LATE:          0 TOO_EARLY:          0
cpu0->cpu0_DTLB AVERAGE MISS LATENCY: 17.82 cycles
cpu0->LLC TOTAL        ACCESS:   10204413 HIT:    3016569 MISS:    7187844 MSHR_MERGE:          7
cpu0->LLC LOAD         ACCESS:    8335306 HIT:    2245789 MISS:    6089517 MSHR_MERGE:          0
cpu0->LLC RFO          ACCESS:     107136 HIT:      37151 MISS:      69985 MSHR_MERGE:          0
cpu0->LLC PREFETCH     ACCESS:      22522 HIT:       2526 MISS:      19996 MSHR_MERGE:          7
cpu0->LLC WRITE        ACCESS:    1200358 HIT:     565745 MISS:     634613 MSHR_MERGE:          0
cpu0->LLC TRANSLATION  ACCESS:     539091 HIT:     165358 MISS:     373733 MSHR_MERGE:          0
cpu0->LLC PREFETCH REQUESTED:          0 ISSUED:          0 USEFUL:          0 USELESS:          0 LATE:          0 TOO_EARLY:          0
cpu0->LLC AVERAGE MISS LATENCY: 196.4 cycles

DRAM Statistics

Channel 0 RQ ROW_BUFFER_HIT:       7912
  ROW_BUFFER_MISS:    6544885
  AVG DBUS CONGESTED CYCLE: 9.706
Channel 0 WQ ROW_BUFFER_HIT:     269373
  ROW_BUFFER_MISS:     664905
  FULL:          0
Channel 0 REFRESHES ISSUED:      68634

[ROI Statistics]
[System Configuration]
num_cpus 1
cpu_freq 4000
fetch_width 6
decode_width 6
dispatch_width 6
execute_width 6
lq_width 2
sq_width 2
retire_width 6
scheduler_size 128
branch_mispredict_penalty 15
rob_size 352
lq_size 128
sq_size 72
ifetch_buffer_size 64
decode_buffer_size 32
dispatch_buffer_size 32
register_file_size 288
decode_latency 1
dispatch_latency 1
schedule_latency 1
execute_latency 1
page_size 4096
block_size 64
core_0_itlb_set 16
core_0_itlb_way 4
core_0_itlb_rq_size 16
core_0_itlb_wq_size 16
core_0_itlb_pq_size 0
core_0_itlb_mshr_size 8
core_0_itlb_hit_latency 1
core_0_itlb_fill_latency 1
core_0_itlb_max_tag_check 2
core_0_itlb_max_fill 2
core_0_dtlb_set 16
core_0_dtlb_way 4
core_0_dtlb_rq_size 16
core_0_dtlb_wq_size 16
core_0_dtlb_pq_size 0
core_0_dtlb_mshr_size 8
core_0_dtlb_hit_latency 1
core_0_dtlb_fill_latency 1
core_0_dtlb_max_tag_check 2
core_0_dtlb_max_fill 2
core_0_stlb_set 128
core_0_stlb_way 12
core_0_stlb_rq_size 32
core_0_stlb_wq_size 32
core_0_stlb_pq_size 0
core_0_stlb_mshr_size 16
core_0_stlb_hit_latency 4
core_0_stlb_fill_latency 4
core_0_stlb_max_tag_check 1
core_0_stlb_max_fill 1
core_0_l1i_set 64
core_0_l1i_way 8
core_0_l1i_rq_size 64
core_0_l1i_wq_size 64
core_0_l1i_pq_size 32
core_0_l1i_mshr_size 8
core_0_l1i_hit_latency 2
core_0_l1i_fill_latency 2
core_0_l1i_max_tag_check 2
core_0_l1i_max_fill 2
core_0_l1d_set 64
core_0_l1d_way 12
core_0_l1d_rq_size 64
core_0_l1d_wq_size 64
core_0_l1d_pq_size 8
core_0_l1d_mshr_size 16
core_0_l1d_hit_latency 2
core_0_l1d_fill_latency 3
core_0_l1d_max_tag_check 2
core_0_l1d_max_fill 2
core_0_l2c_set 1024
core_0_l2c_way 8
core_0_l2c_rq_size 32
core_0_l2c_wq_size 32
core_0_l2c_pq_size 16
core_0_l2c_mshr_size 32
core_0_l2c_hit_latency 5
core_0_l2c_fill_latency 5
core_0_l2c_max_tag_check 1
core_0_l2c_max_fill 1
llc_set 2048
llc_way 16
llc_rq_size 32
llc_wq_size 32
llc_pq_size 32
llc_mshr_size 64
llc_hit_latency 10
llc_fill_latency 10
llc_max_tag_check 1
llc_max_fill 1
dram_channels 1
dram_ranks 1
dram_bankgroups 8
dram_banks 4
dram_rows 65536
dram_columns 1024
dram_channel_width 8
dram_rq_size 64
dram_wq_size 64
dram_size 17179869184
core_0_itlb_prefetcher no
core_0_dtlb_prefetcher no
core_0_stlb_prefetcher no
core_0_l1i_prefetcher next_line
core_0_l1d_prefetcher vberti_nocross
core_0_l2c_prefetcher ip_stride
llc_prefetcher no
llc_replacement drrip

Core_0_instructions 100000001
Core_0_cycles 823603742
Core_0_IPC 0.121418
Core_0_branch_prediction_accuracy 93.4186
Core_0_branch_MPKI 15.8681
Core_0_average_ROB_occupancy_at_mispredict 54.668

Core_0_ITLB_total_access 1263811
Core_0_ITLB_total_hit 1263811
Core_0_ITLB_total_miss 0
Core_0_ITLB_total_MPKI 0
Core_0_ITLB_total_miss_rate 0
Core_0_ITLB_demand_access 1263811
Core_0_ITLB_demand_hit 1263811
Core_0_ITLB_demand_miss 0
Core_0_ITLB_demand_MPKI 0
Core_0_ITLB_demand_miss_rate 0
Core_0_ITLB_load_access 1263811
Core_0_ITLB_load_hit 1263811
Core_0_ITLB_load_miss 0
Core_0_ITLB_load_MPKI 0
Core_0_ITLB_load_miss_rate 0
Core_0_ITLB_rfo_access 0
Core_0_ITLB_rfo_hit 0
Core_0_ITLB_rfo_miss 0
Core_0_ITLB_rfo_MPKI 0
Core_0_ITLB_rfo_miss_rate 0
Core_0_ITLB_prefetch_access 0
Core_0_ITLB_prefetch_hit 0
Core_0_ITLB_prefetch_miss 0
Core_0_ITLB_prefetch_MPKI 0
Core_0_ITLB_prefetch_miss_rate 0
Core_0_ITLB_writeback_access 0
Core_0_ITLB_writeback_hit 0
Core_0_ITLB_writeback_miss 0
Core_0_ITLB_writeback_MPKI 0
Core_0_ITLB_writeback_miss_rate 0
Core_0_ITLB_prefetch_requested 0
Core_0_ITLB_prefetch_issued 0
Core_0_ITLB_prefetch_useful 0
Core_0_ITLB_prefetch_useless 0
Core_0_ITLB_prefetch_late 0
Core_0_ITLB_prefetch_fill 0
Core_0_ITLB_prefetch_too_early 0
Core_0_ITLB_prefetch_too_early_among_fill 0
Core_0_ITLB_prefetch_too_early_among_useless 0
Core_0_ITLB_prefetch_pollution_evict 0
Core_0_ITLB_prefetch_pollution_demand 0
Core_0_ITLB_prefetch_pollution_among_prefetch_fill 0
Core_0_ITLB_prefetch_accuracy 0
Core_0_ITLB_prefetch_coverage 0

Core_0_DTLB_total_access 28655039
Core_0_DTLB_total_hit 14752319
Core_0_DTLB_total_miss 13902720
Core_0_DTLB_total_MPKI 139.027
Core_0_DTLB_total_miss_rate 0.485175
Core_0_DTLB_demand_access 28655039
Core_0_DTLB_demand_hit 14752319
Core_0_DTLB_demand_miss 13902720
Core_0_DTLB_demand_MPKI 139.027
Core_0_DTLB_demand_miss_rate 0.485175
Core_0_DTLB_load_access 28655039
Core_0_DTLB_load_hit 14752319
Core_0_DTLB_load_miss 13902720
Core_0_DTLB_load_MPKI 139.027
Core_0_DTLB_load_miss_rate 0.485175
Core_0_DTLB_rfo_access 0
Core_0_DTLB_rfo_hit 0
Core_0_DTLB_rfo_miss 0
Core_0_DTLB_rfo_MPKI 0
Core_0_DTLB_rfo_miss_rate 0
Core_0_DTLB_prefetch_access 0
Core_0_DTLB_prefetch_hit 0
Core_0_DTLB_prefetch_miss 0
Core_0_DTLB_prefetch_MPKI 0
Core_0_DTLB_prefetch_miss_rate 0
Core_0_DTLB_writeback_access 0
Core_0_DTLB_writeback_hit 0
Core_0_DTLB_writeback_miss 0
Core_0_DTLB_writeback_MPKI 0
Core_0_DTLB_writeback_miss_rate 0
Core_0_DTLB_prefetch_requested 0
Core_0_DTLB_prefetch_issued 0
Core_0_DTLB_prefetch_useful 0
Core_0_DTLB_prefetch_useless 0
Core_0_DTLB_prefetch_late 0
Core_0_DTLB_prefetch_fill 0
Core_0_DTLB_prefetch_too_early 0
Core_0_DTLB_prefetch_too_early_among_fill 0
Core_0_DTLB_prefetch_too_early_among_useless 0
Core_0_DTLB_prefetch_pollution_evict 0
Core_0_DTLB_prefetch_pollution_demand 0
Core_0_DTLB_prefetch_pollution_among_prefetch_fill 0
Core_0_DTLB_prefetch_accuracy 0
Core_0_DTLB_prefetch_coverage 0

Core_0_STLB_total_access 9912845
Core_0_STLB_total_hit 9003935
Core_0_STLB_total_miss 908910
Core_0_STLB_total_MPKI 9.0891
Core_0_STLB_total_miss_rate 0.0916901
Core_0_STLB_demand_access 9912845
Core_0_STLB_demand_hit 9003935
Core_0_STLB_demand_miss 908910
Core_0_STLB_demand_MPKI 9.0891
Core_0_STLB_demand_miss_rate 0.0916901
Core_0_STLB_load_access 9912845
Core_0_STLB_load_hit 9003935
Core_0_STLB_load_miss 908910
Core_0_STLB_load_MPKI 9.0891
Core_0_STLB_load_miss_rate 0.0916901
Core_0_STLB_rfo_access 0
Core_0_STLB_rfo_hit 0
Core_0_STLB_rfo_miss 0
Core_0_STLB_rfo_MPKI 0
Core_0_STLB_rfo_miss_rate 0
Core_0_STLB_prefetch_access 0
Core_0_STLB_prefetch_hit 0
Core_0_STLB_prefetch_miss 0
Core_0_STLB_prefetch_MPKI 0
Core_0_STLB_prefetch_miss_rate 0
Core_0_STLB_writeback_access 0
Core_0_STLB_writeback_hit 0
Core_0_STLB_writeback_miss 0
Core_0_STLB_writeback_MPKI 0
Core_0_STLB_writeback_miss_rate 0
Core_0_STLB_prefetch_requested 0
Core_0_STLB_prefetch_issued 0
Core_0_STLB_prefetch_useful 0
Core_0_STLB_prefetch_useless 0
Core_0_STLB_prefetch_late 0
Core_0_STLB_prefetch_fill 0
Core_0_STLB_prefetch_too_early 0
Core_0_STLB_prefetch_too_early_among_fill 0
Core_0_STLB_prefetch_too_early_among_useless 0
Core_0_STLB_prefetch_pollution_evict 0
Core_0_STLB_prefetch_pollution_demand 0
Core_0_STLB_prefetch_pollution_among_prefetch_fill 0
Core_0_STLB_prefetch_accuracy 0
Core_0_STLB_prefetch_coverage 0

Core_0_L1I_total_access 1416974
Core_0_L1I_total_hit 1416974
Core_0_L1I_total_miss 0
Core_0_L1I_total_MPKI 0
Core_0_L1I_total_miss_rate 0
Core_0_L1I_demand_access 1416974
Core_0_L1I_demand_hit 1416974
Core_0_L1I_demand_miss 0
Core_0_L1I_demand_MPKI 0
Core_0_L1I_demand_miss_rate 0
Core_0_L1I_load_access 1416974
Core_0_L1I_load_hit 1416974
Core_0_L1I_load_miss 0
Core_0_L1I_load_MPKI 0
Core_0_L1I_load_miss_rate 0
Core_0_L1I_rfo_access 0
Core_0_L1I_rfo_hit 0
Core_0_L1I_rfo_miss 0
Core_0_L1I_rfo_MPKI 0
Core_0_L1I_rfo_miss_rate 0
Core_0_L1I_prefetch_access 0
Core_0_L1I_prefetch_hit 0
Core_0_L1I_prefetch_miss 0
Core_0_L1I_prefetch_MPKI 0
Core_0_L1I_prefetch_miss_rate 0
Core_0_L1I_writeback_access 0
Core_0_L1I_writeback_hit 0
Core_0_L1I_writeback_miss 0
Core_0_L1I_writeback_MPKI 0
Core_0_L1I_writeback_miss_rate 0
Core_0_L1I_prefetch_requested 0
Core_0_L1I_prefetch_issued 0
Core_0_L1I_prefetch_useful 0
Core_0_L1I_prefetch_useless 0
Core_0_L1I_prefetch_late 0
Core_0_L1I_prefetch_fill 0
Core_0_L1I_prefetch_too_early 0
Core_0_L1I_prefetch_too_early_among_fill 0
Core_0_L1I_prefetch_too_early_among_useless 0
Core_0_L1I_prefetch_pollution_evict 0
Core_0_L1I_prefetch_pollution_demand 0
Core_0_L1I_prefetch_pollution_among_prefetch_fill 0
Core_0_L1I_prefetch_accuracy 0
Core_0_L1I_prefetch_coverage 0

Core_0_L1D_total_access 29499300
Core_0_L1D_total_hit 13703408
Core_0_L1D_total_miss 15795892
Core_0_L1D_total_MPKI 157.959
Core_0_L1D_total_miss_rate 0.535467
Core_0_L1D_demand_access 24891237
Core_0_L1D_demand_hit 9397781
Core_0_L1D_demand_miss 15493456
Core_0_L1D_demand_MPKI 154.935
Core_0_L1D_demand_miss_rate 0.622446
Core_0_L1D_load_access 24891237
Core_0_L1D_load_hit 9397781
Core_0_L1D_load_miss 15493456
Core_0_L1D_load_MPKI 154.935
Core_0_L1D_load_miss_rate 0.622446
Core_0_L1D_rfo_access 0
Core_0_L1D_rfo_hit 0
Core_0_L1D_rfo_miss 0
Core_0_L1D_rfo_MPKI 0
Core_0_L1D_rfo_miss_rate 0
Core_0_L1D_prefetch_access 1195114
Core_0_L1D_prefetch_hit 1067522
Core_0_L1D_prefetch_miss 127592
Core_0_L1D_prefetch_MPKI 1.27592
Core_0_L1D_prefetch_miss_rate 0.106761
Core_0_L1D_writeback_access 3412949
Core_0_L1D_writeback_hit 3238105
Core_0_L1D_writeback_miss 174844
Core_0_L1D_writeback_MPKI 1.74844
Core_0_L1D_writeback_miss_rate 0.0512296
Core_0_L1D_prefetch_requested 1249185
Core_0_L1D_prefetch_issued 1195114
Core_0_L1D_prefetch_useful 15561
Core_0_L1D_prefetch_useless 11708
Core_0_L1D_prefetch_late 472
Core_0_L1D_prefetch_fill 26797
Core_0_L1D_prefetch_too_early 127
Core_0_L1D_prefetch_too_early_among_fill 0.00473934
Core_0_L1D_prefetch_too_early_among_useless 0.0108473
Core_0_L1D_prefetch_pollution_evict 20992
Core_0_L1D_prefetch_pollution_demand 20992
Core_0_L1D_prefetch_pollution_among_prefetch_fill 0.783371
Core_0_L1D_prefetch_accuracy 0.0130205
Core_0_L1D_prefetch_coverage 0.00100335

Core_0_L2C_total_access 13836228
Core_0_L2C_total_hit 5369013
Core_0_L2C_total_miss 8467215
Core_0_L2C_total_MPKI 84.6721
Core_0_L2C_total_miss_rate 0.61196
Core_0_L2C_demand_access 11960621
Core_0_L2C_demand_hit 3518055
Core_0_L2C_demand_miss 8442566
Core_0_L2C_demand_MPKI 84.4257
Core_0_L2C_demand_miss_rate 0.705864
Core_0_L2C_load_access 11800304
Core_0_L2C_load_hit 3464874
Core_0_L2C_load_miss 8335430
Core_0_L2C_load_MPKI 83.3543
Core_0_L2C_load_miss_rate 0.706374
Core_0_L2C_rfo_access 160317
Core_0_L2C_rfo_hit 53181
Core_0_L2C_rfo_miss 107136
Core_0_L2C_rfo_MPKI 1.07136
Core_0_L2C_rfo_miss_rate 0.668276
Core_0_L2C_prefetch_access 145789
Core_0_L2C_prefetch_hit 121301
Core_0_L2C_prefetch_miss 24488
Core_0_L2C_prefetch_MPKI 0.24488
Core_0_L2C_prefetch_miss_rate 0.167969
Core_0_L2C_writeback_access 1729818
Core_0_L2C_writeback_hit 1729657
Core_0_L2C_writeback_miss 161
Core_0_L2C_writeback_MPKI 0.00161
Core_0_L2C_writeback_miss_rate 9.30734e-05
Core_0_L2C_prefetch_requested 20529
Core_0_L2C_prefetch_issued 20529
Core_0_L2C_prefetch_useful 3408
Core_0_L2C_prefetch_useless 8468
Core_0_L2C_prefetch_late 94
Core_0_L2C_prefetch_fill 22304
Core_0_L2C_prefetch_too_early 929
Core_0_L2C_prefetch_too_early_among_fill 0.0416517
Core_0_L2C_prefetch_too_early_among_useless 0.109707
Core_0_L2C_prefetch_pollution_evict 17525
Core_0_L2C_prefetch_pollution_demand 17524
Core_0_L2C_prefetch_pollution_among_prefetch_fill 0.785734
Core_0_L2C_prefetch_accuracy 0.166009
Core_0_L2C_prefetch_coverage 0.000403506

Core_0_LLC_total_access 9665322
Core_0_LLC_total_hit 2851211
Core_0_LLC_total_miss 6814111
Core_0_LLC_total_MPKI 68.1411
Core_0_LLC_total_miss_rate 0.705006
Core_0_LLC_demand_access 8442442
Core_0_LLC_demand_hit 2282940
Core_0_LLC_demand_miss 6159502
Core_0_LLC_demand_MPKI 61.595
Core_0_LLC_demand_miss_rate 0.729588
Core_0_LLC_load_access 8335306
Core_0_LLC_load_hit 2245789
Core_0_LLC_load_miss 6089517
Core_0_LLC_load_MPKI 60.8952
Core_0_LLC_load_miss_rate 0.730569
Core_0_LLC_rfo_access 107136
Core_0_LLC_rfo_hit 37151
Core_0_LLC_rfo_miss 69985
Core_0_LLC_rfo_MPKI 0.69985
Core_0_LLC_rfo_miss_rate 0.653235
Core_0_LLC_prefetch_access 22522
Core_0_LLC_prefetch_hit 2526
Core_0_LLC_prefetch_miss 19996
Core_0_LLC_prefetch_MPKI 0.19996
Core_0_LLC_prefetch_miss_rate 0.887843
Core_0_LLC_writeback_access 1200358
Core_0_LLC_writeback_hit 565745
Core_0_LLC_writeback_miss 634613
Core_0_LLC_writeback_MPKI 6.34613
Core_0_LLC_writeback_miss_rate 0.528686
Core_0_LLC_prefetch_requested 0
Core_0_LLC_prefetch_issued 0
Core_0_LLC_prefetch_useful 0
Core_0_LLC_prefetch_useless 0
Core_0_LLC_prefetch_late 0
Core_0_LLC_prefetch_fill 19989
Core_0_LLC_prefetch_too_early 0
Core_0_LLC_prefetch_too_early_among_fill 0
Core_0_LLC_prefetch_too_early_among_useless 0
Core_0_LLC_prefetch_pollution_evict 13570
Core_0_LLC_prefetch_pollution_demand 13570
Core_0_LLC_prefetch_pollution_among_prefetch_fill 0.678873
Core_0_LLC_prefetch_accuracy 0
Core_0_LLC_prefetch_coverage 0

[DRAM Statistics]
Channel_0_RQ_row_buffer_hit 7912
Channel_0_RQ_row_buffer_miss 6544885
Channel_0_WQ_row_buffer_hit 269373
Channel_0_WQ_row_buffer_miss 664905
Channel_0_WQ_full 0
Channel_0_dbus_congested 15092123
DRAM_total_RQ_row_buffer_hit 7912
DRAM_total_RQ_row_buffer_miss 6544885
DRAM_total_WQ_row_buffer_hit 269373
DRAM_total_WQ_row_buffer_miss 664905
DRAM_total_WQ_full 0
DRAM_total_dbus_congested 15092123
DRAM_avg_congested_cycle 9.70601

====== DRAM_RQ_TRAFFIC ========
DRAM_RQ_READ_TRAFFIC_BREAKDOWN:
data_demand_read.count = 6159502
data_demand_read.share = 93.99%

inst_demand_read.count = 0
inst_demand_read.share = 0.00%

cache_inst_prefetch.count = 0
cache_inst_prefetch.share = 0.00%

cache_data_prefetch.count = 19989
cache_data_prefetch.share = 0.31%

stlb_data_demand.count = 373733
stlb_data_demand.share = 5.70%

stlb_inst_demand.count = 0
stlb_inst_demand.share = 0.00%

stlb_l1i_pref.count = 0
stlb_l1i_pref.share = 0.00%

stlb_l1d_pref.count = 0
stlb_l1d_pref.share = 0.00%

DRAM_RQ_READ_TRAFFIC_SUMMARY:
cache_demand.count = 6159502
cache_demand.share = 93.99%

cache_prefetch.count = 19989
cache_prefetch.share = 0.31%

stlb_demand.count = 373733
stlb_demand.share = 5.70%

stlb_prefetch.count = 0
stlb_prefetch.share = 0.00%

DRAM_RQ_READ_TRAFFIC_DEBUG:
total_classified_read.count = 6553224
unclassified_read.count = 0
total_read_with_other.count = 6553224

classified_plus_unclassified_check.count = 6553224
dram_rq_read_total_observed.count = 6553224
dram_rq_read_total_observed.per_1K_instructions = 65.5322

STLB_MISS_PTW_DRAM_TOUCH_BREAKDOWN:
stlb_miss_total.count = 908910

stlb_miss_touch_dram.count = 380961
stlb_miss_touch_dram.share = 41.91%

stlb_miss_no_dram_touch.count = 527949
stlb_miss_no_dram_touch.share = 58.09%

STLB_MISS_PTW_DRAM_TOUCH_DEBUG:
stlb_miss_touch_plus_no_touch.count = 908910
stlb_miss_total_check.count = 908910

======STLB miss causes ========
Core_0_STLB_miss_cause_breakdown
Core_0_STLB_cause_Demand_Data_miss 908910
Core_0_STLB_cause_Demand_Data_miss_rate 0.0916901
Core_0_STLB_cause_Demand_Instruction_miss 0
Core_0_STLB_cause_Demand_Instruction_miss_rate 0
Core_0_STLB_cause_L1D_Prefetch_miss 0
Core_0_STLB_cause_L1D_Prefetch_miss_rate 0
Core_0_STLB_cause_L1D_Prefetch_Same_Page_miss 0
Core_0_STLB_cause_L1D_Prefetch_Same_Page_miss_rate 0
Core_0_STLB_cause_L1D_Prefetch_Cross_Page_miss 0
Core_0_STLB_cause_L1D_Prefetch_Cross_Page_miss_rate 0
Core_0_STLB_cause_L1I_Prefetch_miss 0
Core_0_STLB_cause_L1I_Prefetch_miss_rate 0
Core_0_STLB_cause_Other_miss 0
Core_0_STLB_cause_Other_miss_rate 0
Core_0_STLB_Demand_miss 908910
Core_0_STLB_Demand_miss_rate 0.0916901
Core_0_STLB_L1D_Prefetch_miss 0
Core_0_STLB_L1D_Prefetch_miss_rate 0
Core_0_STLB_Other_miss 0
Core_0_STLB_Other_miss_rate 0

========== vBerti-TLB Cross-page Flow Stats ==========

Core_0_vBerti_Requested 1249185
Core_0_vBerti_Cross_page_prefetch_in_Requested 0
Core_0_vBerti_Same_page_prefetch_in_Requested 1249185
Core_0_vBerti_Cross_page_prefetch_of_Requested 0
Core_0_vBerti_Issued 1195114
Core_0_vBerti_InPQ_Same_page_prefetch 1195114
Core_0_vBerti_InPQ_Cross_page_prefetch 0
Core_0_vBerti_PQ_Drop_Rate 0.043285
Core_0_vBerti_InPQ_Cross_page_prefetch_of_Requested 0
Core_0_vBerti_Cross_page_PQ_Drop_rate 0
Core_0_vBerti_Cross_page_prefetch_of_Issued 0
Core_0_CP_PF_PQFULL_drop 0
Core_0_CP_PF_PQFULL_TLB_rescue_enqueued 0
Core_0_CP_PF_PQFULL_TLB_rescue_issued 0
Core_0_CP_PF_PQFULL_TLB_rescue_translated 0

========= DTLB_vBerti Prefetch Stats =========
Core_0_DTLB_demand_access 27926028
Core_0_DTLB_demand_hit 14023308
Core_0_DTLB_demand_miss 13902720
Core_0_DTLB_demand_mshr_merge 3989874
Core_0_DTLB_demand_fill 9912845
Core_0_DTLB_demand_miss_rate 0.497841
Core_0_DTLB_demand_mpki 139.027
Core_0_DTLB_vberti_prefetch_access 729011
Core_0_DTLB_vberti_prefetch_hit 729011
Core_0_DTLB_vberti_prefetch_miss 0
Core_0_DTLB_vberti_prefetch_mshr_merge 0
Core_0_DTLB_vberti_prefetch_fill 0
Core_0_DTLB_vberti_prefetch_miss_rate 0
Core_0_DTLB_vberti_prefetch_mpki 0

=== DTLB_vBerti Same/Cross-page Prefetch Stats ===
Core_0_DTLB_vberti_same_page_prefetch 729011
Core_0_DTLB_vberti_same_page_prefetch_hit 729011
Core_0_DTLB_vberti_same_page_prefetch_miss 0
Core_0_DTLB_vberti_same_page_prefetch_mshr_merge 0
Core_0_DTLB_vberti_same_page_prefetch_fill 0
Core_0_DTLB_vberti_same_page_prefetch_miss_rate 0
Core_0_DTLB_vberti_same_page_prefetch_mpki 0
Core_0_DTLB_vberti_cross_page_prefetch 0
Core_0_DTLB_vberti_cross_page_prefetch_hit 0
Core_0_DTLB_vberti_cross_page_prefetch_miss 0
Core_0_DTLB_vberti_cross_page_prefetch_mshr_merge 0
Core_0_DTLB_vberti_cross_page_prefetch_fill 0
Core_0_DTLB_vberti_cross_page_prefetch_miss_rate 0
Core_0_DTLB_vberti_cross_page_prefetch_mpki 0
Core_0_DTLB_same_page_prefetch_miss_rate 0
Core_0_DTLB_same_page_prefetch_mpki 0
Core_0_DTLB_cross_page_prefetch_miss_rate 0
Core_0_DTLB_cross_page_prefetch_mpki 0
Core_0_DTLB_cross_page_prefetch_issued 0
Core_0_DTLB_cross_page_prefetch_lookups 0
Core_0_DTLB_cross_page_prefetch_useful 0
Core_0_DTLB_cross_page_prefetch_useless 0
Core_0_DTLB_cross_page_prefetch_late 0
Core_0_DTLB_cross_page_prefetch_too_early 0
Core_0_DTLB_cross_page_prefetch_too_early_among_fill 0
Core_0_DTLB_cross_page_prefetch_too_early_among_useless 0
Core_0_DTLB_cross_page_prefetch_pollution_evict 0
Core_0_DTLB_cross_page_prefetch_pollution_demand 0
Core_0_DTLB_cross_page_prefetch_pollution_among_prefetch_fill 0
Core_0_DTLB_cross_page_prefetch_accuracy 0
Core_0_DTLB_cross_page_prefetch_coverage 0

========= STLB_vBerti Prefetch Stats =========
Core_0_STLB_demand_access 9912845
Core_0_STLB_demand_hit 9003935
Core_0_STLB_demand_miss 908910
Core_0_STLB_demand_mshr_merge 0
Core_0_STLB_demand_fill 908910
Core_0_STLB_demand_miss_rate 0.0916901
Core_0_STLB_demand_mpki 9.0891
Core_0_STLB_vberti_prefetch_access 0
Core_0_STLB_vberti_prefetch_hit 0
Core_0_STLB_vberti_prefetch_miss 0
Core_0_STLB_vberti_prefetch_mshr_merge 0
Core_0_STLB_vberti_prefetch_fill 0
Core_0_STLB_vberti_prefetch_miss_rate 0
Core_0_STLB_vberti_prefetch_mpki 0

=== STLB_vBerti Same/Cross-page Prefetch Stats ===
Core_0_STLB_vberti_same_page_prefetch 0
Core_0_STLB_vberti_same_page_prefetch_hit 0
Core_0_STLB_vberti_same_page_prefetch_miss 0
Core_0_STLB_vberti_same_page_prefetch_mshr_merge 0
Core_0_STLB_vberti_same_page_prefetch_fill 0
Core_0_STLB_vberti_same_page_prefetch_miss_rate 0
Core_0_STLB_vberti_same_page_prefetch_mpki 0
Core_0_STLB_vberti_cross_page_prefetch 0
Core_0_STLB_vberti_cross_page_prefetch_hit 0
Core_0_STLB_vberti_cross_page_prefetch_miss 0
Core_0_STLB_vberti_cross_page_prefetch_mshr_merge 0
Core_0_STLB_vberti_cross_page_prefetch_fill 0
Core_0_STLB_vberti_cross_page_prefetch_miss_rate 0
Core_0_STLB_vberti_cross_page_prefetch_mpki 0
Core_0_STLB_same_page_prefetch_miss_rate 0
Core_0_STLB_same_page_prefetch_mpki 0
Core_0_STLB_cross_page_prefetch_miss_rate 0
Core_0_STLB_cross_page_prefetch_mpki 0
Core_0_STLB_cross_page_prefetch_issued 0
Core_0_STLB_cross_page_prefetch_lookups 0
Core_0_STLB_cross_page_prefetch_useful 0
Core_0_STLB_cross_page_prefetch_useless 0
Core_0_STLB_cross_page_prefetch_late 0
Core_0_STLB_cross_page_prefetch_too_early 0
Core_0_STLB_cross_page_prefetch_too_early_among_fill 0
Core_0_STLB_cross_page_prefetch_too_early_among_useless 0
Core_0_STLB_cross_page_prefetch_pollution_evict 0
Core_0_STLB_cross_page_prefetch_pollution_demand 0
Core_0_STLB_cross_page_prefetch_pollution_among_prefetch_fill 0
Core_0_STLB_cross_page_prefetch_accuracy 0
Core_0_STLB_cross_page_prefetch_coverage 0

========= STLB Cross-page Prefetch Buffer Stats =========
Core_0_STLB_raw_demand_miss 908910
Core_0_CP_PB_insert 0
Core_0_CP_PB_demand_hit 0
Core_0_STLB_PB_demand_miss 908910
Core_0_CP_PB_coverage 0
Core_0_STLB_raw_demand_mpki 9.0891
Core_0_STLB_PB_demand_mpki 9.0891
Core_0_CP_PB_demand_hit_mpki 0

Core_0_TLB_demand_miss_rate 0.0325471
Core_0_TLB_demand_mpki 9.0891
Core_0_TLB_same_page_prefetch_miss_rate 0
Core_0_TLB_same_page_prefetch_mpki 0
Core_0_TLB_cross_page_prefetch_miss_rate 0
Core_0_TLB_cross_page_prefetch_mpki 0
Core_0_TLB_cross_page_prefetch_issued 0
Core_0_TLB_cross_page_prefetch_lookups 0
Core_0_TLB_cross_page_prefetch_useful 0
Core_0_TLB_cross_page_prefetch_useless 0
Core_0_TLB_cross_page_prefetch_late 0
Core_0_TLB_cross_page_prefetch_too_early 0
Core_0_TLB_cross_page_prefetch_too_early_among_fill 0
Core_0_TLB_cross_page_prefetch_too_early_among_useless 0
Core_0_TLB_cross_page_prefetch_accuracy 0
Core_0_TLB_cross_page_prefetch_coverage 0
====== vBerti internal metric ========
BERTI TO_L1: 843532 TO_L2: 405653 TO_L2_BC_MSHR: 36
BERTI AVG_LAT: 128.799 NUM_TRACK_LATENCY: 11963999 NUM_CANT_TRACK_LATENCY: 0
BERTI CROSS_PAGE 621704 NO_CROSS_PAGE: 1249185
BERTI FOUND_BERTI: 19073437 NO_FOUND_BERTI: 9230903
BERTI AVERAGE_ISSUED: 1.49808
