[VMEM] WARNING: physical memory size is smaller than virtual memory size.

*** ChampSim Multicore Out-of-Order Simulator ***
Warmup Instructions: 50000000
Simulation Instructions: 100000000
Number of CPUs: 1
Page size: 4096
Core 0: /data0/tzh/champsim_traces/SPEC06/459.GemsFDTD-765B.champsimtrace.xz
VBerti Prefetcher
No Crossing Page
BERTI HASH ENTANGLING
BERTI IP MASK ffff
Off-chip DRAM Size: 16 GiB Channels: 1 Width: 64-bit Data Rate: 3205 MT/s
Warmup halting CPU 0 at instruction 50000004 cycle 18496929 for remainder of phase
Warmup finished CPU 0 instructions: 50000004 cycles: 18496929 cumulative IPC: 2.703 (Simulation time: 00 hr 04 min 26 sec)
Warmup complete CPU 0 instructions: 50000004 cycles: 18496929 cumulative IPC: 2.703 (Simulation time: 00 hr 04 min 26 sec)
Simulation finished CPU 0 instructions: 100000005 cycles: 94326895 cumulative IPC: 1.06 (Simulation time: 00 hr 21 min 09 sec)
Simulation complete CPU 0 instructions: 100000005 cycles: 94326895 cumulative IPC: 1.06 (Simulation time: 00 hr 21 min 09 sec)

ChampSim completed all CPUs

=== Simulation ===
CPU 0 runs /data0/tzh/champsim_traces/SPEC06/459.GemsFDTD-765B.champsimtrace.xz

Region of Interest Statistics

CPU 0 cumulative IPC: 1.06 instructions: 100000005 cycles: 94326895
CPU 0 Branch Prediction Accuracy: 99.95% MPKI: 0.00296 Average ROB Occupancy at Mispredict: 318.6
Branch type MPKI
BRANCH_DIRECT_JUMP: 6e-05
BRANCH_INDIRECT: 0
BRANCH_CONDITIONAL: 0.0029
BRANCH_DIRECT_CALL: 0
BRANCH_INDIRECT_CALL: 0
BRANCH_RETURN: 0

cpu0->cpu0_STLB TOTAL        ACCESS:     326975 HIT:     100731 MISS:     226244 MSHR_MERGE:          0
cpu0->cpu0_STLB LOAD         ACCESS:     326975 HIT:     100731 MISS:     226244 MSHR_MERGE:          0
cpu0->cpu0_STLB RFO          ACCESS:          0 HIT:          0 MISS:          0 MSHR_MERGE:          0
cpu0->cpu0_STLB PREFETCH     ACCESS:          0 HIT:          0 MISS:          0 MSHR_MERGE:          0
cpu0->cpu0_STLB WRITE        ACCESS:          0 HIT:          0 MISS:          0 MSHR_MERGE:          0
cpu0->cpu0_STLB TRANSLATION  ACCESS:          0 HIT:          0 MISS:          0 MSHR_MERGE:          0
cpu0->cpu0_STLB PREFETCH REQUESTED:          0 ISSUED:          0 USEFUL:          0 USELESS:          0 LATE:          0 TOO_EARLY:          0
cpu0->cpu0_STLB AVERAGE MISS LATENCY: 103.2 cycles
cpu0->cpu0_L2C TOTAL        ACCESS:    4268761 HIT:    2482470 MISS:    1786291 MSHR_MERGE:     153621
cpu0->cpu0_L2C LOAD         ACCESS:     700221 HIT:     263129 MISS:     437092 MSHR_MERGE:      10932
cpu0->cpu0_L2C RFO          ACCESS:       1635 HIT:       1626 MISS:          9 MSHR_MERGE:          0
cpu0->cpu0_L2C PREFETCH     ACCESS:    2915660 HIT:    1596422 MISS:    1319238 MSHR_MERGE:     142689
cpu0->cpu0_L2C WRITE        ACCESS:     618715 HIT:     618708 MISS:          7 MSHR_MERGE:          0
cpu0->cpu0_L2C TRANSLATION  ACCESS:      32530 HIT:       2585 MISS:      29945 MSHR_MERGE:          0
cpu0->cpu0_L2C PREFETCH REQUESTED:     335005 ISSUED:     334990 USEFUL:      67687 USELESS:      87756 LATE:          1 TOO_EARLY:        136
cpu0->cpu0_L2C AVERAGE MISS LATENCY: 292.2 cycles
cpu0->cpu0_L1I TOTAL        ACCESS:   28943579 HIT:   28943435 MISS:        144 MSHR_MERGE:         56
cpu0->cpu0_L1I LOAD         ACCESS:   28943579 HIT:   28943435 MISS:        144 MSHR_MERGE:         56
cpu0->cpu0_L1I RFO          ACCESS:          0 HIT:          0 MISS:          0 MSHR_MERGE:          0
cpu0->cpu0_L1I PREFETCH     ACCESS:          0 HIT:          0 MISS:          0 MSHR_MERGE:          0
cpu0->cpu0_L1I WRITE        ACCESS:          0 HIT:          0 MISS:          0 MSHR_MERGE:          0
cpu0->cpu0_L1I TRANSLATION  ACCESS:          0 HIT:          0 MISS:          0 MSHR_MERGE:          0
cpu0->cpu0_L1I PREFETCH REQUESTED:          0 ISSUED:          0 USEFUL:          0 USELESS:          0 LATE:          0 TOO_EARLY:          0
cpu0->cpu0_L1I AVERAGE MISS LATENCY: 251 cycles
cpu0->cpu0_L1D TOTAL        ACCESS:   60307261 HIT:   56900599 MISS:    3406662 MSHR_MERGE:      89636
cpu0->cpu0_L1D LOAD         ACCESS:   41994643 HIT:   41219756 MISS:     774887 MSHR_MERGE:      74754
cpu0->cpu0_L1D RFO          ACCESS:          0 HIT:          0 MISS:          0 MSHR_MERGE:          0
cpu0->cpu0_L1D PREFETCH     ACCESS:   10528046 HIT:    7941019 MISS:    2587027 MSHR_MERGE:       4358
cpu0->cpu0_L1D WRITE        ACCESS:    7334180 HIT:    7324494 MISS:       9686 MSHR_MERGE:       7992
cpu0->cpu0_L1D TRANSLATION  ACCESS:     450392 HIT:     415330 MISS:      35062 MSHR_MERGE:       2532
cpu0->cpu0_L1D PREFETCH REQUESTED:   20694354 ISSUED:   10528043 USEFUL:     633901 USELESS:     163877 LATE:       1557 TOO_EARLY:         12
cpu0->cpu0_L1D AVERAGE MISS LATENCY: 194.4 cycles
cpu0->cpu0_ITLB TOTAL        ACCESS:   24948738 HIT:   24948732 MISS:          6 MSHR_MERGE:          5
cpu0->cpu0_ITLB LOAD         ACCESS:   24948738 HIT:   24948732 MISS:          6 MSHR_MERGE:          5
cpu0->cpu0_ITLB RFO          ACCESS:          0 HIT:          0 MISS:          0 MSHR_MERGE:          0
cpu0->cpu0_ITLB PREFETCH     ACCESS:          0 HIT:          0 MISS:          0 MSHR_MERGE:          0
cpu0->cpu0_ITLB WRITE        ACCESS:          0 HIT:          0 MISS:          0 MSHR_MERGE:          0
cpu0->cpu0_ITLB TRANSLATION  ACCESS:          0 HIT:          0 MISS:          0 MSHR_MERGE:          0
cpu0->cpu0_ITLB PREFETCH REQUESTED:          0 ISSUED:          0 USEFUL:          0 USELESS:          0 LATE:          0 TOO_EARLY:          0
cpu0->cpu0_ITLB AVERAGE MISS LATENCY: 791 cycles
cpu0->cpu0_DTLB TOTAL        ACCESS:   56155453 HIT:   55773131 MISS:     382322 MSHR_MERGE:      55348
cpu0->cpu0_DTLB LOAD         ACCESS:   56155453 HIT:   55773131 MISS:     382322 MSHR_MERGE:      55348
cpu0->cpu0_DTLB RFO          ACCESS:          0 HIT:          0 MISS:          0 MSHR_MERGE:          0
cpu0->cpu0_DTLB PREFETCH     ACCESS:          0 HIT:          0 MISS:          0 MSHR_MERGE:          0
cpu0->cpu0_DTLB WRITE        ACCESS:          0 HIT:          0 MISS:          0 MSHR_MERGE:          0
cpu0->cpu0_DTLB TRANSLATION  ACCESS:          0 HIT:          0 MISS:          0 MSHR_MERGE:          0
cpu0->cpu0_DTLB PREFETCH REQUESTED:          0 ISSUED:          0 USEFUL:          0 USELESS:          0 LATE:          0 TOO_EARLY:          0
cpu0->cpu0_DTLB AVERAGE MISS LATENCY: 77.09 cycles
cpu0->LLC TOTAL        ACCESS:    2249781 HIT:     667531 MISS:    1582250 MSHR_MERGE:       3695
cpu0->LLC LOAD         ACCESS:     426160 HIT:      19971 MISS:     406189 MSHR_MERGE:          1
cpu0->LLC RFO          ACCESS:          9 HIT:          0 MISS:          9 MSHR_MERGE:          0
cpu0->LLC PREFETCH     ACCESS:    1176526 HIT:     103947 MISS:    1072579 MSHR_MERGE:       3694
cpu0->LLC WRITE        ACCESS:     617141 HIT:     543382 MISS:      73759 MSHR_MERGE:          0
cpu0->LLC TRANSLATION  ACCESS:      29945 HIT:        231 MISS:      29714 MSHR_MERGE:          0
cpu0->LLC PREFETCH REQUESTED:          0 ISSUED:          0 USEFUL:          0 USELESS:          0 LATE:          0 TOO_EARLY:          0
cpu0->LLC AVERAGE MISS LATENCY: 251 cycles

DRAM Statistics

Channel 0 RQ ROW_BUFFER_HIT:      21668
  ROW_BUFFER_MISS:    1483128
  AVG DBUS CONGESTED CYCLE: 8.61
Channel 0 WQ ROW_BUFFER_HIT:     123865
  ROW_BUFFER_MISS:     495899
  FULL:          0
Channel 0 REFRESHES ISSUED:       7860

[ROI Statistics]
[System Configuration]
num_cpus 1
cpu_freq 4000
fetch_width 6
decode_width 6
dispatch_width 6
execute_width 6
lq_width 2
sq_width 2
retire_width 6
scheduler_size 128
branch_mispredict_penalty 15
rob_size 352
lq_size 128
sq_size 72
ifetch_buffer_size 64
decode_buffer_size 32
dispatch_buffer_size 32
register_file_size 288
decode_latency 1
dispatch_latency 1
schedule_latency 1
execute_latency 1
page_size 4096
block_size 64
core_0_itlb_set 16
core_0_itlb_way 4
core_0_itlb_rq_size 16
core_0_itlb_wq_size 16
core_0_itlb_pq_size 0
core_0_itlb_mshr_size 8
core_0_itlb_hit_latency 1
core_0_itlb_fill_latency 1
core_0_itlb_max_tag_check 2
core_0_itlb_max_fill 2
core_0_dtlb_set 16
core_0_dtlb_way 4
core_0_dtlb_rq_size 16
core_0_dtlb_wq_size 16
core_0_dtlb_pq_size 0
core_0_dtlb_mshr_size 8
core_0_dtlb_hit_latency 1
core_0_dtlb_fill_latency 1
core_0_dtlb_max_tag_check 2
core_0_dtlb_max_fill 2
core_0_stlb_set 128
core_0_stlb_way 12
core_0_stlb_rq_size 32
core_0_stlb_wq_size 32
core_0_stlb_pq_size 0
core_0_stlb_mshr_size 16
core_0_stlb_hit_latency 4
core_0_stlb_fill_latency 4
core_0_stlb_max_tag_check 1
core_0_stlb_max_fill 1
core_0_l1i_set 64
core_0_l1i_way 8
core_0_l1i_rq_size 64
core_0_l1i_wq_size 64
core_0_l1i_pq_size 32
core_0_l1i_mshr_size 8
core_0_l1i_hit_latency 2
core_0_l1i_fill_latency 2
core_0_l1i_max_tag_check 2
core_0_l1i_max_fill 2
core_0_l1d_set 64
core_0_l1d_way 12
core_0_l1d_rq_size 64
core_0_l1d_wq_size 64
core_0_l1d_pq_size 8
core_0_l1d_mshr_size 16
core_0_l1d_hit_latency 2
core_0_l1d_fill_latency 3
core_0_l1d_max_tag_check 2
core_0_l1d_max_fill 2
core_0_l2c_set 1024
core_0_l2c_way 8
core_0_l2c_rq_size 32
core_0_l2c_wq_size 32
core_0_l2c_pq_size 16
core_0_l2c_mshr_size 32
core_0_l2c_hit_latency 5
core_0_l2c_fill_latency 5
core_0_l2c_max_tag_check 1
core_0_l2c_max_fill 1
llc_set 2048
llc_way 16
llc_rq_size 32
llc_wq_size 32
llc_pq_size 32
llc_mshr_size 64
llc_hit_latency 10
llc_fill_latency 10
llc_max_tag_check 1
llc_max_fill 1
dram_channels 1
dram_ranks 1
dram_bankgroups 8
dram_banks 4
dram_rows 65536
dram_columns 1024
dram_channel_width 8
dram_rq_size 64
dram_wq_size 64
dram_size 17179869184
core_0_itlb_prefetcher no
core_0_dtlb_prefetcher no
core_0_stlb_prefetcher no
core_0_l1i_prefetcher next_line
core_0_l1d_prefetcher vberti_nocross
core_0_l2c_prefetcher ip_stride
llc_prefetcher no
llc_replacement drrip

Core_0_instructions 100000005
Core_0_cycles 94326895
Core_0_IPC 1.06014
Core_0_branch_prediction_accuracy 99.9487
Core_0_branch_MPKI 0.00296
Core_0_average_ROB_occupancy_at_mispredict 318.628

Core_0_ITLB_total_access 24948738
Core_0_ITLB_total_hit 24948732
Core_0_ITLB_total_miss 6
Core_0_ITLB_total_MPKI 6e-05
Core_0_ITLB_total_miss_rate 2.40493e-07
Core_0_ITLB_demand_access 24948738
Core_0_ITLB_demand_hit 24948732
Core_0_ITLB_demand_miss 6
Core_0_ITLB_demand_MPKI 6e-05
Core_0_ITLB_demand_miss_rate 2.40493e-07
Core_0_ITLB_load_access 24948738
Core_0_ITLB_load_hit 24948732
Core_0_ITLB_load_miss 6
Core_0_ITLB_load_MPKI 6e-05
Core_0_ITLB_load_miss_rate 2.40493e-07
Core_0_ITLB_rfo_access 0
Core_0_ITLB_rfo_hit 0
Core_0_ITLB_rfo_miss 0
Core_0_ITLB_rfo_MPKI 0
Core_0_ITLB_rfo_miss_rate 0
Core_0_ITLB_prefetch_access 0
Core_0_ITLB_prefetch_hit 0
Core_0_ITLB_prefetch_miss 0
Core_0_ITLB_prefetch_MPKI 0
Core_0_ITLB_prefetch_miss_rate 0
Core_0_ITLB_writeback_access 0
Core_0_ITLB_writeback_hit 0
Core_0_ITLB_writeback_miss 0
Core_0_ITLB_writeback_MPKI 0
Core_0_ITLB_writeback_miss_rate 0
Core_0_ITLB_prefetch_requested 0
Core_0_ITLB_prefetch_issued 0
Core_0_ITLB_prefetch_useful 0
Core_0_ITLB_prefetch_useless 0
Core_0_ITLB_prefetch_late 0
Core_0_ITLB_prefetch_fill 0
Core_0_ITLB_prefetch_too_early 0
Core_0_ITLB_prefetch_too_early_among_fill 0
Core_0_ITLB_prefetch_too_early_among_useless 0
Core_0_ITLB_prefetch_pollution_evict 0
Core_0_ITLB_prefetch_pollution_demand 0
Core_0_ITLB_prefetch_pollution_among_prefetch_fill 0
Core_0_ITLB_prefetch_accuracy 0
Core_0_ITLB_prefetch_coverage 0

Core_0_DTLB_total_access 56155453
Core_0_DTLB_total_hit 55773131
Core_0_DTLB_total_miss 382322
Core_0_DTLB_total_MPKI 3.82322
Core_0_DTLB_total_miss_rate 0.00680828
Core_0_DTLB_demand_access 56155453
Core_0_DTLB_demand_hit 55773131
Core_0_DTLB_demand_miss 382322
Core_0_DTLB_demand_MPKI 3.82322
Core_0_DTLB_demand_miss_rate 0.00680828
Core_0_DTLB_load_access 56155453
Core_0_DTLB_load_hit 55773131
Core_0_DTLB_load_miss 382322
Core_0_DTLB_load_MPKI 3.82322
Core_0_DTLB_load_miss_rate 0.00680828
Core_0_DTLB_rfo_access 0
Core_0_DTLB_rfo_hit 0
Core_0_DTLB_rfo_miss 0
Core_0_DTLB_rfo_MPKI 0
Core_0_DTLB_rfo_miss_rate 0
Core_0_DTLB_prefetch_access 0
Core_0_DTLB_prefetch_hit 0
Core_0_DTLB_prefetch_miss 0
Core_0_DTLB_prefetch_MPKI 0
Core_0_DTLB_prefetch_miss_rate 0
Core_0_DTLB_writeback_access 0
Core_0_DTLB_writeback_hit 0
Core_0_DTLB_writeback_miss 0
Core_0_DTLB_writeback_MPKI 0
Core_0_DTLB_writeback_miss_rate 0
Core_0_DTLB_prefetch_requested 0
Core_0_DTLB_prefetch_issued 0
Core_0_DTLB_prefetch_useful 0
Core_0_DTLB_prefetch_useless 0
Core_0_DTLB_prefetch_late 0
Core_0_DTLB_prefetch_fill 0
Core_0_DTLB_prefetch_too_early 0
Core_0_DTLB_prefetch_too_early_among_fill 0
Core_0_DTLB_prefetch_too_early_among_useless 0
Core_0_DTLB_prefetch_pollution_evict 0
Core_0_DTLB_prefetch_pollution_demand 0
Core_0_DTLB_prefetch_pollution_among_prefetch_fill 0
Core_0_DTLB_prefetch_accuracy 0
Core_0_DTLB_prefetch_coverage 0

Core_0_STLB_total_access 326975
Core_0_STLB_total_hit 100731
Core_0_STLB_total_miss 226244
Core_0_STLB_total_MPKI 2.26244
Core_0_STLB_total_miss_rate 0.691931
Core_0_STLB_demand_access 326975
Core_0_STLB_demand_hit 100731
Core_0_STLB_demand_miss 226244
Core_0_STLB_demand_MPKI 2.26244
Core_0_STLB_demand_miss_rate 0.691931
Core_0_STLB_load_access 326975
Core_0_STLB_load_hit 100731
Core_0_STLB_load_miss 226244
Core_0_STLB_load_MPKI 2.26244
Core_0_STLB_load_miss_rate 0.691931
Core_0_STLB_rfo_access 0
Core_0_STLB_rfo_hit 0
Core_0_STLB_rfo_miss 0
Core_0_STLB_rfo_MPKI 0
Core_0_STLB_rfo_miss_rate 0
Core_0_STLB_prefetch_access 0
Core_0_STLB_prefetch_hit 0
Core_0_STLB_prefetch_miss 0
Core_0_STLB_prefetch_MPKI 0
Core_0_STLB_prefetch_miss_rate 0
Core_0_STLB_writeback_access 0
Core_0_STLB_writeback_hit 0
Core_0_STLB_writeback_miss 0
Core_0_STLB_writeback_MPKI 0
Core_0_STLB_writeback_miss_rate 0
Core_0_STLB_prefetch_requested 0
Core_0_STLB_prefetch_issued 0
Core_0_STLB_prefetch_useful 0
Core_0_STLB_prefetch_useless 0
Core_0_STLB_prefetch_late 0
Core_0_STLB_prefetch_fill 0
Core_0_STLB_prefetch_too_early 0
Core_0_STLB_prefetch_too_early_among_fill 0
Core_0_STLB_prefetch_too_early_among_useless 0
Core_0_STLB_prefetch_pollution_evict 0
Core_0_STLB_prefetch_pollution_demand 0
Core_0_STLB_prefetch_pollution_among_prefetch_fill 0
Core_0_STLB_prefetch_accuracy 0
Core_0_STLB_prefetch_coverage 0

Core_0_L1I_total_access 28943579
Core_0_L1I_total_hit 28943435
Core_0_L1I_total_miss 144
Core_0_L1I_total_MPKI 0.00144
Core_0_L1I_total_miss_rate 4.9752e-06
Core_0_L1I_demand_access 28943579
Core_0_L1I_demand_hit 28943435
Core_0_L1I_demand_miss 144
Core_0_L1I_demand_MPKI 0.00144
Core_0_L1I_demand_miss_rate 4.9752e-06
Core_0_L1I_load_access 28943579
Core_0_L1I_load_hit 28943435
Core_0_L1I_load_miss 144
Core_0_L1I_load_MPKI 0.00144
Core_0_L1I_load_miss_rate 4.9752e-06
Core_0_L1I_rfo_access 0
Core_0_L1I_rfo_hit 0
Core_0_L1I_rfo_miss 0
Core_0_L1I_rfo_MPKI 0
Core_0_L1I_rfo_miss_rate 0
Core_0_L1I_prefetch_access 0
Core_0_L1I_prefetch_hit 0
Core_0_L1I_prefetch_miss 0
Core_0_L1I_prefetch_MPKI 0
Core_0_L1I_prefetch_miss_rate 0
Core_0_L1I_writeback_access 0
Core_0_L1I_writeback_hit 0
Core_0_L1I_writeback_miss 0
Core_0_L1I_writeback_MPKI 0
Core_0_L1I_writeback_miss_rate 0
Core_0_L1I_prefetch_requested 0
Core_0_L1I_prefetch_issued 0
Core_0_L1I_prefetch_useful 0
Core_0_L1I_prefetch_useless 0
Core_0_L1I_prefetch_late 0
Core_0_L1I_prefetch_fill 0
Core_0_L1I_prefetch_too_early 0
Core_0_L1I_prefetch_too_early_among_fill 0
Core_0_L1I_prefetch_too_early_among_useless 0
Core_0_L1I_prefetch_pollution_evict 0
Core_0_L1I_prefetch_pollution_demand 0
Core_0_L1I_prefetch_pollution_among_prefetch_fill 0
Core_0_L1I_prefetch_accuracy 0
Core_0_L1I_prefetch_coverage 0

Core_0_L1D_total_access 59856869
Core_0_L1D_total_hit 56485269
Core_0_L1D_total_miss 3371600
Core_0_L1D_total_MPKI 33.716
Core_0_L1D_total_miss_rate 0.0563277
Core_0_L1D_demand_access 41994643
Core_0_L1D_demand_hit 41219756
Core_0_L1D_demand_miss 774887
Core_0_L1D_demand_MPKI 7.74887
Core_0_L1D_demand_miss_rate 0.018452
Core_0_L1D_load_access 41994643
Core_0_L1D_load_hit 41219756
Core_0_L1D_load_miss 774887
Core_0_L1D_load_MPKI 7.74887
Core_0_L1D_load_miss_rate 0.018452
Core_0_L1D_rfo_access 0
Core_0_L1D_rfo_hit 0
Core_0_L1D_rfo_miss 0
Core_0_L1D_rfo_MPKI 0
Core_0_L1D_rfo_miss_rate 0
Core_0_L1D_prefetch_access 10528046
Core_0_L1D_prefetch_hit 7941019
Core_0_L1D_prefetch_miss 2587027
Core_0_L1D_prefetch_MPKI 25.8703
Core_0_L1D_prefetch_miss_rate 0.245727
Core_0_L1D_writeback_access 7334180
Core_0_L1D_writeback_hit 7324494
Core_0_L1D_writeback_miss 9686
Core_0_L1D_writeback_MPKI 0.09686
Core_0_L1D_writeback_miss_rate 0.00132067
Core_0_L1D_prefetch_requested 20694354
Core_0_L1D_prefetch_issued 10528043
Core_0_L1D_prefetch_useful 633901
Core_0_L1D_prefetch_useless 163877
Core_0_L1D_prefetch_late 1557
Core_0_L1D_prefetch_fill 796244
Core_0_L1D_prefetch_too_early 12
Core_0_L1D_prefetch_too_early_among_fill 1.50708e-05
Core_0_L1D_prefetch_too_early_among_useless 7.32257e-05
Core_0_L1D_prefetch_pollution_evict 17912
Core_0_L1D_prefetch_pollution_demand 17911
Core_0_L1D_prefetch_pollution_among_prefetch_fill 0.0224956
Core_0_L1D_prefetch_accuracy 0.0602107
Core_0_L1D_prefetch_coverage 0.449962

Core_0_L2C_total_access 4236231
Core_0_L2C_total_hit 2479885
Core_0_L2C_total_miss 1756346
Core_0_L2C_total_MPKI 17.5635
Core_0_L2C_total_miss_rate 0.414601
Core_0_L2C_demand_access 701856
Core_0_L2C_demand_hit 264755
Core_0_L2C_demand_miss 437101
Core_0_L2C_demand_MPKI 4.37101
Core_0_L2C_demand_miss_rate 0.622779
Core_0_L2C_load_access 700221
Core_0_L2C_load_hit 263129
Core_0_L2C_load_miss 437092
Core_0_L2C_load_MPKI 4.37092
Core_0_L2C_load_miss_rate 0.62422
Core_0_L2C_rfo_access 1635
Core_0_L2C_rfo_hit 1626
Core_0_L2C_rfo_miss 9
Core_0_L2C_rfo_MPKI 9e-05
Core_0_L2C_rfo_miss_rate 0.00550459
Core_0_L2C_prefetch_access 2915660
Core_0_L2C_prefetch_hit 1596422
Core_0_L2C_prefetch_miss 1319238
Core_0_L2C_prefetch_MPKI 13.1924
Core_0_L2C_prefetch_miss_rate 0.452466
Core_0_L2C_writeback_access 618715
Core_0_L2C_writeback_hit 618708
Core_0_L2C_writeback_miss 7
Core_0_L2C_writeback_MPKI 7e-05
Core_0_L2C_writeback_miss_rate 1.13138e-05
Core_0_L2C_prefetch_requested 335005
Core_0_L2C_prefetch_issued 334990
Core_0_L2C_prefetch_useful 67687
Core_0_L2C_prefetch_useless 87756
Core_0_L2C_prefetch_late 1
Core_0_L2C_prefetch_fill 1151638
Core_0_L2C_prefetch_too_early 136
Core_0_L2C_prefetch_too_early_among_fill 0.000118093
Core_0_L2C_prefetch_too_early_among_useless 0.00154975
Core_0_L2C_prefetch_pollution_evict 15705
Core_0_L2C_prefetch_pollution_demand 15682
Core_0_L2C_prefetch_pollution_among_prefetch_fill 0.0136371
Core_0_L2C_prefetch_accuracy 0.202057
Core_0_L2C_prefetch_coverage 0.13409

Core_0_LLC_total_access 2219836
Core_0_LLC_total_hit 667300
Core_0_LLC_total_miss 1552536
Core_0_LLC_total_MPKI 15.5254
Core_0_LLC_total_miss_rate 0.699392
Core_0_LLC_demand_access 426169
Core_0_LLC_demand_hit 19971
Core_0_LLC_demand_miss 406198
Core_0_LLC_demand_MPKI 4.06198
Core_0_LLC_demand_miss_rate 0.953138
Core_0_LLC_load_access 426160
Core_0_LLC_load_hit 19971
Core_0_LLC_load_miss 406189
Core_0_LLC_load_MPKI 4.06189
Core_0_LLC_load_miss_rate 0.953137
Core_0_LLC_rfo_access 9
Core_0_LLC_rfo_hit 0
Core_0_LLC_rfo_miss 9
Core_0_LLC_rfo_MPKI 9e-05
Core_0_LLC_rfo_miss_rate 1
Core_0_LLC_prefetch_access 1176526
Core_0_LLC_prefetch_hit 103947
Core_0_LLC_prefetch_miss 1072579
Core_0_LLC_prefetch_MPKI 10.7258
Core_0_LLC_prefetch_miss_rate 0.911649
Core_0_LLC_writeback_access 617141
Core_0_LLC_writeback_hit 543382
Core_0_LLC_writeback_miss 73759
Core_0_LLC_writeback_MPKI 0.73759
Core_0_LLC_writeback_miss_rate 0.119517
Core_0_LLC_prefetch_requested 0
Core_0_LLC_prefetch_issued 0
Core_0_LLC_prefetch_useful 0
Core_0_LLC_prefetch_useless 0
Core_0_LLC_prefetch_late 0
Core_0_LLC_prefetch_fill 1068884
Core_0_LLC_prefetch_too_early 0
Core_0_LLC_prefetch_too_early_among_fill 0
Core_0_LLC_prefetch_too_early_among_useless 0
Core_0_LLC_prefetch_pollution_evict 1210
Core_0_LLC_prefetch_pollution_demand 1210
Core_0_LLC_prefetch_pollution_among_prefetch_fill 0.00113202
Core_0_LLC_prefetch_accuracy 0
Core_0_LLC_prefetch_coverage 0

[DRAM Statistics]
Channel_0_RQ_row_buffer_hit 21668
Channel_0_RQ_row_buffer_miss 1483128
Channel_0_WQ_row_buffer_hit 123865
Channel_0_WQ_row_buffer_miss 495899
Channel_0_WQ_full 0
Channel_0_dbus_congested 5419323
DRAM_total_RQ_row_buffer_hit 21668
DRAM_total_RQ_row_buffer_miss 1483128
DRAM_total_WQ_row_buffer_hit 123865
DRAM_total_WQ_row_buffer_miss 495899
DRAM_total_WQ_full 0
DRAM_total_dbus_congested 5419323
DRAM_avg_congested_cycle 8.60987

====== DRAM_RQ_TRAFFIC ========
DRAM_RQ_READ_TRAFFIC_BREAKDOWN:
data_demand_read.count = 406109
data_demand_read.share = 26.99%

inst_demand_read.count = 88
inst_demand_read.share = 0.01%

cache_inst_prefetch.count = 0
cache_inst_prefetch.share = 0.00%

cache_data_prefetch.count = 1068885
cache_data_prefetch.share = 71.03%

stlb_data_demand.count = 29712
stlb_data_demand.share = 1.97%

stlb_inst_demand.count = 2
stlb_inst_demand.share = 0.00%

stlb_l1i_pref.count = 0
stlb_l1i_pref.share = 0.00%

stlb_l1d_pref.count = 0
stlb_l1d_pref.share = 0.00%

DRAM_RQ_READ_TRAFFIC_SUMMARY:
cache_demand.count = 406197
cache_demand.share = 26.99%

cache_prefetch.count = 1068885
cache_prefetch.share = 71.03%

stlb_demand.count = 29714
stlb_demand.share = 1.97%

stlb_prefetch.count = 0
stlb_prefetch.share = 0.00%

DRAM_RQ_READ_TRAFFIC_DEBUG:
total_classified_read.count = 1504796
unclassified_read.count = 0
total_read_with_other.count = 1504796

classified_plus_unclassified_check.count = 1504796
dram_rq_read_total_observed.count = 1504796
dram_rq_read_total_observed.per_1K_instructions = 15.048

STLB_MISS_PTW_DRAM_TOUCH_BREAKDOWN:
stlb_miss_total.count = 226244

stlb_miss_touch_dram.count = 29500
stlb_miss_touch_dram.share = 13.04%

stlb_miss_no_dram_touch.count = 196744
stlb_miss_no_dram_touch.share = 86.96%

STLB_MISS_PTW_DRAM_TOUCH_DEBUG:
stlb_miss_touch_plus_no_touch.count = 226244
stlb_miss_total_check.count = 226244

======STLB miss causes ========
Core_0_STLB_miss_cause_breakdown
Core_0_STLB_cause_Demand_Data_miss 226243
Core_0_STLB_cause_Demand_Data_miss_rate 0.691928
Core_0_STLB_cause_Demand_Instruction_miss 1
Core_0_STLB_cause_Demand_Instruction_miss_rate 3.05834e-06
Core_0_STLB_cause_L1D_Prefetch_miss 0
Core_0_STLB_cause_L1D_Prefetch_miss_rate 0
Core_0_STLB_cause_L1D_Prefetch_Same_Page_miss 0
Core_0_STLB_cause_L1D_Prefetch_Same_Page_miss_rate 0
Core_0_STLB_cause_L1D_Prefetch_Cross_Page_miss 0
Core_0_STLB_cause_L1D_Prefetch_Cross_Page_miss_rate 0
Core_0_STLB_cause_L1I_Prefetch_miss 0
Core_0_STLB_cause_L1I_Prefetch_miss_rate 0
Core_0_STLB_cause_Other_miss 0
Core_0_STLB_cause_Other_miss_rate 0
Core_0_STLB_Demand_miss 226244
Core_0_STLB_Demand_miss_rate 0.691931
Core_0_STLB_L1D_Prefetch_miss 0
Core_0_STLB_L1D_Prefetch_miss_rate 0
Core_0_STLB_Other_miss 0
Core_0_STLB_Other_miss_rate 0

========== vBerti-TLB Cross-page Flow Stats ==========

Core_0_vBerti_Requested 20694354
Core_0_vBerti_Cross_page_prefetch_in_Requested 0
Core_0_vBerti_Same_page_prefetch_in_Requested 20694354
Core_0_vBerti_Cross_page_prefetch_of_Requested 0
Core_0_vBerti_Issued 10528043
Core_0_vBerti_InPQ_Same_page_prefetch 10528043
Core_0_vBerti_InPQ_Cross_page_prefetch 0
Core_0_vBerti_PQ_Drop_Rate 0.49126
Core_0_vBerti_InPQ_Cross_page_prefetch_of_Requested 0
Core_0_vBerti_Cross_page_PQ_Drop_rate 0
Core_0_vBerti_Cross_page_prefetch_of_Issued 0
Core_0_CP_PF_PQFULL_drop 0
Core_0_CP_PF_PQFULL_TLB_rescue_enqueued 0
Core_0_CP_PF_PQFULL_TLB_rescue_issued 0
Core_0_CP_PF_PQFULL_TLB_rescue_translated 0

========= DTLB_vBerti Prefetch Stats =========
Core_0_DTLB_demand_access 46437123
Core_0_DTLB_demand_hit 46058225
Core_0_DTLB_demand_miss 378898
Core_0_DTLB_demand_mshr_merge 54780
Core_0_DTLB_demand_fill 324136
Core_0_DTLB_demand_miss_rate 0.00815938
Core_0_DTLB_demand_mpki 3.78898
Core_0_DTLB_vberti_prefetch_access 9718330
Core_0_DTLB_vberti_prefetch_hit 9714906
Core_0_DTLB_vberti_prefetch_miss 3424
Core_0_DTLB_vberti_prefetch_mshr_merge 568
Core_0_DTLB_vberti_prefetch_fill 2841
Core_0_DTLB_vberti_prefetch_miss_rate 0.000352324
Core_0_DTLB_vberti_prefetch_mpki 0.03424

=== DTLB_vBerti Same/Cross-page Prefetch Stats ===
Core_0_DTLB_vberti_same_page_prefetch 9718330
Core_0_DTLB_vberti_same_page_prefetch_hit 9714906
Core_0_DTLB_vberti_same_page_prefetch_miss 3424
Core_0_DTLB_vberti_same_page_prefetch_mshr_merge 568
Core_0_DTLB_vberti_same_page_prefetch_fill 2841
Core_0_DTLB_vberti_same_page_prefetch_miss_rate 0.000352324
Core_0_DTLB_vberti_same_page_prefetch_mpki 0.03424
Core_0_DTLB_vberti_cross_page_prefetch 0
Core_0_DTLB_vberti_cross_page_prefetch_hit 0
Core_0_DTLB_vberti_cross_page_prefetch_miss 0
Core_0_DTLB_vberti_cross_page_prefetch_mshr_merge 0
Core_0_DTLB_vberti_cross_page_prefetch_fill 0
Core_0_DTLB_vberti_cross_page_prefetch_miss_rate 0
Core_0_DTLB_vberti_cross_page_prefetch_mpki 0
Core_0_DTLB_same_page_prefetch_miss_rate 0.000352324
Core_0_DTLB_same_page_prefetch_mpki 0.03424
Core_0_DTLB_cross_page_prefetch_miss_rate 0
Core_0_DTLB_cross_page_prefetch_mpki 0
Core_0_DTLB_cross_page_prefetch_issued 0
Core_0_DTLB_cross_page_prefetch_lookups 0
Core_0_DTLB_cross_page_prefetch_useful 0
Core_0_DTLB_cross_page_prefetch_useless 0
Core_0_DTLB_cross_page_prefetch_late 0
Core_0_DTLB_cross_page_prefetch_too_early 0
Core_0_DTLB_cross_page_prefetch_too_early_among_fill 0
Core_0_DTLB_cross_page_prefetch_too_early_among_useless 0
Core_0_DTLB_cross_page_prefetch_pollution_evict 0
Core_0_DTLB_cross_page_prefetch_pollution_demand 0
Core_0_DTLB_cross_page_prefetch_pollution_among_prefetch_fill 0
Core_0_DTLB_cross_page_prefetch_accuracy 0
Core_0_DTLB_cross_page_prefetch_coverage 0

========= STLB_vBerti Prefetch Stats =========
Core_0_STLB_demand_access 324119
Core_0_STLB_demand_hit 97875
Core_0_STLB_demand_miss 226244
Core_0_STLB_demand_mshr_merge 0
Core_0_STLB_demand_fill 226247
Core_0_STLB_demand_miss_rate 0.698028
Core_0_STLB_demand_mpki 2.26244
Core_0_STLB_vberti_prefetch_access 2856
Core_0_STLB_vberti_prefetch_hit 2856
Core_0_STLB_vberti_prefetch_miss 0
Core_0_STLB_vberti_prefetch_mshr_merge 0
Core_0_STLB_vberti_prefetch_fill 0
Core_0_STLB_vberti_prefetch_miss_rate 0
Core_0_STLB_vberti_prefetch_mpki 0

=== STLB_vBerti Same/Cross-page Prefetch Stats ===
Core_0_STLB_vberti_same_page_prefetch 2856
Core_0_STLB_vberti_same_page_prefetch_hit 2856
Core_0_STLB_vberti_same_page_prefetch_miss 0
Core_0_STLB_vberti_same_page_prefetch_mshr_merge 0
Core_0_STLB_vberti_same_page_prefetch_fill 0
Core_0_STLB_vberti_same_page_prefetch_miss_rate 0
Core_0_STLB_vberti_same_page_prefetch_mpki 0
Core_0_STLB_vberti_cross_page_prefetch 0
Core_0_STLB_vberti_cross_page_prefetch_hit 0
Core_0_STLB_vberti_cross_page_prefetch_miss 0
Core_0_STLB_vberti_cross_page_prefetch_mshr_merge 0
Core_0_STLB_vberti_cross_page_prefetch_fill 0
Core_0_STLB_vberti_cross_page_prefetch_miss_rate 0
Core_0_STLB_vberti_cross_page_prefetch_mpki 0
Core_0_STLB_same_page_prefetch_miss_rate 0
Core_0_STLB_same_page_prefetch_mpki 0
Core_0_STLB_cross_page_prefetch_miss_rate 0
Core_0_STLB_cross_page_prefetch_mpki 0
Core_0_STLB_cross_page_prefetch_issued 0
Core_0_STLB_cross_page_prefetch_lookups 0
Core_0_STLB_cross_page_prefetch_useful 0
Core_0_STLB_cross_page_prefetch_useless 0
Core_0_STLB_cross_page_prefetch_late 0
Core_0_STLB_cross_page_prefetch_too_early 0
Core_0_STLB_cross_page_prefetch_too_early_among_fill 0
Core_0_STLB_cross_page_prefetch_too_early_among_useless 0
Core_0_STLB_cross_page_prefetch_pollution_evict 0
Core_0_STLB_cross_page_prefetch_pollution_demand 0
Core_0_STLB_cross_page_prefetch_pollution_among_prefetch_fill 0
Core_0_STLB_cross_page_prefetch_accuracy 0
Core_0_STLB_cross_page_prefetch_coverage 0

========= STLB Cross-page Prefetch Buffer Stats =========
Core_0_STLB_raw_demand_miss 226243
Core_0_CP_PB_insert 0
Core_0_CP_PB_demand_hit 0
Core_0_STLB_PB_demand_miss 226243
Core_0_CP_PB_coverage 0
Core_0_STLB_raw_demand_mpki 2.26243
Core_0_STLB_PB_demand_mpki 2.26243
Core_0_CP_PB_demand_hit_mpki 0

Core_0_TLB_demand_miss_rate 0.00487205
Core_0_TLB_demand_mpki 2.26244
Core_0_TLB_same_page_prefetch_miss_rate 0
Core_0_TLB_same_page_prefetch_mpki 0
Core_0_TLB_cross_page_prefetch_miss_rate 0
Core_0_TLB_cross_page_prefetch_mpki 0
Core_0_TLB_cross_page_prefetch_issued 0
Core_0_TLB_cross_page_prefetch_lookups 0
Core_0_TLB_cross_page_prefetch_useful 0
Core_0_TLB_cross_page_prefetch_useless 0
Core_0_TLB_cross_page_prefetch_late 0
Core_0_TLB_cross_page_prefetch_too_early 0
Core_0_TLB_cross_page_prefetch_too_early_among_fill 0
Core_0_TLB_cross_page_prefetch_too_early_among_useless 0
Core_0_TLB_cross_page_prefetch_accuracy 0
Core_0_TLB_cross_page_prefetch_coverage 0
====== vBerti internal metric ========
BERTI TO_L1: 13120126 TO_L2: 7574228 TO_L2_BC_MSHR: 304715
BERTI AVG_LAT: 198.37 NUM_TRACK_LATENCY: 1494920 NUM_CANT_TRACK_LATENCY: 0
BERTI CROSS_PAGE 24849091 NO_CROSS_PAGE: 20694354
BERTI FOUND_BERTI: 9697538 NO_FOUND_BERTI: 39901358
BERTI AVERAGE_ISSUED: 2.5951
