[VMEM] WARNING: physical memory size is smaller than virtual memory size.

*** ChampSim Multicore Out-of-Order Simulator ***
Warmup Instructions: 50000000
Simulation Instructions: 100000000
Number of CPUs: 1
Page size: 4096
Core 0: /data2/zcq/champsim_traces_gap/bfs.twitter-160B.champsimtrace.xz
VBerti Prefetcher
No Crossing Page
BERTI HASH ENTANGLING
BERTI IP MASK ffff
Off-chip DRAM Size: 16 GiB Channels: 1 Width: 64-bit Data Rate: 3205 MT/s
Warmup halting CPU 0 at instruction 50000005 cycle 13865231 for remainder of phase
Warmup finished CPU 0 instructions: 50000005 cycles: 13865231 cumulative IPC: 3.606 (Simulation time: 00 hr 02 min 49 sec)
Warmup complete CPU 0 instructions: 50000005 cycles: 13865231 cumulative IPC: 3.606 (Simulation time: 00 hr 02 min 49 sec)
Simulation finished CPU 0 instructions: 100000004 cycles: 508276003 cumulative IPC: 0.1967 (Simulation time: 00 hr 35 min 03 sec)
Simulation complete CPU 0 instructions: 100000004 cycles: 508276003 cumulative IPC: 0.1967 (Simulation time: 00 hr 35 min 03 sec)

ChampSim completed all CPUs

=== Simulation ===
CPU 0 runs /data2/zcq/champsim_traces_gap/bfs.twitter-160B.champsimtrace.xz

Region of Interest Statistics

CPU 0 cumulative IPC: 0.1967 instructions: 100000004 cycles: 508276003
CPU 0 Branch Prediction Accuracy: 82.69% MPKI: 32.56 Average ROB Occupancy at Mispredict: 11
Branch type MPKI
BRANCH_DIRECT_JUMP: 0
BRANCH_INDIRECT: 0
BRANCH_CONDITIONAL: 32.56
BRANCH_DIRECT_CALL: 0
BRANCH_INDIRECT_CALL: 0
BRANCH_RETURN: 0

cpu0->cpu0_STLB TOTAL        ACCESS:    3557136 HIT:    3285867 MISS:     271269 MSHR_MERGE:          0
cpu0->cpu0_STLB LOAD         ACCESS:    3557136 HIT:    3285867 MISS:     271269 MSHR_MERGE:          0
cpu0->cpu0_STLB RFO          ACCESS:          0 HIT:          0 MISS:          0 MSHR_MERGE:          0
cpu0->cpu0_STLB PREFETCH     ACCESS:          0 HIT:          0 MISS:          0 MSHR_MERGE:          0
cpu0->cpu0_STLB WRITE        ACCESS:          0 HIT:          0 MISS:          0 MSHR_MERGE:          0
cpu0->cpu0_STLB TRANSLATION  ACCESS:          0 HIT:          0 MISS:          0 MSHR_MERGE:          0
cpu0->cpu0_STLB PREFETCH REQUESTED:          0 ISSUED:          0 USEFUL:          0 USELESS:          0 LATE:          0 TOO_EARLY:          0
cpu0->cpu0_STLB AVERAGE MISS LATENCY: 118.3 cycles
cpu0->cpu0_L2C TOTAL        ACCESS:   17645647 HIT:   11826302 MISS:    5819345 MSHR_MERGE:     661916
cpu0->cpu0_L2C LOAD         ACCESS:    5112833 HIT:    1538642 MISS:    3574191 MSHR_MERGE:      25620
cpu0->cpu0_L2C RFO          ACCESS:          0 HIT:          0 MISS:          0 MSHR_MERGE:          0
cpu0->cpu0_L2C PREFETCH     ACCESS:   12149982 HIT:    9970830 MISS:    2179152 MSHR_MERGE:     636296
cpu0->cpu0_L2C WRITE        ACCESS:     213917 HIT:     213731 MISS:        186 MSHR_MERGE:          0
cpu0->cpu0_L2C TRANSLATION  ACCESS:     168915 HIT:     103099 MISS:      65816 MSHR_MERGE:          0
cpu0->cpu0_L2C PREFETCH REQUESTED:    1968511 ISSUED:    1968213 USEFUL:     160282 USELESS:     162724 LATE:       5843 TOO_EARLY:       1570
cpu0->cpu0_L2C AVERAGE MISS LATENCY: 125 cycles
cpu0->cpu0_L1I TOTAL        ACCESS:      46458 HIT:      46458 MISS:          0 MSHR_MERGE:          0
cpu0->cpu0_L1I LOAD         ACCESS:      46458 HIT:      46458 MISS:          0 MSHR_MERGE:          0
cpu0->cpu0_L1I RFO          ACCESS:          0 HIT:          0 MISS:          0 MSHR_MERGE:          0
cpu0->cpu0_L1I PREFETCH     ACCESS:          0 HIT:          0 MISS:          0 MSHR_MERGE:          0
cpu0->cpu0_L1I WRITE        ACCESS:          0 HIT:          0 MISS:          0 MSHR_MERGE:          0
cpu0->cpu0_L1I TRANSLATION  ACCESS:          0 HIT:          0 MISS:          0 MSHR_MERGE:          0
cpu0->cpu0_L1I PREFETCH REQUESTED:          0 ISSUED:          0 USEFUL:          0 USELESS:          0 LATE:          0 TOO_EARLY:          0
cpu0->cpu0_L1I AVERAGE MISS LATENCY: - cycles
cpu0->cpu0_L1D TOTAL        ACCESS:   59559582 HIT:   42365124 MISS:   17194458 MSHR_MERGE:    1625352
cpu0->cpu0_L1D LOAD         ACCESS:   25194001 HIT:   18500627 MISS:    6693374 MSHR_MERGE:    1580542
cpu0->cpu0_L1D RFO          ACCESS:          0 HIT:          0 MISS:          0 MSHR_MERGE:          0
cpu0->cpu0_L1D PREFETCH     ACCESS:   30289033 HIT:   19958317 MISS:   10330716 MSHR_MERGE:      43357
cpu0->cpu0_L1D WRITE        ACCESS:    3535452 HIT:    3535452 MISS:          0 MSHR_MERGE:          0
cpu0->cpu0_L1D TRANSLATION  ACCESS:     541096 HIT:     370728 MISS:     170368 MSHR_MERGE:       1453
cpu0->cpu0_L1D PREFETCH REQUESTED:   47302580 ISSUED:   30289026 USEFUL:     622165 USELESS:      18622 LATE:        822 TOO_EARLY:        290
cpu0->cpu0_L1D AVERAGE MISS LATENCY: 94.91 cycles
cpu0->cpu0_ITLB TOTAL        ACCESS:      35489 HIT:      35489 MISS:          0 MSHR_MERGE:          0
cpu0->cpu0_ITLB LOAD         ACCESS:      35489 HIT:      35489 MISS:          0 MSHR_MERGE:          0
cpu0->cpu0_ITLB RFO          ACCESS:          0 HIT:          0 MISS:          0 MSHR_MERGE:          0
cpu0->cpu0_ITLB PREFETCH     ACCESS:          0 HIT:          0 MISS:          0 MSHR_MERGE:          0
cpu0->cpu0_ITLB WRITE        ACCESS:          0 HIT:          0 MISS:          0 MSHR_MERGE:          0
cpu0->cpu0_ITLB TRANSLATION  ACCESS:          0 HIT:          0 MISS:          0 MSHR_MERGE:          0
cpu0->cpu0_ITLB PREFETCH REQUESTED:          0 ISSUED:          0 USEFUL:          0 USELESS:          0 LATE:          0 TOO_EARLY:          0
cpu0->cpu0_ITLB AVERAGE MISS LATENCY: - cycles
cpu0->cpu0_DTLB TOTAL        ACCESS:   46813097 HIT:   42973775 MISS:    3839322 MSHR_MERGE:     282186
cpu0->cpu0_DTLB LOAD         ACCESS:   46813097 HIT:   42973775 MISS:    3839322 MSHR_MERGE:     282186
cpu0->cpu0_DTLB RFO          ACCESS:          0 HIT:          0 MISS:          0 MSHR_MERGE:          0
cpu0->cpu0_DTLB PREFETCH     ACCESS:          0 HIT:          0 MISS:          0 MSHR_MERGE:          0
cpu0->cpu0_DTLB WRITE        ACCESS:          0 HIT:          0 MISS:          0 MSHR_MERGE:          0
cpu0->cpu0_DTLB TRANSLATION  ACCESS:          0 HIT:          0 MISS:          0 MSHR_MERGE:          0
cpu0->cpu0_DTLB PREFETCH REQUESTED:          0 ISSUED:          0 USEFUL:          0 USELESS:          0 LATE:          0 TOO_EARLY:          0
cpu0->cpu0_DTLB AVERAGE MISS LATENCY: 14.15 cycles
cpu0->LLC TOTAL        ACCESS:    5367964 HIT:    1689844 MISS:    3678120 MSHR_MERGE:        657
cpu0->LLC LOAD         ACCESS:    3548570 HIT:    1568557 MISS:    1980013 MSHR_MERGE:          6
cpu0->LLC RFO          ACCESS:          0 HIT:          0 MISS:          0 MSHR_MERGE:          0
cpu0->LLC PREFETCH     ACCESS:    1542856 HIT:       3229 MISS:    1539627 MSHR_MERGE:        651
cpu0->LLC WRITE        ACCESS:     210722 HIT:      73106 MISS:     137616 MSHR_MERGE:          0
cpu0->LLC TRANSLATION  ACCESS:      65816 HIT:      44952 MISS:      20864 MSHR_MERGE:          0
cpu0->LLC PREFETCH REQUESTED:          0 ISSUED:          0 USEFUL:          0 USELESS:          0 LATE:          0 TOO_EARLY:          0
cpu0->LLC AVERAGE MISS LATENCY: 185.7 cycles

DRAM Statistics

Channel 0 RQ ROW_BUFFER_HIT:     111165
  ROW_BUFFER_MISS:    3428680
  AVG DBUS CONGESTED CYCLE: 15
Channel 0 WQ ROW_BUFFER_HIT:      58309
  ROW_BUFFER_MISS:     148740
  FULL:          0
Channel 0 REFRESHES ISSUED:      42356

[ROI Statistics]
[System Configuration]
num_cpus 1
cpu_freq 4000
fetch_width 6
decode_width 6
dispatch_width 6
execute_width 6
lq_width 2
sq_width 2
retire_width 6
scheduler_size 128
branch_mispredict_penalty 15
rob_size 352
lq_size 128
sq_size 72
ifetch_buffer_size 64
decode_buffer_size 32
dispatch_buffer_size 32
register_file_size 288
decode_latency 1
dispatch_latency 1
schedule_latency 1
execute_latency 1
page_size 4096
block_size 64
core_0_itlb_set 16
core_0_itlb_way 4
core_0_itlb_rq_size 16
core_0_itlb_wq_size 16
core_0_itlb_pq_size 0
core_0_itlb_mshr_size 8
core_0_itlb_hit_latency 1
core_0_itlb_fill_latency 1
core_0_itlb_max_tag_check 2
core_0_itlb_max_fill 2
core_0_dtlb_set 16
core_0_dtlb_way 4
core_0_dtlb_rq_size 16
core_0_dtlb_wq_size 16
core_0_dtlb_pq_size 0
core_0_dtlb_mshr_size 8
core_0_dtlb_hit_latency 1
core_0_dtlb_fill_latency 1
core_0_dtlb_max_tag_check 2
core_0_dtlb_max_fill 2
core_0_stlb_set 128
core_0_stlb_way 12
core_0_stlb_rq_size 32
core_0_stlb_wq_size 32
core_0_stlb_pq_size 0
core_0_stlb_mshr_size 16
core_0_stlb_hit_latency 4
core_0_stlb_fill_latency 4
core_0_stlb_max_tag_check 1
core_0_stlb_max_fill 1
core_0_l1i_set 64
core_0_l1i_way 8
core_0_l1i_rq_size 64
core_0_l1i_wq_size 64
core_0_l1i_pq_size 32
core_0_l1i_mshr_size 8
core_0_l1i_hit_latency 2
core_0_l1i_fill_latency 2
core_0_l1i_max_tag_check 2
core_0_l1i_max_fill 2
core_0_l1d_set 64
core_0_l1d_way 12
core_0_l1d_rq_size 64
core_0_l1d_wq_size 64
core_0_l1d_pq_size 8
core_0_l1d_mshr_size 16
core_0_l1d_hit_latency 2
core_0_l1d_fill_latency 3
core_0_l1d_max_tag_check 2
core_0_l1d_max_fill 2
core_0_l2c_set 1024
core_0_l2c_way 8
core_0_l2c_rq_size 32
core_0_l2c_wq_size 32
core_0_l2c_pq_size 16
core_0_l2c_mshr_size 32
core_0_l2c_hit_latency 5
core_0_l2c_fill_latency 5
core_0_l2c_max_tag_check 1
core_0_l2c_max_fill 1
llc_set 2048
llc_way 16
llc_rq_size 32
llc_wq_size 32
llc_pq_size 32
llc_mshr_size 64
llc_hit_latency 10
llc_fill_latency 10
llc_max_tag_check 1
llc_max_fill 1
dram_channels 1
dram_ranks 1
dram_bankgroups 8
dram_banks 4
dram_rows 65536
dram_columns 1024
dram_channel_width 8
dram_rq_size 64
dram_wq_size 64
dram_size 17179869184
core_0_itlb_prefetcher no
core_0_dtlb_prefetcher no
core_0_stlb_prefetcher no
core_0_l1i_prefetcher next_line
core_0_l1d_prefetcher vberti_nocross
core_0_l2c_prefetcher ip_stride
llc_prefetcher no
llc_replacement drrip

Core_0_instructions 100000004
Core_0_cycles 508276003
Core_0_IPC 0.196744
Core_0_branch_prediction_accuracy 82.6861
Core_0_branch_MPKI 32.5601
Core_0_average_ROB_occupancy_at_mispredict 11.0005

Core_0_ITLB_total_access 35489
Core_0_ITLB_total_hit 35489
Core_0_ITLB_total_miss 0
Core_0_ITLB_total_MPKI 0
Core_0_ITLB_total_miss_rate 0
Core_0_ITLB_demand_access 35489
Core_0_ITLB_demand_hit 35489
Core_0_ITLB_demand_miss 0
Core_0_ITLB_demand_MPKI 0
Core_0_ITLB_demand_miss_rate 0
Core_0_ITLB_load_access 35489
Core_0_ITLB_load_hit 35489
Core_0_ITLB_load_miss 0
Core_0_ITLB_load_MPKI 0
Core_0_ITLB_load_miss_rate 0
Core_0_ITLB_rfo_access 0
Core_0_ITLB_rfo_hit 0
Core_0_ITLB_rfo_miss 0
Core_0_ITLB_rfo_MPKI 0
Core_0_ITLB_rfo_miss_rate 0
Core_0_ITLB_prefetch_access 0
Core_0_ITLB_prefetch_hit 0
Core_0_ITLB_prefetch_miss 0
Core_0_ITLB_prefetch_MPKI 0
Core_0_ITLB_prefetch_miss_rate 0
Core_0_ITLB_writeback_access 0
Core_0_ITLB_writeback_hit 0
Core_0_ITLB_writeback_miss 0
Core_0_ITLB_writeback_MPKI 0
Core_0_ITLB_writeback_miss_rate 0
Core_0_ITLB_prefetch_requested 0
Core_0_ITLB_prefetch_issued 0
Core_0_ITLB_prefetch_useful 0
Core_0_ITLB_prefetch_useless 0
Core_0_ITLB_prefetch_late 0
Core_0_ITLB_prefetch_fill 0
Core_0_ITLB_prefetch_too_early 0
Core_0_ITLB_prefetch_too_early_among_fill 0
Core_0_ITLB_prefetch_too_early_among_useless 0
Core_0_ITLB_prefetch_pollution_evict 0
Core_0_ITLB_prefetch_pollution_demand 0
Core_0_ITLB_prefetch_pollution_among_prefetch_fill 0
Core_0_ITLB_prefetch_accuracy 0
Core_0_ITLB_prefetch_coverage 0

Core_0_DTLB_total_access 46813097
Core_0_DTLB_total_hit 42973775
Core_0_DTLB_total_miss 3839322
Core_0_DTLB_total_MPKI 38.3932
Core_0_DTLB_total_miss_rate 0.0820138
Core_0_DTLB_demand_access 46813097
Core_0_DTLB_demand_hit 42973775
Core_0_DTLB_demand_miss 3839322
Core_0_DTLB_demand_MPKI 38.3932
Core_0_DTLB_demand_miss_rate 0.0820138
Core_0_DTLB_load_access 46813097
Core_0_DTLB_load_hit 42973775
Core_0_DTLB_load_miss 3839322
Core_0_DTLB_load_MPKI 38.3932
Core_0_DTLB_load_miss_rate 0.0820138
Core_0_DTLB_rfo_access 0
Core_0_DTLB_rfo_hit 0
Core_0_DTLB_rfo_miss 0
Core_0_DTLB_rfo_MPKI 0
Core_0_DTLB_rfo_miss_rate 0
Core_0_DTLB_prefetch_access 0
Core_0_DTLB_prefetch_hit 0
Core_0_DTLB_prefetch_miss 0
Core_0_DTLB_prefetch_MPKI 0
Core_0_DTLB_prefetch_miss_rate 0
Core_0_DTLB_writeback_access 0
Core_0_DTLB_writeback_hit 0
Core_0_DTLB_writeback_miss 0
Core_0_DTLB_writeback_MPKI 0
Core_0_DTLB_writeback_miss_rate 0
Core_0_DTLB_prefetch_requested 0
Core_0_DTLB_prefetch_issued 0
Core_0_DTLB_prefetch_useful 0
Core_0_DTLB_prefetch_useless 0
Core_0_DTLB_prefetch_late 0
Core_0_DTLB_prefetch_fill 0
Core_0_DTLB_prefetch_too_early 0
Core_0_DTLB_prefetch_too_early_among_fill 0
Core_0_DTLB_prefetch_too_early_among_useless 0
Core_0_DTLB_prefetch_pollution_evict 0
Core_0_DTLB_prefetch_pollution_demand 0
Core_0_DTLB_prefetch_pollution_among_prefetch_fill 0
Core_0_DTLB_prefetch_accuracy 0
Core_0_DTLB_prefetch_coverage 0

Core_0_STLB_total_access 3557136
Core_0_STLB_total_hit 3285867
Core_0_STLB_total_miss 271269
Core_0_STLB_total_MPKI 2.71269
Core_0_STLB_total_miss_rate 0.0762605
Core_0_STLB_demand_access 3557136
Core_0_STLB_demand_hit 3285867
Core_0_STLB_demand_miss 271269
Core_0_STLB_demand_MPKI 2.71269
Core_0_STLB_demand_miss_rate 0.0762605
Core_0_STLB_load_access 3557136
Core_0_STLB_load_hit 3285867
Core_0_STLB_load_miss 271269
Core_0_STLB_load_MPKI 2.71269
Core_0_STLB_load_miss_rate 0.0762605
Core_0_STLB_rfo_access 0
Core_0_STLB_rfo_hit 0
Core_0_STLB_rfo_miss 0
Core_0_STLB_rfo_MPKI 0
Core_0_STLB_rfo_miss_rate 0
Core_0_STLB_prefetch_access 0
Core_0_STLB_prefetch_hit 0
Core_0_STLB_prefetch_miss 0
Core_0_STLB_prefetch_MPKI 0
Core_0_STLB_prefetch_miss_rate 0
Core_0_STLB_writeback_access 0
Core_0_STLB_writeback_hit 0
Core_0_STLB_writeback_miss 0
Core_0_STLB_writeback_MPKI 0
Core_0_STLB_writeback_miss_rate 0
Core_0_STLB_prefetch_requested 0
Core_0_STLB_prefetch_issued 0
Core_0_STLB_prefetch_useful 0
Core_0_STLB_prefetch_useless 0
Core_0_STLB_prefetch_late 0
Core_0_STLB_prefetch_fill 0
Core_0_STLB_prefetch_too_early 0
Core_0_STLB_prefetch_too_early_among_fill 0
Core_0_STLB_prefetch_too_early_among_useless 0
Core_0_STLB_prefetch_pollution_evict 0
Core_0_STLB_prefetch_pollution_demand 0
Core_0_STLB_prefetch_pollution_among_prefetch_fill 0
Core_0_STLB_prefetch_accuracy 0
Core_0_STLB_prefetch_coverage 0

Core_0_L1I_total_access 46458
Core_0_L1I_total_hit 46458
Core_0_L1I_total_miss 0
Core_0_L1I_total_MPKI 0
Core_0_L1I_total_miss_rate 0
Core_0_L1I_demand_access 46458
Core_0_L1I_demand_hit 46458
Core_0_L1I_demand_miss 0
Core_0_L1I_demand_MPKI 0
Core_0_L1I_demand_miss_rate 0
Core_0_L1I_load_access 46458
Core_0_L1I_load_hit 46458
Core_0_L1I_load_miss 0
Core_0_L1I_load_MPKI 0
Core_0_L1I_load_miss_rate 0
Core_0_L1I_rfo_access 0
Core_0_L1I_rfo_hit 0
Core_0_L1I_rfo_miss 0
Core_0_L1I_rfo_MPKI 0
Core_0_L1I_rfo_miss_rate 0
Core_0_L1I_prefetch_access 0
Core_0_L1I_prefetch_hit 0
Core_0_L1I_prefetch_miss 0
Core_0_L1I_prefetch_MPKI 0
Core_0_L1I_prefetch_miss_rate 0
Core_0_L1I_writeback_access 0
Core_0_L1I_writeback_hit 0
Core_0_L1I_writeback_miss 0
Core_0_L1I_writeback_MPKI 0
Core_0_L1I_writeback_miss_rate 0
Core_0_L1I_prefetch_requested 0
Core_0_L1I_prefetch_issued 0
Core_0_L1I_prefetch_useful 0
Core_0_L1I_prefetch_useless 0
Core_0_L1I_prefetch_late 0
Core_0_L1I_prefetch_fill 0
Core_0_L1I_prefetch_too_early 0
Core_0_L1I_prefetch_too_early_among_fill 0
Core_0_L1I_prefetch_too_early_among_useless 0
Core_0_L1I_prefetch_pollution_evict 0
Core_0_L1I_prefetch_pollution_demand 0
Core_0_L1I_prefetch_pollution_among_prefetch_fill 0
Core_0_L1I_prefetch_accuracy 0
Core_0_L1I_prefetch_coverage 0

Core_0_L1D_total_access 59018486
Core_0_L1D_total_hit 41994396
Core_0_L1D_total_miss 17024090
Core_0_L1D_total_MPKI 170.241
Core_0_L1D_total_miss_rate 0.288454
Core_0_L1D_demand_access 25194001
Core_0_L1D_demand_hit 18500627
Core_0_L1D_demand_miss 6693374
Core_0_L1D_demand_MPKI 66.9337
Core_0_L1D_demand_miss_rate 0.265673
Core_0_L1D_load_access 25194001
Core_0_L1D_load_hit 18500627
Core_0_L1D_load_miss 6693374
Core_0_L1D_load_MPKI 66.9337
Core_0_L1D_load_miss_rate 0.265673
Core_0_L1D_rfo_access 0
Core_0_L1D_rfo_hit 0
Core_0_L1D_rfo_miss 0
Core_0_L1D_rfo_MPKI 0
Core_0_L1D_rfo_miss_rate 0
Core_0_L1D_prefetch_access 30289033
Core_0_L1D_prefetch_hit 19958317
Core_0_L1D_prefetch_miss 10330716
Core_0_L1D_prefetch_MPKI 103.307
Core_0_L1D_prefetch_miss_rate 0.341071
Core_0_L1D_writeback_access 3535452
Core_0_L1D_writeback_hit 3535452
Core_0_L1D_writeback_miss 0
Core_0_L1D_writeback_MPKI 0
Core_0_L1D_writeback_miss_rate 0
Core_0_L1D_prefetch_requested 47302580
Core_0_L1D_prefetch_issued 30289026
Core_0_L1D_prefetch_useful 622165
Core_0_L1D_prefetch_useless 18622
Core_0_L1D_prefetch_late 822
Core_0_L1D_prefetch_fill 639973
Core_0_L1D_prefetch_too_early 290
Core_0_L1D_prefetch_too_early_among_fill 0.000453144
Core_0_L1D_prefetch_too_early_among_useless 0.015573
Core_0_L1D_prefetch_pollution_evict 132420
Core_0_L1D_prefetch_pollution_demand 132402
Core_0_L1D_prefetch_pollution_among_prefetch_fill 0.206915
Core_0_L1D_prefetch_accuracy 0.0205409
Core_0_L1D_prefetch_coverage 0.085047

Core_0_L2C_total_access 17476732
Core_0_L2C_total_hit 11723203
Core_0_L2C_total_miss 5753529
Core_0_L2C_total_MPKI 57.5353
Core_0_L2C_total_miss_rate 0.329211
Core_0_L2C_demand_access 5112833
Core_0_L2C_demand_hit 1538642
Core_0_L2C_demand_miss 3574191
Core_0_L2C_demand_MPKI 35.7419
Core_0_L2C_demand_miss_rate 0.699063
Core_0_L2C_load_access 5112833
Core_0_L2C_load_hit 1538642
Core_0_L2C_load_miss 3574191
Core_0_L2C_load_MPKI 35.7419
Core_0_L2C_load_miss_rate 0.699063
Core_0_L2C_rfo_access 0
Core_0_L2C_rfo_hit 0
Core_0_L2C_rfo_miss 0
Core_0_L2C_rfo_MPKI 0
Core_0_L2C_rfo_miss_rate 0
Core_0_L2C_prefetch_access 12149982
Core_0_L2C_prefetch_hit 9970830
Core_0_L2C_prefetch_miss 2179152
Core_0_L2C_prefetch_MPKI 21.7915
Core_0_L2C_prefetch_miss_rate 0.179354
Core_0_L2C_writeback_access 213917
Core_0_L2C_writeback_hit 213731
Core_0_L2C_writeback_miss 186
Core_0_L2C_writeback_MPKI 0.00186
Core_0_L2C_writeback_miss_rate 0.000869496
Core_0_L2C_prefetch_requested 1968511
Core_0_L2C_prefetch_issued 1968213
Core_0_L2C_prefetch_useful 160282
Core_0_L2C_prefetch_useless 162724
Core_0_L2C_prefetch_late 5843
Core_0_L2C_prefetch_fill 1516231
Core_0_L2C_prefetch_too_early 1570
Core_0_L2C_prefetch_too_early_among_fill 0.00103546
Core_0_L2C_prefetch_too_early_among_useless 0.00964824
Core_0_L2C_prefetch_pollution_evict 337634
Core_0_L2C_prefetch_pollution_demand 337349
Core_0_L2C_prefetch_pollution_among_prefetch_fill 0.22268
Core_0_L2C_prefetch_accuracy 0.0814353
Core_0_L2C_prefetch_coverage 0.0429196

Core_0_LLC_total_access 5302148
Core_0_LLC_total_hit 1644892
Core_0_LLC_total_miss 3657256
Core_0_LLC_total_MPKI 36.5726
Core_0_LLC_total_miss_rate 0.689769
Core_0_LLC_demand_access 3548570
Core_0_LLC_demand_hit 1568557
Core_0_LLC_demand_miss 1980013
Core_0_LLC_demand_MPKI 19.8001
Core_0_LLC_demand_miss_rate 0.557975
Core_0_LLC_load_access 3548570
Core_0_LLC_load_hit 1568557
Core_0_LLC_load_miss 1980013
Core_0_LLC_load_MPKI 19.8001
Core_0_LLC_load_miss_rate 0.557975
Core_0_LLC_rfo_access 0
Core_0_LLC_rfo_hit 0
Core_0_LLC_rfo_miss 0
Core_0_LLC_rfo_MPKI 0
Core_0_LLC_rfo_miss_rate 0
Core_0_LLC_prefetch_access 1542856
Core_0_LLC_prefetch_hit 3229
Core_0_LLC_prefetch_miss 1539627
Core_0_LLC_prefetch_MPKI 15.3963
Core_0_LLC_prefetch_miss_rate 0.997907
Core_0_LLC_writeback_access 210722
Core_0_LLC_writeback_hit 73106
Core_0_LLC_writeback_miss 137616
Core_0_LLC_writeback_MPKI 1.37616
Core_0_LLC_writeback_miss_rate 0.653069
Core_0_LLC_prefetch_requested 0
Core_0_LLC_prefetch_issued 0
Core_0_LLC_prefetch_useful 0
Core_0_LLC_prefetch_useless 0
Core_0_LLC_prefetch_late 0
Core_0_LLC_prefetch_fill 1538968
Core_0_LLC_prefetch_too_early 0
Core_0_LLC_prefetch_too_early_among_fill 0
Core_0_LLC_prefetch_too_early_among_useless 0
Core_0_LLC_prefetch_pollution_evict 212382
Core_0_LLC_prefetch_pollution_demand 212382
Core_0_LLC_prefetch_pollution_among_prefetch_fill 0.138003
Core_0_LLC_prefetch_accuracy 0
Core_0_LLC_prefetch_coverage 0

[DRAM Statistics]
Channel_0_RQ_row_buffer_hit 111165
Channel_0_RQ_row_buffer_miss 3428680
Channel_0_WQ_row_buffer_hit 58309
Channel_0_WQ_row_buffer_miss 148740
Channel_0_WQ_full 0
Channel_0_dbus_congested 6619749
DRAM_total_RQ_row_buffer_hit 111165
DRAM_total_RQ_row_buffer_miss 3428680
DRAM_total_WQ_row_buffer_hit 58309
DRAM_total_WQ_row_buffer_miss 148740
DRAM_total_WQ_full 0
DRAM_total_dbus_congested 6619749
DRAM_avg_congested_cycle 14.9966

====== DRAM_RQ_TRAFFIC ========
DRAM_RQ_READ_TRAFFIC_BREAKDOWN:
data_demand_read.count = 1980007
data_demand_read.share = 55.93%

inst_demand_read.count = 0
inst_demand_read.share = 0.00%

cache_inst_prefetch.count = 0
cache_inst_prefetch.share = 0.00%

cache_data_prefetch.count = 1538976
cache_data_prefetch.share = 43.48%

stlb_data_demand.count = 20864
stlb_data_demand.share = 0.59%

stlb_inst_demand.count = 0
stlb_inst_demand.share = 0.00%

stlb_l1i_pref.count = 0
stlb_l1i_pref.share = 0.00%

stlb_l1d_pref.count = 0
stlb_l1d_pref.share = 0.00%

DRAM_RQ_READ_TRAFFIC_SUMMARY:
cache_demand.count = 1980007
cache_demand.share = 55.93%

cache_prefetch.count = 1538976
cache_prefetch.share = 43.48%

stlb_demand.count = 20864
stlb_demand.share = 0.59%

stlb_prefetch.count = 0
stlb_prefetch.share = 0.00%

DRAM_RQ_READ_TRAFFIC_DEBUG:
total_classified_read.count = 3539847
unclassified_read.count = 0
total_read_with_other.count = 3539847

classified_plus_unclassified_check.count = 3539847
dram_rq_read_total_observed.count = 3539847
dram_rq_read_total_observed.per_1K_instructions = 35.3985

STLB_MISS_PTW_DRAM_TOUCH_BREAKDOWN:
stlb_miss_total.count = 271269

stlb_miss_touch_dram.count = 20625
stlb_miss_touch_dram.share = 7.60%

stlb_miss_no_dram_touch.count = 250644
stlb_miss_no_dram_touch.share = 92.40%

STLB_MISS_PTW_DRAM_TOUCH_DEBUG:
stlb_miss_touch_plus_no_touch.count = 271269
stlb_miss_total_check.count = 271269

======STLB miss causes ========
Core_0_STLB_miss_cause_breakdown
Core_0_STLB_cause_Demand_Data_miss 271269
Core_0_STLB_cause_Demand_Data_miss_rate 0.0762605
Core_0_STLB_cause_Demand_Instruction_miss 0
Core_0_STLB_cause_Demand_Instruction_miss_rate 0
Core_0_STLB_cause_L1D_Prefetch_miss 0
Core_0_STLB_cause_L1D_Prefetch_miss_rate 0
Core_0_STLB_cause_L1D_Prefetch_Same_Page_miss 0
Core_0_STLB_cause_L1D_Prefetch_Same_Page_miss_rate 0
Core_0_STLB_cause_L1D_Prefetch_Cross_Page_miss 0
Core_0_STLB_cause_L1D_Prefetch_Cross_Page_miss_rate 0
Core_0_STLB_cause_L1I_Prefetch_miss 0
Core_0_STLB_cause_L1I_Prefetch_miss_rate 0
Core_0_STLB_cause_Other_miss 0
Core_0_STLB_cause_Other_miss_rate 0
Core_0_STLB_Demand_miss 271269
Core_0_STLB_Demand_miss_rate 0.0762605
Core_0_STLB_L1D_Prefetch_miss 0
Core_0_STLB_L1D_Prefetch_miss_rate 0
Core_0_STLB_Other_miss 0
Core_0_STLB_Other_miss_rate 0

========== vBerti-TLB Cross-page Flow Stats ==========

Core_0_vBerti_Requested 47302580
Core_0_vBerti_Cross_page_prefetch_in_Requested 0
Core_0_vBerti_Same_page_prefetch_in_Requested 47302580
Core_0_vBerti_Cross_page_prefetch_of_Requested 0
Core_0_vBerti_Issued 30289026
Core_0_vBerti_InPQ_Same_page_prefetch 30289026
Core_0_vBerti_InPQ_Cross_page_prefetch 0
Core_0_vBerti_PQ_Drop_Rate 0.359675
Core_0_vBerti_InPQ_Cross_page_prefetch_of_Requested 0
Core_0_vBerti_Cross_page_PQ_Drop_rate 0
Core_0_vBerti_Cross_page_prefetch_of_Issued 0
Core_0_CP_PF_PQFULL_drop 0
Core_0_CP_PF_PQFULL_TLB_rescue_enqueued 0
Core_0_CP_PF_PQFULL_TLB_rescue_issued 0
Core_0_CP_PF_PQFULL_TLB_rescue_translated 0

========= DTLB_vBerti Prefetch Stats =========
Core_0_DTLB_demand_access 28355623
Core_0_DTLB_demand_hit 24516307
Core_0_DTLB_demand_miss 3839316
Core_0_DTLB_demand_mshr_merge 282183
Core_0_DTLB_demand_fill 3557133
Core_0_DTLB_demand_miss_rate 0.135399
Core_0_DTLB_demand_mpki 38.3932
Core_0_DTLB_vberti_prefetch_access 18457474
Core_0_DTLB_vberti_prefetch_hit 18457468
Core_0_DTLB_vberti_prefetch_miss 6
Core_0_DTLB_vberti_prefetch_mshr_merge 3
Core_0_DTLB_vberti_prefetch_fill 3
Core_0_DTLB_vberti_prefetch_miss_rate 3.25072e-07
Core_0_DTLB_vberti_prefetch_mpki 6e-05

=== DTLB_vBerti Same/Cross-page Prefetch Stats ===
Core_0_DTLB_vberti_same_page_prefetch 18457474
Core_0_DTLB_vberti_same_page_prefetch_hit 18457468
Core_0_DTLB_vberti_same_page_prefetch_miss 6
Core_0_DTLB_vberti_same_page_prefetch_mshr_merge 3
Core_0_DTLB_vberti_same_page_prefetch_fill 3
Core_0_DTLB_vberti_same_page_prefetch_miss_rate 3.25072e-07
Core_0_DTLB_vberti_same_page_prefetch_mpki 6e-05
Core_0_DTLB_vberti_cross_page_prefetch 0
Core_0_DTLB_vberti_cross_page_prefetch_hit 0
Core_0_DTLB_vberti_cross_page_prefetch_miss 0
Core_0_DTLB_vberti_cross_page_prefetch_mshr_merge 0
Core_0_DTLB_vberti_cross_page_prefetch_fill 0
Core_0_DTLB_vberti_cross_page_prefetch_miss_rate 0
Core_0_DTLB_vberti_cross_page_prefetch_mpki 0
Core_0_DTLB_same_page_prefetch_miss_rate 3.25072e-07
Core_0_DTLB_same_page_prefetch_mpki 6e-05
Core_0_DTLB_cross_page_prefetch_miss_rate 0
Core_0_DTLB_cross_page_prefetch_mpki 0
Core_0_DTLB_cross_page_prefetch_issued 0
Core_0_DTLB_cross_page_prefetch_lookups 0
Core_0_DTLB_cross_page_prefetch_useful 0
Core_0_DTLB_cross_page_prefetch_useless 0
Core_0_DTLB_cross_page_prefetch_late 0
Core_0_DTLB_cross_page_prefetch_too_early 0
Core_0_DTLB_cross_page_prefetch_too_early_among_fill 0
Core_0_DTLB_cross_page_prefetch_too_early_among_useless 0
Core_0_DTLB_cross_page_prefetch_pollution_evict 0
Core_0_DTLB_cross_page_prefetch_pollution_demand 0
Core_0_DTLB_cross_page_prefetch_pollution_among_prefetch_fill 0
Core_0_DTLB_cross_page_prefetch_accuracy 0
Core_0_DTLB_cross_page_prefetch_coverage 0

========= STLB_vBerti Prefetch Stats =========
Core_0_STLB_demand_access 3557133
Core_0_STLB_demand_hit 3285864
Core_0_STLB_demand_miss 271269
Core_0_STLB_demand_mshr_merge 0
Core_0_STLB_demand_fill 271269
Core_0_STLB_demand_miss_rate 0.0762606
Core_0_STLB_demand_mpki 2.71269
Core_0_STLB_vberti_prefetch_access 3
Core_0_STLB_vberti_prefetch_hit 3
Core_0_STLB_vberti_prefetch_miss 0
Core_0_STLB_vberti_prefetch_mshr_merge 0
Core_0_STLB_vberti_prefetch_fill 0
Core_0_STLB_vberti_prefetch_miss_rate 0
Core_0_STLB_vberti_prefetch_mpki 0

=== STLB_vBerti Same/Cross-page Prefetch Stats ===
Core_0_STLB_vberti_same_page_prefetch 3
Core_0_STLB_vberti_same_page_prefetch_hit 3
Core_0_STLB_vberti_same_page_prefetch_miss 0
Core_0_STLB_vberti_same_page_prefetch_mshr_merge 0
Core_0_STLB_vberti_same_page_prefetch_fill 0
Core_0_STLB_vberti_same_page_prefetch_miss_rate 0
Core_0_STLB_vberti_same_page_prefetch_mpki 0
Core_0_STLB_vberti_cross_page_prefetch 0
Core_0_STLB_vberti_cross_page_prefetch_hit 0
Core_0_STLB_vberti_cross_page_prefetch_miss 0
Core_0_STLB_vberti_cross_page_prefetch_mshr_merge 0
Core_0_STLB_vberti_cross_page_prefetch_fill 0
Core_0_STLB_vberti_cross_page_prefetch_miss_rate 0
Core_0_STLB_vberti_cross_page_prefetch_mpki 0
Core_0_STLB_same_page_prefetch_miss_rate 0
Core_0_STLB_same_page_prefetch_mpki 0
Core_0_STLB_cross_page_prefetch_miss_rate 0
Core_0_STLB_cross_page_prefetch_mpki 0
Core_0_STLB_cross_page_prefetch_issued 0
Core_0_STLB_cross_page_prefetch_lookups 0
Core_0_STLB_cross_page_prefetch_useful 0
Core_0_STLB_cross_page_prefetch_useless 0
Core_0_STLB_cross_page_prefetch_late 0
Core_0_STLB_cross_page_prefetch_too_early 0
Core_0_STLB_cross_page_prefetch_too_early_among_fill 0
Core_0_STLB_cross_page_prefetch_too_early_among_useless 0
Core_0_STLB_cross_page_prefetch_pollution_evict 0
Core_0_STLB_cross_page_prefetch_pollution_demand 0
Core_0_STLB_cross_page_prefetch_pollution_among_prefetch_fill 0
Core_0_STLB_cross_page_prefetch_accuracy 0
Core_0_STLB_cross_page_prefetch_coverage 0

========= STLB Cross-page Prefetch Buffer Stats =========
Core_0_STLB_raw_demand_miss 271269
Core_0_CP_PB_insert 0
Core_0_CP_PB_demand_hit 0
Core_0_STLB_PB_demand_miss 271269
Core_0_CP_PB_coverage 0
Core_0_STLB_raw_demand_mpki 2.71269
Core_0_STLB_PB_demand_mpki 2.71269
Core_0_CP_PB_demand_hit_mpki 0

Core_0_TLB_demand_miss_rate 0.00956667
Core_0_TLB_demand_mpki 2.71269
Core_0_TLB_same_page_prefetch_miss_rate 0
Core_0_TLB_same_page_prefetch_mpki 0
Core_0_TLB_cross_page_prefetch_miss_rate 0
Core_0_TLB_cross_page_prefetch_mpki 0
Core_0_TLB_cross_page_prefetch_issued 0
Core_0_TLB_cross_page_prefetch_lookups 0
Core_0_TLB_cross_page_prefetch_useful 0
Core_0_TLB_cross_page_prefetch_useless 0
Core_0_TLB_cross_page_prefetch_late 0
Core_0_TLB_cross_page_prefetch_too_early 0
Core_0_TLB_cross_page_prefetch_too_early_among_fill 0
Core_0_TLB_cross_page_prefetch_too_early_among_useless 0
Core_0_TLB_cross_page_prefetch_accuracy 0
Core_0_TLB_cross_page_prefetch_coverage 0
====== vBerti internal metric ========
BERTI TO_L1: 22894945 TO_L2: 24407635 TO_L2_BC_MSHR: 19286
BERTI AVG_LAT: 102.884 NUM_TRACK_LATENCY: 5744548 NUM_CANT_TRACK_LATENCY: 0
BERTI CROSS_PAGE 5508776 NO_CROSS_PAGE: 47302580
BERTI FOUND_BERTI: 19181498 NO_FOUND_BERTI: 9729889
BERTI AVERAGE_ISSUED: 3.26587
