[VMEM] WARNING: physical memory size is smaller than virtual memory size.

*** ChampSim Multicore Out-of-Order Simulator ***
Warmup Instructions: 50000000
Simulation Instructions: 100000000
Number of CPUs: 1
Page size: 4096
Core 0: /data2/zcq/champsim_traces_gap/cc.twitter-16B.champsimtrace.xz
VBerti Prefetcher
No Crossing Page
BERTI HASH ENTANGLING
BERTI IP MASK ffff
Off-chip DRAM Size: 16 GiB Channels: 1 Width: 64-bit Data Rate: 3205 MT/s
Warmup halting CPU 0 at instruction 50000005 cycle 15978259 for remainder of phase
Warmup finished CPU 0 instructions: 50000005 cycles: 15978259 cumulative IPC: 3.129 (Simulation time: 00 hr 03 min 27 sec)
Warmup complete CPU 0 instructions: 50000005 cycles: 15978259 cumulative IPC: 3.129 (Simulation time: 00 hr 03 min 27 sec)
Simulation finished CPU 0 instructions: 100000003 cycles: 192609441 cumulative IPC: 0.5192 (Simulation time: 00 hr 23 min 50 sec)
Simulation complete CPU 0 instructions: 100000003 cycles: 192609441 cumulative IPC: 0.5192 (Simulation time: 00 hr 23 min 50 sec)

ChampSim completed all CPUs

=== Simulation ===
CPU 0 runs /data2/zcq/champsim_traces_gap/cc.twitter-16B.champsimtrace.xz

Region of Interest Statistics

CPU 0 cumulative IPC: 0.5192 instructions: 100000003 cycles: 192609441
CPU 0 Branch Prediction Accuracy: 98.46% MPKI: 2.83 Average ROB Occupancy at Mispredict: 155.4
Branch type MPKI
BRANCH_DIRECT_JUMP: 0
BRANCH_INDIRECT: 0
BRANCH_CONDITIONAL: 2.83
BRANCH_DIRECT_CALL: 0
BRANCH_INDIRECT_CALL: 0
BRANCH_RETURN: 0

cpu0->cpu0_STLB TOTAL        ACCESS:    1484225 HIT:     337211 MISS:    1147014 MSHR_MERGE:          0
cpu0->cpu0_STLB LOAD         ACCESS:    1484225 HIT:     337211 MISS:    1147014 MSHR_MERGE:          0
cpu0->cpu0_STLB RFO          ACCESS:          0 HIT:          0 MISS:          0 MSHR_MERGE:          0
cpu0->cpu0_STLB PREFETCH     ACCESS:          0 HIT:          0 MISS:          0 MSHR_MERGE:          0
cpu0->cpu0_STLB WRITE        ACCESS:          0 HIT:          0 MISS:          0 MSHR_MERGE:          0
cpu0->cpu0_STLB TRANSLATION  ACCESS:          0 HIT:          0 MISS:          0 MSHR_MERGE:          0
cpu0->cpu0_STLB PREFETCH REQUESTED:          0 ISSUED:          0 USEFUL:          0 USELESS:          0 LATE:          0 TOO_EARLY:          0
cpu0->cpu0_STLB AVERAGE MISS LATENCY: 49.84 cycles
cpu0->cpu0_L2C TOTAL        ACCESS:    7646233 HIT:    2638212 MISS:    5008021 MSHR_MERGE:    1036006
cpu0->cpu0_L2C LOAD         ACCESS:    1597403 HIT:     225886 MISS:    1371517 MSHR_MERGE:       8326
cpu0->cpu0_L2C RFO          ACCESS:          0 HIT:          0 MISS:          0 MSHR_MERGE:          0
cpu0->cpu0_L2C PREFETCH     ACCESS:    4707395 HIT:    1778465 MISS:    2928930 MSHR_MERGE:    1027680
cpu0->cpu0_L2C WRITE        ACCESS:     267690 HIT:     267689 MISS:          1 MSHR_MERGE:          0
cpu0->cpu0_L2C TRANSLATION  ACCESS:    1073745 HIT:     366172 MISS:     707573 MSHR_MERGE:          0
cpu0->cpu0_L2C PREFETCH REQUESTED:    1899638 ISSUED:    1899449 USEFUL:     492954 USELESS:     174863 LATE:       4015 TOO_EARLY:          0
cpu0->cpu0_L2C AVERAGE MISS LATENCY: 146.9 cycles
cpu0->cpu0_L1I TOTAL        ACCESS:    7630003 HIT:    7630003 MISS:          0 MSHR_MERGE:          0
cpu0->cpu0_L1I LOAD         ACCESS:    7630003 HIT:    7630003 MISS:          0 MSHR_MERGE:          0
cpu0->cpu0_L1I RFO          ACCESS:          0 HIT:          0 MISS:          0 MSHR_MERGE:          0
cpu0->cpu0_L1I PREFETCH     ACCESS:          0 HIT:          0 MISS:          0 MSHR_MERGE:          0
cpu0->cpu0_L1I WRITE        ACCESS:          0 HIT:          0 MISS:          0 MSHR_MERGE:          0
cpu0->cpu0_L1I TRANSLATION  ACCESS:          0 HIT:          0 MISS:          0 MSHR_MERGE:          0
cpu0->cpu0_L1I PREFETCH REQUESTED:          0 ISSUED:          0 USEFUL:          0 USELESS:          0 LATE:          0 TOO_EARLY:          0
cpu0->cpu0_L1I AVERAGE MISS LATENCY: - cycles
cpu0->cpu0_L1D TOTAL        ACCESS:   47551851 HIT:   41858626 MISS:    5693225 MSHR_MERGE:     206588
cpu0->cpu0_L1D LOAD         ACCESS:   21907457 HIT:   20120579 MISS:    1786878 MSHR_MERGE:     189475
cpu0->cpu0_L1D RFO          ACCESS:          0 HIT:          0 MISS:          0 MSHR_MERGE:          0
cpu0->cpu0_L1D PREFETCH     ACCESS:   20160447 HIT:   17327968 MISS:    2832479 MSHR_MERGE:      16990
cpu0->cpu0_L1D WRITE        ACCESS:    2504167 HIT:    2504167 MISS:          0 MSHR_MERGE:          0
cpu0->cpu0_L1D TRANSLATION  ACCESS:    2979780 HIT:    1905912 MISS:    1073868 MSHR_MERGE:        123
cpu0->cpu0_L1D PREFETCH REQUESTED:   87765118 ISSUED:   20160447 USEFUL:    1388994 USELESS:     288819 LATE:      11533 TOO_EARLY:          0
cpu0->cpu0_L1D AVERAGE MISS LATENCY: 123.1 cycles
cpu0->cpu0_ITLB TOTAL        ACCESS:    6460327 HIT:    6460327 MISS:          0 MSHR_MERGE:          0
cpu0->cpu0_ITLB LOAD         ACCESS:    6460327 HIT:    6460327 MISS:          0 MSHR_MERGE:          0
cpu0->cpu0_ITLB RFO          ACCESS:          0 HIT:          0 MISS:          0 MSHR_MERGE:          0
cpu0->cpu0_ITLB PREFETCH     ACCESS:          0 HIT:          0 MISS:          0 MSHR_MERGE:          0
cpu0->cpu0_ITLB WRITE        ACCESS:          0 HIT:          0 MISS:          0 MSHR_MERGE:          0
cpu0->cpu0_ITLB TRANSLATION  ACCESS:          0 HIT:          0 MISS:          0 MSHR_MERGE:          0
cpu0->cpu0_ITLB PREFETCH REQUESTED:          0 ISSUED:          0 USEFUL:          0 USELESS:          0 LATE:          0 TOO_EARLY:          0
cpu0->cpu0_ITLB AVERAGE MISS LATENCY: - cycles
cpu0->cpu0_DTLB TOTAL        ACCESS:   38025185 HIT:   36449397 MISS:    1575788 MSHR_MERGE:      91563
cpu0->cpu0_DTLB LOAD         ACCESS:   38025185 HIT:   36449397 MISS:    1575788 MSHR_MERGE:      91563
cpu0->cpu0_DTLB RFO          ACCESS:          0 HIT:          0 MISS:          0 MSHR_MERGE:          0
cpu0->cpu0_DTLB PREFETCH     ACCESS:          0 HIT:          0 MISS:          0 MSHR_MERGE:          0
cpu0->cpu0_DTLB WRITE        ACCESS:          0 HIT:          0 MISS:          0 MSHR_MERGE:          0
cpu0->cpu0_DTLB TRANSLATION  ACCESS:          0 HIT:          0 MISS:          0 MSHR_MERGE:          0
cpu0->cpu0_DTLB PREFETCH REQUESTED:          0 ISSUED:          0 USEFUL:          0 USELESS:          0 LATE:          0 TOO_EARLY:          0
cpu0->cpu0_DTLB AVERAGE MISS LATENCY: 44.3 cycles
cpu0->LLC TOTAL        ACCESS:    4235083 HIT:     920278 MISS:    3314805 MSHR_MERGE:      36349
cpu0->LLC LOAD         ACCESS:    1363191 HIT:     173184 MISS:    1190007 MSHR_MERGE:        122
cpu0->LLC RFO          ACCESS:          0 HIT:          0 MISS:          0 MSHR_MERGE:          0
cpu0->LLC PREFETCH     ACCESS:    1901242 HIT:      32711 MISS:    1868531 MSHR_MERGE:      36227
cpu0->LLC WRITE        ACCESS:     263077 HIT:      57726 MISS:     205351 MSHR_MERGE:          0
cpu0->LLC TRANSLATION  ACCESS:     707573 HIT:     656657 MISS:      50916 MSHR_MERGE:          0
cpu0->LLC PREFETCH REQUESTED:          0 ISSUED:          0 USEFUL:          0 USELESS:          0 LATE:          0 TOO_EARLY:          0
cpu0->LLC AVERAGE MISS LATENCY: 189.3 cycles

DRAM Statistics

Channel 0 RQ ROW_BUFFER_HIT:     130001
  ROW_BUFFER_MISS:    2943093
  AVG DBUS CONGESTED CYCLE: 11.26
Channel 0 WQ ROW_BUFFER_HIT:      88766
  ROW_BUFFER_MISS:     166607
  FULL:          0
Channel 0 REFRESHES ISSUED:      16051

[ROI Statistics]
[System Configuration]
num_cpus 1
cpu_freq 4000
fetch_width 6
decode_width 6
dispatch_width 6
execute_width 6
lq_width 2
sq_width 2
retire_width 6
scheduler_size 128
branch_mispredict_penalty 15
rob_size 352
lq_size 128
sq_size 72
ifetch_buffer_size 64
decode_buffer_size 32
dispatch_buffer_size 32
register_file_size 288
decode_latency 1
dispatch_latency 1
schedule_latency 1
execute_latency 1
page_size 4096
block_size 64
core_0_itlb_set 16
core_0_itlb_way 4
core_0_itlb_rq_size 16
core_0_itlb_wq_size 16
core_0_itlb_pq_size 0
core_0_itlb_mshr_size 8
core_0_itlb_hit_latency 1
core_0_itlb_fill_latency 1
core_0_itlb_max_tag_check 2
core_0_itlb_max_fill 2
core_0_dtlb_set 16
core_0_dtlb_way 4
core_0_dtlb_rq_size 16
core_0_dtlb_wq_size 16
core_0_dtlb_pq_size 0
core_0_dtlb_mshr_size 8
core_0_dtlb_hit_latency 1
core_0_dtlb_fill_latency 1
core_0_dtlb_max_tag_check 2
core_0_dtlb_max_fill 2
core_0_stlb_set 128
core_0_stlb_way 12
core_0_stlb_rq_size 32
core_0_stlb_wq_size 32
core_0_stlb_pq_size 0
core_0_stlb_mshr_size 16
core_0_stlb_hit_latency 4
core_0_stlb_fill_latency 4
core_0_stlb_max_tag_check 1
core_0_stlb_max_fill 1
core_0_l1i_set 64
core_0_l1i_way 8
core_0_l1i_rq_size 64
core_0_l1i_wq_size 64
core_0_l1i_pq_size 32
core_0_l1i_mshr_size 8
core_0_l1i_hit_latency 2
core_0_l1i_fill_latency 2
core_0_l1i_max_tag_check 2
core_0_l1i_max_fill 2
core_0_l1d_set 64
core_0_l1d_way 12
core_0_l1d_rq_size 64
core_0_l1d_wq_size 64
core_0_l1d_pq_size 8
core_0_l1d_mshr_size 16
core_0_l1d_hit_latency 2
core_0_l1d_fill_latency 3
core_0_l1d_max_tag_check 2
core_0_l1d_max_fill 2
core_0_l2c_set 1024
core_0_l2c_way 8
core_0_l2c_rq_size 32
core_0_l2c_wq_size 32
core_0_l2c_pq_size 16
core_0_l2c_mshr_size 32
core_0_l2c_hit_latency 5
core_0_l2c_fill_latency 5
core_0_l2c_max_tag_check 1
core_0_l2c_max_fill 1
llc_set 2048
llc_way 16
llc_rq_size 32
llc_wq_size 32
llc_pq_size 32
llc_mshr_size 64
llc_hit_latency 10
llc_fill_latency 10
llc_max_tag_check 1
llc_max_fill 1
dram_channels 1
dram_ranks 1
dram_bankgroups 8
dram_banks 4
dram_rows 65536
dram_columns 1024
dram_channel_width 8
dram_rq_size 64
dram_wq_size 64
dram_size 17179869184
core_0_itlb_prefetcher no
core_0_dtlb_prefetcher no
core_0_stlb_prefetcher no
core_0_l1i_prefetcher next_line
core_0_l1d_prefetcher vberti_nocross
core_0_l2c_prefetcher ip_stride
llc_prefetcher no
llc_replacement drrip

Core_0_instructions 100000003
Core_0_cycles 192609441
Core_0_IPC 0.519185
Core_0_branch_prediction_accuracy 98.4607
Core_0_branch_MPKI 2.82956
Core_0_average_ROB_occupancy_at_mispredict 155.363

Core_0_ITLB_total_access 6460327
Core_0_ITLB_total_hit 6460327
Core_0_ITLB_total_miss 0
Core_0_ITLB_total_MPKI 0
Core_0_ITLB_total_miss_rate 0
Core_0_ITLB_demand_access 6460327
Core_0_ITLB_demand_hit 6460327
Core_0_ITLB_demand_miss 0
Core_0_ITLB_demand_MPKI 0
Core_0_ITLB_demand_miss_rate 0
Core_0_ITLB_load_access 6460327
Core_0_ITLB_load_hit 6460327
Core_0_ITLB_load_miss 0
Core_0_ITLB_load_MPKI 0
Core_0_ITLB_load_miss_rate 0
Core_0_ITLB_rfo_access 0
Core_0_ITLB_rfo_hit 0
Core_0_ITLB_rfo_miss 0
Core_0_ITLB_rfo_MPKI 0
Core_0_ITLB_rfo_miss_rate 0
Core_0_ITLB_prefetch_access 0
Core_0_ITLB_prefetch_hit 0
Core_0_ITLB_prefetch_miss 0
Core_0_ITLB_prefetch_MPKI 0
Core_0_ITLB_prefetch_miss_rate 0
Core_0_ITLB_writeback_access 0
Core_0_ITLB_writeback_hit 0
Core_0_ITLB_writeback_miss 0
Core_0_ITLB_writeback_MPKI 0
Core_0_ITLB_writeback_miss_rate 0
Core_0_ITLB_prefetch_requested 0
Core_0_ITLB_prefetch_issued 0
Core_0_ITLB_prefetch_useful 0
Core_0_ITLB_prefetch_useless 0
Core_0_ITLB_prefetch_late 0
Core_0_ITLB_prefetch_fill 0
Core_0_ITLB_prefetch_too_early 0
Core_0_ITLB_prefetch_too_early_among_fill 0
Core_0_ITLB_prefetch_too_early_among_useless 0
Core_0_ITLB_prefetch_pollution_evict 0
Core_0_ITLB_prefetch_pollution_demand 0
Core_0_ITLB_prefetch_pollution_among_prefetch_fill 0
Core_0_ITLB_prefetch_accuracy 0
Core_0_ITLB_prefetch_coverage 0

Core_0_DTLB_total_access 38025185
Core_0_DTLB_total_hit 36449397
Core_0_DTLB_total_miss 1575788
Core_0_DTLB_total_MPKI 15.7579
Core_0_DTLB_total_miss_rate 0.0414406
Core_0_DTLB_demand_access 38025185
Core_0_DTLB_demand_hit 36449397
Core_0_DTLB_demand_miss 1575788
Core_0_DTLB_demand_MPKI 15.7579
Core_0_DTLB_demand_miss_rate 0.0414406
Core_0_DTLB_load_access 38025185
Core_0_DTLB_load_hit 36449397
Core_0_DTLB_load_miss 1575788
Core_0_DTLB_load_MPKI 15.7579
Core_0_DTLB_load_miss_rate 0.0414406
Core_0_DTLB_rfo_access 0
Core_0_DTLB_rfo_hit 0
Core_0_DTLB_rfo_miss 0
Core_0_DTLB_rfo_MPKI 0
Core_0_DTLB_rfo_miss_rate 0
Core_0_DTLB_prefetch_access 0
Core_0_DTLB_prefetch_hit 0
Core_0_DTLB_prefetch_miss 0
Core_0_DTLB_prefetch_MPKI 0
Core_0_DTLB_prefetch_miss_rate 0
Core_0_DTLB_writeback_access 0
Core_0_DTLB_writeback_hit 0
Core_0_DTLB_writeback_miss 0
Core_0_DTLB_writeback_MPKI 0
Core_0_DTLB_writeback_miss_rate 0
Core_0_DTLB_prefetch_requested 0
Core_0_DTLB_prefetch_issued 0
Core_0_DTLB_prefetch_useful 0
Core_0_DTLB_prefetch_useless 0
Core_0_DTLB_prefetch_late 0
Core_0_DTLB_prefetch_fill 0
Core_0_DTLB_prefetch_too_early 0
Core_0_DTLB_prefetch_too_early_among_fill 0
Core_0_DTLB_prefetch_too_early_among_useless 0
Core_0_DTLB_prefetch_pollution_evict 0
Core_0_DTLB_prefetch_pollution_demand 0
Core_0_DTLB_prefetch_pollution_among_prefetch_fill 0
Core_0_DTLB_prefetch_accuracy 0
Core_0_DTLB_prefetch_coverage 0

Core_0_STLB_total_access 1484225
Core_0_STLB_total_hit 337211
Core_0_STLB_total_miss 1147014
Core_0_STLB_total_MPKI 11.4701
Core_0_STLB_total_miss_rate 0.772803
Core_0_STLB_demand_access 1484225
Core_0_STLB_demand_hit 337211
Core_0_STLB_demand_miss 1147014
Core_0_STLB_demand_MPKI 11.4701
Core_0_STLB_demand_miss_rate 0.772803
Core_0_STLB_load_access 1484225
Core_0_STLB_load_hit 337211
Core_0_STLB_load_miss 1147014
Core_0_STLB_load_MPKI 11.4701
Core_0_STLB_load_miss_rate 0.772803
Core_0_STLB_rfo_access 0
Core_0_STLB_rfo_hit 0
Core_0_STLB_rfo_miss 0
Core_0_STLB_rfo_MPKI 0
Core_0_STLB_rfo_miss_rate 0
Core_0_STLB_prefetch_access 0
Core_0_STLB_prefetch_hit 0
Core_0_STLB_prefetch_miss 0
Core_0_STLB_prefetch_MPKI 0
Core_0_STLB_prefetch_miss_rate 0
Core_0_STLB_writeback_access 0
Core_0_STLB_writeback_hit 0
Core_0_STLB_writeback_miss 0
Core_0_STLB_writeback_MPKI 0
Core_0_STLB_writeback_miss_rate 0
Core_0_STLB_prefetch_requested 0
Core_0_STLB_prefetch_issued 0
Core_0_STLB_prefetch_useful 0
Core_0_STLB_prefetch_useless 0
Core_0_STLB_prefetch_late 0
Core_0_STLB_prefetch_fill 0
Core_0_STLB_prefetch_too_early 0
Core_0_STLB_prefetch_too_early_among_fill 0
Core_0_STLB_prefetch_too_early_among_useless 0
Core_0_STLB_prefetch_pollution_evict 0
Core_0_STLB_prefetch_pollution_demand 0
Core_0_STLB_prefetch_pollution_among_prefetch_fill 0
Core_0_STLB_prefetch_accuracy 0
Core_0_STLB_prefetch_coverage 0

Core_0_L1I_total_access 7630003
Core_0_L1I_total_hit 7630003
Core_0_L1I_total_miss 0
Core_0_L1I_total_MPKI 0
Core_0_L1I_total_miss_rate 0
Core_0_L1I_demand_access 7630003
Core_0_L1I_demand_hit 7630003
Core_0_L1I_demand_miss 0
Core_0_L1I_demand_MPKI 0
Core_0_L1I_demand_miss_rate 0
Core_0_L1I_load_access 7630003
Core_0_L1I_load_hit 7630003
Core_0_L1I_load_miss 0
Core_0_L1I_load_MPKI 0
Core_0_L1I_load_miss_rate 0
Core_0_L1I_rfo_access 0
Core_0_L1I_rfo_hit 0
Core_0_L1I_rfo_miss 0
Core_0_L1I_rfo_MPKI 0
Core_0_L1I_rfo_miss_rate 0
Core_0_L1I_prefetch_access 0
Core_0_L1I_prefetch_hit 0
Core_0_L1I_prefetch_miss 0
Core_0_L1I_prefetch_MPKI 0
Core_0_L1I_prefetch_miss_rate 0
Core_0_L1I_writeback_access 0
Core_0_L1I_writeback_hit 0
Core_0_L1I_writeback_miss 0
Core_0_L1I_writeback_MPKI 0
Core_0_L1I_writeback_miss_rate 0
Core_0_L1I_prefetch_requested 0
Core_0_L1I_prefetch_issued 0
Core_0_L1I_prefetch_useful 0
Core_0_L1I_prefetch_useless 0
Core_0_L1I_prefetch_late 0
Core_0_L1I_prefetch_fill 0
Core_0_L1I_prefetch_too_early 0
Core_0_L1I_prefetch_too_early_among_fill 0
Core_0_L1I_prefetch_too_early_among_useless 0
Core_0_L1I_prefetch_pollution_evict 0
Core_0_L1I_prefetch_pollution_demand 0
Core_0_L1I_prefetch_pollution_among_prefetch_fill 0
Core_0_L1I_prefetch_accuracy 0
Core_0_L1I_prefetch_coverage 0

Core_0_L1D_total_access 44572071
Core_0_L1D_total_hit 39952714
Core_0_L1D_total_miss 4619357
Core_0_L1D_total_MPKI 46.1936
Core_0_L1D_total_miss_rate 0.103638
Core_0_L1D_demand_access 21907457
Core_0_L1D_demand_hit 20120579
Core_0_L1D_demand_miss 1786878
Core_0_L1D_demand_MPKI 17.8688
Core_0_L1D_demand_miss_rate 0.0815648
Core_0_L1D_load_access 21907457
Core_0_L1D_load_hit 20120579
Core_0_L1D_load_miss 1786878
Core_0_L1D_load_MPKI 17.8688
Core_0_L1D_load_miss_rate 0.0815648
Core_0_L1D_rfo_access 0
Core_0_L1D_rfo_hit 0
Core_0_L1D_rfo_miss 0
Core_0_L1D_rfo_MPKI 0
Core_0_L1D_rfo_miss_rate 0
Core_0_L1D_prefetch_access 20160447
Core_0_L1D_prefetch_hit 17327968
Core_0_L1D_prefetch_miss 2832479
Core_0_L1D_prefetch_MPKI 28.3248
Core_0_L1D_prefetch_miss_rate 0.140497
Core_0_L1D_writeback_access 2504167
Core_0_L1D_writeback_hit 2504167
Core_0_L1D_writeback_miss 0
Core_0_L1D_writeback_MPKI 0
Core_0_L1D_writeback_miss_rate 0
Core_0_L1D_prefetch_requested 87765118
Core_0_L1D_prefetch_issued 20160447
Core_0_L1D_prefetch_useful 1388994
Core_0_L1D_prefetch_useless 288819
Core_0_L1D_prefetch_late 11533
Core_0_L1D_prefetch_fill 1666308
Core_0_L1D_prefetch_too_early 0
Core_0_L1D_prefetch_too_early_among_fill 0
Core_0_L1D_prefetch_too_early_among_useless 0
Core_0_L1D_prefetch_pollution_evict 24354
Core_0_L1D_prefetch_pollution_demand 24354
Core_0_L1D_prefetch_pollution_among_prefetch_fill 0.0146155
Core_0_L1D_prefetch_accuracy 0.068897
Core_0_L1D_prefetch_coverage 0.437358

Core_0_L2C_total_access 6572488
Core_0_L2C_total_hit 2272040
Core_0_L2C_total_miss 4300448
Core_0_L2C_total_MPKI 43.0045
Core_0_L2C_total_miss_rate 0.654311
Core_0_L2C_demand_access 1597403
Core_0_L2C_demand_hit 225886
Core_0_L2C_demand_miss 1371517
Core_0_L2C_demand_MPKI 13.7152
Core_0_L2C_demand_miss_rate 0.858592
Core_0_L2C_load_access 1597403
Core_0_L2C_load_hit 225886
Core_0_L2C_load_miss 1371517
Core_0_L2C_load_MPKI 13.7152
Core_0_L2C_load_miss_rate 0.858592
Core_0_L2C_rfo_access 0
Core_0_L2C_rfo_hit 0
Core_0_L2C_rfo_miss 0
Core_0_L2C_rfo_MPKI 0
Core_0_L2C_rfo_miss_rate 0
Core_0_L2C_prefetch_access 4707395
Core_0_L2C_prefetch_hit 1778465
Core_0_L2C_prefetch_miss 2928930
Core_0_L2C_prefetch_MPKI 29.2893
Core_0_L2C_prefetch_miss_rate 0.622198
Core_0_L2C_writeback_access 267690
Core_0_L2C_writeback_hit 267689
Core_0_L2C_writeback_miss 1
Core_0_L2C_writeback_MPKI 1e-05
Core_0_L2C_writeback_miss_rate 3.73566e-06
Core_0_L2C_prefetch_requested 1899638
Core_0_L2C_prefetch_issued 1899449
Core_0_L2C_prefetch_useful 492954
Core_0_L2C_prefetch_useless 174863
Core_0_L2C_prefetch_late 4015
Core_0_L2C_prefetch_fill 1828629
Core_0_L2C_prefetch_too_early 0
Core_0_L2C_prefetch_too_early_among_fill 0
Core_0_L2C_prefetch_too_early_among_useless 0
Core_0_L2C_prefetch_pollution_evict 48429
Core_0_L2C_prefetch_pollution_demand 48429
Core_0_L2C_prefetch_pollution_among_prefetch_fill 0.0264838
Core_0_L2C_prefetch_accuracy 0.259525
Core_0_L2C_prefetch_coverage 0.264393

Core_0_LLC_total_access 3527510
Core_0_LLC_total_hit 263621
Core_0_LLC_total_miss 3263889
Core_0_LLC_total_MPKI 32.6389
Core_0_LLC_total_miss_rate 0.925267
Core_0_LLC_demand_access 1363191
Core_0_LLC_demand_hit 173184
Core_0_LLC_demand_miss 1190007
Core_0_LLC_demand_MPKI 11.9001
Core_0_LLC_demand_miss_rate 0.872957
Core_0_LLC_load_access 1363191
Core_0_LLC_load_hit 173184
Core_0_LLC_load_miss 1190007
Core_0_LLC_load_MPKI 11.9001
Core_0_LLC_load_miss_rate 0.872957
Core_0_LLC_rfo_access 0
Core_0_LLC_rfo_hit 0
Core_0_LLC_rfo_miss 0
Core_0_LLC_rfo_MPKI 0
Core_0_LLC_rfo_miss_rate 0
Core_0_LLC_prefetch_access 1901242
Core_0_LLC_prefetch_hit 32711
Core_0_LLC_prefetch_miss 1868531
Core_0_LLC_prefetch_MPKI 18.6853
Core_0_LLC_prefetch_miss_rate 0.982795
Core_0_LLC_writeback_access 263077
Core_0_LLC_writeback_hit 57726
Core_0_LLC_writeback_miss 205351
Core_0_LLC_writeback_MPKI 2.05351
Core_0_LLC_writeback_miss_rate 0.780574
Core_0_LLC_prefetch_requested 0
Core_0_LLC_prefetch_issued 0
Core_0_LLC_prefetch_useful 0
Core_0_LLC_prefetch_useless 0
Core_0_LLC_prefetch_late 0
Core_0_LLC_prefetch_fill 1832178
Core_0_LLC_prefetch_too_early 0
Core_0_LLC_prefetch_too_early_among_fill 0
Core_0_LLC_prefetch_too_early_among_useless 0
Core_0_LLC_prefetch_pollution_evict 66696
Core_0_LLC_prefetch_pollution_demand 66696
Core_0_LLC_prefetch_pollution_among_prefetch_fill 0.0364026
Core_0_LLC_prefetch_accuracy 0
Core_0_LLC_prefetch_coverage 0

[DRAM Statistics]
Channel_0_RQ_row_buffer_hit 130001
Channel_0_RQ_row_buffer_miss 2943093
Channel_0_WQ_row_buffer_hit 88766
Channel_0_WQ_row_buffer_miss 166607
Channel_0_WQ_full 0
Channel_0_dbus_congested 7689045
DRAM_total_RQ_row_buffer_hit 130001
DRAM_total_RQ_row_buffer_miss 2943093
DRAM_total_WQ_row_buffer_hit 88766
DRAM_total_WQ_row_buffer_miss 166607
DRAM_total_WQ_full 0
DRAM_total_dbus_congested 7689045
DRAM_avg_congested_cycle 11.2592

====== DRAM_RQ_TRAFFIC ========
DRAM_RQ_READ_TRAFFIC_BREAKDOWN:
data_demand_read.count = 1189885
data_demand_read.share = 38.72%

inst_demand_read.count = 0
inst_demand_read.share = 0.00%

cache_inst_prefetch.count = 0
cache_inst_prefetch.share = 0.00%

cache_data_prefetch.count = 1832304
cache_data_prefetch.share = 59.62%

stlb_data_demand.count = 50916
stlb_data_demand.share = 1.66%

stlb_inst_demand.count = 0
stlb_inst_demand.share = 0.00%

stlb_l1i_pref.count = 0
stlb_l1i_pref.share = 0.00%

stlb_l1d_pref.count = 0
stlb_l1d_pref.share = 0.00%

DRAM_RQ_READ_TRAFFIC_SUMMARY:
cache_demand.count = 1189885
cache_demand.share = 38.72%

cache_prefetch.count = 1832304
cache_prefetch.share = 59.62%

stlb_demand.count = 50916
stlb_demand.share = 1.66%

stlb_prefetch.count = 0
stlb_prefetch.share = 0.00%

DRAM_RQ_READ_TRAFFIC_DEBUG:
total_classified_read.count = 3073105
unclassified_read.count = 0
total_read_with_other.count = 3073105

classified_plus_unclassified_check.count = 3073105
dram_rq_read_total_observed.count = 3073105
dram_rq_read_total_observed.per_1K_instructions = 30.731

STLB_MISS_PTW_DRAM_TOUCH_BREAKDOWN:
stlb_miss_total.count = 1147014

stlb_miss_touch_dram.count = 50867
stlb_miss_touch_dram.share = 4.43%

stlb_miss_no_dram_touch.count = 1096147
stlb_miss_no_dram_touch.share = 95.57%

STLB_MISS_PTW_DRAM_TOUCH_DEBUG:
stlb_miss_touch_plus_no_touch.count = 1147014
stlb_miss_total_check.count = 1147014

======STLB miss causes ========
Core_0_STLB_miss_cause_breakdown
Core_0_STLB_cause_Demand_Data_miss 1147014
Core_0_STLB_cause_Demand_Data_miss_rate 0.772803
Core_0_STLB_cause_Demand_Instruction_miss 0
Core_0_STLB_cause_Demand_Instruction_miss_rate 0
Core_0_STLB_cause_L1D_Prefetch_miss 0
Core_0_STLB_cause_L1D_Prefetch_miss_rate 0
Core_0_STLB_cause_L1D_Prefetch_Same_Page_miss 0
Core_0_STLB_cause_L1D_Prefetch_Same_Page_miss_rate 0
Core_0_STLB_cause_L1D_Prefetch_Cross_Page_miss 0
Core_0_STLB_cause_L1D_Prefetch_Cross_Page_miss_rate 0
Core_0_STLB_cause_L1I_Prefetch_miss 0
Core_0_STLB_cause_L1I_Prefetch_miss_rate 0
Core_0_STLB_cause_Other_miss 0
Core_0_STLB_cause_Other_miss_rate 0
Core_0_STLB_Demand_miss 1147014
Core_0_STLB_Demand_miss_rate 0.772803
Core_0_STLB_L1D_Prefetch_miss 0
Core_0_STLB_L1D_Prefetch_miss_rate 0
Core_0_STLB_Other_miss 0
Core_0_STLB_Other_miss_rate 0

========== vBerti-TLB Cross-page Flow Stats ==========

Core_0_vBerti_Requested 87765118
Core_0_vBerti_Cross_page_prefetch_in_Requested 0
Core_0_vBerti_Same_page_prefetch_in_Requested 87765118
Core_0_vBerti_Cross_page_prefetch_of_Requested 0
Core_0_vBerti_Issued 20160447
Core_0_vBerti_InPQ_Same_page_prefetch 20160447
Core_0_vBerti_InPQ_Cross_page_prefetch 0
Core_0_vBerti_PQ_Drop_Rate 0.770291
Core_0_vBerti_InPQ_Cross_page_prefetch_of_Requested 0
Core_0_vBerti_Cross_page_PQ_Drop_rate 0
Core_0_vBerti_Cross_page_prefetch_of_Issued 0
Core_0_CP_PF_PQFULL_drop 0
Core_0_CP_PF_PQFULL_TLB_rescue_enqueued 0
Core_0_CP_PF_PQFULL_TLB_rescue_issued 0
Core_0_CP_PF_PQFULL_TLB_rescue_translated 0

========= DTLB_vBerti Prefetch Stats =========
Core_0_DTLB_demand_access 23591632
Core_0_DTLB_demand_hit 22015849
Core_0_DTLB_demand_miss 1575783
Core_0_DTLB_demand_mshr_merge 91561
Core_0_DTLB_demand_fill 1484222
Core_0_DTLB_demand_miss_rate 0.0667941
Core_0_DTLB_demand_mpki 15.7578
Core_0_DTLB_vberti_prefetch_access 14433553
Core_0_DTLB_vberti_prefetch_hit 14433548
Core_0_DTLB_vberti_prefetch_miss 5
Core_0_DTLB_vberti_prefetch_mshr_merge 2
Core_0_DTLB_vberti_prefetch_fill 3
Core_0_DTLB_vberti_prefetch_miss_rate 3.46415e-07
Core_0_DTLB_vberti_prefetch_mpki 5e-05

=== DTLB_vBerti Same/Cross-page Prefetch Stats ===
Core_0_DTLB_vberti_same_page_prefetch 14433553
Core_0_DTLB_vberti_same_page_prefetch_hit 14433548
Core_0_DTLB_vberti_same_page_prefetch_miss 5
Core_0_DTLB_vberti_same_page_prefetch_mshr_merge 2
Core_0_DTLB_vberti_same_page_prefetch_fill 3
Core_0_DTLB_vberti_same_page_prefetch_miss_rate 3.46415e-07
Core_0_DTLB_vberti_same_page_prefetch_mpki 5e-05
Core_0_DTLB_vberti_cross_page_prefetch 0
Core_0_DTLB_vberti_cross_page_prefetch_hit 0
Core_0_DTLB_vberti_cross_page_prefetch_miss 0
Core_0_DTLB_vberti_cross_page_prefetch_mshr_merge 0
Core_0_DTLB_vberti_cross_page_prefetch_fill 0
Core_0_DTLB_vberti_cross_page_prefetch_miss_rate 0
Core_0_DTLB_vberti_cross_page_prefetch_mpki 0
Core_0_DTLB_same_page_prefetch_miss_rate 3.46415e-07
Core_0_DTLB_same_page_prefetch_mpki 5e-05
Core_0_DTLB_cross_page_prefetch_miss_rate 0
Core_0_DTLB_cross_page_prefetch_mpki 0
Core_0_DTLB_cross_page_prefetch_issued 0
Core_0_DTLB_cross_page_prefetch_lookups 0
Core_0_DTLB_cross_page_prefetch_useful 0
Core_0_DTLB_cross_page_prefetch_useless 0
Core_0_DTLB_cross_page_prefetch_late 0
Core_0_DTLB_cross_page_prefetch_too_early 0
Core_0_DTLB_cross_page_prefetch_too_early_among_fill 0
Core_0_DTLB_cross_page_prefetch_too_early_among_useless 0
Core_0_DTLB_cross_page_prefetch_pollution_evict 0
Core_0_DTLB_cross_page_prefetch_pollution_demand 0
Core_0_DTLB_cross_page_prefetch_pollution_among_prefetch_fill 0
Core_0_DTLB_cross_page_prefetch_accuracy 0
Core_0_DTLB_cross_page_prefetch_coverage 0

========= STLB_vBerti Prefetch Stats =========
Core_0_STLB_demand_access 1484222
Core_0_STLB_demand_hit 337208
Core_0_STLB_demand_miss 1147014
Core_0_STLB_demand_mshr_merge 0
Core_0_STLB_demand_fill 1147014
Core_0_STLB_demand_miss_rate 0.772805
Core_0_STLB_demand_mpki 11.4701
Core_0_STLB_vberti_prefetch_access 3
Core_0_STLB_vberti_prefetch_hit 3
Core_0_STLB_vberti_prefetch_miss 0
Core_0_STLB_vberti_prefetch_mshr_merge 0
Core_0_STLB_vberti_prefetch_fill 0
Core_0_STLB_vberti_prefetch_miss_rate 0
Core_0_STLB_vberti_prefetch_mpki 0

=== STLB_vBerti Same/Cross-page Prefetch Stats ===
Core_0_STLB_vberti_same_page_prefetch 3
Core_0_STLB_vberti_same_page_prefetch_hit 3
Core_0_STLB_vberti_same_page_prefetch_miss 0
Core_0_STLB_vberti_same_page_prefetch_mshr_merge 0
Core_0_STLB_vberti_same_page_prefetch_fill 0
Core_0_STLB_vberti_same_page_prefetch_miss_rate 0
Core_0_STLB_vberti_same_page_prefetch_mpki 0
Core_0_STLB_vberti_cross_page_prefetch 0
Core_0_STLB_vberti_cross_page_prefetch_hit 0
Core_0_STLB_vberti_cross_page_prefetch_miss 0
Core_0_STLB_vberti_cross_page_prefetch_mshr_merge 0
Core_0_STLB_vberti_cross_page_prefetch_fill 0
Core_0_STLB_vberti_cross_page_prefetch_miss_rate 0
Core_0_STLB_vberti_cross_page_prefetch_mpki 0
Core_0_STLB_same_page_prefetch_miss_rate 0
Core_0_STLB_same_page_prefetch_mpki 0
Core_0_STLB_cross_page_prefetch_miss_rate 0
Core_0_STLB_cross_page_prefetch_mpki 0
Core_0_STLB_cross_page_prefetch_issued 0
Core_0_STLB_cross_page_prefetch_lookups 0
Core_0_STLB_cross_page_prefetch_useful 0
Core_0_STLB_cross_page_prefetch_useless 0
Core_0_STLB_cross_page_prefetch_late 0
Core_0_STLB_cross_page_prefetch_too_early 0
Core_0_STLB_cross_page_prefetch_too_early_among_fill 0
Core_0_STLB_cross_page_prefetch_too_early_among_useless 0
Core_0_STLB_cross_page_prefetch_pollution_evict 0
Core_0_STLB_cross_page_prefetch_pollution_demand 0
Core_0_STLB_cross_page_prefetch_pollution_among_prefetch_fill 0
Core_0_STLB_cross_page_prefetch_accuracy 0
Core_0_STLB_cross_page_prefetch_coverage 0

========= STLB Cross-page Prefetch Buffer Stats =========
Core_0_STLB_raw_demand_miss 1147014
Core_0_CP_PB_insert 0
Core_0_CP_PB_demand_hit 0
Core_0_STLB_PB_demand_miss 1147014
Core_0_CP_PB_coverage 0
Core_0_STLB_raw_demand_mpki 11.4701
Core_0_STLB_PB_demand_mpki 11.4701
Core_0_CP_PB_demand_hit_mpki 0

Core_0_TLB_demand_miss_rate 0.0486195
Core_0_TLB_demand_mpki 11.4701
Core_0_TLB_same_page_prefetch_miss_rate 0
Core_0_TLB_same_page_prefetch_mpki 0
Core_0_TLB_cross_page_prefetch_miss_rate 0
Core_0_TLB_cross_page_prefetch_mpki 0
Core_0_TLB_cross_page_prefetch_issued 0
Core_0_TLB_cross_page_prefetch_lookups 0
Core_0_TLB_cross_page_prefetch_useful 0
Core_0_TLB_cross_page_prefetch_useless 0
Core_0_TLB_cross_page_prefetch_late 0
Core_0_TLB_cross_page_prefetch_too_early 0
Core_0_TLB_cross_page_prefetch_too_early_among_fill 0
Core_0_TLB_cross_page_prefetch_too_early_among_useless 0
Core_0_TLB_cross_page_prefetch_accuracy 0
Core_0_TLB_cross_page_prefetch_coverage 0
====== vBerti internal metric ========
BERTI TO_L1: 73933475 TO_L2: 13831643 TO_L2_BC_MSHR: 1039017
BERTI AVG_LAT: 175.75 NUM_TRACK_LATENCY: 3265901 NUM_CANT_TRACK_LATENCY: 0
BERTI CROSS_PAGE 14195459 NO_CROSS_PAGE: 87765118
BERTI FOUND_BERTI: 15273063 NO_FOUND_BERTI: 9253568
BERTI AVERAGE_ISSUED: 3.44733
