[VMEM] WARNING: physical memory size is smaller than virtual memory size.

*** ChampSim Multicore Out-of-Order Simulator ***
Warmup Instructions: 50000000
Simulation Instructions: 100000000
Number of CPUs: 1
Page size: 4096
Core 0: /data2/zcq/champsim_traces_gap/pr.kron-349B.champsimtrace.xz
VBerti Prefetcher
No Crossing Page
BERTI HASH ENTANGLING
BERTI IP MASK ffff
Off-chip DRAM Size: 16 GiB Channels: 1 Width: 64-bit Data Rate: 3205 MT/s
Warmup halting CPU 0 at instruction 50000002 cycle 29431308 for remainder of phase
Warmup finished CPU 0 instructions: 50000002 cycles: 29431308 cumulative IPC: 1.699 (Simulation time: 00 hr 07 min 49 sec)
Warmup complete CPU 0 instructions: 50000002 cycles: 29431308 cumulative IPC: 1.699 (Simulation time: 00 hr 07 min 49 sec)
Simulation CPU 0 warning: IPC 0.022574 < 0.05
Simulation CPU 0 warning: IPC 0.023503 < 0.05
Simulation CPU 0 warning: IPC 0.025288 < 0.05
Simulation CPU 0 warning: IPC 0.024199 < 0.05
Simulation CPU 0 warning: IPC 0.024355 < 0.05
Simulation CPU 0 warning: IPC 0.024014 < 0.05
Simulation CPU 0 warning: IPC 0.022814 < 0.05
Simulation CPU 0 warning: IPC 0.023105 < 0.05
Simulation CPU 0 warning: IPC 0.023411 < 0.05
Simulation CPU 0 warning: IPC 0.023196 < 0.05
Simulation CPU 0 warning: IPC 0.02382 < 0.05
Simulation CPU 0 warning: IPC 0.023655 < 0.05
Simulation CPU 0 warning: IPC 0.025364 < 0.05
Simulation CPU 0 warning: IPC 0.023605 < 0.05
Simulation CPU 0 warning: IPC 0.022983 < 0.05
Simulation CPU 0 warning: IPC 0.023458 < 0.05
Simulation CPU 0 warning: IPC 0.024237 < 0.05
Simulation CPU 0 warning: IPC 0.022867 < 0.05
Simulation CPU 0 warning: IPC 0.02466 < 0.05
Simulation CPU 0 warning: IPC 0.02398 < 0.05
Simulation CPU 0 warning: IPC 0.023472 < 0.05
Simulation CPU 0 warning: IPC 0.025092 < 0.05
Simulation CPU 0 warning: IPC 0.025601 < 0.05
Simulation CPU 0 warning: IPC 0.023923 < 0.05
Simulation CPU 0 warning: IPC 0.023637 < 0.05
Simulation CPU 0 warning: IPC 0.023219 < 0.05
Simulation CPU 0 warning: IPC 0.023159 < 0.05
Simulation CPU 0 warning: IPC 0.023678 < 0.05
Simulation CPU 0 warning: IPC 0.024673 < 0.05
Simulation CPU 0 warning: IPC 0.024661 < 0.05
Simulation CPU 0 warning: IPC 0.023428 < 0.05
Simulation CPU 0 warning: IPC 0.024683 < 0.05
Simulation CPU 0 warning: IPC 0.023926 < 0.05
Simulation CPU 0 warning: IPC 0.023232 < 0.05
Simulation CPU 0 warning: IPC 0.022448 < 0.05
Simulation CPU 0 warning: IPC 0.023015 < 0.05
Simulation CPU 0 warning: IPC 0.025159 < 0.05
Simulation CPU 0 warning: IPC 0.023316 < 0.05
Simulation CPU 0 warning: IPC 0.023555 < 0.05
Simulation CPU 0 warning: IPC 0.024111 < 0.05
Simulation CPU 0 warning: IPC 0.024736 < 0.05
Simulation CPU 0 warning: IPC 0.022678 < 0.05
Simulation CPU 0 warning: IPC 0.022915 < 0.05
Simulation CPU 0 warning: IPC 0.02325 < 0.05
Simulation CPU 0 warning: IPC 0.022396 < 0.05
Simulation CPU 0 warning: IPC 0.024396 < 0.05
Simulation CPU 0 warning: IPC 0.025134 < 0.05
Simulation CPU 0 warning: IPC 0.022494 < 0.05
Simulation CPU 0 warning: IPC 0.023367 < 0.05
Simulation CPU 0 warning: IPC 0.022727 < 0.05
Simulation CPU 0 warning: IPC 0.024716 < 0.05
Simulation CPU 0 warning: IPC 0.024306 < 0.05
Simulation CPU 0 warning: IPC 0.022574 < 0.05
Simulation CPU 0 warning: IPC 0.023336 < 0.05
Simulation CPU 0 warning: IPC 0.023079 < 0.05
Simulation CPU 0 warning: IPC 0.024575 < 0.05
Simulation CPU 0 warning: IPC 0.024475 < 0.05
Simulation CPU 0 warning: IPC 0.023316 < 0.05
Simulation CPU 0 warning: IPC 0.025093 < 0.05
Simulation CPU 0 warning: IPC 0.023169 < 0.05
Simulation CPU 0 warning: IPC 0.023063 < 0.05
Simulation CPU 0 warning: IPC 0.023312 < 0.05
Simulation CPU 0 warning: IPC 0.024782 < 0.05
Simulation CPU 0 warning: IPC 0.024101 < 0.05
Simulation CPU 0 warning: IPC 0.024528 < 0.05
Simulation CPU 0 warning: IPC 0.024517 < 0.05
Simulation CPU 0 warning: IPC 0.025017 < 0.05
Simulation CPU 0 warning: IPC 0.023648 < 0.05
Simulation CPU 0 warning: IPC 0.023174 < 0.05
Simulation CPU 0 warning: IPC 0.023691 < 0.05
Simulation CPU 0 warning: IPC 0.022888 < 0.05
Simulation CPU 0 warning: IPC 0.024092 < 0.05
Simulation CPU 0 warning: IPC 0.02491 < 0.05
Simulation CPU 0 warning: IPC 0.024539 < 0.05
Simulation CPU 0 warning: IPC 0.024477 < 0.05
Simulation CPU 0 warning: IPC 0.023416 < 0.05
Simulation CPU 0 warning: IPC 0.023893 < 0.05
Simulation CPU 0 warning: IPC 0.023634 < 0.05
Simulation CPU 0 warning: IPC 0.024122 < 0.05
Simulation CPU 0 warning: IPC 0.024291 < 0.05
Simulation CPU 0 warning: IPC 0.023277 < 0.05
Simulation CPU 0 warning: IPC 0.023653 < 0.05
Simulation CPU 0 warning: IPC 0.025507 < 0.05
Simulation CPU 0 warning: IPC 0.021726 < 0.05
Simulation CPU 0 warning: IPC 0.024557 < 0.05
Simulation CPU 0 warning: IPC 0.023915 < 0.05
Simulation CPU 0 warning: IPC 0.024275 < 0.05
Simulation CPU 0 warning: IPC 0.023769 < 0.05
Simulation CPU 0 warning: IPC 0.022905 < 0.05
Simulation CPU 0 warning: IPC 0.02404 < 0.05
Simulation CPU 0 warning: IPC 0.024447 < 0.05
Simulation CPU 0 warning: IPC 0.02211 < 0.05
Simulation CPU 0 warning: IPC 0.024007 < 0.05
Simulation CPU 0 warning: IPC 0.024242 < 0.05
Simulation CPU 0 warning: IPC 0.022905 < 0.05
Simulation CPU 0 warning: IPC 0.022955 < 0.05
Simulation CPU 0 warning: IPC 0.024677 < 0.05
Simulation CPU 0 warning: IPC 0.024385 < 0.05
Simulation CPU 0 warning: IPC 0.023786 < 0.05
Simulation CPU 0 warning: IPC 0.023825 < 0.05
Simulation CPU 0 warning: IPC 0.024093 < 0.05
Simulation CPU 0 warning: IPC 0.022837 < 0.05
Simulation CPU 0 warning: IPC 0.023928 < 0.05
Simulation CPU 0 warning: IPC 0.024053 < 0.05
Simulation CPU 0 warning: IPC 0.024035 < 0.05
Simulation CPU 0 warning: IPC 0.022455 < 0.05
Simulation CPU 0 warning: IPC 0.02286 < 0.05
Simulation CPU 0 warning: IPC 0.023989 < 0.05
Simulation CPU 0 warning: IPC 0.023769 < 0.05
Simulation CPU 0 warning: IPC 0.025005 < 0.05
Simulation CPU 0 warning: IPC 0.024747 < 0.05
Simulation CPU 0 warning: IPC 0.02185 < 0.05
Simulation CPU 0 warning: IPC 0.025071 < 0.05
Simulation CPU 0 warning: IPC 0.023207 < 0.05
Simulation CPU 0 warning: IPC 0.023169 < 0.05
Simulation CPU 0 warning: IPC 0.023805 < 0.05
Simulation CPU 0 warning: IPC 0.023904 < 0.05
Simulation CPU 0 warning: IPC 0.023816 < 0.05
Simulation CPU 0 warning: IPC 0.024865 < 0.05
Simulation CPU 0 warning: IPC 0.024288 < 0.05
Simulation CPU 0 warning: IPC 0.023674 < 0.05
Simulation CPU 0 warning: IPC 0.023251 < 0.05
Simulation CPU 0 warning: IPC 0.023965 < 0.05
Simulation CPU 0 warning: IPC 0.023729 < 0.05
Simulation CPU 0 warning: IPC 0.023653 < 0.05
Simulation CPU 0 warning: IPC 0.025297 < 0.05
Simulation CPU 0 warning: IPC 0.022588 < 0.05
Simulation CPU 0 warning: IPC 0.022297 < 0.05
Simulation CPU 0 warning: IPC 0.024299 < 0.05
Simulation CPU 0 warning: IPC 0.023555 < 0.05
Simulation CPU 0 warning: IPC 0.023329 < 0.05
Simulation CPU 0 warning: IPC 0.022937 < 0.05
Simulation CPU 0 warning: IPC 0.022271 < 0.05
Simulation CPU 0 warning: IPC 0.022419 < 0.05
Simulation CPU 0 warning: IPC 0.023633 < 0.05
Simulation CPU 0 warning: IPC 0.023496 < 0.05
Simulation CPU 0 warning: IPC 0.02506 < 0.05
Simulation CPU 0 warning: IPC 0.024157 < 0.05
Simulation CPU 0 warning: IPC 0.023689 < 0.05
Simulation CPU 0 warning: IPC 0.024375 < 0.05
Simulation CPU 0 warning: IPC 0.023182 < 0.05
Simulation CPU 0 warning: IPC 0.023606 < 0.05
Simulation CPU 0 warning: IPC 0.025396 < 0.05
Simulation CPU 0 warning: IPC 0.023583 < 0.05
Simulation CPU 0 warning: IPC 0.023926 < 0.05
Simulation CPU 0 warning: IPC 0.024052 < 0.05
Simulation CPU 0 warning: IPC 0.025097 < 0.05
Simulation CPU 0 warning: IPC 0.024838 < 0.05
Simulation CPU 0 warning: IPC 0.022791 < 0.05
Simulation CPU 0 warning: IPC 0.024158 < 0.05
Simulation CPU 0 warning: IPC 0.023958 < 0.05
Simulation CPU 0 warning: IPC 0.023296 < 0.05
Simulation CPU 0 warning: IPC 0.022783 < 0.05
Simulation CPU 0 warning: IPC 0.023831 < 0.05
Simulation CPU 0 warning: IPC 0.022904 < 0.05
Simulation CPU 0 warning: IPC 0.023767 < 0.05
Simulation CPU 0 warning: IPC 0.024226 < 0.05
Simulation CPU 0 warning: IPC 0.024258 < 0.05
Simulation CPU 0 warning: IPC 0.022547 < 0.05
Simulation CPU 0 warning: IPC 0.025379 < 0.05
Simulation CPU 0 warning: IPC 0.022798 < 0.05
Simulation CPU 0 warning: IPC 0.022667 < 0.05
Simulation CPU 0 warning: IPC 0.024305 < 0.05
Simulation CPU 0 warning: IPC 0.024138 < 0.05
Simulation CPU 0 warning: IPC 0.023834 < 0.05
Simulation CPU 0 warning: IPC 0.022201 < 0.05
Simulation CPU 0 warning: IPC 0.02306 < 0.05
Simulation CPU 0 warning: IPC 0.025373 < 0.05
Simulation CPU 0 warning: IPC 0.024584 < 0.05
Simulation CPU 0 warning: IPC 0.022745 < 0.05
Simulation CPU 0 warning: IPC 0.024402 < 0.05
Simulation CPU 0 warning: IPC 0.024296 < 0.05
Simulation CPU 0 warning: IPC 0.023827 < 0.05
Simulation CPU 0 warning: IPC 0.024846 < 0.05
Simulation CPU 0 warning: IPC 0.023406 < 0.05
Simulation CPU 0 warning: IPC 0.024213 < 0.05
Simulation CPU 0 warning: IPC 0.023488 < 0.05
Simulation CPU 0 warning: IPC 0.023171 < 0.05
Simulation CPU 0 warning: IPC 0.023908 < 0.05
Simulation CPU 0 warning: IPC 0.023417 < 0.05
Simulation CPU 0 warning: IPC 0.022205 < 0.05
Simulation CPU 0 warning: IPC 0.022106 < 0.05
Simulation CPU 0 warning: IPC 0.022578 < 0.05
Simulation CPU 0 warning: IPC 0.023963 < 0.05
Simulation CPU 0 warning: IPC 0.023457 < 0.05
Simulation CPU 0 warning: IPC 0.024261 < 0.05
Simulation CPU 0 warning: IPC 0.024773 < 0.05
Simulation CPU 0 warning: IPC 0.025571 < 0.05
Simulation CPU 0 warning: IPC 0.024481 < 0.05
Simulation CPU 0 warning: IPC 0.024338 < 0.05
Simulation CPU 0 warning: IPC 0.023341 < 0.05
Simulation CPU 0 warning: IPC 0.023275 < 0.05
Simulation CPU 0 warning: IPC 0.023859 < 0.05
Simulation CPU 0 warning: IPC 0.023755 < 0.05
Simulation CPU 0 warning: IPC 0.023021 < 0.05
Simulation CPU 0 warning: IPC 0.02317 < 0.05
Simulation CPU 0 warning: IPC 0.022784 < 0.05
Simulation CPU 0 warning: IPC 0.022436 < 0.05
Simulation CPU 0 warning: IPC 0.024404 < 0.05
Simulation CPU 0 warning: IPC 0.021626 < 0.05
Simulation CPU 0 warning: IPC 0.024256 < 0.05
Simulation CPU 0 warning: IPC 0.023728 < 0.05
Simulation CPU 0 warning: IPC 0.024888 < 0.05
Simulation CPU 0 warning: IPC 0.023103 < 0.05
Simulation CPU 0 warning: IPC 0.023504 < 0.05
Simulation CPU 0 warning: IPC 0.023576 < 0.05
Simulation CPU 0 warning: IPC 0.023346 < 0.05
Simulation CPU 0 warning: IPC 0.022889 < 0.05
Simulation CPU 0 warning: IPC 0.02218 < 0.05
Simulation CPU 0 warning: IPC 0.022473 < 0.05
Simulation CPU 0 warning: IPC 0.024131 < 0.05
Simulation CPU 0 warning: IPC 0.024112 < 0.05
Simulation CPU 0 warning: IPC 0.023067 < 0.05
Simulation CPU 0 warning: IPC 0.024909 < 0.05
Simulation CPU 0 warning: IPC 0.024101 < 0.05
Simulation CPU 0 warning: IPC 0.024086 < 0.05
Simulation CPU 0 warning: IPC 0.022503 < 0.05
Simulation CPU 0 warning: IPC 0.023762 < 0.05
Simulation CPU 0 warning: IPC 0.022558 < 0.05
Simulation CPU 0 warning: IPC 0.024113 < 0.05
Simulation CPU 0 warning: IPC 0.023772 < 0.05
Simulation CPU 0 warning: IPC 0.02304 < 0.05
Simulation CPU 0 warning: IPC 0.023062 < 0.05
Simulation CPU 0 warning: IPC 0.023443 < 0.05
Simulation CPU 0 warning: IPC 0.022086 < 0.05
Simulation CPU 0 warning: IPC 0.023179 < 0.05
Simulation CPU 0 warning: IPC 0.0225 < 0.05
Simulation CPU 0 warning: IPC 0.023245 < 0.05
Simulation CPU 0 warning: IPC 0.022723 < 0.05
Simulation CPU 0 warning: IPC 0.023924 < 0.05
Simulation CPU 0 warning: IPC 0.022239 < 0.05
Simulation CPU 0 warning: IPC 0.022987 < 0.05
Simulation CPU 0 warning: IPC 0.023824 < 0.05
Simulation CPU 0 warning: IPC 0.023335 < 0.05
Simulation CPU 0 warning: IPC 0.024587 < 0.05
Simulation CPU 0 warning: IPC 0.024585 < 0.05
Simulation CPU 0 warning: IPC 0.024275 < 0.05
Simulation CPU 0 warning: IPC 0.023136 < 0.05
Simulation CPU 0 warning: IPC 0.024786 < 0.05
Simulation CPU 0 warning: IPC 0.023049 < 0.05
Simulation CPU 0 warning: IPC 0.023101 < 0.05
Simulation CPU 0 warning: IPC 0.022199 < 0.05
Simulation CPU 0 warning: IPC 0.024245 < 0.05
Simulation CPU 0 warning: IPC 0.024048 < 0.05
Simulation CPU 0 warning: IPC 0.024245 < 0.05
Simulation CPU 0 warning: IPC 0.023501 < 0.05
Simulation CPU 0 warning: IPC 0.022121 < 0.05
Simulation CPU 0 warning: IPC 0.023877 < 0.05
Simulation CPU 0 warning: IPC 0.024928 < 0.05
Simulation CPU 0 warning: IPC 0.023468 < 0.05
Simulation CPU 0 warning: IPC 0.022965 < 0.05
Simulation CPU 0 warning: IPC 0.021978 < 0.05
Simulation CPU 0 warning: IPC 0.023588 < 0.05
Simulation CPU 0 warning: IPC 0.024628 < 0.05
Simulation CPU 0 warning: IPC 0.024069 < 0.05
Simulation CPU 0 warning: IPC 0.02442 < 0.05
Simulation CPU 0 warning: IPC 0.023517 < 0.05
Simulation CPU 0 warning: IPC 0.023158 < 0.05
Simulation CPU 0 warning: IPC 0.024702 < 0.05
Simulation CPU 0 warning: IPC 0.023964 < 0.05
Simulation CPU 0 warning: IPC 0.023602 < 0.05
Simulation CPU 0 warning: IPC 0.023433 < 0.05
Simulation CPU 0 warning: IPC 0.024101 < 0.05
Simulation CPU 0 warning: IPC 0.023204 < 0.05
Simulation CPU 0 warning: IPC 0.022701 < 0.05
Simulation CPU 0 warning: IPC 0.02417 < 0.05
Simulation CPU 0 warning: IPC 0.0244 < 0.05
Simulation CPU 0 warning: IPC 0.024702 < 0.05
Simulation CPU 0 warning: IPC 0.023871 < 0.05
Simulation CPU 0 warning: IPC 0.023891 < 0.05
Simulation CPU 0 warning: IPC 0.023074 < 0.05
Simulation CPU 0 warning: IPC 0.022965 < 0.05
Simulation CPU 0 warning: IPC 0.023177 < 0.05
Simulation CPU 0 warning: IPC 0.023758 < 0.05
Simulation CPU 0 warning: IPC 0.022102 < 0.05
Simulation CPU 0 warning: IPC 0.023335 < 0.05
Simulation CPU 0 warning: IPC 0.02273 < 0.05
Simulation CPU 0 warning: IPC 0.02402 < 0.05
Simulation CPU 0 warning: IPC 0.023311 < 0.05
Simulation CPU 0 warning: IPC 0.022531 < 0.05
Simulation CPU 0 warning: IPC 0.023706 < 0.05
Simulation CPU 0 warning: IPC 0.023082 < 0.05
Simulation CPU 0 warning: IPC 0.023921 < 0.05
Simulation CPU 0 warning: IPC 0.024155 < 0.05
Simulation CPU 0 warning: IPC 0.024156 < 0.05
Simulation CPU 0 warning: IPC 0.024631 < 0.05
Simulation CPU 0 warning: IPC 0.023749 < 0.05
Simulation CPU 0 warning: IPC 0.024235 < 0.05
Simulation CPU 0 warning: IPC 0.024147 < 0.05
Simulation CPU 0 warning: IPC 0.024301 < 0.05
Simulation CPU 0 warning: IPC 0.023369 < 0.05
Simulation CPU 0 warning: IPC 0.02348 < 0.05
Simulation CPU 0 warning: IPC 0.024528 < 0.05
Simulation CPU 0 warning: IPC 0.02297 < 0.05
Simulation CPU 0 warning: IPC 0.022731 < 0.05
Simulation CPU 0 warning: IPC 0.023171 < 0.05
Simulation CPU 0 warning: IPC 0.024705 < 0.05
Simulation CPU 0 warning: IPC 0.024108 < 0.05
Simulation CPU 0 warning: IPC 0.024361 < 0.05
Simulation CPU 0 warning: IPC 0.023459 < 0.05
Simulation CPU 0 warning: IPC 0.023656 < 0.05
Simulation CPU 0 warning: IPC 0.023524 < 0.05
Simulation CPU 0 warning: IPC 0.023276 < 0.05
Simulation CPU 0 warning: IPC 0.022786 < 0.05
Simulation CPU 0 warning: IPC 0.021953 < 0.05
Simulation CPU 0 warning: IPC 0.022691 < 0.05
Simulation CPU 0 warning: IPC 0.024921 < 0.05
Simulation CPU 0 warning: IPC 0.02535 < 0.05
Simulation CPU 0 warning: IPC 0.0225 < 0.05
Simulation CPU 0 warning: IPC 0.02337 < 0.05
Simulation CPU 0 warning: IPC 0.023486 < 0.05
Simulation CPU 0 warning: IPC 0.023543 < 0.05
Simulation CPU 0 warning: IPC 0.022664 < 0.05
Simulation CPU 0 warning: IPC 0.021747 < 0.05
Simulation CPU 0 warning: IPC 0.02303 < 0.05
Simulation CPU 0 warning: IPC 0.024047 < 0.05
Simulation CPU 0 warning: IPC 0.024149 < 0.05
Simulation CPU 0 warning: IPC 0.023356 < 0.05
Simulation CPU 0 warning: IPC 0.02599 < 0.05
Simulation CPU 0 warning: IPC 0.023489 < 0.05
Simulation CPU 0 warning: IPC 0.023813 < 0.05
Simulation CPU 0 warning: IPC 0.023804 < 0.05
Simulation CPU 0 warning: IPC 0.023296 < 0.05
Simulation CPU 0 warning: IPC 0.023233 < 0.05
Simulation CPU 0 warning: IPC 0.023869 < 0.05
Simulation CPU 0 warning: IPC 0.02396 < 0.05
Simulation CPU 0 warning: IPC 0.02393 < 0.05
Simulation CPU 0 warning: IPC 0.023324 < 0.05
Simulation CPU 0 warning: IPC 0.02399 < 0.05
Simulation CPU 0 warning: IPC 0.023474 < 0.05
Simulation CPU 0 warning: IPC 0.024832 < 0.05
Simulation CPU 0 warning: IPC 0.024136 < 0.05
Simulation CPU 0 warning: IPC 0.0234 < 0.05
Simulation CPU 0 warning: IPC 0.023308 < 0.05
Simulation CPU 0 warning: IPC 0.023144 < 0.05
Simulation CPU 0 warning: IPC 0.022278 < 0.05
Simulation CPU 0 warning: IPC 0.022759 < 0.05
Simulation CPU 0 warning: IPC 0.02232 < 0.05
Simulation CPU 0 warning: IPC 0.023624 < 0.05
Simulation CPU 0 warning: IPC 0.023709 < 0.05
Simulation CPU 0 warning: IPC 0.023949 < 0.05
Simulation CPU 0 warning: IPC 0.024115 < 0.05
Simulation CPU 0 warning: IPC 0.023838 < 0.05
Simulation CPU 0 warning: IPC 0.024742 < 0.05
Simulation CPU 0 warning: IPC 0.023323 < 0.05
Simulation CPU 0 warning: IPC 0.024367 < 0.05
Simulation CPU 0 warning: IPC 0.023612 < 0.05
Simulation CPU 0 warning: IPC 0.023398 < 0.05
Simulation CPU 0 warning: IPC 0.023776 < 0.05
Simulation CPU 0 warning: IPC 0.023976 < 0.05
Simulation CPU 0 warning: IPC 0.024348 < 0.05
Simulation CPU 0 warning: IPC 0.022463 < 0.05
Simulation CPU 0 warning: IPC 0.024321 < 0.05
Simulation CPU 0 warning: IPC 0.024575 < 0.05
Simulation CPU 0 warning: IPC 0.02362 < 0.05
Simulation CPU 0 warning: IPC 0.022097 < 0.05
Simulation CPU 0 warning: IPC 0.023637 < 0.05
Simulation CPU 0 warning: IPC 0.024669 < 0.05
Simulation CPU 0 warning: IPC 0.023568 < 0.05
Simulation CPU 0 warning: IPC 0.024689 < 0.05
Simulation CPU 0 warning: IPC 0.023353 < 0.05
Simulation CPU 0 warning: IPC 0.024437 < 0.05
Simulation CPU 0 warning: IPC 0.024092 < 0.05
Simulation CPU 0 warning: IPC 0.023919 < 0.05
Simulation CPU 0 warning: IPC 0.024134 < 0.05
Simulation CPU 0 warning: IPC 0.024678 < 0.05
Simulation CPU 0 warning: IPC 0.024378 < 0.05
Simulation CPU 0 warning: IPC 0.022217 < 0.05
Simulation CPU 0 warning: IPC 0.024422 < 0.05
Simulation CPU 0 warning: IPC 0.024781 < 0.05
Simulation CPU 0 warning: IPC 0.024891 < 0.05
Simulation CPU 0 warning: IPC 0.024408 < 0.05
Simulation CPU 0 warning: IPC 0.024547 < 0.05
Simulation CPU 0 warning: IPC 0.022419 < 0.05
Simulation CPU 0 warning: IPC 0.022881 < 0.05
Simulation CPU 0 warning: IPC 0.024256 < 0.05
Simulation CPU 0 warning: IPC 0.024237 < 0.05
Simulation CPU 0 warning: IPC 0.02223 < 0.05
Simulation CPU 0 warning: IPC 0.023047 < 0.05
Simulation CPU 0 warning: IPC 0.025095 < 0.05
Simulation CPU 0 warning: IPC 0.024606 < 0.05
Simulation CPU 0 warning: IPC 0.025559 < 0.05
Simulation CPU 0 warning: IPC 0.023757 < 0.05
Simulation CPU 0 warning: IPC 0.024539 < 0.05
Simulation CPU 0 warning: IPC 0.022418 < 0.05
Simulation CPU 0 warning: IPC 0.023769 < 0.05
Simulation CPU 0 warning: IPC 0.023553 < 0.05
Simulation CPU 0 warning: IPC 0.022902 < 0.05
Simulation CPU 0 warning: IPC 0.024091 < 0.05
Simulation CPU 0 warning: IPC 0.024179 < 0.05
Simulation CPU 0 warning: IPC 0.024701 < 0.05
Simulation CPU 0 warning: IPC 0.023614 < 0.05
Simulation CPU 0 warning: IPC 0.024003 < 0.05
Simulation CPU 0 warning: IPC 0.024054 < 0.05
Simulation CPU 0 warning: IPC 0.023011 < 0.05
Simulation CPU 0 warning: IPC 0.022599 < 0.05
Simulation CPU 0 warning: IPC 0.024115 < 0.05
Simulation CPU 0 warning: IPC 0.022898 < 0.05
Simulation CPU 0 warning: IPC 0.022142 < 0.05
Simulation CPU 0 warning: IPC 0.022514 < 0.05
Simulation CPU 0 warning: IPC 0.022085 < 0.05
Simulation CPU 0 warning: IPC 0.023219 < 0.05
Simulation CPU 0 warning: IPC 0.023219 < 0.05
Simulation CPU 0 warning: IPC 0.023505 < 0.05
Simulation CPU 0 warning: IPC 0.02228 < 0.05
Simulation CPU 0 warning: IPC 0.023168 < 0.05
Simulation CPU 0 warning: IPC 0.024532 < 0.05
Simulation CPU 0 warning: IPC 0.023984 < 0.05
Simulation CPU 0 warning: IPC 0.025229 < 0.05
Simulation CPU 0 warning: IPC 0.023519 < 0.05
Simulation CPU 0 warning: IPC 0.023737 < 0.05
Simulation CPU 0 warning: IPC 0.023529 < 0.05
Simulation CPU 0 warning: IPC 0.024324 < 0.05
Simulation CPU 0 warning: IPC 0.023058 < 0.05
Simulation CPU 0 warning: IPC 0.023321 < 0.05
Simulation CPU 0 warning: IPC 0.023643 < 0.05
Simulation CPU 0 warning: IPC 0.023977 < 0.05
Simulation CPU 0 warning: IPC 0.023706 < 0.05
Simulation CPU 0 warning: IPC 0.02521 < 0.05
Simulation CPU 0 warning: IPC 0.023665 < 0.05
Simulation CPU 0 warning: IPC 0.024705 < 0.05
Simulation CPU 0 warning: IPC 0.024276 < 0.05
Simulation finished CPU 0 instructions: 100000001 cycles: 4220885961 cumulative IPC: 0.02369 (Simulation time: 05 hr 54 min 06 sec)
Simulation complete CPU 0 instructions: 100000001 cycles: 4220885961 cumulative IPC: 0.02369 (Simulation time: 05 hr 54 min 06 sec)

ChampSim completed all CPUs

=== Simulation ===
CPU 0 runs /data2/zcq/champsim_traces_gap/pr.kron-349B.champsimtrace.xz

Region of Interest Statistics

CPU 0 cumulative IPC: 0.02369 instructions: 100000001 cycles: 4220885961
CPU 0 Branch Prediction Accuracy: 97.13% MPKI: 5.589 Average ROB Occupancy at Mispredict: 240.2
Branch type MPKI
BRANCH_DIRECT_JUMP: 0
BRANCH_INDIRECT: 0
BRANCH_CONDITIONAL: 5.589
BRANCH_DIRECT_CALL: 0
BRANCH_INDIRECT_CALL: 0
BRANCH_RETURN: 0

cpu0->cpu0_STLB TOTAL        ACCESS:   17560037 HIT:     277850 MISS:   17282187 MSHR_MERGE:          0
cpu0->cpu0_STLB LOAD         ACCESS:   17560037 HIT:     277850 MISS:   17282187 MSHR_MERGE:          0
cpu0->cpu0_STLB RFO          ACCESS:          0 HIT:          0 MISS:          0 MSHR_MERGE:          0
cpu0->cpu0_STLB PREFETCH     ACCESS:          0 HIT:          0 MISS:          0 MSHR_MERGE:          0
cpu0->cpu0_STLB WRITE        ACCESS:          0 HIT:          0 MISS:          0 MSHR_MERGE:          0
cpu0->cpu0_STLB TRANSLATION  ACCESS:          0 HIT:          0 MISS:          0 MSHR_MERGE:          0
cpu0->cpu0_STLB PREFETCH REQUESTED:          0 ISSUED:          0 USEFUL:          0 USELESS:          0 LATE:          0 TOO_EARLY:          0
cpu0->cpu0_STLB AVERAGE MISS LATENCY: 35.15 cycles
cpu0->cpu0_L2C TOTAL        ACCESS:   40084551 HIT:    8332770 MISS:   31751781 MSHR_MERGE:      26042
cpu0->cpu0_L2C LOAD         ACCESS:   18017832 HIT:     274164 MISS:   17743668 MSHR_MERGE:         37
cpu0->cpu0_L2C RFO          ACCESS:      16737 HIT:      14867 MISS:       1870 MSHR_MERGE:          0
cpu0->cpu0_L2C PREFETCH     ACCESS:    6529474 HIT:    5283808 MISS:    1245666 MSHR_MERGE:      26005
cpu0->cpu0_L2C WRITE        ACCESS:      68181 HIT:      68175 MISS:          6 MSHR_MERGE:          0
cpu0->cpu0_L2C TRANSLATION  ACCESS:   15452327 HIT:    2691756 MISS:   12760571 MSHR_MERGE:          0
cpu0->cpu0_L2C PREFETCH REQUESTED:    3284118 ISSUED:    3284118 USEFUL:     970898 USELESS:       2926 LATE:          7 TOO_EARLY:        523
cpu0->cpu0_L2C AVERAGE MISS LATENCY: 112.6 cycles
cpu0->cpu0_L1I TOTAL        ACCESS:   14584795 HIT:   14584795 MISS:          0 MSHR_MERGE:          0
cpu0->cpu0_L1I LOAD         ACCESS:   14584795 HIT:   14584795 MISS:          0 MSHR_MERGE:          0
cpu0->cpu0_L1I RFO          ACCESS:          0 HIT:          0 MISS:          0 MSHR_MERGE:          0
cpu0->cpu0_L1I PREFETCH     ACCESS:          0 HIT:          0 MISS:          0 MSHR_MERGE:          0
cpu0->cpu0_L1I WRITE        ACCESS:          0 HIT:          0 MISS:          0 MSHR_MERGE:          0
cpu0->cpu0_L1I TRANSLATION  ACCESS:          0 HIT:          0 MISS:          0 MSHR_MERGE:          0
cpu0->cpu0_L1I PREFETCH REQUESTED:          0 ISSUED:          0 USEFUL:          0 USELESS:          0 LATE:          0 TOO_EARLY:          0
cpu0->cpu0_L1I AVERAGE MISS LATENCY: - cycles
cpu0->cpu0_L1D TOTAL        ACCESS:  100402908 HIT:   63539280 MISS:   36863628 MSHR_MERGE:     129179
cpu0->cpu0_L1D LOAD         ACCESS:   37478230 HIT:   19383999 MISS:   18094231 MSHR_MERGE:      76400
cpu0->cpu0_L1D RFO          ACCESS:          0 HIT:          0 MISS:          0 MSHR_MERGE:          0
cpu0->cpu0_L1D PREFETCH     ACCESS:   21865190 HIT:   18615433 MISS:    3249757 MSHR_MERGE:       2202
cpu0->cpu0_L1D WRITE        ACCESS:     667467 HIT:     600155 MISS:      67312 MSHR_MERGE:      50575
cpu0->cpu0_L1D TRANSLATION  ACCESS:   40392021 HIT:   24939693 MISS:   15452328 MSHR_MERGE:          2
cpu0->cpu0_L1D PREFETCH REQUESTED:   23427949 ISSUED:   21865182 USEFUL:    1204675 USELESS:      43383 LATE:       4118 TOO_EARLY:       2236
cpu0->cpu0_L1D AVERAGE MISS LATENCY: 111.5 cycles
cpu0->cpu0_ITLB TOTAL        ACCESS:   14584793 HIT:   14584793 MISS:          0 MSHR_MERGE:          0
cpu0->cpu0_ITLB LOAD         ACCESS:   14584793 HIT:   14584793 MISS:          0 MSHR_MERGE:          0
cpu0->cpu0_ITLB RFO          ACCESS:          0 HIT:          0 MISS:          0 MSHR_MERGE:          0
cpu0->cpu0_ITLB PREFETCH     ACCESS:          0 HIT:          0 MISS:          0 MSHR_MERGE:          0
cpu0->cpu0_ITLB WRITE        ACCESS:          0 HIT:          0 MISS:          0 MSHR_MERGE:          0
cpu0->cpu0_ITLB TRANSLATION  ACCESS:          0 HIT:          0 MISS:          0 MSHR_MERGE:          0
cpu0->cpu0_ITLB PREFETCH REQUESTED:          0 ISSUED:          0 USEFUL:          0 USELESS:          0 LATE:          0 TOO_EARLY:          0
cpu0->cpu0_ITLB AVERAGE MISS LATENCY: - cycles
cpu0->cpu0_DTLB TOTAL        ACCESS:   57826950 HIT:   40227973 MISS:   17598977 MSHR_MERGE:      38940
cpu0->cpu0_DTLB LOAD         ACCESS:   57826950 HIT:   40227973 MISS:   17598977 MSHR_MERGE:      38940
cpu0->cpu0_DTLB RFO          ACCESS:          0 HIT:          0 MISS:          0 MSHR_MERGE:          0
cpu0->cpu0_DTLB PREFETCH     ACCESS:          0 HIT:          0 MISS:          0 MSHR_MERGE:          0
cpu0->cpu0_DTLB WRITE        ACCESS:          0 HIT:          0 MISS:          0 MSHR_MERGE:          0
cpu0->cpu0_DTLB TRANSLATION  ACCESS:          0 HIT:          0 MISS:          0 MSHR_MERGE:          0
cpu0->cpu0_DTLB PREFETCH REQUESTED:          0 ISSUED:          0 USEFUL:          0 USELESS:          0 LATE:          0 TOO_EARLY:          0
cpu0->cpu0_DTLB AVERAGE MISS LATENCY: 40.58 cycles
cpu0->LLC TOTAL        ACCESS:   31765576 HIT:   14026881 MISS:   17738695 MSHR_MERGE:          1
cpu0->LLC LOAD         ACCESS:   17743631 HIT:    1627203 MISS:   16116428 MSHR_MERGE:          0
cpu0->LLC RFO          ACCESS:       1870 HIT:       1863 MISS:          7 MSHR_MERGE:          0
cpu0->LLC PREFETCH     ACCESS:    1219661 HIT:       1121 MISS:    1218540 MSHR_MERGE:          1
cpu0->LLC WRITE        ACCESS:      39843 HIT:      11502 MISS:      28341 MSHR_MERGE:          0
cpu0->LLC TRANSLATION  ACCESS:   12760571 HIT:   12385192 MISS:     375379 MSHR_MERGE:          0
cpu0->LLC PREFETCH REQUESTED:          0 ISSUED:          0 USEFUL:          0 USELESS:          0 LATE:          0 TOO_EARLY:          0
cpu0->LLC AVERAGE MISS LATENCY: 179.2 cycles

DRAM Statistics

Channel 0 RQ ROW_BUFFER_HIT:       8105
  ROW_BUFFER_MISS:   17702248
  AVG DBUS CONGESTED CYCLE: 14.51
Channel 0 WQ ROW_BUFFER_HIT:       5185
  ROW_BUFFER_MISS:      31419
  FULL:          0
Channel 0 REFRESHES ISSUED:     351741

[ROI Statistics]
[System Configuration]
num_cpus 1
cpu_freq 4000
fetch_width 6
decode_width 6
dispatch_width 6
execute_width 6
lq_width 2
sq_width 2
retire_width 6
scheduler_size 128
branch_mispredict_penalty 15
rob_size 352
lq_size 128
sq_size 72
ifetch_buffer_size 64
decode_buffer_size 32
dispatch_buffer_size 32
register_file_size 288
decode_latency 1
dispatch_latency 1
schedule_latency 1
execute_latency 1
page_size 4096
block_size 64
core_0_itlb_set 16
core_0_itlb_way 4
core_0_itlb_rq_size 16
core_0_itlb_wq_size 16
core_0_itlb_pq_size 0
core_0_itlb_mshr_size 8
core_0_itlb_hit_latency 1
core_0_itlb_fill_latency 1
core_0_itlb_max_tag_check 2
core_0_itlb_max_fill 2
core_0_dtlb_set 16
core_0_dtlb_way 4
core_0_dtlb_rq_size 16
core_0_dtlb_wq_size 16
core_0_dtlb_pq_size 0
core_0_dtlb_mshr_size 8
core_0_dtlb_hit_latency 1
core_0_dtlb_fill_latency 1
core_0_dtlb_max_tag_check 2
core_0_dtlb_max_fill 2
core_0_stlb_set 128
core_0_stlb_way 12
core_0_stlb_rq_size 32
core_0_stlb_wq_size 32
core_0_stlb_pq_size 0
core_0_stlb_mshr_size 16
core_0_stlb_hit_latency 4
core_0_stlb_fill_latency 4
core_0_stlb_max_tag_check 1
core_0_stlb_max_fill 1
core_0_l1i_set 64
core_0_l1i_way 8
core_0_l1i_rq_size 64
core_0_l1i_wq_size 64
core_0_l1i_pq_size 32
core_0_l1i_mshr_size 8
core_0_l1i_hit_latency 2
core_0_l1i_fill_latency 2
core_0_l1i_max_tag_check 2
core_0_l1i_max_fill 2
core_0_l1d_set 64
core_0_l1d_way 12
core_0_l1d_rq_size 64
core_0_l1d_wq_size 64
core_0_l1d_pq_size 8
core_0_l1d_mshr_size 16
core_0_l1d_hit_latency 2
core_0_l1d_fill_latency 3
core_0_l1d_max_tag_check 2
core_0_l1d_max_fill 2
core_0_l2c_set 1024
core_0_l2c_way 8
core_0_l2c_rq_size 32
core_0_l2c_wq_size 32
core_0_l2c_pq_size 16
core_0_l2c_mshr_size 32
core_0_l2c_hit_latency 5
core_0_l2c_fill_latency 5
core_0_l2c_max_tag_check 1
core_0_l2c_max_fill 1
llc_set 2048
llc_way 16
llc_rq_size 32
llc_wq_size 32
llc_pq_size 32
llc_mshr_size 64
llc_hit_latency 10
llc_fill_latency 10
llc_max_tag_check 1
llc_max_fill 1
dram_channels 1
dram_ranks 1
dram_bankgroups 8
dram_banks 4
dram_rows 65536
dram_columns 1024
dram_channel_width 8
dram_rq_size 64
dram_wq_size 64
dram_size 17179869184
core_0_itlb_prefetcher no
core_0_dtlb_prefetcher no
core_0_stlb_prefetcher no
core_0_l1i_prefetcher next_line
core_0_l1d_prefetcher vberti_nocross
core_0_l2c_prefetcher ip_stride
llc_prefetcher no
llc_replacement drrip

Core_0_instructions 100000001
Core_0_cycles 4220885961
Core_0_IPC 0.0236917
Core_0_branch_prediction_accuracy 97.1319
Core_0_branch_MPKI 5.58876
Core_0_average_ROB_occupancy_at_mispredict 240.21

Core_0_ITLB_total_access 14584793
Core_0_ITLB_total_hit 14584793
Core_0_ITLB_total_miss 0
Core_0_ITLB_total_MPKI 0
Core_0_ITLB_total_miss_rate 0
Core_0_ITLB_demand_access 14584793
Core_0_ITLB_demand_hit 14584793
Core_0_ITLB_demand_miss 0
Core_0_ITLB_demand_MPKI 0
Core_0_ITLB_demand_miss_rate 0
Core_0_ITLB_load_access 14584793
Core_0_ITLB_load_hit 14584793
Core_0_ITLB_load_miss 0
Core_0_ITLB_load_MPKI 0
Core_0_ITLB_load_miss_rate 0
Core_0_ITLB_rfo_access 0
Core_0_ITLB_rfo_hit 0
Core_0_ITLB_rfo_miss 0
Core_0_ITLB_rfo_MPKI 0
Core_0_ITLB_rfo_miss_rate 0
Core_0_ITLB_prefetch_access 0
Core_0_ITLB_prefetch_hit 0
Core_0_ITLB_prefetch_miss 0
Core_0_ITLB_prefetch_MPKI 0
Core_0_ITLB_prefetch_miss_rate 0
Core_0_ITLB_writeback_access 0
Core_0_ITLB_writeback_hit 0
Core_0_ITLB_writeback_miss 0
Core_0_ITLB_writeback_MPKI 0
Core_0_ITLB_writeback_miss_rate 0
Core_0_ITLB_prefetch_requested 0
Core_0_ITLB_prefetch_issued 0
Core_0_ITLB_prefetch_useful 0
Core_0_ITLB_prefetch_useless 0
Core_0_ITLB_prefetch_late 0
Core_0_ITLB_prefetch_fill 0
Core_0_ITLB_prefetch_too_early 0
Core_0_ITLB_prefetch_too_early_among_fill 0
Core_0_ITLB_prefetch_too_early_among_useless 0
Core_0_ITLB_prefetch_pollution_evict 0
Core_0_ITLB_prefetch_pollution_demand 0
Core_0_ITLB_prefetch_pollution_among_prefetch_fill 0
Core_0_ITLB_prefetch_accuracy 0
Core_0_ITLB_prefetch_coverage 0

Core_0_DTLB_total_access 57826950
Core_0_DTLB_total_hit 40227973
Core_0_DTLB_total_miss 17598977
Core_0_DTLB_total_MPKI 175.99
Core_0_DTLB_total_miss_rate 0.304339
Core_0_DTLB_demand_access 57826950
Core_0_DTLB_demand_hit 40227973
Core_0_DTLB_demand_miss 17598977
Core_0_DTLB_demand_MPKI 175.99
Core_0_DTLB_demand_miss_rate 0.304339
Core_0_DTLB_load_access 57826950
Core_0_DTLB_load_hit 40227973
Core_0_DTLB_load_miss 17598977
Core_0_DTLB_load_MPKI 175.99
Core_0_DTLB_load_miss_rate 0.304339
Core_0_DTLB_rfo_access 0
Core_0_DTLB_rfo_hit 0
Core_0_DTLB_rfo_miss 0
Core_0_DTLB_rfo_MPKI 0
Core_0_DTLB_rfo_miss_rate 0
Core_0_DTLB_prefetch_access 0
Core_0_DTLB_prefetch_hit 0
Core_0_DTLB_prefetch_miss 0
Core_0_DTLB_prefetch_MPKI 0
Core_0_DTLB_prefetch_miss_rate 0
Core_0_DTLB_writeback_access 0
Core_0_DTLB_writeback_hit 0
Core_0_DTLB_writeback_miss 0
Core_0_DTLB_writeback_MPKI 0
Core_0_DTLB_writeback_miss_rate 0
Core_0_DTLB_prefetch_requested 0
Core_0_DTLB_prefetch_issued 0
Core_0_DTLB_prefetch_useful 0
Core_0_DTLB_prefetch_useless 0
Core_0_DTLB_prefetch_late 0
Core_0_DTLB_prefetch_fill 0
Core_0_DTLB_prefetch_too_early 0
Core_0_DTLB_prefetch_too_early_among_fill 0
Core_0_DTLB_prefetch_too_early_among_useless 0
Core_0_DTLB_prefetch_pollution_evict 0
Core_0_DTLB_prefetch_pollution_demand 0
Core_0_DTLB_prefetch_pollution_among_prefetch_fill 0
Core_0_DTLB_prefetch_accuracy 0
Core_0_DTLB_prefetch_coverage 0

Core_0_STLB_total_access 17560037
Core_0_STLB_total_hit 277850
Core_0_STLB_total_miss 17282187
Core_0_STLB_total_MPKI 172.822
Core_0_STLB_total_miss_rate 0.984177
Core_0_STLB_demand_access 17560037
Core_0_STLB_demand_hit 277850
Core_0_STLB_demand_miss 17282187
Core_0_STLB_demand_MPKI 172.822
Core_0_STLB_demand_miss_rate 0.984177
Core_0_STLB_load_access 17560037
Core_0_STLB_load_hit 277850
Core_0_STLB_load_miss 17282187
Core_0_STLB_load_MPKI 172.822
Core_0_STLB_load_miss_rate 0.984177
Core_0_STLB_rfo_access 0
Core_0_STLB_rfo_hit 0
Core_0_STLB_rfo_miss 0
Core_0_STLB_rfo_MPKI 0
Core_0_STLB_rfo_miss_rate 0
Core_0_STLB_prefetch_access 0
Core_0_STLB_prefetch_hit 0
Core_0_STLB_prefetch_miss 0
Core_0_STLB_prefetch_MPKI 0
Core_0_STLB_prefetch_miss_rate 0
Core_0_STLB_writeback_access 0
Core_0_STLB_writeback_hit 0
Core_0_STLB_writeback_miss 0
Core_0_STLB_writeback_MPKI 0
Core_0_STLB_writeback_miss_rate 0
Core_0_STLB_prefetch_requested 0
Core_0_STLB_prefetch_issued 0
Core_0_STLB_prefetch_useful 0
Core_0_STLB_prefetch_useless 0
Core_0_STLB_prefetch_late 0
Core_0_STLB_prefetch_fill 0
Core_0_STLB_prefetch_too_early 0
Core_0_STLB_prefetch_too_early_among_fill 0
Core_0_STLB_prefetch_too_early_among_useless 0
Core_0_STLB_prefetch_pollution_evict 0
Core_0_STLB_prefetch_pollution_demand 0
Core_0_STLB_prefetch_pollution_among_prefetch_fill 0
Core_0_STLB_prefetch_accuracy 0
Core_0_STLB_prefetch_coverage 0

Core_0_L1I_total_access 14584795
Core_0_L1I_total_hit 14584795
Core_0_L1I_total_miss 0
Core_0_L1I_total_MPKI 0
Core_0_L1I_total_miss_rate 0
Core_0_L1I_demand_access 14584795
Core_0_L1I_demand_hit 14584795
Core_0_L1I_demand_miss 0
Core_0_L1I_demand_MPKI 0
Core_0_L1I_demand_miss_rate 0
Core_0_L1I_load_access 14584795
Core_0_L1I_load_hit 14584795
Core_0_L1I_load_miss 0
Core_0_L1I_load_MPKI 0
Core_0_L1I_load_miss_rate 0
Core_0_L1I_rfo_access 0
Core_0_L1I_rfo_hit 0
Core_0_L1I_rfo_miss 0
Core_0_L1I_rfo_MPKI 0
Core_0_L1I_rfo_miss_rate 0
Core_0_L1I_prefetch_access 0
Core_0_L1I_prefetch_hit 0
Core_0_L1I_prefetch_miss 0
Core_0_L1I_prefetch_MPKI 0
Core_0_L1I_prefetch_miss_rate 0
Core_0_L1I_writeback_access 0
Core_0_L1I_writeback_hit 0
Core_0_L1I_writeback_miss 0
Core_0_L1I_writeback_MPKI 0
Core_0_L1I_writeback_miss_rate 0
Core_0_L1I_prefetch_requested 0
Core_0_L1I_prefetch_issued 0
Core_0_L1I_prefetch_useful 0
Core_0_L1I_prefetch_useless 0
Core_0_L1I_prefetch_late 0
Core_0_L1I_prefetch_fill 0
Core_0_L1I_prefetch_too_early 0
Core_0_L1I_prefetch_too_early_among_fill 0
Core_0_L1I_prefetch_too_early_among_useless 0
Core_0_L1I_prefetch_pollution_evict 0
Core_0_L1I_prefetch_pollution_demand 0
Core_0_L1I_prefetch_pollution_among_prefetch_fill 0
Core_0_L1I_prefetch_accuracy 0
Core_0_L1I_prefetch_coverage 0

Core_0_L1D_total_access 60010887
Core_0_L1D_total_hit 38599587
Core_0_L1D_total_miss 21411300
Core_0_L1D_total_MPKI 214.113
Core_0_L1D_total_miss_rate 0.35679
Core_0_L1D_demand_access 37478230
Core_0_L1D_demand_hit 19383999
Core_0_L1D_demand_miss 18094231
Core_0_L1D_demand_MPKI 180.942
Core_0_L1D_demand_miss_rate 0.482793
Core_0_L1D_load_access 37478230
Core_0_L1D_load_hit 19383999
Core_0_L1D_load_miss 18094231
Core_0_L1D_load_MPKI 180.942
Core_0_L1D_load_miss_rate 0.482793
Core_0_L1D_rfo_access 0
Core_0_L1D_rfo_hit 0
Core_0_L1D_rfo_miss 0
Core_0_L1D_rfo_MPKI 0
Core_0_L1D_rfo_miss_rate 0
Core_0_L1D_prefetch_access 21865190
Core_0_L1D_prefetch_hit 18615433
Core_0_L1D_prefetch_miss 3249757
Core_0_L1D_prefetch_MPKI 32.4976
Core_0_L1D_prefetch_miss_rate 0.148627
Core_0_L1D_writeback_access 667467
Core_0_L1D_writeback_hit 600155
Core_0_L1D_writeback_miss 67312
Core_0_L1D_writeback_MPKI 0.67312
Core_0_L1D_writeback_miss_rate 0.100847
Core_0_L1D_prefetch_requested 23427949
Core_0_L1D_prefetch_issued 21865182
Core_0_L1D_prefetch_useful 1204675
Core_0_L1D_prefetch_useless 43383
Core_0_L1D_prefetch_late 4118
Core_0_L1D_prefetch_fill 1243955
Core_0_L1D_prefetch_too_early 2236
Core_0_L1D_prefetch_too_early_among_fill 0.00179749
Core_0_L1D_prefetch_too_early_among_useless 0.0515409
Core_0_L1D_prefetch_pollution_evict 22436
Core_0_L1D_prefetch_pollution_demand 22354
Core_0_L1D_prefetch_pollution_among_prefetch_fill 0.018036
Core_0_L1D_prefetch_accuracy 0.0550956
Core_0_L1D_prefetch_coverage 0.0624219

Core_0_L2C_total_access 24632224
Core_0_L2C_total_hit 5641014
Core_0_L2C_total_miss 18991210
Core_0_L2C_total_MPKI 189.912
Core_0_L2C_total_miss_rate 0.77099
Core_0_L2C_demand_access 18034569
Core_0_L2C_demand_hit 289031
Core_0_L2C_demand_miss 17745538
Core_0_L2C_demand_MPKI 177.455
Core_0_L2C_demand_miss_rate 0.983974
Core_0_L2C_load_access 18017832
Core_0_L2C_load_hit 274164
Core_0_L2C_load_miss 17743668
Core_0_L2C_load_MPKI 177.437
Core_0_L2C_load_miss_rate 0.984784
Core_0_L2C_rfo_access 16737
Core_0_L2C_rfo_hit 14867
Core_0_L2C_rfo_miss 1870
Core_0_L2C_rfo_MPKI 0.0187
Core_0_L2C_rfo_miss_rate 0.111729
Core_0_L2C_prefetch_access 6529474
Core_0_L2C_prefetch_hit 5283808
Core_0_L2C_prefetch_miss 1245666
Core_0_L2C_prefetch_MPKI 12.4567
Core_0_L2C_prefetch_miss_rate 0.190776
Core_0_L2C_writeback_access 68181
Core_0_L2C_writeback_hit 68175
Core_0_L2C_writeback_miss 6
Core_0_L2C_writeback_MPKI 6e-05
Core_0_L2C_writeback_miss_rate 8.80011e-05
Core_0_L2C_prefetch_requested 3284118
Core_0_L2C_prefetch_issued 3284118
Core_0_L2C_prefetch_useful 970898
Core_0_L2C_prefetch_useless 2926
Core_0_L2C_prefetch_late 7
Core_0_L2C_prefetch_fill 1219619
Core_0_L2C_prefetch_too_early 523
Core_0_L2C_prefetch_too_early_among_fill 0.000428822
Core_0_L2C_prefetch_too_early_among_useless 0.178742
Core_0_L2C_prefetch_pollution_evict 119775
Core_0_L2C_prefetch_pollution_demand 119774
Core_0_L2C_prefetch_pollution_among_prefetch_fill 0.0982069
Core_0_L2C_prefetch_accuracy 0.295634
Core_0_L2C_prefetch_coverage 0.0518741

Core_0_LLC_total_access 19005005
Core_0_LLC_total_hit 1641689
Core_0_LLC_total_miss 17363316
Core_0_LLC_total_MPKI 173.633
Core_0_LLC_total_miss_rate 0.913618
Core_0_LLC_demand_access 17745501
Core_0_LLC_demand_hit 1629066
Core_0_LLC_demand_miss 16116435
Core_0_LLC_demand_MPKI 161.164
Core_0_LLC_demand_miss_rate 0.908198
Core_0_LLC_load_access 17743631
Core_0_LLC_load_hit 1627203
Core_0_LLC_load_miss 16116428
Core_0_LLC_load_MPKI 161.164
Core_0_LLC_load_miss_rate 0.908294
Core_0_LLC_rfo_access 1870
Core_0_LLC_rfo_hit 1863
Core_0_LLC_rfo_miss 7
Core_0_LLC_rfo_MPKI 7e-05
Core_0_LLC_rfo_miss_rate 0.00374332
Core_0_LLC_prefetch_access 1219661
Core_0_LLC_prefetch_hit 1121
Core_0_LLC_prefetch_miss 1218540
Core_0_LLC_prefetch_MPKI 12.1854
Core_0_LLC_prefetch_miss_rate 0.999081
Core_0_LLC_writeback_access 39843
Core_0_LLC_writeback_hit 11502
Core_0_LLC_writeback_miss 28341
Core_0_LLC_writeback_MPKI 0.28341
Core_0_LLC_writeback_miss_rate 0.711317
Core_0_LLC_prefetch_requested 0
Core_0_LLC_prefetch_issued 0
Core_0_LLC_prefetch_useful 0
Core_0_LLC_prefetch_useless 0
Core_0_LLC_prefetch_late 0
Core_0_LLC_prefetch_fill 1218539
Core_0_LLC_prefetch_too_early 0
Core_0_LLC_prefetch_too_early_among_fill 0
Core_0_LLC_prefetch_too_early_among_useless 0
Core_0_LLC_prefetch_pollution_evict 322375
Core_0_LLC_prefetch_pollution_demand 322375
Core_0_LLC_prefetch_pollution_among_prefetch_fill 0.264559
Core_0_LLC_prefetch_accuracy 0
Core_0_LLC_prefetch_coverage 0

[DRAM Statistics]
Channel_0_RQ_row_buffer_hit 8105
Channel_0_RQ_row_buffer_miss 17702248
Channel_0_WQ_row_buffer_hit 5185
Channel_0_WQ_row_buffer_miss 31419
Channel_0_WQ_full 0
Channel_0_dbus_congested 2548770
DRAM_total_RQ_row_buffer_hit 8105
DRAM_total_RQ_row_buffer_miss 17702248
DRAM_total_WQ_row_buffer_hit 5185
DRAM_total_WQ_row_buffer_miss 31419
DRAM_total_WQ_full 0
DRAM_total_dbus_congested 2548770
DRAM_avg_congested_cycle 14.5104

====== DRAM_RQ_TRAFFIC ========
DRAM_RQ_READ_TRAFFIC_BREAKDOWN:
data_demand_read.count = 16116435
data_demand_read.share = 91.00%

inst_demand_read.count = 0
inst_demand_read.share = 0.00%

cache_inst_prefetch.count = 0
cache_inst_prefetch.share = 0.00%

cache_data_prefetch.count = 1218539
cache_data_prefetch.share = 6.88%

stlb_data_demand.count = 375379
stlb_data_demand.share = 2.12%

stlb_inst_demand.count = 0
stlb_inst_demand.share = 0.00%

stlb_l1i_pref.count = 0
stlb_l1i_pref.share = 0.00%

stlb_l1d_pref.count = 0
stlb_l1d_pref.share = 0.00%

DRAM_RQ_READ_TRAFFIC_SUMMARY:
cache_demand.count = 16116435
cache_demand.share = 91.00%

cache_prefetch.count = 1218539
cache_prefetch.share = 6.88%

stlb_demand.count = 375379
stlb_demand.share = 2.12%

stlb_prefetch.count = 0
stlb_prefetch.share = 0.00%

DRAM_RQ_READ_TRAFFIC_DEBUG:
total_classified_read.count = 17710353
unclassified_read.count = 0
total_read_with_other.count = 17710353

classified_plus_unclassified_check.count = 17710353
dram_rq_read_total_observed.count = 17710353
dram_rq_read_total_observed.per_1K_instructions = 177.104

STLB_MISS_PTW_DRAM_TOUCH_BREAKDOWN:
stlb_miss_total.count = 17282187

stlb_miss_touch_dram.count = 375355
stlb_miss_touch_dram.share = 2.17%

stlb_miss_no_dram_touch.count = 16906832
stlb_miss_no_dram_touch.share = 97.83%

STLB_MISS_PTW_DRAM_TOUCH_DEBUG:
stlb_miss_touch_plus_no_touch.count = 17282187
stlb_miss_total_check.count = 17282187

======STLB miss causes ========
Core_0_STLB_miss_cause_breakdown
Core_0_STLB_cause_Demand_Data_miss 17282184
Core_0_STLB_cause_Demand_Data_miss_rate 0.984177
Core_0_STLB_cause_Demand_Instruction_miss 0
Core_0_STLB_cause_Demand_Instruction_miss_rate 0
Core_0_STLB_cause_L1D_Prefetch_miss 3
Core_0_STLB_cause_L1D_Prefetch_miss_rate 1.70842e-07
Core_0_STLB_cause_L1D_Prefetch_Same_Page_miss 3
Core_0_STLB_cause_L1D_Prefetch_Same_Page_miss_rate 1.70842e-07
Core_0_STLB_cause_L1D_Prefetch_Cross_Page_miss 0
Core_0_STLB_cause_L1D_Prefetch_Cross_Page_miss_rate 0
Core_0_STLB_cause_L1I_Prefetch_miss 0
Core_0_STLB_cause_L1I_Prefetch_miss_rate 0
Core_0_STLB_cause_Other_miss 0
Core_0_STLB_cause_Other_miss_rate 0
Core_0_STLB_Demand_miss 17282184
Core_0_STLB_Demand_miss_rate 0.984177
Core_0_STLB_L1D_Prefetch_miss 3
Core_0_STLB_L1D_Prefetch_miss_rate 1.70842e-07
Core_0_STLB_Other_miss 0
Core_0_STLB_Other_miss_rate 0

========== vBerti-TLB Cross-page Flow Stats ==========

Core_0_vBerti_Requested 23427949
Core_0_vBerti_Cross_page_prefetch_in_Requested 0
Core_0_vBerti_Same_page_prefetch_in_Requested 23427949
Core_0_vBerti_Cross_page_prefetch_of_Requested 0
Core_0_vBerti_Issued 21865182
Core_0_vBerti_InPQ_Same_page_prefetch 21865182
Core_0_vBerti_InPQ_Cross_page_prefetch 0
Core_0_vBerti_PQ_Drop_Rate 0.0667052
Core_0_vBerti_InPQ_Cross_page_prefetch_of_Requested 0
Core_0_vBerti_Cross_page_PQ_Drop_rate 0
Core_0_vBerti_Cross_page_prefetch_of_Issued 0
Core_0_CP_PF_PQFULL_drop 0
Core_0_CP_PF_PQFULL_TLB_rescue_enqueued 0
Core_0_CP_PF_PQFULL_TLB_rescue_issued 0
Core_0_CP_PF_PQFULL_TLB_rescue_translated 0

========= DTLB_vBerti Prefetch Stats =========
Core_0_DTLB_demand_access 38035071
Core_0_DTLB_demand_hit 20436100
Core_0_DTLB_demand_miss 17598971
Core_0_DTLB_demand_mshr_merge 38937
Core_0_DTLB_demand_fill 17560042
Core_0_DTLB_demand_miss_rate 0.462704
Core_0_DTLB_demand_mpki 175.99
Core_0_DTLB_vberti_prefetch_access 19791879
Core_0_DTLB_vberti_prefetch_hit 19791873
Core_0_DTLB_vberti_prefetch_miss 6
Core_0_DTLB_vberti_prefetch_mshr_merge 3
Core_0_DTLB_vberti_prefetch_fill 3
Core_0_DTLB_vberti_prefetch_miss_rate 3.03155e-07
Core_0_DTLB_vberti_prefetch_mpki 6e-05

=== DTLB_vBerti Same/Cross-page Prefetch Stats ===
Core_0_DTLB_vberti_same_page_prefetch 19791879
Core_0_DTLB_vberti_same_page_prefetch_hit 19791873
Core_0_DTLB_vberti_same_page_prefetch_miss 6
Core_0_DTLB_vberti_same_page_prefetch_mshr_merge 3
Core_0_DTLB_vberti_same_page_prefetch_fill 3
Core_0_DTLB_vberti_same_page_prefetch_miss_rate 3.03155e-07
Core_0_DTLB_vberti_same_page_prefetch_mpki 6e-05
Core_0_DTLB_vberti_cross_page_prefetch 0
Core_0_DTLB_vberti_cross_page_prefetch_hit 0
Core_0_DTLB_vberti_cross_page_prefetch_miss 0
Core_0_DTLB_vberti_cross_page_prefetch_mshr_merge 0
Core_0_DTLB_vberti_cross_page_prefetch_fill 0
Core_0_DTLB_vberti_cross_page_prefetch_miss_rate 0
Core_0_DTLB_vberti_cross_page_prefetch_mpki 0
Core_0_DTLB_same_page_prefetch_miss_rate 3.03155e-07
Core_0_DTLB_same_page_prefetch_mpki 6e-05
Core_0_DTLB_cross_page_prefetch_miss_rate 0
Core_0_DTLB_cross_page_prefetch_mpki 0
Core_0_DTLB_cross_page_prefetch_issued 0
Core_0_DTLB_cross_page_prefetch_lookups 0
Core_0_DTLB_cross_page_prefetch_useful 0
Core_0_DTLB_cross_page_prefetch_useless 0
Core_0_DTLB_cross_page_prefetch_late 0
Core_0_DTLB_cross_page_prefetch_too_early 0
Core_0_DTLB_cross_page_prefetch_too_early_among_fill 0
Core_0_DTLB_cross_page_prefetch_too_early_among_useless 0
Core_0_DTLB_cross_page_prefetch_pollution_evict 0
Core_0_DTLB_cross_page_prefetch_pollution_demand 0
Core_0_DTLB_cross_page_prefetch_pollution_among_prefetch_fill 0
Core_0_DTLB_cross_page_prefetch_accuracy 0
Core_0_DTLB_cross_page_prefetch_coverage 0

========= STLB_vBerti Prefetch Stats =========
Core_0_STLB_demand_access 17560034
Core_0_STLB_demand_hit 277850
Core_0_STLB_demand_miss 17282184
Core_0_STLB_demand_mshr_merge 0
Core_0_STLB_demand_fill 17282192
Core_0_STLB_demand_miss_rate 0.984177
Core_0_STLB_demand_mpki 172.822
Core_0_STLB_vberti_prefetch_access 3
Core_0_STLB_vberti_prefetch_hit 0
Core_0_STLB_vberti_prefetch_miss 3
Core_0_STLB_vberti_prefetch_mshr_merge 0
Core_0_STLB_vberti_prefetch_fill 3
Core_0_STLB_vberti_prefetch_miss_rate 1
Core_0_STLB_vberti_prefetch_mpki 3e-05

=== STLB_vBerti Same/Cross-page Prefetch Stats ===
Core_0_STLB_vberti_same_page_prefetch 3
Core_0_STLB_vberti_same_page_prefetch_hit 0
Core_0_STLB_vberti_same_page_prefetch_miss 3
Core_0_STLB_vberti_same_page_prefetch_mshr_merge 0
Core_0_STLB_vberti_same_page_prefetch_fill 3
Core_0_STLB_vberti_same_page_prefetch_miss_rate 1
Core_0_STLB_vberti_same_page_prefetch_mpki 3e-05
Core_0_STLB_vberti_cross_page_prefetch 0
Core_0_STLB_vberti_cross_page_prefetch_hit 0
Core_0_STLB_vberti_cross_page_prefetch_miss 0
Core_0_STLB_vberti_cross_page_prefetch_mshr_merge 0
Core_0_STLB_vberti_cross_page_prefetch_fill 0
Core_0_STLB_vberti_cross_page_prefetch_miss_rate 0
Core_0_STLB_vberti_cross_page_prefetch_mpki 0
Core_0_STLB_same_page_prefetch_miss_rate 1
Core_0_STLB_same_page_prefetch_mpki 3e-05
Core_0_STLB_cross_page_prefetch_miss_rate 0
Core_0_STLB_cross_page_prefetch_mpki 0
Core_0_STLB_cross_page_prefetch_issued 0
Core_0_STLB_cross_page_prefetch_lookups 0
Core_0_STLB_cross_page_prefetch_useful 0
Core_0_STLB_cross_page_prefetch_useless 0
Core_0_STLB_cross_page_prefetch_late 0
Core_0_STLB_cross_page_prefetch_too_early 0
Core_0_STLB_cross_page_prefetch_too_early_among_fill 0
Core_0_STLB_cross_page_prefetch_too_early_among_useless 0
Core_0_STLB_cross_page_prefetch_pollution_evict 0
Core_0_STLB_cross_page_prefetch_pollution_demand 0
Core_0_STLB_cross_page_prefetch_pollution_among_prefetch_fill 0
Core_0_STLB_cross_page_prefetch_accuracy 0
Core_0_STLB_cross_page_prefetch_coverage 0

========= STLB Cross-page Prefetch Buffer Stats =========
Core_0_STLB_raw_demand_miss 17282184
Core_0_CP_PB_insert 0
Core_0_CP_PB_demand_hit 0
Core_0_STLB_PB_demand_miss 17282184
Core_0_CP_PB_coverage 0
Core_0_STLB_raw_demand_mpki 172.822
Core_0_STLB_PB_demand_mpki 172.822
Core_0_CP_PB_demand_hit_mpki 0

Core_0_TLB_demand_miss_rate 0.454375
Core_0_TLB_demand_mpki 172.822
Core_0_TLB_same_page_prefetch_miss_rate 1.51577e-07
Core_0_TLB_same_page_prefetch_mpki 3e-05
Core_0_TLB_cross_page_prefetch_miss_rate 0
Core_0_TLB_cross_page_prefetch_mpki 0
Core_0_TLB_cross_page_prefetch_issued 0
Core_0_TLB_cross_page_prefetch_lookups 0
Core_0_TLB_cross_page_prefetch_useful 0
Core_0_TLB_cross_page_prefetch_useless 0
Core_0_TLB_cross_page_prefetch_late 0
Core_0_TLB_cross_page_prefetch_too_early 0
Core_0_TLB_cross_page_prefetch_too_early_among_fill 0
Core_0_TLB_cross_page_prefetch_too_early_among_useless 0
Core_0_TLB_cross_page_prefetch_accuracy 0
Core_0_TLB_cross_page_prefetch_coverage 0
====== vBerti internal metric ========
BERTI TO_L1: 19394911 TO_L2: 4033038 TO_L2_BC_MSHR: 120
BERTI AVG_LAT: 159.626 NUM_TRACK_LATENCY: 19230206 NUM_CANT_TRACK_LATENCY: 0
BERTI CROSS_PAGE 890673 NO_CROSS_PAGE: 23427949
BERTI FOUND_BERTI: 37109584 NO_FOUND_BERTI: 1036603
BERTI AVERAGE_ISSUED: 1.19578
