[VMEM] WARNING: physical memory size is smaller than virtual memory size.

*** ChampSim Multicore Out-of-Order Simulator ***
Warmup Instructions: 50000000
Simulation Instructions: 100000000
Number of CPUs: 1
Page size: 4096
Core 0: /data2/zcq/champsim_traces_gap/sssp.twitter-900B.champsimtrace.xz
VBerti Prefetcher
No Crossing Page
BERTI HASH ENTANGLING
BERTI IP MASK ffff
Off-chip DRAM Size: 16 GiB Channels: 1 Width: 64-bit Data Rate: 3205 MT/s
Warmup halting CPU 0 at instruction 50000001 cycle 22843684 for remainder of phase
Warmup finished CPU 0 instructions: 50000001 cycles: 22843684 cumulative IPC: 2.189 (Simulation time: 00 hr 05 min 07 sec)
Warmup complete CPU 0 instructions: 50000001 cycles: 22843684 cumulative IPC: 2.189 (Simulation time: 00 hr 05 min 07 sec)
Simulation finished CPU 0 instructions: 100000000 cycles: 302552340 cumulative IPC: 0.3305 (Simulation time: 00 hr 37 min 18 sec)
Simulation complete CPU 0 instructions: 100000000 cycles: 302552340 cumulative IPC: 0.3305 (Simulation time: 00 hr 37 min 18 sec)

ChampSim completed all CPUs

=== Simulation ===
CPU 0 runs /data2/zcq/champsim_traces_gap/sssp.twitter-900B.champsimtrace.xz

Region of Interest Statistics

CPU 0 cumulative IPC: 0.3305 instructions: 100000000 cycles: 302552340
CPU 0 Branch Prediction Accuracy: 98.01% MPKI: 3.007 Average ROB Occupancy at Mispredict: 130.7
Branch type MPKI
BRANCH_DIRECT_JUMP: 4e-05
BRANCH_INDIRECT: 0
BRANCH_CONDITIONAL: 3.007
BRANCH_DIRECT_CALL: 3e-05
BRANCH_INDIRECT_CALL: 1e-05
BRANCH_RETURN: 4e-05

cpu0->cpu0_STLB TOTAL        ACCESS:    7004705 HIT:     597947 MISS:    6406758 MSHR_MERGE:          0
cpu0->cpu0_STLB LOAD         ACCESS:    7004705 HIT:     597947 MISS:    6406758 MSHR_MERGE:          0
cpu0->cpu0_STLB RFO          ACCESS:          0 HIT:          0 MISS:          0 MSHR_MERGE:          0
cpu0->cpu0_STLB PREFETCH     ACCESS:          0 HIT:          0 MISS:          0 MSHR_MERGE:          0
cpu0->cpu0_STLB WRITE        ACCESS:          0 HIT:          0 MISS:          0 MSHR_MERGE:          0
cpu0->cpu0_STLB TRANSLATION  ACCESS:          0 HIT:          0 MISS:          0 MSHR_MERGE:          0
cpu0->cpu0_STLB PREFETCH REQUESTED:          0 ISSUED:          0 USEFUL:          0 USELESS:          0 LATE:          0 TOO_EARLY:          0
cpu0->cpu0_STLB AVERAGE MISS LATENCY: 37.13 cycles
cpu0->cpu0_L2C TOTAL        ACCESS:   18278392 HIT:    6312552 MISS:   11965840 MSHR_MERGE:     981784
cpu0->cpu0_L2C LOAD         ACCESS:    7198522 HIT:     486206 MISS:    6712316 MSHR_MERGE:        847
cpu0->cpu0_L2C RFO          ACCESS:     199191 HIT:     125874 MISS:      73317 MSHR_MERGE:          0
cpu0->cpu0_L2C PREFETCH     ACCESS:    4517863 HIT:    2386220 MISS:    2131643 MSHR_MERGE:     980937
cpu0->cpu0_L2C WRITE        ACCESS:     634884 HIT:     634038 MISS:        846 MSHR_MERGE:          0
cpu0->cpu0_L2C TRANSLATION  ACCESS:    5727932 HIT:    2680214 MISS:    3047718 MSHR_MERGE:          0
cpu0->cpu0_L2C PREFETCH REQUESTED:    2312876 ISSUED:    2308796 USEFUL:     641518 USELESS:     105497 LATE:        367 TOO_EARLY:        654
cpu0->cpu0_L2C AVERAGE MISS LATENCY: 167.8 cycles
cpu0->cpu0_L1I TOTAL        ACCESS:   10292737 HIT:   10292716 MISS:         21 MSHR_MERGE:          3
cpu0->cpu0_L1I LOAD         ACCESS:   10292737 HIT:   10292716 MISS:         21 MSHR_MERGE:          3
cpu0->cpu0_L1I RFO          ACCESS:          0 HIT:          0 MISS:          0 MSHR_MERGE:          0
cpu0->cpu0_L1I PREFETCH     ACCESS:          0 HIT:          0 MISS:          0 MSHR_MERGE:          0
cpu0->cpu0_L1I WRITE        ACCESS:          0 HIT:          0 MISS:          0 MSHR_MERGE:          0
cpu0->cpu0_L1I TRANSLATION  ACCESS:          0 HIT:          0 MISS:          0 MSHR_MERGE:          0
cpu0->cpu0_L1I PREFETCH REQUESTED:          0 ISSUED:          0 USEFUL:          0 USELESS:          0 LATE:          0 TOO_EARLY:          0
cpu0->cpu0_L1I AVERAGE MISS LATENCY: 269.1 cycles
cpu0->cpu0_L1D TOTAL        ACCESS:   75113434 HIT:   58694179 MISS:   16419255 MSHR_MERGE:    1075913
cpu0->cpu0_L1D LOAD         ACCESS:   32329146 HIT:   24579038 MISS:    7750108 MSHR_MERGE:     551604
cpu0->cpu0_L1D RFO          ACCESS:          0 HIT:          0 MISS:          0 MSHR_MERGE:          0
cpu0->cpu0_L1D PREFETCH     ACCESS:   26410834 HIT:   24152000 MISS:    2258834 MSHR_MERGE:      41120
cpu0->cpu0_L1D WRITE        ACCESS:    2978020 HIT:    2753867 MISS:     224153 MSHR_MERGE:      24960
cpu0->cpu0_L1D TRANSLATION  ACCESS:   13395434 HIT:    7209274 MISS:    6186160 MSHR_MERGE:     458229
cpu0->cpu0_L1D PREFETCH REQUESTED:   91506797 ISSUED:   26410826 USEFUL:     869234 USELESS:     130153 LATE:       5809 TOO_EARLY:        561
cpu0->cpu0_L1D AVERAGE MISS LATENCY: 134.6 cycles
cpu0->cpu0_ITLB TOTAL        ACCESS:   10290060 HIT:   10290058 MISS:          2 MSHR_MERGE:          0
cpu0->cpu0_ITLB LOAD         ACCESS:   10290060 HIT:   10290058 MISS:          2 MSHR_MERGE:          0
cpu0->cpu0_ITLB RFO          ACCESS:          0 HIT:          0 MISS:          0 MSHR_MERGE:          0
cpu0->cpu0_ITLB PREFETCH     ACCESS:          0 HIT:          0 MISS:          0 MSHR_MERGE:          0
cpu0->cpu0_ITLB WRITE        ACCESS:          0 HIT:          0 MISS:          0 MSHR_MERGE:          0
cpu0->cpu0_ITLB TRANSLATION  ACCESS:          0 HIT:          0 MISS:          0 MSHR_MERGE:          0
cpu0->cpu0_ITLB PREFETCH REQUESTED:          0 ISSUED:          0 USEFUL:          0 USELESS:          0 LATE:          0 TOO_EARLY:          0
cpu0->cpu0_ITLB AVERAGE MISS LATENCY: 445.5 cycles
cpu0->cpu0_DTLB TOTAL        ACCESS:   50535144 HIT:   42817246 MISS:    7717898 MSHR_MERGE:     713195
cpu0->cpu0_DTLB LOAD         ACCESS:   50535144 HIT:   42817246 MISS:    7717898 MSHR_MERGE:     713195
cpu0->cpu0_DTLB RFO          ACCESS:          0 HIT:          0 MISS:          0 MSHR_MERGE:          0
cpu0->cpu0_DTLB PREFETCH     ACCESS:          0 HIT:          0 MISS:          0 MSHR_MERGE:          0
cpu0->cpu0_DTLB WRITE        ACCESS:          0 HIT:          0 MISS:          0 MSHR_MERGE:          0
cpu0->cpu0_DTLB TRANSLATION  ACCESS:          0 HIT:          0 MISS:          0 MSHR_MERGE:          0
cpu0->cpu0_DTLB PREFETCH REQUESTED:          0 ISSUED:          0 USEFUL:          0 USELESS:          0 LATE:          0 TOO_EARLY:          0
cpu0->cpu0_DTLB AVERAGE MISS LATENCY: 39.9 cycles
cpu0->LLC TOTAL        ACCESS:   11384497 HIT:    3944694 MISS:    7439803 MSHR_MERGE:      44891
cpu0->LLC LOAD         ACCESS:    6711469 HIT:     792495 MISS:    5918974 MSHR_MERGE:         75
cpu0->LLC RFO          ACCESS:      73317 HIT:      54281 MISS:      19036 MSHR_MERGE:          0
cpu0->LLC PREFETCH     ACCESS:    1150705 HIT:      34842 MISS:    1115863 MSHR_MERGE:      44816
cpu0->LLC WRITE        ACCESS:     401288 HIT:     156401 MISS:     244887 MSHR_MERGE:          0
cpu0->LLC TRANSLATION  ACCESS:    3047718 HIT:    2906675 MISS:     141043 MSHR_MERGE:          0
cpu0->LLC PREFETCH REQUESTED:          0 ISSUED:          0 USEFUL:          0 USELESS:          0 LATE:          0 TOO_EARLY:          0
cpu0->LLC AVERAGE MISS LATENCY: 237 cycles

DRAM Statistics

Channel 0 RQ ROW_BUFFER_HIT:       9479
  ROW_BUFFER_MISS:    7140438
  AVG DBUS CONGESTED CYCLE: 6.67
Channel 0 WQ ROW_BUFFER_HIT:      90082
  ROW_BUFFER_MISS:     233686
  FULL:          0
Channel 0 REFRESHES ISSUED:      25213

[ROI Statistics]
[System Configuration]
num_cpus 1
cpu_freq 4000
fetch_width 6
decode_width 6
dispatch_width 6
execute_width 6
lq_width 2
sq_width 2
retire_width 6
scheduler_size 128
branch_mispredict_penalty 15
rob_size 352
lq_size 128
sq_size 72
ifetch_buffer_size 64
decode_buffer_size 32
dispatch_buffer_size 32
register_file_size 288
decode_latency 1
dispatch_latency 1
schedule_latency 1
execute_latency 1
page_size 4096
block_size 64
core_0_itlb_set 16
core_0_itlb_way 4
core_0_itlb_rq_size 16
core_0_itlb_wq_size 16
core_0_itlb_pq_size 0
core_0_itlb_mshr_size 8
core_0_itlb_hit_latency 1
core_0_itlb_fill_latency 1
core_0_itlb_max_tag_check 2
core_0_itlb_max_fill 2
core_0_dtlb_set 16
core_0_dtlb_way 4
core_0_dtlb_rq_size 16
core_0_dtlb_wq_size 16
core_0_dtlb_pq_size 0
core_0_dtlb_mshr_size 8
core_0_dtlb_hit_latency 1
core_0_dtlb_fill_latency 1
core_0_dtlb_max_tag_check 2
core_0_dtlb_max_fill 2
core_0_stlb_set 128
core_0_stlb_way 12
core_0_stlb_rq_size 32
core_0_stlb_wq_size 32
core_0_stlb_pq_size 0
core_0_stlb_mshr_size 16
core_0_stlb_hit_latency 4
core_0_stlb_fill_latency 4
core_0_stlb_max_tag_check 1
core_0_stlb_max_fill 1
core_0_l1i_set 64
core_0_l1i_way 8
core_0_l1i_rq_size 64
core_0_l1i_wq_size 64
core_0_l1i_pq_size 32
core_0_l1i_mshr_size 8
core_0_l1i_hit_latency 2
core_0_l1i_fill_latency 2
core_0_l1i_max_tag_check 2
core_0_l1i_max_fill 2
core_0_l1d_set 64
core_0_l1d_way 12
core_0_l1d_rq_size 64
core_0_l1d_wq_size 64
core_0_l1d_pq_size 8
core_0_l1d_mshr_size 16
core_0_l1d_hit_latency 2
core_0_l1d_fill_latency 3
core_0_l1d_max_tag_check 2
core_0_l1d_max_fill 2
core_0_l2c_set 1024
core_0_l2c_way 8
core_0_l2c_rq_size 32
core_0_l2c_wq_size 32
core_0_l2c_pq_size 16
core_0_l2c_mshr_size 32
core_0_l2c_hit_latency 5
core_0_l2c_fill_latency 5
core_0_l2c_max_tag_check 1
core_0_l2c_max_fill 1
llc_set 2048
llc_way 16
llc_rq_size 32
llc_wq_size 32
llc_pq_size 32
llc_mshr_size 64
llc_hit_latency 10
llc_fill_latency 10
llc_max_tag_check 1
llc_max_fill 1
dram_channels 1
dram_ranks 1
dram_bankgroups 8
dram_banks 4
dram_rows 65536
dram_columns 1024
dram_channel_width 8
dram_rq_size 64
dram_wq_size 64
dram_size 17179869184
core_0_itlb_prefetcher no
core_0_dtlb_prefetcher no
core_0_stlb_prefetcher no
core_0_l1i_prefetcher next_line
core_0_l1d_prefetcher vberti_nocross
core_0_l2c_prefetcher ip_stride
llc_prefetcher no
llc_replacement drrip

Core_0_instructions 100000000
Core_0_cycles 302552340
Core_0_IPC 0.330521
Core_0_branch_prediction_accuracy 98.0055
Core_0_branch_MPKI 3.00665
Core_0_average_ROB_occupancy_at_mispredict 130.735

Core_0_ITLB_total_access 10290060
Core_0_ITLB_total_hit 10290058
Core_0_ITLB_total_miss 2
Core_0_ITLB_total_MPKI 2e-05
Core_0_ITLB_total_miss_rate 1.94362e-07
Core_0_ITLB_demand_access 10290060
Core_0_ITLB_demand_hit 10290058
Core_0_ITLB_demand_miss 2
Core_0_ITLB_demand_MPKI 2e-05
Core_0_ITLB_demand_miss_rate 1.94362e-07
Core_0_ITLB_load_access 10290060
Core_0_ITLB_load_hit 10290058
Core_0_ITLB_load_miss 2
Core_0_ITLB_load_MPKI 2e-05
Core_0_ITLB_load_miss_rate 1.94362e-07
Core_0_ITLB_rfo_access 0
Core_0_ITLB_rfo_hit 0
Core_0_ITLB_rfo_miss 0
Core_0_ITLB_rfo_MPKI 0
Core_0_ITLB_rfo_miss_rate 0
Core_0_ITLB_prefetch_access 0
Core_0_ITLB_prefetch_hit 0
Core_0_ITLB_prefetch_miss 0
Core_0_ITLB_prefetch_MPKI 0
Core_0_ITLB_prefetch_miss_rate 0
Core_0_ITLB_writeback_access 0
Core_0_ITLB_writeback_hit 0
Core_0_ITLB_writeback_miss 0
Core_0_ITLB_writeback_MPKI 0
Core_0_ITLB_writeback_miss_rate 0
Core_0_ITLB_prefetch_requested 0
Core_0_ITLB_prefetch_issued 0
Core_0_ITLB_prefetch_useful 0
Core_0_ITLB_prefetch_useless 0
Core_0_ITLB_prefetch_late 0
Core_0_ITLB_prefetch_fill 0
Core_0_ITLB_prefetch_too_early 0
Core_0_ITLB_prefetch_too_early_among_fill 0
Core_0_ITLB_prefetch_too_early_among_useless 0
Core_0_ITLB_prefetch_pollution_evict 0
Core_0_ITLB_prefetch_pollution_demand 0
Core_0_ITLB_prefetch_pollution_among_prefetch_fill 0
Core_0_ITLB_prefetch_accuracy 0
Core_0_ITLB_prefetch_coverage 0

Core_0_DTLB_total_access 50535144
Core_0_DTLB_total_hit 42817246
Core_0_DTLB_total_miss 7717898
Core_0_DTLB_total_MPKI 77.179
Core_0_DTLB_total_miss_rate 0.152723
Core_0_DTLB_demand_access 50535144
Core_0_DTLB_demand_hit 42817246
Core_0_DTLB_demand_miss 7717898
Core_0_DTLB_demand_MPKI 77.179
Core_0_DTLB_demand_miss_rate 0.152723
Core_0_DTLB_load_access 50535144
Core_0_DTLB_load_hit 42817246
Core_0_DTLB_load_miss 7717898
Core_0_DTLB_load_MPKI 77.179
Core_0_DTLB_load_miss_rate 0.152723
Core_0_DTLB_rfo_access 0
Core_0_DTLB_rfo_hit 0
Core_0_DTLB_rfo_miss 0
Core_0_DTLB_rfo_MPKI 0
Core_0_DTLB_rfo_miss_rate 0
Core_0_DTLB_prefetch_access 0
Core_0_DTLB_prefetch_hit 0
Core_0_DTLB_prefetch_miss 0
Core_0_DTLB_prefetch_MPKI 0
Core_0_DTLB_prefetch_miss_rate 0
Core_0_DTLB_writeback_access 0
Core_0_DTLB_writeback_hit 0
Core_0_DTLB_writeback_miss 0
Core_0_DTLB_writeback_MPKI 0
Core_0_DTLB_writeback_miss_rate 0
Core_0_DTLB_prefetch_requested 0
Core_0_DTLB_prefetch_issued 0
Core_0_DTLB_prefetch_useful 0
Core_0_DTLB_prefetch_useless 0
Core_0_DTLB_prefetch_late 0
Core_0_DTLB_prefetch_fill 0
Core_0_DTLB_prefetch_too_early 0
Core_0_DTLB_prefetch_too_early_among_fill 0
Core_0_DTLB_prefetch_too_early_among_useless 0
Core_0_DTLB_prefetch_pollution_evict 0
Core_0_DTLB_prefetch_pollution_demand 0
Core_0_DTLB_prefetch_pollution_among_prefetch_fill 0
Core_0_DTLB_prefetch_accuracy 0
Core_0_DTLB_prefetch_coverage 0

Core_0_STLB_total_access 7004705
Core_0_STLB_total_hit 597947
Core_0_STLB_total_miss 6406758
Core_0_STLB_total_MPKI 64.0676
Core_0_STLB_total_miss_rate 0.914636
Core_0_STLB_demand_access 7004705
Core_0_STLB_demand_hit 597947
Core_0_STLB_demand_miss 6406758
Core_0_STLB_demand_MPKI 64.0676
Core_0_STLB_demand_miss_rate 0.914636
Core_0_STLB_load_access 7004705
Core_0_STLB_load_hit 597947
Core_0_STLB_load_miss 6406758
Core_0_STLB_load_MPKI 64.0676
Core_0_STLB_load_miss_rate 0.914636
Core_0_STLB_rfo_access 0
Core_0_STLB_rfo_hit 0
Core_0_STLB_rfo_miss 0
Core_0_STLB_rfo_MPKI 0
Core_0_STLB_rfo_miss_rate 0
Core_0_STLB_prefetch_access 0
Core_0_STLB_prefetch_hit 0
Core_0_STLB_prefetch_miss 0
Core_0_STLB_prefetch_MPKI 0
Core_0_STLB_prefetch_miss_rate 0
Core_0_STLB_writeback_access 0
Core_0_STLB_writeback_hit 0
Core_0_STLB_writeback_miss 0
Core_0_STLB_writeback_MPKI 0
Core_0_STLB_writeback_miss_rate 0
Core_0_STLB_prefetch_requested 0
Core_0_STLB_prefetch_issued 0
Core_0_STLB_prefetch_useful 0
Core_0_STLB_prefetch_useless 0
Core_0_STLB_prefetch_late 0
Core_0_STLB_prefetch_fill 0
Core_0_STLB_prefetch_too_early 0
Core_0_STLB_prefetch_too_early_among_fill 0
Core_0_STLB_prefetch_too_early_among_useless 0
Core_0_STLB_prefetch_pollution_evict 0
Core_0_STLB_prefetch_pollution_demand 0
Core_0_STLB_prefetch_pollution_among_prefetch_fill 0
Core_0_STLB_prefetch_accuracy 0
Core_0_STLB_prefetch_coverage 0

Core_0_L1I_total_access 10292737
Core_0_L1I_total_hit 10292716
Core_0_L1I_total_miss 21
Core_0_L1I_total_MPKI 0.00021
Core_0_L1I_total_miss_rate 2.04027e-06
Core_0_L1I_demand_access 10292737
Core_0_L1I_demand_hit 10292716
Core_0_L1I_demand_miss 21
Core_0_L1I_demand_MPKI 0.00021
Core_0_L1I_demand_miss_rate 2.04027e-06
Core_0_L1I_load_access 10292737
Core_0_L1I_load_hit 10292716
Core_0_L1I_load_miss 21
Core_0_L1I_load_MPKI 0.00021
Core_0_L1I_load_miss_rate 2.04027e-06
Core_0_L1I_rfo_access 0
Core_0_L1I_rfo_hit 0
Core_0_L1I_rfo_miss 0
Core_0_L1I_rfo_MPKI 0
Core_0_L1I_rfo_miss_rate 0
Core_0_L1I_prefetch_access 0
Core_0_L1I_prefetch_hit 0
Core_0_L1I_prefetch_miss 0
Core_0_L1I_prefetch_MPKI 0
Core_0_L1I_prefetch_miss_rate 0
Core_0_L1I_writeback_access 0
Core_0_L1I_writeback_hit 0
Core_0_L1I_writeback_miss 0
Core_0_L1I_writeback_MPKI 0
Core_0_L1I_writeback_miss_rate 0
Core_0_L1I_prefetch_requested 0
Core_0_L1I_prefetch_issued 0
Core_0_L1I_prefetch_useful 0
Core_0_L1I_prefetch_useless 0
Core_0_L1I_prefetch_late 0
Core_0_L1I_prefetch_fill 0
Core_0_L1I_prefetch_too_early 0
Core_0_L1I_prefetch_too_early_among_fill 0
Core_0_L1I_prefetch_too_early_among_useless 0
Core_0_L1I_prefetch_pollution_evict 0
Core_0_L1I_prefetch_pollution_demand 0
Core_0_L1I_prefetch_pollution_among_prefetch_fill 0
Core_0_L1I_prefetch_accuracy 0
Core_0_L1I_prefetch_coverage 0

Core_0_L1D_total_access 61718000
Core_0_L1D_total_hit 51484905
Core_0_L1D_total_miss 10233095
Core_0_L1D_total_MPKI 102.331
Core_0_L1D_total_miss_rate 0.165804
Core_0_L1D_demand_access 32329146
Core_0_L1D_demand_hit 24579038
Core_0_L1D_demand_miss 7750108
Core_0_L1D_demand_MPKI 77.5011
Core_0_L1D_demand_miss_rate 0.239725
Core_0_L1D_load_access 32329146
Core_0_L1D_load_hit 24579038
Core_0_L1D_load_miss 7750108
Core_0_L1D_load_MPKI 77.5011
Core_0_L1D_load_miss_rate 0.239725
Core_0_L1D_rfo_access 0
Core_0_L1D_rfo_hit 0
Core_0_L1D_rfo_miss 0
Core_0_L1D_rfo_MPKI 0
Core_0_L1D_rfo_miss_rate 0
Core_0_L1D_prefetch_access 26410834
Core_0_L1D_prefetch_hit 24152000
Core_0_L1D_prefetch_miss 2258834
Core_0_L1D_prefetch_MPKI 22.5883
Core_0_L1D_prefetch_miss_rate 0.0855268
Core_0_L1D_writeback_access 2978020
Core_0_L1D_writeback_hit 2753867
Core_0_L1D_writeback_miss 224153
Core_0_L1D_writeback_MPKI 2.24153
Core_0_L1D_writeback_miss_rate 0.0752691
Core_0_L1D_prefetch_requested 91506797
Core_0_L1D_prefetch_issued 26410826
Core_0_L1D_prefetch_useful 869234
Core_0_L1D_prefetch_useless 130153
Core_0_L1D_prefetch_late 5809
Core_0_L1D_prefetch_fill 993582
Core_0_L1D_prefetch_too_early 561
Core_0_L1D_prefetch_too_early_among_fill 0.000564624
Core_0_L1D_prefetch_too_early_among_useless 0.00431031
Core_0_L1D_prefetch_pollution_evict 35954
Core_0_L1D_prefetch_pollution_demand 35922
Core_0_L1D_prefetch_pollution_among_prefetch_fill 0.0361862
Core_0_L1D_prefetch_accuracy 0.032912
Core_0_L1D_prefetch_coverage 0.100847

Core_0_L2C_total_access 12550460
Core_0_L2C_total_hit 3632338
Core_0_L2C_total_miss 8918122
Core_0_L2C_total_MPKI 89.1812
Core_0_L2C_total_miss_rate 0.710581
Core_0_L2C_demand_access 7397713
Core_0_L2C_demand_hit 612080
Core_0_L2C_demand_miss 6785633
Core_0_L2C_demand_MPKI 67.8563
Core_0_L2C_demand_miss_rate 0.917261
Core_0_L2C_load_access 7198522
Core_0_L2C_load_hit 486206
Core_0_L2C_load_miss 6712316
Core_0_L2C_load_MPKI 67.1232
Core_0_L2C_load_miss_rate 0.932458
Core_0_L2C_rfo_access 199191
Core_0_L2C_rfo_hit 125874
Core_0_L2C_rfo_miss 73317
Core_0_L2C_rfo_MPKI 0.73317
Core_0_L2C_rfo_miss_rate 0.368074
Core_0_L2C_prefetch_access 4517863
Core_0_L2C_prefetch_hit 2386220
Core_0_L2C_prefetch_miss 2131643
Core_0_L2C_prefetch_MPKI 21.3164
Core_0_L2C_prefetch_miss_rate 0.471826
Core_0_L2C_writeback_access 634884
Core_0_L2C_writeback_hit 634038
Core_0_L2C_writeback_miss 846
Core_0_L2C_writeback_MPKI 0.00846
Core_0_L2C_writeback_miss_rate 0.00133253
Core_0_L2C_prefetch_requested 2312876
Core_0_L2C_prefetch_issued 2308796
Core_0_L2C_prefetch_useful 641518
Core_0_L2C_prefetch_useless 105497
Core_0_L2C_prefetch_late 367
Core_0_L2C_prefetch_fill 1074915
Core_0_L2C_prefetch_too_early 654
Core_0_L2C_prefetch_too_early_among_fill 0.00060842
Core_0_L2C_prefetch_too_early_among_useless 0.00619923
Core_0_L2C_prefetch_pollution_evict 111326
Core_0_L2C_prefetch_pollution_demand 111313
Core_0_L2C_prefetch_pollution_among_prefetch_fill 0.103567
Core_0_L2C_prefetch_accuracy 0.277858
Core_0_L2C_prefetch_coverage 0.0863747

Core_0_LLC_total_access 8336779
Core_0_LLC_total_hit 1038019
Core_0_LLC_total_miss 7298760
Core_0_LLC_total_MPKI 72.9876
Core_0_LLC_total_miss_rate 0.875489
Core_0_LLC_demand_access 6784786
Core_0_LLC_demand_hit 846776
Core_0_LLC_demand_miss 5938010
Core_0_LLC_demand_MPKI 59.3801
Core_0_LLC_demand_miss_rate 0.875195
Core_0_LLC_load_access 6711469
Core_0_LLC_load_hit 792495
Core_0_LLC_load_miss 5918974
Core_0_LLC_load_MPKI 59.1897
Core_0_LLC_load_miss_rate 0.881919
Core_0_LLC_rfo_access 73317
Core_0_LLC_rfo_hit 54281
Core_0_LLC_rfo_miss 19036
Core_0_LLC_rfo_MPKI 0.19036
Core_0_LLC_rfo_miss_rate 0.25964
Core_0_LLC_prefetch_access 1150705
Core_0_LLC_prefetch_hit 34842
Core_0_LLC_prefetch_miss 1115863
Core_0_LLC_prefetch_MPKI 11.1586
Core_0_LLC_prefetch_miss_rate 0.969721
Core_0_LLC_writeback_access 401288
Core_0_LLC_writeback_hit 156401
Core_0_LLC_writeback_miss 244887
Core_0_LLC_writeback_MPKI 2.44887
Core_0_LLC_writeback_miss_rate 0.610252
Core_0_LLC_prefetch_requested 0
Core_0_LLC_prefetch_issued 0
Core_0_LLC_prefetch_useful 0
Core_0_LLC_prefetch_useless 0
Core_0_LLC_prefetch_late 0
Core_0_LLC_prefetch_fill 1070972
Core_0_LLC_prefetch_too_early 0
Core_0_LLC_prefetch_too_early_among_fill 0
Core_0_LLC_prefetch_too_early_among_useless 0
Core_0_LLC_prefetch_pollution_evict 233871
Core_0_LLC_prefetch_pollution_demand 233871
Core_0_LLC_prefetch_pollution_among_prefetch_fill 0.218373
Core_0_LLC_prefetch_accuracy 0
Core_0_LLC_prefetch_coverage 0

[DRAM Statistics]
Channel_0_RQ_row_buffer_hit 9479
Channel_0_RQ_row_buffer_miss 7140438
Channel_0_WQ_row_buffer_hit 90082
Channel_0_WQ_row_buffer_miss 233686
Channel_0_WQ_full 0
Channel_0_dbus_congested 14863489
DRAM_total_RQ_row_buffer_hit 9479
DRAM_total_RQ_row_buffer_miss 7140438
DRAM_total_WQ_row_buffer_hit 90082
DRAM_total_WQ_row_buffer_miss 233686
DRAM_total_WQ_full 0
DRAM_total_dbus_congested 14863489
DRAM_avg_congested_cycle 6.67021

====== DRAM_RQ_TRAFFIC ========
DRAM_RQ_READ_TRAFFIC_BREAKDOWN:
data_demand_read.count = 5937917
data_demand_read.share = 83.05%

inst_demand_read.count = 18
inst_demand_read.share = 0.00%

cache_inst_prefetch.count = 0
cache_inst_prefetch.share = 0.00%

cache_data_prefetch.count = 1071047
cache_data_prefetch.share = 14.98%

stlb_data_demand.count = 141041
stlb_data_demand.share = 1.97%

stlb_inst_demand.count = 2
stlb_inst_demand.share = 0.00%

stlb_l1i_pref.count = 0
stlb_l1i_pref.share = 0.00%

stlb_l1d_pref.count = 0
stlb_l1d_pref.share = 0.00%

DRAM_RQ_READ_TRAFFIC_SUMMARY:
cache_demand.count = 5937935
cache_demand.share = 83.05%

cache_prefetch.count = 1071047
cache_prefetch.share = 14.98%

stlb_demand.count = 141043
stlb_demand.share = 1.97%

stlb_prefetch.count = 0
stlb_prefetch.share = 0.00%

DRAM_RQ_READ_TRAFFIC_DEBUG:
total_classified_read.count = 7150025
unclassified_read.count = 0
total_read_with_other.count = 7150025

classified_plus_unclassified_check.count = 7150025
dram_rq_read_total_observed.count = 7150025
dram_rq_read_total_observed.per_1K_instructions = 71.5002

STLB_MISS_PTW_DRAM_TOUCH_BREAKDOWN:
stlb_miss_total.count = 6406758

stlb_miss_touch_dram.count = 125492
stlb_miss_touch_dram.share = 1.96%

stlb_miss_no_dram_touch.count = 6281266
stlb_miss_no_dram_touch.share = 98.04%

STLB_MISS_PTW_DRAM_TOUCH_DEBUG:
stlb_miss_touch_plus_no_touch.count = 6406758
stlb_miss_total_check.count = 6406758

======STLB miss causes ========
Core_0_STLB_miss_cause_breakdown
Core_0_STLB_cause_Demand_Data_miss 6406756
Core_0_STLB_cause_Demand_Data_miss_rate 0.914636
Core_0_STLB_cause_Demand_Instruction_miss 2
Core_0_STLB_cause_Demand_Instruction_miss_rate 2.85522e-07
Core_0_STLB_cause_L1D_Prefetch_miss 0
Core_0_STLB_cause_L1D_Prefetch_miss_rate 0
Core_0_STLB_cause_L1D_Prefetch_Same_Page_miss 0
Core_0_STLB_cause_L1D_Prefetch_Same_Page_miss_rate 0
Core_0_STLB_cause_L1D_Prefetch_Cross_Page_miss 0
Core_0_STLB_cause_L1D_Prefetch_Cross_Page_miss_rate 0
Core_0_STLB_cause_L1I_Prefetch_miss 0
Core_0_STLB_cause_L1I_Prefetch_miss_rate 0
Core_0_STLB_cause_Other_miss 0
Core_0_STLB_cause_Other_miss_rate 0
Core_0_STLB_Demand_miss 6406758
Core_0_STLB_Demand_miss_rate 0.914636
Core_0_STLB_L1D_Prefetch_miss 0
Core_0_STLB_L1D_Prefetch_miss_rate 0
Core_0_STLB_Other_miss 0
Core_0_STLB_Other_miss_rate 0

========== vBerti-TLB Cross-page Flow Stats ==========

Core_0_vBerti_Requested 91506797
Core_0_vBerti_Cross_page_prefetch_in_Requested 0
Core_0_vBerti_Same_page_prefetch_in_Requested 91506797
Core_0_vBerti_Cross_page_prefetch_of_Requested 0
Core_0_vBerti_Issued 26410826
Core_0_vBerti_InPQ_Same_page_prefetch 26410826
Core_0_vBerti_InPQ_Cross_page_prefetch 0
Core_0_vBerti_PQ_Drop_Rate 0.711379
Core_0_vBerti_InPQ_Cross_page_prefetch_of_Requested 0
Core_0_vBerti_Cross_page_PQ_Drop_rate 0
Core_0_vBerti_Cross_page_prefetch_of_Issued 0
Core_0_CP_PF_PQFULL_drop 0
Core_0_CP_PF_PQFULL_TLB_rescue_enqueued 0
Core_0_CP_PF_PQFULL_TLB_rescue_issued 0
Core_0_CP_PF_PQFULL_TLB_rescue_translated 0

========= DTLB_vBerti Prefetch Stats =========
Core_0_DTLB_demand_access 33461796
Core_0_DTLB_demand_hit 25743940
Core_0_DTLB_demand_miss 7717856
Core_0_DTLB_demand_mshr_merge 713175
Core_0_DTLB_demand_fill 7004685
Core_0_DTLB_demand_miss_rate 0.230647
Core_0_DTLB_demand_mpki 77.1786
Core_0_DTLB_vberti_prefetch_access 17073348
Core_0_DTLB_vberti_prefetch_hit 17073306
Core_0_DTLB_vberti_prefetch_miss 42
Core_0_DTLB_vberti_prefetch_mshr_merge 20
Core_0_DTLB_vberti_prefetch_fill 21
Core_0_DTLB_vberti_prefetch_miss_rate 2.45997e-06
Core_0_DTLB_vberti_prefetch_mpki 0.00042

=== DTLB_vBerti Same/Cross-page Prefetch Stats ===
Core_0_DTLB_vberti_same_page_prefetch 17073348
Core_0_DTLB_vberti_same_page_prefetch_hit 17073306
Core_0_DTLB_vberti_same_page_prefetch_miss 42
Core_0_DTLB_vberti_same_page_prefetch_mshr_merge 20
Core_0_DTLB_vberti_same_page_prefetch_fill 21
Core_0_DTLB_vberti_same_page_prefetch_miss_rate 2.45997e-06
Core_0_DTLB_vberti_same_page_prefetch_mpki 0.00042
Core_0_DTLB_vberti_cross_page_prefetch 0
Core_0_DTLB_vberti_cross_page_prefetch_hit 0
Core_0_DTLB_vberti_cross_page_prefetch_miss 0
Core_0_DTLB_vberti_cross_page_prefetch_mshr_merge 0
Core_0_DTLB_vberti_cross_page_prefetch_fill 0
Core_0_DTLB_vberti_cross_page_prefetch_miss_rate 0
Core_0_DTLB_vberti_cross_page_prefetch_mpki 0
Core_0_DTLB_same_page_prefetch_miss_rate 2.45997e-06
Core_0_DTLB_same_page_prefetch_mpki 0.00042
Core_0_DTLB_cross_page_prefetch_miss_rate 0
Core_0_DTLB_cross_page_prefetch_mpki 0
Core_0_DTLB_cross_page_prefetch_issued 0
Core_0_DTLB_cross_page_prefetch_lookups 0
Core_0_DTLB_cross_page_prefetch_useful 0
Core_0_DTLB_cross_page_prefetch_useless 0
Core_0_DTLB_cross_page_prefetch_late 0
Core_0_DTLB_cross_page_prefetch_too_early 0
Core_0_DTLB_cross_page_prefetch_too_early_among_fill 0
Core_0_DTLB_cross_page_prefetch_too_early_among_useless 0
Core_0_DTLB_cross_page_prefetch_pollution_evict 0
Core_0_DTLB_cross_page_prefetch_pollution_demand 0
Core_0_DTLB_cross_page_prefetch_pollution_among_prefetch_fill 0
Core_0_DTLB_cross_page_prefetch_accuracy 0
Core_0_DTLB_cross_page_prefetch_coverage 0

========= STLB_vBerti Prefetch Stats =========
Core_0_STLB_demand_access 7004683
Core_0_STLB_demand_hit 597925
Core_0_STLB_demand_miss 6406758
Core_0_STLB_demand_mshr_merge 0
Core_0_STLB_demand_fill 6406761
Core_0_STLB_demand_miss_rate 0.914639
Core_0_STLB_demand_mpki 64.0676
Core_0_STLB_vberti_prefetch_access 22
Core_0_STLB_vberti_prefetch_hit 22
Core_0_STLB_vberti_prefetch_miss 0
Core_0_STLB_vberti_prefetch_mshr_merge 0
Core_0_STLB_vberti_prefetch_fill 0
Core_0_STLB_vberti_prefetch_miss_rate 0
Core_0_STLB_vberti_prefetch_mpki 0

=== STLB_vBerti Same/Cross-page Prefetch Stats ===
Core_0_STLB_vberti_same_page_prefetch 22
Core_0_STLB_vberti_same_page_prefetch_hit 22
Core_0_STLB_vberti_same_page_prefetch_miss 0
Core_0_STLB_vberti_same_page_prefetch_mshr_merge 0
Core_0_STLB_vberti_same_page_prefetch_fill 0
Core_0_STLB_vberti_same_page_prefetch_miss_rate 0
Core_0_STLB_vberti_same_page_prefetch_mpki 0
Core_0_STLB_vberti_cross_page_prefetch 0
Core_0_STLB_vberti_cross_page_prefetch_hit 0
Core_0_STLB_vberti_cross_page_prefetch_miss 0
Core_0_STLB_vberti_cross_page_prefetch_mshr_merge 0
Core_0_STLB_vberti_cross_page_prefetch_fill 0
Core_0_STLB_vberti_cross_page_prefetch_miss_rate 0
Core_0_STLB_vberti_cross_page_prefetch_mpki 0
Core_0_STLB_same_page_prefetch_miss_rate 0
Core_0_STLB_same_page_prefetch_mpki 0
Core_0_STLB_cross_page_prefetch_miss_rate 0
Core_0_STLB_cross_page_prefetch_mpki 0
Core_0_STLB_cross_page_prefetch_issued 0
Core_0_STLB_cross_page_prefetch_lookups 0
Core_0_STLB_cross_page_prefetch_useful 0
Core_0_STLB_cross_page_prefetch_useless 0
Core_0_STLB_cross_page_prefetch_late 0
Core_0_STLB_cross_page_prefetch_too_early 0
Core_0_STLB_cross_page_prefetch_too_early_among_fill 0
Core_0_STLB_cross_page_prefetch_too_early_among_useless 0
Core_0_STLB_cross_page_prefetch_pollution_evict 0
Core_0_STLB_cross_page_prefetch_pollution_demand 0
Core_0_STLB_cross_page_prefetch_pollution_among_prefetch_fill 0
Core_0_STLB_cross_page_prefetch_accuracy 0
Core_0_STLB_cross_page_prefetch_coverage 0

========= STLB Cross-page Prefetch Buffer Stats =========
Core_0_STLB_raw_demand_miss 6406756
Core_0_CP_PB_insert 0
Core_0_CP_PB_demand_hit 0
Core_0_STLB_PB_demand_miss 6406756
Core_0_CP_PB_coverage 0
Core_0_STLB_raw_demand_mpki 64.0676
Core_0_STLB_PB_demand_mpki 64.0676
Core_0_CP_PB_demand_hit_mpki 0

Core_0_TLB_demand_miss_rate 0.191465
Core_0_TLB_demand_mpki 64.0676
Core_0_TLB_same_page_prefetch_miss_rate 0
Core_0_TLB_same_page_prefetch_mpki 0
Core_0_TLB_cross_page_prefetch_miss_rate 0
Core_0_TLB_cross_page_prefetch_mpki 0
Core_0_TLB_cross_page_prefetch_issued 0
Core_0_TLB_cross_page_prefetch_lookups 0
Core_0_TLB_cross_page_prefetch_useful 0
Core_0_TLB_cross_page_prefetch_useless 0
Core_0_TLB_cross_page_prefetch_late 0
Core_0_TLB_cross_page_prefetch_too_early 0
Core_0_TLB_cross_page_prefetch_too_early_among_fill 0
Core_0_TLB_cross_page_prefetch_too_early_among_useless 0
Core_0_TLB_cross_page_prefetch_accuracy 0
Core_0_TLB_cross_page_prefetch_coverage 0
====== vBerti internal metric ========
BERTI TO_L1: 75408320 TO_L2: 16098477 TO_L2_BC_MSHR: 6474228
BERTI AVG_LAT: 204.477 NUM_TRACK_LATENCY: 8370040 NUM_CANT_TRACK_LATENCY: 0
BERTI CROSS_PAGE 12730697 NO_CROSS_PAGE: 91506797
BERTI FOUND_BERTI: 31198858 NO_FOUND_BERTI: 10421238
BERTI AVERAGE_ISSUED: 3.13348
