[VMEM] WARNING: physical memory size is smaller than virtual memory size.

*** ChampSim Multicore Out-of-Order Simulator ***
Warmup Instructions: 50000000
Simulation Instructions: 100000000
Number of CPUs: 1
Page size: 4096
Core 0: /data2/zcq/champsim_traces_xsbench/xs.XXL100nuclide-487B.champsimtrace.xz
VBerti Prefetcher
No Crossing Page
BERTI HASH ENTANGLING
BERTI IP MASK ffff
Off-chip DRAM Size: 16 GiB Channels: 1 Width: 64-bit Data Rate: 3205 MT/s
Warmup halting CPU 0 at instruction 50000001 cycle 36924745 for remainder of phase
Warmup finished CPU 0 instructions: 50000001 cycles: 36924745 cumulative IPC: 1.354 (Simulation time: 00 hr 05 min 52 sec)
Warmup complete CPU 0 instructions: 50000001 cycles: 36924745 cumulative IPC: 1.354 (Simulation time: 00 hr 05 min 52 sec)
Simulation finished CPU 0 instructions: 100000001 cycles: 692975121 cumulative IPC: 0.1443 (Simulation time: 00 hr 47 min 42 sec)
Simulation complete CPU 0 instructions: 100000001 cycles: 692975121 cumulative IPC: 0.1443 (Simulation time: 00 hr 47 min 42 sec)

ChampSim completed all CPUs

=== Simulation ===
CPU 0 runs /data2/zcq/champsim_traces_xsbench/xs.XXL100nuclide-487B.champsimtrace.xz

Region of Interest Statistics

CPU 0 cumulative IPC: 0.1443 instructions: 100000001 cycles: 692975121
CPU 0 Branch Prediction Accuracy: 87.19% MPKI: 21.6 Average ROB Occupancy at Mispredict: 25.62
Branch type MPKI
BRANCH_DIRECT_JUMP: 0
BRANCH_INDIRECT: 0
BRANCH_CONDITIONAL: 21.6
BRANCH_DIRECT_CALL: 0
BRANCH_INDIRECT_CALL: 0
BRANCH_RETURN: 0

cpu0->cpu0_STLB TOTAL        ACCESS:    3983010 HIT:     131268 MISS:    3851742 MSHR_MERGE:          0
cpu0->cpu0_STLB LOAD         ACCESS:    3983010 HIT:     131268 MISS:    3851742 MSHR_MERGE:          0
cpu0->cpu0_STLB RFO          ACCESS:          0 HIT:          0 MISS:          0 MSHR_MERGE:          0
cpu0->cpu0_STLB PREFETCH     ACCESS:          0 HIT:          0 MISS:          0 MSHR_MERGE:          0
cpu0->cpu0_STLB WRITE        ACCESS:          0 HIT:          0 MISS:          0 MSHR_MERGE:          0
cpu0->cpu0_STLB TRANSLATION  ACCESS:          0 HIT:          0 MISS:          0 MSHR_MERGE:          0
cpu0->cpu0_STLB PREFETCH REQUESTED:          0 ISSUED:          0 USEFUL:          0 USELESS:          0 LATE:          0 TOO_EARLY:          0
cpu0->cpu0_STLB AVERAGE MISS LATENCY: 173.5 cycles
cpu0->cpu0_L2C TOTAL        ACCESS:   10522673 HIT:    1402527 MISS:    9120146 MSHR_MERGE:       9181
cpu0->cpu0_L2C LOAD         ACCESS:    5975199 HIT:     202440 MISS:    5772759 MSHR_MERGE:          0
cpu0->cpu0_L2C RFO          ACCESS:      10706 HIT:      10706 MISS:          0 MSHR_MERGE:          0
cpu0->cpu0_L2C PREFETCH     ACCESS:    1205398 HIT:     979870 MISS:     225528 MSHR_MERGE:       9181
cpu0->cpu0_L2C WRITE        ACCESS:      19129 HIT:      19072 MISS:         57 MSHR_MERGE:          0
cpu0->cpu0_L2C TRANSLATION  ACCESS:    3312241 HIT:     190439 MISS:    3121802 MSHR_MERGE:          0
cpu0->cpu0_L2C PREFETCH REQUESTED:     334884 ISSUED:     334884 USEFUL:      14621 USELESS:     135269 LATE:          0 TOO_EARLY:        116
cpu0->cpu0_L2C AVERAGE MISS LATENCY: 149.6 cycles
cpu0->cpu0_L1I TOTAL        ACCESS:      21672 HIT:      21672 MISS:          0 MSHR_MERGE:          0
cpu0->cpu0_L1I LOAD         ACCESS:      21672 HIT:      21672 MISS:          0 MSHR_MERGE:          0
cpu0->cpu0_L1I RFO          ACCESS:          0 HIT:          0 MISS:          0 MSHR_MERGE:          0
cpu0->cpu0_L1I PREFETCH     ACCESS:          0 HIT:          0 MISS:          0 MSHR_MERGE:          0
cpu0->cpu0_L1I WRITE        ACCESS:          0 HIT:          0 MISS:          0 MSHR_MERGE:          0
cpu0->cpu0_L1I TRANSLATION  ACCESS:          0 HIT:          0 MISS:          0 MSHR_MERGE:          0
cpu0->cpu0_L1I PREFETCH REQUESTED:          0 ISSUED:          0 USEFUL:          0 USELESS:          0 LATE:          0 TOO_EARLY:          0
cpu0->cpu0_L1I AVERAGE MISS LATENCY: - cycles
cpu0->cpu0_L1D TOTAL        ACCESS:   21704990 HIT:    9617360 MISS:   12087630 MSHR_MERGE:    1918958
cpu0->cpu0_L1D LOAD         ACCESS:    9549964 HIT:    3472645 MISS:    6077319 MSHR_MERGE:     102123
cpu0->cpu0_L1D RFO          ACCESS:          0 HIT:          0 MISS:          0 MSHR_MERGE:          0
cpu0->cpu0_L1D PREFETCH     ACCESS:    1909963 HIT:    1039448 MISS:     870515 MSHR_MERGE:          1
cpu0->cpu0_L1D WRITE        ACCESS:    1810843 HIT:    1759170 MISS:      51673 MSHR_MERGE:      40952
cpu0->cpu0_L1D TRANSLATION  ACCESS:    8434220 HIT:    3346097 MISS:    5088123 MSHR_MERGE:    1775882
cpu0->cpu0_L1D PREFETCH REQUESTED:    2112941 ISSUED:    1909959 USEFUL:      36382 USELESS:      37944 LATE:        366 TOO_EARLY:        982
cpu0->cpu0_L1D AVERAGE MISS LATENCY: 152.2 cycles
cpu0->cpu0_ITLB TOTAL        ACCESS:      17535 HIT:      17535 MISS:          0 MSHR_MERGE:          0
cpu0->cpu0_ITLB LOAD         ACCESS:      17535 HIT:      17535 MISS:          0 MSHR_MERGE:          0
cpu0->cpu0_ITLB RFO          ACCESS:          0 HIT:          0 MISS:          0 MSHR_MERGE:          0
cpu0->cpu0_ITLB PREFETCH     ACCESS:          0 HIT:          0 MISS:          0 MSHR_MERGE:          0
cpu0->cpu0_ITLB WRITE        ACCESS:          0 HIT:          0 MISS:          0 MSHR_MERGE:          0
cpu0->cpu0_ITLB TRANSLATION  ACCESS:          0 HIT:          0 MISS:          0 MSHR_MERGE:          0
cpu0->cpu0_ITLB PREFETCH REQUESTED:          0 ISSUED:          0 USEFUL:          0 USELESS:          0 LATE:          0 TOO_EARLY:          0
cpu0->cpu0_ITLB AVERAGE MISS LATENCY: - cycles
cpu0->cpu0_DTLB TOTAL        ACCESS:   12650215 HIT:    8467450 MISS:    4182765 MSHR_MERGE:     199755
cpu0->cpu0_DTLB LOAD         ACCESS:   12650215 HIT:    8467450 MISS:    4182765 MSHR_MERGE:     199755
cpu0->cpu0_DTLB RFO          ACCESS:          0 HIT:          0 MISS:          0 MSHR_MERGE:          0
cpu0->cpu0_DTLB PREFETCH     ACCESS:          0 HIT:          0 MISS:          0 MSHR_MERGE:          0
cpu0->cpu0_DTLB WRITE        ACCESS:          0 HIT:          0 MISS:          0 MSHR_MERGE:          0
cpu0->cpu0_DTLB TRANSLATION  ACCESS:          0 HIT:          0 MISS:          0 MSHR_MERGE:          0
cpu0->cpu0_DTLB PREFETCH REQUESTED:          0 ISSUED:          0 USEFUL:          0 USELESS:          0 LATE:          0 TOO_EARLY:          0
cpu0->cpu0_DTLB AVERAGE MISS LATENCY: 173.8 cycles
cpu0->LLC TOTAL        ACCESS:    9114612 HIT:    3068544 MISS:    6046068 MSHR_MERGE:          0
cpu0->LLC LOAD         ACCESS:    5772759 HIT:    1333561 MISS:    4439198 MSHR_MERGE:          0
cpu0->LLC RFO          ACCESS:          0 HIT:          0 MISS:          0 MSHR_MERGE:          0
cpu0->LLC PREFETCH     ACCESS:     216347 HIT:      82964 MISS:     133383 MSHR_MERGE:          0
cpu0->LLC WRITE        ACCESS:       3704 HIT:       3699 MISS:          5 MSHR_MERGE:          0
cpu0->LLC TRANSLATION  ACCESS:    3121802 HIT:    1648320 MISS:    1473482 MSHR_MERGE:          0
cpu0->LLC PREFETCH REQUESTED:          0 ISSUED:          0 USEFUL:          0 USELESS:          0 LATE:          0 TOO_EARLY:          0
cpu0->LLC AVERAGE MISS LATENCY: 201.5 cycles

DRAM Statistics

Channel 0 RQ ROW_BUFFER_HIT:      30535
  ROW_BUFFER_MISS:    6015523
  AVG DBUS CONGESTED CYCLE: 2.937
Channel 0 WQ ROW_BUFFER_HIT:         15
  ROW_BUFFER_MISS:         47
  FULL:          0
Channel 0 REFRESHES ISSUED:      57747

[ROI Statistics]
[System Configuration]
num_cpus 1
cpu_freq 4000
fetch_width 6
decode_width 6
dispatch_width 6
execute_width 6
lq_width 2
sq_width 2
retire_width 6
scheduler_size 128
branch_mispredict_penalty 15
rob_size 352
lq_size 128
sq_size 72
ifetch_buffer_size 64
decode_buffer_size 32
dispatch_buffer_size 32
register_file_size 288
decode_latency 1
dispatch_latency 1
schedule_latency 1
execute_latency 1
page_size 4096
block_size 64
core_0_itlb_set 16
core_0_itlb_way 4
core_0_itlb_rq_size 16
core_0_itlb_wq_size 16
core_0_itlb_pq_size 0
core_0_itlb_mshr_size 8
core_0_itlb_hit_latency 1
core_0_itlb_fill_latency 1
core_0_itlb_max_tag_check 2
core_0_itlb_max_fill 2
core_0_dtlb_set 16
core_0_dtlb_way 4
core_0_dtlb_rq_size 16
core_0_dtlb_wq_size 16
core_0_dtlb_pq_size 0
core_0_dtlb_mshr_size 8
core_0_dtlb_hit_latency 1
core_0_dtlb_fill_latency 1
core_0_dtlb_max_tag_check 2
core_0_dtlb_max_fill 2
core_0_stlb_set 128
core_0_stlb_way 12
core_0_stlb_rq_size 32
core_0_stlb_wq_size 32
core_0_stlb_pq_size 0
core_0_stlb_mshr_size 16
core_0_stlb_hit_latency 4
core_0_stlb_fill_latency 4
core_0_stlb_max_tag_check 1
core_0_stlb_max_fill 1
core_0_l1i_set 64
core_0_l1i_way 8
core_0_l1i_rq_size 64
core_0_l1i_wq_size 64
core_0_l1i_pq_size 32
core_0_l1i_mshr_size 8
core_0_l1i_hit_latency 2
core_0_l1i_fill_latency 2
core_0_l1i_max_tag_check 2
core_0_l1i_max_fill 2
core_0_l1d_set 64
core_0_l1d_way 12
core_0_l1d_rq_size 64
core_0_l1d_wq_size 64
core_0_l1d_pq_size 8
core_0_l1d_mshr_size 16
core_0_l1d_hit_latency 2
core_0_l1d_fill_latency 3
core_0_l1d_max_tag_check 2
core_0_l1d_max_fill 2
core_0_l2c_set 1024
core_0_l2c_way 8
core_0_l2c_rq_size 32
core_0_l2c_wq_size 32
core_0_l2c_pq_size 16
core_0_l2c_mshr_size 32
core_0_l2c_hit_latency 5
core_0_l2c_fill_latency 5
core_0_l2c_max_tag_check 1
core_0_l2c_max_fill 1
llc_set 2048
llc_way 16
llc_rq_size 32
llc_wq_size 32
llc_pq_size 32
llc_mshr_size 64
llc_hit_latency 10
llc_fill_latency 10
llc_max_tag_check 1
llc_max_fill 1
dram_channels 1
dram_ranks 1
dram_bankgroups 8
dram_banks 4
dram_rows 65536
dram_columns 1024
dram_channel_width 8
dram_rq_size 64
dram_wq_size 64
dram_size 17179869184
core_0_itlb_prefetcher no
core_0_dtlb_prefetcher no
core_0_stlb_prefetcher no
core_0_l1i_prefetcher next_line
core_0_l1d_prefetcher vberti_nocross
core_0_l2c_prefetcher ip_stride
llc_prefetcher no
llc_replacement drrip

Core_0_instructions 100000001
Core_0_cycles 692975121
Core_0_IPC 0.144305
Core_0_branch_prediction_accuracy 87.1865
Core_0_branch_MPKI 21.6043
Core_0_average_ROB_occupancy_at_mispredict 25.6214

Core_0_ITLB_total_access 17535
Core_0_ITLB_total_hit 17535
Core_0_ITLB_total_miss 0
Core_0_ITLB_total_MPKI 0
Core_0_ITLB_total_miss_rate 0
Core_0_ITLB_demand_access 17535
Core_0_ITLB_demand_hit 17535
Core_0_ITLB_demand_miss 0
Core_0_ITLB_demand_MPKI 0
Core_0_ITLB_demand_miss_rate 0
Core_0_ITLB_load_access 17535
Core_0_ITLB_load_hit 17535
Core_0_ITLB_load_miss 0
Core_0_ITLB_load_MPKI 0
Core_0_ITLB_load_miss_rate 0
Core_0_ITLB_rfo_access 0
Core_0_ITLB_rfo_hit 0
Core_0_ITLB_rfo_miss 0
Core_0_ITLB_rfo_MPKI 0
Core_0_ITLB_rfo_miss_rate 0
Core_0_ITLB_prefetch_access 0
Core_0_ITLB_prefetch_hit 0
Core_0_ITLB_prefetch_miss 0
Core_0_ITLB_prefetch_MPKI 0
Core_0_ITLB_prefetch_miss_rate 0
Core_0_ITLB_writeback_access 0
Core_0_ITLB_writeback_hit 0
Core_0_ITLB_writeback_miss 0
Core_0_ITLB_writeback_MPKI 0
Core_0_ITLB_writeback_miss_rate 0
Core_0_ITLB_prefetch_requested 0
Core_0_ITLB_prefetch_issued 0
Core_0_ITLB_prefetch_useful 0
Core_0_ITLB_prefetch_useless 0
Core_0_ITLB_prefetch_late 0
Core_0_ITLB_prefetch_fill 0
Core_0_ITLB_prefetch_too_early 0
Core_0_ITLB_prefetch_too_early_among_fill 0
Core_0_ITLB_prefetch_too_early_among_useless 0
Core_0_ITLB_prefetch_pollution_evict 0
Core_0_ITLB_prefetch_pollution_demand 0
Core_0_ITLB_prefetch_pollution_among_prefetch_fill 0
Core_0_ITLB_prefetch_accuracy 0
Core_0_ITLB_prefetch_coverage 0

Core_0_DTLB_total_access 12650215
Core_0_DTLB_total_hit 8467450
Core_0_DTLB_total_miss 4182765
Core_0_DTLB_total_MPKI 41.8276
Core_0_DTLB_total_miss_rate 0.330648
Core_0_DTLB_demand_access 12650215
Core_0_DTLB_demand_hit 8467450
Core_0_DTLB_demand_miss 4182765
Core_0_DTLB_demand_MPKI 41.8276
Core_0_DTLB_demand_miss_rate 0.330648
Core_0_DTLB_load_access 12650215
Core_0_DTLB_load_hit 8467450
Core_0_DTLB_load_miss 4182765
Core_0_DTLB_load_MPKI 41.8276
Core_0_DTLB_load_miss_rate 0.330648
Core_0_DTLB_rfo_access 0
Core_0_DTLB_rfo_hit 0
Core_0_DTLB_rfo_miss 0
Core_0_DTLB_rfo_MPKI 0
Core_0_DTLB_rfo_miss_rate 0
Core_0_DTLB_prefetch_access 0
Core_0_DTLB_prefetch_hit 0
Core_0_DTLB_prefetch_miss 0
Core_0_DTLB_prefetch_MPKI 0
Core_0_DTLB_prefetch_miss_rate 0
Core_0_DTLB_writeback_access 0
Core_0_DTLB_writeback_hit 0
Core_0_DTLB_writeback_miss 0
Core_0_DTLB_writeback_MPKI 0
Core_0_DTLB_writeback_miss_rate 0
Core_0_DTLB_prefetch_requested 0
Core_0_DTLB_prefetch_issued 0
Core_0_DTLB_prefetch_useful 0
Core_0_DTLB_prefetch_useless 0
Core_0_DTLB_prefetch_late 0
Core_0_DTLB_prefetch_fill 0
Core_0_DTLB_prefetch_too_early 0
Core_0_DTLB_prefetch_too_early_among_fill 0
Core_0_DTLB_prefetch_too_early_among_useless 0
Core_0_DTLB_prefetch_pollution_evict 0
Core_0_DTLB_prefetch_pollution_demand 0
Core_0_DTLB_prefetch_pollution_among_prefetch_fill 0
Core_0_DTLB_prefetch_accuracy 0
Core_0_DTLB_prefetch_coverage 0

Core_0_STLB_total_access 3983010
Core_0_STLB_total_hit 131268
Core_0_STLB_total_miss 3851742
Core_0_STLB_total_MPKI 38.5174
Core_0_STLB_total_miss_rate 0.967043
Core_0_STLB_demand_access 3983010
Core_0_STLB_demand_hit 131268
Core_0_STLB_demand_miss 3851742
Core_0_STLB_demand_MPKI 38.5174
Core_0_STLB_demand_miss_rate 0.967043
Core_0_STLB_load_access 3983010
Core_0_STLB_load_hit 131268
Core_0_STLB_load_miss 3851742
Core_0_STLB_load_MPKI 38.5174
Core_0_STLB_load_miss_rate 0.967043
Core_0_STLB_rfo_access 0
Core_0_STLB_rfo_hit 0
Core_0_STLB_rfo_miss 0
Core_0_STLB_rfo_MPKI 0
Core_0_STLB_rfo_miss_rate 0
Core_0_STLB_prefetch_access 0
Core_0_STLB_prefetch_hit 0
Core_0_STLB_prefetch_miss 0
Core_0_STLB_prefetch_MPKI 0
Core_0_STLB_prefetch_miss_rate 0
Core_0_STLB_writeback_access 0
Core_0_STLB_writeback_hit 0
Core_0_STLB_writeback_miss 0
Core_0_STLB_writeback_MPKI 0
Core_0_STLB_writeback_miss_rate 0
Core_0_STLB_prefetch_requested 0
Core_0_STLB_prefetch_issued 0
Core_0_STLB_prefetch_useful 0
Core_0_STLB_prefetch_useless 0
Core_0_STLB_prefetch_late 0
Core_0_STLB_prefetch_fill 0
Core_0_STLB_prefetch_too_early 0
Core_0_STLB_prefetch_too_early_among_fill 0
Core_0_STLB_prefetch_too_early_among_useless 0
Core_0_STLB_prefetch_pollution_evict 0
Core_0_STLB_prefetch_pollution_demand 0
Core_0_STLB_prefetch_pollution_among_prefetch_fill 0
Core_0_STLB_prefetch_accuracy 0
Core_0_STLB_prefetch_coverage 0

Core_0_L1I_total_access 21672
Core_0_L1I_total_hit 21672
Core_0_L1I_total_miss 0
Core_0_L1I_total_MPKI 0
Core_0_L1I_total_miss_rate 0
Core_0_L1I_demand_access 21672
Core_0_L1I_demand_hit 21672
Core_0_L1I_demand_miss 0
Core_0_L1I_demand_MPKI 0
Core_0_L1I_demand_miss_rate 0
Core_0_L1I_load_access 21672
Core_0_L1I_load_hit 21672
Core_0_L1I_load_miss 0
Core_0_L1I_load_MPKI 0
Core_0_L1I_load_miss_rate 0
Core_0_L1I_rfo_access 0
Core_0_L1I_rfo_hit 0
Core_0_L1I_rfo_miss 0
Core_0_L1I_rfo_MPKI 0
Core_0_L1I_rfo_miss_rate 0
Core_0_L1I_prefetch_access 0
Core_0_L1I_prefetch_hit 0
Core_0_L1I_prefetch_miss 0
Core_0_L1I_prefetch_MPKI 0
Core_0_L1I_prefetch_miss_rate 0
Core_0_L1I_writeback_access 0
Core_0_L1I_writeback_hit 0
Core_0_L1I_writeback_miss 0
Core_0_L1I_writeback_MPKI 0
Core_0_L1I_writeback_miss_rate 0
Core_0_L1I_prefetch_requested 0
Core_0_L1I_prefetch_issued 0
Core_0_L1I_prefetch_useful 0
Core_0_L1I_prefetch_useless 0
Core_0_L1I_prefetch_late 0
Core_0_L1I_prefetch_fill 0
Core_0_L1I_prefetch_too_early 0
Core_0_L1I_prefetch_too_early_among_fill 0
Core_0_L1I_prefetch_too_early_among_useless 0
Core_0_L1I_prefetch_pollution_evict 0
Core_0_L1I_prefetch_pollution_demand 0
Core_0_L1I_prefetch_pollution_among_prefetch_fill 0
Core_0_L1I_prefetch_accuracy 0
Core_0_L1I_prefetch_coverage 0

Core_0_L1D_total_access 13270770
Core_0_L1D_total_hit 6271263
Core_0_L1D_total_miss 6999507
Core_0_L1D_total_MPKI 69.9951
Core_0_L1D_total_miss_rate 0.527438
Core_0_L1D_demand_access 9549964
Core_0_L1D_demand_hit 3472645
Core_0_L1D_demand_miss 6077319
Core_0_L1D_demand_MPKI 60.7732
Core_0_L1D_demand_miss_rate 0.636371
Core_0_L1D_load_access 9549964
Core_0_L1D_load_hit 3472645
Core_0_L1D_load_miss 6077319
Core_0_L1D_load_MPKI 60.7732
Core_0_L1D_load_miss_rate 0.636371
Core_0_L1D_rfo_access 0
Core_0_L1D_rfo_hit 0
Core_0_L1D_rfo_miss 0
Core_0_L1D_rfo_MPKI 0
Core_0_L1D_rfo_miss_rate 0
Core_0_L1D_prefetch_access 1909963
Core_0_L1D_prefetch_hit 1039448
Core_0_L1D_prefetch_miss 870515
Core_0_L1D_prefetch_MPKI 8.70515
Core_0_L1D_prefetch_miss_rate 0.455776
Core_0_L1D_writeback_access 1810843
Core_0_L1D_writeback_hit 1759170
Core_0_L1D_writeback_miss 51673
Core_0_L1D_writeback_MPKI 0.51673
Core_0_L1D_writeback_miss_rate 0.0285353
Core_0_L1D_prefetch_requested 2112941
Core_0_L1D_prefetch_issued 1909959
Core_0_L1D_prefetch_useful 36382
Core_0_L1D_prefetch_useless 37944
Core_0_L1D_prefetch_late 366
Core_0_L1D_prefetch_fill 73960
Core_0_L1D_prefetch_too_early 982
Core_0_L1D_prefetch_too_early_among_fill 0.0132774
Core_0_L1D_prefetch_too_early_among_useless 0.0258802
Core_0_L1D_prefetch_pollution_evict 12219
Core_0_L1D_prefetch_pollution_demand 12211
Core_0_L1D_prefetch_pollution_among_prefetch_fill 0.165211
Core_0_L1D_prefetch_accuracy 0.0190486
Core_0_L1D_prefetch_coverage 0.0059509

Core_0_L2C_total_access 7210432
Core_0_L2C_total_hit 1212088
Core_0_L2C_total_miss 5998344
Core_0_L2C_total_MPKI 59.9834
Core_0_L2C_total_miss_rate 0.831898
Core_0_L2C_demand_access 5985905
Core_0_L2C_demand_hit 213146
Core_0_L2C_demand_miss 5772759
Core_0_L2C_demand_MPKI 57.7276
Core_0_L2C_demand_miss_rate 0.964392
Core_0_L2C_load_access 5975199
Core_0_L2C_load_hit 202440
Core_0_L2C_load_miss 5772759
Core_0_L2C_load_MPKI 57.7276
Core_0_L2C_load_miss_rate 0.96612
Core_0_L2C_rfo_access 10706
Core_0_L2C_rfo_hit 10706
Core_0_L2C_rfo_miss 0
Core_0_L2C_rfo_MPKI 0
Core_0_L2C_rfo_miss_rate 0
Core_0_L2C_prefetch_access 1205398
Core_0_L2C_prefetch_hit 979870
Core_0_L2C_prefetch_miss 225528
Core_0_L2C_prefetch_MPKI 2.25528
Core_0_L2C_prefetch_miss_rate 0.187098
Core_0_L2C_writeback_access 19129
Core_0_L2C_writeback_hit 19072
Core_0_L2C_writeback_miss 57
Core_0_L2C_writeback_MPKI 0.00057
Core_0_L2C_writeback_miss_rate 0.00297977
Core_0_L2C_prefetch_requested 334884
Core_0_L2C_prefetch_issued 334884
Core_0_L2C_prefetch_useful 14621
Core_0_L2C_prefetch_useless 135269
Core_0_L2C_prefetch_late 0
Core_0_L2C_prefetch_fill 216344
Core_0_L2C_prefetch_too_early 116
Core_0_L2C_prefetch_too_early_among_fill 0.000536183
Core_0_L2C_prefetch_too_early_among_useless 0.000857551
Core_0_L2C_prefetch_pollution_evict 44741
Core_0_L2C_prefetch_pollution_demand 44737
Core_0_L2C_prefetch_pollution_among_prefetch_fill 0.206805
Core_0_L2C_prefetch_accuracy 0.0436599
Core_0_L2C_prefetch_coverage 0.00252636

Core_0_LLC_total_access 5992810
Core_0_LLC_total_hit 1420224
Core_0_LLC_total_miss 4572586
Core_0_LLC_total_MPKI 45.7259
Core_0_LLC_total_miss_rate 0.763012
Core_0_LLC_demand_access 5772759
Core_0_LLC_demand_hit 1333561
Core_0_LLC_demand_miss 4439198
Core_0_LLC_demand_MPKI 44.392
Core_0_LLC_demand_miss_rate 0.768991
Core_0_LLC_load_access 5772759
Core_0_LLC_load_hit 1333561
Core_0_LLC_load_miss 4439198
Core_0_LLC_load_MPKI 44.392
Core_0_LLC_load_miss_rate 0.768991
Core_0_LLC_rfo_access 0
Core_0_LLC_rfo_hit 0
Core_0_LLC_rfo_miss 0
Core_0_LLC_rfo_MPKI 0
Core_0_LLC_rfo_miss_rate 0
Core_0_LLC_prefetch_access 216347
Core_0_LLC_prefetch_hit 82964
Core_0_LLC_prefetch_miss 133383
Core_0_LLC_prefetch_MPKI 1.33383
Core_0_LLC_prefetch_miss_rate 0.616523
Core_0_LLC_writeback_access 3704
Core_0_LLC_writeback_hit 3699
Core_0_LLC_writeback_miss 5
Core_0_LLC_writeback_MPKI 5e-05
Core_0_LLC_writeback_miss_rate 0.00134989
Core_0_LLC_prefetch_requested 0
Core_0_LLC_prefetch_issued 0
Core_0_LLC_prefetch_useful 0
Core_0_LLC_prefetch_useless 0
Core_0_LLC_prefetch_late 0
Core_0_LLC_prefetch_fill 133383
Core_0_LLC_prefetch_too_early 0
Core_0_LLC_prefetch_too_early_among_fill 0
Core_0_LLC_prefetch_too_early_among_useless 0
Core_0_LLC_prefetch_pollution_evict 28916
Core_0_LLC_prefetch_pollution_demand 28916
Core_0_LLC_prefetch_pollution_among_prefetch_fill 0.216789
Core_0_LLC_prefetch_accuracy 0
Core_0_LLC_prefetch_coverage 0

[DRAM Statistics]
Channel_0_RQ_row_buffer_hit 30535
Channel_0_RQ_row_buffer_miss 6015523
Channel_0_WQ_row_buffer_hit 15
Channel_0_WQ_row_buffer_miss 47
Channel_0_WQ_full 0
Channel_0_dbus_congested 6289272
DRAM_total_RQ_row_buffer_hit 30535
DRAM_total_RQ_row_buffer_miss 6015523
DRAM_total_WQ_row_buffer_hit 15
DRAM_total_WQ_row_buffer_miss 47
DRAM_total_WQ_full 0
DRAM_total_dbus_congested 6289272
DRAM_avg_congested_cycle 2.93653

====== DRAM_RQ_TRAFFIC ========
DRAM_RQ_READ_TRAFFIC_BREAKDOWN:
data_demand_read.count = 4439198
data_demand_read.share = 73.42%

inst_demand_read.count = 0
inst_demand_read.share = 0.00%

cache_inst_prefetch.count = 0
cache_inst_prefetch.share = 0.00%

cache_data_prefetch.count = 133383
cache_data_prefetch.share = 2.21%

stlb_data_demand.count = 1473483
stlb_data_demand.share = 24.37%

stlb_inst_demand.count = 0
stlb_inst_demand.share = 0.00%

stlb_l1i_pref.count = 0
stlb_l1i_pref.share = 0.00%

stlb_l1d_pref.count = 0
stlb_l1d_pref.share = 0.00%

DRAM_RQ_READ_TRAFFIC_SUMMARY:
cache_demand.count = 4439198
cache_demand.share = 73.42%

cache_prefetch.count = 133383
cache_prefetch.share = 2.21%

stlb_demand.count = 1473483
stlb_demand.share = 24.37%

stlb_prefetch.count = 0
stlb_prefetch.share = 0.00%

DRAM_RQ_READ_TRAFFIC_DEBUG:
total_classified_read.count = 6046064
unclassified_read.count = 0
total_read_with_other.count = 6046064

classified_plus_unclassified_check.count = 6046064
dram_rq_read_total_observed.count = 6046064
dram_rq_read_total_observed.per_1K_instructions = 60.4606

STLB_MISS_PTW_DRAM_TOUCH_BREAKDOWN:
stlb_miss_total.count = 3851736

stlb_miss_touch_dram.count = 1475367
stlb_miss_touch_dram.share = 38.30%

stlb_miss_no_dram_touch.count = 2376369
stlb_miss_no_dram_touch.share = 61.70%

STLB_MISS_PTW_DRAM_TOUCH_DEBUG:
stlb_miss_touch_plus_no_touch.count = 3851736
stlb_miss_total_check.count = 3851736

======STLB miss causes ========
Core_0_STLB_miss_cause_breakdown
Core_0_STLB_cause_Demand_Data_miss 3851742
Core_0_STLB_cause_Demand_Data_miss_rate 0.967043
Core_0_STLB_cause_Demand_Instruction_miss 0
Core_0_STLB_cause_Demand_Instruction_miss_rate 0
Core_0_STLB_cause_L1D_Prefetch_miss 0
Core_0_STLB_cause_L1D_Prefetch_miss_rate 0
Core_0_STLB_cause_L1D_Prefetch_Same_Page_miss 0
Core_0_STLB_cause_L1D_Prefetch_Same_Page_miss_rate 0
Core_0_STLB_cause_L1D_Prefetch_Cross_Page_miss 0
Core_0_STLB_cause_L1D_Prefetch_Cross_Page_miss_rate 0
Core_0_STLB_cause_L1I_Prefetch_miss 0
Core_0_STLB_cause_L1I_Prefetch_miss_rate 0
Core_0_STLB_cause_Other_miss 0
Core_0_STLB_cause_Other_miss_rate 0
Core_0_STLB_Demand_miss 3851742
Core_0_STLB_Demand_miss_rate 0.967043
Core_0_STLB_L1D_Prefetch_miss 0
Core_0_STLB_L1D_Prefetch_miss_rate 0
Core_0_STLB_Other_miss 0
Core_0_STLB_Other_miss_rate 0

========== vBerti-TLB Cross-page Flow Stats ==========

Core_0_vBerti_Requested 2112941
Core_0_vBerti_Cross_page_prefetch_in_Requested 0
Core_0_vBerti_Same_page_prefetch_in_Requested 2112941
Core_0_vBerti_Cross_page_prefetch_of_Requested 0
Core_0_vBerti_Issued 1909959
Core_0_vBerti_InPQ_Same_page_prefetch 1909959
Core_0_vBerti_InPQ_Cross_page_prefetch 0
Core_0_vBerti_PQ_Drop_Rate 0.0960661
Core_0_vBerti_InPQ_Cross_page_prefetch_of_Requested 0
Core_0_vBerti_Cross_page_PQ_Drop_rate 0
Core_0_vBerti_Cross_page_prefetch_of_Issued 0
Core_0_CP_PF_PQFULL_drop 0
Core_0_CP_PF_PQFULL_TLB_rescue_enqueued 0
Core_0_CP_PF_PQFULL_TLB_rescue_issued 0
Core_0_CP_PF_PQFULL_TLB_rescue_translated 0

========= DTLB_vBerti Prefetch Stats =========
Core_0_DTLB_demand_access 11215921
Core_0_DTLB_demand_hit 7033156
Core_0_DTLB_demand_miss 4182765
Core_0_DTLB_demand_mshr_merge 199755
Core_0_DTLB_demand_fill 3983011
Core_0_DTLB_demand_miss_rate 0.372931
Core_0_DTLB_demand_mpki 41.8276
Core_0_DTLB_vberti_prefetch_access 1434294
Core_0_DTLB_vberti_prefetch_hit 1434294
Core_0_DTLB_vberti_prefetch_miss 0
Core_0_DTLB_vberti_prefetch_mshr_merge 0
Core_0_DTLB_vberti_prefetch_fill 0
Core_0_DTLB_vberti_prefetch_miss_rate 0
Core_0_DTLB_vberti_prefetch_mpki 0

=== DTLB_vBerti Same/Cross-page Prefetch Stats ===
Core_0_DTLB_vberti_same_page_prefetch 1434294
Core_0_DTLB_vberti_same_page_prefetch_hit 1434294
Core_0_DTLB_vberti_same_page_prefetch_miss 0
Core_0_DTLB_vberti_same_page_prefetch_mshr_merge 0
Core_0_DTLB_vberti_same_page_prefetch_fill 0
Core_0_DTLB_vberti_same_page_prefetch_miss_rate 0
Core_0_DTLB_vberti_same_page_prefetch_mpki 0
Core_0_DTLB_vberti_cross_page_prefetch 0
Core_0_DTLB_vberti_cross_page_prefetch_hit 0
Core_0_DTLB_vberti_cross_page_prefetch_miss 0
Core_0_DTLB_vberti_cross_page_prefetch_mshr_merge 0
Core_0_DTLB_vberti_cross_page_prefetch_fill 0
Core_0_DTLB_vberti_cross_page_prefetch_miss_rate 0
Core_0_DTLB_vberti_cross_page_prefetch_mpki 0
Core_0_DTLB_same_page_prefetch_miss_rate 0
Core_0_DTLB_same_page_prefetch_mpki 0
Core_0_DTLB_cross_page_prefetch_miss_rate 0
Core_0_DTLB_cross_page_prefetch_mpki 0
Core_0_DTLB_cross_page_prefetch_issued 0
Core_0_DTLB_cross_page_prefetch_lookups 0
Core_0_DTLB_cross_page_prefetch_useful 0
Core_0_DTLB_cross_page_prefetch_useless 0
Core_0_DTLB_cross_page_prefetch_late 0
Core_0_DTLB_cross_page_prefetch_too_early 0
Core_0_DTLB_cross_page_prefetch_too_early_among_fill 0
Core_0_DTLB_cross_page_prefetch_too_early_among_useless 0
Core_0_DTLB_cross_page_prefetch_pollution_evict 0
Core_0_DTLB_cross_page_prefetch_pollution_demand 0
Core_0_DTLB_cross_page_prefetch_pollution_among_prefetch_fill 0
Core_0_DTLB_cross_page_prefetch_accuracy 0
Core_0_DTLB_cross_page_prefetch_coverage 0

========= STLB_vBerti Prefetch Stats =========
Core_0_STLB_demand_access 3983010
Core_0_STLB_demand_hit 131268
Core_0_STLB_demand_miss 3851742
Core_0_STLB_demand_mshr_merge 0
Core_0_STLB_demand_fill 3851743
Core_0_STLB_demand_miss_rate 0.967043
Core_0_STLB_demand_mpki 38.5174
Core_0_STLB_vberti_prefetch_access 0
Core_0_STLB_vberti_prefetch_hit 0
Core_0_STLB_vberti_prefetch_miss 0
Core_0_STLB_vberti_prefetch_mshr_merge 0
Core_0_STLB_vberti_prefetch_fill 0
Core_0_STLB_vberti_prefetch_miss_rate 0
Core_0_STLB_vberti_prefetch_mpki 0

=== STLB_vBerti Same/Cross-page Prefetch Stats ===
Core_0_STLB_vberti_same_page_prefetch 0
Core_0_STLB_vberti_same_page_prefetch_hit 0
Core_0_STLB_vberti_same_page_prefetch_miss 0
Core_0_STLB_vberti_same_page_prefetch_mshr_merge 0
Core_0_STLB_vberti_same_page_prefetch_fill 0
Core_0_STLB_vberti_same_page_prefetch_miss_rate 0
Core_0_STLB_vberti_same_page_prefetch_mpki 0
Core_0_STLB_vberti_cross_page_prefetch 0
Core_0_STLB_vberti_cross_page_prefetch_hit 0
Core_0_STLB_vberti_cross_page_prefetch_miss 0
Core_0_STLB_vberti_cross_page_prefetch_mshr_merge 0
Core_0_STLB_vberti_cross_page_prefetch_fill 0
Core_0_STLB_vberti_cross_page_prefetch_miss_rate 0
Core_0_STLB_vberti_cross_page_prefetch_mpki 0
Core_0_STLB_same_page_prefetch_miss_rate 0
Core_0_STLB_same_page_prefetch_mpki 0
Core_0_STLB_cross_page_prefetch_miss_rate 0
Core_0_STLB_cross_page_prefetch_mpki 0
Core_0_STLB_cross_page_prefetch_issued 0
Core_0_STLB_cross_page_prefetch_lookups 0
Core_0_STLB_cross_page_prefetch_useful 0
Core_0_STLB_cross_page_prefetch_useless 0
Core_0_STLB_cross_page_prefetch_late 0
Core_0_STLB_cross_page_prefetch_too_early 0
Core_0_STLB_cross_page_prefetch_too_early_among_fill 0
Core_0_STLB_cross_page_prefetch_too_early_among_useless 0
Core_0_STLB_cross_page_prefetch_pollution_evict 0
Core_0_STLB_cross_page_prefetch_pollution_demand 0
Core_0_STLB_cross_page_prefetch_pollution_among_prefetch_fill 0
Core_0_STLB_cross_page_prefetch_accuracy 0
Core_0_STLB_cross_page_prefetch_coverage 0

========= STLB Cross-page Prefetch Buffer Stats =========
Core_0_STLB_raw_demand_miss 3851742
Core_0_CP_PB_insert 0
Core_0_CP_PB_demand_hit 0
Core_0_STLB_PB_demand_miss 3851742
Core_0_CP_PB_coverage 0
Core_0_STLB_raw_demand_mpki 38.5174
Core_0_STLB_PB_demand_mpki 38.5174
Core_0_CP_PB_demand_hit_mpki 0

Core_0_TLB_demand_miss_rate 0.343417
Core_0_TLB_demand_mpki 38.5174
Core_0_TLB_same_page_prefetch_miss_rate 0
Core_0_TLB_same_page_prefetch_mpki 0
Core_0_TLB_cross_page_prefetch_miss_rate 0
Core_0_TLB_cross_page_prefetch_mpki 0
Core_0_TLB_cross_page_prefetch_issued 0
Core_0_TLB_cross_page_prefetch_lookups 0
Core_0_TLB_cross_page_prefetch_useful 0
Core_0_TLB_cross_page_prefetch_useless 0
Core_0_TLB_cross_page_prefetch_late 0
Core_0_TLB_cross_page_prefetch_too_early 0
Core_0_TLB_cross_page_prefetch_too_early_among_fill 0
Core_0_TLB_cross_page_prefetch_too_early_among_useless 0
Core_0_TLB_cross_page_prefetch_accuracy 0
Core_0_TLB_cross_page_prefetch_coverage 0
====== vBerti internal metric ========
BERTI TO_L1: 863715 TO_L2: 1249226 TO_L2_BC_MSHR: 0
BERTI AVG_LAT: 175.553 NUM_TRACK_LATENCY: 6044368 NUM_CANT_TRACK_LATENCY: 0
BERTI CROSS_PAGE 286471 NO_CROSS_PAGE: 2112941
BERTI FOUND_BERTI: 8806883 NO_FOUND_BERTI: 2553944
BERTI AVERAGE_ISSUED: 3.10381
