[VMEM] WARNING: physical memory size is smaller than virtual memory size.

*** ChampSim Multicore Out-of-Order Simulator ***
Warmup Instructions: 50000000
Simulation Instructions: 100000000
Number of CPUs: 1
Page size: 4096
Core 0: /data2/zcq/champsim_traces_xsbench/xs.XXL100hash-94B.champsimtrace.xz
VBerti Prefetcher
No Crossing Page
BERTI HASH ENTANGLING
BERTI IP MASK ffff
Off-chip DRAM Size: 16 GiB Channels: 1 Width: 64-bit Data Rate: 3205 MT/s
Warmup halting CPU 0 at instruction 50000001 cycle 12648458 for remainder of phase
Warmup finished CPU 0 instructions: 50000001 cycles: 12648458 cumulative IPC: 3.953 (Simulation time: 00 hr 02 min 29 sec)
Warmup complete CPU 0 instructions: 50000001 cycles: 12648458 cumulative IPC: 3.953 (Simulation time: 00 hr 02 min 29 sec)
Simulation finished CPU 0 instructions: 100000003 cycles: 199526752 cumulative IPC: 0.5012 (Simulation time: 00 hr 19 min 19 sec)
Simulation complete CPU 0 instructions: 100000003 cycles: 199526752 cumulative IPC: 0.5012 (Simulation time: 00 hr 19 min 19 sec)

ChampSim completed all CPUs

=== Simulation ===
CPU 0 runs /data2/zcq/champsim_traces_xsbench/xs.XXL100hash-94B.champsimtrace.xz

Region of Interest Statistics

CPU 0 cumulative IPC: 0.5012 instructions: 100000003 cycles: 199526752
CPU 0 Branch Prediction Accuracy: 92.62% MPKI: 17.95 Average ROB Occupancy at Mispredict: 28.97
Branch type MPKI
BRANCH_DIRECT_JUMP: 0
BRANCH_INDIRECT: 0
BRANCH_CONDITIONAL: 17.95
BRANCH_DIRECT_CALL: 0
BRANCH_INDIRECT_CALL: 1e-05
BRANCH_RETURN: 0.00071

cpu0->cpu0_STLB TOTAL        ACCESS:    1036053 HIT:     905112 MISS:     130941 MSHR_MERGE:          0
cpu0->cpu0_STLB LOAD         ACCESS:    1036053 HIT:     905112 MISS:     130941 MSHR_MERGE:          0
cpu0->cpu0_STLB RFO          ACCESS:          0 HIT:          0 MISS:          0 MSHR_MERGE:          0
cpu0->cpu0_STLB PREFETCH     ACCESS:          0 HIT:          0 MISS:          0 MSHR_MERGE:          0
cpu0->cpu0_STLB WRITE        ACCESS:          0 HIT:          0 MISS:          0 MSHR_MERGE:          0
cpu0->cpu0_STLB TRANSLATION  ACCESS:          0 HIT:          0 MISS:          0 MSHR_MERGE:          0
cpu0->cpu0_STLB PREFETCH REQUESTED:          0 ISSUED:          0 USEFUL:          0 USELESS:          0 LATE:          0 TOO_EARLY:          0
cpu0->cpu0_STLB AVERAGE MISS LATENCY: 24.92 cycles
cpu0->cpu0_L2C TOTAL        ACCESS:    8352964 HIT:    6316434 MISS:    2036530 MSHR_MERGE:     264084
cpu0->cpu0_L2C LOAD         ACCESS:    1909875 HIT:     761968 MISS:    1147907 MSHR_MERGE:      37167
cpu0->cpu0_L2C RFO          ACCESS:      96414 HIT:      65180 MISS:      31234 MSHR_MERGE:       3428
cpu0->cpu0_L2C PREFETCH     ACCESS:    5796876 HIT:    4942043 MISS:     854833 MSHR_MERGE:     223489
cpu0->cpu0_L2C WRITE        ACCESS:     475507 HIT:     475453 MISS:         54 MSHR_MERGE:          0
cpu0->cpu0_L2C TRANSLATION  ACCESS:      74292 HIT:      71790 MISS:       2502 MSHR_MERGE:          0
cpu0->cpu0_L2C PREFETCH REQUESTED:    1601086 ISSUED:    1557156 USEFUL:     204909 USELESS:       3347 LATE:      32979 TOO_EARLY:        957
cpu0->cpu0_L2C AVERAGE MISS LATENCY: 155 cycles
cpu0->cpu0_L1I TOTAL        ACCESS:    1435315 HIT:    1435315 MISS:          0 MSHR_MERGE:          0
cpu0->cpu0_L1I LOAD         ACCESS:    1435315 HIT:    1435315 MISS:          0 MSHR_MERGE:          0
cpu0->cpu0_L1I RFO          ACCESS:          0 HIT:          0 MISS:          0 MSHR_MERGE:          0
cpu0->cpu0_L1I PREFETCH     ACCESS:          0 HIT:          0 MISS:          0 MSHR_MERGE:          0
cpu0->cpu0_L1I WRITE        ACCESS:          0 HIT:          0 MISS:          0 MSHR_MERGE:          0
cpu0->cpu0_L1I TRANSLATION  ACCESS:          0 HIT:          0 MISS:          0 MSHR_MERGE:          0
cpu0->cpu0_L1I PREFETCH REQUESTED:          0 ISSUED:          0 USEFUL:          0 USELESS:          0 LATE:          0 TOO_EARLY:          0
cpu0->cpu0_L1I AVERAGE MISS LATENCY: - cycles
cpu0->cpu0_L1D TOTAL        ACCESS:   72283117 HIT:   65283399 MISS:    6999718 MSHR_MERGE:     657556
cpu0->cpu0_L1D LOAD         ACCESS:   23133322 HIT:   20889643 MISS:    2243679 MSHR_MERGE:     333804
cpu0->cpu0_L1D RFO          ACCESS:          0 HIT:          0 MISS:          0 MSHR_MERGE:          0
cpu0->cpu0_L1D PREFETCH     ACCESS:   36463612 HIT:   32180011 MISS:    4283601 MSHR_MERGE:      22020
cpu0->cpu0_L1D WRITE        ACCESS:   12424371 HIT:   12026258 MISS:     398113 MSHR_MERGE:     301699
cpu0->cpu0_L1D TRANSLATION  ACCESS:     261812 HIT:     187487 MISS:      74325 MSHR_MERGE:         33
cpu0->cpu0_L1D PREFETCH REQUESTED:  133029273 ISSUED:   36463604 USEFUL:     664187 USELESS:       9935 LATE:      14570 TOO_EARLY:       4329
cpu0->cpu0_L1D AVERAGE MISS LATENCY: 97.3 cycles
cpu0->cpu0_ITLB TOTAL        ACCESS:    1361764 HIT:    1361764 MISS:          0 MSHR_MERGE:          0
cpu0->cpu0_ITLB LOAD         ACCESS:    1361764 HIT:    1361764 MISS:          0 MSHR_MERGE:          0
cpu0->cpu0_ITLB RFO          ACCESS:          0 HIT:          0 MISS:          0 MSHR_MERGE:          0
cpu0->cpu0_ITLB PREFETCH     ACCESS:          0 HIT:          0 MISS:          0 MSHR_MERGE:          0
cpu0->cpu0_ITLB WRITE        ACCESS:          0 HIT:          0 MISS:          0 MSHR_MERGE:          0
cpu0->cpu0_ITLB TRANSLATION  ACCESS:          0 HIT:          0 MISS:          0 MSHR_MERGE:          0
cpu0->cpu0_ITLB PREFETCH REQUESTED:          0 ISSUED:          0 USEFUL:          0 USELESS:          0 LATE:          0 TOO_EARLY:          0
cpu0->cpu0_ITLB AVERAGE MISS LATENCY: - cycles
cpu0->cpu0_DTLB TOTAL        ACCESS:   57174028 HIT:   56068642 MISS:    1105386 MSHR_MERGE:      69334
cpu0->cpu0_DTLB LOAD         ACCESS:   57174028 HIT:   56068642 MISS:    1105386 MSHR_MERGE:      69334
cpu0->cpu0_DTLB RFO          ACCESS:          0 HIT:          0 MISS:          0 MSHR_MERGE:          0
cpu0->cpu0_DTLB PREFETCH     ACCESS:          0 HIT:          0 MISS:          0 MSHR_MERGE:          0
cpu0->cpu0_DTLB WRITE        ACCESS:          0 HIT:          0 MISS:          0 MSHR_MERGE:          0
cpu0->cpu0_DTLB TRANSLATION  ACCESS:          0 HIT:          0 MISS:          0 MSHR_MERGE:          0
cpu0->cpu0_DTLB PREFETCH REQUESTED:          0 ISSUED:          0 USEFUL:          0 USELESS:          0 LATE:          0 TOO_EARLY:          0
cpu0->cpu0_DTLB AVERAGE MISS LATENCY: 8.28 cycles
cpu0->LLC TOTAL        ACCESS:    2083917 HIT:     820768 MISS:    1263149 MSHR_MERGE:      27416
cpu0->LLC LOAD         ACCESS:    1110739 HIT:     394539 MISS:     716200 MSHR_MERGE:       5449
cpu0->LLC RFO          ACCESS:      27806 HIT:       9598 MISS:      18208 MSHR_MERGE:        121
cpu0->LLC PREFETCH     ACCESS:     631329 HIT:     204276 MISS:     427053 MSHR_MERGE:      21846
cpu0->LLC WRITE        ACCESS:     311541 HIT:     212243 MISS:      99298 MSHR_MERGE:          0
cpu0->LLC TRANSLATION  ACCESS:       2502 HIT:        112 MISS:       2390 MSHR_MERGE:          0
cpu0->LLC PREFETCH REQUESTED:          0 ISSUED:          0 USEFUL:          0 USELESS:          0 LATE:          0 TOO_EARLY:          0
cpu0->LLC AVERAGE MISS LATENCY: 187.4 cycles

DRAM Statistics

Channel 0 RQ ROW_BUFFER_HIT:      32410
  ROW_BUFFER_MISS:    1103240
  AVG DBUS CONGESTED CYCLE: 11.94
Channel 0 WQ ROW_BUFFER_HIT:      40579
  ROW_BUFFER_MISS:     144109
  FULL:        505
Channel 0 REFRESHES ISSUED:      16627

[ROI Statistics]
[System Configuration]
num_cpus 1
cpu_freq 4000
fetch_width 6
decode_width 6
dispatch_width 6
execute_width 6
lq_width 2
sq_width 2
retire_width 6
scheduler_size 128
branch_mispredict_penalty 15
rob_size 352
lq_size 128
sq_size 72
ifetch_buffer_size 64
decode_buffer_size 32
dispatch_buffer_size 32
register_file_size 288
decode_latency 1
dispatch_latency 1
schedule_latency 1
execute_latency 1
page_size 4096
block_size 64
core_0_itlb_set 16
core_0_itlb_way 4
core_0_itlb_rq_size 16
core_0_itlb_wq_size 16
core_0_itlb_pq_size 0
core_0_itlb_mshr_size 8
core_0_itlb_hit_latency 1
core_0_itlb_fill_latency 1
core_0_itlb_max_tag_check 2
core_0_itlb_max_fill 2
core_0_dtlb_set 16
core_0_dtlb_way 4
core_0_dtlb_rq_size 16
core_0_dtlb_wq_size 16
core_0_dtlb_pq_size 0
core_0_dtlb_mshr_size 8
core_0_dtlb_hit_latency 1
core_0_dtlb_fill_latency 1
core_0_dtlb_max_tag_check 2
core_0_dtlb_max_fill 2
core_0_stlb_set 128
core_0_stlb_way 12
core_0_stlb_rq_size 32
core_0_stlb_wq_size 32
core_0_stlb_pq_size 0
core_0_stlb_mshr_size 16
core_0_stlb_hit_latency 4
core_0_stlb_fill_latency 4
core_0_stlb_max_tag_check 1
core_0_stlb_max_fill 1
core_0_l1i_set 64
core_0_l1i_way 8
core_0_l1i_rq_size 64
core_0_l1i_wq_size 64
core_0_l1i_pq_size 32
core_0_l1i_mshr_size 8
core_0_l1i_hit_latency 2
core_0_l1i_fill_latency 2
core_0_l1i_max_tag_check 2
core_0_l1i_max_fill 2
core_0_l1d_set 64
core_0_l1d_way 12
core_0_l1d_rq_size 64
core_0_l1d_wq_size 64
core_0_l1d_pq_size 8
core_0_l1d_mshr_size 16
core_0_l1d_hit_latency 2
core_0_l1d_fill_latency 3
core_0_l1d_max_tag_check 2
core_0_l1d_max_fill 2
core_0_l2c_set 1024
core_0_l2c_way 8
core_0_l2c_rq_size 32
core_0_l2c_wq_size 32
core_0_l2c_pq_size 16
core_0_l2c_mshr_size 32
core_0_l2c_hit_latency 5
core_0_l2c_fill_latency 5
core_0_l2c_max_tag_check 1
core_0_l2c_max_fill 1
llc_set 2048
llc_way 16
llc_rq_size 32
llc_wq_size 32
llc_pq_size 32
llc_mshr_size 64
llc_hit_latency 10
llc_fill_latency 10
llc_max_tag_check 1
llc_max_fill 1
dram_channels 1
dram_ranks 1
dram_bankgroups 8
dram_banks 4
dram_rows 65536
dram_columns 1024
dram_channel_width 8
dram_rq_size 64
dram_wq_size 64
dram_size 17179869184
core_0_itlb_prefetcher no
core_0_dtlb_prefetcher no
core_0_stlb_prefetcher no
core_0_l1i_prefetcher next_line
core_0_l1d_prefetcher vberti_nocross
core_0_l2c_prefetcher ip_stride
llc_prefetcher no
llc_replacement drrip

Core_0_instructions 100000003
Core_0_cycles 199526752
Core_0_IPC 0.501186
Core_0_branch_prediction_accuracy 92.6239
Core_0_branch_MPKI 17.9488
Core_0_average_ROB_occupancy_at_mispredict 28.9745

Core_0_ITLB_total_access 1361764
Core_0_ITLB_total_hit 1361764
Core_0_ITLB_total_miss 0
Core_0_ITLB_total_MPKI 0
Core_0_ITLB_total_miss_rate 0
Core_0_ITLB_demand_access 1361764
Core_0_ITLB_demand_hit 1361764
Core_0_ITLB_demand_miss 0
Core_0_ITLB_demand_MPKI 0
Core_0_ITLB_demand_miss_rate 0
Core_0_ITLB_load_access 1361764
Core_0_ITLB_load_hit 1361764
Core_0_ITLB_load_miss 0
Core_0_ITLB_load_MPKI 0
Core_0_ITLB_load_miss_rate 0
Core_0_ITLB_rfo_access 0
Core_0_ITLB_rfo_hit 0
Core_0_ITLB_rfo_miss 0
Core_0_ITLB_rfo_MPKI 0
Core_0_ITLB_rfo_miss_rate 0
Core_0_ITLB_prefetch_access 0
Core_0_ITLB_prefetch_hit 0
Core_0_ITLB_prefetch_miss 0
Core_0_ITLB_prefetch_MPKI 0
Core_0_ITLB_prefetch_miss_rate 0
Core_0_ITLB_writeback_access 0
Core_0_ITLB_writeback_hit 0
Core_0_ITLB_writeback_miss 0
Core_0_ITLB_writeback_MPKI 0
Core_0_ITLB_writeback_miss_rate 0
Core_0_ITLB_prefetch_requested 0
Core_0_ITLB_prefetch_issued 0
Core_0_ITLB_prefetch_useful 0
Core_0_ITLB_prefetch_useless 0
Core_0_ITLB_prefetch_late 0
Core_0_ITLB_prefetch_fill 0
Core_0_ITLB_prefetch_too_early 0
Core_0_ITLB_prefetch_too_early_among_fill 0
Core_0_ITLB_prefetch_too_early_among_useless 0
Core_0_ITLB_prefetch_pollution_evict 0
Core_0_ITLB_prefetch_pollution_demand 0
Core_0_ITLB_prefetch_pollution_among_prefetch_fill 0
Core_0_ITLB_prefetch_accuracy 0
Core_0_ITLB_prefetch_coverage 0

Core_0_DTLB_total_access 57174028
Core_0_DTLB_total_hit 56068642
Core_0_DTLB_total_miss 1105386
Core_0_DTLB_total_MPKI 11.0539
Core_0_DTLB_total_miss_rate 0.0193337
Core_0_DTLB_demand_access 57174028
Core_0_DTLB_demand_hit 56068642
Core_0_DTLB_demand_miss 1105386
Core_0_DTLB_demand_MPKI 11.0539
Core_0_DTLB_demand_miss_rate 0.0193337
Core_0_DTLB_load_access 57174028
Core_0_DTLB_load_hit 56068642
Core_0_DTLB_load_miss 1105386
Core_0_DTLB_load_MPKI 11.0539
Core_0_DTLB_load_miss_rate 0.0193337
Core_0_DTLB_rfo_access 0
Core_0_DTLB_rfo_hit 0
Core_0_DTLB_rfo_miss 0
Core_0_DTLB_rfo_MPKI 0
Core_0_DTLB_rfo_miss_rate 0
Core_0_DTLB_prefetch_access 0
Core_0_DTLB_prefetch_hit 0
Core_0_DTLB_prefetch_miss 0
Core_0_DTLB_prefetch_MPKI 0
Core_0_DTLB_prefetch_miss_rate 0
Core_0_DTLB_writeback_access 0
Core_0_DTLB_writeback_hit 0
Core_0_DTLB_writeback_miss 0
Core_0_DTLB_writeback_MPKI 0
Core_0_DTLB_writeback_miss_rate 0
Core_0_DTLB_prefetch_requested 0
Core_0_DTLB_prefetch_issued 0
Core_0_DTLB_prefetch_useful 0
Core_0_DTLB_prefetch_useless 0
Core_0_DTLB_prefetch_late 0
Core_0_DTLB_prefetch_fill 0
Core_0_DTLB_prefetch_too_early 0
Core_0_DTLB_prefetch_too_early_among_fill 0
Core_0_DTLB_prefetch_too_early_among_useless 0
Core_0_DTLB_prefetch_pollution_evict 0
Core_0_DTLB_prefetch_pollution_demand 0
Core_0_DTLB_prefetch_pollution_among_prefetch_fill 0
Core_0_DTLB_prefetch_accuracy 0
Core_0_DTLB_prefetch_coverage 0

Core_0_STLB_total_access 1036053
Core_0_STLB_total_hit 905112
Core_0_STLB_total_miss 130941
Core_0_STLB_total_MPKI 1.30941
Core_0_STLB_total_miss_rate 0.126384
Core_0_STLB_demand_access 1036053
Core_0_STLB_demand_hit 905112
Core_0_STLB_demand_miss 130941
Core_0_STLB_demand_MPKI 1.30941
Core_0_STLB_demand_miss_rate 0.126384
Core_0_STLB_load_access 1036053
Core_0_STLB_load_hit 905112
Core_0_STLB_load_miss 130941
Core_0_STLB_load_MPKI 1.30941
Core_0_STLB_load_miss_rate 0.126384
Core_0_STLB_rfo_access 0
Core_0_STLB_rfo_hit 0
Core_0_STLB_rfo_miss 0
Core_0_STLB_rfo_MPKI 0
Core_0_STLB_rfo_miss_rate 0
Core_0_STLB_prefetch_access 0
Core_0_STLB_prefetch_hit 0
Core_0_STLB_prefetch_miss 0
Core_0_STLB_prefetch_MPKI 0
Core_0_STLB_prefetch_miss_rate 0
Core_0_STLB_writeback_access 0
Core_0_STLB_writeback_hit 0
Core_0_STLB_writeback_miss 0
Core_0_STLB_writeback_MPKI 0
Core_0_STLB_writeback_miss_rate 0
Core_0_STLB_prefetch_requested 0
Core_0_STLB_prefetch_issued 0
Core_0_STLB_prefetch_useful 0
Core_0_STLB_prefetch_useless 0
Core_0_STLB_prefetch_late 0
Core_0_STLB_prefetch_fill 0
Core_0_STLB_prefetch_too_early 0
Core_0_STLB_prefetch_too_early_among_fill 0
Core_0_STLB_prefetch_too_early_among_useless 0
Core_0_STLB_prefetch_pollution_evict 0
Core_0_STLB_prefetch_pollution_demand 0
Core_0_STLB_prefetch_pollution_among_prefetch_fill 0
Core_0_STLB_prefetch_accuracy 0
Core_0_STLB_prefetch_coverage 0

Core_0_L1I_total_access 1435315
Core_0_L1I_total_hit 1435315
Core_0_L1I_total_miss 0
Core_0_L1I_total_MPKI 0
Core_0_L1I_total_miss_rate 0
Core_0_L1I_demand_access 1435315
Core_0_L1I_demand_hit 1435315
Core_0_L1I_demand_miss 0
Core_0_L1I_demand_MPKI 0
Core_0_L1I_demand_miss_rate 0
Core_0_L1I_load_access 1435315
Core_0_L1I_load_hit 1435315
Core_0_L1I_load_miss 0
Core_0_L1I_load_MPKI 0
Core_0_L1I_load_miss_rate 0
Core_0_L1I_rfo_access 0
Core_0_L1I_rfo_hit 0
Core_0_L1I_rfo_miss 0
Core_0_L1I_rfo_MPKI 0
Core_0_L1I_rfo_miss_rate 0
Core_0_L1I_prefetch_access 0
Core_0_L1I_prefetch_hit 0
Core_0_L1I_prefetch_miss 0
Core_0_L1I_prefetch_MPKI 0
Core_0_L1I_prefetch_miss_rate 0
Core_0_L1I_writeback_access 0
Core_0_L1I_writeback_hit 0
Core_0_L1I_writeback_miss 0
Core_0_L1I_writeback_MPKI 0
Core_0_L1I_writeback_miss_rate 0
Core_0_L1I_prefetch_requested 0
Core_0_L1I_prefetch_issued 0
Core_0_L1I_prefetch_useful 0
Core_0_L1I_prefetch_useless 0
Core_0_L1I_prefetch_late 0
Core_0_L1I_prefetch_fill 0
Core_0_L1I_prefetch_too_early 0
Core_0_L1I_prefetch_too_early_among_fill 0
Core_0_L1I_prefetch_too_early_among_useless 0
Core_0_L1I_prefetch_pollution_evict 0
Core_0_L1I_prefetch_pollution_demand 0
Core_0_L1I_prefetch_pollution_among_prefetch_fill 0
Core_0_L1I_prefetch_accuracy 0
Core_0_L1I_prefetch_coverage 0

Core_0_L1D_total_access 72021305
Core_0_L1D_total_hit 65095912
Core_0_L1D_total_miss 6925393
Core_0_L1D_total_MPKI 69.2539
Core_0_L1D_total_miss_rate 0.0961576
Core_0_L1D_demand_access 23133322
Core_0_L1D_demand_hit 20889643
Core_0_L1D_demand_miss 2243679
Core_0_L1D_demand_MPKI 22.4368
Core_0_L1D_demand_miss_rate 0.0969891
Core_0_L1D_load_access 23133322
Core_0_L1D_load_hit 20889643
Core_0_L1D_load_miss 2243679
Core_0_L1D_load_MPKI 22.4368
Core_0_L1D_load_miss_rate 0.0969891
Core_0_L1D_rfo_access 0
Core_0_L1D_rfo_hit 0
Core_0_L1D_rfo_miss 0
Core_0_L1D_rfo_MPKI 0
Core_0_L1D_rfo_miss_rate 0
Core_0_L1D_prefetch_access 36463612
Core_0_L1D_prefetch_hit 32180011
Core_0_L1D_prefetch_miss 4283601
Core_0_L1D_prefetch_MPKI 42.836
Core_0_L1D_prefetch_miss_rate 0.117476
Core_0_L1D_writeback_access 12424371
Core_0_L1D_writeback_hit 12026258
Core_0_L1D_writeback_miss 398113
Core_0_L1D_writeback_MPKI 3.98113
Core_0_L1D_writeback_miss_rate 0.0320429
Core_0_L1D_prefetch_requested 133029273
Core_0_L1D_prefetch_issued 36463604
Core_0_L1D_prefetch_useful 664187
Core_0_L1D_prefetch_useless 9935
Core_0_L1D_prefetch_late 14570
Core_0_L1D_prefetch_fill 659559
Core_0_L1D_prefetch_too_early 4329
Core_0_L1D_prefetch_too_early_among_fill 0.00656348
Core_0_L1D_prefetch_too_early_among_useless 0.435732
Core_0_L1D_prefetch_pollution_evict 111287
Core_0_L1D_prefetch_pollution_demand 110666
Core_0_L1D_prefetch_pollution_among_prefetch_fill 0.168729
Core_0_L1D_prefetch_accuracy 0.0182151
Core_0_L1D_prefetch_coverage 0.22841

Core_0_L2C_total_access 8278672
Core_0_L2C_total_hit 6244644
Core_0_L2C_total_miss 2034028
Core_0_L2C_total_MPKI 20.3403
Core_0_L2C_total_miss_rate 0.245695
Core_0_L2C_demand_access 2006289
Core_0_L2C_demand_hit 827148
Core_0_L2C_demand_miss 1179141
Core_0_L2C_demand_MPKI 11.7914
Core_0_L2C_demand_miss_rate 0.587722
Core_0_L2C_load_access 1909875
Core_0_L2C_load_hit 761968
Core_0_L2C_load_miss 1147907
Core_0_L2C_load_MPKI 11.4791
Core_0_L2C_load_miss_rate 0.601038
Core_0_L2C_rfo_access 96414
Core_0_L2C_rfo_hit 65180
Core_0_L2C_rfo_miss 31234
Core_0_L2C_rfo_MPKI 0.31234
Core_0_L2C_rfo_miss_rate 0.323957
Core_0_L2C_prefetch_access 5796876
Core_0_L2C_prefetch_hit 4942043
Core_0_L2C_prefetch_miss 854833
Core_0_L2C_prefetch_MPKI 8.54833
Core_0_L2C_prefetch_miss_rate 0.147464
Core_0_L2C_writeback_access 475507
Core_0_L2C_writeback_hit 475453
Core_0_L2C_writeback_miss 54
Core_0_L2C_writeback_MPKI 0.00054
Core_0_L2C_writeback_miss_rate 0.000113563
Core_0_L2C_prefetch_requested 1601086
Core_0_L2C_prefetch_issued 1557156
Core_0_L2C_prefetch_useful 204909
Core_0_L2C_prefetch_useless 3347
Core_0_L2C_prefetch_late 32979
Core_0_L2C_prefetch_fill 548420
Core_0_L2C_prefetch_too_early 957
Core_0_L2C_prefetch_too_early_among_fill 0.00174501
Core_0_L2C_prefetch_too_early_among_useless 0.285928
Core_0_L2C_prefetch_pollution_evict 134011
Core_0_L2C_prefetch_pollution_demand 133961
Core_0_L2C_prefetch_pollution_among_prefetch_fill 0.244358
Core_0_L2C_prefetch_accuracy 0.131592
Core_0_L2C_prefetch_coverage 0.14805

Core_0_LLC_total_access 2081415
Core_0_LLC_total_hit 820656
Core_0_LLC_total_miss 1260759
Core_0_LLC_total_MPKI 12.6076
Core_0_LLC_total_miss_rate 0.605722
Core_0_LLC_demand_access 1138545
Core_0_LLC_demand_hit 404137
Core_0_LLC_demand_miss 734408
Core_0_LLC_demand_MPKI 7.34408
Core_0_LLC_demand_miss_rate 0.645041
Core_0_LLC_load_access 1110739
Core_0_LLC_load_hit 394539
Core_0_LLC_load_miss 716200
Core_0_LLC_load_MPKI 7.162
Core_0_LLC_load_miss_rate 0.644796
Core_0_LLC_rfo_access 27806
Core_0_LLC_rfo_hit 9598
Core_0_LLC_rfo_miss 18208
Core_0_LLC_rfo_MPKI 0.18208
Core_0_LLC_rfo_miss_rate 0.654823
Core_0_LLC_prefetch_access 631329
Core_0_LLC_prefetch_hit 204276
Core_0_LLC_prefetch_miss 427053
Core_0_LLC_prefetch_MPKI 4.27053
Core_0_LLC_prefetch_miss_rate 0.676435
Core_0_LLC_writeback_access 311541
Core_0_LLC_writeback_hit 212243
Core_0_LLC_writeback_miss 99298
Core_0_LLC_writeback_MPKI 0.99298
Core_0_LLC_writeback_miss_rate 0.318732
Core_0_LLC_prefetch_requested 0
Core_0_LLC_prefetch_issued 0
Core_0_LLC_prefetch_useful 0
Core_0_LLC_prefetch_useless 0
Core_0_LLC_prefetch_late 0
Core_0_LLC_prefetch_fill 399637
Core_0_LLC_prefetch_too_early 0
Core_0_LLC_prefetch_too_early_among_fill 0
Core_0_LLC_prefetch_too_early_among_useless 0
Core_0_LLC_prefetch_pollution_evict 132654
Core_0_LLC_prefetch_pollution_demand 132654
Core_0_LLC_prefetch_pollution_among_prefetch_fill 0.331936
Core_0_LLC_prefetch_accuracy 0
Core_0_LLC_prefetch_coverage 0

[DRAM Statistics]
Channel_0_RQ_row_buffer_hit 32410
Channel_0_RQ_row_buffer_miss 1103240
Channel_0_WQ_row_buffer_hit 40579
Channel_0_WQ_row_buffer_miss 144109
Channel_0_WQ_full 505
Channel_0_dbus_congested 2984936
DRAM_total_RQ_row_buffer_hit 32410
DRAM_total_RQ_row_buffer_miss 1103240
DRAM_total_WQ_row_buffer_hit 40579
DRAM_total_WQ_row_buffer_miss 144109
DRAM_total_WQ_full 505
DRAM_total_dbus_congested 2984936
DRAM_avg_congested_cycle 11.9433

====== DRAM_RQ_TRAFFIC ========
DRAM_RQ_READ_TRAFFIC_BREAKDOWN:
data_demand_read.count = 728838
data_demand_read.share = 64.13%

inst_demand_read.count = 0
inst_demand_read.share = 0.00%

cache_inst_prefetch.count = 0
cache_inst_prefetch.share = 0.00%

cache_data_prefetch.count = 405207
cache_data_prefetch.share = 35.66%

stlb_data_demand.count = 2390
stlb_data_demand.share = 0.21%

stlb_inst_demand.count = 0
stlb_inst_demand.share = 0.00%

stlb_l1i_pref.count = 0
stlb_l1i_pref.share = 0.00%

stlb_l1d_pref.count = 0
stlb_l1d_pref.share = 0.00%

DRAM_RQ_READ_TRAFFIC_SUMMARY:
cache_demand.count = 728838
cache_demand.share = 64.13%

cache_prefetch.count = 405207
cache_prefetch.share = 35.66%

stlb_demand.count = 2390
stlb_demand.share = 0.21%

stlb_prefetch.count = 0
stlb_prefetch.share = 0.00%

DRAM_RQ_READ_TRAFFIC_DEBUG:
total_classified_read.count = 1136435
unclassified_read.count = 0
total_read_with_other.count = 1136435

classified_plus_unclassified_check.count = 1136435
dram_rq_read_total_observed.count = 1136435
dram_rq_read_total_observed.per_1K_instructions = 11.3643

STLB_MISS_PTW_DRAM_TOUCH_BREAKDOWN:
stlb_miss_total.count = 130941

stlb_miss_touch_dram.count = 2385
stlb_miss_touch_dram.share = 1.82%

stlb_miss_no_dram_touch.count = 128556
stlb_miss_no_dram_touch.share = 98.18%

STLB_MISS_PTW_DRAM_TOUCH_DEBUG:
stlb_miss_touch_plus_no_touch.count = 130941
stlb_miss_total_check.count = 130941

======STLB miss causes ========
Core_0_STLB_miss_cause_breakdown
Core_0_STLB_cause_Demand_Data_miss 130941
Core_0_STLB_cause_Demand_Data_miss_rate 0.126384
Core_0_STLB_cause_Demand_Instruction_miss 0
Core_0_STLB_cause_Demand_Instruction_miss_rate 0
Core_0_STLB_cause_L1D_Prefetch_miss 0
Core_0_STLB_cause_L1D_Prefetch_miss_rate 0
Core_0_STLB_cause_L1D_Prefetch_Same_Page_miss 0
Core_0_STLB_cause_L1D_Prefetch_Same_Page_miss_rate 0
Core_0_STLB_cause_L1D_Prefetch_Cross_Page_miss 0
Core_0_STLB_cause_L1D_Prefetch_Cross_Page_miss_rate 0
Core_0_STLB_cause_L1I_Prefetch_miss 0
Core_0_STLB_cause_L1I_Prefetch_miss_rate 0
Core_0_STLB_cause_Other_miss 0
Core_0_STLB_cause_Other_miss_rate 0
Core_0_STLB_Demand_miss 130941
Core_0_STLB_Demand_miss_rate 0.126384
Core_0_STLB_L1D_Prefetch_miss 0
Core_0_STLB_L1D_Prefetch_miss_rate 0
Core_0_STLB_Other_miss 0
Core_0_STLB_Other_miss_rate 0

========== vBerti-TLB Cross-page Flow Stats ==========

Core_0_vBerti_Requested 133029273
Core_0_vBerti_Cross_page_prefetch_in_Requested 0
Core_0_vBerti_Same_page_prefetch_in_Requested 133029273
Core_0_vBerti_Cross_page_prefetch_of_Requested 0
Core_0_vBerti_Issued 36463604
Core_0_vBerti_InPQ_Same_page_prefetch 36463604
Core_0_vBerti_InPQ_Cross_page_prefetch 0
Core_0_vBerti_PQ_Drop_Rate 0.725898
Core_0_vBerti_InPQ_Cross_page_prefetch_of_Requested 0
Core_0_vBerti_Cross_page_PQ_Drop_rate 0
Core_0_vBerti_Cross_page_prefetch_of_Issued 0
Core_0_CP_PF_PQFULL_drop 0
Core_0_CP_PF_PQFULL_TLB_rescue_enqueued 0
Core_0_CP_PF_PQFULL_TLB_rescue_issued 0
Core_0_CP_PF_PQFULL_TLB_rescue_translated 0

========= DTLB_vBerti Prefetch Stats =========
Core_0_DTLB_demand_access 33611837
Core_0_DTLB_demand_hit 32506516
Core_0_DTLB_demand_miss 1105321
Core_0_DTLB_demand_mshr_merge 69313
Core_0_DTLB_demand_fill 1036012
Core_0_DTLB_demand_miss_rate 0.0328849
Core_0_DTLB_demand_mpki 11.0532
Core_0_DTLB_vberti_prefetch_access 23562191
Core_0_DTLB_vberti_prefetch_hit 23562126
Core_0_DTLB_vberti_prefetch_miss 65
Core_0_DTLB_vberti_prefetch_mshr_merge 21
Core_0_DTLB_vberti_prefetch_fill 41
Core_0_DTLB_vberti_prefetch_miss_rate 2.75866e-06
Core_0_DTLB_vberti_prefetch_mpki 0.00065

=== DTLB_vBerti Same/Cross-page Prefetch Stats ===
Core_0_DTLB_vberti_same_page_prefetch 23562191
Core_0_DTLB_vberti_same_page_prefetch_hit 23562126
Core_0_DTLB_vberti_same_page_prefetch_miss 65
Core_0_DTLB_vberti_same_page_prefetch_mshr_merge 21
Core_0_DTLB_vberti_same_page_prefetch_fill 41
Core_0_DTLB_vberti_same_page_prefetch_miss_rate 2.75866e-06
Core_0_DTLB_vberti_same_page_prefetch_mpki 0.00065
Core_0_DTLB_vberti_cross_page_prefetch 0
Core_0_DTLB_vberti_cross_page_prefetch_hit 0
Core_0_DTLB_vberti_cross_page_prefetch_miss 0
Core_0_DTLB_vberti_cross_page_prefetch_mshr_merge 0
Core_0_DTLB_vberti_cross_page_prefetch_fill 0
Core_0_DTLB_vberti_cross_page_prefetch_miss_rate 0
Core_0_DTLB_vberti_cross_page_prefetch_mpki 0
Core_0_DTLB_same_page_prefetch_miss_rate 2.75866e-06
Core_0_DTLB_same_page_prefetch_mpki 0.00065
Core_0_DTLB_cross_page_prefetch_miss_rate 0
Core_0_DTLB_cross_page_prefetch_mpki 0
Core_0_DTLB_cross_page_prefetch_issued 0
Core_0_DTLB_cross_page_prefetch_lookups 0
Core_0_DTLB_cross_page_prefetch_useful 0
Core_0_DTLB_cross_page_prefetch_useless 0
Core_0_DTLB_cross_page_prefetch_late 0
Core_0_DTLB_cross_page_prefetch_too_early 0
Core_0_DTLB_cross_page_prefetch_too_early_among_fill 0
Core_0_DTLB_cross_page_prefetch_too_early_among_useless 0
Core_0_DTLB_cross_page_prefetch_pollution_evict 0
Core_0_DTLB_cross_page_prefetch_pollution_demand 0
Core_0_DTLB_cross_page_prefetch_pollution_among_prefetch_fill 0
Core_0_DTLB_cross_page_prefetch_accuracy 0
Core_0_DTLB_cross_page_prefetch_coverage 0

========= STLB_vBerti Prefetch Stats =========
Core_0_STLB_demand_access 1036009
Core_0_STLB_demand_hit 905068
Core_0_STLB_demand_miss 130941
Core_0_STLB_demand_mshr_merge 0
Core_0_STLB_demand_fill 130941
Core_0_STLB_demand_miss_rate 0.12639
Core_0_STLB_demand_mpki 1.30941
Core_0_STLB_vberti_prefetch_access 44
Core_0_STLB_vberti_prefetch_hit 44
Core_0_STLB_vberti_prefetch_miss 0
Core_0_STLB_vberti_prefetch_mshr_merge 0
Core_0_STLB_vberti_prefetch_fill 0
Core_0_STLB_vberti_prefetch_miss_rate 0
Core_0_STLB_vberti_prefetch_mpki 0

=== STLB_vBerti Same/Cross-page Prefetch Stats ===
Core_0_STLB_vberti_same_page_prefetch 44
Core_0_STLB_vberti_same_page_prefetch_hit 44
Core_0_STLB_vberti_same_page_prefetch_miss 0
Core_0_STLB_vberti_same_page_prefetch_mshr_merge 0
Core_0_STLB_vberti_same_page_prefetch_fill 0
Core_0_STLB_vberti_same_page_prefetch_miss_rate 0
Core_0_STLB_vberti_same_page_prefetch_mpki 0
Core_0_STLB_vberti_cross_page_prefetch 0
Core_0_STLB_vberti_cross_page_prefetch_hit 0
Core_0_STLB_vberti_cross_page_prefetch_miss 0
Core_0_STLB_vberti_cross_page_prefetch_mshr_merge 0
Core_0_STLB_vberti_cross_page_prefetch_fill 0
Core_0_STLB_vberti_cross_page_prefetch_miss_rate 0
Core_0_STLB_vberti_cross_page_prefetch_mpki 0
Core_0_STLB_same_page_prefetch_miss_rate 0
Core_0_STLB_same_page_prefetch_mpki 0
Core_0_STLB_cross_page_prefetch_miss_rate 0
Core_0_STLB_cross_page_prefetch_mpki 0
Core_0_STLB_cross_page_prefetch_issued 0
Core_0_STLB_cross_page_prefetch_lookups 0
Core_0_STLB_cross_page_prefetch_useful 0
Core_0_STLB_cross_page_prefetch_useless 0
Core_0_STLB_cross_page_prefetch_late 0
Core_0_STLB_cross_page_prefetch_too_early 0
Core_0_STLB_cross_page_prefetch_too_early_among_fill 0
Core_0_STLB_cross_page_prefetch_too_early_among_useless 0
Core_0_STLB_cross_page_prefetch_pollution_evict 0
Core_0_STLB_cross_page_prefetch_pollution_demand 0
Core_0_STLB_cross_page_prefetch_pollution_among_prefetch_fill 0
Core_0_STLB_cross_page_prefetch_accuracy 0
Core_0_STLB_cross_page_prefetch_coverage 0

========= STLB Cross-page Prefetch Buffer Stats =========
Core_0_STLB_raw_demand_miss 130941
Core_0_CP_PB_insert 0
Core_0_CP_PB_demand_hit 0
Core_0_STLB_PB_demand_miss 130941
Core_0_CP_PB_coverage 0
Core_0_STLB_raw_demand_mpki 1.30941
Core_0_STLB_PB_demand_mpki 1.30941
Core_0_CP_PB_demand_hit_mpki 0

Core_0_TLB_demand_miss_rate 0.00389568
Core_0_TLB_demand_mpki 1.30941
Core_0_TLB_same_page_prefetch_miss_rate 0
Core_0_TLB_same_page_prefetch_mpki 0
Core_0_TLB_cross_page_prefetch_miss_rate 0
Core_0_TLB_cross_page_prefetch_mpki 0
Core_0_TLB_cross_page_prefetch_issued 0
Core_0_TLB_cross_page_prefetch_lookups 0
Core_0_TLB_cross_page_prefetch_useful 0
Core_0_TLB_cross_page_prefetch_useless 0
Core_0_TLB_cross_page_prefetch_late 0
Core_0_TLB_cross_page_prefetch_too_early 0
Core_0_TLB_cross_page_prefetch_too_early_among_fill 0
Core_0_TLB_cross_page_prefetch_too_early_among_useless 0
Core_0_TLB_cross_page_prefetch_accuracy 0
Core_0_TLB_cross_page_prefetch_coverage 0
====== vBerti internal metric ========
BERTI TO_L1: 67286349 TO_L2: 65742924 TO_L2_BC_MSHR: 2798503
BERTI AVG_LAT: 94.6826 NUM_TRACK_LATENCY: 2676471 NUM_CANT_TRACK_LATENCY: 0
BERTI CROSS_PAGE 17052976 NO_CROSS_PAGE: 133029273
BERTI FOUND_BERTI: 24686004 NO_FOUND_BERTI: 11567327
BERTI AVERAGE_ISSUED: 3.12457
