[VMEM] WARNING: physical memory size is smaller than virtual memory size.

*** ChampSim Multicore Out-of-Order Simulator ***
Warmup Instructions: 20000000
Simulation Instructions: 50000000
Number of CPUs: 1
Page size: 4096
STLB ideal mode: all
Core 0: /data0/tzh/champsim_traces/SPEC06/429.mcf-22B.champsimtrace.xz
 L1D Berti prefetcher
Off-chip DRAM Size: 16 GiB Channels: 1 Width: 64-bit Data Rate: 3205 MT/s
Warmup halting CPU 0 at instruction 20000003 cycle 6467331 for remainder of phase
Warmup finished CPU 0 instructions: 20000003 cycles: 6467331 cumulative IPC: 3.092 (Simulation time: 00 hr 01 min 21 sec)
Warmup complete CPU 0 instructions: 20000003 cycles: 6467331 cumulative IPC: 3.092 (Simulation time: 00 hr 01 min 21 sec)
Simulation finished CPU 0 instructions: 50000002 cycles: 63495411 cumulative IPC: 0.7875 (Simulation time: 00 hr 09 min 44 sec)
Simulation complete CPU 0 instructions: 50000002 cycles: 63495411 cumulative IPC: 0.7875 (Simulation time: 00 hr 09 min 44 sec)

ChampSim completed all CPUs

=== Simulation ===
CPU 0 runs /data0/tzh/champsim_traces/SPEC06/429.mcf-22B.champsimtrace.xz

Region of Interest Statistics

CPU 0 cumulative IPC: 0.7875 instructions: 50000002 cycles: 63495411
CPU 0 Branch Prediction Accuracy: 98.75% MPKI: 1.081 Average ROB Occupancy at Mispredict: 123.5
Branch type MPKI
BRANCH_DIRECT_JUMP: 0
BRANCH_INDIRECT: 0
BRANCH_CONDITIONAL: 1.081
BRANCH_DIRECT_CALL: 0
BRANCH_INDIRECT_CALL: 0
BRANCH_RETURN: 0

cpu0->cpu0_STLB TOTAL        ACCESS:     251735 HIT:     251735 MISS:          0 MSHR_MERGE:          0
cpu0->cpu0_STLB LOAD         ACCESS:     251735 HIT:     251735 MISS:          0 MSHR_MERGE:          0
cpu0->cpu0_STLB RFO          ACCESS:          0 HIT:          0 MISS:          0 MSHR_MERGE:          0
cpu0->cpu0_STLB PREFETCH     ACCESS:          0 HIT:          0 MISS:          0 MSHR_MERGE:          0
cpu0->cpu0_STLB WRITE        ACCESS:          0 HIT:          0 MISS:          0 MSHR_MERGE:          0
cpu0->cpu0_STLB TRANSLATION  ACCESS:          0 HIT:          0 MISS:          0 MSHR_MERGE:          0
cpu0->cpu0_STLB PREFETCH REQUESTED:          0 ISSUED:          0 USEFUL:          0 USELESS:          0 LATE:          0
cpu0->cpu0_STLB AVERAGE MISS LATENCY: - cycles
cpu0->cpu0_L2C TOTAL        ACCESS:    2238150 HIT:     771032 MISS:    1467118 MSHR_MERGE:       8533
cpu0->cpu0_L2C LOAD         ACCESS:     847084 HIT:      45043 MISS:     802041 MSHR_MERGE:        147
cpu0->cpu0_L2C RFO          ACCESS:       2218 HIT:       2209 MISS:          9 MSHR_MERGE:          0
cpu0->cpu0_L2C PREFETCH     ACCESS:     700823 HIT:      36820 MISS:     664003 MSHR_MERGE:       8386
cpu0->cpu0_L2C WRITE        ACCESS:     688025 HIT:     686960 MISS:       1065 MSHR_MERGE:          0
cpu0->cpu0_L2C TRANSLATION  ACCESS:          0 HIT:          0 MISS:          0 MSHR_MERGE:          0
cpu0->cpu0_L2C PREFETCH REQUESTED:      65487 ISSUED:      65487 USEFUL:      14483 USELESS:      16786 LATE:        147
cpu0->cpu0_L2C AVERAGE MISS LATENCY: 343 cycles
cpu0->cpu0_L1I TOTAL        ACCESS:    6999185 HIT:    6999185 MISS:          0 MSHR_MERGE:          0
cpu0->cpu0_L1I LOAD         ACCESS:    6999185 HIT:    6999185 MISS:          0 MSHR_MERGE:          0
cpu0->cpu0_L1I RFO          ACCESS:          0 HIT:          0 MISS:          0 MSHR_MERGE:          0
cpu0->cpu0_L1I PREFETCH     ACCESS:          0 HIT:          0 MISS:          0 MSHR_MERGE:          0
cpu0->cpu0_L1I WRITE        ACCESS:          0 HIT:          0 MISS:          0 MSHR_MERGE:          0
cpu0->cpu0_L1I TRANSLATION  ACCESS:          0 HIT:          0 MISS:          0 MSHR_MERGE:          0
cpu0->cpu0_L1I PREFETCH REQUESTED:          0 ISSUED:          0 USEFUL:          0 USELESS:          0 LATE:          0
cpu0->cpu0_L1I AVERAGE MISS LATENCY: - cycles
cpu0->cpu0_L1D TOTAL        ACCESS:   15969879 HIT:   14152688 MISS:    1817191 MSHR_MERGE:     332537
cpu0->cpu0_L1D LOAD         ACCESS:    6372410 HIT:    5224269 MISS:    1148141 MSHR_MERGE:     301046
cpu0->cpu0_L1D RFO          ACCESS:          0 HIT:          0 MISS:          0 MSHR_MERGE:          0
cpu0->cpu0_L1D PREFETCH     ACCESS:     895937 HIT:     234934 MISS:     661003 MSHR_MERGE:      25667
cpu0->cpu0_L1D WRITE        ACCESS:    8701532 HIT:    8693485 MISS:       8047 MSHR_MERGE:       5824
cpu0->cpu0_L1D TRANSLATION  ACCESS:          0 HIT:          0 MISS:          0 MSHR_MERGE:          0
cpu0->cpu0_L1D PREFETCH REQUESTED:     927105 ISSUED:     895933 USEFUL:     396192 USELESS:     239051 LATE:      34785
cpu0->cpu0_L1D AVERAGE MISS LATENCY: 326.9 cycles
cpu0->cpu0_ITLB TOTAL        ACCESS:    5624198 HIT:    5624198 MISS:          0 MSHR_MERGE:          0
cpu0->cpu0_ITLB LOAD         ACCESS:    5624198 HIT:    5624198 MISS:          0 MSHR_MERGE:          0
cpu0->cpu0_ITLB RFO          ACCESS:          0 HIT:          0 MISS:          0 MSHR_MERGE:          0
cpu0->cpu0_ITLB PREFETCH     ACCESS:          0 HIT:          0 MISS:          0 MSHR_MERGE:          0
cpu0->cpu0_ITLB WRITE        ACCESS:          0 HIT:          0 MISS:          0 MSHR_MERGE:          0
cpu0->cpu0_ITLB TRANSLATION  ACCESS:          0 HIT:          0 MISS:          0 MSHR_MERGE:          0
cpu0->cpu0_ITLB PREFETCH REQUESTED:          0 ISSUED:          0 USEFUL:          0 USELESS:          0 LATE:          0
cpu0->cpu0_ITLB AVERAGE MISS LATENCY: - cycles
cpu0->cpu0_DTLB TOTAL        ACCESS:   14364052 HIT:   13895744 MISS:     468308 MSHR_MERGE:     216573
cpu0->cpu0_DTLB LOAD         ACCESS:   14364052 HIT:   13895744 MISS:     468308 MSHR_MERGE:     216573
cpu0->cpu0_DTLB RFO          ACCESS:          0 HIT:          0 MISS:          0 MSHR_MERGE:          0
cpu0->cpu0_DTLB PREFETCH     ACCESS:          0 HIT:          0 MISS:          0 MSHR_MERGE:          0
cpu0->cpu0_DTLB WRITE        ACCESS:          0 HIT:          0 MISS:          0 MSHR_MERGE:          0
cpu0->cpu0_DTLB TRANSLATION  ACCESS:          0 HIT:          0 MISS:          0 MSHR_MERGE:          0
cpu0->cpu0_DTLB PREFETCH REQUESTED:          0 ISSUED:          0 USEFUL:          0 USELESS:          0 LATE:          0
cpu0->cpu0_DTLB AVERAGE MISS LATENCY: 5.003 cycles
cpu0->LLC TOTAL        ACCESS:    2119104 HIT:     492941 MISS:    1626163 MSHR_MERGE:        232
cpu0->LLC LOAD         ACCESS:     801894 HIT:      23690 MISS:     778204 MSHR_MERGE:          3
cpu0->LLC RFO          ACCESS:          9 HIT:          1 MISS:          8 MSHR_MERGE:          0
cpu0->LLC PREFETCH     ACCESS:     655617 HIT:      15897 MISS:     639720 MSHR_MERGE:        229
cpu0->LLC WRITE        ACCESS:     661584 HIT:     453353 MISS:     208231 MSHR_MERGE:          0
cpu0->LLC TRANSLATION  ACCESS:          0 HIT:          0 MISS:          0 MSHR_MERGE:          0
cpu0->LLC PREFETCH REQUESTED:          0 ISSUED:          0 USEFUL:          0 USELESS:          0 LATE:          0
cpu0->LLC AVERAGE MISS LATENCY: 268.1 cycles

DRAM Statistics

Channel 0 RQ ROW_BUFFER_HIT:      32142
  ROW_BUFFER_MISS:    1385494
  AVG DBUS CONGESTED CYCLE: 6.301
Channel 0 WQ ROW_BUFFER_HIT:     106855
  ROW_BUFFER_MISS:     517401
  FULL:          0
Channel 0 REFRESHES ISSUED:       5292

[ROI Statistics]
[System Configuration]
num_cpus 1
cpu_freq 4000
fetch_width 6
decode_width 6
dispatch_width 6
execute_width 6
lq_width 2
sq_width 2
retire_width 6
scheduler_size 128
branch_mispredict_penalty 15
rob_size 352
lq_size 128
sq_size 72
ifetch_buffer_size 64
decode_buffer_size 32
dispatch_buffer_size 32
register_file_size 288
decode_latency 1
dispatch_latency 1
schedule_latency 1
execute_latency 1
page_size 4096
block_size 64
core_0_itlb_set 16
core_0_itlb_way 4
core_0_itlb_rq_size 16
core_0_itlb_wq_size 16
core_0_itlb_pq_size 0
core_0_itlb_mshr_size 8
core_0_itlb_hit_latency 1
core_0_itlb_fill_latency 1
core_0_itlb_max_tag_check 2
core_0_itlb_max_fill 2
core_0_dtlb_set 16
core_0_dtlb_way 4
core_0_dtlb_rq_size 16
core_0_dtlb_wq_size 16
core_0_dtlb_pq_size 0
core_0_dtlb_mshr_size 8
core_0_dtlb_hit_latency 1
core_0_dtlb_fill_latency 1
core_0_dtlb_max_tag_check 2
core_0_dtlb_max_fill 2
core_0_stlb_set 128
core_0_stlb_way 12
core_0_stlb_rq_size 32
core_0_stlb_wq_size 32
core_0_stlb_pq_size 0
core_0_stlb_mshr_size 16
core_0_stlb_hit_latency 4
core_0_stlb_fill_latency 4
core_0_stlb_max_tag_check 1
core_0_stlb_max_fill 1
core_0_l1i_set 64
core_0_l1i_way 8
core_0_l1i_rq_size 64
core_0_l1i_wq_size 64
core_0_l1i_pq_size 32
core_0_l1i_mshr_size 8
core_0_l1i_hit_latency 2
core_0_l1i_fill_latency 2
core_0_l1i_max_tag_check 2
core_0_l1i_max_fill 2
core_0_l1d_set 64
core_0_l1d_way 12
core_0_l1d_rq_size 64
core_0_l1d_wq_size 64
core_0_l1d_pq_size 8
core_0_l1d_mshr_size 16
core_0_l1d_hit_latency 2
core_0_l1d_fill_latency 3
core_0_l1d_max_tag_check 2
core_0_l1d_max_fill 2
core_0_l2c_set 1024
core_0_l2c_way 8
core_0_l2c_rq_size 32
core_0_l2c_wq_size 32
core_0_l2c_pq_size 16
core_0_l2c_mshr_size 32
core_0_l2c_hit_latency 5
core_0_l2c_fill_latency 5
core_0_l2c_max_tag_check 1
core_0_l2c_max_fill 1
llc_set 2048
llc_way 16
llc_rq_size 32
llc_wq_size 32
llc_pq_size 32
llc_mshr_size 64
llc_hit_latency 10
llc_fill_latency 10
llc_max_tag_check 1
llc_max_fill 1
dram_channels 1
dram_ranks 1
dram_bankgroups 8
dram_banks 4
dram_rows 65536
dram_columns 1024
dram_channel_width 8
dram_rq_size 64
dram_wq_size 64
dram_size 17179869184
core_0_itlb_prefetcher no
core_0_dtlb_prefetcher no
core_0_stlb_prefetcher no
core_0_l1i_prefetcher next_line
core_0_l1d_prefetcher berti
core_0_l2c_prefetcher ip_stride
llc_prefetcher no
llc_replacement drrip

Core_0_instructions 50000002
Core_0_cycles 63495411
Core_0_IPC 0.787459
Core_0_branch_prediction_accuracy 98.7481
Core_0_branch_MPKI 1.0806
Core_0_average_ROB_occupancy_at_mispredict 123.499

Core_0_ITLB_total_access 5624198
Core_0_ITLB_total_hit 5624198
Core_0_ITLB_total_miss 0
Core_0_ITLB_total_MPKI 0
Core_0_ITLB_total_miss_rate 0
Core_0_ITLB_demand_access 5624198
Core_0_ITLB_demand_hit 5624198
Core_0_ITLB_demand_miss 0
Core_0_ITLB_demand_MPKI 0
Core_0_ITLB_demand_miss_rate 0
Core_0_ITLB_load_access 5624198
Core_0_ITLB_load_hit 5624198
Core_0_ITLB_load_miss 0
Core_0_ITLB_load_MPKI 0
Core_0_ITLB_load_miss_rate 0
Core_0_ITLB_rfo_access 0
Core_0_ITLB_rfo_hit 0
Core_0_ITLB_rfo_miss 0
Core_0_ITLB_rfo_MPKI 0
Core_0_ITLB_rfo_miss_rate 0
Core_0_ITLB_prefetch_access 0
Core_0_ITLB_prefetch_hit 0
Core_0_ITLB_prefetch_miss 0
Core_0_ITLB_prefetch_MPKI 0
Core_0_ITLB_prefetch_miss_rate 0
Core_0_ITLB_writeback_access 0
Core_0_ITLB_writeback_hit 0
Core_0_ITLB_writeback_miss 0
Core_0_ITLB_writeback_MPKI 0
Core_0_ITLB_writeback_miss_rate 0
Core_0_ITLB_prefetch_requested 0
Core_0_ITLB_prefetch_issued 0
Core_0_ITLB_prefetch_useful 0
Core_0_ITLB_prefetch_useless 0
Core_0_ITLB_prefetch_late 0
Core_0_ITLB_prefetch_accuracy 0
Core_0_ITLB_prefetch_coverage 0

Core_0_DTLB_total_access 14364052
Core_0_DTLB_total_hit 13895744
Core_0_DTLB_total_miss 468308
Core_0_DTLB_total_MPKI 9.36616
Core_0_DTLB_total_miss_rate 0.0326028
Core_0_DTLB_demand_access 14364052
Core_0_DTLB_demand_hit 13895744
Core_0_DTLB_demand_miss 468308
Core_0_DTLB_demand_MPKI 9.36616
Core_0_DTLB_demand_miss_rate 0.0326028
Core_0_DTLB_load_access 14364052
Core_0_DTLB_load_hit 13895744
Core_0_DTLB_load_miss 468308
Core_0_DTLB_load_MPKI 9.36616
Core_0_DTLB_load_miss_rate 0.0326028
Core_0_DTLB_rfo_access 0
Core_0_DTLB_rfo_hit 0
Core_0_DTLB_rfo_miss 0
Core_0_DTLB_rfo_MPKI 0
Core_0_DTLB_rfo_miss_rate 0
Core_0_DTLB_prefetch_access 0
Core_0_DTLB_prefetch_hit 0
Core_0_DTLB_prefetch_miss 0
Core_0_DTLB_prefetch_MPKI 0
Core_0_DTLB_prefetch_miss_rate 0
Core_0_DTLB_writeback_access 0
Core_0_DTLB_writeback_hit 0
Core_0_DTLB_writeback_miss 0
Core_0_DTLB_writeback_MPKI 0
Core_0_DTLB_writeback_miss_rate 0
Core_0_DTLB_prefetch_requested 0
Core_0_DTLB_prefetch_issued 0
Core_0_DTLB_prefetch_useful 0
Core_0_DTLB_prefetch_useless 0
Core_0_DTLB_prefetch_late 0
Core_0_DTLB_prefetch_accuracy 0
Core_0_DTLB_prefetch_coverage 0

Core_0_STLB_total_access 251735
Core_0_STLB_total_hit 251735
Core_0_STLB_total_miss 0
Core_0_STLB_total_MPKI 0
Core_0_STLB_total_miss_rate 0
Core_0_STLB_demand_access 251735
Core_0_STLB_demand_hit 251735
Core_0_STLB_demand_miss 0
Core_0_STLB_demand_MPKI 0
Core_0_STLB_demand_miss_rate 0
Core_0_STLB_load_access 251735
Core_0_STLB_load_hit 251735
Core_0_STLB_load_miss 0
Core_0_STLB_load_MPKI 0
Core_0_STLB_load_miss_rate 0
Core_0_STLB_rfo_access 0
Core_0_STLB_rfo_hit 0
Core_0_STLB_rfo_miss 0
Core_0_STLB_rfo_MPKI 0
Core_0_STLB_rfo_miss_rate 0
Core_0_STLB_prefetch_access 0
Core_0_STLB_prefetch_hit 0
Core_0_STLB_prefetch_miss 0
Core_0_STLB_prefetch_MPKI 0
Core_0_STLB_prefetch_miss_rate 0
Core_0_STLB_writeback_access 0
Core_0_STLB_writeback_hit 0
Core_0_STLB_writeback_miss 0
Core_0_STLB_writeback_MPKI 0
Core_0_STLB_writeback_miss_rate 0
Core_0_STLB_prefetch_requested 0
Core_0_STLB_prefetch_issued 0
Core_0_STLB_prefetch_useful 0
Core_0_STLB_prefetch_useless 0
Core_0_STLB_prefetch_late 0
Core_0_STLB_prefetch_accuracy 0
Core_0_STLB_prefetch_coverage 0

Core_0_L1I_total_access 6999185
Core_0_L1I_total_hit 6999185
Core_0_L1I_total_miss 0
Core_0_L1I_total_MPKI 0
Core_0_L1I_total_miss_rate 0
Core_0_L1I_demand_access 6999185
Core_0_L1I_demand_hit 6999185
Core_0_L1I_demand_miss 0
Core_0_L1I_demand_MPKI 0
Core_0_L1I_demand_miss_rate 0
Core_0_L1I_load_access 6999185
Core_0_L1I_load_hit 6999185
Core_0_L1I_load_miss 0
Core_0_L1I_load_MPKI 0
Core_0_L1I_load_miss_rate 0
Core_0_L1I_rfo_access 0
Core_0_L1I_rfo_hit 0
Core_0_L1I_rfo_miss 0
Core_0_L1I_rfo_MPKI 0
Core_0_L1I_rfo_miss_rate 0
Core_0_L1I_prefetch_access 0
Core_0_L1I_prefetch_hit 0
Core_0_L1I_prefetch_miss 0
Core_0_L1I_prefetch_MPKI 0
Core_0_L1I_prefetch_miss_rate 0
Core_0_L1I_writeback_access 0
Core_0_L1I_writeback_hit 0
Core_0_L1I_writeback_miss 0
Core_0_L1I_writeback_MPKI 0
Core_0_L1I_writeback_miss_rate 0
Core_0_L1I_prefetch_requested 0
Core_0_L1I_prefetch_issued 0
Core_0_L1I_prefetch_useful 0
Core_0_L1I_prefetch_useless 0
Core_0_L1I_prefetch_late 0
Core_0_L1I_prefetch_accuracy 0
Core_0_L1I_prefetch_coverage 0

Core_0_L1D_total_access 15969879
Core_0_L1D_total_hit 14152688
Core_0_L1D_total_miss 1817191
Core_0_L1D_total_MPKI 36.3438
Core_0_L1D_total_miss_rate 0.113789
Core_0_L1D_demand_access 6372410
Core_0_L1D_demand_hit 5224269
Core_0_L1D_demand_miss 1148141
Core_0_L1D_demand_MPKI 22.9628
Core_0_L1D_demand_miss_rate 0.180174
Core_0_L1D_load_access 6372410
Core_0_L1D_load_hit 5224269
Core_0_L1D_load_miss 1148141
Core_0_L1D_load_MPKI 22.9628
Core_0_L1D_load_miss_rate 0.180174
Core_0_L1D_rfo_access 0
Core_0_L1D_rfo_hit 0
Core_0_L1D_rfo_miss 0
Core_0_L1D_rfo_MPKI 0
Core_0_L1D_rfo_miss_rate 0
Core_0_L1D_prefetch_access 895937
Core_0_L1D_prefetch_hit 234934
Core_0_L1D_prefetch_miss 661003
Core_0_L1D_prefetch_MPKI 13.2201
Core_0_L1D_prefetch_miss_rate 0.737778
Core_0_L1D_writeback_access 8701532
Core_0_L1D_writeback_hit 8693485
Core_0_L1D_writeback_miss 8047
Core_0_L1D_writeback_MPKI 0.16094
Core_0_L1D_writeback_miss_rate 0.00092478
Core_0_L1D_prefetch_requested 927105
Core_0_L1D_prefetch_issued 895933
Core_0_L1D_prefetch_useful 396192
Core_0_L1D_prefetch_useless 239051
Core_0_L1D_prefetch_late 34785
Core_0_L1D_prefetch_accuracy 0.442212
Core_0_L1D_prefetch_coverage 0.256546

Core_0_L2C_total_access 2238150
Core_0_L2C_total_hit 771032
Core_0_L2C_total_miss 1467118
Core_0_L2C_total_MPKI 29.3424
Core_0_L2C_total_miss_rate 0.655505
Core_0_L2C_demand_access 849302
Core_0_L2C_demand_hit 47252
Core_0_L2C_demand_miss 802050
Core_0_L2C_demand_MPKI 16.041
Core_0_L2C_demand_miss_rate 0.944364
Core_0_L2C_load_access 847084
Core_0_L2C_load_hit 45043
Core_0_L2C_load_miss 802041
Core_0_L2C_load_MPKI 16.0408
Core_0_L2C_load_miss_rate 0.946826
Core_0_L2C_rfo_access 2218
Core_0_L2C_rfo_hit 2209
Core_0_L2C_rfo_miss 9
Core_0_L2C_rfo_MPKI 0.00018
Core_0_L2C_rfo_miss_rate 0.00405771
Core_0_L2C_prefetch_access 700823
Core_0_L2C_prefetch_hit 36820
Core_0_L2C_prefetch_miss 664003
Core_0_L2C_prefetch_MPKI 13.2801
Core_0_L2C_prefetch_miss_rate 0.947462
Core_0_L2C_writeback_access 688025
Core_0_L2C_writeback_hit 686960
Core_0_L2C_writeback_miss 1065
Core_0_L2C_writeback_MPKI 0.0213
Core_0_L2C_writeback_miss_rate 0.00154791
Core_0_L2C_prefetch_requested 65487
Core_0_L2C_prefetch_issued 65487
Core_0_L2C_prefetch_useful 14483
Core_0_L2C_prefetch_useless 16786
Core_0_L2C_prefetch_late 147
Core_0_L2C_prefetch_accuracy 0.221158
Core_0_L2C_prefetch_coverage 0.0177372

Core_0_LLC_total_access 2119104
Core_0_LLC_total_hit 492941
Core_0_LLC_total_miss 1626163
Core_0_LLC_total_MPKI 32.5233
Core_0_LLC_total_miss_rate 0.767382
Core_0_LLC_demand_access 801903
Core_0_LLC_demand_hit 23691
Core_0_LLC_demand_miss 778212
Core_0_LLC_demand_MPKI 15.5642
Core_0_LLC_demand_miss_rate 0.970457
Core_0_LLC_load_access 801894
Core_0_LLC_load_hit 23690
Core_0_LLC_load_miss 778204
Core_0_LLC_load_MPKI 15.5641
Core_0_LLC_load_miss_rate 0.970457
Core_0_LLC_rfo_access 9
Core_0_LLC_rfo_hit 1
Core_0_LLC_rfo_miss 8
Core_0_LLC_rfo_MPKI 0.00016
Core_0_LLC_rfo_miss_rate 0.888889
Core_0_LLC_prefetch_access 655617
Core_0_LLC_prefetch_hit 15897
Core_0_LLC_prefetch_miss 639720
Core_0_LLC_prefetch_MPKI 12.7944
Core_0_LLC_prefetch_miss_rate 0.975753
Core_0_LLC_writeback_access 661584
Core_0_LLC_writeback_hit 453353
Core_0_LLC_writeback_miss 208231
Core_0_LLC_writeback_MPKI 4.16462
Core_0_LLC_writeback_miss_rate 0.314746
Core_0_LLC_prefetch_requested 0
Core_0_LLC_prefetch_issued 0
Core_0_LLC_prefetch_useful 0
Core_0_LLC_prefetch_useless 0
Core_0_LLC_prefetch_late 0
Core_0_LLC_prefetch_accuracy 0
Core_0_LLC_prefetch_coverage 0

[DRAM Statistics]
Channel_0_RQ_row_buffer_hit 32142
Channel_0_RQ_row_buffer_miss 1385494
Channel_0_WQ_row_buffer_hit 106855
Channel_0_WQ_row_buffer_miss 517401
Channel_0_WQ_full 0
Channel_0_dbus_congested 6084944
DRAM_total_RQ_row_buffer_hit 32142
DRAM_total_RQ_row_buffer_miss 1385494
DRAM_total_WQ_row_buffer_hit 106855
DRAM_total_WQ_row_buffer_miss 517401
DRAM_total_WQ_full 0
DRAM_total_dbus_congested 6084944
DRAM_avg_congested_cycle 6.30133

======STLB miss causes ========
Core_0_STLB_miss_cause_breakdown
Core_0_STLB_cause_Demand_Data_miss 0
Core_0_STLB_cause_Demand_Data_miss_rate 0
Core_0_STLB_cause_Demand_Instruction_miss 0
Core_0_STLB_cause_Demand_Instruction_miss_rate 0
Core_0_STLB_cause_L1D_Prefetch_miss 0
Core_0_STLB_cause_L1D_Prefetch_miss_rate 0
Core_0_STLB_cause_L1I_Prefetch_miss 0
Core_0_STLB_cause_L1I_Prefetch_miss_rate 0
Core_0_STLB_cause_Other_miss 0
Core_0_STLB_cause_Other_miss_rate 0
Core_0_STLB_Demand_miss 0
Core_0_STLB_Demand_miss_rate 0
Core_0_STLB_L1D_Prefetch_miss 0
Core_0_STLB_L1D_Prefetch_miss_rate 0
Core_0_STLB_Other_miss 0
Core_0_STLB_Other_miss_rate 0
