[VMEM] WARNING: physical memory size is smaller than virtual memory size.

*** ChampSim Multicore Out-of-Order Simulator ***
Warmup Instructions: 20000000
Simulation Instructions: 50000000
Number of CPUs: 1
Page size: 4096
STLB ideal mode: all
Core 0: /data0/tzh/champsim_traces/Ligra/ligra_Radii.com-lj.ungraph.gcc_6.3.0_O3.drop_36000M.length_250M.champsimtrace.xz
 L1D Berti prefetcher
Off-chip DRAM Size: 16 GiB Channels: 1 Width: 64-bit Data Rate: 3205 MT/s
Warmup halting CPU 0 at instruction 20000002 cycle 4004227 for remainder of phase
Warmup finished CPU 0 instructions: 20000002 cycles: 4004227 cumulative IPC: 4.995 (Simulation time: 00 hr 01 min 15 sec)
Warmup complete CPU 0 instructions: 20000002 cycles: 4004227 cumulative IPC: 4.995 (Simulation time: 00 hr 01 min 15 sec)
Simulation finished CPU 0 instructions: 50000000 cycles: 187201652 cumulative IPC: 0.2671 (Simulation time: 00 hr 13 min 51 sec)
Simulation complete CPU 0 instructions: 50000000 cycles: 187201652 cumulative IPC: 0.2671 (Simulation time: 00 hr 13 min 51 sec)

ChampSim completed all CPUs

=== Simulation ===
CPU 0 runs /data0/tzh/champsim_traces/Ligra/ligra_Radii.com-lj.ungraph.gcc_6.3.0_O3.drop_36000M.length_250M.champsimtrace.xz

Region of Interest Statistics

CPU 0 cumulative IPC: 0.2671 instructions: 50000000 cycles: 187201652
CPU 0 Branch Prediction Accuracy: 88.74% MPKI: 29.7 Average ROB Occupancy at Mispredict: 16.77
Branch type MPKI
BRANCH_DIRECT_JUMP: 0
BRANCH_INDIRECT: 0
BRANCH_CONDITIONAL: 29.7
BRANCH_DIRECT_CALL: 0
BRANCH_INDIRECT_CALL: 0
BRANCH_RETURN: 0

cpu0->cpu0_STLB TOTAL        ACCESS:    1872417 HIT:    1872417 MISS:          0 MSHR_MERGE:          0
cpu0->cpu0_STLB LOAD         ACCESS:    1872417 HIT:    1872417 MISS:          0 MSHR_MERGE:          0
cpu0->cpu0_STLB RFO          ACCESS:          0 HIT:          0 MISS:          0 MSHR_MERGE:          0
cpu0->cpu0_STLB PREFETCH     ACCESS:          0 HIT:          0 MISS:          0 MSHR_MERGE:          0
cpu0->cpu0_STLB WRITE        ACCESS:          0 HIT:          0 MISS:          0 MSHR_MERGE:          0
cpu0->cpu0_STLB TRANSLATION  ACCESS:          0 HIT:          0 MISS:          0 MSHR_MERGE:          0
cpu0->cpu0_STLB PREFETCH REQUESTED:          0 ISSUED:          0 USEFUL:          0 USELESS:          0 LATE:          0
cpu0->cpu0_STLB AVERAGE MISS LATENCY: - cycles
cpu0->cpu0_L2C TOTAL        ACCESS:    3270825 HIT:     667952 MISS:    2602873 MSHR_MERGE:      76122
cpu0->cpu0_L2C LOAD         ACCESS:    1988382 HIT:     359819 MISS:    1628563 MSHR_MERGE:        591
cpu0->cpu0_L2C RFO          ACCESS:      11098 HIT:        110 MISS:      10988 MSHR_MERGE:          0
cpu0->cpu0_L2C PREFETCH     ACCESS:    1156658 HIT:     193340 MISS:     963318 MSHR_MERGE:      75531
cpu0->cpu0_L2C WRITE        ACCESS:     114687 HIT:     114683 MISS:          4 MSHR_MERGE:          0
cpu0->cpu0_L2C TRANSLATION  ACCESS:          0 HIT:          0 MISS:          0 MSHR_MERGE:          0
cpu0->cpu0_L2C PREFETCH REQUESTED:     273817 ISSUED:     273817 USEFUL:     113450 USELESS:      29494 LATE:        591
cpu0->cpu0_L2C AVERAGE MISS LATENCY: 97.38 cycles
cpu0->cpu0_L1I TOTAL        ACCESS:     643890 HIT:     643890 MISS:          0 MSHR_MERGE:          0
cpu0->cpu0_L1I LOAD         ACCESS:     643890 HIT:     643890 MISS:          0 MSHR_MERGE:          0
cpu0->cpu0_L1I RFO          ACCESS:          0 HIT:          0 MISS:          0 MSHR_MERGE:          0
cpu0->cpu0_L1I PREFETCH     ACCESS:          0 HIT:          0 MISS:          0 MSHR_MERGE:          0
cpu0->cpu0_L1I WRITE        ACCESS:          0 HIT:          0 MISS:          0 MSHR_MERGE:          0
cpu0->cpu0_L1I TRANSLATION  ACCESS:          0 HIT:          0 MISS:          0 MSHR_MERGE:          0
cpu0->cpu0_L1I PREFETCH REQUESTED:          0 ISSUED:          0 USEFUL:          0 USELESS:          0 LATE:          0
cpu0->cpu0_L1I AVERAGE MISS LATENCY: - cycles
cpu0->cpu0_L1D TOTAL        ACCESS:   16968983 HIT:   13901785 MISS:    3067198 MSHR_MERGE:     184877
cpu0->cpu0_L1D LOAD         ACCESS:   13925663 HIT:   11772740 MISS:    2152923 MSHR_MERGE:     164541
cpu0->cpu0_L1D RFO          ACCESS:          0 HIT:          0 MISS:          0 MSHR_MERGE:          0
cpu0->cpu0_L1D PREFETCH     ACCESS:    1090807 HIT:     202390 MISS:     888417 MSHR_MERGE:       5576
cpu0->cpu0_L1D WRITE        ACCESS:    1952513 HIT:    1926655 MISS:      25858 MSHR_MERGE:      14760
cpu0->cpu0_L1D TRANSLATION  ACCESS:          0 HIT:          0 MISS:          0 MSHR_MERGE:          0
cpu0->cpu0_L1D PREFETCH REQUESTED:    1091519 ISSUED:    1090803 USEFUL:     627688 USELESS:     255113 LATE:      22277
cpu0->cpu0_L1D AVERAGE MISS LATENCY: 88.79 cycles
cpu0->cpu0_ITLB TOTAL        ACCESS:     497708 HIT:     497708 MISS:          0 MSHR_MERGE:          0
cpu0->cpu0_ITLB LOAD         ACCESS:     497708 HIT:     497708 MISS:          0 MSHR_MERGE:          0
cpu0->cpu0_ITLB RFO          ACCESS:          0 HIT:          0 MISS:          0 MSHR_MERGE:          0
cpu0->cpu0_ITLB PREFETCH     ACCESS:          0 HIT:          0 MISS:          0 MSHR_MERGE:          0
cpu0->cpu0_ITLB WRITE        ACCESS:          0 HIT:          0 MISS:          0 MSHR_MERGE:          0
cpu0->cpu0_ITLB TRANSLATION  ACCESS:          0 HIT:          0 MISS:          0 MSHR_MERGE:          0
cpu0->cpu0_ITLB PREFETCH REQUESTED:          0 ISSUED:          0 USEFUL:          0 USELESS:          0 LATE:          0
cpu0->cpu0_ITLB AVERAGE MISS LATENCY: - cycles
cpu0->cpu0_DTLB TOTAL        ACCESS:   16739328 HIT:   14768648 MISS:    1970680 MSHR_MERGE:      98263
cpu0->cpu0_DTLB LOAD         ACCESS:   16739328 HIT:   14768648 MISS:    1970680 MSHR_MERGE:      98263
cpu0->cpu0_DTLB RFO          ACCESS:          0 HIT:          0 MISS:          0 MSHR_MERGE:          0
cpu0->cpu0_DTLB PREFETCH     ACCESS:          0 HIT:          0 MISS:          0 MSHR_MERGE:          0
cpu0->cpu0_DTLB WRITE        ACCESS:          0 HIT:          0 MISS:          0 MSHR_MERGE:          0
cpu0->cpu0_DTLB TRANSLATION  ACCESS:          0 HIT:          0 MISS:          0 MSHR_MERGE:          0
cpu0->cpu0_DTLB PREFETCH REQUESTED:          0 ISSUED:          0 USEFUL:          0 USELESS:          0 LATE:          0
cpu0->cpu0_DTLB AVERAGE MISS LATENCY: 5.008 cycles
cpu0->LLC TOTAL        ACCESS:    2641219 HIT:    1121129 MISS:    1520090 MSHR_MERGE:        212
cpu0->LLC LOAD         ACCESS:    1627972 HIT:     968573 MISS:     659399 MSHR_MERGE:         83
cpu0->LLC RFO          ACCESS:      10988 HIT:          0 MISS:      10988 MSHR_MERGE:          0
cpu0->LLC PREFETCH     ACCESS:     887786 HIT:     127510 MISS:     760276 MSHR_MERGE:        129
cpu0->LLC WRITE        ACCESS:     114473 HIT:      25046 MISS:      89427 MSHR_MERGE:          0
cpu0->LLC TRANSLATION  ACCESS:          0 HIT:          0 MISS:          0 MSHR_MERGE:          0
cpu0->LLC PREFETCH REQUESTED:          0 ISSUED:          0 USEFUL:          0 USELESS:          0 LATE:          0
cpu0->LLC AVERAGE MISS LATENCY: 177.8 cycles

DRAM Statistics

Channel 0 RQ ROW_BUFFER_HIT:      13931
  ROW_BUFFER_MISS:    1416520
  AVG DBUS CONGESTED CYCLE: 17.1
Channel 0 WQ ROW_BUFFER_HIT:      27128
  ROW_BUFFER_MISS:      85371
  FULL:          0
Channel 0 REFRESHES ISSUED:      15600

[ROI Statistics]
[System Configuration]
num_cpus 1
cpu_freq 4000
fetch_width 6
decode_width 6
dispatch_width 6
execute_width 6
lq_width 2
sq_width 2
retire_width 6
scheduler_size 128
branch_mispredict_penalty 15
rob_size 352
lq_size 128
sq_size 72
ifetch_buffer_size 64
decode_buffer_size 32
dispatch_buffer_size 32
register_file_size 288
decode_latency 1
dispatch_latency 1
schedule_latency 1
execute_latency 1
page_size 4096
block_size 64
core_0_itlb_set 16
core_0_itlb_way 4
core_0_itlb_rq_size 16
core_0_itlb_wq_size 16
core_0_itlb_pq_size 0
core_0_itlb_mshr_size 8
core_0_itlb_hit_latency 1
core_0_itlb_fill_latency 1
core_0_itlb_max_tag_check 2
core_0_itlb_max_fill 2
core_0_dtlb_set 16
core_0_dtlb_way 4
core_0_dtlb_rq_size 16
core_0_dtlb_wq_size 16
core_0_dtlb_pq_size 0
core_0_dtlb_mshr_size 8
core_0_dtlb_hit_latency 1
core_0_dtlb_fill_latency 1
core_0_dtlb_max_tag_check 2
core_0_dtlb_max_fill 2
core_0_stlb_set 128
core_0_stlb_way 12
core_0_stlb_rq_size 32
core_0_stlb_wq_size 32
core_0_stlb_pq_size 0
core_0_stlb_mshr_size 16
core_0_stlb_hit_latency 4
core_0_stlb_fill_latency 4
core_0_stlb_max_tag_check 1
core_0_stlb_max_fill 1
core_0_l1i_set 64
core_0_l1i_way 8
core_0_l1i_rq_size 64
core_0_l1i_wq_size 64
core_0_l1i_pq_size 32
core_0_l1i_mshr_size 8
core_0_l1i_hit_latency 2
core_0_l1i_fill_latency 2
core_0_l1i_max_tag_check 2
core_0_l1i_max_fill 2
core_0_l1d_set 64
core_0_l1d_way 12
core_0_l1d_rq_size 64
core_0_l1d_wq_size 64
core_0_l1d_pq_size 8
core_0_l1d_mshr_size 16
core_0_l1d_hit_latency 2
core_0_l1d_fill_latency 3
core_0_l1d_max_tag_check 2
core_0_l1d_max_fill 2
core_0_l2c_set 1024
core_0_l2c_way 8
core_0_l2c_rq_size 32
core_0_l2c_wq_size 32
core_0_l2c_pq_size 16
core_0_l2c_mshr_size 32
core_0_l2c_hit_latency 5
core_0_l2c_fill_latency 5
core_0_l2c_max_tag_check 1
core_0_l2c_max_fill 1
llc_set 2048
llc_way 16
llc_rq_size 32
llc_wq_size 32
llc_pq_size 32
llc_mshr_size 64
llc_hit_latency 10
llc_fill_latency 10
llc_max_tag_check 1
llc_max_fill 1
dram_channels 1
dram_ranks 1
dram_bankgroups 8
dram_banks 4
dram_rows 65536
dram_columns 1024
dram_channel_width 8
dram_rq_size 64
dram_wq_size 64
dram_size 17179869184
core_0_itlb_prefetcher no
core_0_dtlb_prefetcher no
core_0_stlb_prefetcher no
core_0_l1i_prefetcher next_line
core_0_l1d_prefetcher berti
core_0_l2c_prefetcher ip_stride
llc_prefetcher no
llc_replacement drrip

Core_0_instructions 50000000
Core_0_cycles 187201652
Core_0_IPC 0.267092
Core_0_branch_prediction_accuracy 88.737
Core_0_branch_MPKI 29.7027
Core_0_average_ROB_occupancy_at_mispredict 16.7748

Core_0_ITLB_total_access 497708
Core_0_ITLB_total_hit 497708
Core_0_ITLB_total_miss 0
Core_0_ITLB_total_MPKI 0
Core_0_ITLB_total_miss_rate 0
Core_0_ITLB_demand_access 497708
Core_0_ITLB_demand_hit 497708
Core_0_ITLB_demand_miss 0
Core_0_ITLB_demand_MPKI 0
Core_0_ITLB_demand_miss_rate 0
Core_0_ITLB_load_access 497708
Core_0_ITLB_load_hit 497708
Core_0_ITLB_load_miss 0
Core_0_ITLB_load_MPKI 0
Core_0_ITLB_load_miss_rate 0
Core_0_ITLB_rfo_access 0
Core_0_ITLB_rfo_hit 0
Core_0_ITLB_rfo_miss 0
Core_0_ITLB_rfo_MPKI 0
Core_0_ITLB_rfo_miss_rate 0
Core_0_ITLB_prefetch_access 0
Core_0_ITLB_prefetch_hit 0
Core_0_ITLB_prefetch_miss 0
Core_0_ITLB_prefetch_MPKI 0
Core_0_ITLB_prefetch_miss_rate 0
Core_0_ITLB_writeback_access 0
Core_0_ITLB_writeback_hit 0
Core_0_ITLB_writeback_miss 0
Core_0_ITLB_writeback_MPKI 0
Core_0_ITLB_writeback_miss_rate 0
Core_0_ITLB_prefetch_requested 0
Core_0_ITLB_prefetch_issued 0
Core_0_ITLB_prefetch_useful 0
Core_0_ITLB_prefetch_useless 0
Core_0_ITLB_prefetch_late 0
Core_0_ITLB_prefetch_accuracy 0
Core_0_ITLB_prefetch_coverage 0

Core_0_DTLB_total_access 16739328
Core_0_DTLB_total_hit 14768648
Core_0_DTLB_total_miss 1970680
Core_0_DTLB_total_MPKI 39.4136
Core_0_DTLB_total_miss_rate 0.117728
Core_0_DTLB_demand_access 16739328
Core_0_DTLB_demand_hit 14768648
Core_0_DTLB_demand_miss 1970680
Core_0_DTLB_demand_MPKI 39.4136
Core_0_DTLB_demand_miss_rate 0.117728
Core_0_DTLB_load_access 16739328
Core_0_DTLB_load_hit 14768648
Core_0_DTLB_load_miss 1970680
Core_0_DTLB_load_MPKI 39.4136
Core_0_DTLB_load_miss_rate 0.117728
Core_0_DTLB_rfo_access 0
Core_0_DTLB_rfo_hit 0
Core_0_DTLB_rfo_miss 0
Core_0_DTLB_rfo_MPKI 0
Core_0_DTLB_rfo_miss_rate 0
Core_0_DTLB_prefetch_access 0
Core_0_DTLB_prefetch_hit 0
Core_0_DTLB_prefetch_miss 0
Core_0_DTLB_prefetch_MPKI 0
Core_0_DTLB_prefetch_miss_rate 0
Core_0_DTLB_writeback_access 0
Core_0_DTLB_writeback_hit 0
Core_0_DTLB_writeback_miss 0
Core_0_DTLB_writeback_MPKI 0
Core_0_DTLB_writeback_miss_rate 0
Core_0_DTLB_prefetch_requested 0
Core_0_DTLB_prefetch_issued 0
Core_0_DTLB_prefetch_useful 0
Core_0_DTLB_prefetch_useless 0
Core_0_DTLB_prefetch_late 0
Core_0_DTLB_prefetch_accuracy 0
Core_0_DTLB_prefetch_coverage 0

Core_0_STLB_total_access 1872417
Core_0_STLB_total_hit 1872417
Core_0_STLB_total_miss 0
Core_0_STLB_total_MPKI 0
Core_0_STLB_total_miss_rate 0
Core_0_STLB_demand_access 1872417
Core_0_STLB_demand_hit 1872417
Core_0_STLB_demand_miss 0
Core_0_STLB_demand_MPKI 0
Core_0_STLB_demand_miss_rate 0
Core_0_STLB_load_access 1872417
Core_0_STLB_load_hit 1872417
Core_0_STLB_load_miss 0
Core_0_STLB_load_MPKI 0
Core_0_STLB_load_miss_rate 0
Core_0_STLB_rfo_access 0
Core_0_STLB_rfo_hit 0
Core_0_STLB_rfo_miss 0
Core_0_STLB_rfo_MPKI 0
Core_0_STLB_rfo_miss_rate 0
Core_0_STLB_prefetch_access 0
Core_0_STLB_prefetch_hit 0
Core_0_STLB_prefetch_miss 0
Core_0_STLB_prefetch_MPKI 0
Core_0_STLB_prefetch_miss_rate 0
Core_0_STLB_writeback_access 0
Core_0_STLB_writeback_hit 0
Core_0_STLB_writeback_miss 0
Core_0_STLB_writeback_MPKI 0
Core_0_STLB_writeback_miss_rate 0
Core_0_STLB_prefetch_requested 0
Core_0_STLB_prefetch_issued 0
Core_0_STLB_prefetch_useful 0
Core_0_STLB_prefetch_useless 0
Core_0_STLB_prefetch_late 0
Core_0_STLB_prefetch_accuracy 0
Core_0_STLB_prefetch_coverage 0

Core_0_L1I_total_access 643890
Core_0_L1I_total_hit 643890
Core_0_L1I_total_miss 0
Core_0_L1I_total_MPKI 0
Core_0_L1I_total_miss_rate 0
Core_0_L1I_demand_access 643890
Core_0_L1I_demand_hit 643890
Core_0_L1I_demand_miss 0
Core_0_L1I_demand_MPKI 0
Core_0_L1I_demand_miss_rate 0
Core_0_L1I_load_access 643890
Core_0_L1I_load_hit 643890
Core_0_L1I_load_miss 0
Core_0_L1I_load_MPKI 0
Core_0_L1I_load_miss_rate 0
Core_0_L1I_rfo_access 0
Core_0_L1I_rfo_hit 0
Core_0_L1I_rfo_miss 0
Core_0_L1I_rfo_MPKI 0
Core_0_L1I_rfo_miss_rate 0
Core_0_L1I_prefetch_access 0
Core_0_L1I_prefetch_hit 0
Core_0_L1I_prefetch_miss 0
Core_0_L1I_prefetch_MPKI 0
Core_0_L1I_prefetch_miss_rate 0
Core_0_L1I_writeback_access 0
Core_0_L1I_writeback_hit 0
Core_0_L1I_writeback_miss 0
Core_0_L1I_writeback_MPKI 0
Core_0_L1I_writeback_miss_rate 0
Core_0_L1I_prefetch_requested 0
Core_0_L1I_prefetch_issued 0
Core_0_L1I_prefetch_useful 0
Core_0_L1I_prefetch_useless 0
Core_0_L1I_prefetch_late 0
Core_0_L1I_prefetch_accuracy 0
Core_0_L1I_prefetch_coverage 0

Core_0_L1D_total_access 16968983
Core_0_L1D_total_hit 13901785
Core_0_L1D_total_miss 3067198
Core_0_L1D_total_MPKI 61.344
Core_0_L1D_total_miss_rate 0.180753
Core_0_L1D_demand_access 13925663
Core_0_L1D_demand_hit 11772740
Core_0_L1D_demand_miss 2152923
Core_0_L1D_demand_MPKI 43.0585
Core_0_L1D_demand_miss_rate 0.154601
Core_0_L1D_load_access 13925663
Core_0_L1D_load_hit 11772740
Core_0_L1D_load_miss 2152923
Core_0_L1D_load_MPKI 43.0585
Core_0_L1D_load_miss_rate 0.154601
Core_0_L1D_rfo_access 0
Core_0_L1D_rfo_hit 0
Core_0_L1D_rfo_miss 0
Core_0_L1D_rfo_MPKI 0
Core_0_L1D_rfo_miss_rate 0
Core_0_L1D_prefetch_access 1090807
Core_0_L1D_prefetch_hit 202390
Core_0_L1D_prefetch_miss 888417
Core_0_L1D_prefetch_MPKI 17.7683
Core_0_L1D_prefetch_miss_rate 0.814458
Core_0_L1D_writeback_access 1952513
Core_0_L1D_writeback_hit 1926655
Core_0_L1D_writeback_miss 25858
Core_0_L1D_writeback_MPKI 0.51716
Core_0_L1D_writeback_miss_rate 0.0132434
Core_0_L1D_prefetch_requested 1091519
Core_0_L1D_prefetch_issued 1090803
Core_0_L1D_prefetch_useful 627688
Core_0_L1D_prefetch_useless 255113
Core_0_L1D_prefetch_late 22277
Core_0_L1D_prefetch_accuracy 0.575437
Core_0_L1D_prefetch_coverage 0.225737

Core_0_L2C_total_access 3270825
Core_0_L2C_total_hit 667952
Core_0_L2C_total_miss 2602873
Core_0_L2C_total_MPKI 52.0575
Core_0_L2C_total_miss_rate 0.795785
Core_0_L2C_demand_access 1999480
Core_0_L2C_demand_hit 359929
Core_0_L2C_demand_miss 1639551
Core_0_L2C_demand_MPKI 32.791
Core_0_L2C_demand_miss_rate 0.819989
Core_0_L2C_load_access 1988382
Core_0_L2C_load_hit 359819
Core_0_L2C_load_miss 1628563
Core_0_L2C_load_MPKI 32.5713
Core_0_L2C_load_miss_rate 0.819039
Core_0_L2C_rfo_access 11098
Core_0_L2C_rfo_hit 110
Core_0_L2C_rfo_miss 10988
Core_0_L2C_rfo_MPKI 0.21976
Core_0_L2C_rfo_miss_rate 0.990088
Core_0_L2C_prefetch_access 1156658
Core_0_L2C_prefetch_hit 193340
Core_0_L2C_prefetch_miss 963318
Core_0_L2C_prefetch_MPKI 19.2664
Core_0_L2C_prefetch_miss_rate 0.832846
Core_0_L2C_writeback_access 114687
Core_0_L2C_writeback_hit 114683
Core_0_L2C_writeback_miss 4
Core_0_L2C_writeback_MPKI 8e-05
Core_0_L2C_writeback_miss_rate 3.48775e-05
Core_0_L2C_prefetch_requested 273817
Core_0_L2C_prefetch_issued 273817
Core_0_L2C_prefetch_useful 113450
Core_0_L2C_prefetch_useless 29494
Core_0_L2C_prefetch_late 591
Core_0_L2C_prefetch_accuracy 0.414328
Core_0_L2C_prefetch_coverage 0.0647176

Core_0_LLC_total_access 2641219
Core_0_LLC_total_hit 1121129
Core_0_LLC_total_miss 1520090
Core_0_LLC_total_MPKI 30.4018
Core_0_LLC_total_miss_rate 0.575526
Core_0_LLC_demand_access 1638960
Core_0_LLC_demand_hit 968573
Core_0_LLC_demand_miss 670387
Core_0_LLC_demand_MPKI 13.4077
Core_0_LLC_demand_miss_rate 0.409032
Core_0_LLC_load_access 1627972
Core_0_LLC_load_hit 968573
Core_0_LLC_load_miss 659399
Core_0_LLC_load_MPKI 13.188
Core_0_LLC_load_miss_rate 0.405043
Core_0_LLC_rfo_access 10988
Core_0_LLC_rfo_hit 0
Core_0_LLC_rfo_miss 10988
Core_0_LLC_rfo_MPKI 0.21976
Core_0_LLC_rfo_miss_rate 1
Core_0_LLC_prefetch_access 887786
Core_0_LLC_prefetch_hit 127510
Core_0_LLC_prefetch_miss 760276
Core_0_LLC_prefetch_MPKI 15.2055
Core_0_LLC_prefetch_miss_rate 0.856373
Core_0_LLC_writeback_access 114473
Core_0_LLC_writeback_hit 25046
Core_0_LLC_writeback_miss 89427
Core_0_LLC_writeback_MPKI 1.78854
Core_0_LLC_writeback_miss_rate 0.781206
Core_0_LLC_prefetch_requested 0
Core_0_LLC_prefetch_issued 0
Core_0_LLC_prefetch_useful 0
Core_0_LLC_prefetch_useless 0
Core_0_LLC_prefetch_late 0
Core_0_LLC_prefetch_accuracy 0
Core_0_LLC_prefetch_coverage 0

[DRAM Statistics]
Channel_0_RQ_row_buffer_hit 13931
Channel_0_RQ_row_buffer_miss 1416520
Channel_0_WQ_row_buffer_hit 27128
Channel_0_WQ_row_buffer_miss 85371
Channel_0_WQ_full 0
Channel_0_dbus_congested 2934509
DRAM_total_RQ_row_buffer_hit 13931
DRAM_total_RQ_row_buffer_miss 1416520
DRAM_total_WQ_row_buffer_hit 27128
DRAM_total_WQ_row_buffer_miss 85371
DRAM_total_WQ_full 0
DRAM_total_dbus_congested 2934509
DRAM_avg_congested_cycle 17.1022

======STLB miss causes ========
Core_0_STLB_miss_cause_breakdown
Core_0_STLB_cause_Demand_Data_miss 0
Core_0_STLB_cause_Demand_Data_miss_rate 0
Core_0_STLB_cause_Demand_Instruction_miss 0
Core_0_STLB_cause_Demand_Instruction_miss_rate 0
Core_0_STLB_cause_L1D_Prefetch_miss 0
Core_0_STLB_cause_L1D_Prefetch_miss_rate 0
Core_0_STLB_cause_L1I_Prefetch_miss 0
Core_0_STLB_cause_L1I_Prefetch_miss_rate 0
Core_0_STLB_cause_Other_miss 0
Core_0_STLB_cause_Other_miss_rate 0
Core_0_STLB_Demand_miss 0
Core_0_STLB_Demand_miss_rate 0
Core_0_STLB_L1D_Prefetch_miss 0
Core_0_STLB_L1D_Prefetch_miss_rate 0
Core_0_STLB_Other_miss 0
Core_0_STLB_Other_miss_rate 0
