[VMEM] WARNING: physical memory size is smaller than virtual memory size.

*** ChampSim Multicore Out-of-Order Simulator ***
Warmup Instructions: 20000000
Simulation Instructions: 50000000
Number of CPUs: 1
Page size: 4096
STLB ideal mode: all
Core 0: /data0/tzh/champsim_traces/Ligra/ligra_CF.com-lj.ungraph.gcc_6.3.0_O3.drop_184750M.length_250M.champsimtrace.xz
 L1D Berti prefetcher
Off-chip DRAM Size: 16 GiB Channels: 1 Width: 64-bit Data Rate: 3205 MT/s
Warmup halting CPU 0 at instruction 20000004 cycle 4000041 for remainder of phase
Warmup finished CPU 0 instructions: 20000004 cycles: 4000041 cumulative IPC: 5 (Simulation time: 00 hr 00 min 48 sec)
Warmup complete CPU 0 instructions: 20000004 cycles: 4000041 cumulative IPC: 5 (Simulation time: 00 hr 00 min 48 sec)
Simulation finished CPU 0 instructions: 50000001 cycles: 29524151 cumulative IPC: 1.694 (Simulation time: 00 hr 04 min 42 sec)
Simulation complete CPU 0 instructions: 50000001 cycles: 29524151 cumulative IPC: 1.694 (Simulation time: 00 hr 04 min 42 sec)

ChampSim completed all CPUs

=== Simulation ===
CPU 0 runs /data0/tzh/champsim_traces/Ligra/ligra_CF.com-lj.ungraph.gcc_6.3.0_O3.drop_184750M.length_250M.champsimtrace.xz

Region of Interest Statistics

CPU 0 cumulative IPC: 1.694 instructions: 50000001 cycles: 29524151
CPU 0 Branch Prediction Accuracy: 99.67% MPKI: 0.4582 Average ROB Occupancy at Mispredict: 282.8
Branch type MPKI
BRANCH_DIRECT_JUMP: 0
BRANCH_INDIRECT: 0
BRANCH_CONDITIONAL: 0.4582
BRANCH_DIRECT_CALL: 0
BRANCH_INDIRECT_CALL: 0
BRANCH_RETURN: 0

cpu0->cpu0_STLB TOTAL        ACCESS:     147319 HIT:     147319 MISS:          0 MSHR_MERGE:          0
cpu0->cpu0_STLB LOAD         ACCESS:     147319 HIT:     147319 MISS:          0 MSHR_MERGE:          0
cpu0->cpu0_STLB RFO          ACCESS:          0 HIT:          0 MISS:          0 MSHR_MERGE:          0
cpu0->cpu0_STLB PREFETCH     ACCESS:          0 HIT:          0 MISS:          0 MSHR_MERGE:          0
cpu0->cpu0_STLB WRITE        ACCESS:          0 HIT:          0 MISS:          0 MSHR_MERGE:          0
cpu0->cpu0_STLB TRANSLATION  ACCESS:          0 HIT:          0 MISS:          0 MSHR_MERGE:          0
cpu0->cpu0_STLB PREFETCH REQUESTED:          0 ISSUED:          0 USEFUL:          0 USELESS:          0 LATE:          0
cpu0->cpu0_STLB AVERAGE MISS LATENCY: - cycles
cpu0->cpu0_L2C TOTAL        ACCESS:     854250 HIT:     259317 MISS:     594933 MSHR_MERGE:      30948
cpu0->cpu0_L2C LOAD         ACCESS:     309524 HIT:      56759 MISS:     252765 MSHR_MERGE:       2365
cpu0->cpu0_L2C RFO          ACCESS:        344 HIT:        344 MISS:          0 MSHR_MERGE:          0
cpu0->cpu0_L2C PREFETCH     ACCESS:     486525 HIT:     144371 MISS:     342154 MSHR_MERGE:      28583
cpu0->cpu0_L2C WRITE        ACCESS:      57857 HIT:      57843 MISS:         14 MSHR_MERGE:          0
cpu0->cpu0_L2C TRANSLATION  ACCESS:          0 HIT:          0 MISS:          0 MSHR_MERGE:          0
cpu0->cpu0_L2C PREFETCH REQUESTED:     282599 ISSUED:     282599 USEFUL:      67050 USELESS:     133365 LATE:       2365
cpu0->cpu0_L2C AVERAGE MISS LATENCY: 238.8 cycles
cpu0->cpu0_L1I TOTAL        ACCESS:    4801535 HIT:    4801535 MISS:          0 MSHR_MERGE:          0
cpu0->cpu0_L1I LOAD         ACCESS:    4801535 HIT:    4801535 MISS:          0 MSHR_MERGE:          0
cpu0->cpu0_L1I RFO          ACCESS:          0 HIT:          0 MISS:          0 MSHR_MERGE:          0
cpu0->cpu0_L1I PREFETCH     ACCESS:          0 HIT:          0 MISS:          0 MSHR_MERGE:          0
cpu0->cpu0_L1I WRITE        ACCESS:          0 HIT:          0 MISS:          0 MSHR_MERGE:          0
cpu0->cpu0_L1I TRANSLATION  ACCESS:          0 HIT:          0 MISS:          0 MSHR_MERGE:          0
cpu0->cpu0_L1I PREFETCH REQUESTED:          0 ISSUED:          0 USEFUL:          0 USELESS:          0 LATE:          0
cpu0->cpu0_L1I AVERAGE MISS LATENCY: - cycles
cpu0->cpu0_L1D TOTAL        ACCESS:    9152585 HIT:    7693540 MISS:    1459045 MSHR_MERGE:     945250
cpu0->cpu0_L1D LOAD         ACCESS:    6568971 HIT:    5326290 MISS:    1242681 MSHR_MERGE:     933157
cpu0->cpu0_L1D RFO          ACCESS:          0 HIT:          0 MISS:          0 MSHR_MERGE:          0
cpu0->cpu0_L1D PREFETCH     ACCESS:     296380 HIT:      80367 MISS:     216013 MSHR_MERGE:      12087
cpu0->cpu0_L1D WRITE        ACCESS:    2287234 HIT:    2286883 MISS:        351 MSHR_MERGE:          6
cpu0->cpu0_L1D TRANSLATION  ACCESS:          0 HIT:          0 MISS:          0 MSHR_MERGE:          0
cpu0->cpu0_L1D PREFETCH REQUESTED:     296562 ISSUED:     296380 USEFUL:     163600 USELESS:      40367 LATE:      15264
cpu0->cpu0_L1D AVERAGE MISS LATENCY: 199.2 cycles
cpu0->cpu0_ITLB TOTAL        ACCESS:    4546366 HIT:    4546366 MISS:          0 MSHR_MERGE:          0
cpu0->cpu0_ITLB LOAD         ACCESS:    4546366 HIT:    4546366 MISS:          0 MSHR_MERGE:          0
cpu0->cpu0_ITLB RFO          ACCESS:          0 HIT:          0 MISS:          0 MSHR_MERGE:          0
cpu0->cpu0_ITLB PREFETCH     ACCESS:          0 HIT:          0 MISS:          0 MSHR_MERGE:          0
cpu0->cpu0_ITLB WRITE        ACCESS:          0 HIT:          0 MISS:          0 MSHR_MERGE:          0
cpu0->cpu0_ITLB TRANSLATION  ACCESS:          0 HIT:          0 MISS:          0 MSHR_MERGE:          0
cpu0->cpu0_ITLB PREFETCH REQUESTED:          0 ISSUED:          0 USEFUL:          0 USELESS:          0 LATE:          0
cpu0->cpu0_ITLB AVERAGE MISS LATENCY: - cycles
cpu0->cpu0_DTLB TOTAL        ACCESS:    8536342 HIT:    8224608 MISS:     311734 MSHR_MERGE:     164415
cpu0->cpu0_DTLB LOAD         ACCESS:    8536342 HIT:    8224608 MISS:     311734 MSHR_MERGE:     164415
cpu0->cpu0_DTLB RFO          ACCESS:          0 HIT:          0 MISS:          0 MSHR_MERGE:          0
cpu0->cpu0_DTLB PREFETCH     ACCESS:          0 HIT:          0 MISS:          0 MSHR_MERGE:          0
cpu0->cpu0_DTLB WRITE        ACCESS:          0 HIT:          0 MISS:          0 MSHR_MERGE:          0
cpu0->cpu0_DTLB TRANSLATION  ACCESS:          0 HIT:          0 MISS:          0 MSHR_MERGE:          0
cpu0->cpu0_DTLB PREFETCH REQUESTED:          0 ISSUED:          0 USEFUL:          0 USELESS:          0 LATE:          0
cpu0->cpu0_DTLB AVERAGE MISS LATENCY: 5 cycles
cpu0->LLC TOTAL        ACCESS:     621017 HIT:      61003 MISS:     560014 MSHR_MERGE:         41
cpu0->LLC LOAD         ACCESS:     250400 HIT:       8105 MISS:     242295 MSHR_MERGE:          1
cpu0->LLC RFO          ACCESS:          0 HIT:          0 MISS:          0 MSHR_MERGE:          0
cpu0->LLC PREFETCH     ACCESS:     313571 HIT:       2744 MISS:     310827 MSHR_MERGE:         40
cpu0->LLC WRITE        ACCESS:      57046 HIT:      50154 MISS:       6892 MSHR_MERGE:          0
cpu0->LLC TRANSLATION  ACCESS:          0 HIT:          0 MISS:          0 MSHR_MERGE:          0
cpu0->LLC PREFETCH REQUESTED:          0 ISSUED:          0 USEFUL:          0 USELESS:          0 LATE:          0
cpu0->LLC AVERAGE MISS LATENCY: 225.2 cycles

DRAM Statistics

Channel 0 RQ ROW_BUFFER_HIT:       2121
  ROW_BUFFER_MISS:     550960
  AVG DBUS CONGESTED CYCLE: 5.423
Channel 0 WQ ROW_BUFFER_HIT:      18424
  ROW_BUFFER_MISS:      38059
  FULL:          0
Channel 0 REFRESHES ISSUED:       2460

[ROI Statistics]
[System Configuration]
num_cpus 1
cpu_freq 4000
fetch_width 6
decode_width 6
dispatch_width 6
execute_width 6
lq_width 2
sq_width 2
retire_width 6
scheduler_size 128
branch_mispredict_penalty 15
rob_size 352
lq_size 128
sq_size 72
ifetch_buffer_size 64
decode_buffer_size 32
dispatch_buffer_size 32
register_file_size 288
decode_latency 1
dispatch_latency 1
schedule_latency 1
execute_latency 1
page_size 4096
block_size 64
core_0_itlb_set 16
core_0_itlb_way 4
core_0_itlb_rq_size 16
core_0_itlb_wq_size 16
core_0_itlb_pq_size 0
core_0_itlb_mshr_size 8
core_0_itlb_hit_latency 1
core_0_itlb_fill_latency 1
core_0_itlb_max_tag_check 2
core_0_itlb_max_fill 2
core_0_dtlb_set 16
core_0_dtlb_way 4
core_0_dtlb_rq_size 16
core_0_dtlb_wq_size 16
core_0_dtlb_pq_size 0
core_0_dtlb_mshr_size 8
core_0_dtlb_hit_latency 1
core_0_dtlb_fill_latency 1
core_0_dtlb_max_tag_check 2
core_0_dtlb_max_fill 2
core_0_stlb_set 128
core_0_stlb_way 12
core_0_stlb_rq_size 32
core_0_stlb_wq_size 32
core_0_stlb_pq_size 0
core_0_stlb_mshr_size 16
core_0_stlb_hit_latency 4
core_0_stlb_fill_latency 4
core_0_stlb_max_tag_check 1
core_0_stlb_max_fill 1
core_0_l1i_set 64
core_0_l1i_way 8
core_0_l1i_rq_size 64
core_0_l1i_wq_size 64
core_0_l1i_pq_size 32
core_0_l1i_mshr_size 8
core_0_l1i_hit_latency 2
core_0_l1i_fill_latency 2
core_0_l1i_max_tag_check 2
core_0_l1i_max_fill 2
core_0_l1d_set 64
core_0_l1d_way 12
core_0_l1d_rq_size 64
core_0_l1d_wq_size 64
core_0_l1d_pq_size 8
core_0_l1d_mshr_size 16
core_0_l1d_hit_latency 2
core_0_l1d_fill_latency 3
core_0_l1d_max_tag_check 2
core_0_l1d_max_fill 2
core_0_l2c_set 1024
core_0_l2c_way 8
core_0_l2c_rq_size 32
core_0_l2c_wq_size 32
core_0_l2c_pq_size 16
core_0_l2c_mshr_size 32
core_0_l2c_hit_latency 5
core_0_l2c_fill_latency 5
core_0_l2c_max_tag_check 1
core_0_l2c_max_fill 1
llc_set 2048
llc_way 16
llc_rq_size 32
llc_wq_size 32
llc_pq_size 32
llc_mshr_size 64
llc_hit_latency 10
llc_fill_latency 10
llc_max_tag_check 1
llc_max_fill 1
dram_channels 1
dram_ranks 1
dram_bankgroups 8
dram_banks 4
dram_rows 65536
dram_columns 1024
dram_channel_width 8
dram_rq_size 64
dram_wq_size 64
dram_size 17179869184
core_0_itlb_prefetcher no
core_0_dtlb_prefetcher no
core_0_stlb_prefetcher no
core_0_l1i_prefetcher next_line
core_0_l1d_prefetcher berti
core_0_l2c_prefetcher ip_stride
llc_prefetcher no
llc_replacement drrip

Core_0_instructions 50000001
Core_0_cycles 29524151
Core_0_IPC 1.69353
Core_0_branch_prediction_accuracy 99.6695
Core_0_branch_MPKI 0.45822
Core_0_average_ROB_occupancy_at_mispredict 282.787

Core_0_ITLB_total_access 4546366
Core_0_ITLB_total_hit 4546366
Core_0_ITLB_total_miss 0
Core_0_ITLB_total_MPKI 0
Core_0_ITLB_total_miss_rate 0
Core_0_ITLB_demand_access 4546366
Core_0_ITLB_demand_hit 4546366
Core_0_ITLB_demand_miss 0
Core_0_ITLB_demand_MPKI 0
Core_0_ITLB_demand_miss_rate 0
Core_0_ITLB_load_access 4546366
Core_0_ITLB_load_hit 4546366
Core_0_ITLB_load_miss 0
Core_0_ITLB_load_MPKI 0
Core_0_ITLB_load_miss_rate 0
Core_0_ITLB_rfo_access 0
Core_0_ITLB_rfo_hit 0
Core_0_ITLB_rfo_miss 0
Core_0_ITLB_rfo_MPKI 0
Core_0_ITLB_rfo_miss_rate 0
Core_0_ITLB_prefetch_access 0
Core_0_ITLB_prefetch_hit 0
Core_0_ITLB_prefetch_miss 0
Core_0_ITLB_prefetch_MPKI 0
Core_0_ITLB_prefetch_miss_rate 0
Core_0_ITLB_writeback_access 0
Core_0_ITLB_writeback_hit 0
Core_0_ITLB_writeback_miss 0
Core_0_ITLB_writeback_MPKI 0
Core_0_ITLB_writeback_miss_rate 0
Core_0_ITLB_prefetch_requested 0
Core_0_ITLB_prefetch_issued 0
Core_0_ITLB_prefetch_useful 0
Core_0_ITLB_prefetch_useless 0
Core_0_ITLB_prefetch_late 0
Core_0_ITLB_prefetch_accuracy 0
Core_0_ITLB_prefetch_coverage 0

Core_0_DTLB_total_access 8536342
Core_0_DTLB_total_hit 8224608
Core_0_DTLB_total_miss 311734
Core_0_DTLB_total_MPKI 6.23468
Core_0_DTLB_total_miss_rate 0.0365185
Core_0_DTLB_demand_access 8536342
Core_0_DTLB_demand_hit 8224608
Core_0_DTLB_demand_miss 311734
Core_0_DTLB_demand_MPKI 6.23468
Core_0_DTLB_demand_miss_rate 0.0365185
Core_0_DTLB_load_access 8536342
Core_0_DTLB_load_hit 8224608
Core_0_DTLB_load_miss 311734
Core_0_DTLB_load_MPKI 6.23468
Core_0_DTLB_load_miss_rate 0.0365185
Core_0_DTLB_rfo_access 0
Core_0_DTLB_rfo_hit 0
Core_0_DTLB_rfo_miss 0
Core_0_DTLB_rfo_MPKI 0
Core_0_DTLB_rfo_miss_rate 0
Core_0_DTLB_prefetch_access 0
Core_0_DTLB_prefetch_hit 0
Core_0_DTLB_prefetch_miss 0
Core_0_DTLB_prefetch_MPKI 0
Core_0_DTLB_prefetch_miss_rate 0
Core_0_DTLB_writeback_access 0
Core_0_DTLB_writeback_hit 0
Core_0_DTLB_writeback_miss 0
Core_0_DTLB_writeback_MPKI 0
Core_0_DTLB_writeback_miss_rate 0
Core_0_DTLB_prefetch_requested 0
Core_0_DTLB_prefetch_issued 0
Core_0_DTLB_prefetch_useful 0
Core_0_DTLB_prefetch_useless 0
Core_0_DTLB_prefetch_late 0
Core_0_DTLB_prefetch_accuracy 0
Core_0_DTLB_prefetch_coverage 0

Core_0_STLB_total_access 147319
Core_0_STLB_total_hit 147319
Core_0_STLB_total_miss 0
Core_0_STLB_total_MPKI 0
Core_0_STLB_total_miss_rate 0
Core_0_STLB_demand_access 147319
Core_0_STLB_demand_hit 147319
Core_0_STLB_demand_miss 0
Core_0_STLB_demand_MPKI 0
Core_0_STLB_demand_miss_rate 0
Core_0_STLB_load_access 147319
Core_0_STLB_load_hit 147319
Core_0_STLB_load_miss 0
Core_0_STLB_load_MPKI 0
Core_0_STLB_load_miss_rate 0
Core_0_STLB_rfo_access 0
Core_0_STLB_rfo_hit 0
Core_0_STLB_rfo_miss 0
Core_0_STLB_rfo_MPKI 0
Core_0_STLB_rfo_miss_rate 0
Core_0_STLB_prefetch_access 0
Core_0_STLB_prefetch_hit 0
Core_0_STLB_prefetch_miss 0
Core_0_STLB_prefetch_MPKI 0
Core_0_STLB_prefetch_miss_rate 0
Core_0_STLB_writeback_access 0
Core_0_STLB_writeback_hit 0
Core_0_STLB_writeback_miss 0
Core_0_STLB_writeback_MPKI 0
Core_0_STLB_writeback_miss_rate 0
Core_0_STLB_prefetch_requested 0
Core_0_STLB_prefetch_issued 0
Core_0_STLB_prefetch_useful 0
Core_0_STLB_prefetch_useless 0
Core_0_STLB_prefetch_late 0
Core_0_STLB_prefetch_accuracy 0
Core_0_STLB_prefetch_coverage 0

Core_0_L1I_total_access 4801535
Core_0_L1I_total_hit 4801535
Core_0_L1I_total_miss 0
Core_0_L1I_total_MPKI 0
Core_0_L1I_total_miss_rate 0
Core_0_L1I_demand_access 4801535
Core_0_L1I_demand_hit 4801535
Core_0_L1I_demand_miss 0
Core_0_L1I_demand_MPKI 0
Core_0_L1I_demand_miss_rate 0
Core_0_L1I_load_access 4801535
Core_0_L1I_load_hit 4801535
Core_0_L1I_load_miss 0
Core_0_L1I_load_MPKI 0
Core_0_L1I_load_miss_rate 0
Core_0_L1I_rfo_access 0
Core_0_L1I_rfo_hit 0
Core_0_L1I_rfo_miss 0
Core_0_L1I_rfo_MPKI 0
Core_0_L1I_rfo_miss_rate 0
Core_0_L1I_prefetch_access 0
Core_0_L1I_prefetch_hit 0
Core_0_L1I_prefetch_miss 0
Core_0_L1I_prefetch_MPKI 0
Core_0_L1I_prefetch_miss_rate 0
Core_0_L1I_writeback_access 0
Core_0_L1I_writeback_hit 0
Core_0_L1I_writeback_miss 0
Core_0_L1I_writeback_MPKI 0
Core_0_L1I_writeback_miss_rate 0
Core_0_L1I_prefetch_requested 0
Core_0_L1I_prefetch_issued 0
Core_0_L1I_prefetch_useful 0
Core_0_L1I_prefetch_useless 0
Core_0_L1I_prefetch_late 0
Core_0_L1I_prefetch_accuracy 0
Core_0_L1I_prefetch_coverage 0

Core_0_L1D_total_access 9152585
Core_0_L1D_total_hit 7693540
Core_0_L1D_total_miss 1459045
Core_0_L1D_total_MPKI 29.1809
Core_0_L1D_total_miss_rate 0.159413
Core_0_L1D_demand_access 6568971
Core_0_L1D_demand_hit 5326290
Core_0_L1D_demand_miss 1242681
Core_0_L1D_demand_MPKI 24.8536
Core_0_L1D_demand_miss_rate 0.189174
Core_0_L1D_load_access 6568971
Core_0_L1D_load_hit 5326290
Core_0_L1D_load_miss 1242681
Core_0_L1D_load_MPKI 24.8536
Core_0_L1D_load_miss_rate 0.189174
Core_0_L1D_rfo_access 0
Core_0_L1D_rfo_hit 0
Core_0_L1D_rfo_miss 0
Core_0_L1D_rfo_MPKI 0
Core_0_L1D_rfo_miss_rate 0
Core_0_L1D_prefetch_access 296380
Core_0_L1D_prefetch_hit 80367
Core_0_L1D_prefetch_miss 216013
Core_0_L1D_prefetch_MPKI 4.32026
Core_0_L1D_prefetch_miss_rate 0.728838
Core_0_L1D_writeback_access 2287234
Core_0_L1D_writeback_hit 2286883
Core_0_L1D_writeback_miss 351
Core_0_L1D_writeback_MPKI 0.00702
Core_0_L1D_writeback_miss_rate 0.00015346
Core_0_L1D_prefetch_requested 296562
Core_0_L1D_prefetch_issued 296380
Core_0_L1D_prefetch_useful 163600
Core_0_L1D_prefetch_useless 40367
Core_0_L1D_prefetch_late 15264
Core_0_L1D_prefetch_accuracy 0.551994
Core_0_L1D_prefetch_coverage 0.116335

Core_0_L2C_total_access 854250
Core_0_L2C_total_hit 259317
Core_0_L2C_total_miss 594933
Core_0_L2C_total_MPKI 11.8987
Core_0_L2C_total_miss_rate 0.696439
Core_0_L2C_demand_access 309868
Core_0_L2C_demand_hit 57103
Core_0_L2C_demand_miss 252765
Core_0_L2C_demand_MPKI 5.0553
Core_0_L2C_demand_miss_rate 0.815718
Core_0_L2C_load_access 309524
Core_0_L2C_load_hit 56759
Core_0_L2C_load_miss 252765
Core_0_L2C_load_MPKI 5.0553
Core_0_L2C_load_miss_rate 0.816625
Core_0_L2C_rfo_access 344
Core_0_L2C_rfo_hit 344
Core_0_L2C_rfo_miss 0
Core_0_L2C_rfo_MPKI 0
Core_0_L2C_rfo_miss_rate 0
Core_0_L2C_prefetch_access 486525
Core_0_L2C_prefetch_hit 144371
Core_0_L2C_prefetch_miss 342154
Core_0_L2C_prefetch_MPKI 6.84308
Core_0_L2C_prefetch_miss_rate 0.703261
Core_0_L2C_writeback_access 57857
Core_0_L2C_writeback_hit 57843
Core_0_L2C_writeback_miss 14
Core_0_L2C_writeback_MPKI 0.00028
Core_0_L2C_writeback_miss_rate 0.000241976
Core_0_L2C_prefetch_requested 282599
Core_0_L2C_prefetch_issued 282599
Core_0_L2C_prefetch_useful 67050
Core_0_L2C_prefetch_useless 133365
Core_0_L2C_prefetch_late 2365
Core_0_L2C_prefetch_accuracy 0.237262
Core_0_L2C_prefetch_coverage 0.209652

Core_0_LLC_total_access 621017
Core_0_LLC_total_hit 61003
Core_0_LLC_total_miss 560014
Core_0_LLC_total_MPKI 11.2003
Core_0_LLC_total_miss_rate 0.901769
Core_0_LLC_demand_access 250400
Core_0_LLC_demand_hit 8105
Core_0_LLC_demand_miss 242295
Core_0_LLC_demand_MPKI 4.8459
Core_0_LLC_demand_miss_rate 0.967632
Core_0_LLC_load_access 250400
Core_0_LLC_load_hit 8105
Core_0_LLC_load_miss 242295
Core_0_LLC_load_MPKI 4.8459
Core_0_LLC_load_miss_rate 0.967632
Core_0_LLC_rfo_access 0
Core_0_LLC_rfo_hit 0
Core_0_LLC_rfo_miss 0
Core_0_LLC_rfo_MPKI 0
Core_0_LLC_rfo_miss_rate 0
Core_0_LLC_prefetch_access 313571
Core_0_LLC_prefetch_hit 2744
Core_0_LLC_prefetch_miss 310827
Core_0_LLC_prefetch_MPKI 6.21654
Core_0_LLC_prefetch_miss_rate 0.991249
Core_0_LLC_writeback_access 57046
Core_0_LLC_writeback_hit 50154
Core_0_LLC_writeback_miss 6892
Core_0_LLC_writeback_MPKI 0.13784
Core_0_LLC_writeback_miss_rate 0.120815
Core_0_LLC_prefetch_requested 0
Core_0_LLC_prefetch_issued 0
Core_0_LLC_prefetch_useful 0
Core_0_LLC_prefetch_useless 0
Core_0_LLC_prefetch_late 0
Core_0_LLC_prefetch_accuracy 0
Core_0_LLC_prefetch_coverage 0

[DRAM Statistics]
Channel_0_RQ_row_buffer_hit 2121
Channel_0_RQ_row_buffer_miss 550960
Channel_0_WQ_row_buffer_hit 18424
Channel_0_WQ_row_buffer_miss 38059
Channel_0_WQ_full 0
Channel_0_dbus_congested 1320565
DRAM_total_RQ_row_buffer_hit 2121
DRAM_total_RQ_row_buffer_miss 550960
DRAM_total_WQ_row_buffer_hit 18424
DRAM_total_WQ_row_buffer_miss 38059
DRAM_total_WQ_full 0
DRAM_total_dbus_congested 1320565
DRAM_avg_congested_cycle 5.42305

======STLB miss causes ========
Core_0_STLB_miss_cause_breakdown
Core_0_STLB_cause_Demand_Data_miss 0
Core_0_STLB_cause_Demand_Data_miss_rate 0
Core_0_STLB_cause_Demand_Instruction_miss 0
Core_0_STLB_cause_Demand_Instruction_miss_rate 0
Core_0_STLB_cause_L1D_Prefetch_miss 0
Core_0_STLB_cause_L1D_Prefetch_miss_rate 0
Core_0_STLB_cause_L1I_Prefetch_miss 0
Core_0_STLB_cause_L1I_Prefetch_miss_rate 0
Core_0_STLB_cause_Other_miss 0
Core_0_STLB_cause_Other_miss_rate 0
Core_0_STLB_Demand_miss 0
Core_0_STLB_Demand_miss_rate 0
Core_0_STLB_L1D_Prefetch_miss 0
Core_0_STLB_L1D_Prefetch_miss_rate 0
Core_0_STLB_Other_miss 0
Core_0_STLB_Other_miss_rate 0
