[VMEM] WARNING: physical memory size is smaller than virtual memory size.

*** ChampSim Multicore Out-of-Order Simulator ***
Warmup Instructions: 50000000
Simulation Instructions: 100000000
Number of CPUs: 1
Page size: 4096
Core 0: /data0/tzh/champsim_traces/SPEC06/433.milc-337B.champsimtrace.xz
Off-chip DRAM Size: 16 GiB Channels: 1 Width: 64-bit Data Rate: 3205 MT/s
Warmup halting CPU 0 at instruction 50000000 cycle 18165475 for remainder of phase
Warmup finished CPU 0 instructions: 50000000 cycles: 18165475 cumulative IPC: 2.752 (Simulation time: 00 hr 03 min 12 sec)
Warmup complete CPU 0 instructions: 50000000 cycles: 18165475 cumulative IPC: 2.752 (Simulation time: 00 hr 03 min 12 sec)
Simulation finished CPU 0 instructions: 100000003 cycles: 109094410 cumulative IPC: 0.9166 (Simulation time: 00 hr 17 min 58 sec)
Simulation complete CPU 0 instructions: 100000003 cycles: 109094410 cumulative IPC: 0.9166 (Simulation time: 00 hr 17 min 58 sec)

ChampSim completed all CPUs

=== Simulation ===
CPU 0 runs /data0/tzh/champsim_traces/SPEC06/433.milc-337B.champsimtrace.xz

Region of Interest Statistics

CPU 0 cumulative IPC: 0.9166 instructions: 100000003 cycles: 109094410
CPU 0 Branch Prediction Accuracy: 100% MPKI: 0.00037 Average ROB Occupancy at Mispredict: 51.43
Branch type MPKI
BRANCH_DIRECT_JUMP: 4e-05
BRANCH_INDIRECT: 0
BRANCH_CONDITIONAL: 0.00019
BRANCH_DIRECT_CALL: 7e-05
BRANCH_INDIRECT_CALL: 0
BRANCH_RETURN: 7e-05

cpu0->cpu0_STLB TOTAL        ACCESS:     196199 HIT:         17 MISS:     196182 MSHR_MERGE:          0
cpu0->cpu0_STLB LOAD         ACCESS:     196199 HIT:         17 MISS:     196182 MSHR_MERGE:          0
cpu0->cpu0_STLB RFO          ACCESS:          0 HIT:          0 MISS:          0 MSHR_MERGE:          0
cpu0->cpu0_STLB PREFETCH     ACCESS:          0 HIT:          0 MISS:          0 MSHR_MERGE:          0
cpu0->cpu0_STLB WRITE        ACCESS:          0 HIT:          0 MISS:          0 MSHR_MERGE:          0
cpu0->cpu0_STLB TRANSLATION  ACCESS:          0 HIT:          0 MISS:          0 MSHR_MERGE:          0
cpu0->cpu0_STLB PREFETCH REQUESTED:          0 ISSUED:          0 USEFUL:          0 USELESS:          0 LATE:          0
cpu0->cpu0_STLB AVERAGE MISS LATENCY: 97.8 cycles
cpu0->cpu0_L2C TOTAL        ACCESS:    2859926 HIT:     793581 MISS:    2066345 MSHR_MERGE:      28442
cpu0->cpu0_L2C LOAD         ACCESS:    1293115 HIT:     109605 MISS:    1183510 MSHR_MERGE:       3939
cpu0->cpu0_L2C RFO          ACCESS:     563566 HIT:          0 MISS:     563566 MSHR_MERGE:          0
cpu0->cpu0_L2C PREFETCH     ACCESS:     413029 HIT:     119630 MISS:     293399 MSHR_MERGE:      24503
cpu0->cpu0_L2C WRITE        ACCESS:     563567 HIT:     562590 MISS:        977 MSHR_MERGE:          0
cpu0->cpu0_L2C TRANSLATION  ACCESS:      26649 HIT:       1756 MISS:      24893 MSHR_MERGE:          0
cpu0->cpu0_L2C PREFETCH REQUESTED:     413029 ISSUED:     413029 USEFUL:     113540 USELESS:     154808 LATE:       3939
cpu0->cpu0_L2C AVERAGE MISS LATENCY: 270.6 cycles
cpu0->cpu0_L1I TOTAL        ACCESS:   16603116 HIT:   16603093 MISS:         23 MSHR_MERGE:          3
cpu0->cpu0_L1I LOAD         ACCESS:   16603116 HIT:   16603093 MISS:         23 MSHR_MERGE:          3
cpu0->cpu0_L1I RFO          ACCESS:          0 HIT:          0 MISS:          0 MSHR_MERGE:          0
cpu0->cpu0_L1I PREFETCH     ACCESS:          0 HIT:          0 MISS:          0 MSHR_MERGE:          0
cpu0->cpu0_L1I WRITE        ACCESS:          0 HIT:          0 MISS:          0 MSHR_MERGE:          0
cpu0->cpu0_L1I TRANSLATION  ACCESS:          0 HIT:          0 MISS:          0 MSHR_MERGE:          0
cpu0->cpu0_L1I PREFETCH REQUESTED:          0 ISSUED:          0 USEFUL:          0 USELESS:          0 LATE:          0
cpu0->cpu0_L1I AVERAGE MISS LATENCY: 224.8 cycles
cpu0->cpu0_L1D TOTAL        ACCESS:   18070951 HIT:    8426447 MISS:    9644504 MSHR_MERGE:    7761192
cpu0->cpu0_L1D LOAD         ACCESS:   13282286 HIT:    7338089 MISS:    5944197 MSHR_MERGE:    4651101
cpu0->cpu0_L1D RFO          ACCESS:          0 HIT:          0 MISS:          0 MSHR_MERGE:          0
cpu0->cpu0_L1D PREFETCH     ACCESS:          0 HIT:          0 MISS:          0 MSHR_MERGE:          0
cpu0->cpu0_L1D WRITE        ACCESS:    4395907 HIT:     722250 MISS:    3673657 MSHR_MERGE:    3110090
cpu0->cpu0_L1D TRANSLATION  ACCESS:     392758 HIT:     366108 MISS:      26650 MSHR_MERGE:          1
cpu0->cpu0_L1D PREFETCH REQUESTED:          0 ISSUED:          0 USEFUL:          0 USELESS:          0 LATE:          0
cpu0->cpu0_L1D AVERAGE MISS LATENCY: 263.8 cycles
cpu0->cpu0_ITLB TOTAL        ACCESS:   14094292 HIT:   14094291 MISS:          1 MSHR_MERGE:          0
cpu0->cpu0_ITLB LOAD         ACCESS:   14094292 HIT:   14094291 MISS:          1 MSHR_MERGE:          0
cpu0->cpu0_ITLB RFO          ACCESS:          0 HIT:          0 MISS:          0 MSHR_MERGE:          0
cpu0->cpu0_ITLB PREFETCH     ACCESS:          0 HIT:          0 MISS:          0 MSHR_MERGE:          0
cpu0->cpu0_ITLB WRITE        ACCESS:          0 HIT:          0 MISS:          0 MSHR_MERGE:          0
cpu0->cpu0_ITLB TRANSLATION  ACCESS:          0 HIT:          0 MISS:          0 MSHR_MERGE:          0
cpu0->cpu0_ITLB PREFETCH REQUESTED:          0 ISSUED:          0 USEFUL:          0 USELESS:          0 LATE:          0
cpu0->cpu0_ITLB AVERAGE MISS LATENCY: 1416 cycles
cpu0->cpu0_DTLB TOTAL        ACCESS:   16971547 HIT:   15418934 MISS:    1552613 MSHR_MERGE:    1356415
cpu0->cpu0_DTLB LOAD         ACCESS:   16971547 HIT:   15418934 MISS:    1552613 MSHR_MERGE:    1356415
cpu0->cpu0_DTLB RFO          ACCESS:          0 HIT:          0 MISS:          0 MSHR_MERGE:          0
cpu0->cpu0_DTLB PREFETCH     ACCESS:          0 HIT:          0 MISS:          0 MSHR_MERGE:          0
cpu0->cpu0_DTLB WRITE        ACCESS:          0 HIT:          0 MISS:          0 MSHR_MERGE:          0
cpu0->cpu0_DTLB TRANSLATION  ACCESS:          0 HIT:          0 MISS:          0 MSHR_MERGE:          0
cpu0->cpu0_DTLB PREFETCH REQUESTED:          0 ISSUED:          0 USEFUL:          0 USELESS:          0 LATE:          0
cpu0->cpu0_DTLB AVERAGE MISS LATENCY: 103.8 cycles
cpu0->LLC TOTAL        ACCESS:    2600492 HIT:     106133 MISS:    2494359 MSHR_MERGE:          0
cpu0->LLC LOAD         ACCESS:    1179571 HIT:        254 MISS:    1179317 MSHR_MERGE:          0
cpu0->LLC RFO          ACCESS:     563566 HIT:        786 MISS:     562780 MSHR_MERGE:          0
cpu0->LLC PREFETCH     ACCESS:     268896 HIT:       4976 MISS:     263920 MSHR_MERGE:          0
cpu0->LLC WRITE        ACCESS:     563566 HIT:     100074 MISS:     463492 MSHR_MERGE:          0
cpu0->LLC TRANSLATION  ACCESS:      24893 HIT:         43 MISS:      24850 MSHR_MERGE:          0
cpu0->LLC PREFETCH REQUESTED:          0 ISSUED:          0 USEFUL:          0 USELESS:          0 LATE:          0
cpu0->LLC AVERAGE MISS LATENCY: 204 cycles

DRAM Statistics

Channel 0 RQ ROW_BUFFER_HIT:     239735
  ROW_BUFFER_MISS:    1791120
  AVG DBUS CONGESTED CYCLE: 9.028
Channel 0 WQ ROW_BUFFER_HIT:     170553
  ROW_BUFFER_MISS:     374427
  FULL:          0
Channel 0 REFRESHES ISSUED:       9091

[ROI Statistics]
[System Configuration]
num_cpus 1
cpu_freq 4000
fetch_width 6
decode_width 6
dispatch_width 6
execute_width 6
lq_width 2
sq_width 2
retire_width 6
scheduler_size 128
branch_mispredict_penalty 15
rob_size 352
lq_size 128
sq_size 72
ifetch_buffer_size 64
decode_buffer_size 32
dispatch_buffer_size 32
register_file_size 288
decode_latency 1
dispatch_latency 1
schedule_latency 1
execute_latency 1
page_size 4096
block_size 64
core_0_itlb_set 16
core_0_itlb_way 4
core_0_itlb_rq_size 16
core_0_itlb_wq_size 16
core_0_itlb_pq_size 0
core_0_itlb_mshr_size 8
core_0_itlb_hit_latency 1
core_0_itlb_fill_latency 1
core_0_itlb_max_tag_check 2
core_0_itlb_max_fill 2
core_0_dtlb_set 16
core_0_dtlb_way 4
core_0_dtlb_rq_size 16
core_0_dtlb_wq_size 16
core_0_dtlb_pq_size 0
core_0_dtlb_mshr_size 8
core_0_dtlb_hit_latency 1
core_0_dtlb_fill_latency 1
core_0_dtlb_max_tag_check 2
core_0_dtlb_max_fill 2
core_0_stlb_set 128
core_0_stlb_way 12
core_0_stlb_rq_size 32
core_0_stlb_wq_size 32
core_0_stlb_pq_size 0
core_0_stlb_mshr_size 16
core_0_stlb_hit_latency 4
core_0_stlb_fill_latency 4
core_0_stlb_max_tag_check 1
core_0_stlb_max_fill 1
core_0_l1i_set 64
core_0_l1i_way 8
core_0_l1i_rq_size 64
core_0_l1i_wq_size 64
core_0_l1i_pq_size 32
core_0_l1i_mshr_size 8
core_0_l1i_hit_latency 2
core_0_l1i_fill_latency 2
core_0_l1i_max_tag_check 2
core_0_l1i_max_fill 2
core_0_l1d_set 64
core_0_l1d_way 12
core_0_l1d_rq_size 64
core_0_l1d_wq_size 64
core_0_l1d_pq_size 8
core_0_l1d_mshr_size 16
core_0_l1d_hit_latency 2
core_0_l1d_fill_latency 3
core_0_l1d_max_tag_check 2
core_0_l1d_max_fill 2
core_0_l2c_set 1024
core_0_l2c_way 8
core_0_l2c_rq_size 32
core_0_l2c_wq_size 32
core_0_l2c_pq_size 16
core_0_l2c_mshr_size 32
core_0_l2c_hit_latency 5
core_0_l2c_fill_latency 5
core_0_l2c_max_tag_check 1
core_0_l2c_max_fill 1
llc_set 2048
llc_way 16
llc_rq_size 32
llc_wq_size 32
llc_pq_size 32
llc_mshr_size 64
llc_hit_latency 10
llc_fill_latency 10
llc_max_tag_check 1
llc_max_fill 1
dram_channels 1
dram_ranks 1
dram_bankgroups 8
dram_banks 4
dram_rows 65536
dram_columns 1024
dram_channel_width 8
dram_rq_size 64
dram_wq_size 64
dram_size 17179869184
core_0_itlb_prefetcher no
core_0_dtlb_prefetcher no
core_0_stlb_prefetcher no
core_0_l1i_prefetcher next_line
core_0_l1d_prefetcher no
core_0_l2c_prefetcher ip_stride
llc_prefetcher no
llc_replacement drrip

Core_0_instructions 100000003
Core_0_cycles 109094410
Core_0_IPC 0.916637
Core_0_branch_prediction_accuracy 99.999
Core_0_branch_MPKI 0.00037
Core_0_average_ROB_occupancy_at_mispredict 51.4324

Core_0_ITLB_total_access 14094292
Core_0_ITLB_total_hit 14094291
Core_0_ITLB_total_miss 1
Core_0_ITLB_total_MPKI 1e-05
Core_0_ITLB_total_miss_rate 7.09507e-08
Core_0_ITLB_demand_access 14094292
Core_0_ITLB_demand_hit 14094291
Core_0_ITLB_demand_miss 1
Core_0_ITLB_demand_MPKI 1e-05
Core_0_ITLB_demand_miss_rate 7.09507e-08
Core_0_ITLB_load_access 14094292
Core_0_ITLB_load_hit 14094291
Core_0_ITLB_load_miss 1
Core_0_ITLB_load_MPKI 1e-05
Core_0_ITLB_load_miss_rate 7.09507e-08
Core_0_ITLB_rfo_access 0
Core_0_ITLB_rfo_hit 0
Core_0_ITLB_rfo_miss 0
Core_0_ITLB_rfo_MPKI 0
Core_0_ITLB_rfo_miss_rate 0
Core_0_ITLB_prefetch_access 0
Core_0_ITLB_prefetch_hit 0
Core_0_ITLB_prefetch_miss 0
Core_0_ITLB_prefetch_MPKI 0
Core_0_ITLB_prefetch_miss_rate 0
Core_0_ITLB_writeback_access 0
Core_0_ITLB_writeback_hit 0
Core_0_ITLB_writeback_miss 0
Core_0_ITLB_writeback_MPKI 0
Core_0_ITLB_writeback_miss_rate 0
Core_0_ITLB_prefetch_requested 0
Core_0_ITLB_prefetch_issued 0
Core_0_ITLB_prefetch_useful 0
Core_0_ITLB_prefetch_useless 0
Core_0_ITLB_prefetch_late 0
Core_0_ITLB_prefetch_fill 0
Core_0_ITLB_prefetch_accuracy 0
Core_0_ITLB_prefetch_coverage 0

Core_0_DTLB_total_access 16971547
Core_0_DTLB_total_hit 15418934
Core_0_DTLB_total_miss 1552613
Core_0_DTLB_total_MPKI 15.5261
Core_0_DTLB_total_miss_rate 0.0914833
Core_0_DTLB_demand_access 16971547
Core_0_DTLB_demand_hit 15418934
Core_0_DTLB_demand_miss 1552613
Core_0_DTLB_demand_MPKI 15.5261
Core_0_DTLB_demand_miss_rate 0.0914833
Core_0_DTLB_load_access 16971547
Core_0_DTLB_load_hit 15418934
Core_0_DTLB_load_miss 1552613
Core_0_DTLB_load_MPKI 15.5261
Core_0_DTLB_load_miss_rate 0.0914833
Core_0_DTLB_rfo_access 0
Core_0_DTLB_rfo_hit 0
Core_0_DTLB_rfo_miss 0
Core_0_DTLB_rfo_MPKI 0
Core_0_DTLB_rfo_miss_rate 0
Core_0_DTLB_prefetch_access 0
Core_0_DTLB_prefetch_hit 0
Core_0_DTLB_prefetch_miss 0
Core_0_DTLB_prefetch_MPKI 0
Core_0_DTLB_prefetch_miss_rate 0
Core_0_DTLB_writeback_access 0
Core_0_DTLB_writeback_hit 0
Core_0_DTLB_writeback_miss 0
Core_0_DTLB_writeback_MPKI 0
Core_0_DTLB_writeback_miss_rate 0
Core_0_DTLB_prefetch_requested 0
Core_0_DTLB_prefetch_issued 0
Core_0_DTLB_prefetch_useful 0
Core_0_DTLB_prefetch_useless 0
Core_0_DTLB_prefetch_late 0
Core_0_DTLB_prefetch_fill 0
Core_0_DTLB_prefetch_accuracy 0
Core_0_DTLB_prefetch_coverage 0

Core_0_STLB_total_access 196199
Core_0_STLB_total_hit 17
Core_0_STLB_total_miss 196182
Core_0_STLB_total_MPKI 1.96182
Core_0_STLB_total_miss_rate 0.999913
Core_0_STLB_demand_access 196199
Core_0_STLB_demand_hit 17
Core_0_STLB_demand_miss 196182
Core_0_STLB_demand_MPKI 1.96182
Core_0_STLB_demand_miss_rate 0.999913
Core_0_STLB_load_access 196199
Core_0_STLB_load_hit 17
Core_0_STLB_load_miss 196182
Core_0_STLB_load_MPKI 1.96182
Core_0_STLB_load_miss_rate 0.999913
Core_0_STLB_rfo_access 0
Core_0_STLB_rfo_hit 0
Core_0_STLB_rfo_miss 0
Core_0_STLB_rfo_MPKI 0
Core_0_STLB_rfo_miss_rate 0
Core_0_STLB_prefetch_access 0
Core_0_STLB_prefetch_hit 0
Core_0_STLB_prefetch_miss 0
Core_0_STLB_prefetch_MPKI 0
Core_0_STLB_prefetch_miss_rate 0
Core_0_STLB_writeback_access 0
Core_0_STLB_writeback_hit 0
Core_0_STLB_writeback_miss 0
Core_0_STLB_writeback_MPKI 0
Core_0_STLB_writeback_miss_rate 0
Core_0_STLB_prefetch_requested 0
Core_0_STLB_prefetch_issued 0
Core_0_STLB_prefetch_useful 0
Core_0_STLB_prefetch_useless 0
Core_0_STLB_prefetch_late 0
Core_0_STLB_prefetch_fill 0
Core_0_STLB_prefetch_accuracy 0
Core_0_STLB_prefetch_coverage 0

Core_0_L1I_total_access 16603116
Core_0_L1I_total_hit 16603093
Core_0_L1I_total_miss 23
Core_0_L1I_total_MPKI 0.00023
Core_0_L1I_total_miss_rate 1.38528e-06
Core_0_L1I_demand_access 16603116
Core_0_L1I_demand_hit 16603093
Core_0_L1I_demand_miss 23
Core_0_L1I_demand_MPKI 0.00023
Core_0_L1I_demand_miss_rate 1.38528e-06
Core_0_L1I_load_access 16603116
Core_0_L1I_load_hit 16603093
Core_0_L1I_load_miss 23
Core_0_L1I_load_MPKI 0.00023
Core_0_L1I_load_miss_rate 1.38528e-06
Core_0_L1I_rfo_access 0
Core_0_L1I_rfo_hit 0
Core_0_L1I_rfo_miss 0
Core_0_L1I_rfo_MPKI 0
Core_0_L1I_rfo_miss_rate 0
Core_0_L1I_prefetch_access 0
Core_0_L1I_prefetch_hit 0
Core_0_L1I_prefetch_miss 0
Core_0_L1I_prefetch_MPKI 0
Core_0_L1I_prefetch_miss_rate 0
Core_0_L1I_writeback_access 0
Core_0_L1I_writeback_hit 0
Core_0_L1I_writeback_miss 0
Core_0_L1I_writeback_MPKI 0
Core_0_L1I_writeback_miss_rate 0
Core_0_L1I_prefetch_requested 0
Core_0_L1I_prefetch_issued 0
Core_0_L1I_prefetch_useful 0
Core_0_L1I_prefetch_useless 0
Core_0_L1I_prefetch_late 0
Core_0_L1I_prefetch_fill 0
Core_0_L1I_prefetch_accuracy 0
Core_0_L1I_prefetch_coverage 0

Core_0_L1D_total_access 17678193
Core_0_L1D_total_hit 8060339
Core_0_L1D_total_miss 9617854
Core_0_L1D_total_MPKI 96.1785
Core_0_L1D_total_miss_rate 0.544052
Core_0_L1D_demand_access 13282286
Core_0_L1D_demand_hit 7338089
Core_0_L1D_demand_miss 5944197
Core_0_L1D_demand_MPKI 59.442
Core_0_L1D_demand_miss_rate 0.447528
Core_0_L1D_load_access 13282286
Core_0_L1D_load_hit 7338089
Core_0_L1D_load_miss 5944197
Core_0_L1D_load_MPKI 59.442
Core_0_L1D_load_miss_rate 0.447528
Core_0_L1D_rfo_access 0
Core_0_L1D_rfo_hit 0
Core_0_L1D_rfo_miss 0
Core_0_L1D_rfo_MPKI 0
Core_0_L1D_rfo_miss_rate 0
Core_0_L1D_prefetch_access 0
Core_0_L1D_prefetch_hit 0
Core_0_L1D_prefetch_miss 0
Core_0_L1D_prefetch_MPKI 0
Core_0_L1D_prefetch_miss_rate 0
Core_0_L1D_writeback_access 4395907
Core_0_L1D_writeback_hit 722250
Core_0_L1D_writeback_miss 3673657
Core_0_L1D_writeback_MPKI 36.7366
Core_0_L1D_writeback_miss_rate 0.835699
Core_0_L1D_prefetch_requested 0
Core_0_L1D_prefetch_issued 0
Core_0_L1D_prefetch_useful 0
Core_0_L1D_prefetch_useless 0
Core_0_L1D_prefetch_late 0
Core_0_L1D_prefetch_fill 0
Core_0_L1D_prefetch_accuracy 0
Core_0_L1D_prefetch_coverage 0

Core_0_L2C_total_access 2833277
Core_0_L2C_total_hit 791825
Core_0_L2C_total_miss 2041452
Core_0_L2C_total_MPKI 20.4145
Core_0_L2C_total_miss_rate 0.720527
Core_0_L2C_demand_access 1856681
Core_0_L2C_demand_hit 109605
Core_0_L2C_demand_miss 1747076
Core_0_L2C_demand_MPKI 17.4708
Core_0_L2C_demand_miss_rate 0.940967
Core_0_L2C_load_access 1293115
Core_0_L2C_load_hit 109605
Core_0_L2C_load_miss 1183510
Core_0_L2C_load_MPKI 11.8351
Core_0_L2C_load_miss_rate 0.91524
Core_0_L2C_rfo_access 563566
Core_0_L2C_rfo_hit 0
Core_0_L2C_rfo_miss 563566
Core_0_L2C_rfo_MPKI 5.63566
Core_0_L2C_rfo_miss_rate 1
Core_0_L2C_prefetch_access 413029
Core_0_L2C_prefetch_hit 119630
Core_0_L2C_prefetch_miss 293399
Core_0_L2C_prefetch_MPKI 2.93399
Core_0_L2C_prefetch_miss_rate 0.710359
Core_0_L2C_writeback_access 563567
Core_0_L2C_writeback_hit 562590
Core_0_L2C_writeback_miss 977
Core_0_L2C_writeback_MPKI 0.00977
Core_0_L2C_writeback_miss_rate 0.0017336
Core_0_L2C_prefetch_requested 413029
Core_0_L2C_prefetch_issued 413029
Core_0_L2C_prefetch_useful 113540
Core_0_L2C_prefetch_useless 154808
Core_0_L2C_prefetch_late 3939
Core_0_L2C_prefetch_fill 264946
Core_0_L2C_prefetch_accuracy 0.274896
Core_0_L2C_prefetch_coverage 0.0610228

Core_0_LLC_total_access 2575599
Core_0_LLC_total_hit 106090
Core_0_LLC_total_miss 2469509
Core_0_LLC_total_MPKI 24.6951
Core_0_LLC_total_miss_rate 0.95881
Core_0_LLC_demand_access 1743137
Core_0_LLC_demand_hit 1040
Core_0_LLC_demand_miss 1742097
Core_0_LLC_demand_MPKI 17.421
Core_0_LLC_demand_miss_rate 0.999403
Core_0_LLC_load_access 1179571
Core_0_LLC_load_hit 254
Core_0_LLC_load_miss 1179317
Core_0_LLC_load_MPKI 11.7932
Core_0_LLC_load_miss_rate 0.999785
Core_0_LLC_rfo_access 563566
Core_0_LLC_rfo_hit 786
Core_0_LLC_rfo_miss 562780
Core_0_LLC_rfo_MPKI 5.6278
Core_0_LLC_rfo_miss_rate 0.998605
Core_0_LLC_prefetch_access 268896
Core_0_LLC_prefetch_hit 4976
Core_0_LLC_prefetch_miss 263920
Core_0_LLC_prefetch_MPKI 2.6392
Core_0_LLC_prefetch_miss_rate 0.981495
Core_0_LLC_writeback_access 563566
Core_0_LLC_writeback_hit 100074
Core_0_LLC_writeback_miss 463492
Core_0_LLC_writeback_MPKI 4.63492
Core_0_LLC_writeback_miss_rate 0.822427
Core_0_LLC_prefetch_requested 0
Core_0_LLC_prefetch_issued 0
Core_0_LLC_prefetch_useful 0
Core_0_LLC_prefetch_useless 0
Core_0_LLC_prefetch_late 0
Core_0_LLC_prefetch_fill 263920
Core_0_LLC_prefetch_accuracy 0
Core_0_LLC_prefetch_coverage 0

[DRAM Statistics]
Channel_0_RQ_row_buffer_hit 239735
Channel_0_RQ_row_buffer_miss 1791120
Channel_0_WQ_row_buffer_hit 170553
Channel_0_WQ_row_buffer_miss 374427
Channel_0_WQ_full 0
Channel_0_dbus_congested 8756687
DRAM_total_RQ_row_buffer_hit 239735
DRAM_total_RQ_row_buffer_miss 1791120
DRAM_total_WQ_row_buffer_hit 170553
DRAM_total_WQ_row_buffer_miss 374427
DRAM_total_WQ_full 0
DRAM_total_dbus_congested 8756687
DRAM_avg_congested_cycle 9.02817

====== DRAM_RQ_TRAFFIC ========
DRAM_RQ_READ_TRAFFIC_BREAKDOWN:
data_demand_read.count = 1742077
data_demand_read.share = 85.78%

inst_demand_read.count = 20
inst_demand_read.share = 0.00%

cache_inst_prefetch.count = 0
cache_inst_prefetch.share = 0.00%

cache_data_prefetch.count = 263920
cache_data_prefetch.share = 13.00%

stlb_data_demand.count = 24848
stlb_data_demand.share = 1.22%

stlb_inst_demand.count = 2
stlb_inst_demand.share = 0.00%

stlb_l1i_pref.count = 0
stlb_l1i_pref.share = 0.00%

stlb_l1d_pref.count = 0
stlb_l1d_pref.share = 0.00%

DRAM_RQ_READ_TRAFFIC_SUMMARY:
cache_demand.count = 1742097
cache_demand.share = 85.78%

cache_prefetch.count = 263920
cache_prefetch.share = 13.00%

stlb_demand.count = 24850
stlb_demand.share = 1.22%

stlb_prefetch.count = 0
stlb_prefetch.share = 0.00%

DRAM_RQ_READ_TRAFFIC_DEBUG:
total_classified_read.count = 2030867
unclassified_read.count = 0
total_read_with_other.count = 2030867

classified_plus_unclassified_check.count = 2030867
dram_rq_read_total_observed.count = 2030867
dram_rq_read_total_observed.per_1K_instructions = 20.3087

STLB_MISS_PTW_DRAM_TOUCH_BREAKDOWN:
stlb_miss_total.count = 196182

stlb_miss_touch_dram.count = 24664
stlb_miss_touch_dram.share = 12.57%

stlb_miss_no_dram_touch.count = 171518
stlb_miss_no_dram_touch.share = 87.43%

STLB_MISS_PTW_DRAM_TOUCH_DEBUG:
stlb_miss_touch_plus_no_touch.count = 196182
stlb_miss_total_check.count = 196182

======STLB miss causes ========
Core_0_STLB_miss_cause_breakdown
Core_0_STLB_cause_Demand_Data_miss 196181
Core_0_STLB_cause_Demand_Data_miss_rate 0.999908
Core_0_STLB_cause_Demand_Instruction_miss 1
Core_0_STLB_cause_Demand_Instruction_miss_rate 5.09687e-06
Core_0_STLB_cause_L1D_Prefetch_miss 0
Core_0_STLB_cause_L1D_Prefetch_miss_rate 0
Core_0_STLB_cause_L1D_Prefetch_Same_Page_miss 0
Core_0_STLB_cause_L1D_Prefetch_Same_Page_miss_rate 0
Core_0_STLB_cause_L1D_Prefetch_Cross_Page_miss 0
Core_0_STLB_cause_L1D_Prefetch_Cross_Page_miss_rate 0
Core_0_STLB_cause_L1I_Prefetch_miss 0
Core_0_STLB_cause_L1I_Prefetch_miss_rate 0
Core_0_STLB_cause_Other_miss 0
Core_0_STLB_cause_Other_miss_rate 0
Core_0_STLB_Demand_miss 196182
Core_0_STLB_Demand_miss_rate 0.999913
Core_0_STLB_L1D_Prefetch_miss 0
Core_0_STLB_L1D_Prefetch_miss_rate 0
Core_0_STLB_Other_miss 0
Core_0_STLB_Other_miss_rate 0

========== vBerti-TLB Cross-page Flow Stats ==========

Core_0_vBerti_Requested 0
Core_0_vBerti_Cross_page_prefetch_in_Requested 0
Core_0_vBerti_Same_page_prefetch_in_Requested 0
Core_0_vBerti_Cross_page_prefetch_of_Requested 0
Core_0_vBerti_Issued 0
Core_0_vBerti_PQ_Drop_Rate 0
Core_0_vBerti_InPQ_Cross_page_prefetch_of_Requested 0
Core_0_vBerti_Cross_page_PQ_Drop_rate 0
Core_0_vBerti_Cross_page_prefetch_of_Issued 0

========= DTLB_vBerti Prefetch Stats =========
Core_0_DTLB_demand_access 16971547
Core_0_DTLB_demand_hit 15418934
Core_0_DTLB_demand_miss 1552613
Core_0_DTLB_demand_mshr_merge 1356415
Core_0_DTLB_demand_fill 196198
Core_0_DTLB_demand_miss_rate 0.0914833
Core_0_DTLB_demand_mpki 15.5261
Core_0_DTLB_vberti_prefetch_access 0
Core_0_DTLB_vberti_prefetch_hit 0
Core_0_DTLB_vberti_prefetch_miss 0
Core_0_DTLB_vberti_prefetch_mshr_merge 0
Core_0_DTLB_vberti_prefetch_fill 0
Core_0_DTLB_vberti_prefetch_miss_rate 0
Core_0_DTLB_vberti_prefetch_mpki 0

=== DTLB_vBerti Same/Cross-page Prefetch Stats ===
Core_0_DTLB_vberti_same_page_prefetch 0
Core_0_DTLB_vberti_same_page_prefetch_hit 0
Core_0_DTLB_vberti_same_page_prefetch_miss 0
Core_0_DTLB_vberti_same_page_prefetch_mshr_merge 0
Core_0_DTLB_vberti_same_page_prefetch_fill 0
Core_0_DTLB_vberti_same_page_prefetch_miss_rate 0
Core_0_DTLB_vberti_same_page_prefetch_mpki 0
Core_0_DTLB_vberti_cross_page_prefetch 0
Core_0_DTLB_vberti_cross_page_prefetch_hit 0
Core_0_DTLB_vberti_cross_page_prefetch_miss 0
Core_0_DTLB_vberti_cross_page_prefetch_mshr_merge 0
Core_0_DTLB_vberti_cross_page_prefetch_fill 0
Core_0_DTLB_vberti_cross_page_prefetch_miss_rate 0
Core_0_DTLB_vberti_cross_page_prefetch_mpki 0
Core_0_DTLB_same_page_prefetch_miss_rate 0
Core_0_DTLB_same_page_prefetch_mpki 0
Core_0_DTLB_cross_page_prefetch_miss_rate 0
Core_0_DTLB_cross_page_prefetch_mpki 0
Core_0_DTLB_cross_page_prefetch_issued 0
Core_0_DTLB_cross_page_prefetch_lookups 0
Core_0_DTLB_cross_page_prefetch_useful 0
Core_0_DTLB_cross_page_prefetch_useless 0
Core_0_DTLB_cross_page_prefetch_late 0
Core_0_DTLB_cross_page_prefetch_accuracy 0
Core_0_DTLB_cross_page_prefetch_coverage 0

========= STLB_vBerti Prefetch Stats =========
Core_0_STLB_demand_access 196199
Core_0_STLB_demand_hit 17
Core_0_STLB_demand_miss 196182
Core_0_STLB_demand_mshr_merge 0
Core_0_STLB_demand_fill 196182
Core_0_STLB_demand_miss_rate 0.999913
Core_0_STLB_demand_mpki 1.96182
Core_0_STLB_vberti_prefetch_access 0
Core_0_STLB_vberti_prefetch_hit 0
Core_0_STLB_vberti_prefetch_miss 0
Core_0_STLB_vberti_prefetch_mshr_merge 0
Core_0_STLB_vberti_prefetch_fill 0
Core_0_STLB_vberti_prefetch_miss_rate 0
Core_0_STLB_vberti_prefetch_mpki 0

=== STLB_vBerti Same/Cross-page Prefetch Stats ===
Core_0_STLB_vberti_same_page_prefetch 0
Core_0_STLB_vberti_same_page_prefetch_hit 0
Core_0_STLB_vberti_same_page_prefetch_miss 0
Core_0_STLB_vberti_same_page_prefetch_mshr_merge 0
Core_0_STLB_vberti_same_page_prefetch_fill 0
Core_0_STLB_vberti_same_page_prefetch_miss_rate 0
Core_0_STLB_vberti_same_page_prefetch_mpki 0
Core_0_STLB_vberti_cross_page_prefetch 0
Core_0_STLB_vberti_cross_page_prefetch_hit 0
Core_0_STLB_vberti_cross_page_prefetch_miss 0
Core_0_STLB_vberti_cross_page_prefetch_mshr_merge 0
Core_0_STLB_vberti_cross_page_prefetch_fill 0
Core_0_STLB_vberti_cross_page_prefetch_miss_rate 0
Core_0_STLB_vberti_cross_page_prefetch_mpki 0
Core_0_STLB_same_page_prefetch_miss_rate 0
Core_0_STLB_same_page_prefetch_mpki 0
Core_0_STLB_cross_page_prefetch_miss_rate 0
Core_0_STLB_cross_page_prefetch_mpki 0
Core_0_STLB_cross_page_prefetch_issued 0
Core_0_STLB_cross_page_prefetch_lookups 0
Core_0_STLB_cross_page_prefetch_useful 0
Core_0_STLB_cross_page_prefetch_useless 0
Core_0_STLB_cross_page_prefetch_late 0
Core_0_STLB_cross_page_prefetch_accuracy 0
Core_0_STLB_cross_page_prefetch_coverage 0

Core_0_TLB_demand_miss_rate 0.0115595
Core_0_TLB_demand_mpki 1.96182
Core_0_TLB_same_page_prefetch_miss_rate 0
Core_0_TLB_same_page_prefetch_mpki 0
Core_0_TLB_cross_page_prefetch_miss_rate 0
Core_0_TLB_cross_page_prefetch_mpki 0
Core_0_TLB_cross_page_prefetch_issued 0
Core_0_TLB_cross_page_prefetch_lookups 0
Core_0_TLB_cross_page_prefetch_useful 0
Core_0_TLB_cross_page_prefetch_useless 0
Core_0_TLB_cross_page_prefetch_late 0
Core_0_TLB_cross_page_prefetch_accuracy 0
Core_0_TLB_cross_page_prefetch_coverage 0
