[VMEM] WARNING: physical memory size is smaller than virtual memory size.

*** ChampSim Multicore Out-of-Order Simulator ***
Warmup Instructions: 50000000
Simulation Instructions: 100000000
Number of CPUs: 1
Page size: 4096
Core 0: /data0/tzh/champsim_traces/SPEC17/605.mcf_s-472B.champsimtrace.xz
Off-chip DRAM Size: 16 GiB Channels: 1 Width: 64-bit Data Rate: 3205 MT/s
Warmup halting CPU 0 at instruction 50000004 cycle 18679826 for remainder of phase
Warmup finished CPU 0 instructions: 50000004 cycles: 18679826 cumulative IPC: 2.677 (Simulation time: 00 hr 03 min 38 sec)
Warmup complete CPU 0 instructions: 50000004 cycles: 18679826 cumulative IPC: 2.677 (Simulation time: 00 hr 03 min 38 sec)
Simulation finished CPU 0 instructions: 100000000 cycles: 277167032 cumulative IPC: 0.3608 (Simulation time: 00 hr 32 min 36 sec)
Simulation complete CPU 0 instructions: 100000000 cycles: 277167032 cumulative IPC: 0.3608 (Simulation time: 00 hr 32 min 36 sec)

ChampSim completed all CPUs

=== Simulation ===
CPU 0 runs /data0/tzh/champsim_traces/SPEC17/605.mcf_s-472B.champsimtrace.xz

Region of Interest Statistics

CPU 0 cumulative IPC: 0.3608 instructions: 100000000 cycles: 277167032
CPU 0 Branch Prediction Accuracy: 98.96% MPKI: 1.192 Average ROB Occupancy at Mispredict: 172.3
Branch type MPKI
BRANCH_DIRECT_JUMP: 0
BRANCH_INDIRECT: 0
BRANCH_CONDITIONAL: 1.192
BRANCH_DIRECT_CALL: 0
BRANCH_INDIRECT_CALL: 0
BRANCH_RETURN: 0

cpu0->cpu0_STLB TOTAL        ACCESS:     299912 HIT:     170092 MISS:     129820 MSHR_MERGE:          0
cpu0->cpu0_STLB LOAD         ACCESS:     299912 HIT:     170092 MISS:     129820 MSHR_MERGE:          0
cpu0->cpu0_STLB RFO          ACCESS:          0 HIT:          0 MISS:          0 MSHR_MERGE:          0
cpu0->cpu0_STLB PREFETCH     ACCESS:          0 HIT:          0 MISS:          0 MSHR_MERGE:          0
cpu0->cpu0_STLB WRITE        ACCESS:          0 HIT:          0 MISS:          0 MSHR_MERGE:          0
cpu0->cpu0_STLB TRANSLATION  ACCESS:          0 HIT:          0 MISS:          0 MSHR_MERGE:          0
cpu0->cpu0_STLB PREFETCH REQUESTED:          0 ISSUED:          0 USEFUL:          0 USELESS:          0 LATE:          0 TOO_EARLY:          0
cpu0->cpu0_STLB AVERAGE MISS LATENCY: 63.9 cycles
cpu0->cpu0_L2C TOTAL        ACCESS:    6281825 HIT:     987934 MISS:    5293891 MSHR_MERGE:      59950
cpu0->cpu0_L2C LOAD         ACCESS:    4747893 HIT:     444176 MISS:    4303717 MSHR_MERGE:      42886
cpu0->cpu0_L2C RFO          ACCESS:     239954 HIT:      13562 MISS:     226392 MSHR_MERGE:          0
cpu0->cpu0_L2C PREFETCH     ACCESS:     763967 HIT:      21782 MISS:     742185 MSHR_MERGE:      17064
cpu0->cpu0_L2C WRITE        ACCESS:     507188 HIT:     504396 MISS:       2792 MSHR_MERGE:          0
cpu0->cpu0_L2C TRANSLATION  ACCESS:      22823 HIT:       4018 MISS:      18805 MSHR_MERGE:          0
cpu0->cpu0_L2C PREFETCH REQUESTED:     763967 ISSUED:     763967 USEFUL:     422049 USELESS:     300120 LATE:      42886 TOO_EARLY:         18
cpu0->cpu0_L2C AVERAGE MISS LATENCY: 171 cycles
cpu0->cpu0_L1I TOTAL        ACCESS:   16855051 HIT:   16855051 MISS:          0 MSHR_MERGE:          0
cpu0->cpu0_L1I LOAD         ACCESS:   16855051 HIT:   16855051 MISS:          0 MSHR_MERGE:          0
cpu0->cpu0_L1I RFO          ACCESS:          0 HIT:          0 MISS:          0 MSHR_MERGE:          0
cpu0->cpu0_L1I PREFETCH     ACCESS:          0 HIT:          0 MISS:          0 MSHR_MERGE:          0
cpu0->cpu0_L1I WRITE        ACCESS:          0 HIT:          0 MISS:          0 MSHR_MERGE:          0
cpu0->cpu0_L1I TRANSLATION  ACCESS:          0 HIT:          0 MISS:          0 MSHR_MERGE:          0
cpu0->cpu0_L1I PREFETCH REQUESTED:          0 ISSUED:          0 USEFUL:          0 USELESS:          0 LATE:          0 TOO_EARLY:          0
cpu0->cpu0_L1I AVERAGE MISS LATENCY: - cycles
cpu0->cpu0_L1D TOTAL        ACCESS:   49925713 HIT:   43427931 MISS:    6497782 MSHR_MERGE:    1487106
cpu0->cpu0_L1D LOAD         ACCESS:   26570486 HIT:   21052439 MISS:    5518047 MSHR_MERGE:     770154
cpu0->cpu0_L1D RFO          ACCESS:          0 HIT:          0 MISS:          0 MSHR_MERGE:          0
cpu0->cpu0_L1D PREFETCH     ACCESS:          0 HIT:          0 MISS:          0 MSHR_MERGE:          0
cpu0->cpu0_L1D WRITE        ACCESS:   23095526 HIT:   22138682 MISS:     956844 MSHR_MERGE:     716884
cpu0->cpu0_L1D TRANSLATION  ACCESS:     259701 HIT:     236810 MISS:      22891 MSHR_MERGE:         68
cpu0->cpu0_L1D PREFETCH REQUESTED:          0 ISSUED:          0 USEFUL:          0 USELESS:          0 LATE:          0 TOO_EARLY:          0
cpu0->cpu0_L1D AVERAGE MISS LATENCY: 164.3 cycles
cpu0->cpu0_ITLB TOTAL        ACCESS:   14704061 HIT:   14704061 MISS:          0 MSHR_MERGE:          0
cpu0->cpu0_ITLB LOAD         ACCESS:   14704061 HIT:   14704061 MISS:          0 MSHR_MERGE:          0
cpu0->cpu0_ITLB RFO          ACCESS:          0 HIT:          0 MISS:          0 MSHR_MERGE:          0
cpu0->cpu0_ITLB PREFETCH     ACCESS:          0 HIT:          0 MISS:          0 MSHR_MERGE:          0
cpu0->cpu0_ITLB WRITE        ACCESS:          0 HIT:          0 MISS:          0 MSHR_MERGE:          0
cpu0->cpu0_ITLB TRANSLATION  ACCESS:          0 HIT:          0 MISS:          0 MSHR_MERGE:          0
cpu0->cpu0_ITLB PREFETCH REQUESTED:          0 ISSUED:          0 USEFUL:          0 USELESS:          0 LATE:          0 TOO_EARLY:          0
cpu0->cpu0_ITLB AVERAGE MISS LATENCY: - cycles
cpu0->cpu0_DTLB TOTAL        ACCESS:   46557202 HIT:   46135889 MISS:     421313 MSHR_MERGE:     121401
cpu0->cpu0_DTLB LOAD         ACCESS:   46557202 HIT:   46135889 MISS:     421313 MSHR_MERGE:     121401
cpu0->cpu0_DTLB RFO          ACCESS:          0 HIT:          0 MISS:          0 MSHR_MERGE:          0
cpu0->cpu0_DTLB PREFETCH     ACCESS:          0 HIT:          0 MISS:          0 MSHR_MERGE:          0
cpu0->cpu0_DTLB WRITE        ACCESS:          0 HIT:          0 MISS:          0 MSHR_MERGE:          0
cpu0->cpu0_DTLB TRANSLATION  ACCESS:          0 HIT:          0 MISS:          0 MSHR_MERGE:          0
cpu0->cpu0_DTLB PREFETCH REQUESTED:          0 ISSUED:          0 USEFUL:          0 USELESS:          0 LATE:          0 TOO_EARLY:          0
cpu0->cpu0_DTLB AVERAGE MISS LATENCY: 33.09 cycles
cpu0->LLC TOTAL        ACCESS:    5674654 HIT:    1479189 MISS:    4195465 MSHR_MERGE:        246
cpu0->LLC LOAD         ACCESS:    4260831 HIT:    1243043 MISS:    3017788 MSHR_MERGE:        169
cpu0->LLC RFO          ACCESS:     226392 HIT:        379 MISS:     226013 MSHR_MERGE:          0
cpu0->LLC PREFETCH     ACCESS:     725121 HIT:     155934 MISS:     569187 MSHR_MERGE:         77
cpu0->LLC WRITE        ACCESS:     443505 HIT:      75134 MISS:     368371 MSHR_MERGE:          0
cpu0->LLC TRANSLATION  ACCESS:      18805 HIT:       4699 MISS:      14106 MSHR_MERGE:          0
cpu0->LLC PREFETCH REQUESTED:          0 ISSUED:          0 USEFUL:          0 USELESS:          0 LATE:          0 TOO_EARLY:          0
cpu0->LLC AVERAGE MISS LATENCY: 194.5 cycles

DRAM Statistics

Channel 0 RQ ROW_BUFFER_HIT:      82774
  ROW_BUFFER_MISS:    3744061
  AVG DBUS CONGESTED CYCLE: 9.051
Channel 0 WQ ROW_BUFFER_HIT:     105324
  ROW_BUFFER_MISS:     331282
  FULL:          0
Channel 0 REFRESHES ISSUED:      23097

[ROI Statistics]
[System Configuration]
num_cpus 1
cpu_freq 4000
fetch_width 6
decode_width 6
dispatch_width 6
execute_width 6
lq_width 2
sq_width 2
retire_width 6
scheduler_size 128
branch_mispredict_penalty 15
rob_size 352
lq_size 128
sq_size 72
ifetch_buffer_size 64
decode_buffer_size 32
dispatch_buffer_size 32
register_file_size 288
decode_latency 1
dispatch_latency 1
schedule_latency 1
execute_latency 1
page_size 4096
block_size 64
core_0_itlb_set 16
core_0_itlb_way 4
core_0_itlb_rq_size 16
core_0_itlb_wq_size 16
core_0_itlb_pq_size 0
core_0_itlb_mshr_size 8
core_0_itlb_hit_latency 1
core_0_itlb_fill_latency 1
core_0_itlb_max_tag_check 2
core_0_itlb_max_fill 2
core_0_dtlb_set 16
core_0_dtlb_way 4
core_0_dtlb_rq_size 16
core_0_dtlb_wq_size 16
core_0_dtlb_pq_size 0
core_0_dtlb_mshr_size 8
core_0_dtlb_hit_latency 1
core_0_dtlb_fill_latency 1
core_0_dtlb_max_tag_check 2
core_0_dtlb_max_fill 2
core_0_stlb_set 128
core_0_stlb_way 12
core_0_stlb_rq_size 32
core_0_stlb_wq_size 32
core_0_stlb_pq_size 0
core_0_stlb_mshr_size 16
core_0_stlb_hit_latency 4
core_0_stlb_fill_latency 4
core_0_stlb_max_tag_check 1
core_0_stlb_max_fill 1
core_0_l1i_set 64
core_0_l1i_way 8
core_0_l1i_rq_size 64
core_0_l1i_wq_size 64
core_0_l1i_pq_size 32
core_0_l1i_mshr_size 8
core_0_l1i_hit_latency 2
core_0_l1i_fill_latency 2
core_0_l1i_max_tag_check 2
core_0_l1i_max_fill 2
core_0_l1d_set 64
core_0_l1d_way 12
core_0_l1d_rq_size 64
core_0_l1d_wq_size 64
core_0_l1d_pq_size 8
core_0_l1d_mshr_size 16
core_0_l1d_hit_latency 2
core_0_l1d_fill_latency 3
core_0_l1d_max_tag_check 2
core_0_l1d_max_fill 2
core_0_l2c_set 1024
core_0_l2c_way 8
core_0_l2c_rq_size 32
core_0_l2c_wq_size 32
core_0_l2c_pq_size 16
core_0_l2c_mshr_size 32
core_0_l2c_hit_latency 5
core_0_l2c_fill_latency 5
core_0_l2c_max_tag_check 1
core_0_l2c_max_fill 1
llc_set 2048
llc_way 16
llc_rq_size 32
llc_wq_size 32
llc_pq_size 32
llc_mshr_size 64
llc_hit_latency 10
llc_fill_latency 10
llc_max_tag_check 1
llc_max_fill 1
dram_channels 1
dram_ranks 1
dram_bankgroups 8
dram_banks 4
dram_rows 65536
dram_columns 1024
dram_channel_width 8
dram_rq_size 64
dram_wq_size 64
dram_size 17179869184
core_0_itlb_prefetcher no
core_0_dtlb_prefetcher no
core_0_stlb_prefetcher no
core_0_l1i_prefetcher next_line
core_0_l1d_prefetcher no
core_0_l2c_prefetcher ip_stride
llc_prefetcher no
llc_replacement drrip

Core_0_instructions 100000000
Core_0_cycles 277167032
Core_0_IPC 0.360793
Core_0_branch_prediction_accuracy 98.9588
Core_0_branch_MPKI 1.19245
Core_0_average_ROB_occupancy_at_mispredict 172.3

Core_0_ITLB_total_access 14704061
Core_0_ITLB_total_hit 14704061
Core_0_ITLB_total_miss 0
Core_0_ITLB_total_MPKI 0
Core_0_ITLB_total_miss_rate 0
Core_0_ITLB_demand_access 14704061
Core_0_ITLB_demand_hit 14704061
Core_0_ITLB_demand_miss 0
Core_0_ITLB_demand_MPKI 0
Core_0_ITLB_demand_miss_rate 0
Core_0_ITLB_load_access 14704061
Core_0_ITLB_load_hit 14704061
Core_0_ITLB_load_miss 0
Core_0_ITLB_load_MPKI 0
Core_0_ITLB_load_miss_rate 0
Core_0_ITLB_rfo_access 0
Core_0_ITLB_rfo_hit 0
Core_0_ITLB_rfo_miss 0
Core_0_ITLB_rfo_MPKI 0
Core_0_ITLB_rfo_miss_rate 0
Core_0_ITLB_prefetch_access 0
Core_0_ITLB_prefetch_hit 0
Core_0_ITLB_prefetch_miss 0
Core_0_ITLB_prefetch_MPKI 0
Core_0_ITLB_prefetch_miss_rate 0
Core_0_ITLB_writeback_access 0
Core_0_ITLB_writeback_hit 0
Core_0_ITLB_writeback_miss 0
Core_0_ITLB_writeback_MPKI 0
Core_0_ITLB_writeback_miss_rate 0
Core_0_ITLB_prefetch_requested 0
Core_0_ITLB_prefetch_issued 0
Core_0_ITLB_prefetch_useful 0
Core_0_ITLB_prefetch_useless 0
Core_0_ITLB_prefetch_late 0
Core_0_ITLB_prefetch_fill 0
Core_0_ITLB_prefetch_too_early 0
Core_0_ITLB_prefetch_too_early_among_fill 0
Core_0_ITLB_prefetch_too_early_among_useless 0
Core_0_ITLB_prefetch_pollution_evict 0
Core_0_ITLB_prefetch_pollution_demand 0
Core_0_ITLB_prefetch_pollution_among_prefetch_fill 0
Core_0_ITLB_prefetch_accuracy 0
Core_0_ITLB_prefetch_coverage 0

Core_0_DTLB_total_access 46557202
Core_0_DTLB_total_hit 46135889
Core_0_DTLB_total_miss 421313
Core_0_DTLB_total_MPKI 4.21313
Core_0_DTLB_total_miss_rate 0.00904936
Core_0_DTLB_demand_access 46557202
Core_0_DTLB_demand_hit 46135889
Core_0_DTLB_demand_miss 421313
Core_0_DTLB_demand_MPKI 4.21313
Core_0_DTLB_demand_miss_rate 0.00904936
Core_0_DTLB_load_access 46557202
Core_0_DTLB_load_hit 46135889
Core_0_DTLB_load_miss 421313
Core_0_DTLB_load_MPKI 4.21313
Core_0_DTLB_load_miss_rate 0.00904936
Core_0_DTLB_rfo_access 0
Core_0_DTLB_rfo_hit 0
Core_0_DTLB_rfo_miss 0
Core_0_DTLB_rfo_MPKI 0
Core_0_DTLB_rfo_miss_rate 0
Core_0_DTLB_prefetch_access 0
Core_0_DTLB_prefetch_hit 0
Core_0_DTLB_prefetch_miss 0
Core_0_DTLB_prefetch_MPKI 0
Core_0_DTLB_prefetch_miss_rate 0
Core_0_DTLB_writeback_access 0
Core_0_DTLB_writeback_hit 0
Core_0_DTLB_writeback_miss 0
Core_0_DTLB_writeback_MPKI 0
Core_0_DTLB_writeback_miss_rate 0
Core_0_DTLB_prefetch_requested 0
Core_0_DTLB_prefetch_issued 0
Core_0_DTLB_prefetch_useful 0
Core_0_DTLB_prefetch_useless 0
Core_0_DTLB_prefetch_late 0
Core_0_DTLB_prefetch_fill 0
Core_0_DTLB_prefetch_too_early 0
Core_0_DTLB_prefetch_too_early_among_fill 0
Core_0_DTLB_prefetch_too_early_among_useless 0
Core_0_DTLB_prefetch_pollution_evict 0
Core_0_DTLB_prefetch_pollution_demand 0
Core_0_DTLB_prefetch_pollution_among_prefetch_fill 0
Core_0_DTLB_prefetch_accuracy 0
Core_0_DTLB_prefetch_coverage 0

Core_0_STLB_total_access 299912
Core_0_STLB_total_hit 170092
Core_0_STLB_total_miss 129820
Core_0_STLB_total_MPKI 1.2982
Core_0_STLB_total_miss_rate 0.43286
Core_0_STLB_demand_access 299912
Core_0_STLB_demand_hit 170092
Core_0_STLB_demand_miss 129820
Core_0_STLB_demand_MPKI 1.2982
Core_0_STLB_demand_miss_rate 0.43286
Core_0_STLB_load_access 299912
Core_0_STLB_load_hit 170092
Core_0_STLB_load_miss 129820
Core_0_STLB_load_MPKI 1.2982
Core_0_STLB_load_miss_rate 0.43286
Core_0_STLB_rfo_access 0
Core_0_STLB_rfo_hit 0
Core_0_STLB_rfo_miss 0
Core_0_STLB_rfo_MPKI 0
Core_0_STLB_rfo_miss_rate 0
Core_0_STLB_prefetch_access 0
Core_0_STLB_prefetch_hit 0
Core_0_STLB_prefetch_miss 0
Core_0_STLB_prefetch_MPKI 0
Core_0_STLB_prefetch_miss_rate 0
Core_0_STLB_writeback_access 0
Core_0_STLB_writeback_hit 0
Core_0_STLB_writeback_miss 0
Core_0_STLB_writeback_MPKI 0
Core_0_STLB_writeback_miss_rate 0
Core_0_STLB_prefetch_requested 0
Core_0_STLB_prefetch_issued 0
Core_0_STLB_prefetch_useful 0
Core_0_STLB_prefetch_useless 0
Core_0_STLB_prefetch_late 0
Core_0_STLB_prefetch_fill 0
Core_0_STLB_prefetch_too_early 0
Core_0_STLB_prefetch_too_early_among_fill 0
Core_0_STLB_prefetch_too_early_among_useless 0
Core_0_STLB_prefetch_pollution_evict 0
Core_0_STLB_prefetch_pollution_demand 0
Core_0_STLB_prefetch_pollution_among_prefetch_fill 0
Core_0_STLB_prefetch_accuracy 0
Core_0_STLB_prefetch_coverage 0

Core_0_L1I_total_access 16855051
Core_0_L1I_total_hit 16855051
Core_0_L1I_total_miss 0
Core_0_L1I_total_MPKI 0
Core_0_L1I_total_miss_rate 0
Core_0_L1I_demand_access 16855051
Core_0_L1I_demand_hit 16855051
Core_0_L1I_demand_miss 0
Core_0_L1I_demand_MPKI 0
Core_0_L1I_demand_miss_rate 0
Core_0_L1I_load_access 16855051
Core_0_L1I_load_hit 16855051
Core_0_L1I_load_miss 0
Core_0_L1I_load_MPKI 0
Core_0_L1I_load_miss_rate 0
Core_0_L1I_rfo_access 0
Core_0_L1I_rfo_hit 0
Core_0_L1I_rfo_miss 0
Core_0_L1I_rfo_MPKI 0
Core_0_L1I_rfo_miss_rate 0
Core_0_L1I_prefetch_access 0
Core_0_L1I_prefetch_hit 0
Core_0_L1I_prefetch_miss 0
Core_0_L1I_prefetch_MPKI 0
Core_0_L1I_prefetch_miss_rate 0
Core_0_L1I_writeback_access 0
Core_0_L1I_writeback_hit 0
Core_0_L1I_writeback_miss 0
Core_0_L1I_writeback_MPKI 0
Core_0_L1I_writeback_miss_rate 0
Core_0_L1I_prefetch_requested 0
Core_0_L1I_prefetch_issued 0
Core_0_L1I_prefetch_useful 0
Core_0_L1I_prefetch_useless 0
Core_0_L1I_prefetch_late 0
Core_0_L1I_prefetch_fill 0
Core_0_L1I_prefetch_too_early 0
Core_0_L1I_prefetch_too_early_among_fill 0
Core_0_L1I_prefetch_too_early_among_useless 0
Core_0_L1I_prefetch_pollution_evict 0
Core_0_L1I_prefetch_pollution_demand 0
Core_0_L1I_prefetch_pollution_among_prefetch_fill 0
Core_0_L1I_prefetch_accuracy 0
Core_0_L1I_prefetch_coverage 0

Core_0_L1D_total_access 49666012
Core_0_L1D_total_hit 43191121
Core_0_L1D_total_miss 6474891
Core_0_L1D_total_MPKI 64.7489
Core_0_L1D_total_miss_rate 0.130369
Core_0_L1D_demand_access 26570486
Core_0_L1D_demand_hit 21052439
Core_0_L1D_demand_miss 5518047
Core_0_L1D_demand_MPKI 55.1805
Core_0_L1D_demand_miss_rate 0.207676
Core_0_L1D_load_access 26570486
Core_0_L1D_load_hit 21052439
Core_0_L1D_load_miss 5518047
Core_0_L1D_load_MPKI 55.1805
Core_0_L1D_load_miss_rate 0.207676
Core_0_L1D_rfo_access 0
Core_0_L1D_rfo_hit 0
Core_0_L1D_rfo_miss 0
Core_0_L1D_rfo_MPKI 0
Core_0_L1D_rfo_miss_rate 0
Core_0_L1D_prefetch_access 0
Core_0_L1D_prefetch_hit 0
Core_0_L1D_prefetch_miss 0
Core_0_L1D_prefetch_MPKI 0
Core_0_L1D_prefetch_miss_rate 0
Core_0_L1D_writeback_access 23095526
Core_0_L1D_writeback_hit 22138682
Core_0_L1D_writeback_miss 956844
Core_0_L1D_writeback_MPKI 9.56844
Core_0_L1D_writeback_miss_rate 0.0414298
Core_0_L1D_prefetch_requested 0
Core_0_L1D_prefetch_issued 0
Core_0_L1D_prefetch_useful 0
Core_0_L1D_prefetch_useless 0
Core_0_L1D_prefetch_late 0
Core_0_L1D_prefetch_fill 0
Core_0_L1D_prefetch_too_early 0
Core_0_L1D_prefetch_too_early_among_fill 0
Core_0_L1D_prefetch_too_early_among_useless 0
Core_0_L1D_prefetch_pollution_evict 0
Core_0_L1D_prefetch_pollution_demand 0
Core_0_L1D_prefetch_pollution_among_prefetch_fill 0
Core_0_L1D_prefetch_accuracy 0
Core_0_L1D_prefetch_coverage 0

Core_0_L2C_total_access 6259002
Core_0_L2C_total_hit 983916
Core_0_L2C_total_miss 5275086
Core_0_L2C_total_MPKI 52.7509
Core_0_L2C_total_miss_rate 0.8428
Core_0_L2C_demand_access 4987847
Core_0_L2C_demand_hit 457738
Core_0_L2C_demand_miss 4530109
Core_0_L2C_demand_MPKI 45.3011
Core_0_L2C_demand_miss_rate 0.908229
Core_0_L2C_load_access 4747893
Core_0_L2C_load_hit 444176
Core_0_L2C_load_miss 4303717
Core_0_L2C_load_MPKI 43.0372
Core_0_L2C_load_miss_rate 0.906448
Core_0_L2C_rfo_access 239954
Core_0_L2C_rfo_hit 13562
Core_0_L2C_rfo_miss 226392
Core_0_L2C_rfo_MPKI 2.26392
Core_0_L2C_rfo_miss_rate 0.943481
Core_0_L2C_prefetch_access 763967
Core_0_L2C_prefetch_hit 21782
Core_0_L2C_prefetch_miss 742185
Core_0_L2C_prefetch_MPKI 7.42185
Core_0_L2C_prefetch_miss_rate 0.971488
Core_0_L2C_writeback_access 507188
Core_0_L2C_writeback_hit 504396
Core_0_L2C_writeback_miss 2792
Core_0_L2C_writeback_MPKI 0.02792
Core_0_L2C_writeback_miss_rate 0.00550486
Core_0_L2C_prefetch_requested 763967
Core_0_L2C_prefetch_issued 763967
Core_0_L2C_prefetch_useful 422049
Core_0_L2C_prefetch_useless 300120
Core_0_L2C_prefetch_late 42886
Core_0_L2C_prefetch_fill 679040
Core_0_L2C_prefetch_too_early 18
Core_0_L2C_prefetch_too_early_among_fill 2.6508e-05
Core_0_L2C_prefetch_too_early_among_useless 5.9976e-05
Core_0_L2C_prefetch_pollution_evict 12242
Core_0_L2C_prefetch_pollution_demand 12242
Core_0_L2C_prefetch_pollution_among_prefetch_fill 0.0180284
Core_0_L2C_prefetch_accuracy 0.552444
Core_0_L2C_prefetch_coverage 0.0852253

Core_0_LLC_total_access 5655849
Core_0_LLC_total_hit 1474490
Core_0_LLC_total_miss 4181359
Core_0_LLC_total_MPKI 41.8136
Core_0_LLC_total_miss_rate 0.739298
Core_0_LLC_demand_access 4487223
Core_0_LLC_demand_hit 1243422
Core_0_LLC_demand_miss 3243801
Core_0_LLC_demand_MPKI 32.438
Core_0_LLC_demand_miss_rate 0.722897
Core_0_LLC_load_access 4260831
Core_0_LLC_load_hit 1243043
Core_0_LLC_load_miss 3017788
Core_0_LLC_load_MPKI 30.1779
Core_0_LLC_load_miss_rate 0.708263
Core_0_LLC_rfo_access 226392
Core_0_LLC_rfo_hit 379
Core_0_LLC_rfo_miss 226013
Core_0_LLC_rfo_MPKI 2.26013
Core_0_LLC_rfo_miss_rate 0.998326
Core_0_LLC_prefetch_access 725121
Core_0_LLC_prefetch_hit 155934
Core_0_LLC_prefetch_miss 569187
Core_0_LLC_prefetch_MPKI 5.69187
Core_0_LLC_prefetch_miss_rate 0.784955
Core_0_LLC_writeback_access 443505
Core_0_LLC_writeback_hit 75134
Core_0_LLC_writeback_miss 368371
Core_0_LLC_writeback_MPKI 3.68371
Core_0_LLC_writeback_miss_rate 0.83059
Core_0_LLC_prefetch_requested 0
Core_0_LLC_prefetch_issued 0
Core_0_LLC_prefetch_useful 0
Core_0_LLC_prefetch_useless 0
Core_0_LLC_prefetch_late 0
Core_0_LLC_prefetch_fill 568940
Core_0_LLC_prefetch_too_early 0
Core_0_LLC_prefetch_too_early_among_fill 0
Core_0_LLC_prefetch_too_early_among_useless 0
Core_0_LLC_prefetch_pollution_evict 384611
Core_0_LLC_prefetch_pollution_demand 384611
Core_0_LLC_prefetch_pollution_among_prefetch_fill 0.676013
Core_0_LLC_prefetch_accuracy 0
Core_0_LLC_prefetch_coverage 0

[DRAM Statistics]
Channel_0_RQ_row_buffer_hit 82774
Channel_0_RQ_row_buffer_miss 3744061
Channel_0_WQ_row_buffer_hit 105324
Channel_0_WQ_row_buffer_miss 331282
Channel_0_WQ_full 0
Channel_0_dbus_congested 7524871
DRAM_total_RQ_row_buffer_hit 82774
DRAM_total_RQ_row_buffer_miss 3744061
DRAM_total_WQ_row_buffer_hit 105324
DRAM_total_WQ_row_buffer_miss 331282
DRAM_total_WQ_full 0
DRAM_total_dbus_congested 7524871
DRAM_avg_congested_cycle 9.05072

====== DRAM_RQ_TRAFFIC ========
DRAM_RQ_READ_TRAFFIC_BREAKDOWN:
data_demand_read.count = 3243632
data_demand_read.share = 84.76%

inst_demand_read.count = 0
inst_demand_read.share = 0.00%

cache_inst_prefetch.count = 0
cache_inst_prefetch.share = 0.00%

cache_data_prefetch.count = 569110
cache_data_prefetch.share = 14.87%

stlb_data_demand.count = 14106
stlb_data_demand.share = 0.37%

stlb_inst_demand.count = 0
stlb_inst_demand.share = 0.00%

stlb_l1i_pref.count = 0
stlb_l1i_pref.share = 0.00%

stlb_l1d_pref.count = 0
stlb_l1d_pref.share = 0.00%

DRAM_RQ_READ_TRAFFIC_SUMMARY:
cache_demand.count = 3243632
cache_demand.share = 84.76%

cache_prefetch.count = 569110
cache_prefetch.share = 14.87%

stlb_demand.count = 14106
stlb_demand.share = 0.37%

stlb_prefetch.count = 0
stlb_prefetch.share = 0.00%

DRAM_RQ_READ_TRAFFIC_DEBUG:
total_classified_read.count = 3826848
unclassified_read.count = 0
total_read_with_other.count = 3826848

classified_plus_unclassified_check.count = 3826848
dram_rq_read_total_observed.count = 3826848
dram_rq_read_total_observed.per_1K_instructions = 38.2685

STLB_MISS_PTW_DRAM_TOUCH_BREAKDOWN:
stlb_miss_total.count = 129820

stlb_miss_touch_dram.count = 14006
stlb_miss_touch_dram.share = 10.79%

stlb_miss_no_dram_touch.count = 115814
stlb_miss_no_dram_touch.share = 89.21%

STLB_MISS_PTW_DRAM_TOUCH_DEBUG:
stlb_miss_touch_plus_no_touch.count = 129820
stlb_miss_total_check.count = 129820

======STLB miss causes ========
Core_0_STLB_miss_cause_breakdown
Core_0_STLB_cause_Demand_Data_miss 129820
Core_0_STLB_cause_Demand_Data_miss_rate 0.43286
Core_0_STLB_cause_Demand_Instruction_miss 0
Core_0_STLB_cause_Demand_Instruction_miss_rate 0
Core_0_STLB_cause_L1D_Prefetch_miss 0
Core_0_STLB_cause_L1D_Prefetch_miss_rate 0
Core_0_STLB_cause_L1D_Prefetch_Same_Page_miss 0
Core_0_STLB_cause_L1D_Prefetch_Same_Page_miss_rate 0
Core_0_STLB_cause_L1D_Prefetch_Cross_Page_miss 0
Core_0_STLB_cause_L1D_Prefetch_Cross_Page_miss_rate 0
Core_0_STLB_cause_L1I_Prefetch_miss 0
Core_0_STLB_cause_L1I_Prefetch_miss_rate 0
Core_0_STLB_cause_Other_miss 0
Core_0_STLB_cause_Other_miss_rate 0
Core_0_STLB_Demand_miss 129820
Core_0_STLB_Demand_miss_rate 0.43286
Core_0_STLB_L1D_Prefetch_miss 0
Core_0_STLB_L1D_Prefetch_miss_rate 0
Core_0_STLB_Other_miss 0
Core_0_STLB_Other_miss_rate 0

========== vBerti-TLB Cross-page Flow Stats ==========

Core_0_vBerti_Requested 0
Core_0_vBerti_Cross_page_prefetch_in_Requested 0
Core_0_vBerti_Same_page_prefetch_in_Requested 0
Core_0_vBerti_Cross_page_prefetch_of_Requested 0
Core_0_vBerti_Issued 0
Core_0_vBerti_PQ_Drop_Rate 0
Core_0_vBerti_InPQ_Cross_page_prefetch_of_Requested 0
Core_0_vBerti_Cross_page_PQ_Drop_rate 0
Core_0_vBerti_Cross_page_prefetch_of_Issued 0

========= DTLB_vBerti Prefetch Stats =========
Core_0_DTLB_demand_access 46557202
Core_0_DTLB_demand_hit 46135889
Core_0_DTLB_demand_miss 421313
Core_0_DTLB_demand_mshr_merge 121401
Core_0_DTLB_demand_fill 299912
Core_0_DTLB_demand_miss_rate 0.00904936
Core_0_DTLB_demand_mpki 4.21313
Core_0_DTLB_vberti_prefetch_access 0
Core_0_DTLB_vberti_prefetch_hit 0
Core_0_DTLB_vberti_prefetch_miss 0
Core_0_DTLB_vberti_prefetch_mshr_merge 0
Core_0_DTLB_vberti_prefetch_fill 0
Core_0_DTLB_vberti_prefetch_miss_rate 0
Core_0_DTLB_vberti_prefetch_mpki 0

=== DTLB_vBerti Same/Cross-page Prefetch Stats ===
Core_0_DTLB_vberti_same_page_prefetch 0
Core_0_DTLB_vberti_same_page_prefetch_hit 0
Core_0_DTLB_vberti_same_page_prefetch_miss 0
Core_0_DTLB_vberti_same_page_prefetch_mshr_merge 0
Core_0_DTLB_vberti_same_page_prefetch_fill 0
Core_0_DTLB_vberti_same_page_prefetch_miss_rate 0
Core_0_DTLB_vberti_same_page_prefetch_mpki 0
Core_0_DTLB_vberti_cross_page_prefetch 0
Core_0_DTLB_vberti_cross_page_prefetch_hit 0
Core_0_DTLB_vberti_cross_page_prefetch_miss 0
Core_0_DTLB_vberti_cross_page_prefetch_mshr_merge 0
Core_0_DTLB_vberti_cross_page_prefetch_fill 0
Core_0_DTLB_vberti_cross_page_prefetch_miss_rate 0
Core_0_DTLB_vberti_cross_page_prefetch_mpki 0
Core_0_DTLB_same_page_prefetch_miss_rate 0
Core_0_DTLB_same_page_prefetch_mpki 0
Core_0_DTLB_cross_page_prefetch_miss_rate 0
Core_0_DTLB_cross_page_prefetch_mpki 0
Core_0_DTLB_cross_page_prefetch_issued 0
Core_0_DTLB_cross_page_prefetch_lookups 0
Core_0_DTLB_cross_page_prefetch_useful 0
Core_0_DTLB_cross_page_prefetch_useless 0
Core_0_DTLB_cross_page_prefetch_late 0
Core_0_DTLB_cross_page_prefetch_too_early 0
Core_0_DTLB_cross_page_prefetch_too_early_among_fill 0
Core_0_DTLB_cross_page_prefetch_too_early_among_useless 0
Core_0_DTLB_cross_page_prefetch_pollution_evict 0
Core_0_DTLB_cross_page_prefetch_pollution_demand 0
Core_0_DTLB_cross_page_prefetch_pollution_among_prefetch_fill 0
Core_0_DTLB_cross_page_prefetch_accuracy 0
Core_0_DTLB_cross_page_prefetch_coverage 0

========= STLB_vBerti Prefetch Stats =========
Core_0_STLB_demand_access 299912
Core_0_STLB_demand_hit 170092
Core_0_STLB_demand_miss 129820
Core_0_STLB_demand_mshr_merge 0
Core_0_STLB_demand_fill 129820
Core_0_STLB_demand_miss_rate 0.43286
Core_0_STLB_demand_mpki 1.2982
Core_0_STLB_vberti_prefetch_access 0
Core_0_STLB_vberti_prefetch_hit 0
Core_0_STLB_vberti_prefetch_miss 0
Core_0_STLB_vberti_prefetch_mshr_merge 0
Core_0_STLB_vberti_prefetch_fill 0
Core_0_STLB_vberti_prefetch_miss_rate 0
Core_0_STLB_vberti_prefetch_mpki 0

=== STLB_vBerti Same/Cross-page Prefetch Stats ===
Core_0_STLB_vberti_same_page_prefetch 0
Core_0_STLB_vberti_same_page_prefetch_hit 0
Core_0_STLB_vberti_same_page_prefetch_miss 0
Core_0_STLB_vberti_same_page_prefetch_mshr_merge 0
Core_0_STLB_vberti_same_page_prefetch_fill 0
Core_0_STLB_vberti_same_page_prefetch_miss_rate 0
Core_0_STLB_vberti_same_page_prefetch_mpki 0
Core_0_STLB_vberti_cross_page_prefetch 0
Core_0_STLB_vberti_cross_page_prefetch_hit 0
Core_0_STLB_vberti_cross_page_prefetch_miss 0
Core_0_STLB_vberti_cross_page_prefetch_mshr_merge 0
Core_0_STLB_vberti_cross_page_prefetch_fill 0
Core_0_STLB_vberti_cross_page_prefetch_miss_rate 0
Core_0_STLB_vberti_cross_page_prefetch_mpki 0
Core_0_STLB_same_page_prefetch_miss_rate 0
Core_0_STLB_same_page_prefetch_mpki 0
Core_0_STLB_cross_page_prefetch_miss_rate 0
Core_0_STLB_cross_page_prefetch_mpki 0
Core_0_STLB_cross_page_prefetch_issued 0
Core_0_STLB_cross_page_prefetch_lookups 0
Core_0_STLB_cross_page_prefetch_useful 0
Core_0_STLB_cross_page_prefetch_useless 0
Core_0_STLB_cross_page_prefetch_late 0
Core_0_STLB_cross_page_prefetch_too_early 0
Core_0_STLB_cross_page_prefetch_too_early_among_fill 0
Core_0_STLB_cross_page_prefetch_too_early_among_useless 0
Core_0_STLB_cross_page_prefetch_pollution_evict 0
Core_0_STLB_cross_page_prefetch_pollution_demand 0
Core_0_STLB_cross_page_prefetch_pollution_among_prefetch_fill 0
Core_0_STLB_cross_page_prefetch_accuracy 0
Core_0_STLB_cross_page_prefetch_coverage 0

========= STLB Cross-page Prefetch Buffer Stats =========
Core_0_STLB_raw_demand_miss 129820
Core_0_CP_PB_insert 0
Core_0_CP_PB_demand_hit 0
Core_0_STLB_PB_demand_miss 129820
Core_0_CP_PB_coverage 0
Core_0_STLB_raw_demand_mpki 1.2982
Core_0_STLB_PB_demand_mpki 1.2982
Core_0_CP_PB_demand_hit_mpki 0

Core_0_TLB_demand_miss_rate 0.0027884
Core_0_TLB_demand_mpki 1.2982
Core_0_TLB_same_page_prefetch_miss_rate 0
Core_0_TLB_same_page_prefetch_mpki 0
Core_0_TLB_cross_page_prefetch_miss_rate 0
Core_0_TLB_cross_page_prefetch_mpki 0
Core_0_TLB_cross_page_prefetch_issued 0
Core_0_TLB_cross_page_prefetch_lookups 0
Core_0_TLB_cross_page_prefetch_useful 0
Core_0_TLB_cross_page_prefetch_useless 0
Core_0_TLB_cross_page_prefetch_late 0
Core_0_TLB_cross_page_prefetch_too_early 0
Core_0_TLB_cross_page_prefetch_too_early_among_fill 0
Core_0_TLB_cross_page_prefetch_too_early_among_useless 0
Core_0_TLB_cross_page_prefetch_accuracy 0
Core_0_TLB_cross_page_prefetch_coverage 0
