[VMEM] WARNING: physical memory size is smaller than virtual memory size.

*** ChampSim Multicore Out-of-Order Simulator ***
Warmup Instructions: 50000000
Simulation Instructions: 100000000
Number of CPUs: 1
Page size: 4096
Core 0: /data0/tzh/champsim_traces/SPEC17/623.xalancbmk_s-592B.champsimtrace.xz
Off-chip DRAM Size: 16 GiB Channels: 1 Width: 64-bit Data Rate: 3205 MT/s
Warmup halting CPU 0 at instruction 50000000 cycle 11976811 for remainder of phase
Warmup finished CPU 0 instructions: 50000000 cycles: 11976811 cumulative IPC: 4.175 (Simulation time: 00 hr 02 min 31 sec)
Warmup complete CPU 0 instructions: 50000000 cycles: 11976811 cumulative IPC: 4.175 (Simulation time: 00 hr 02 min 31 sec)
Simulation finished CPU 0 instructions: 100000000 cycles: 85109640 cumulative IPC: 1.175 (Simulation time: 00 hr 13 min 15 sec)
Simulation complete CPU 0 instructions: 100000000 cycles: 85109640 cumulative IPC: 1.175 (Simulation time: 00 hr 13 min 15 sec)

ChampSim completed all CPUs

=== Simulation ===
CPU 0 runs /data0/tzh/champsim_traces/SPEC17/623.xalancbmk_s-592B.champsimtrace.xz

Region of Interest Statistics

CPU 0 cumulative IPC: 1.175 instructions: 100000000 cycles: 85109640
CPU 0 Branch Prediction Accuracy: 98.32% MPKI: 4.959 Average ROB Occupancy at Mispredict: 53.62
Branch type MPKI
BRANCH_DIRECT_JUMP: 0.09886
BRANCH_INDIRECT: 0.3208
BRANCH_CONDITIONAL: 2.904
BRANCH_DIRECT_CALL: 0.0002
BRANCH_INDIRECT_CALL: 0.3342
BRANCH_RETURN: 1.302

cpu0->cpu0_STLB TOTAL        ACCESS:    2330789 HIT:    2202278 MISS:     128511 MSHR_MERGE:          0
cpu0->cpu0_STLB LOAD         ACCESS:    2330789 HIT:    2202278 MISS:     128511 MSHR_MERGE:          0
cpu0->cpu0_STLB RFO          ACCESS:          0 HIT:          0 MISS:          0 MSHR_MERGE:          0
cpu0->cpu0_STLB PREFETCH     ACCESS:          0 HIT:          0 MISS:          0 MSHR_MERGE:          0
cpu0->cpu0_STLB WRITE        ACCESS:          0 HIT:          0 MISS:          0 MSHR_MERGE:          0
cpu0->cpu0_STLB TRANSLATION  ACCESS:          0 HIT:          0 MISS:          0 MSHR_MERGE:          0
cpu0->cpu0_STLB PREFETCH REQUESTED:          0 ISSUED:          0 USEFUL:          0 USELESS:          0 LATE:          0 TOO_EARLY:          0
cpu0->cpu0_STLB AVERAGE MISS LATENCY: 22.78 cycles
cpu0->cpu0_L2C TOTAL        ACCESS:    5449980 HIT:    5145042 MISS:     304938 MSHR_MERGE:       4204
cpu0->cpu0_L2C LOAD         ACCESS:    4151752 HIT:    4011539 MISS:     140213 MSHR_MERGE:        101
cpu0->cpu0_L2C RFO          ACCESS:     169730 HIT:      25558 MISS:     144172 MSHR_MERGE:         70
cpu0->cpu0_L2C PREFETCH     ACCESS:     759713 HIT:     745724 MISS:      13989 MSHR_MERGE:       4033
cpu0->cpu0_L2C WRITE        ACCESS:     247320 HIT:     247318 MISS:          2 MSHR_MERGE:          0
cpu0->cpu0_L2C TRANSLATION  ACCESS:     121465 HIT:     114903 MISS:       6562 MSHR_MERGE:          0
cpu0->cpu0_L2C PREFETCH REQUESTED:     760079 ISSUED:     759713 USEFUL:       7822 USELESS:       2053 LATE:        171 TOO_EARLY:        144
cpu0->cpu0_L2C AVERAGE MISS LATENCY: 125.5 cycles
cpu0->cpu0_L1I TOTAL        ACCESS:   18896179 HIT:   18569660 MISS:     326519 MSHR_MERGE:      98621
cpu0->cpu0_L1I LOAD         ACCESS:   18896179 HIT:   18569660 MISS:     326519 MSHR_MERGE:      98621
cpu0->cpu0_L1I RFO          ACCESS:          0 HIT:          0 MISS:          0 MSHR_MERGE:          0
cpu0->cpu0_L1I PREFETCH     ACCESS:          0 HIT:          0 MISS:          0 MSHR_MERGE:          0
cpu0->cpu0_L1I WRITE        ACCESS:          0 HIT:          0 MISS:          0 MSHR_MERGE:          0
cpu0->cpu0_L1I TRANSLATION  ACCESS:          0 HIT:          0 MISS:          0 MSHR_MERGE:          0
cpu0->cpu0_L1I PREFETCH REQUESTED:          0 ISSUED:          0 USEFUL:          0 USELESS:          0 LATE:          0 TOO_EARLY:          0
cpu0->cpu0_L1I AVERAGE MISS LATENCY: 8.579 cycles
cpu0->cpu0_L1D TOTAL        ACCESS:   24369097 HIT:   18096681 MISS:    6272416 MSHR_MERGE:    2057364
cpu0->cpu0_L1D LOAD         ACCESS:   17746098 HIT:   12243462 MISS:    5502636 MSHR_MERGE:    1578781
cpu0->cpu0_L1D RFO          ACCESS:          0 HIT:          0 MISS:          0 MSHR_MERGE:          0
cpu0->cpu0_L1D PREFETCH     ACCESS:          0 HIT:          0 MISS:          0 MSHR_MERGE:          0
cpu0->cpu0_L1D WRITE        ACCESS:    6365961 HIT:    5718074 MISS:     647887 MSHR_MERGE:     478155
cpu0->cpu0_L1D TRANSLATION  ACCESS:     257038 HIT:     135145 MISS:     121893 MSHR_MERGE:        428
cpu0->cpu0_L1D PREFETCH REQUESTED:          0 ISSUED:          0 USEFUL:          0 USELESS:          0 LATE:          0 TOO_EARLY:          0
cpu0->cpu0_L1D AVERAGE MISS LATENCY: 16.81 cycles
cpu0->cpu0_ITLB TOTAL        ACCESS:   17711243 HIT:   17633478 MISS:      77765 MSHR_MERGE:      45008
cpu0->cpu0_ITLB LOAD         ACCESS:   17711243 HIT:   17633478 MISS:      77765 MSHR_MERGE:      45008
cpu0->cpu0_ITLB RFO          ACCESS:          0 HIT:          0 MISS:          0 MSHR_MERGE:          0
cpu0->cpu0_ITLB PREFETCH     ACCESS:          0 HIT:          0 MISS:          0 MSHR_MERGE:          0
cpu0->cpu0_ITLB WRITE        ACCESS:          0 HIT:          0 MISS:          0 MSHR_MERGE:          0
cpu0->cpu0_ITLB TRANSLATION  ACCESS:          0 HIT:          0 MISS:          0 MSHR_MERGE:          0
cpu0->cpu0_ITLB PREFETCH REQUESTED:          0 ISSUED:          0 USEFUL:          0 USELESS:          0 LATE:          0 TOO_EARLY:          0
cpu0->cpu0_ITLB AVERAGE MISS LATENCY: 6.276 cycles
cpu0->cpu0_DTLB TOTAL        ACCESS:   23417815 HIT:   19942692 MISS:    3475123 MSHR_MERGE:    1177091
cpu0->cpu0_DTLB LOAD         ACCESS:   23417815 HIT:   19942692 MISS:    3475123 MSHR_MERGE:    1177091
cpu0->cpu0_DTLB RFO          ACCESS:          0 HIT:          0 MISS:          0 MSHR_MERGE:          0
cpu0->cpu0_DTLB PREFETCH     ACCESS:          0 HIT:          0 MISS:          0 MSHR_MERGE:          0
cpu0->cpu0_DTLB WRITE        ACCESS:          0 HIT:          0 MISS:          0 MSHR_MERGE:          0
cpu0->cpu0_DTLB TRANSLATION  ACCESS:          0 HIT:          0 MISS:          0 MSHR_MERGE:          0
cpu0->cpu0_DTLB PREFETCH REQUESTED:          0 ISSUED:          0 USEFUL:          0 USELESS:          0 LATE:          0 TOO_EARLY:          0
cpu0->cpu0_DTLB AVERAGE MISS LATENCY: 6.312 cycles
cpu0->LLC TOTAL        ACCESS:     469000 HIT:     244273 MISS:     224727 MSHR_MERGE:         15
cpu0->LLC LOAD         ACCESS:     140112 HIT:     117838 MISS:      22274 MSHR_MERGE:          2
cpu0->LLC RFO          ACCESS:     144102 HIT:       3506 MISS:     140596 MSHR_MERGE:          0
cpu0->LLC PREFETCH     ACCESS:       9956 HIT:       5904 MISS:       4052 MSHR_MERGE:         13
cpu0->LLC WRITE        ACCESS:     168268 HIT:     112027 MISS:      56241 MSHR_MERGE:          0
cpu0->LLC TRANSLATION  ACCESS:       6562 HIT:       4998 MISS:       1564 MSHR_MERGE:          0
cpu0->LLC PREFETCH REQUESTED:          0 ISSUED:          0 USEFUL:          0 USELESS:          0 LATE:          0 TOO_EARLY:          0
cpu0->LLC AVERAGE MISS LATENCY: 147.2 cycles

DRAM Statistics

Channel 0 RQ ROW_BUFFER_HIT:      13787
  ROW_BUFFER_MISS:     154683
  AVG DBUS CONGESTED CYCLE: 7.556
Channel 0 WQ ROW_BUFFER_HIT:      14337
  ROW_BUFFER_MISS:     143980
  FULL:          0
Channel 0 REFRESHES ISSUED:       7092

[ROI Statistics]
[System Configuration]
num_cpus 1
cpu_freq 4000
fetch_width 6
decode_width 6
dispatch_width 6
execute_width 6
lq_width 2
sq_width 2
retire_width 6
scheduler_size 128
branch_mispredict_penalty 15
rob_size 352
lq_size 128
sq_size 72
ifetch_buffer_size 64
decode_buffer_size 32
dispatch_buffer_size 32
register_file_size 288
decode_latency 1
dispatch_latency 1
schedule_latency 1
execute_latency 1
page_size 4096
block_size 64
core_0_itlb_set 16
core_0_itlb_way 4
core_0_itlb_rq_size 16
core_0_itlb_wq_size 16
core_0_itlb_pq_size 0
core_0_itlb_mshr_size 8
core_0_itlb_hit_latency 1
core_0_itlb_fill_latency 1
core_0_itlb_max_tag_check 2
core_0_itlb_max_fill 2
core_0_dtlb_set 16
core_0_dtlb_way 4
core_0_dtlb_rq_size 16
core_0_dtlb_wq_size 16
core_0_dtlb_pq_size 0
core_0_dtlb_mshr_size 8
core_0_dtlb_hit_latency 1
core_0_dtlb_fill_latency 1
core_0_dtlb_max_tag_check 2
core_0_dtlb_max_fill 2
core_0_stlb_set 128
core_0_stlb_way 12
core_0_stlb_rq_size 32
core_0_stlb_wq_size 32
core_0_stlb_pq_size 0
core_0_stlb_mshr_size 16
core_0_stlb_hit_latency 4
core_0_stlb_fill_latency 4
core_0_stlb_max_tag_check 1
core_0_stlb_max_fill 1
core_0_l1i_set 64
core_0_l1i_way 8
core_0_l1i_rq_size 64
core_0_l1i_wq_size 64
core_0_l1i_pq_size 32
core_0_l1i_mshr_size 8
core_0_l1i_hit_latency 2
core_0_l1i_fill_latency 2
core_0_l1i_max_tag_check 2
core_0_l1i_max_fill 2
core_0_l1d_set 64
core_0_l1d_way 12
core_0_l1d_rq_size 64
core_0_l1d_wq_size 64
core_0_l1d_pq_size 8
core_0_l1d_mshr_size 16
core_0_l1d_hit_latency 2
core_0_l1d_fill_latency 3
core_0_l1d_max_tag_check 2
core_0_l1d_max_fill 2
core_0_l2c_set 1024
core_0_l2c_way 8
core_0_l2c_rq_size 32
core_0_l2c_wq_size 32
core_0_l2c_pq_size 16
core_0_l2c_mshr_size 32
core_0_l2c_hit_latency 5
core_0_l2c_fill_latency 5
core_0_l2c_max_tag_check 1
core_0_l2c_max_fill 1
llc_set 2048
llc_way 16
llc_rq_size 32
llc_wq_size 32
llc_pq_size 32
llc_mshr_size 64
llc_hit_latency 10
llc_fill_latency 10
llc_max_tag_check 1
llc_max_fill 1
dram_channels 1
dram_ranks 1
dram_bankgroups 8
dram_banks 4
dram_rows 65536
dram_columns 1024
dram_channel_width 8
dram_rq_size 64
dram_wq_size 64
dram_size 17179869184
core_0_itlb_prefetcher no
core_0_dtlb_prefetcher no
core_0_stlb_prefetcher no
core_0_l1i_prefetcher next_line
core_0_l1d_prefetcher no
core_0_l2c_prefetcher ip_stride
llc_prefetcher no
llc_replacement drrip

Core_0_instructions 100000000
Core_0_cycles 85109640
Core_0_IPC 1.17496
Core_0_branch_prediction_accuracy 98.3246
Core_0_branch_MPKI 4.95945
Core_0_average_ROB_occupancy_at_mispredict 53.6201

Core_0_ITLB_total_access 17711243
Core_0_ITLB_total_hit 17633478
Core_0_ITLB_total_miss 77765
Core_0_ITLB_total_MPKI 0.77765
Core_0_ITLB_total_miss_rate 0.00439071
Core_0_ITLB_demand_access 17711243
Core_0_ITLB_demand_hit 17633478
Core_0_ITLB_demand_miss 77765
Core_0_ITLB_demand_MPKI 0.77765
Core_0_ITLB_demand_miss_rate 0.00439071
Core_0_ITLB_load_access 17711243
Core_0_ITLB_load_hit 17633478
Core_0_ITLB_load_miss 77765
Core_0_ITLB_load_MPKI 0.77765
Core_0_ITLB_load_miss_rate 0.00439071
Core_0_ITLB_rfo_access 0
Core_0_ITLB_rfo_hit 0
Core_0_ITLB_rfo_miss 0
Core_0_ITLB_rfo_MPKI 0
Core_0_ITLB_rfo_miss_rate 0
Core_0_ITLB_prefetch_access 0
Core_0_ITLB_prefetch_hit 0
Core_0_ITLB_prefetch_miss 0
Core_0_ITLB_prefetch_MPKI 0
Core_0_ITLB_prefetch_miss_rate 0
Core_0_ITLB_writeback_access 0
Core_0_ITLB_writeback_hit 0
Core_0_ITLB_writeback_miss 0
Core_0_ITLB_writeback_MPKI 0
Core_0_ITLB_writeback_miss_rate 0
Core_0_ITLB_prefetch_requested 0
Core_0_ITLB_prefetch_issued 0
Core_0_ITLB_prefetch_useful 0
Core_0_ITLB_prefetch_useless 0
Core_0_ITLB_prefetch_late 0
Core_0_ITLB_prefetch_fill 0
Core_0_ITLB_prefetch_too_early 0
Core_0_ITLB_prefetch_too_early_among_fill 0
Core_0_ITLB_prefetch_too_early_among_useless 0
Core_0_ITLB_prefetch_pollution_evict 0
Core_0_ITLB_prefetch_pollution_demand 0
Core_0_ITLB_prefetch_pollution_among_prefetch_fill 0
Core_0_ITLB_prefetch_accuracy 0
Core_0_ITLB_prefetch_coverage 0

Core_0_DTLB_total_access 23417815
Core_0_DTLB_total_hit 19942692
Core_0_DTLB_total_miss 3475123
Core_0_DTLB_total_MPKI 34.7512
Core_0_DTLB_total_miss_rate 0.148397
Core_0_DTLB_demand_access 23417815
Core_0_DTLB_demand_hit 19942692
Core_0_DTLB_demand_miss 3475123
Core_0_DTLB_demand_MPKI 34.7512
Core_0_DTLB_demand_miss_rate 0.148397
Core_0_DTLB_load_access 23417815
Core_0_DTLB_load_hit 19942692
Core_0_DTLB_load_miss 3475123
Core_0_DTLB_load_MPKI 34.7512
Core_0_DTLB_load_miss_rate 0.148397
Core_0_DTLB_rfo_access 0
Core_0_DTLB_rfo_hit 0
Core_0_DTLB_rfo_miss 0
Core_0_DTLB_rfo_MPKI 0
Core_0_DTLB_rfo_miss_rate 0
Core_0_DTLB_prefetch_access 0
Core_0_DTLB_prefetch_hit 0
Core_0_DTLB_prefetch_miss 0
Core_0_DTLB_prefetch_MPKI 0
Core_0_DTLB_prefetch_miss_rate 0
Core_0_DTLB_writeback_access 0
Core_0_DTLB_writeback_hit 0
Core_0_DTLB_writeback_miss 0
Core_0_DTLB_writeback_MPKI 0
Core_0_DTLB_writeback_miss_rate 0
Core_0_DTLB_prefetch_requested 0
Core_0_DTLB_prefetch_issued 0
Core_0_DTLB_prefetch_useful 0
Core_0_DTLB_prefetch_useless 0
Core_0_DTLB_prefetch_late 0
Core_0_DTLB_prefetch_fill 0
Core_0_DTLB_prefetch_too_early 0
Core_0_DTLB_prefetch_too_early_among_fill 0
Core_0_DTLB_prefetch_too_early_among_useless 0
Core_0_DTLB_prefetch_pollution_evict 0
Core_0_DTLB_prefetch_pollution_demand 0
Core_0_DTLB_prefetch_pollution_among_prefetch_fill 0
Core_0_DTLB_prefetch_accuracy 0
Core_0_DTLB_prefetch_coverage 0

Core_0_STLB_total_access 2330789
Core_0_STLB_total_hit 2202278
Core_0_STLB_total_miss 128511
Core_0_STLB_total_MPKI 1.28511
Core_0_STLB_total_miss_rate 0.0551363
Core_0_STLB_demand_access 2330789
Core_0_STLB_demand_hit 2202278
Core_0_STLB_demand_miss 128511
Core_0_STLB_demand_MPKI 1.28511
Core_0_STLB_demand_miss_rate 0.0551363
Core_0_STLB_load_access 2330789
Core_0_STLB_load_hit 2202278
Core_0_STLB_load_miss 128511
Core_0_STLB_load_MPKI 1.28511
Core_0_STLB_load_miss_rate 0.0551363
Core_0_STLB_rfo_access 0
Core_0_STLB_rfo_hit 0
Core_0_STLB_rfo_miss 0
Core_0_STLB_rfo_MPKI 0
Core_0_STLB_rfo_miss_rate 0
Core_0_STLB_prefetch_access 0
Core_0_STLB_prefetch_hit 0
Core_0_STLB_prefetch_miss 0
Core_0_STLB_prefetch_MPKI 0
Core_0_STLB_prefetch_miss_rate 0
Core_0_STLB_writeback_access 0
Core_0_STLB_writeback_hit 0
Core_0_STLB_writeback_miss 0
Core_0_STLB_writeback_MPKI 0
Core_0_STLB_writeback_miss_rate 0
Core_0_STLB_prefetch_requested 0
Core_0_STLB_prefetch_issued 0
Core_0_STLB_prefetch_useful 0
Core_0_STLB_prefetch_useless 0
Core_0_STLB_prefetch_late 0
Core_0_STLB_prefetch_fill 0
Core_0_STLB_prefetch_too_early 0
Core_0_STLB_prefetch_too_early_among_fill 0
Core_0_STLB_prefetch_too_early_among_useless 0
Core_0_STLB_prefetch_pollution_evict 0
Core_0_STLB_prefetch_pollution_demand 0
Core_0_STLB_prefetch_pollution_among_prefetch_fill 0
Core_0_STLB_prefetch_accuracy 0
Core_0_STLB_prefetch_coverage 0

Core_0_L1I_total_access 18896179
Core_0_L1I_total_hit 18569660
Core_0_L1I_total_miss 326519
Core_0_L1I_total_MPKI 3.26519
Core_0_L1I_total_miss_rate 0.0172796
Core_0_L1I_demand_access 18896179
Core_0_L1I_demand_hit 18569660
Core_0_L1I_demand_miss 326519
Core_0_L1I_demand_MPKI 3.26519
Core_0_L1I_demand_miss_rate 0.0172796
Core_0_L1I_load_access 18896179
Core_0_L1I_load_hit 18569660
Core_0_L1I_load_miss 326519
Core_0_L1I_load_MPKI 3.26519
Core_0_L1I_load_miss_rate 0.0172796
Core_0_L1I_rfo_access 0
Core_0_L1I_rfo_hit 0
Core_0_L1I_rfo_miss 0
Core_0_L1I_rfo_MPKI 0
Core_0_L1I_rfo_miss_rate 0
Core_0_L1I_prefetch_access 0
Core_0_L1I_prefetch_hit 0
Core_0_L1I_prefetch_miss 0
Core_0_L1I_prefetch_MPKI 0
Core_0_L1I_prefetch_miss_rate 0
Core_0_L1I_writeback_access 0
Core_0_L1I_writeback_hit 0
Core_0_L1I_writeback_miss 0
Core_0_L1I_writeback_MPKI 0
Core_0_L1I_writeback_miss_rate 0
Core_0_L1I_prefetch_requested 0
Core_0_L1I_prefetch_issued 0
Core_0_L1I_prefetch_useful 0
Core_0_L1I_prefetch_useless 0
Core_0_L1I_prefetch_late 0
Core_0_L1I_prefetch_fill 0
Core_0_L1I_prefetch_too_early 0
Core_0_L1I_prefetch_too_early_among_fill 0
Core_0_L1I_prefetch_too_early_among_useless 0
Core_0_L1I_prefetch_pollution_evict 0
Core_0_L1I_prefetch_pollution_demand 0
Core_0_L1I_prefetch_pollution_among_prefetch_fill 0
Core_0_L1I_prefetch_accuracy 0
Core_0_L1I_prefetch_coverage 0

Core_0_L1D_total_access 24112059
Core_0_L1D_total_hit 17961536
Core_0_L1D_total_miss 6150523
Core_0_L1D_total_MPKI 61.5052
Core_0_L1D_total_miss_rate 0.255081
Core_0_L1D_demand_access 17746098
Core_0_L1D_demand_hit 12243462
Core_0_L1D_demand_miss 5502636
Core_0_L1D_demand_MPKI 55.0264
Core_0_L1D_demand_miss_rate 0.310076
Core_0_L1D_load_access 17746098
Core_0_L1D_load_hit 12243462
Core_0_L1D_load_miss 5502636
Core_0_L1D_load_MPKI 55.0264
Core_0_L1D_load_miss_rate 0.310076
Core_0_L1D_rfo_access 0
Core_0_L1D_rfo_hit 0
Core_0_L1D_rfo_miss 0
Core_0_L1D_rfo_MPKI 0
Core_0_L1D_rfo_miss_rate 0
Core_0_L1D_prefetch_access 0
Core_0_L1D_prefetch_hit 0
Core_0_L1D_prefetch_miss 0
Core_0_L1D_prefetch_MPKI 0
Core_0_L1D_prefetch_miss_rate 0
Core_0_L1D_writeback_access 6365961
Core_0_L1D_writeback_hit 5718074
Core_0_L1D_writeback_miss 647887
Core_0_L1D_writeback_MPKI 6.47887
Core_0_L1D_writeback_miss_rate 0.101774
Core_0_L1D_prefetch_requested 0
Core_0_L1D_prefetch_issued 0
Core_0_L1D_prefetch_useful 0
Core_0_L1D_prefetch_useless 0
Core_0_L1D_prefetch_late 0
Core_0_L1D_prefetch_fill 0
Core_0_L1D_prefetch_too_early 0
Core_0_L1D_prefetch_too_early_among_fill 0
Core_0_L1D_prefetch_too_early_among_useless 0
Core_0_L1D_prefetch_pollution_evict 0
Core_0_L1D_prefetch_pollution_demand 0
Core_0_L1D_prefetch_pollution_among_prefetch_fill 0
Core_0_L1D_prefetch_accuracy 0
Core_0_L1D_prefetch_coverage 0

Core_0_L2C_total_access 5328515
Core_0_L2C_total_hit 5030139
Core_0_L2C_total_miss 298376
Core_0_L2C_total_MPKI 2.98376
Core_0_L2C_total_miss_rate 0.0559961
Core_0_L2C_demand_access 4321482
Core_0_L2C_demand_hit 4037097
Core_0_L2C_demand_miss 284385
Core_0_L2C_demand_MPKI 2.84385
Core_0_L2C_demand_miss_rate 0.0658073
Core_0_L2C_load_access 4151752
Core_0_L2C_load_hit 4011539
Core_0_L2C_load_miss 140213
Core_0_L2C_load_MPKI 1.40213
Core_0_L2C_load_miss_rate 0.033772
Core_0_L2C_rfo_access 169730
Core_0_L2C_rfo_hit 25558
Core_0_L2C_rfo_miss 144172
Core_0_L2C_rfo_MPKI 1.44172
Core_0_L2C_rfo_miss_rate 0.84942
Core_0_L2C_prefetch_access 759713
Core_0_L2C_prefetch_hit 745724
Core_0_L2C_prefetch_miss 13989
Core_0_L2C_prefetch_MPKI 0.13989
Core_0_L2C_prefetch_miss_rate 0.0184135
Core_0_L2C_writeback_access 247320
Core_0_L2C_writeback_hit 247318
Core_0_L2C_writeback_miss 2
Core_0_L2C_writeback_MPKI 2e-05
Core_0_L2C_writeback_miss_rate 8.08669e-06
Core_0_L2C_prefetch_requested 760079
Core_0_L2C_prefetch_issued 759713
Core_0_L2C_prefetch_useful 7822
Core_0_L2C_prefetch_useless 2053
Core_0_L2C_prefetch_late 171
Core_0_L2C_prefetch_fill 9710
Core_0_L2C_prefetch_too_early 144
Core_0_L2C_prefetch_too_early_among_fill 0.0148301
Core_0_L2C_prefetch_too_early_among_useless 0.0701413
Core_0_L2C_prefetch_pollution_evict 6323
Core_0_L2C_prefetch_pollution_demand 6311
Core_0_L2C_prefetch_pollution_among_prefetch_fill 0.651184
Core_0_L2C_prefetch_accuracy 0.010296
Core_0_L2C_prefetch_coverage 0.0267687

Core_0_LLC_total_access 462438
Core_0_LLC_total_hit 239275
Core_0_LLC_total_miss 223163
Core_0_LLC_total_MPKI 2.23163
Core_0_LLC_total_miss_rate 0.482579
Core_0_LLC_demand_access 284214
Core_0_LLC_demand_hit 121344
Core_0_LLC_demand_miss 162870
Core_0_LLC_demand_MPKI 1.6287
Core_0_LLC_demand_miss_rate 0.573054
Core_0_LLC_load_access 140112
Core_0_LLC_load_hit 117838
Core_0_LLC_load_miss 22274
Core_0_LLC_load_MPKI 0.22274
Core_0_LLC_load_miss_rate 0.158973
Core_0_LLC_rfo_access 144102
Core_0_LLC_rfo_hit 3506
Core_0_LLC_rfo_miss 140596
Core_0_LLC_rfo_MPKI 1.40596
Core_0_LLC_rfo_miss_rate 0.97567
Core_0_LLC_prefetch_access 9956
Core_0_LLC_prefetch_hit 5904
Core_0_LLC_prefetch_miss 4052
Core_0_LLC_prefetch_MPKI 0.04052
Core_0_LLC_prefetch_miss_rate 0.406991
Core_0_LLC_writeback_access 168268
Core_0_LLC_writeback_hit 112027
Core_0_LLC_writeback_miss 56241
Core_0_LLC_writeback_MPKI 0.56241
Core_0_LLC_writeback_miss_rate 0.334235
Core_0_LLC_prefetch_requested 0
Core_0_LLC_prefetch_issued 0
Core_0_LLC_prefetch_useful 0
Core_0_LLC_prefetch_useless 0
Core_0_LLC_prefetch_late 0
Core_0_LLC_prefetch_fill 4037
Core_0_LLC_prefetch_too_early 0
Core_0_LLC_prefetch_too_early_among_fill 0
Core_0_LLC_prefetch_too_early_among_useless 0
Core_0_LLC_prefetch_pollution_evict 1371
Core_0_LLC_prefetch_pollution_demand 1371
Core_0_LLC_prefetch_pollution_among_prefetch_fill 0.339609
Core_0_LLC_prefetch_accuracy 0
Core_0_LLC_prefetch_coverage 0

[DRAM Statistics]
Channel_0_RQ_row_buffer_hit 13787
Channel_0_RQ_row_buffer_miss 154683
Channel_0_WQ_row_buffer_hit 14337
Channel_0_WQ_row_buffer_miss 143980
Channel_0_WQ_full 0
Channel_0_dbus_congested 793747
DRAM_total_RQ_row_buffer_hit 13787
DRAM_total_RQ_row_buffer_miss 154683
DRAM_total_WQ_row_buffer_hit 14337
DRAM_total_WQ_row_buffer_miss 143980
DRAM_total_WQ_full 0
DRAM_total_dbus_congested 793747
DRAM_avg_congested_cycle 7.5562

====== DRAM_RQ_TRAFFIC ========
DRAM_RQ_READ_TRAFFIC_BREAKDOWN:
data_demand_read.count = 161620
data_demand_read.share = 95.93%

inst_demand_read.count = 1248
inst_demand_read.share = 0.74%

cache_inst_prefetch.count = 0
cache_inst_prefetch.share = 0.00%

cache_data_prefetch.count = 4039
cache_data_prefetch.share = 2.40%

stlb_data_demand.count = 1503
stlb_data_demand.share = 0.89%

stlb_inst_demand.count = 61
stlb_inst_demand.share = 0.04%

stlb_l1i_pref.count = 0
stlb_l1i_pref.share = 0.00%

stlb_l1d_pref.count = 0
stlb_l1d_pref.share = 0.00%

DRAM_RQ_READ_TRAFFIC_SUMMARY:
cache_demand.count = 162868
cache_demand.share = 96.67%

cache_prefetch.count = 4039
cache_prefetch.share = 2.40%

stlb_demand.count = 1564
stlb_demand.share = 0.93%

stlb_prefetch.count = 0
stlb_prefetch.share = 0.00%

DRAM_RQ_READ_TRAFFIC_DEBUG:
total_classified_read.count = 168471
unclassified_read.count = 0
total_read_with_other.count = 168471

classified_plus_unclassified_check.count = 168471
dram_rq_read_total_observed.count = 168471
dram_rq_read_total_observed.per_1K_instructions = 1.68471

STLB_MISS_PTW_DRAM_TOUCH_BREAKDOWN:
stlb_miss_total.count = 128511

stlb_miss_touch_dram.count = 1558
stlb_miss_touch_dram.share = 1.21%

stlb_miss_no_dram_touch.count = 126953
stlb_miss_no_dram_touch.share = 98.79%

STLB_MISS_PTW_DRAM_TOUCH_DEBUG:
stlb_miss_touch_plus_no_touch.count = 128511
stlb_miss_total_check.count = 128511

======STLB miss causes ========
Core_0_STLB_miss_cause_breakdown
Core_0_STLB_cause_Demand_Data_miss 126725
Core_0_STLB_cause_Demand_Data_miss_rate 0.05437
Core_0_STLB_cause_Demand_Instruction_miss 1786
Core_0_STLB_cause_Demand_Instruction_miss_rate 0.000766264
Core_0_STLB_cause_L1D_Prefetch_miss 0
Core_0_STLB_cause_L1D_Prefetch_miss_rate 0
Core_0_STLB_cause_L1D_Prefetch_Same_Page_miss 0
Core_0_STLB_cause_L1D_Prefetch_Same_Page_miss_rate 0
Core_0_STLB_cause_L1D_Prefetch_Cross_Page_miss 0
Core_0_STLB_cause_L1D_Prefetch_Cross_Page_miss_rate 0
Core_0_STLB_cause_L1I_Prefetch_miss 0
Core_0_STLB_cause_L1I_Prefetch_miss_rate 0
Core_0_STLB_cause_Other_miss 0
Core_0_STLB_cause_Other_miss_rate 0
Core_0_STLB_Demand_miss 128511
Core_0_STLB_Demand_miss_rate 0.0551363
Core_0_STLB_L1D_Prefetch_miss 0
Core_0_STLB_L1D_Prefetch_miss_rate 0
Core_0_STLB_Other_miss 0
Core_0_STLB_Other_miss_rate 0

========== vBerti-TLB Cross-page Flow Stats ==========

Core_0_vBerti_Requested 0
Core_0_vBerti_Cross_page_prefetch_in_Requested 0
Core_0_vBerti_Same_page_prefetch_in_Requested 0
Core_0_vBerti_Cross_page_prefetch_of_Requested 0
Core_0_vBerti_Issued 0
Core_0_vBerti_PQ_Drop_Rate 0
Core_0_vBerti_InPQ_Cross_page_prefetch_of_Requested 0
Core_0_vBerti_Cross_page_PQ_Drop_rate 0
Core_0_vBerti_Cross_page_prefetch_of_Issued 0

========= DTLB_vBerti Prefetch Stats =========
Core_0_DTLB_demand_access 23417815
Core_0_DTLB_demand_hit 19942692
Core_0_DTLB_demand_miss 3475123
Core_0_DTLB_demand_mshr_merge 1177091
Core_0_DTLB_demand_fill 2298032
Core_0_DTLB_demand_miss_rate 0.148397
Core_0_DTLB_demand_mpki 34.7512
Core_0_DTLB_vberti_prefetch_access 0
Core_0_DTLB_vberti_prefetch_hit 0
Core_0_DTLB_vberti_prefetch_miss 0
Core_0_DTLB_vberti_prefetch_mshr_merge 0
Core_0_DTLB_vberti_prefetch_fill 0
Core_0_DTLB_vberti_prefetch_miss_rate 0
Core_0_DTLB_vberti_prefetch_mpki 0

=== DTLB_vBerti Same/Cross-page Prefetch Stats ===
Core_0_DTLB_vberti_same_page_prefetch 0
Core_0_DTLB_vberti_same_page_prefetch_hit 0
Core_0_DTLB_vberti_same_page_prefetch_miss 0
Core_0_DTLB_vberti_same_page_prefetch_mshr_merge 0
Core_0_DTLB_vberti_same_page_prefetch_fill 0
Core_0_DTLB_vberti_same_page_prefetch_miss_rate 0
Core_0_DTLB_vberti_same_page_prefetch_mpki 0
Core_0_DTLB_vberti_cross_page_prefetch 0
Core_0_DTLB_vberti_cross_page_prefetch_hit 0
Core_0_DTLB_vberti_cross_page_prefetch_miss 0
Core_0_DTLB_vberti_cross_page_prefetch_mshr_merge 0
Core_0_DTLB_vberti_cross_page_prefetch_fill 0
Core_0_DTLB_vberti_cross_page_prefetch_miss_rate 0
Core_0_DTLB_vberti_cross_page_prefetch_mpki 0
Core_0_DTLB_same_page_prefetch_miss_rate 0
Core_0_DTLB_same_page_prefetch_mpki 0
Core_0_DTLB_cross_page_prefetch_miss_rate 0
Core_0_DTLB_cross_page_prefetch_mpki 0
Core_0_DTLB_cross_page_prefetch_issued 0
Core_0_DTLB_cross_page_prefetch_lookups 0
Core_0_DTLB_cross_page_prefetch_useful 0
Core_0_DTLB_cross_page_prefetch_useless 0
Core_0_DTLB_cross_page_prefetch_late 0
Core_0_DTLB_cross_page_prefetch_too_early 0
Core_0_DTLB_cross_page_prefetch_too_early_among_fill 0
Core_0_DTLB_cross_page_prefetch_too_early_among_useless 0
Core_0_DTLB_cross_page_prefetch_pollution_evict 0
Core_0_DTLB_cross_page_prefetch_pollution_demand 0
Core_0_DTLB_cross_page_prefetch_pollution_among_prefetch_fill 0
Core_0_DTLB_cross_page_prefetch_accuracy 0
Core_0_DTLB_cross_page_prefetch_coverage 0

========= STLB_vBerti Prefetch Stats =========
Core_0_STLB_demand_access 2330789
Core_0_STLB_demand_hit 2202278
Core_0_STLB_demand_miss 128511
Core_0_STLB_demand_mshr_merge 0
Core_0_STLB_demand_fill 128511
Core_0_STLB_demand_miss_rate 0.0551363
Core_0_STLB_demand_mpki 1.28511
Core_0_STLB_vberti_prefetch_access 0
Core_0_STLB_vberti_prefetch_hit 0
Core_0_STLB_vberti_prefetch_miss 0
Core_0_STLB_vberti_prefetch_mshr_merge 0
Core_0_STLB_vberti_prefetch_fill 0
Core_0_STLB_vberti_prefetch_miss_rate 0
Core_0_STLB_vberti_prefetch_mpki 0

=== STLB_vBerti Same/Cross-page Prefetch Stats ===
Core_0_STLB_vberti_same_page_prefetch 0
Core_0_STLB_vberti_same_page_prefetch_hit 0
Core_0_STLB_vberti_same_page_prefetch_miss 0
Core_0_STLB_vberti_same_page_prefetch_mshr_merge 0
Core_0_STLB_vberti_same_page_prefetch_fill 0
Core_0_STLB_vberti_same_page_prefetch_miss_rate 0
Core_0_STLB_vberti_same_page_prefetch_mpki 0
Core_0_STLB_vberti_cross_page_prefetch 0
Core_0_STLB_vberti_cross_page_prefetch_hit 0
Core_0_STLB_vberti_cross_page_prefetch_miss 0
Core_0_STLB_vberti_cross_page_prefetch_mshr_merge 0
Core_0_STLB_vberti_cross_page_prefetch_fill 0
Core_0_STLB_vberti_cross_page_prefetch_miss_rate 0
Core_0_STLB_vberti_cross_page_prefetch_mpki 0
Core_0_STLB_same_page_prefetch_miss_rate 0
Core_0_STLB_same_page_prefetch_mpki 0
Core_0_STLB_cross_page_prefetch_miss_rate 0
Core_0_STLB_cross_page_prefetch_mpki 0
Core_0_STLB_cross_page_prefetch_issued 0
Core_0_STLB_cross_page_prefetch_lookups 0
Core_0_STLB_cross_page_prefetch_useful 0
Core_0_STLB_cross_page_prefetch_useless 0
Core_0_STLB_cross_page_prefetch_late 0
Core_0_STLB_cross_page_prefetch_too_early 0
Core_0_STLB_cross_page_prefetch_too_early_among_fill 0
Core_0_STLB_cross_page_prefetch_too_early_among_useless 0
Core_0_STLB_cross_page_prefetch_pollution_evict 0
Core_0_STLB_cross_page_prefetch_pollution_demand 0
Core_0_STLB_cross_page_prefetch_pollution_among_prefetch_fill 0
Core_0_STLB_cross_page_prefetch_accuracy 0
Core_0_STLB_cross_page_prefetch_coverage 0

========= STLB Cross-page Prefetch Buffer Stats =========
Core_0_STLB_raw_demand_miss 126725
Core_0_CP_PB_insert 0
Core_0_CP_PB_demand_hit 0
Core_0_STLB_PB_demand_miss 126725
Core_0_CP_PB_coverage 0
Core_0_STLB_raw_demand_mpki 1.26725
Core_0_STLB_PB_demand_mpki 1.26725
Core_0_CP_PB_demand_hit_mpki 0

Core_0_TLB_demand_miss_rate 0.00548775
Core_0_TLB_demand_mpki 1.28511
Core_0_TLB_same_page_prefetch_miss_rate 0
Core_0_TLB_same_page_prefetch_mpki 0
Core_0_TLB_cross_page_prefetch_miss_rate 0
Core_0_TLB_cross_page_prefetch_mpki 0
Core_0_TLB_cross_page_prefetch_issued 0
Core_0_TLB_cross_page_prefetch_lookups 0
Core_0_TLB_cross_page_prefetch_useful 0
Core_0_TLB_cross_page_prefetch_useless 0
Core_0_TLB_cross_page_prefetch_late 0
Core_0_TLB_cross_page_prefetch_too_early 0
Core_0_TLB_cross_page_prefetch_too_early_among_fill 0
Core_0_TLB_cross_page_prefetch_too_early_among_useless 0
Core_0_TLB_cross_page_prefetch_accuracy 0
Core_0_TLB_cross_page_prefetch_coverage 0
