[VMEM] WARNING: physical memory size is smaller than virtual memory size.

*** ChampSim Multicore Out-of-Order Simulator ***
Warmup Instructions: 50000000
Simulation Instructions: 100000000
Number of CPUs: 1
Page size: 4096
Core 0: /data2/zcq/champsim_traces_gap/bfs.road-140B.champsimtrace.xz
Off-chip DRAM Size: 16 GiB Channels: 1 Width: 64-bit Data Rate: 3205 MT/s
Warmup halting CPU 0 at instruction 50000004 cycle 15382498 for remainder of phase
Warmup finished CPU 0 instructions: 50000004 cycles: 15382498 cumulative IPC: 3.25 (Simulation time: 00 hr 02 min 56 sec)
Warmup complete CPU 0 instructions: 50000004 cycles: 15382498 cumulative IPC: 3.25 (Simulation time: 00 hr 02 min 56 sec)
Simulation finished CPU 0 instructions: 100000005 cycles: 575214299 cumulative IPC: 0.1738 (Simulation time: 00 hr 38 min 27 sec)
Simulation complete CPU 0 instructions: 100000005 cycles: 575214299 cumulative IPC: 0.1738 (Simulation time: 00 hr 38 min 27 sec)

ChampSim completed all CPUs

=== Simulation ===
CPU 0 runs /data2/zcq/champsim_traces_gap/bfs.road-140B.champsimtrace.xz

Region of Interest Statistics

CPU 0 cumulative IPC: 0.1738 instructions: 100000005 cycles: 575214299
CPU 0 Branch Prediction Accuracy: 86.25% MPKI: 23.83 Average ROB Occupancy at Mispredict: 19.75
Branch type MPKI
BRANCH_DIRECT_JUMP: 0.00382
BRANCH_INDIRECT: 0.00758
BRANCH_CONDITIONAL: 23.8
BRANCH_DIRECT_CALL: 3e-05
BRANCH_INDIRECT_CALL: 0.00379
BRANCH_RETURN: 0.0152

cpu0->cpu0_STLB TOTAL        ACCESS:    1344393 HIT:     485585 MISS:     858808 MSHR_MERGE:          0
cpu0->cpu0_STLB LOAD         ACCESS:    1344393 HIT:     485585 MISS:     858808 MSHR_MERGE:          0
cpu0->cpu0_STLB RFO          ACCESS:          0 HIT:          0 MISS:          0 MSHR_MERGE:          0
cpu0->cpu0_STLB PREFETCH     ACCESS:          0 HIT:          0 MISS:          0 MSHR_MERGE:          0
cpu0->cpu0_STLB WRITE        ACCESS:          0 HIT:          0 MISS:          0 MSHR_MERGE:          0
cpu0->cpu0_STLB TRANSLATION  ACCESS:          0 HIT:          0 MISS:          0 MSHR_MERGE:          0
cpu0->cpu0_STLB PREFETCH REQUESTED:          0 ISSUED:          0 USEFUL:          0 USELESS:          0 LATE:          0 TOO_EARLY:          0
cpu0->cpu0_STLB AVERAGE MISS LATENCY: 26.37 cycles
cpu0->cpu0_L2C TOTAL        ACCESS:    7894444 HIT:    2464659 MISS:    5429785 MSHR_MERGE:       2317
cpu0->cpu0_L2C LOAD         ACCESS:    5130252 HIT:     331188 MISS:    4799064 MSHR_MERGE:        246
cpu0->cpu0_L2C RFO          ACCESS:     226034 HIT:      59008 MISS:     167026 MSHR_MERGE:          0
cpu0->cpu0_L2C PREFETCH     ACCESS:     646651 HIT:     511298 MISS:     135353 MSHR_MERGE:       2071
cpu0->cpu0_L2C WRITE        ACCESS:    1460281 HIT:    1460280 MISS:          1 MSHR_MERGE:          0
cpu0->cpu0_L2C TRANSLATION  ACCESS:     431226 HIT:     102885 MISS:     328341 MSHR_MERGE:          0
cpu0->cpu0_L2C PREFETCH REQUESTED:     646651 ISSUED:     646651 USEFUL:      97582 USELESS:      35675 LATE:        246 TOO_EARLY:      24313
cpu0->cpu0_L2C AVERAGE MISS LATENCY: 81.43 cycles
cpu0->cpu0_L1I TOTAL        ACCESS:    7131189 HIT:    7112325 MISS:      18864 MSHR_MERGE:       5456
cpu0->cpu0_L1I LOAD         ACCESS:    7131189 HIT:    7112325 MISS:      18864 MSHR_MERGE:       5456
cpu0->cpu0_L1I RFO          ACCESS:          0 HIT:          0 MISS:          0 MSHR_MERGE:          0
cpu0->cpu0_L1I PREFETCH     ACCESS:          0 HIT:          0 MISS:          0 MSHR_MERGE:          0
cpu0->cpu0_L1I WRITE        ACCESS:          0 HIT:          0 MISS:          0 MSHR_MERGE:          0
cpu0->cpu0_L1I TRANSLATION  ACCESS:          0 HIT:          0 MISS:          0 MSHR_MERGE:          0
cpu0->cpu0_L1I PREFETCH REQUESTED:          0 ISSUED:          0 USEFUL:          0 USELESS:          0 LATE:          0 TOO_EARLY:          0
cpu0->cpu0_L1I AVERAGE MISS LATENCY: 24.34 cycles
cpu0->cpu0_L1D TOTAL        ACCESS:   44465493 HIT:   34474267 MISS:    9991226 MSHR_MERGE:    4217122
cpu0->cpu0_L1D LOAD         ACCESS:   32091601 HIT:   25941676 MISS:    6149925 MSHR_MERGE:    1033081
cpu0->cpu0_L1D RFO          ACCESS:          0 HIT:          0 MISS:          0 MSHR_MERGE:          0
cpu0->cpu0_L1D PREFETCH     ACCESS:          0 HIT:          0 MISS:          0 MSHR_MERGE:          0
cpu0->cpu0_L1D WRITE        ACCESS:   10573249 HIT:    7165856 MISS:    3407393 MSHR_MERGE:    3181359
cpu0->cpu0_L1D TRANSLATION  ACCESS:    1800643 HIT:    1366735 MISS:     433908 MSHR_MERGE:       2682
cpu0->cpu0_L1D PREFETCH REQUESTED:          0 ISSUED:          0 USEFUL:          0 USELESS:          0 LATE:          0 TOO_EARLY:          0
cpu0->cpu0_L1D AVERAGE MISS LATENCY: 83.56 cycles
cpu0->cpu0_ITLB TOTAL        ACCESS:    7087373 HIT:    7084495 MISS:       2878 MSHR_MERGE:       1742
cpu0->cpu0_ITLB LOAD         ACCESS:    7087373 HIT:    7084495 MISS:       2878 MSHR_MERGE:       1742
cpu0->cpu0_ITLB RFO          ACCESS:          0 HIT:          0 MISS:          0 MSHR_MERGE:          0
cpu0->cpu0_ITLB PREFETCH     ACCESS:          0 HIT:          0 MISS:          0 MSHR_MERGE:          0
cpu0->cpu0_ITLB WRITE        ACCESS:          0 HIT:          0 MISS:          0 MSHR_MERGE:          0
cpu0->cpu0_ITLB TRANSLATION  ACCESS:          0 HIT:          0 MISS:          0 MSHR_MERGE:          0
cpu0->cpu0_ITLB PREFETCH REQUESTED:          0 ISSUED:          0 USEFUL:          0 USELESS:          0 LATE:          0 TOO_EARLY:          0
cpu0->cpu0_ITLB AVERAGE MISS LATENCY: 39.79 cycles
cpu0->cpu0_DTLB TOTAL        ACCESS:   42425186 HIT:   40642905 MISS:    1782281 MSHR_MERGE:     439024
cpu0->cpu0_DTLB LOAD         ACCESS:   42425186 HIT:   40642905 MISS:    1782281 MSHR_MERGE:     439024
cpu0->cpu0_DTLB RFO          ACCESS:          0 HIT:          0 MISS:          0 MSHR_MERGE:          0
cpu0->cpu0_DTLB PREFETCH     ACCESS:          0 HIT:          0 MISS:          0 MSHR_MERGE:          0
cpu0->cpu0_DTLB WRITE        ACCESS:          0 HIT:          0 MISS:          0 MSHR_MERGE:          0
cpu0->cpu0_DTLB TRANSLATION  ACCESS:          0 HIT:          0 MISS:          0 MSHR_MERGE:          0
cpu0->cpu0_DTLB PREFETCH REQUESTED:          0 ISSUED:          0 USEFUL:          0 USELESS:          0 LATE:          0 TOO_EARLY:          0
cpu0->cpu0_DTLB AVERAGE MISS LATENCY: 22.47 cycles
cpu0->LLC TOTAL        ACCESS:    6834685 HIT:    4831042 MISS:    2003643 MSHR_MERGE:          0
cpu0->LLC LOAD         ACCESS:    4798818 HIT:    2981738 MISS:    1817080 MSHR_MERGE:          0
cpu0->LLC RFO          ACCESS:     167026 HIT:      59607 MISS:     107419 MSHR_MERGE:          0
cpu0->LLC PREFETCH     ACCESS:     133282 HIT:     105221 MISS:      28061 MSHR_MERGE:          0
cpu0->LLC WRITE        ACCESS:    1407218 HIT:    1369081 MISS:      38137 MSHR_MERGE:          0
cpu0->LLC TRANSLATION  ACCESS:     328341 HIT:     315395 MISS:      12946 MSHR_MERGE:          0
cpu0->LLC PREFETCH REQUESTED:          0 ISSUED:          0 USEFUL:          0 USELESS:          0 LATE:          0 TOO_EARLY:          0
cpu0->LLC AVERAGE MISS LATENCY: 177.2 cycles

DRAM Statistics

Channel 0 RQ ROW_BUFFER_HIT:       6193
  ROW_BUFFER_MISS:    1959229
  AVG DBUS CONGESTED CYCLE: 22.21
Channel 0 WQ ROW_BUFFER_HIT:     131413
  ROW_BUFFER_MISS:     293200
  FULL:          0
Channel 0 REFRESHES ISSUED:      47935

[ROI Statistics]
[System Configuration]
num_cpus 1
cpu_freq 4000
fetch_width 6
decode_width 6
dispatch_width 6
execute_width 6
lq_width 2
sq_width 2
retire_width 6
scheduler_size 128
branch_mispredict_penalty 15
rob_size 352
lq_size 128
sq_size 72
ifetch_buffer_size 64
decode_buffer_size 32
dispatch_buffer_size 32
register_file_size 288
decode_latency 1
dispatch_latency 1
schedule_latency 1
execute_latency 1
page_size 4096
block_size 64
core_0_itlb_set 16
core_0_itlb_way 4
core_0_itlb_rq_size 16
core_0_itlb_wq_size 16
core_0_itlb_pq_size 0
core_0_itlb_mshr_size 8
core_0_itlb_hit_latency 1
core_0_itlb_fill_latency 1
core_0_itlb_max_tag_check 2
core_0_itlb_max_fill 2
core_0_dtlb_set 16
core_0_dtlb_way 4
core_0_dtlb_rq_size 16
core_0_dtlb_wq_size 16
core_0_dtlb_pq_size 0
core_0_dtlb_mshr_size 8
core_0_dtlb_hit_latency 1
core_0_dtlb_fill_latency 1
core_0_dtlb_max_tag_check 2
core_0_dtlb_max_fill 2
core_0_stlb_set 128
core_0_stlb_way 12
core_0_stlb_rq_size 32
core_0_stlb_wq_size 32
core_0_stlb_pq_size 0
core_0_stlb_mshr_size 16
core_0_stlb_hit_latency 4
core_0_stlb_fill_latency 4
core_0_stlb_max_tag_check 1
core_0_stlb_max_fill 1
core_0_l1i_set 64
core_0_l1i_way 8
core_0_l1i_rq_size 64
core_0_l1i_wq_size 64
core_0_l1i_pq_size 32
core_0_l1i_mshr_size 8
core_0_l1i_hit_latency 2
core_0_l1i_fill_latency 2
core_0_l1i_max_tag_check 2
core_0_l1i_max_fill 2
core_0_l1d_set 64
core_0_l1d_way 12
core_0_l1d_rq_size 64
core_0_l1d_wq_size 64
core_0_l1d_pq_size 8
core_0_l1d_mshr_size 16
core_0_l1d_hit_latency 2
core_0_l1d_fill_latency 3
core_0_l1d_max_tag_check 2
core_0_l1d_max_fill 2
core_0_l2c_set 1024
core_0_l2c_way 8
core_0_l2c_rq_size 32
core_0_l2c_wq_size 32
core_0_l2c_pq_size 16
core_0_l2c_mshr_size 32
core_0_l2c_hit_latency 5
core_0_l2c_fill_latency 5
core_0_l2c_max_tag_check 1
core_0_l2c_max_fill 1
llc_set 2048
llc_way 16
llc_rq_size 32
llc_wq_size 32
llc_pq_size 32
llc_mshr_size 64
llc_hit_latency 10
llc_fill_latency 10
llc_max_tag_check 1
llc_max_fill 1
dram_channels 1
dram_ranks 1
dram_bankgroups 8
dram_banks 4
dram_rows 65536
dram_columns 1024
dram_channel_width 8
dram_rq_size 64
dram_wq_size 64
dram_size 17179869184
core_0_itlb_prefetcher no
core_0_dtlb_prefetcher no
core_0_stlb_prefetcher no
core_0_l1i_prefetcher next_line
core_0_l1d_prefetcher no
core_0_l2c_prefetcher ip_stride
llc_prefetcher no
llc_replacement drrip

Core_0_instructions 100000005
Core_0_cycles 575214299
Core_0_IPC 0.173848
Core_0_branch_prediction_accuracy 86.2548
Core_0_branch_MPKI 23.827
Core_0_average_ROB_occupancy_at_mispredict 19.747

Core_0_ITLB_total_access 7087373
Core_0_ITLB_total_hit 7084495
Core_0_ITLB_total_miss 2878
Core_0_ITLB_total_MPKI 0.02878
Core_0_ITLB_total_miss_rate 0.000406074
Core_0_ITLB_demand_access 7087373
Core_0_ITLB_demand_hit 7084495
Core_0_ITLB_demand_miss 2878
Core_0_ITLB_demand_MPKI 0.02878
Core_0_ITLB_demand_miss_rate 0.000406074
Core_0_ITLB_load_access 7087373
Core_0_ITLB_load_hit 7084495
Core_0_ITLB_load_miss 2878
Core_0_ITLB_load_MPKI 0.02878
Core_0_ITLB_load_miss_rate 0.000406074
Core_0_ITLB_rfo_access 0
Core_0_ITLB_rfo_hit 0
Core_0_ITLB_rfo_miss 0
Core_0_ITLB_rfo_MPKI 0
Core_0_ITLB_rfo_miss_rate 0
Core_0_ITLB_prefetch_access 0
Core_0_ITLB_prefetch_hit 0
Core_0_ITLB_prefetch_miss 0
Core_0_ITLB_prefetch_MPKI 0
Core_0_ITLB_prefetch_miss_rate 0
Core_0_ITLB_writeback_access 0
Core_0_ITLB_writeback_hit 0
Core_0_ITLB_writeback_miss 0
Core_0_ITLB_writeback_MPKI 0
Core_0_ITLB_writeback_miss_rate 0
Core_0_ITLB_prefetch_requested 0
Core_0_ITLB_prefetch_issued 0
Core_0_ITLB_prefetch_useful 0
Core_0_ITLB_prefetch_useless 0
Core_0_ITLB_prefetch_late 0
Core_0_ITLB_prefetch_fill 0
Core_0_ITLB_prefetch_too_early 0
Core_0_ITLB_prefetch_too_early_among_fill 0
Core_0_ITLB_prefetch_too_early_among_useless 0
Core_0_ITLB_prefetch_pollution_evict 0
Core_0_ITLB_prefetch_pollution_demand 0
Core_0_ITLB_prefetch_pollution_among_prefetch_fill 0
Core_0_ITLB_prefetch_accuracy 0
Core_0_ITLB_prefetch_coverage 0

Core_0_DTLB_total_access 42425186
Core_0_DTLB_total_hit 40642905
Core_0_DTLB_total_miss 1782281
Core_0_DTLB_total_MPKI 17.8228
Core_0_DTLB_total_miss_rate 0.04201
Core_0_DTLB_demand_access 42425186
Core_0_DTLB_demand_hit 40642905
Core_0_DTLB_demand_miss 1782281
Core_0_DTLB_demand_MPKI 17.8228
Core_0_DTLB_demand_miss_rate 0.04201
Core_0_DTLB_load_access 42425186
Core_0_DTLB_load_hit 40642905
Core_0_DTLB_load_miss 1782281
Core_0_DTLB_load_MPKI 17.8228
Core_0_DTLB_load_miss_rate 0.04201
Core_0_DTLB_rfo_access 0
Core_0_DTLB_rfo_hit 0
Core_0_DTLB_rfo_miss 0
Core_0_DTLB_rfo_MPKI 0
Core_0_DTLB_rfo_miss_rate 0
Core_0_DTLB_prefetch_access 0
Core_0_DTLB_prefetch_hit 0
Core_0_DTLB_prefetch_miss 0
Core_0_DTLB_prefetch_MPKI 0
Core_0_DTLB_prefetch_miss_rate 0
Core_0_DTLB_writeback_access 0
Core_0_DTLB_writeback_hit 0
Core_0_DTLB_writeback_miss 0
Core_0_DTLB_writeback_MPKI 0
Core_0_DTLB_writeback_miss_rate 0
Core_0_DTLB_prefetch_requested 0
Core_0_DTLB_prefetch_issued 0
Core_0_DTLB_prefetch_useful 0
Core_0_DTLB_prefetch_useless 0
Core_0_DTLB_prefetch_late 0
Core_0_DTLB_prefetch_fill 0
Core_0_DTLB_prefetch_too_early 0
Core_0_DTLB_prefetch_too_early_among_fill 0
Core_0_DTLB_prefetch_too_early_among_useless 0
Core_0_DTLB_prefetch_pollution_evict 0
Core_0_DTLB_prefetch_pollution_demand 0
Core_0_DTLB_prefetch_pollution_among_prefetch_fill 0
Core_0_DTLB_prefetch_accuracy 0
Core_0_DTLB_prefetch_coverage 0

Core_0_STLB_total_access 1344393
Core_0_STLB_total_hit 485585
Core_0_STLB_total_miss 858808
Core_0_STLB_total_MPKI 8.58808
Core_0_STLB_total_miss_rate 0.638807
Core_0_STLB_demand_access 1344393
Core_0_STLB_demand_hit 485585
Core_0_STLB_demand_miss 858808
Core_0_STLB_demand_MPKI 8.58808
Core_0_STLB_demand_miss_rate 0.638807
Core_0_STLB_load_access 1344393
Core_0_STLB_load_hit 485585
Core_0_STLB_load_miss 858808
Core_0_STLB_load_MPKI 8.58808
Core_0_STLB_load_miss_rate 0.638807
Core_0_STLB_rfo_access 0
Core_0_STLB_rfo_hit 0
Core_0_STLB_rfo_miss 0
Core_0_STLB_rfo_MPKI 0
Core_0_STLB_rfo_miss_rate 0
Core_0_STLB_prefetch_access 0
Core_0_STLB_prefetch_hit 0
Core_0_STLB_prefetch_miss 0
Core_0_STLB_prefetch_MPKI 0
Core_0_STLB_prefetch_miss_rate 0
Core_0_STLB_writeback_access 0
Core_0_STLB_writeback_hit 0
Core_0_STLB_writeback_miss 0
Core_0_STLB_writeback_MPKI 0
Core_0_STLB_writeback_miss_rate 0
Core_0_STLB_prefetch_requested 0
Core_0_STLB_prefetch_issued 0
Core_0_STLB_prefetch_useful 0
Core_0_STLB_prefetch_useless 0
Core_0_STLB_prefetch_late 0
Core_0_STLB_prefetch_fill 0
Core_0_STLB_prefetch_too_early 0
Core_0_STLB_prefetch_too_early_among_fill 0
Core_0_STLB_prefetch_too_early_among_useless 0
Core_0_STLB_prefetch_pollution_evict 0
Core_0_STLB_prefetch_pollution_demand 0
Core_0_STLB_prefetch_pollution_among_prefetch_fill 0
Core_0_STLB_prefetch_accuracy 0
Core_0_STLB_prefetch_coverage 0

Core_0_L1I_total_access 7131189
Core_0_L1I_total_hit 7112325
Core_0_L1I_total_miss 18864
Core_0_L1I_total_MPKI 0.18864
Core_0_L1I_total_miss_rate 0.00264528
Core_0_L1I_demand_access 7131189
Core_0_L1I_demand_hit 7112325
Core_0_L1I_demand_miss 18864
Core_0_L1I_demand_MPKI 0.18864
Core_0_L1I_demand_miss_rate 0.00264528
Core_0_L1I_load_access 7131189
Core_0_L1I_load_hit 7112325
Core_0_L1I_load_miss 18864
Core_0_L1I_load_MPKI 0.18864
Core_0_L1I_load_miss_rate 0.00264528
Core_0_L1I_rfo_access 0
Core_0_L1I_rfo_hit 0
Core_0_L1I_rfo_miss 0
Core_0_L1I_rfo_MPKI 0
Core_0_L1I_rfo_miss_rate 0
Core_0_L1I_prefetch_access 0
Core_0_L1I_prefetch_hit 0
Core_0_L1I_prefetch_miss 0
Core_0_L1I_prefetch_MPKI 0
Core_0_L1I_prefetch_miss_rate 0
Core_0_L1I_writeback_access 0
Core_0_L1I_writeback_hit 0
Core_0_L1I_writeback_miss 0
Core_0_L1I_writeback_MPKI 0
Core_0_L1I_writeback_miss_rate 0
Core_0_L1I_prefetch_requested 0
Core_0_L1I_prefetch_issued 0
Core_0_L1I_prefetch_useful 0
Core_0_L1I_prefetch_useless 0
Core_0_L1I_prefetch_late 0
Core_0_L1I_prefetch_fill 0
Core_0_L1I_prefetch_too_early 0
Core_0_L1I_prefetch_too_early_among_fill 0
Core_0_L1I_prefetch_too_early_among_useless 0
Core_0_L1I_prefetch_pollution_evict 0
Core_0_L1I_prefetch_pollution_demand 0
Core_0_L1I_prefetch_pollution_among_prefetch_fill 0
Core_0_L1I_prefetch_accuracy 0
Core_0_L1I_prefetch_coverage 0

Core_0_L1D_total_access 42664850
Core_0_L1D_total_hit 33107532
Core_0_L1D_total_miss 9557318
Core_0_L1D_total_MPKI 95.5732
Core_0_L1D_total_miss_rate 0.224009
Core_0_L1D_demand_access 32091601
Core_0_L1D_demand_hit 25941676
Core_0_L1D_demand_miss 6149925
Core_0_L1D_demand_MPKI 61.4992
Core_0_L1D_demand_miss_rate 0.191637
Core_0_L1D_load_access 32091601
Core_0_L1D_load_hit 25941676
Core_0_L1D_load_miss 6149925
Core_0_L1D_load_MPKI 61.4992
Core_0_L1D_load_miss_rate 0.191637
Core_0_L1D_rfo_access 0
Core_0_L1D_rfo_hit 0
Core_0_L1D_rfo_miss 0
Core_0_L1D_rfo_MPKI 0
Core_0_L1D_rfo_miss_rate 0
Core_0_L1D_prefetch_access 0
Core_0_L1D_prefetch_hit 0
Core_0_L1D_prefetch_miss 0
Core_0_L1D_prefetch_MPKI 0
Core_0_L1D_prefetch_miss_rate 0
Core_0_L1D_writeback_access 10573249
Core_0_L1D_writeback_hit 7165856
Core_0_L1D_writeback_miss 3407393
Core_0_L1D_writeback_MPKI 34.0739
Core_0_L1D_writeback_miss_rate 0.322265
Core_0_L1D_prefetch_requested 0
Core_0_L1D_prefetch_issued 0
Core_0_L1D_prefetch_useful 0
Core_0_L1D_prefetch_useless 0
Core_0_L1D_prefetch_late 0
Core_0_L1D_prefetch_fill 0
Core_0_L1D_prefetch_too_early 0
Core_0_L1D_prefetch_too_early_among_fill 0
Core_0_L1D_prefetch_too_early_among_useless 0
Core_0_L1D_prefetch_pollution_evict 0
Core_0_L1D_prefetch_pollution_demand 0
Core_0_L1D_prefetch_pollution_among_prefetch_fill 0
Core_0_L1D_prefetch_accuracy 0
Core_0_L1D_prefetch_coverage 0

Core_0_L2C_total_access 7463218
Core_0_L2C_total_hit 2361774
Core_0_L2C_total_miss 5101444
Core_0_L2C_total_MPKI 51.0144
Core_0_L2C_total_miss_rate 0.683545
Core_0_L2C_demand_access 5356286
Core_0_L2C_demand_hit 390196
Core_0_L2C_demand_miss 4966090
Core_0_L2C_demand_MPKI 49.6609
Core_0_L2C_demand_miss_rate 0.927152
Core_0_L2C_load_access 5130252
Core_0_L2C_load_hit 331188
Core_0_L2C_load_miss 4799064
Core_0_L2C_load_MPKI 47.9906
Core_0_L2C_load_miss_rate 0.935444
Core_0_L2C_rfo_access 226034
Core_0_L2C_rfo_hit 59008
Core_0_L2C_rfo_miss 167026
Core_0_L2C_rfo_MPKI 1.67026
Core_0_L2C_rfo_miss_rate 0.738942
Core_0_L2C_prefetch_access 646651
Core_0_L2C_prefetch_hit 511298
Core_0_L2C_prefetch_miss 135353
Core_0_L2C_prefetch_MPKI 1.35353
Core_0_L2C_prefetch_miss_rate 0.209314
Core_0_L2C_writeback_access 1460281
Core_0_L2C_writeback_hit 1460280
Core_0_L2C_writeback_miss 1
Core_0_L2C_writeback_MPKI 1e-05
Core_0_L2C_writeback_miss_rate 6.848e-07
Core_0_L2C_prefetch_requested 646651
Core_0_L2C_prefetch_issued 646651
Core_0_L2C_prefetch_useful 97582
Core_0_L2C_prefetch_useless 35675
Core_0_L2C_prefetch_late 246
Core_0_L2C_prefetch_fill 133036
Core_0_L2C_prefetch_too_early 24313
Core_0_L2C_prefetch_too_early_among_fill 0.182755
Core_0_L2C_prefetch_too_early_among_useless 0.681514
Core_0_L2C_prefetch_pollution_evict 100565
Core_0_L2C_prefetch_pollution_demand 99940
Core_0_L2C_prefetch_pollution_among_prefetch_fill 0.755923
Core_0_L2C_prefetch_accuracy 0.150904
Core_0_L2C_prefetch_coverage 0.019271

Core_0_LLC_total_access 6506344
Core_0_LLC_total_hit 4515647
Core_0_LLC_total_miss 1990697
Core_0_LLC_total_MPKI 19.907
Core_0_LLC_total_miss_rate 0.305962
Core_0_LLC_demand_access 4965844
Core_0_LLC_demand_hit 3041345
Core_0_LLC_demand_miss 1924499
Core_0_LLC_demand_MPKI 19.245
Core_0_LLC_demand_miss_rate 0.387547
Core_0_LLC_load_access 4798818
Core_0_LLC_load_hit 2981738
Core_0_LLC_load_miss 1817080
Core_0_LLC_load_MPKI 18.1708
Core_0_LLC_load_miss_rate 0.378652
Core_0_LLC_rfo_access 167026
Core_0_LLC_rfo_hit 59607
Core_0_LLC_rfo_miss 107419
Core_0_LLC_rfo_MPKI 1.07419
Core_0_LLC_rfo_miss_rate 0.643127
Core_0_LLC_prefetch_access 133282
Core_0_LLC_prefetch_hit 105221
Core_0_LLC_prefetch_miss 28061
Core_0_LLC_prefetch_MPKI 0.28061
Core_0_LLC_prefetch_miss_rate 0.210539
Core_0_LLC_writeback_access 1407218
Core_0_LLC_writeback_hit 1369081
Core_0_LLC_writeback_miss 38137
Core_0_LLC_writeback_MPKI 0.38137
Core_0_LLC_writeback_miss_rate 0.027101
Core_0_LLC_prefetch_requested 0
Core_0_LLC_prefetch_issued 0
Core_0_LLC_prefetch_useful 0
Core_0_LLC_prefetch_useless 0
Core_0_LLC_prefetch_late 0
Core_0_LLC_prefetch_fill 28061
Core_0_LLC_prefetch_too_early 0
Core_0_LLC_prefetch_too_early_among_fill 0
Core_0_LLC_prefetch_too_early_among_useless 0
Core_0_LLC_prefetch_pollution_evict 16778
Core_0_LLC_prefetch_pollution_demand 16778
Core_0_LLC_prefetch_pollution_among_prefetch_fill 0.597912
Core_0_LLC_prefetch_accuracy 0
Core_0_LLC_prefetch_coverage 0

[DRAM Statistics]
Channel_0_RQ_row_buffer_hit 6193
Channel_0_RQ_row_buffer_miss 1959229
Channel_0_WQ_row_buffer_hit 131413
Channel_0_WQ_row_buffer_miss 293200
Channel_0_WQ_full 0
Channel_0_dbus_congested 6357828
DRAM_total_RQ_row_buffer_hit 6193
DRAM_total_RQ_row_buffer_miss 1959229
DRAM_total_WQ_row_buffer_hit 131413
DRAM_total_WQ_row_buffer_miss 293200
DRAM_total_WQ_full 0
DRAM_total_dbus_congested 6357828
DRAM_avg_congested_cycle 22.2107

====== DRAM_RQ_TRAFFIC ========
DRAM_RQ_READ_TRAFFIC_BREAKDOWN:
data_demand_read.count = 1924356
data_demand_read.share = 97.91%

inst_demand_read.count = 143
inst_demand_read.share = 0.01%

cache_inst_prefetch.count = 0
cache_inst_prefetch.share = 0.00%

cache_data_prefetch.count = 28061
cache_data_prefetch.share = 1.43%

stlb_data_demand.count = 12943
stlb_data_demand.share = 0.66%

stlb_inst_demand.count = 3
stlb_inst_demand.share = 0.00%

stlb_l1i_pref.count = 0
stlb_l1i_pref.share = 0.00%

stlb_l1d_pref.count = 0
stlb_l1d_pref.share = 0.00%

DRAM_RQ_READ_TRAFFIC_SUMMARY:
cache_demand.count = 1924499
cache_demand.share = 97.91%

cache_prefetch.count = 28061
cache_prefetch.share = 1.43%

stlb_demand.count = 12946
stlb_demand.share = 0.66%

stlb_prefetch.count = 0
stlb_prefetch.share = 0.00%

DRAM_RQ_READ_TRAFFIC_DEBUG:
total_classified_read.count = 1965506
unclassified_read.count = 0
total_read_with_other.count = 1965506

classified_plus_unclassified_check.count = 1965506
dram_rq_read_total_observed.count = 1965506
dram_rq_read_total_observed.per_1K_instructions = 19.6551

STLB_MISS_PTW_DRAM_TOUCH_BREAKDOWN:
stlb_miss_total.count = 858808

stlb_miss_touch_dram.count = 12939
stlb_miss_touch_dram.share = 1.51%

stlb_miss_no_dram_touch.count = 845869
stlb_miss_no_dram_touch.share = 98.49%

STLB_MISS_PTW_DRAM_TOUCH_DEBUG:
stlb_miss_touch_plus_no_touch.count = 858808
stlb_miss_total_check.count = 858808

======STLB miss causes ========
Core_0_STLB_miss_cause_breakdown
Core_0_STLB_cause_Demand_Data_miss 857753
Core_0_STLB_cause_Demand_Data_miss_rate 0.638023
Core_0_STLB_cause_Demand_Instruction_miss 1055
Core_0_STLB_cause_Demand_Instruction_miss_rate 0.000784741
Core_0_STLB_cause_L1D_Prefetch_miss 0
Core_0_STLB_cause_L1D_Prefetch_miss_rate 0
Core_0_STLB_cause_L1D_Prefetch_Same_Page_miss 0
Core_0_STLB_cause_L1D_Prefetch_Same_Page_miss_rate 0
Core_0_STLB_cause_L1D_Prefetch_Cross_Page_miss 0
Core_0_STLB_cause_L1D_Prefetch_Cross_Page_miss_rate 0
Core_0_STLB_cause_L1I_Prefetch_miss 0
Core_0_STLB_cause_L1I_Prefetch_miss_rate 0
Core_0_STLB_cause_Other_miss 0
Core_0_STLB_cause_Other_miss_rate 0
Core_0_STLB_Demand_miss 858808
Core_0_STLB_Demand_miss_rate 0.638807
Core_0_STLB_L1D_Prefetch_miss 0
Core_0_STLB_L1D_Prefetch_miss_rate 0
Core_0_STLB_Other_miss 0
Core_0_STLB_Other_miss_rate 0

========== vBerti-TLB Cross-page Flow Stats ==========

Core_0_vBerti_Requested 0
Core_0_vBerti_Cross_page_prefetch_in_Requested 0
Core_0_vBerti_Same_page_prefetch_in_Requested 0
Core_0_vBerti_Cross_page_prefetch_of_Requested 0
Core_0_vBerti_Issued 0
Core_0_vBerti_PQ_Drop_Rate 0
Core_0_vBerti_InPQ_Cross_page_prefetch_of_Requested 0
Core_0_vBerti_Cross_page_PQ_Drop_rate 0
Core_0_vBerti_Cross_page_prefetch_of_Issued 0

========= DTLB_vBerti Prefetch Stats =========
Core_0_DTLB_demand_access 42425186
Core_0_DTLB_demand_hit 40642905
Core_0_DTLB_demand_miss 1782281
Core_0_DTLB_demand_mshr_merge 439024
Core_0_DTLB_demand_fill 1343258
Core_0_DTLB_demand_miss_rate 0.04201
Core_0_DTLB_demand_mpki 17.8228
Core_0_DTLB_vberti_prefetch_access 0
Core_0_DTLB_vberti_prefetch_hit 0
Core_0_DTLB_vberti_prefetch_miss 0
Core_0_DTLB_vberti_prefetch_mshr_merge 0
Core_0_DTLB_vberti_prefetch_fill 0
Core_0_DTLB_vberti_prefetch_miss_rate 0
Core_0_DTLB_vberti_prefetch_mpki 0

=== DTLB_vBerti Same/Cross-page Prefetch Stats ===
Core_0_DTLB_vberti_same_page_prefetch 0
Core_0_DTLB_vberti_same_page_prefetch_hit 0
Core_0_DTLB_vberti_same_page_prefetch_miss 0
Core_0_DTLB_vberti_same_page_prefetch_mshr_merge 0
Core_0_DTLB_vberti_same_page_prefetch_fill 0
Core_0_DTLB_vberti_same_page_prefetch_miss_rate 0
Core_0_DTLB_vberti_same_page_prefetch_mpki 0
Core_0_DTLB_vberti_cross_page_prefetch 0
Core_0_DTLB_vberti_cross_page_prefetch_hit 0
Core_0_DTLB_vberti_cross_page_prefetch_miss 0
Core_0_DTLB_vberti_cross_page_prefetch_mshr_merge 0
Core_0_DTLB_vberti_cross_page_prefetch_fill 0
Core_0_DTLB_vberti_cross_page_prefetch_miss_rate 0
Core_0_DTLB_vberti_cross_page_prefetch_mpki 0
Core_0_DTLB_same_page_prefetch_miss_rate 0
Core_0_DTLB_same_page_prefetch_mpki 0
Core_0_DTLB_cross_page_prefetch_miss_rate 0
Core_0_DTLB_cross_page_prefetch_mpki 0
Core_0_DTLB_cross_page_prefetch_issued 0
Core_0_DTLB_cross_page_prefetch_lookups 0
Core_0_DTLB_cross_page_prefetch_useful 0
Core_0_DTLB_cross_page_prefetch_useless 0
Core_0_DTLB_cross_page_prefetch_late 0
Core_0_DTLB_cross_page_prefetch_too_early 0
Core_0_DTLB_cross_page_prefetch_too_early_among_fill 0
Core_0_DTLB_cross_page_prefetch_too_early_among_useless 0
Core_0_DTLB_cross_page_prefetch_pollution_evict 0
Core_0_DTLB_cross_page_prefetch_pollution_demand 0
Core_0_DTLB_cross_page_prefetch_pollution_among_prefetch_fill 0
Core_0_DTLB_cross_page_prefetch_accuracy 0
Core_0_DTLB_cross_page_prefetch_coverage 0

========= STLB_vBerti Prefetch Stats =========
Core_0_STLB_demand_access 1344393
Core_0_STLB_demand_hit 485585
Core_0_STLB_demand_miss 858808
Core_0_STLB_demand_mshr_merge 0
Core_0_STLB_demand_fill 858809
Core_0_STLB_demand_miss_rate 0.638807
Core_0_STLB_demand_mpki 8.58808
Core_0_STLB_vberti_prefetch_access 0
Core_0_STLB_vberti_prefetch_hit 0
Core_0_STLB_vberti_prefetch_miss 0
Core_0_STLB_vberti_prefetch_mshr_merge 0
Core_0_STLB_vberti_prefetch_fill 0
Core_0_STLB_vberti_prefetch_miss_rate 0
Core_0_STLB_vberti_prefetch_mpki 0

=== STLB_vBerti Same/Cross-page Prefetch Stats ===
Core_0_STLB_vberti_same_page_prefetch 0
Core_0_STLB_vberti_same_page_prefetch_hit 0
Core_0_STLB_vberti_same_page_prefetch_miss 0
Core_0_STLB_vberti_same_page_prefetch_mshr_merge 0
Core_0_STLB_vberti_same_page_prefetch_fill 0
Core_0_STLB_vberti_same_page_prefetch_miss_rate 0
Core_0_STLB_vberti_same_page_prefetch_mpki 0
Core_0_STLB_vberti_cross_page_prefetch 0
Core_0_STLB_vberti_cross_page_prefetch_hit 0
Core_0_STLB_vberti_cross_page_prefetch_miss 0
Core_0_STLB_vberti_cross_page_prefetch_mshr_merge 0
Core_0_STLB_vberti_cross_page_prefetch_fill 0
Core_0_STLB_vberti_cross_page_prefetch_miss_rate 0
Core_0_STLB_vberti_cross_page_prefetch_mpki 0
Core_0_STLB_same_page_prefetch_miss_rate 0
Core_0_STLB_same_page_prefetch_mpki 0
Core_0_STLB_cross_page_prefetch_miss_rate 0
Core_0_STLB_cross_page_prefetch_mpki 0
Core_0_STLB_cross_page_prefetch_issued 0
Core_0_STLB_cross_page_prefetch_lookups 0
Core_0_STLB_cross_page_prefetch_useful 0
Core_0_STLB_cross_page_prefetch_useless 0
Core_0_STLB_cross_page_prefetch_late 0
Core_0_STLB_cross_page_prefetch_too_early 0
Core_0_STLB_cross_page_prefetch_too_early_among_fill 0
Core_0_STLB_cross_page_prefetch_too_early_among_useless 0
Core_0_STLB_cross_page_prefetch_pollution_evict 0
Core_0_STLB_cross_page_prefetch_pollution_demand 0
Core_0_STLB_cross_page_prefetch_pollution_among_prefetch_fill 0
Core_0_STLB_cross_page_prefetch_accuracy 0
Core_0_STLB_cross_page_prefetch_coverage 0

========= STLB Cross-page Prefetch Buffer Stats =========
Core_0_STLB_raw_demand_miss 857753
Core_0_CP_PB_insert 0
Core_0_CP_PB_demand_hit 0
Core_0_STLB_PB_demand_miss 857753
Core_0_CP_PB_coverage 0
Core_0_STLB_raw_demand_mpki 8.57753
Core_0_STLB_PB_demand_mpki 8.57753
Core_0_CP_PB_demand_hit_mpki 0

Core_0_TLB_demand_miss_rate 0.0202429
Core_0_TLB_demand_mpki 8.58808
Core_0_TLB_same_page_prefetch_miss_rate 0
Core_0_TLB_same_page_prefetch_mpki 0
Core_0_TLB_cross_page_prefetch_miss_rate 0
Core_0_TLB_cross_page_prefetch_mpki 0
Core_0_TLB_cross_page_prefetch_issued 0
Core_0_TLB_cross_page_prefetch_lookups 0
Core_0_TLB_cross_page_prefetch_useful 0
Core_0_TLB_cross_page_prefetch_useless 0
Core_0_TLB_cross_page_prefetch_late 0
Core_0_TLB_cross_page_prefetch_too_early 0
Core_0_TLB_cross_page_prefetch_too_early_among_fill 0
Core_0_TLB_cross_page_prefetch_too_early_among_useless 0
Core_0_TLB_cross_page_prefetch_accuracy 0
Core_0_TLB_cross_page_prefetch_coverage 0
