[VMEM] WARNING: physical memory size is smaller than virtual memory size.

*** ChampSim Multicore Out-of-Order Simulator ***
Warmup Instructions: 50000000
Simulation Instructions: 100000000
Number of CPUs: 1
Page size: 4096
Core 0: /data2/zcq/champsim_traces_gap/bfs.kron-128B.champsimtrace.xz
Off-chip DRAM Size: 16 GiB Channels: 1 Width: 64-bit Data Rate: 3205 MT/s
Warmup halting CPU 0 at instruction 50000002 cycle 13924732 for remainder of phase
Warmup finished CPU 0 instructions: 50000002 cycles: 13924732 cumulative IPC: 3.591 (Simulation time: 00 hr 02 min 31 sec)
Warmup complete CPU 0 instructions: 50000002 cycles: 13924732 cumulative IPC: 3.591 (Simulation time: 00 hr 02 min 31 sec)
Simulation finished CPU 0 instructions: 100000002 cycles: 218445246 cumulative IPC: 0.4578 (Simulation time: 00 hr 15 min 42 sec)
Simulation complete CPU 0 instructions: 100000002 cycles: 218445246 cumulative IPC: 0.4578 (Simulation time: 00 hr 15 min 42 sec)

ChampSim completed all CPUs

=== Simulation ===
CPU 0 runs /data2/zcq/champsim_traces_gap/bfs.kron-128B.champsimtrace.xz

Region of Interest Statistics

CPU 0 cumulative IPC: 0.4578 instructions: 100000002 cycles: 218445246
CPU 0 Branch Prediction Accuracy: 81.52% MPKI: 39.95 Average ROB Occupancy at Mispredict: 10.33
Branch type MPKI
BRANCH_DIRECT_JUMP: 0
BRANCH_INDIRECT: 0
BRANCH_CONDITIONAL: 39.95
BRANCH_DIRECT_CALL: 0
BRANCH_INDIRECT_CALL: 0
BRANCH_RETURN: 0

cpu0->cpu0_STLB TOTAL        ACCESS:     117741 HIT:       8144 MISS:     109597 MSHR_MERGE:          0
cpu0->cpu0_STLB LOAD         ACCESS:     117741 HIT:       8144 MISS:     109597 MSHR_MERGE:          0
cpu0->cpu0_STLB RFO          ACCESS:          0 HIT:          0 MISS:          0 MSHR_MERGE:          0
cpu0->cpu0_STLB PREFETCH     ACCESS:          0 HIT:          0 MISS:          0 MSHR_MERGE:          0
cpu0->cpu0_STLB WRITE        ACCESS:          0 HIT:          0 MISS:          0 MSHR_MERGE:          0
cpu0->cpu0_STLB TRANSLATION  ACCESS:          0 HIT:          0 MISS:          0 MSHR_MERGE:          0
cpu0->cpu0_STLB PREFETCH REQUESTED:          0 ISSUED:          0 USEFUL:          0 USELESS:          0 LATE:          0
cpu0->cpu0_STLB AVERAGE MISS LATENCY: 192 cycles
cpu0->cpu0_L2C TOTAL        ACCESS:    6309744 HIT:    3743185 MISS:    2566559 MSHR_MERGE:     804217
cpu0->cpu0_L2C LOAD         ACCESS:    1705062 HIT:    1511075 MISS:     193987 MSHR_MERGE:      14023
cpu0->cpu0_L2C RFO          ACCESS:          0 HIT:          0 MISS:          0 MSHR_MERGE:          0
cpu0->cpu0_L2C PREFETCH     ACCESS:    4475083 HIT:    2157918 MISS:    2317165 MSHR_MERGE:     790194
cpu0->cpu0_L2C WRITE        ACCESS:      62249 HIT:      62249 MISS:          0 MSHR_MERGE:          0
cpu0->cpu0_L2C TRANSLATION  ACCESS:      67350 HIT:      11943 MISS:      55407 MSHR_MERGE:          0
cpu0->cpu0_L2C PREFETCH REQUESTED:    4475086 ISSUED:    4475086 USEFUL:    1525058 USELESS:       1917 LATE:      14023
cpu0->cpu0_L2C AVERAGE MISS LATENCY: 184.5 cycles
cpu0->cpu0_L1I TOTAL        ACCESS:          3 HIT:          3 MISS:          0 MSHR_MERGE:          0
cpu0->cpu0_L1I LOAD         ACCESS:          3 HIT:          3 MISS:          0 MSHR_MERGE:          0
cpu0->cpu0_L1I RFO          ACCESS:          0 HIT:          0 MISS:          0 MSHR_MERGE:          0
cpu0->cpu0_L1I PREFETCH     ACCESS:          0 HIT:          0 MISS:          0 MSHR_MERGE:          0
cpu0->cpu0_L1I WRITE        ACCESS:          0 HIT:          0 MISS:          0 MSHR_MERGE:          0
cpu0->cpu0_L1I TRANSLATION  ACCESS:          0 HIT:          0 MISS:          0 MSHR_MERGE:          0
cpu0->cpu0_L1I PREFETCH REQUESTED:          0 ISSUED:          0 USEFUL:          0 USELESS:          0 LATE:          0
cpu0->cpu0_L1I AVERAGE MISS LATENCY: - cycles
cpu0->cpu0_L1D TOTAL        ACCESS:   18312410 HIT:   15323532 MISS:    2988878 MSHR_MERGE:    1216466
cpu0->cpu0_L1D LOAD         ACCESS:   17913689 HIT:   14992161 MISS:    2921528 MSHR_MERGE:    1216466
cpu0->cpu0_L1D RFO          ACCESS:          0 HIT:          0 MISS:          0 MSHR_MERGE:          0
cpu0->cpu0_L1D PREFETCH     ACCESS:          0 HIT:          0 MISS:          0 MSHR_MERGE:          0
cpu0->cpu0_L1D WRITE        ACCESS:     178930 HIT:     178930 MISS:          0 MSHR_MERGE:          0
cpu0->cpu0_L1D TRANSLATION  ACCESS:     219791 HIT:     152441 MISS:      67350 MSHR_MERGE:          0
cpu0->cpu0_L1D PREFETCH REQUESTED:          0 ISSUED:          0 USEFUL:          0 USELESS:          0 LATE:          0
cpu0->cpu0_L1D AVERAGE MISS LATENCY: 34.11 cycles
cpu0->cpu0_ITLB TOTAL        ACCESS:          2 HIT:          2 MISS:          0 MSHR_MERGE:          0
cpu0->cpu0_ITLB LOAD         ACCESS:          2 HIT:          2 MISS:          0 MSHR_MERGE:          0
cpu0->cpu0_ITLB RFO          ACCESS:          0 HIT:          0 MISS:          0 MSHR_MERGE:          0
cpu0->cpu0_ITLB PREFETCH     ACCESS:          0 HIT:          0 MISS:          0 MSHR_MERGE:          0
cpu0->cpu0_ITLB WRITE        ACCESS:          0 HIT:          0 MISS:          0 MSHR_MERGE:          0
cpu0->cpu0_ITLB TRANSLATION  ACCESS:          0 HIT:          0 MISS:          0 MSHR_MERGE:          0
cpu0->cpu0_ITLB PREFETCH REQUESTED:          0 ISSUED:          0 USEFUL:          0 USELESS:          0 LATE:          0
cpu0->cpu0_ITLB AVERAGE MISS LATENCY: - cycles
cpu0->cpu0_DTLB TOTAL        ACCESS:   18092232 HIT:   17953600 MISS:     138632 MSHR_MERGE:      20891
cpu0->cpu0_DTLB LOAD         ACCESS:   18092232 HIT:   17953600 MISS:     138632 MSHR_MERGE:      20891
cpu0->cpu0_DTLB RFO          ACCESS:          0 HIT:          0 MISS:          0 MSHR_MERGE:          0
cpu0->cpu0_DTLB PREFETCH     ACCESS:          0 HIT:          0 MISS:          0 MSHR_MERGE:          0
cpu0->cpu0_DTLB WRITE        ACCESS:          0 HIT:          0 MISS:          0 MSHR_MERGE:          0
cpu0->cpu0_DTLB TRANSLATION  ACCESS:          0 HIT:          0 MISS:          0 MSHR_MERGE:          0
cpu0->cpu0_DTLB PREFETCH REQUESTED:          0 ISSUED:          0 USEFUL:          0 USELESS:          0 LATE:          0
cpu0->cpu0_DTLB AVERAGE MISS LATENCY: 184.7 cycles
cpu0->LLC TOTAL        ACCESS:    1824592 HIT:      85015 MISS:    1739577 MSHR_MERGE:          0
cpu0->LLC LOAD         ACCESS:     179964 HIT:        123 MISS:     179841 MSHR_MERGE:          0
cpu0->LLC RFO          ACCESS:          0 HIT:          0 MISS:          0 MSHR_MERGE:          0
cpu0->LLC PREFETCH     ACCESS:    1526971 HIT:          0 MISS:    1526971 MSHR_MERGE:          0
cpu0->LLC WRITE        ACCESS:      62250 HIT:      54724 MISS:       7526 MSHR_MERGE:          0
cpu0->LLC TRANSLATION  ACCESS:      55407 HIT:      30168 MISS:      25239 MSHR_MERGE:          0
cpu0->LLC PREFETCH REQUESTED:          0 ISSUED:          0 USEFUL:          0 USELESS:          0 LATE:          0
cpu0->LLC AVERAGE MISS LATENCY: 189.5 cycles

DRAM Statistics

Channel 0 RQ ROW_BUFFER_HIT:     113541
  ROW_BUFFER_MISS:    1618509
  AVG DBUS CONGESTED CYCLE: 18.39
Channel 0 WQ ROW_BUFFER_HIT:      19583
  ROW_BUFFER_MISS:      42626
  FULL:          0
Channel 0 REFRESHES ISSUED:      18204

[ROI Statistics]
[System Configuration]
num_cpus 1
cpu_freq 4000
fetch_width 6
decode_width 6
dispatch_width 6
execute_width 6
lq_width 2
sq_width 2
retire_width 6
scheduler_size 128
branch_mispredict_penalty 15
rob_size 352
lq_size 128
sq_size 72
ifetch_buffer_size 64
decode_buffer_size 32
dispatch_buffer_size 32
register_file_size 288
decode_latency 1
dispatch_latency 1
schedule_latency 1
execute_latency 1
page_size 4096
block_size 64
core_0_itlb_set 16
core_0_itlb_way 4
core_0_itlb_rq_size 16
core_0_itlb_wq_size 16
core_0_itlb_pq_size 0
core_0_itlb_mshr_size 8
core_0_itlb_hit_latency 1
core_0_itlb_fill_latency 1
core_0_itlb_max_tag_check 2
core_0_itlb_max_fill 2
core_0_dtlb_set 16
core_0_dtlb_way 4
core_0_dtlb_rq_size 16
core_0_dtlb_wq_size 16
core_0_dtlb_pq_size 0
core_0_dtlb_mshr_size 8
core_0_dtlb_hit_latency 1
core_0_dtlb_fill_latency 1
core_0_dtlb_max_tag_check 2
core_0_dtlb_max_fill 2
core_0_stlb_set 128
core_0_stlb_way 12
core_0_stlb_rq_size 32
core_0_stlb_wq_size 32
core_0_stlb_pq_size 0
core_0_stlb_mshr_size 16
core_0_stlb_hit_latency 4
core_0_stlb_fill_latency 4
core_0_stlb_max_tag_check 1
core_0_stlb_max_fill 1
core_0_l1i_set 64
core_0_l1i_way 8
core_0_l1i_rq_size 64
core_0_l1i_wq_size 64
core_0_l1i_pq_size 32
core_0_l1i_mshr_size 8
core_0_l1i_hit_latency 2
core_0_l1i_fill_latency 2
core_0_l1i_max_tag_check 2
core_0_l1i_max_fill 2
core_0_l1d_set 64
core_0_l1d_way 12
core_0_l1d_rq_size 64
core_0_l1d_wq_size 64
core_0_l1d_pq_size 8
core_0_l1d_mshr_size 16
core_0_l1d_hit_latency 2
core_0_l1d_fill_latency 3
core_0_l1d_max_tag_check 2
core_0_l1d_max_fill 2
core_0_l2c_set 1024
core_0_l2c_way 8
core_0_l2c_rq_size 32
core_0_l2c_wq_size 32
core_0_l2c_pq_size 16
core_0_l2c_mshr_size 32
core_0_l2c_hit_latency 5
core_0_l2c_fill_latency 5
core_0_l2c_max_tag_check 1
core_0_l2c_max_fill 1
llc_set 2048
llc_way 16
llc_rq_size 32
llc_wq_size 32
llc_pq_size 32
llc_mshr_size 64
llc_hit_latency 10
llc_fill_latency 10
llc_max_tag_check 1
llc_max_fill 1
dram_channels 1
dram_ranks 1
dram_bankgroups 8
dram_banks 4
dram_rows 65536
dram_columns 1024
dram_channel_width 8
dram_rq_size 64
dram_wq_size 64
dram_size 17179869184
core_0_itlb_prefetcher no
core_0_dtlb_prefetcher no
core_0_stlb_prefetcher no
core_0_l1i_prefetcher next_line
core_0_l1d_prefetcher no
core_0_l2c_prefetcher ip_stride
llc_prefetcher no
llc_replacement drrip

Core_0_instructions 100000002
Core_0_cycles 218445246
Core_0_IPC 0.457781
Core_0_branch_prediction_accuracy 81.5179
Core_0_branch_MPKI 39.9549
Core_0_average_ROB_occupancy_at_mispredict 10.334

Core_0_ITLB_total_access 2
Core_0_ITLB_total_hit 2
Core_0_ITLB_total_miss 0
Core_0_ITLB_total_MPKI 0
Core_0_ITLB_total_miss_rate 0
Core_0_ITLB_demand_access 2
Core_0_ITLB_demand_hit 2
Core_0_ITLB_demand_miss 0
Core_0_ITLB_demand_MPKI 0
Core_0_ITLB_demand_miss_rate 0
Core_0_ITLB_load_access 2
Core_0_ITLB_load_hit 2
Core_0_ITLB_load_miss 0
Core_0_ITLB_load_MPKI 0
Core_0_ITLB_load_miss_rate 0
Core_0_ITLB_rfo_access 0
Core_0_ITLB_rfo_hit 0
Core_0_ITLB_rfo_miss 0
Core_0_ITLB_rfo_MPKI 0
Core_0_ITLB_rfo_miss_rate 0
Core_0_ITLB_prefetch_access 0
Core_0_ITLB_prefetch_hit 0
Core_0_ITLB_prefetch_miss 0
Core_0_ITLB_prefetch_MPKI 0
Core_0_ITLB_prefetch_miss_rate 0
Core_0_ITLB_writeback_access 0
Core_0_ITLB_writeback_hit 0
Core_0_ITLB_writeback_miss 0
Core_0_ITLB_writeback_MPKI 0
Core_0_ITLB_writeback_miss_rate 0
Core_0_ITLB_prefetch_requested 0
Core_0_ITLB_prefetch_issued 0
Core_0_ITLB_prefetch_useful 0
Core_0_ITLB_prefetch_useless 0
Core_0_ITLB_prefetch_late 0
Core_0_ITLB_prefetch_fill 0
Core_0_ITLB_prefetch_accuracy 0
Core_0_ITLB_prefetch_coverage 0

Core_0_DTLB_total_access 18092232
Core_0_DTLB_total_hit 17953600
Core_0_DTLB_total_miss 138632
Core_0_DTLB_total_MPKI 1.38632
Core_0_DTLB_total_miss_rate 0.00766252
Core_0_DTLB_demand_access 18092232
Core_0_DTLB_demand_hit 17953600
Core_0_DTLB_demand_miss 138632
Core_0_DTLB_demand_MPKI 1.38632
Core_0_DTLB_demand_miss_rate 0.00766252
Core_0_DTLB_load_access 18092232
Core_0_DTLB_load_hit 17953600
Core_0_DTLB_load_miss 138632
Core_0_DTLB_load_MPKI 1.38632
Core_0_DTLB_load_miss_rate 0.00766252
Core_0_DTLB_rfo_access 0
Core_0_DTLB_rfo_hit 0
Core_0_DTLB_rfo_miss 0
Core_0_DTLB_rfo_MPKI 0
Core_0_DTLB_rfo_miss_rate 0
Core_0_DTLB_prefetch_access 0
Core_0_DTLB_prefetch_hit 0
Core_0_DTLB_prefetch_miss 0
Core_0_DTLB_prefetch_MPKI 0
Core_0_DTLB_prefetch_miss_rate 0
Core_0_DTLB_writeback_access 0
Core_0_DTLB_writeback_hit 0
Core_0_DTLB_writeback_miss 0
Core_0_DTLB_writeback_MPKI 0
Core_0_DTLB_writeback_miss_rate 0
Core_0_DTLB_prefetch_requested 0
Core_0_DTLB_prefetch_issued 0
Core_0_DTLB_prefetch_useful 0
Core_0_DTLB_prefetch_useless 0
Core_0_DTLB_prefetch_late 0
Core_0_DTLB_prefetch_fill 0
Core_0_DTLB_prefetch_accuracy 0
Core_0_DTLB_prefetch_coverage 0

Core_0_STLB_total_access 117741
Core_0_STLB_total_hit 8144
Core_0_STLB_total_miss 109597
Core_0_STLB_total_MPKI 1.09597
Core_0_STLB_total_miss_rate 0.930831
Core_0_STLB_demand_access 117741
Core_0_STLB_demand_hit 8144
Core_0_STLB_demand_miss 109597
Core_0_STLB_demand_MPKI 1.09597
Core_0_STLB_demand_miss_rate 0.930831
Core_0_STLB_load_access 117741
Core_0_STLB_load_hit 8144
Core_0_STLB_load_miss 109597
Core_0_STLB_load_MPKI 1.09597
Core_0_STLB_load_miss_rate 0.930831
Core_0_STLB_rfo_access 0
Core_0_STLB_rfo_hit 0
Core_0_STLB_rfo_miss 0
Core_0_STLB_rfo_MPKI 0
Core_0_STLB_rfo_miss_rate 0
Core_0_STLB_prefetch_access 0
Core_0_STLB_prefetch_hit 0
Core_0_STLB_prefetch_miss 0
Core_0_STLB_prefetch_MPKI 0
Core_0_STLB_prefetch_miss_rate 0
Core_0_STLB_writeback_access 0
Core_0_STLB_writeback_hit 0
Core_0_STLB_writeback_miss 0
Core_0_STLB_writeback_MPKI 0
Core_0_STLB_writeback_miss_rate 0
Core_0_STLB_prefetch_requested 0
Core_0_STLB_prefetch_issued 0
Core_0_STLB_prefetch_useful 0
Core_0_STLB_prefetch_useless 0
Core_0_STLB_prefetch_late 0
Core_0_STLB_prefetch_fill 0
Core_0_STLB_prefetch_accuracy 0
Core_0_STLB_prefetch_coverage 0

Core_0_L1I_total_access 3
Core_0_L1I_total_hit 3
Core_0_L1I_total_miss 0
Core_0_L1I_total_MPKI 0
Core_0_L1I_total_miss_rate 0
Core_0_L1I_demand_access 3
Core_0_L1I_demand_hit 3
Core_0_L1I_demand_miss 0
Core_0_L1I_demand_MPKI 0
Core_0_L1I_demand_miss_rate 0
Core_0_L1I_load_access 3
Core_0_L1I_load_hit 3
Core_0_L1I_load_miss 0
Core_0_L1I_load_MPKI 0
Core_0_L1I_load_miss_rate 0
Core_0_L1I_rfo_access 0
Core_0_L1I_rfo_hit 0
Core_0_L1I_rfo_miss 0
Core_0_L1I_rfo_MPKI 0
Core_0_L1I_rfo_miss_rate 0
Core_0_L1I_prefetch_access 0
Core_0_L1I_prefetch_hit 0
Core_0_L1I_prefetch_miss 0
Core_0_L1I_prefetch_MPKI 0
Core_0_L1I_prefetch_miss_rate 0
Core_0_L1I_writeback_access 0
Core_0_L1I_writeback_hit 0
Core_0_L1I_writeback_miss 0
Core_0_L1I_writeback_MPKI 0
Core_0_L1I_writeback_miss_rate 0
Core_0_L1I_prefetch_requested 0
Core_0_L1I_prefetch_issued 0
Core_0_L1I_prefetch_useful 0
Core_0_L1I_prefetch_useless 0
Core_0_L1I_prefetch_late 0
Core_0_L1I_prefetch_fill 0
Core_0_L1I_prefetch_accuracy 0
Core_0_L1I_prefetch_coverage 0

Core_0_L1D_total_access 18092619
Core_0_L1D_total_hit 15171091
Core_0_L1D_total_miss 2921528
Core_0_L1D_total_MPKI 29.2153
Core_0_L1D_total_miss_rate 0.161476
Core_0_L1D_demand_access 17913689
Core_0_L1D_demand_hit 14992161
Core_0_L1D_demand_miss 2921528
Core_0_L1D_demand_MPKI 29.2153
Core_0_L1D_demand_miss_rate 0.163089
Core_0_L1D_load_access 17913689
Core_0_L1D_load_hit 14992161
Core_0_L1D_load_miss 2921528
Core_0_L1D_load_MPKI 29.2153
Core_0_L1D_load_miss_rate 0.163089
Core_0_L1D_rfo_access 0
Core_0_L1D_rfo_hit 0
Core_0_L1D_rfo_miss 0
Core_0_L1D_rfo_MPKI 0
Core_0_L1D_rfo_miss_rate 0
Core_0_L1D_prefetch_access 0
Core_0_L1D_prefetch_hit 0
Core_0_L1D_prefetch_miss 0
Core_0_L1D_prefetch_MPKI 0
Core_0_L1D_prefetch_miss_rate 0
Core_0_L1D_writeback_access 178930
Core_0_L1D_writeback_hit 178930
Core_0_L1D_writeback_miss 0
Core_0_L1D_writeback_MPKI 0
Core_0_L1D_writeback_miss_rate 0
Core_0_L1D_prefetch_requested 0
Core_0_L1D_prefetch_issued 0
Core_0_L1D_prefetch_useful 0
Core_0_L1D_prefetch_useless 0
Core_0_L1D_prefetch_late 0
Core_0_L1D_prefetch_fill 0
Core_0_L1D_prefetch_accuracy 0
Core_0_L1D_prefetch_coverage 0

Core_0_L2C_total_access 6242394
Core_0_L2C_total_hit 3731242
Core_0_L2C_total_miss 2511152
Core_0_L2C_total_MPKI 25.1115
Core_0_L2C_total_miss_rate 0.402274
Core_0_L2C_demand_access 1705062
Core_0_L2C_demand_hit 1511075
Core_0_L2C_demand_miss 193987
Core_0_L2C_demand_MPKI 1.93987
Core_0_L2C_demand_miss_rate 0.113771
Core_0_L2C_load_access 1705062
Core_0_L2C_load_hit 1511075
Core_0_L2C_load_miss 193987
Core_0_L2C_load_MPKI 1.93987
Core_0_L2C_load_miss_rate 0.113771
Core_0_L2C_rfo_access 0
Core_0_L2C_rfo_hit 0
Core_0_L2C_rfo_miss 0
Core_0_L2C_rfo_MPKI 0
Core_0_L2C_rfo_miss_rate 0
Core_0_L2C_prefetch_access 4475083
Core_0_L2C_prefetch_hit 2157918
Core_0_L2C_prefetch_miss 2317165
Core_0_L2C_prefetch_MPKI 23.1716
Core_0_L2C_prefetch_miss_rate 0.517793
Core_0_L2C_writeback_access 62249
Core_0_L2C_writeback_hit 62249
Core_0_L2C_writeback_miss 0
Core_0_L2C_writeback_MPKI 0
Core_0_L2C_writeback_miss_rate 0
Core_0_L2C_prefetch_requested 4475086
Core_0_L2C_prefetch_issued 4475086
Core_0_L2C_prefetch_useful 1525058
Core_0_L2C_prefetch_useless 1917
Core_0_L2C_prefetch_late 14023
Core_0_L2C_prefetch_fill 1512948
Core_0_L2C_prefetch_accuracy 0.340789
Core_0_L2C_prefetch_coverage 0.887154

Core_0_LLC_total_access 1769185
Core_0_LLC_total_hit 54847
Core_0_LLC_total_miss 1714338
Core_0_LLC_total_MPKI 17.1434
Core_0_LLC_total_miss_rate 0.968999
Core_0_LLC_demand_access 179964
Core_0_LLC_demand_hit 123
Core_0_LLC_demand_miss 179841
Core_0_LLC_demand_MPKI 1.79841
Core_0_LLC_demand_miss_rate 0.999317
Core_0_LLC_load_access 179964
Core_0_LLC_load_hit 123
Core_0_LLC_load_miss 179841
Core_0_LLC_load_MPKI 1.79841
Core_0_LLC_load_miss_rate 0.999317
Core_0_LLC_rfo_access 0
Core_0_LLC_rfo_hit 0
Core_0_LLC_rfo_miss 0
Core_0_LLC_rfo_MPKI 0
Core_0_LLC_rfo_miss_rate 0
Core_0_LLC_prefetch_access 1526971
Core_0_LLC_prefetch_hit 0
Core_0_LLC_prefetch_miss 1526971
Core_0_LLC_prefetch_MPKI 15.2697
Core_0_LLC_prefetch_miss_rate 1
Core_0_LLC_writeback_access 62250
Core_0_LLC_writeback_hit 54724
Core_0_LLC_writeback_miss 7526
Core_0_LLC_writeback_MPKI 0.07526
Core_0_LLC_writeback_miss_rate 0.1209
Core_0_LLC_prefetch_requested 0
Core_0_LLC_prefetch_issued 0
Core_0_LLC_prefetch_useful 0
Core_0_LLC_prefetch_useless 0
Core_0_LLC_prefetch_late 0
Core_0_LLC_prefetch_fill 1526970
Core_0_LLC_prefetch_accuracy 0
Core_0_LLC_prefetch_coverage 0

[DRAM Statistics]
Channel_0_RQ_row_buffer_hit 113541
Channel_0_RQ_row_buffer_miss 1618509
Channel_0_WQ_row_buffer_hit 19583
Channel_0_WQ_row_buffer_miss 42626
Channel_0_WQ_full 0
Channel_0_dbus_congested 1976797
DRAM_total_RQ_row_buffer_hit 113541
DRAM_total_RQ_row_buffer_miss 1618509
DRAM_total_WQ_row_buffer_hit 19583
DRAM_total_WQ_row_buffer_miss 42626
DRAM_total_WQ_full 0
DRAM_total_dbus_congested 1976797
DRAM_avg_congested_cycle 18.3925

====== DRAM_RQ_TRAFFIC ========
DRAM_RQ_READ_TRAFFIC_BREAKDOWN:
data_demand_read.count = 179841
data_demand_read.share = 10.38%

inst_demand_read.count = 0
inst_demand_read.share = 0.00%

cache_inst_prefetch.count = 0
cache_inst_prefetch.share = 0.00%

cache_data_prefetch.count = 1526971
cache_data_prefetch.share = 88.16%

stlb_data_demand.count = 25239
stlb_data_demand.share = 1.46%

stlb_inst_demand.count = 0
stlb_inst_demand.share = 0.00%

stlb_l1i_pref.count = 0
stlb_l1i_pref.share = 0.00%

stlb_l1d_pref.count = 0
stlb_l1d_pref.share = 0.00%

DRAM_RQ_READ_TRAFFIC_SUMMARY:
cache_demand.count = 179841
cache_demand.share = 10.38%

cache_prefetch.count = 1526971
cache_prefetch.share = 88.16%

stlb_demand.count = 25239
stlb_demand.share = 1.46%

stlb_prefetch.count = 0
stlb_prefetch.share = 0.00%

DRAM_RQ_READ_TRAFFIC_DEBUG:
total_classified_read.count = 1732051
unclassified_read.count = 0
total_read_with_other.count = 1732051

classified_plus_unclassified_check.count = 1732051
dram_rq_read_total_observed.count = 1732051
dram_rq_read_total_observed.per_1K_instructions = 17.3205

STLB_MISS_PTW_DRAM_TOUCH_BREAKDOWN:
stlb_miss_total.count = 109597

stlb_miss_touch_dram.count = 25121
stlb_miss_touch_dram.share = 22.92%

stlb_miss_no_dram_touch.count = 84476
stlb_miss_no_dram_touch.share = 77.08%

STLB_MISS_PTW_DRAM_TOUCH_DEBUG:
stlb_miss_touch_plus_no_touch.count = 109597
stlb_miss_total_check.count = 109597

======STLB miss causes ========
Core_0_STLB_miss_cause_breakdown
Core_0_STLB_cause_Demand_Data_miss 109597
Core_0_STLB_cause_Demand_Data_miss_rate 0.930831
Core_0_STLB_cause_Demand_Instruction_miss 0
Core_0_STLB_cause_Demand_Instruction_miss_rate 0
Core_0_STLB_cause_L1D_Prefetch_miss 0
Core_0_STLB_cause_L1D_Prefetch_miss_rate 0
Core_0_STLB_cause_L1D_Prefetch_Same_Page_miss 0
Core_0_STLB_cause_L1D_Prefetch_Same_Page_miss_rate 0
Core_0_STLB_cause_L1D_Prefetch_Cross_Page_miss 0
Core_0_STLB_cause_L1D_Prefetch_Cross_Page_miss_rate 0
Core_0_STLB_cause_L1I_Prefetch_miss 0
Core_0_STLB_cause_L1I_Prefetch_miss_rate 0
Core_0_STLB_cause_Other_miss 0
Core_0_STLB_cause_Other_miss_rate 0
Core_0_STLB_Demand_miss 109597
Core_0_STLB_Demand_miss_rate 0.930831
Core_0_STLB_L1D_Prefetch_miss 0
Core_0_STLB_L1D_Prefetch_miss_rate 0
Core_0_STLB_Other_miss 0
Core_0_STLB_Other_miss_rate 0

========== vBerti-TLB Cross-page Flow Stats ==========

Core_0_vBerti_Requested 0
Core_0_vBerti_Cross_page_prefetch_in_Requested 0
Core_0_vBerti_Same_page_prefetch_in_Requested 0
Core_0_vBerti_Cross_page_prefetch_of_Requested 0
Core_0_vBerti_Issued 0
Core_0_vBerti_PQ_Drop_Rate 0
Core_0_vBerti_InPQ_Cross_page_prefetch_of_Requested 0
Core_0_vBerti_Cross_page_PQ_Drop_rate 0
Core_0_vBerti_Cross_page_prefetch_of_Issued 0

========= DTLB_vBerti Prefetch Stats =========
Core_0_DTLB_demand_access 18092232
Core_0_DTLB_demand_hit 17953600
Core_0_DTLB_demand_miss 138632
Core_0_DTLB_demand_mshr_merge 20891
Core_0_DTLB_demand_fill 117741
Core_0_DTLB_demand_miss_rate 0.00766252
Core_0_DTLB_demand_mpki 1.38632
Core_0_DTLB_vberti_prefetch_access 0
Core_0_DTLB_vberti_prefetch_hit 0
Core_0_DTLB_vberti_prefetch_miss 0
Core_0_DTLB_vberti_prefetch_mshr_merge 0
Core_0_DTLB_vberti_prefetch_fill 0
Core_0_DTLB_vberti_prefetch_miss_rate 0
Core_0_DTLB_vberti_prefetch_mpki 0

=== DTLB_vBerti Same/Cross-page Prefetch Stats ===
Core_0_DTLB_vberti_same_page_prefetch 0
Core_0_DTLB_vberti_same_page_prefetch_hit 0
Core_0_DTLB_vberti_same_page_prefetch_miss 0
Core_0_DTLB_vberti_same_page_prefetch_mshr_merge 0
Core_0_DTLB_vberti_same_page_prefetch_fill 0
Core_0_DTLB_vberti_same_page_prefetch_miss_rate 0
Core_0_DTLB_vberti_same_page_prefetch_mpki 0
Core_0_DTLB_vberti_cross_page_prefetch 0
Core_0_DTLB_vberti_cross_page_prefetch_hit 0
Core_0_DTLB_vberti_cross_page_prefetch_miss 0
Core_0_DTLB_vberti_cross_page_prefetch_mshr_merge 0
Core_0_DTLB_vberti_cross_page_prefetch_fill 0
Core_0_DTLB_vberti_cross_page_prefetch_miss_rate 0
Core_0_DTLB_vberti_cross_page_prefetch_mpki 0
Core_0_DTLB_same_page_prefetch_miss_rate 0
Core_0_DTLB_same_page_prefetch_mpki 0
Core_0_DTLB_cross_page_prefetch_miss_rate 0
Core_0_DTLB_cross_page_prefetch_mpki 0
Core_0_DTLB_cross_page_prefetch_issued 0
Core_0_DTLB_cross_page_prefetch_lookups 0
Core_0_DTLB_cross_page_prefetch_useful 0
Core_0_DTLB_cross_page_prefetch_useless 0
Core_0_DTLB_cross_page_prefetch_late 0
Core_0_DTLB_cross_page_prefetch_accuracy 0
Core_0_DTLB_cross_page_prefetch_coverage 0

========= STLB_vBerti Prefetch Stats =========
Core_0_STLB_demand_access 117741
Core_0_STLB_demand_hit 8144
Core_0_STLB_demand_miss 109597
Core_0_STLB_demand_mshr_merge 0
Core_0_STLB_demand_fill 109597
Core_0_STLB_demand_miss_rate 0.930831
Core_0_STLB_demand_mpki 1.09597
Core_0_STLB_vberti_prefetch_access 0
Core_0_STLB_vberti_prefetch_hit 0
Core_0_STLB_vberti_prefetch_miss 0
Core_0_STLB_vberti_prefetch_mshr_merge 0
Core_0_STLB_vberti_prefetch_fill 0
Core_0_STLB_vberti_prefetch_miss_rate 0
Core_0_STLB_vberti_prefetch_mpki 0

=== STLB_vBerti Same/Cross-page Prefetch Stats ===
Core_0_STLB_vberti_same_page_prefetch 0
Core_0_STLB_vberti_same_page_prefetch_hit 0
Core_0_STLB_vberti_same_page_prefetch_miss 0
Core_0_STLB_vberti_same_page_prefetch_mshr_merge 0
Core_0_STLB_vberti_same_page_prefetch_fill 0
Core_0_STLB_vberti_same_page_prefetch_miss_rate 0
Core_0_STLB_vberti_same_page_prefetch_mpki 0
Core_0_STLB_vberti_cross_page_prefetch 0
Core_0_STLB_vberti_cross_page_prefetch_hit 0
Core_0_STLB_vberti_cross_page_prefetch_miss 0
Core_0_STLB_vberti_cross_page_prefetch_mshr_merge 0
Core_0_STLB_vberti_cross_page_prefetch_fill 0
Core_0_STLB_vberti_cross_page_prefetch_miss_rate 0
Core_0_STLB_vberti_cross_page_prefetch_mpki 0
Core_0_STLB_same_page_prefetch_miss_rate 0
Core_0_STLB_same_page_prefetch_mpki 0
Core_0_STLB_cross_page_prefetch_miss_rate 0
Core_0_STLB_cross_page_prefetch_mpki 0
Core_0_STLB_cross_page_prefetch_issued 0
Core_0_STLB_cross_page_prefetch_lookups 0
Core_0_STLB_cross_page_prefetch_useful 0
Core_0_STLB_cross_page_prefetch_useless 0
Core_0_STLB_cross_page_prefetch_late 0
Core_0_STLB_cross_page_prefetch_accuracy 0
Core_0_STLB_cross_page_prefetch_coverage 0

Core_0_TLB_demand_miss_rate 0.00605768
Core_0_TLB_demand_mpki 1.09597
Core_0_TLB_same_page_prefetch_miss_rate 0
Core_0_TLB_same_page_prefetch_mpki 0
Core_0_TLB_cross_page_prefetch_miss_rate 0
Core_0_TLB_cross_page_prefetch_mpki 0
Core_0_TLB_cross_page_prefetch_issued 0
Core_0_TLB_cross_page_prefetch_lookups 0
Core_0_TLB_cross_page_prefetch_useful 0
Core_0_TLB_cross_page_prefetch_useless 0
Core_0_TLB_cross_page_prefetch_late 0
Core_0_TLB_cross_page_prefetch_accuracy 0
Core_0_TLB_cross_page_prefetch_coverage 0
