[VMEM] WARNING: physical memory size is smaller than virtual memory size.

*** ChampSim Multicore Out-of-Order Simulator ***
Warmup Instructions: 50000000
Simulation Instructions: 100000000
Number of CPUs: 1
Page size: 4096
Core 0: /data2/zcq/champsim_traces_gap/cc.web-101B.champsimtrace.xz
Off-chip DRAM Size: 16 GiB Channels: 1 Width: 64-bit Data Rate: 3205 MT/s
Warmup halting CPU 0 at instruction 50000004 cycle 18090239 for remainder of phase
Warmup finished CPU 0 instructions: 50000004 cycles: 18090239 cumulative IPC: 2.764 (Simulation time: 00 hr 03 min 14 sec)
Warmup complete CPU 0 instructions: 50000004 cycles: 18090239 cumulative IPC: 2.764 (Simulation time: 00 hr 03 min 14 sec)
Simulation finished CPU 0 instructions: 100000000 cycles: 245511016 cumulative IPC: 0.4073 (Simulation time: 00 hr 22 min 15 sec)
Simulation complete CPU 0 instructions: 100000000 cycles: 245511016 cumulative IPC: 0.4073 (Simulation time: 00 hr 22 min 15 sec)

ChampSim completed all CPUs

=== Simulation ===
CPU 0 runs /data2/zcq/champsim_traces_gap/cc.web-101B.champsimtrace.xz

Region of Interest Statistics

CPU 0 cumulative IPC: 0.4073 instructions: 100000000 cycles: 245511016
CPU 0 Branch Prediction Accuracy: 94.38% MPKI: 9.172 Average ROB Occupancy at Mispredict: 46.06
Branch type MPKI
BRANCH_DIRECT_JUMP: 0
BRANCH_INDIRECT: 0
BRANCH_CONDITIONAL: 9.172
BRANCH_DIRECT_CALL: 0
BRANCH_INDIRECT_CALL: 0
BRANCH_RETURN: 0

cpu0->cpu0_STLB TOTAL        ACCESS:     168799 HIT:      35084 MISS:     133715 MSHR_MERGE:          0
cpu0->cpu0_STLB LOAD         ACCESS:     168799 HIT:      35084 MISS:     133715 MSHR_MERGE:          0
cpu0->cpu0_STLB RFO          ACCESS:          0 HIT:          0 MISS:          0 MSHR_MERGE:          0
cpu0->cpu0_STLB PREFETCH     ACCESS:          0 HIT:          0 MISS:          0 MSHR_MERGE:          0
cpu0->cpu0_STLB WRITE        ACCESS:          0 HIT:          0 MISS:          0 MSHR_MERGE:          0
cpu0->cpu0_STLB TRANSLATION  ACCESS:          0 HIT:          0 MISS:          0 MSHR_MERGE:          0
cpu0->cpu0_STLB PREFETCH REQUESTED:          0 ISSUED:          0 USEFUL:          0 USELESS:          0 LATE:          0
cpu0->cpu0_STLB AVERAGE MISS LATENCY: 239 cycles
cpu0->cpu0_L2C TOTAL        ACCESS:    7074735 HIT:    2217496 MISS:    4857239 MSHR_MERGE:    1251939
cpu0->cpu0_L2C LOAD         ACCESS:    3131297 HIT:    1023109 MISS:    2108188 MSHR_MERGE:     353119
cpu0->cpu0_L2C RFO          ACCESS:          0 HIT:          0 MISS:          0 MSHR_MERGE:          0
cpu0->cpu0_L2C PREFETCH     ACCESS:    3868574 HIT:    1145588 MISS:    2722986 MSHR_MERGE:     898820
cpu0->cpu0_L2C WRITE        ACCESS:      44589 HIT:      44418 MISS:        171 MSHR_MERGE:          0
cpu0->cpu0_L2C TRANSLATION  ACCESS:      30275 HIT:       4381 MISS:      25894 MSHR_MERGE:          0
cpu0->cpu0_L2C PREFETCH REQUESTED:    3868574 ISSUED:    3868574 USEFUL:    1246397 USELESS:     567980 LATE:     353119
cpu0->cpu0_L2C AVERAGE MISS LATENCY: 199.2 cycles
cpu0->cpu0_L1I TOTAL        ACCESS:    7038507 HIT:    7038507 MISS:          0 MSHR_MERGE:          0
cpu0->cpu0_L1I LOAD         ACCESS:    7038507 HIT:    7038507 MISS:          0 MSHR_MERGE:          0
cpu0->cpu0_L1I RFO          ACCESS:          0 HIT:          0 MISS:          0 MSHR_MERGE:          0
cpu0->cpu0_L1I PREFETCH     ACCESS:          0 HIT:          0 MISS:          0 MSHR_MERGE:          0
cpu0->cpu0_L1I WRITE        ACCESS:          0 HIT:          0 MISS:          0 MSHR_MERGE:          0
cpu0->cpu0_L1I TRANSLATION  ACCESS:          0 HIT:          0 MISS:          0 MSHR_MERGE:          0
cpu0->cpu0_L1I PREFETCH REQUESTED:          0 ISSUED:          0 USEFUL:          0 USELESS:          0 LATE:          0
cpu0->cpu0_L1I AVERAGE MISS LATENCY: - cycles
cpu0->cpu0_L1D TOTAL        ACCESS:   25569067 HIT:   21817533 MISS:    3751534 MSHR_MERGE:     589962
cpu0->cpu0_L1D LOAD         ACCESS:   25209282 HIT:   21488942 MISS:    3720340 MSHR_MERGE:     589043
cpu0->cpu0_L1D RFO          ACCESS:          0 HIT:          0 MISS:          0 MSHR_MERGE:          0
cpu0->cpu0_L1D PREFETCH     ACCESS:          0 HIT:          0 MISS:          0 MSHR_MERGE:          0
cpu0->cpu0_L1D WRITE        ACCESS:      90224 HIT:      90224 MISS:          0 MSHR_MERGE:          0
cpu0->cpu0_L1D TRANSLATION  ACCESS:     269561 HIT:     238367 MISS:      31194 MSHR_MERGE:        919
cpu0->cpu0_L1D PREFETCH REQUESTED:          0 ISSUED:          0 USEFUL:          0 USELESS:          0 LATE:          0
cpu0->cpu0_L1D AVERAGE MISS LATENCY: 143.3 cycles
cpu0->cpu0_ITLB TOTAL        ACCESS:    5847283 HIT:    5847283 MISS:          0 MSHR_MERGE:          0
cpu0->cpu0_ITLB LOAD         ACCESS:    5847283 HIT:    5847283 MISS:          0 MSHR_MERGE:          0
cpu0->cpu0_ITLB RFO          ACCESS:          0 HIT:          0 MISS:          0 MSHR_MERGE:          0
cpu0->cpu0_ITLB PREFETCH     ACCESS:          0 HIT:          0 MISS:          0 MSHR_MERGE:          0
cpu0->cpu0_ITLB WRITE        ACCESS:          0 HIT:          0 MISS:          0 MSHR_MERGE:          0
cpu0->cpu0_ITLB TRANSLATION  ACCESS:          0 HIT:          0 MISS:          0 MSHR_MERGE:          0
cpu0->cpu0_ITLB PREFETCH REQUESTED:          0 ISSUED:          0 USEFUL:          0 USELESS:          0 LATE:          0
cpu0->cpu0_ITLB AVERAGE MISS LATENCY: - cycles
cpu0->cpu0_DTLB TOTAL        ACCESS:   25296328 HIT:   24762733 MISS:     533595 MSHR_MERGE:     364796
cpu0->cpu0_DTLB LOAD         ACCESS:   25296328 HIT:   24762733 MISS:     533595 MSHR_MERGE:     364796
cpu0->cpu0_DTLB RFO          ACCESS:          0 HIT:          0 MISS:          0 MSHR_MERGE:          0
cpu0->cpu0_DTLB PREFETCH     ACCESS:          0 HIT:          0 MISS:          0 MSHR_MERGE:          0
cpu0->cpu0_DTLB WRITE        ACCESS:          0 HIT:          0 MISS:          0 MSHR_MERGE:          0
cpu0->cpu0_DTLB TRANSLATION  ACCESS:          0 HIT:          0 MISS:          0 MSHR_MERGE:          0
cpu0->cpu0_DTLB PREFETCH REQUESTED:          0 ISSUED:          0 USEFUL:          0 USELESS:          0 LATE:          0
cpu0->cpu0_DTLB AVERAGE MISS LATENCY: 195.1 cycles
cpu0->LLC TOTAL        ACCESS:    3647099 HIT:      71322 MISS:    3575777 MSHR_MERGE:       4475
cpu0->LLC LOAD         ACCESS:    1755069 HIT:      32883 MISS:    1722186 MSHR_MERGE:       1234
cpu0->LLC RFO          ACCESS:          0 HIT:          0 MISS:          0 MSHR_MERGE:          0
cpu0->LLC PREFETCH     ACCESS:    1824166 HIT:       2567 MISS:    1821599 MSHR_MERGE:       3241
cpu0->LLC WRITE        ACCESS:      41970 HIT:      33279 MISS:       8691 MSHR_MERGE:          0
cpu0->LLC TRANSLATION  ACCESS:      25894 HIT:       2593 MISS:      23301 MSHR_MERGE:          0
cpu0->LLC PREFETCH REQUESTED:          0 ISSUED:          0 USEFUL:          0 USELESS:          0 LATE:          0
cpu0->LLC AVERAGE MISS LATENCY: 196.9 cycles

DRAM Statistics

Channel 0 RQ ROW_BUFFER_HIT:     569223
  ROW_BUFFER_MISS:    2993383
  AVG DBUS CONGESTED CYCLE: 8.451
Channel 0 WQ ROW_BUFFER_HIT:      11942
  ROW_BUFFER_MISS:      28803
  FULL:          0
Channel 0 REFRESHES ISSUED:      20459

[ROI Statistics]
[System Configuration]
num_cpus 1
cpu_freq 4000
fetch_width 6
decode_width 6
dispatch_width 6
execute_width 6
lq_width 2
sq_width 2
retire_width 6
scheduler_size 128
branch_mispredict_penalty 15
rob_size 352
lq_size 128
sq_size 72
ifetch_buffer_size 64
decode_buffer_size 32
dispatch_buffer_size 32
register_file_size 288
decode_latency 1
dispatch_latency 1
schedule_latency 1
execute_latency 1
page_size 4096
block_size 64
core_0_itlb_set 16
core_0_itlb_way 4
core_0_itlb_rq_size 16
core_0_itlb_wq_size 16
core_0_itlb_pq_size 0
core_0_itlb_mshr_size 8
core_0_itlb_hit_latency 1
core_0_itlb_fill_latency 1
core_0_itlb_max_tag_check 2
core_0_itlb_max_fill 2
core_0_dtlb_set 16
core_0_dtlb_way 4
core_0_dtlb_rq_size 16
core_0_dtlb_wq_size 16
core_0_dtlb_pq_size 0
core_0_dtlb_mshr_size 8
core_0_dtlb_hit_latency 1
core_0_dtlb_fill_latency 1
core_0_dtlb_max_tag_check 2
core_0_dtlb_max_fill 2
core_0_stlb_set 128
core_0_stlb_way 12
core_0_stlb_rq_size 32
core_0_stlb_wq_size 32
core_0_stlb_pq_size 0
core_0_stlb_mshr_size 16
core_0_stlb_hit_latency 4
core_0_stlb_fill_latency 4
core_0_stlb_max_tag_check 1
core_0_stlb_max_fill 1
core_0_l1i_set 64
core_0_l1i_way 8
core_0_l1i_rq_size 64
core_0_l1i_wq_size 64
core_0_l1i_pq_size 32
core_0_l1i_mshr_size 8
core_0_l1i_hit_latency 2
core_0_l1i_fill_latency 2
core_0_l1i_max_tag_check 2
core_0_l1i_max_fill 2
core_0_l1d_set 64
core_0_l1d_way 12
core_0_l1d_rq_size 64
core_0_l1d_wq_size 64
core_0_l1d_pq_size 8
core_0_l1d_mshr_size 16
core_0_l1d_hit_latency 2
core_0_l1d_fill_latency 3
core_0_l1d_max_tag_check 2
core_0_l1d_max_fill 2
core_0_l2c_set 1024
core_0_l2c_way 8
core_0_l2c_rq_size 32
core_0_l2c_wq_size 32
core_0_l2c_pq_size 16
core_0_l2c_mshr_size 32
core_0_l2c_hit_latency 5
core_0_l2c_fill_latency 5
core_0_l2c_max_tag_check 1
core_0_l2c_max_fill 1
llc_set 2048
llc_way 16
llc_rq_size 32
llc_wq_size 32
llc_pq_size 32
llc_mshr_size 64
llc_hit_latency 10
llc_fill_latency 10
llc_max_tag_check 1
llc_max_fill 1
dram_channels 1
dram_ranks 1
dram_bankgroups 8
dram_banks 4
dram_rows 65536
dram_columns 1024
dram_channel_width 8
dram_rq_size 64
dram_wq_size 64
dram_size 17179869184
core_0_itlb_prefetcher no
core_0_dtlb_prefetcher no
core_0_stlb_prefetcher no
core_0_l1i_prefetcher next_line
core_0_l1d_prefetcher no
core_0_l2c_prefetcher ip_stride
llc_prefetcher no
llc_replacement drrip

Core_0_instructions 100000000
Core_0_cycles 245511016
Core_0_IPC 0.407314
Core_0_branch_prediction_accuracy 94.385
Core_0_branch_MPKI 9.17233
Core_0_average_ROB_occupancy_at_mispredict 46.0631

Core_0_ITLB_total_access 5847283
Core_0_ITLB_total_hit 5847283
Core_0_ITLB_total_miss 0
Core_0_ITLB_total_MPKI 0
Core_0_ITLB_total_miss_rate 0
Core_0_ITLB_demand_access 5847283
Core_0_ITLB_demand_hit 5847283
Core_0_ITLB_demand_miss 0
Core_0_ITLB_demand_MPKI 0
Core_0_ITLB_demand_miss_rate 0
Core_0_ITLB_load_access 5847283
Core_0_ITLB_load_hit 5847283
Core_0_ITLB_load_miss 0
Core_0_ITLB_load_MPKI 0
Core_0_ITLB_load_miss_rate 0
Core_0_ITLB_rfo_access 0
Core_0_ITLB_rfo_hit 0
Core_0_ITLB_rfo_miss 0
Core_0_ITLB_rfo_MPKI 0
Core_0_ITLB_rfo_miss_rate 0
Core_0_ITLB_prefetch_access 0
Core_0_ITLB_prefetch_hit 0
Core_0_ITLB_prefetch_miss 0
Core_0_ITLB_prefetch_MPKI 0
Core_0_ITLB_prefetch_miss_rate 0
Core_0_ITLB_writeback_access 0
Core_0_ITLB_writeback_hit 0
Core_0_ITLB_writeback_miss 0
Core_0_ITLB_writeback_MPKI 0
Core_0_ITLB_writeback_miss_rate 0
Core_0_ITLB_prefetch_requested 0
Core_0_ITLB_prefetch_issued 0
Core_0_ITLB_prefetch_useful 0
Core_0_ITLB_prefetch_useless 0
Core_0_ITLB_prefetch_late 0
Core_0_ITLB_prefetch_fill 0
Core_0_ITLB_prefetch_accuracy 0
Core_0_ITLB_prefetch_coverage 0

Core_0_DTLB_total_access 25296328
Core_0_DTLB_total_hit 24762733
Core_0_DTLB_total_miss 533595
Core_0_DTLB_total_MPKI 5.33595
Core_0_DTLB_total_miss_rate 0.0210938
Core_0_DTLB_demand_access 25296328
Core_0_DTLB_demand_hit 24762733
Core_0_DTLB_demand_miss 533595
Core_0_DTLB_demand_MPKI 5.33595
Core_0_DTLB_demand_miss_rate 0.0210938
Core_0_DTLB_load_access 25296328
Core_0_DTLB_load_hit 24762733
Core_0_DTLB_load_miss 533595
Core_0_DTLB_load_MPKI 5.33595
Core_0_DTLB_load_miss_rate 0.0210938
Core_0_DTLB_rfo_access 0
Core_0_DTLB_rfo_hit 0
Core_0_DTLB_rfo_miss 0
Core_0_DTLB_rfo_MPKI 0
Core_0_DTLB_rfo_miss_rate 0
Core_0_DTLB_prefetch_access 0
Core_0_DTLB_prefetch_hit 0
Core_0_DTLB_prefetch_miss 0
Core_0_DTLB_prefetch_MPKI 0
Core_0_DTLB_prefetch_miss_rate 0
Core_0_DTLB_writeback_access 0
Core_0_DTLB_writeback_hit 0
Core_0_DTLB_writeback_miss 0
Core_0_DTLB_writeback_MPKI 0
Core_0_DTLB_writeback_miss_rate 0
Core_0_DTLB_prefetch_requested 0
Core_0_DTLB_prefetch_issued 0
Core_0_DTLB_prefetch_useful 0
Core_0_DTLB_prefetch_useless 0
Core_0_DTLB_prefetch_late 0
Core_0_DTLB_prefetch_fill 0
Core_0_DTLB_prefetch_accuracy 0
Core_0_DTLB_prefetch_coverage 0

Core_0_STLB_total_access 168799
Core_0_STLB_total_hit 35084
Core_0_STLB_total_miss 133715
Core_0_STLB_total_MPKI 1.33715
Core_0_STLB_total_miss_rate 0.792155
Core_0_STLB_demand_access 168799
Core_0_STLB_demand_hit 35084
Core_0_STLB_demand_miss 133715
Core_0_STLB_demand_MPKI 1.33715
Core_0_STLB_demand_miss_rate 0.792155
Core_0_STLB_load_access 168799
Core_0_STLB_load_hit 35084
Core_0_STLB_load_miss 133715
Core_0_STLB_load_MPKI 1.33715
Core_0_STLB_load_miss_rate 0.792155
Core_0_STLB_rfo_access 0
Core_0_STLB_rfo_hit 0
Core_0_STLB_rfo_miss 0
Core_0_STLB_rfo_MPKI 0
Core_0_STLB_rfo_miss_rate 0
Core_0_STLB_prefetch_access 0
Core_0_STLB_prefetch_hit 0
Core_0_STLB_prefetch_miss 0
Core_0_STLB_prefetch_MPKI 0
Core_0_STLB_prefetch_miss_rate 0
Core_0_STLB_writeback_access 0
Core_0_STLB_writeback_hit 0
Core_0_STLB_writeback_miss 0
Core_0_STLB_writeback_MPKI 0
Core_0_STLB_writeback_miss_rate 0
Core_0_STLB_prefetch_requested 0
Core_0_STLB_prefetch_issued 0
Core_0_STLB_prefetch_useful 0
Core_0_STLB_prefetch_useless 0
Core_0_STLB_prefetch_late 0
Core_0_STLB_prefetch_fill 0
Core_0_STLB_prefetch_accuracy 0
Core_0_STLB_prefetch_coverage 0

Core_0_L1I_total_access 7038507
Core_0_L1I_total_hit 7038507
Core_0_L1I_total_miss 0
Core_0_L1I_total_MPKI 0
Core_0_L1I_total_miss_rate 0
Core_0_L1I_demand_access 7038507
Core_0_L1I_demand_hit 7038507
Core_0_L1I_demand_miss 0
Core_0_L1I_demand_MPKI 0
Core_0_L1I_demand_miss_rate 0
Core_0_L1I_load_access 7038507
Core_0_L1I_load_hit 7038507
Core_0_L1I_load_miss 0
Core_0_L1I_load_MPKI 0
Core_0_L1I_load_miss_rate 0
Core_0_L1I_rfo_access 0
Core_0_L1I_rfo_hit 0
Core_0_L1I_rfo_miss 0
Core_0_L1I_rfo_MPKI 0
Core_0_L1I_rfo_miss_rate 0
Core_0_L1I_prefetch_access 0
Core_0_L1I_prefetch_hit 0
Core_0_L1I_prefetch_miss 0
Core_0_L1I_prefetch_MPKI 0
Core_0_L1I_prefetch_miss_rate 0
Core_0_L1I_writeback_access 0
Core_0_L1I_writeback_hit 0
Core_0_L1I_writeback_miss 0
Core_0_L1I_writeback_MPKI 0
Core_0_L1I_writeback_miss_rate 0
Core_0_L1I_prefetch_requested 0
Core_0_L1I_prefetch_issued 0
Core_0_L1I_prefetch_useful 0
Core_0_L1I_prefetch_useless 0
Core_0_L1I_prefetch_late 0
Core_0_L1I_prefetch_fill 0
Core_0_L1I_prefetch_accuracy 0
Core_0_L1I_prefetch_coverage 0

Core_0_L1D_total_access 25299506
Core_0_L1D_total_hit 21579166
Core_0_L1D_total_miss 3720340
Core_0_L1D_total_MPKI 37.2034
Core_0_L1D_total_miss_rate 0.147052
Core_0_L1D_demand_access 25209282
Core_0_L1D_demand_hit 21488942
Core_0_L1D_demand_miss 3720340
Core_0_L1D_demand_MPKI 37.2034
Core_0_L1D_demand_miss_rate 0.147578
Core_0_L1D_load_access 25209282
Core_0_L1D_load_hit 21488942
Core_0_L1D_load_miss 3720340
Core_0_L1D_load_MPKI 37.2034
Core_0_L1D_load_miss_rate 0.147578
Core_0_L1D_rfo_access 0
Core_0_L1D_rfo_hit 0
Core_0_L1D_rfo_miss 0
Core_0_L1D_rfo_MPKI 0
Core_0_L1D_rfo_miss_rate 0
Core_0_L1D_prefetch_access 0
Core_0_L1D_prefetch_hit 0
Core_0_L1D_prefetch_miss 0
Core_0_L1D_prefetch_MPKI 0
Core_0_L1D_prefetch_miss_rate 0
Core_0_L1D_writeback_access 90224
Core_0_L1D_writeback_hit 90224
Core_0_L1D_writeback_miss 0
Core_0_L1D_writeback_MPKI 0
Core_0_L1D_writeback_miss_rate 0
Core_0_L1D_prefetch_requested 0
Core_0_L1D_prefetch_issued 0
Core_0_L1D_prefetch_useful 0
Core_0_L1D_prefetch_useless 0
Core_0_L1D_prefetch_late 0
Core_0_L1D_prefetch_fill 0
Core_0_L1D_prefetch_accuracy 0
Core_0_L1D_prefetch_coverage 0

Core_0_L2C_total_access 7044460
Core_0_L2C_total_hit 2213115
Core_0_L2C_total_miss 4831345
Core_0_L2C_total_MPKI 48.3135
Core_0_L2C_total_miss_rate 0.685836
Core_0_L2C_demand_access 3131297
Core_0_L2C_demand_hit 1023109
Core_0_L2C_demand_miss 2108188
Core_0_L2C_demand_MPKI 21.0819
Core_0_L2C_demand_miss_rate 0.673264
Core_0_L2C_load_access 3131297
Core_0_L2C_load_hit 1023109
Core_0_L2C_load_miss 2108188
Core_0_L2C_load_MPKI 21.0819
Core_0_L2C_load_miss_rate 0.673264
Core_0_L2C_rfo_access 0
Core_0_L2C_rfo_hit 0
Core_0_L2C_rfo_miss 0
Core_0_L2C_rfo_MPKI 0
Core_0_L2C_rfo_miss_rate 0
Core_0_L2C_prefetch_access 3868574
Core_0_L2C_prefetch_hit 1145588
Core_0_L2C_prefetch_miss 2722986
Core_0_L2C_prefetch_MPKI 27.2299
Core_0_L2C_prefetch_miss_rate 0.703873
Core_0_L2C_writeback_access 44589
Core_0_L2C_writeback_hit 44418
Core_0_L2C_writeback_miss 171
Core_0_L2C_writeback_MPKI 0.00171
Core_0_L2C_writeback_miss_rate 0.00383503
Core_0_L2C_prefetch_requested 3868574
Core_0_L2C_prefetch_issued 3868574
Core_0_L2C_prefetch_useful 1246397
Core_0_L2C_prefetch_useless 567980
Core_0_L2C_prefetch_late 353119
Core_0_L2C_prefetch_fill 1460707
Core_0_L2C_prefetch_accuracy 0.322185
Core_0_L2C_prefetch_coverage 0.37155

Core_0_LLC_total_access 3621205
Core_0_LLC_total_hit 68729
Core_0_LLC_total_miss 3552476
Core_0_LLC_total_MPKI 35.5248
Core_0_LLC_total_miss_rate 0.98102
Core_0_LLC_demand_access 1755069
Core_0_LLC_demand_hit 32883
Core_0_LLC_demand_miss 1722186
Core_0_LLC_demand_MPKI 17.2219
Core_0_LLC_demand_miss_rate 0.981264
Core_0_LLC_load_access 1755069
Core_0_LLC_load_hit 32883
Core_0_LLC_load_miss 1722186
Core_0_LLC_load_MPKI 17.2219
Core_0_LLC_load_miss_rate 0.981264
Core_0_LLC_rfo_access 0
Core_0_LLC_rfo_hit 0
Core_0_LLC_rfo_miss 0
Core_0_LLC_rfo_MPKI 0
Core_0_LLC_rfo_miss_rate 0
Core_0_LLC_prefetch_access 1824166
Core_0_LLC_prefetch_hit 2567
Core_0_LLC_prefetch_miss 1821599
Core_0_LLC_prefetch_MPKI 18.216
Core_0_LLC_prefetch_miss_rate 0.998593
Core_0_LLC_writeback_access 41970
Core_0_LLC_writeback_hit 33279
Core_0_LLC_writeback_miss 8691
Core_0_LLC_writeback_MPKI 0.08691
Core_0_LLC_writeback_miss_rate 0.207076
Core_0_LLC_prefetch_requested 0
Core_0_LLC_prefetch_issued 0
Core_0_LLC_prefetch_useful 0
Core_0_LLC_prefetch_useless 0
Core_0_LLC_prefetch_late 0
Core_0_LLC_prefetch_fill 1817121
Core_0_LLC_prefetch_accuracy 0
Core_0_LLC_prefetch_coverage 0

[DRAM Statistics]
Channel_0_RQ_row_buffer_hit 569223
Channel_0_RQ_row_buffer_miss 2993383
Channel_0_WQ_row_buffer_hit 11942
Channel_0_WQ_row_buffer_miss 28803
Channel_0_WQ_full 0
Channel_0_dbus_congested 6906512
DRAM_total_RQ_row_buffer_hit 569223
DRAM_total_RQ_row_buffer_miss 2993383
DRAM_total_WQ_row_buffer_hit 11942
DRAM_total_WQ_row_buffer_miss 28803
DRAM_total_WQ_full 0
DRAM_total_dbus_congested 6906512
DRAM_avg_congested_cycle 8.4511

====== DRAM_RQ_TRAFFIC ========
DRAM_RQ_READ_TRAFFIC_BREAKDOWN:
data_demand_read.count = 1720952
data_demand_read.share = 48.31%

inst_demand_read.count = 0
inst_demand_read.share = 0.00%

cache_inst_prefetch.count = 0
cache_inst_prefetch.share = 0.00%

cache_data_prefetch.count = 1818358
cache_data_prefetch.share = 51.04%

stlb_data_demand.count = 23301
stlb_data_demand.share = 0.65%

stlb_inst_demand.count = 0
stlb_inst_demand.share = 0.00%

stlb_l1i_pref.count = 0
stlb_l1i_pref.share = 0.00%

stlb_l1d_pref.count = 0
stlb_l1d_pref.share = 0.00%

DRAM_RQ_READ_TRAFFIC_SUMMARY:
cache_demand.count = 1720952
cache_demand.share = 48.31%

cache_prefetch.count = 1818358
cache_prefetch.share = 51.04%

stlb_demand.count = 23301
stlb_demand.share = 0.65%

stlb_prefetch.count = 0
stlb_prefetch.share = 0.00%

DRAM_RQ_READ_TRAFFIC_DEBUG:
total_classified_read.count = 3562611
unclassified_read.count = 0
total_read_with_other.count = 3562611

classified_plus_unclassified_check.count = 3562611
dram_rq_read_total_observed.count = 3562611
dram_rq_read_total_observed.per_1K_instructions = 35.6261

STLB_MISS_PTW_DRAM_TOUCH_BREAKDOWN:
stlb_miss_total.count = 133715

stlb_miss_touch_dram.count = 23074
stlb_miss_touch_dram.share = 17.26%

stlb_miss_no_dram_touch.count = 110641
stlb_miss_no_dram_touch.share = 82.74%

STLB_MISS_PTW_DRAM_TOUCH_DEBUG:
stlb_miss_touch_plus_no_touch.count = 133715
stlb_miss_total_check.count = 133715

======STLB miss causes ========
Core_0_STLB_miss_cause_breakdown
Core_0_STLB_cause_Demand_Data_miss 133715
Core_0_STLB_cause_Demand_Data_miss_rate 0.792155
Core_0_STLB_cause_Demand_Instruction_miss 0
Core_0_STLB_cause_Demand_Instruction_miss_rate 0
Core_0_STLB_cause_L1D_Prefetch_miss 0
Core_0_STLB_cause_L1D_Prefetch_miss_rate 0
Core_0_STLB_cause_L1D_Prefetch_Same_Page_miss 0
Core_0_STLB_cause_L1D_Prefetch_Same_Page_miss_rate 0
Core_0_STLB_cause_L1D_Prefetch_Cross_Page_miss 0
Core_0_STLB_cause_L1D_Prefetch_Cross_Page_miss_rate 0
Core_0_STLB_cause_L1I_Prefetch_miss 0
Core_0_STLB_cause_L1I_Prefetch_miss_rate 0
Core_0_STLB_cause_Other_miss 0
Core_0_STLB_cause_Other_miss_rate 0
Core_0_STLB_Demand_miss 133715
Core_0_STLB_Demand_miss_rate 0.792155
Core_0_STLB_L1D_Prefetch_miss 0
Core_0_STLB_L1D_Prefetch_miss_rate 0
Core_0_STLB_Other_miss 0
Core_0_STLB_Other_miss_rate 0

========== vBerti-TLB Cross-page Flow Stats ==========

Core_0_vBerti_Requested 0
Core_0_vBerti_Cross_page_prefetch_in_Requested 0
Core_0_vBerti_Same_page_prefetch_in_Requested 0
Core_0_vBerti_Cross_page_prefetch_of_Requested 0
Core_0_vBerti_Issued 0
Core_0_vBerti_PQ_Drop_Rate 0
Core_0_vBerti_InPQ_Cross_page_prefetch_of_Requested 0
Core_0_vBerti_Cross_page_PQ_Drop_rate 0
Core_0_vBerti_Cross_page_prefetch_of_Issued 0

========= DTLB_vBerti Prefetch Stats =========
Core_0_DTLB_demand_access 25296328
Core_0_DTLB_demand_hit 24762733
Core_0_DTLB_demand_miss 533595
Core_0_DTLB_demand_mshr_merge 364796
Core_0_DTLB_demand_fill 168799
Core_0_DTLB_demand_miss_rate 0.0210938
Core_0_DTLB_demand_mpki 5.33595
Core_0_DTLB_vberti_prefetch_access 0
Core_0_DTLB_vberti_prefetch_hit 0
Core_0_DTLB_vberti_prefetch_miss 0
Core_0_DTLB_vberti_prefetch_mshr_merge 0
Core_0_DTLB_vberti_prefetch_fill 0
Core_0_DTLB_vberti_prefetch_miss_rate 0
Core_0_DTLB_vberti_prefetch_mpki 0

=== DTLB_vBerti Same/Cross-page Prefetch Stats ===
Core_0_DTLB_vberti_same_page_prefetch 0
Core_0_DTLB_vberti_same_page_prefetch_hit 0
Core_0_DTLB_vberti_same_page_prefetch_miss 0
Core_0_DTLB_vberti_same_page_prefetch_mshr_merge 0
Core_0_DTLB_vberti_same_page_prefetch_fill 0
Core_0_DTLB_vberti_same_page_prefetch_miss_rate 0
Core_0_DTLB_vberti_same_page_prefetch_mpki 0
Core_0_DTLB_vberti_cross_page_prefetch 0
Core_0_DTLB_vberti_cross_page_prefetch_hit 0
Core_0_DTLB_vberti_cross_page_prefetch_miss 0
Core_0_DTLB_vberti_cross_page_prefetch_mshr_merge 0
Core_0_DTLB_vberti_cross_page_prefetch_fill 0
Core_0_DTLB_vberti_cross_page_prefetch_miss_rate 0
Core_0_DTLB_vberti_cross_page_prefetch_mpki 0
Core_0_DTLB_same_page_prefetch_miss_rate 0
Core_0_DTLB_same_page_prefetch_mpki 0
Core_0_DTLB_cross_page_prefetch_miss_rate 0
Core_0_DTLB_cross_page_prefetch_mpki 0
Core_0_DTLB_cross_page_prefetch_issued 0
Core_0_DTLB_cross_page_prefetch_lookups 0
Core_0_DTLB_cross_page_prefetch_useful 0
Core_0_DTLB_cross_page_prefetch_useless 0
Core_0_DTLB_cross_page_prefetch_late 0
Core_0_DTLB_cross_page_prefetch_accuracy 0
Core_0_DTLB_cross_page_prefetch_coverage 0

========= STLB_vBerti Prefetch Stats =========
Core_0_STLB_demand_access 168799
Core_0_STLB_demand_hit 35084
Core_0_STLB_demand_miss 133715
Core_0_STLB_demand_mshr_merge 0
Core_0_STLB_demand_fill 133715
Core_0_STLB_demand_miss_rate 0.792155
Core_0_STLB_demand_mpki 1.33715
Core_0_STLB_vberti_prefetch_access 0
Core_0_STLB_vberti_prefetch_hit 0
Core_0_STLB_vberti_prefetch_miss 0
Core_0_STLB_vberti_prefetch_mshr_merge 0
Core_0_STLB_vberti_prefetch_fill 0
Core_0_STLB_vberti_prefetch_miss_rate 0
Core_0_STLB_vberti_prefetch_mpki 0

=== STLB_vBerti Same/Cross-page Prefetch Stats ===
Core_0_STLB_vberti_same_page_prefetch 0
Core_0_STLB_vberti_same_page_prefetch_hit 0
Core_0_STLB_vberti_same_page_prefetch_miss 0
Core_0_STLB_vberti_same_page_prefetch_mshr_merge 0
Core_0_STLB_vberti_same_page_prefetch_fill 0
Core_0_STLB_vberti_same_page_prefetch_miss_rate 0
Core_0_STLB_vberti_same_page_prefetch_mpki 0
Core_0_STLB_vberti_cross_page_prefetch 0
Core_0_STLB_vberti_cross_page_prefetch_hit 0
Core_0_STLB_vberti_cross_page_prefetch_miss 0
Core_0_STLB_vberti_cross_page_prefetch_mshr_merge 0
Core_0_STLB_vberti_cross_page_prefetch_fill 0
Core_0_STLB_vberti_cross_page_prefetch_miss_rate 0
Core_0_STLB_vberti_cross_page_prefetch_mpki 0
Core_0_STLB_same_page_prefetch_miss_rate 0
Core_0_STLB_same_page_prefetch_mpki 0
Core_0_STLB_cross_page_prefetch_miss_rate 0
Core_0_STLB_cross_page_prefetch_mpki 0
Core_0_STLB_cross_page_prefetch_issued 0
Core_0_STLB_cross_page_prefetch_lookups 0
Core_0_STLB_cross_page_prefetch_useful 0
Core_0_STLB_cross_page_prefetch_useless 0
Core_0_STLB_cross_page_prefetch_late 0
Core_0_STLB_cross_page_prefetch_accuracy 0
Core_0_STLB_cross_page_prefetch_coverage 0

Core_0_TLB_demand_miss_rate 0.00528595
Core_0_TLB_demand_mpki 1.33715
Core_0_TLB_same_page_prefetch_miss_rate 0
Core_0_TLB_same_page_prefetch_mpki 0
Core_0_TLB_cross_page_prefetch_miss_rate 0
Core_0_TLB_cross_page_prefetch_mpki 0
Core_0_TLB_cross_page_prefetch_issued 0
Core_0_TLB_cross_page_prefetch_lookups 0
Core_0_TLB_cross_page_prefetch_useful 0
Core_0_TLB_cross_page_prefetch_useless 0
Core_0_TLB_cross_page_prefetch_late 0
Core_0_TLB_cross_page_prefetch_accuracy 0
Core_0_TLB_cross_page_prefetch_coverage 0
