[VMEM] WARNING: physical memory size is smaller than virtual memory size.

*** ChampSim Multicore Out-of-Order Simulator ***
Warmup Instructions: 50000000
Simulation Instructions: 100000000
Number of CPUs: 1
Page size: 4096
Core 0: /data2/zcq/champsim_traces_gap/pr.twitter-3197B.champsimtrace.xz
Off-chip DRAM Size: 16 GiB Channels: 1 Width: 64-bit Data Rate: 3205 MT/s
Warmup halting CPU 0 at instruction 50000004 cycle 22789090 for remainder of phase
Warmup finished CPU 0 instructions: 50000004 cycles: 22789090 cumulative IPC: 2.194 (Simulation time: 00 hr 05 min 42 sec)
Warmup complete CPU 0 instructions: 50000004 cycles: 22789090 cumulative IPC: 2.194 (Simulation time: 00 hr 05 min 42 sec)
Simulation CPU 0 warning: IPC 0.031711 < 0.05
Simulation CPU 0 warning: IPC 0.032729 < 0.05
Simulation CPU 0 warning: IPC 0.034521 < 0.05
Simulation CPU 0 warning: IPC 0.033225 < 0.05
Simulation CPU 0 warning: IPC 0.034241 < 0.05
Simulation CPU 0 warning: IPC 0.029696 < 0.05
Simulation CPU 0 warning: IPC 0.027997 < 0.05
Simulation CPU 0 warning: IPC 0.032367 < 0.05
Simulation CPU 0 warning: IPC 0.032252 < 0.05
Simulation CPU 0 warning: IPC 0.032827 < 0.05
Simulation CPU 0 warning: IPC 0.032432 < 0.05
Simulation CPU 0 warning: IPC 0.027469 < 0.05
Simulation CPU 0 warning: IPC 0.029358 < 0.05
Simulation CPU 0 warning: IPC 0.028648 < 0.05
Simulation CPU 0 warning: IPC 0.029862 < 0.05
Simulation CPU 0 warning: IPC 0.028358 < 0.05
Simulation CPU 0 warning: IPC 0.026754 < 0.05
Simulation CPU 0 warning: IPC 0.029036 < 0.05
Simulation CPU 0 warning: IPC 0.028569 < 0.05
Simulation CPU 0 warning: IPC 0.031119 < 0.05
Simulation CPU 0 warning: IPC 0.02888 < 0.05
Simulation CPU 0 warning: IPC 0.030436 < 0.05
Simulation CPU 0 warning: IPC 0.0301 < 0.05
Simulation CPU 0 warning: IPC 0.029544 < 0.05
Simulation CPU 0 warning: IPC 0.028286 < 0.05
Simulation CPU 0 warning: IPC 0.030388 < 0.05
Simulation CPU 0 warning: IPC 0.033403 < 0.05
Simulation CPU 0 warning: IPC 0.029992 < 0.05
Simulation CPU 0 warning: IPC 0.026695 < 0.05
Simulation CPU 0 warning: IPC 0.03053 < 0.05
Simulation CPU 0 warning: IPC 0.030052 < 0.05
Simulation CPU 0 warning: IPC 0.031273 < 0.05
Simulation CPU 0 warning: IPC 0.028772 < 0.05
Simulation CPU 0 warning: IPC 0.026839 < 0.05
Simulation CPU 0 warning: IPC 0.030648 < 0.05
Simulation CPU 0 warning: IPC 0.030939 < 0.05
Simulation CPU 0 warning: IPC 0.031479 < 0.05
Simulation CPU 0 warning: IPC 0.033346 < 0.05
Simulation CPU 0 warning: IPC 0.030735 < 0.05
Simulation CPU 0 warning: IPC 0.037424 < 0.05
Simulation CPU 0 warning: IPC 0.03484 < 0.05
Simulation CPU 0 warning: IPC 0.032382 < 0.05
Simulation CPU 0 warning: IPC 0.032318 < 0.05
Simulation CPU 0 warning: IPC 0.033493 < 0.05
Simulation CPU 0 warning: IPC 0.032568 < 0.05
Simulation CPU 0 warning: IPC 0.030941 < 0.05
Simulation CPU 0 warning: IPC 0.031116 < 0.05
Simulation CPU 0 warning: IPC 0.030902 < 0.05
Simulation CPU 0 warning: IPC 0.03132 < 0.05
Simulation CPU 0 warning: IPC 0.030638 < 0.05
Simulation CPU 0 warning: IPC 0.030815 < 0.05
Simulation CPU 0 warning: IPC 0.03009 < 0.05
Simulation CPU 0 warning: IPC 0.030139 < 0.05
Simulation CPU 0 warning: IPC 0.030673 < 0.05
Simulation CPU 0 warning: IPC 0.032325 < 0.05
Simulation CPU 0 warning: IPC 0.030861 < 0.05
Simulation CPU 0 warning: IPC 0.029849 < 0.05
Simulation CPU 0 warning: IPC 0.033121 < 0.05
Simulation CPU 0 warning: IPC 0.030076 < 0.05
Simulation CPU 0 warning: IPC 0.03058 < 0.05
Simulation CPU 0 warning: IPC 0.029142 < 0.05
Simulation CPU 0 warning: IPC 0.033176 < 0.05
Simulation CPU 0 warning: IPC 0.034478 < 0.05
Simulation CPU 0 warning: IPC 0.03021 < 0.05
Simulation CPU 0 warning: IPC 0.031865 < 0.05
Simulation CPU 0 warning: IPC 0.029895 < 0.05
Simulation CPU 0 warning: IPC 0.029062 < 0.05
Simulation CPU 0 warning: IPC 0.032733 < 0.05
Simulation CPU 0 warning: IPC 0.033369 < 0.05
Simulation CPU 0 warning: IPC 0.029712 < 0.05
Simulation CPU 0 warning: IPC 0.034009 < 0.05
Simulation CPU 0 warning: IPC 0.033444 < 0.05
Simulation CPU 0 warning: IPC 0.030706 < 0.05
Simulation CPU 0 warning: IPC 0.02855 < 0.05
Simulation CPU 0 warning: IPC 0.033786 < 0.05
Simulation CPU 0 warning: IPC 0.031645 < 0.05
Simulation CPU 0 warning: IPC 0.029814 < 0.05
Simulation CPU 0 warning: IPC 0.030777 < 0.05
Simulation CPU 0 warning: IPC 0.029929 < 0.05
Simulation CPU 0 warning: IPC 0.031245 < 0.05
Simulation CPU 0 warning: IPC 0.031688 < 0.05
Simulation CPU 0 warning: IPC 0.029204 < 0.05
Simulation CPU 0 warning: IPC 0.032866 < 0.05
Simulation CPU 0 warning: IPC 0.031175 < 0.05
Simulation CPU 0 warning: IPC 0.032287 < 0.05
Simulation CPU 0 warning: IPC 0.03199 < 0.05
Simulation CPU 0 warning: IPC 0.030885 < 0.05
Simulation CPU 0 warning: IPC 0.032054 < 0.05
Simulation CPU 0 warning: IPC 0.030762 < 0.05
Simulation CPU 0 warning: IPC 0.030453 < 0.05
Simulation CPU 0 warning: IPC 0.028327 < 0.05
Simulation CPU 0 warning: IPC 0.027234 < 0.05
Simulation CPU 0 warning: IPC 0.030466 < 0.05
Simulation CPU 0 warning: IPC 0.029942 < 0.05
Simulation CPU 0 warning: IPC 0.026132 < 0.05
Simulation CPU 0 warning: IPC 0.031321 < 0.05
Simulation CPU 0 warning: IPC 0.030739 < 0.05
Simulation CPU 0 warning: IPC 0.03179 < 0.05
Simulation CPU 0 warning: IPC 0.029147 < 0.05
Simulation CPU 0 warning: IPC 0.028209 < 0.05
Simulation CPU 0 warning: IPC 0.030162 < 0.05
Simulation CPU 0 warning: IPC 0.032235 < 0.05
Simulation CPU 0 warning: IPC 0.027876 < 0.05
Simulation CPU 0 warning: IPC 0.032755 < 0.05
Simulation CPU 0 warning: IPC 0.029283 < 0.05
Simulation CPU 0 warning: IPC 0.030665 < 0.05
Simulation CPU 0 warning: IPC 0.032135 < 0.05
Simulation CPU 0 warning: IPC 0.031485 < 0.05
Simulation CPU 0 warning: IPC 0.031201 < 0.05
Simulation CPU 0 warning: IPC 0.031176 < 0.05
Simulation CPU 0 warning: IPC 0.033319 < 0.05
Simulation CPU 0 warning: IPC 0.031227 < 0.05
Simulation CPU 0 warning: IPC 0.03427 < 0.05
Simulation CPU 0 warning: IPC 0.032747 < 0.05
Simulation CPU 0 warning: IPC 0.031337 < 0.05
Simulation CPU 0 warning: IPC 0.030229 < 0.05
Simulation CPU 0 warning: IPC 0.030164 < 0.05
Simulation CPU 0 warning: IPC 0.032118 < 0.05
Simulation CPU 0 warning: IPC 0.029662 < 0.05
Simulation CPU 0 warning: IPC 0.028663 < 0.05
Simulation CPU 0 warning: IPC 0.031372 < 0.05
Simulation CPU 0 warning: IPC 0.027099 < 0.05
Simulation CPU 0 warning: IPC 0.029365 < 0.05
Simulation CPU 0 warning: IPC 0.031181 < 0.05
Simulation CPU 0 warning: IPC 0.032122 < 0.05
Simulation CPU 0 warning: IPC 0.025865 < 0.05
Simulation CPU 0 warning: IPC 0.030507 < 0.05
Simulation CPU 0 warning: IPC 0.027946 < 0.05
Simulation CPU 0 warning: IPC 0.029405 < 0.05
Simulation CPU 0 warning: IPC 0.031494 < 0.05
Simulation CPU 0 warning: IPC 0.030508 < 0.05
Simulation CPU 0 warning: IPC 0.032444 < 0.05
Simulation CPU 0 warning: IPC 0.028176 < 0.05
Simulation CPU 0 warning: IPC 0.029938 < 0.05
Simulation CPU 0 warning: IPC 0.03072 < 0.05
Simulation CPU 0 warning: IPC 0.028946 < 0.05
Simulation CPU 0 warning: IPC 0.033266 < 0.05
Simulation CPU 0 warning: IPC 0.031707 < 0.05
Simulation CPU 0 warning: IPC 0.033772 < 0.05
Simulation CPU 0 warning: IPC 0.026995 < 0.05
Simulation CPU 0 warning: IPC 0.027251 < 0.05
Simulation CPU 0 warning: IPC 0.031593 < 0.05
Simulation CPU 0 warning: IPC 0.028979 < 0.05
Simulation CPU 0 warning: IPC 0.032563 < 0.05
Simulation CPU 0 warning: IPC 0.033638 < 0.05
Simulation CPU 0 warning: IPC 0.032689 < 0.05
Simulation CPU 0 warning: IPC 0.030694 < 0.05
Simulation CPU 0 warning: IPC 0.033437 < 0.05
Simulation CPU 0 warning: IPC 0.032143 < 0.05
Simulation CPU 0 warning: IPC 0.030319 < 0.05
Simulation CPU 0 warning: IPC 0.031723 < 0.05
Simulation CPU 0 warning: IPC 0.030833 < 0.05
Simulation CPU 0 warning: IPC 0.030724 < 0.05
Simulation CPU 0 warning: IPC 0.030661 < 0.05
Simulation CPU 0 warning: IPC 0.027976 < 0.05
Simulation CPU 0 warning: IPC 0.033494 < 0.05
Simulation CPU 0 warning: IPC 0.031253 < 0.05
Simulation CPU 0 warning: IPC 0.032555 < 0.05
Simulation CPU 0 warning: IPC 0.029089 < 0.05
Simulation CPU 0 warning: IPC 0.032213 < 0.05
Simulation CPU 0 warning: IPC 0.031641 < 0.05
Simulation CPU 0 warning: IPC 0.029811 < 0.05
Simulation CPU 0 warning: IPC 0.035565 < 0.05
Simulation CPU 0 warning: IPC 0.032995 < 0.05
Simulation CPU 0 warning: IPC 0.033883 < 0.05
Simulation CPU 0 warning: IPC 0.035361 < 0.05
Simulation CPU 0 warning: IPC 0.03217 < 0.05
Simulation CPU 0 warning: IPC 0.033254 < 0.05
Simulation CPU 0 warning: IPC 0.032616 < 0.05
Simulation CPU 0 warning: IPC 0.031638 < 0.05
Simulation CPU 0 warning: IPC 0.032745 < 0.05
Simulation CPU 0 warning: IPC 0.033591 < 0.05
Simulation CPU 0 warning: IPC 0.033244 < 0.05
Simulation CPU 0 warning: IPC 0.027993 < 0.05
Simulation CPU 0 warning: IPC 0.02827 < 0.05
Simulation CPU 0 warning: IPC 0.02867 < 0.05
Simulation CPU 0 warning: IPC 0.030987 < 0.05
Simulation CPU 0 warning: IPC 0.032626 < 0.05
Simulation CPU 0 warning: IPC 0.030369 < 0.05
Simulation CPU 0 warning: IPC 0.031134 < 0.05
Simulation CPU 0 warning: IPC 0.03158 < 0.05
Simulation CPU 0 warning: IPC 0.029743 < 0.05
Simulation CPU 0 warning: IPC 0.031386 < 0.05
Simulation CPU 0 warning: IPC 0.032582 < 0.05
Simulation CPU 0 warning: IPC 0.032645 < 0.05
Simulation CPU 0 warning: IPC 0.031334 < 0.05
Simulation CPU 0 warning: IPC 0.034249 < 0.05
Simulation CPU 0 warning: IPC 0.030564 < 0.05
Simulation CPU 0 warning: IPC 0.034682 < 0.05
Simulation CPU 0 warning: IPC 0.034777 < 0.05
Simulation CPU 0 warning: IPC 0.030662 < 0.05
Simulation CPU 0 warning: IPC 0.028043 < 0.05
Simulation CPU 0 warning: IPC 0.033772 < 0.05
Simulation CPU 0 warning: IPC 0.029933 < 0.05
Simulation CPU 0 warning: IPC 0.033129 < 0.05
Simulation CPU 0 warning: IPC 0.033168 < 0.05
Simulation CPU 0 warning: IPC 0.034564 < 0.05
Simulation CPU 0 warning: IPC 0.033181 < 0.05
Simulation CPU 0 warning: IPC 0.030507 < 0.05
Simulation CPU 0 warning: IPC 0.033224 < 0.05
Simulation CPU 0 warning: IPC 0.034709 < 0.05
Simulation CPU 0 warning: IPC 0.03731 < 0.05
Simulation CPU 0 warning: IPC 0.036559 < 0.05
Simulation CPU 0 warning: IPC 0.035211 < 0.05
Simulation CPU 0 warning: IPC 0.035778 < 0.05
Simulation CPU 0 warning: IPC 0.032744 < 0.05
Simulation CPU 0 warning: IPC 0.031788 < 0.05
Simulation CPU 0 warning: IPC 0.033781 < 0.05
Simulation CPU 0 warning: IPC 0.033382 < 0.05
Simulation CPU 0 warning: IPC 0.032671 < 0.05
Simulation CPU 0 warning: IPC 0.034493 < 0.05
Simulation CPU 0 warning: IPC 0.035365 < 0.05
Simulation CPU 0 warning: IPC 0.028889 < 0.05
Simulation CPU 0 warning: IPC 0.033848 < 0.05
Simulation CPU 0 warning: IPC 0.031538 < 0.05
Simulation CPU 0 warning: IPC 0.0334 < 0.05
Simulation CPU 0 warning: IPC 0.030547 < 0.05
Simulation CPU 0 warning: IPC 0.03262 < 0.05
Simulation CPU 0 warning: IPC 0.030572 < 0.05
Simulation CPU 0 warning: IPC 0.033746 < 0.05
Simulation CPU 0 warning: IPC 0.03258 < 0.05
Simulation CPU 0 warning: IPC 0.030684 < 0.05
Simulation CPU 0 warning: IPC 0.034299 < 0.05
Simulation CPU 0 warning: IPC 0.032243 < 0.05
Simulation CPU 0 warning: IPC 0.033086 < 0.05
Simulation CPU 0 warning: IPC 0.031692 < 0.05
Simulation CPU 0 warning: IPC 0.029941 < 0.05
Simulation CPU 0 warning: IPC 0.030501 < 0.05
Simulation CPU 0 warning: IPC 0.029408 < 0.05
Simulation CPU 0 warning: IPC 0.033401 < 0.05
Simulation CPU 0 warning: IPC 0.031314 < 0.05
Simulation CPU 0 warning: IPC 0.030211 < 0.05
Simulation CPU 0 warning: IPC 0.033539 < 0.05
Simulation CPU 0 warning: IPC 0.029217 < 0.05
Simulation CPU 0 warning: IPC 0.029739 < 0.05
Simulation CPU 0 warning: IPC 0.031972 < 0.05
Simulation CPU 0 warning: IPC 0.026002 < 0.05
Simulation CPU 0 warning: IPC 0.030295 < 0.05
Simulation CPU 0 warning: IPC 0.031145 < 0.05
Simulation CPU 0 warning: IPC 0.030328 < 0.05
Simulation CPU 0 warning: IPC 0.02906 < 0.05
Simulation CPU 0 warning: IPC 0.030875 < 0.05
Simulation CPU 0 warning: IPC 0.035215 < 0.05
Simulation CPU 0 warning: IPC 0.035002 < 0.05
Simulation CPU 0 warning: IPC 0.029078 < 0.05
Simulation CPU 0 warning: IPC 0.030123 < 0.05
Simulation CPU 0 warning: IPC 0.033188 < 0.05
Simulation CPU 0 warning: IPC 0.026401 < 0.05
Simulation CPU 0 warning: IPC 0.029042 < 0.05
Simulation CPU 0 warning: IPC 0.033781 < 0.05
Simulation CPU 0 warning: IPC 0.034467 < 0.05
Simulation CPU 0 warning: IPC 0.034297 < 0.05
Simulation CPU 0 warning: IPC 0.035874 < 0.05
Simulation CPU 0 warning: IPC 0.032882 < 0.05
Simulation CPU 0 warning: IPC 0.034685 < 0.05
Simulation CPU 0 warning: IPC 0.034774 < 0.05
Simulation CPU 0 warning: IPC 0.034666 < 0.05
Simulation CPU 0 warning: IPC 0.032992 < 0.05
Simulation CPU 0 warning: IPC 0.032346 < 0.05
Simulation CPU 0 warning: IPC 0.033248 < 0.05
Simulation CPU 0 warning: IPC 0.029777 < 0.05
Simulation CPU 0 warning: IPC 0.027956 < 0.05
Simulation CPU 0 warning: IPC 0.032218 < 0.05
Simulation CPU 0 warning: IPC 0.032366 < 0.05
Simulation CPU 0 warning: IPC 0.031291 < 0.05
Simulation CPU 0 warning: IPC 0.032276 < 0.05
Simulation CPU 0 warning: IPC 0.032835 < 0.05
Simulation CPU 0 warning: IPC 0.03289 < 0.05
Simulation CPU 0 warning: IPC 0.030649 < 0.05
Simulation CPU 0 warning: IPC 0.03295 < 0.05
Simulation CPU 0 warning: IPC 0.034513 < 0.05
Simulation CPU 0 warning: IPC 0.034235 < 0.05
Simulation CPU 0 warning: IPC 0.029196 < 0.05
Simulation CPU 0 warning: IPC 0.033874 < 0.05
Simulation CPU 0 warning: IPC 0.034349 < 0.05
Simulation CPU 0 warning: IPC 0.032631 < 0.05
Simulation CPU 0 warning: IPC 0.035663 < 0.05
Simulation CPU 0 warning: IPC 0.029906 < 0.05
Simulation CPU 0 warning: IPC 0.033414 < 0.05
Simulation CPU 0 warning: IPC 0.035059 < 0.05
Simulation CPU 0 warning: IPC 0.031055 < 0.05
Simulation CPU 0 warning: IPC 0.033476 < 0.05
Simulation CPU 0 warning: IPC 0.033753 < 0.05
Simulation CPU 0 warning: IPC 0.034864 < 0.05
Simulation CPU 0 warning: IPC 0.034133 < 0.05
Simulation CPU 0 warning: IPC 0.030142 < 0.05
Simulation CPU 0 warning: IPC 0.030045 < 0.05
Simulation CPU 0 warning: IPC 0.030342 < 0.05
Simulation CPU 0 warning: IPC 0.0313 < 0.05
Simulation CPU 0 warning: IPC 0.03087 < 0.05
Simulation CPU 0 warning: IPC 0.032523 < 0.05
Simulation CPU 0 warning: IPC 0.031669 < 0.05
Simulation CPU 0 warning: IPC 0.030914 < 0.05
Simulation CPU 0 warning: IPC 0.031614 < 0.05
Simulation CPU 0 warning: IPC 0.03225 < 0.05
Simulation CPU 0 warning: IPC 0.031801 < 0.05
Simulation CPU 0 warning: IPC 0.031252 < 0.05
Simulation CPU 0 warning: IPC 0.031214 < 0.05
Simulation CPU 0 warning: IPC 0.029368 < 0.05
Simulation CPU 0 warning: IPC 0.032842 < 0.05
Simulation CPU 0 warning: IPC 0.032581 < 0.05
Simulation CPU 0 warning: IPC 0.031086 < 0.05
Simulation CPU 0 warning: IPC 0.032394 < 0.05
Simulation CPU 0 warning: IPC 0.031399 < 0.05
Simulation CPU 0 warning: IPC 0.032154 < 0.05
Simulation CPU 0 warning: IPC 0.032359 < 0.05
Simulation CPU 0 warning: IPC 0.033266 < 0.05
Simulation CPU 0 warning: IPC 0.031357 < 0.05
Simulation CPU 0 warning: IPC 0.032501 < 0.05
Simulation CPU 0 warning: IPC 0.030448 < 0.05
Simulation CPU 0 warning: IPC 0.032809 < 0.05
Simulation CPU 0 warning: IPC 0.030918 < 0.05
Simulation CPU 0 warning: IPC 0.032048 < 0.05
Simulation CPU 0 warning: IPC 0.032385 < 0.05
Simulation CPU 0 warning: IPC 0.033576 < 0.05
Simulation CPU 0 warning: IPC 0.034045 < 0.05
Simulation CPU 0 warning: IPC 0.029565 < 0.05
Simulation finished CPU 0 instructions: 100000002 cycles: 3173456488 cumulative IPC: 0.03151 (Simulation time: 04 hr 26 min 58 sec)
Simulation complete CPU 0 instructions: 100000002 cycles: 3173456488 cumulative IPC: 0.03151 (Simulation time: 04 hr 26 min 58 sec)

ChampSim completed all CPUs

=== Simulation ===
CPU 0 runs /data2/zcq/champsim_traces_gap/pr.twitter-3197B.champsimtrace.xz

Region of Interest Statistics

CPU 0 cumulative IPC: 0.03151 instructions: 100000002 cycles: 3173456488
CPU 0 Branch Prediction Accuracy: 97.56% MPKI: 4.734 Average ROB Occupancy at Mispredict: 262.1
Branch type MPKI
BRANCH_DIRECT_JUMP: 0
BRANCH_INDIRECT: 0
BRANCH_CONDITIONAL: 4.734
BRANCH_DIRECT_CALL: 0
BRANCH_INDIRECT_CALL: 0
BRANCH_RETURN: 0

cpu0->cpu0_STLB TOTAL        ACCESS:   16884388 HIT:    2477347 MISS:   14407041 MSHR_MERGE:          0
cpu0->cpu0_STLB LOAD         ACCESS:   16884388 HIT:    2477347 MISS:   14407041 MSHR_MERGE:          0
cpu0->cpu0_STLB RFO          ACCESS:          0 HIT:          0 MISS:          0 MSHR_MERGE:          0
cpu0->cpu0_STLB PREFETCH     ACCESS:          0 HIT:          0 MISS:          0 MSHR_MERGE:          0
cpu0->cpu0_STLB WRITE        ACCESS:          0 HIT:          0 MISS:          0 MSHR_MERGE:          0
cpu0->cpu0_STLB TRANSLATION  ACCESS:          0 HIT:          0 MISS:          0 MSHR_MERGE:          0
cpu0->cpu0_STLB PREFETCH REQUESTED:          0 ISSUED:          0 USEFUL:          0 USELESS:          0 LATE:          0
cpu0->cpu0_STLB AVERAGE MISS LATENCY: 25.39 cycles
cpu0->cpu0_L2C TOTAL        ACCESS:   33211303 HIT:   11226827 MISS:   21984476 MSHR_MERGE:      32228
cpu0->cpu0_L2C LOAD         ACCESS:   18224861 HIT:    2817961 MISS:   15406900 MSHR_MERGE:       4955
cpu0->cpu0_L2C RFO          ACCESS:      14357 HIT:      13044 MISS:       1313 MSHR_MERGE:          0
cpu0->cpu0_L2C PREFETCH     ACCESS:    3487461 HIT:    2240968 MISS:    1246493 MSHR_MERGE:      27273
cpu0->cpu0_L2C WRITE        ACCESS:      56996 HIT:      56995 MISS:          1 MSHR_MERGE:          0
cpu0->cpu0_L2C TRANSLATION  ACCESS:   11427628 HIT:    6097859 MISS:    5329769 MSHR_MERGE:          0
cpu0->cpu0_L2C PREFETCH REQUESTED:    3487461 ISSUED:    3487461 USEFUL:    1183115 USELESS:      36090 LATE:       4955
cpu0->cpu0_L2C AVERAGE MISS LATENCY: 120.3 cycles
cpu0->cpu0_L1I TOTAL        ACCESS:   12675729 HIT:   12675729 MISS:          0 MSHR_MERGE:          0
cpu0->cpu0_L1I LOAD         ACCESS:   12675729 HIT:   12675729 MISS:          0 MSHR_MERGE:          0
cpu0->cpu0_L1I RFO          ACCESS:          0 HIT:          0 MISS:          0 MSHR_MERGE:          0
cpu0->cpu0_L1I PREFETCH     ACCESS:          0 HIT:          0 MISS:          0 MSHR_MERGE:          0
cpu0->cpu0_L1I WRITE        ACCESS:          0 HIT:          0 MISS:          0 MSHR_MERGE:          0
cpu0->cpu0_L1I TRANSLATION  ACCESS:          0 HIT:          0 MISS:          0 MSHR_MERGE:          0
cpu0->cpu0_L1I PREFETCH REQUESTED:          0 ISSUED:          0 USEFUL:          0 USELESS:          0 LATE:          0
cpu0->cpu0_L1I AVERAGE MISS LATENCY: - cycles
cpu0->cpu0_L1D TOTAL        ACCESS:   70187888 HIT:   40103620 MISS:   30084268 MSHR_MERGE:     417425
cpu0->cpu0_L1D LOAD         ACCESS:   38014700 HIT:   19415432 MISS:   18599268 MSHR_MERGE:     374408
cpu0->cpu0_L1D RFO          ACCESS:          0 HIT:          0 MISS:          0 MSHR_MERGE:          0
cpu0->cpu0_L1D PREFETCH     ACCESS:          0 HIT:          0 MISS:          0 MSHR_MERGE:          0
cpu0->cpu0_L1D WRITE        ACCESS:     537486 HIT:     480116 MISS:      57370 MSHR_MERGE:      43013
cpu0->cpu0_L1D TRANSLATION  ACCESS:   31635702 HIT:   20208072 MISS:   11427630 MSHR_MERGE:          4
cpu0->cpu0_L1D PREFETCH REQUESTED:          0 ISSUED:          0 USEFUL:          0 USELESS:          0 LATE:          0
cpu0->cpu0_L1D AVERAGE MISS LATENCY: 92.81 cycles
cpu0->cpu0_ITLB TOTAL        ACCESS:   12675729 HIT:   12675729 MISS:          0 MSHR_MERGE:          0
cpu0->cpu0_ITLB LOAD         ACCESS:   12675729 HIT:   12675729 MISS:          0 MSHR_MERGE:          0
cpu0->cpu0_ITLB RFO          ACCESS:          0 HIT:          0 MISS:          0 MSHR_MERGE:          0
cpu0->cpu0_ITLB PREFETCH     ACCESS:          0 HIT:          0 MISS:          0 MSHR_MERGE:          0
cpu0->cpu0_ITLB WRITE        ACCESS:          0 HIT:          0 MISS:          0 MSHR_MERGE:          0
cpu0->cpu0_ITLB TRANSLATION  ACCESS:          0 HIT:          0 MISS:          0 MSHR_MERGE:          0
cpu0->cpu0_ITLB PREFETCH REQUESTED:          0 ISSUED:          0 USEFUL:          0 USELESS:          0 LATE:          0
cpu0->cpu0_ITLB AVERAGE MISS LATENCY: - cycles
cpu0->cpu0_DTLB TOTAL        ACCESS:   38539559 HIT:   21597903 MISS:   16941656 MSHR_MERGE:      57269
cpu0->cpu0_DTLB LOAD         ACCESS:   38539559 HIT:   21597903 MISS:   16941656 MSHR_MERGE:      57269
cpu0->cpu0_DTLB RFO          ACCESS:          0 HIT:          0 MISS:          0 MSHR_MERGE:          0
cpu0->cpu0_DTLB PREFETCH     ACCESS:          0 HIT:          0 MISS:          0 MSHR_MERGE:          0
cpu0->cpu0_DTLB WRITE        ACCESS:          0 HIT:          0 MISS:          0 MSHR_MERGE:          0
cpu0->cpu0_DTLB TRANSLATION  ACCESS:          0 HIT:          0 MISS:          0 MSHR_MERGE:          0
cpu0->cpu0_DTLB PREFETCH REQUESTED:          0 ISSUED:          0 USEFUL:          0 USELESS:          0 LATE:          0
cpu0->cpu0_DTLB AVERAGE MISS LATENCY: 27.52 cycles
cpu0->LLC TOTAL        ACCESS:   21984519 HIT:    8635383 MISS:   13349136 MSHR_MERGE:          0
cpu0->LLC LOAD         ACCESS:   15401945 HIT:    3401337 MISS:   12000608 MSHR_MERGE:          0
cpu0->LLC RFO          ACCESS:       1313 HIT:       1312 MISS:          1 MSHR_MERGE:          0
cpu0->LLC PREFETCH     ACCESS:    1219220 HIT:       2249 MISS:    1216971 MSHR_MERGE:          0
cpu0->LLC WRITE        ACCESS:      32272 HIT:       8898 MISS:      23374 MSHR_MERGE:          0
cpu0->LLC TRANSLATION  ACCESS:    5329769 HIT:    5221587 MISS:     108182 MSHR_MERGE:          0
cpu0->LLC PREFETCH REQUESTED:          0 ISSUED:          0 USEFUL:          0 USELESS:          0 LATE:          0
cpu0->LLC AVERAGE MISS LATENCY: 179 cycles

DRAM Statistics

Channel 0 RQ ROW_BUFFER_HIT:      25257
  ROW_BUFFER_MISS:   13300504
  AVG DBUS CONGESTED CYCLE: 16.03
Channel 0 WQ ROW_BUFFER_HIT:       5918
  ROW_BUFFER_MISS:      23462
  FULL:          0
Channel 0 REFRESHES ISSUED:     264454

[ROI Statistics]
[System Configuration]
num_cpus 1
cpu_freq 4000
fetch_width 6
decode_width 6
dispatch_width 6
execute_width 6
lq_width 2
sq_width 2
retire_width 6
scheduler_size 128
branch_mispredict_penalty 15
rob_size 352
lq_size 128
sq_size 72
ifetch_buffer_size 64
decode_buffer_size 32
dispatch_buffer_size 32
register_file_size 288
decode_latency 1
dispatch_latency 1
schedule_latency 1
execute_latency 1
page_size 4096
block_size 64
core_0_itlb_set 16
core_0_itlb_way 4
core_0_itlb_rq_size 16
core_0_itlb_wq_size 16
core_0_itlb_pq_size 0
core_0_itlb_mshr_size 8
core_0_itlb_hit_latency 1
core_0_itlb_fill_latency 1
core_0_itlb_max_tag_check 2
core_0_itlb_max_fill 2
core_0_dtlb_set 16
core_0_dtlb_way 4
core_0_dtlb_rq_size 16
core_0_dtlb_wq_size 16
core_0_dtlb_pq_size 0
core_0_dtlb_mshr_size 8
core_0_dtlb_hit_latency 1
core_0_dtlb_fill_latency 1
core_0_dtlb_max_tag_check 2
core_0_dtlb_max_fill 2
core_0_stlb_set 128
core_0_stlb_way 12
core_0_stlb_rq_size 32
core_0_stlb_wq_size 32
core_0_stlb_pq_size 0
core_0_stlb_mshr_size 16
core_0_stlb_hit_latency 4
core_0_stlb_fill_latency 4
core_0_stlb_max_tag_check 1
core_0_stlb_max_fill 1
core_0_l1i_set 64
core_0_l1i_way 8
core_0_l1i_rq_size 64
core_0_l1i_wq_size 64
core_0_l1i_pq_size 32
core_0_l1i_mshr_size 8
core_0_l1i_hit_latency 2
core_0_l1i_fill_latency 2
core_0_l1i_max_tag_check 2
core_0_l1i_max_fill 2
core_0_l1d_set 64
core_0_l1d_way 12
core_0_l1d_rq_size 64
core_0_l1d_wq_size 64
core_0_l1d_pq_size 8
core_0_l1d_mshr_size 16
core_0_l1d_hit_latency 2
core_0_l1d_fill_latency 3
core_0_l1d_max_tag_check 2
core_0_l1d_max_fill 2
core_0_l2c_set 1024
core_0_l2c_way 8
core_0_l2c_rq_size 32
core_0_l2c_wq_size 32
core_0_l2c_pq_size 16
core_0_l2c_mshr_size 32
core_0_l2c_hit_latency 5
core_0_l2c_fill_latency 5
core_0_l2c_max_tag_check 1
core_0_l2c_max_fill 1
llc_set 2048
llc_way 16
llc_rq_size 32
llc_wq_size 32
llc_pq_size 32
llc_mshr_size 64
llc_hit_latency 10
llc_fill_latency 10
llc_max_tag_check 1
llc_max_fill 1
dram_channels 1
dram_ranks 1
dram_bankgroups 8
dram_banks 4
dram_rows 65536
dram_columns 1024
dram_channel_width 8
dram_rq_size 64
dram_wq_size 64
dram_size 17179869184
core_0_itlb_prefetcher no
core_0_dtlb_prefetcher no
core_0_stlb_prefetcher no
core_0_l1i_prefetcher next_line
core_0_l1d_prefetcher no
core_0_l2c_prefetcher ip_stride
llc_prefetcher no
llc_replacement drrip

Core_0_instructions 100000002
Core_0_cycles 3173456488
Core_0_IPC 0.0315114
Core_0_branch_prediction_accuracy 97.5573
Core_0_branch_MPKI 4.73448
Core_0_average_ROB_occupancy_at_mispredict 262.093

Core_0_ITLB_total_access 12675729
Core_0_ITLB_total_hit 12675729
Core_0_ITLB_total_miss 0
Core_0_ITLB_total_MPKI 0
Core_0_ITLB_total_miss_rate 0
Core_0_ITLB_demand_access 12675729
Core_0_ITLB_demand_hit 12675729
Core_0_ITLB_demand_miss 0
Core_0_ITLB_demand_MPKI 0
Core_0_ITLB_demand_miss_rate 0
Core_0_ITLB_load_access 12675729
Core_0_ITLB_load_hit 12675729
Core_0_ITLB_load_miss 0
Core_0_ITLB_load_MPKI 0
Core_0_ITLB_load_miss_rate 0
Core_0_ITLB_rfo_access 0
Core_0_ITLB_rfo_hit 0
Core_0_ITLB_rfo_miss 0
Core_0_ITLB_rfo_MPKI 0
Core_0_ITLB_rfo_miss_rate 0
Core_0_ITLB_prefetch_access 0
Core_0_ITLB_prefetch_hit 0
Core_0_ITLB_prefetch_miss 0
Core_0_ITLB_prefetch_MPKI 0
Core_0_ITLB_prefetch_miss_rate 0
Core_0_ITLB_writeback_access 0
Core_0_ITLB_writeback_hit 0
Core_0_ITLB_writeback_miss 0
Core_0_ITLB_writeback_MPKI 0
Core_0_ITLB_writeback_miss_rate 0
Core_0_ITLB_prefetch_requested 0
Core_0_ITLB_prefetch_issued 0
Core_0_ITLB_prefetch_useful 0
Core_0_ITLB_prefetch_useless 0
Core_0_ITLB_prefetch_late 0
Core_0_ITLB_prefetch_fill 0
Core_0_ITLB_prefetch_accuracy 0
Core_0_ITLB_prefetch_coverage 0

Core_0_DTLB_total_access 38539559
Core_0_DTLB_total_hit 21597903
Core_0_DTLB_total_miss 16941656
Core_0_DTLB_total_MPKI 169.417
Core_0_DTLB_total_miss_rate 0.439591
Core_0_DTLB_demand_access 38539559
Core_0_DTLB_demand_hit 21597903
Core_0_DTLB_demand_miss 16941656
Core_0_DTLB_demand_MPKI 169.417
Core_0_DTLB_demand_miss_rate 0.439591
Core_0_DTLB_load_access 38539559
Core_0_DTLB_load_hit 21597903
Core_0_DTLB_load_miss 16941656
Core_0_DTLB_load_MPKI 169.417
Core_0_DTLB_load_miss_rate 0.439591
Core_0_DTLB_rfo_access 0
Core_0_DTLB_rfo_hit 0
Core_0_DTLB_rfo_miss 0
Core_0_DTLB_rfo_MPKI 0
Core_0_DTLB_rfo_miss_rate 0
Core_0_DTLB_prefetch_access 0
Core_0_DTLB_prefetch_hit 0
Core_0_DTLB_prefetch_miss 0
Core_0_DTLB_prefetch_MPKI 0
Core_0_DTLB_prefetch_miss_rate 0
Core_0_DTLB_writeback_access 0
Core_0_DTLB_writeback_hit 0
Core_0_DTLB_writeback_miss 0
Core_0_DTLB_writeback_MPKI 0
Core_0_DTLB_writeback_miss_rate 0
Core_0_DTLB_prefetch_requested 0
Core_0_DTLB_prefetch_issued 0
Core_0_DTLB_prefetch_useful 0
Core_0_DTLB_prefetch_useless 0
Core_0_DTLB_prefetch_late 0
Core_0_DTLB_prefetch_fill 0
Core_0_DTLB_prefetch_accuracy 0
Core_0_DTLB_prefetch_coverage 0

Core_0_STLB_total_access 16884388
Core_0_STLB_total_hit 2477347
Core_0_STLB_total_miss 14407041
Core_0_STLB_total_MPKI 144.07
Core_0_STLB_total_miss_rate 0.853276
Core_0_STLB_demand_access 16884388
Core_0_STLB_demand_hit 2477347
Core_0_STLB_demand_miss 14407041
Core_0_STLB_demand_MPKI 144.07
Core_0_STLB_demand_miss_rate 0.853276
Core_0_STLB_load_access 16884388
Core_0_STLB_load_hit 2477347
Core_0_STLB_load_miss 14407041
Core_0_STLB_load_MPKI 144.07
Core_0_STLB_load_miss_rate 0.853276
Core_0_STLB_rfo_access 0
Core_0_STLB_rfo_hit 0
Core_0_STLB_rfo_miss 0
Core_0_STLB_rfo_MPKI 0
Core_0_STLB_rfo_miss_rate 0
Core_0_STLB_prefetch_access 0
Core_0_STLB_prefetch_hit 0
Core_0_STLB_prefetch_miss 0
Core_0_STLB_prefetch_MPKI 0
Core_0_STLB_prefetch_miss_rate 0
Core_0_STLB_writeback_access 0
Core_0_STLB_writeback_hit 0
Core_0_STLB_writeback_miss 0
Core_0_STLB_writeback_MPKI 0
Core_0_STLB_writeback_miss_rate 0
Core_0_STLB_prefetch_requested 0
Core_0_STLB_prefetch_issued 0
Core_0_STLB_prefetch_useful 0
Core_0_STLB_prefetch_useless 0
Core_0_STLB_prefetch_late 0
Core_0_STLB_prefetch_fill 0
Core_0_STLB_prefetch_accuracy 0
Core_0_STLB_prefetch_coverage 0

Core_0_L1I_total_access 12675729
Core_0_L1I_total_hit 12675729
Core_0_L1I_total_miss 0
Core_0_L1I_total_MPKI 0
Core_0_L1I_total_miss_rate 0
Core_0_L1I_demand_access 12675729
Core_0_L1I_demand_hit 12675729
Core_0_L1I_demand_miss 0
Core_0_L1I_demand_MPKI 0
Core_0_L1I_demand_miss_rate 0
Core_0_L1I_load_access 12675729
Core_0_L1I_load_hit 12675729
Core_0_L1I_load_miss 0
Core_0_L1I_load_MPKI 0
Core_0_L1I_load_miss_rate 0
Core_0_L1I_rfo_access 0
Core_0_L1I_rfo_hit 0
Core_0_L1I_rfo_miss 0
Core_0_L1I_rfo_MPKI 0
Core_0_L1I_rfo_miss_rate 0
Core_0_L1I_prefetch_access 0
Core_0_L1I_prefetch_hit 0
Core_0_L1I_prefetch_miss 0
Core_0_L1I_prefetch_MPKI 0
Core_0_L1I_prefetch_miss_rate 0
Core_0_L1I_writeback_access 0
Core_0_L1I_writeback_hit 0
Core_0_L1I_writeback_miss 0
Core_0_L1I_writeback_MPKI 0
Core_0_L1I_writeback_miss_rate 0
Core_0_L1I_prefetch_requested 0
Core_0_L1I_prefetch_issued 0
Core_0_L1I_prefetch_useful 0
Core_0_L1I_prefetch_useless 0
Core_0_L1I_prefetch_late 0
Core_0_L1I_prefetch_fill 0
Core_0_L1I_prefetch_accuracy 0
Core_0_L1I_prefetch_coverage 0

Core_0_L1D_total_access 38552186
Core_0_L1D_total_hit 19895548
Core_0_L1D_total_miss 18656638
Core_0_L1D_total_MPKI 186.566
Core_0_L1D_total_miss_rate 0.483932
Core_0_L1D_demand_access 38014700
Core_0_L1D_demand_hit 19415432
Core_0_L1D_demand_miss 18599268
Core_0_L1D_demand_MPKI 185.993
Core_0_L1D_demand_miss_rate 0.489265
Core_0_L1D_load_access 38014700
Core_0_L1D_load_hit 19415432
Core_0_L1D_load_miss 18599268
Core_0_L1D_load_MPKI 185.993
Core_0_L1D_load_miss_rate 0.489265
Core_0_L1D_rfo_access 0
Core_0_L1D_rfo_hit 0
Core_0_L1D_rfo_miss 0
Core_0_L1D_rfo_MPKI 0
Core_0_L1D_rfo_miss_rate 0
Core_0_L1D_prefetch_access 0
Core_0_L1D_prefetch_hit 0
Core_0_L1D_prefetch_miss 0
Core_0_L1D_prefetch_MPKI 0
Core_0_L1D_prefetch_miss_rate 0
Core_0_L1D_writeback_access 537486
Core_0_L1D_writeback_hit 480116
Core_0_L1D_writeback_miss 57370
Core_0_L1D_writeback_MPKI 0.5737
Core_0_L1D_writeback_miss_rate 0.106738
Core_0_L1D_prefetch_requested 0
Core_0_L1D_prefetch_issued 0
Core_0_L1D_prefetch_useful 0
Core_0_L1D_prefetch_useless 0
Core_0_L1D_prefetch_late 0
Core_0_L1D_prefetch_fill 0
Core_0_L1D_prefetch_accuracy 0
Core_0_L1D_prefetch_coverage 0

Core_0_L2C_total_access 21783675
Core_0_L2C_total_hit 5128968
Core_0_L2C_total_miss 16654707
Core_0_L2C_total_MPKI 166.547
Core_0_L2C_total_miss_rate 0.76455
Core_0_L2C_demand_access 18239218
Core_0_L2C_demand_hit 2831005
Core_0_L2C_demand_miss 15408213
Core_0_L2C_demand_MPKI 154.082
Core_0_L2C_demand_miss_rate 0.844785
Core_0_L2C_load_access 18224861
Core_0_L2C_load_hit 2817961
Core_0_L2C_load_miss 15406900
Core_0_L2C_load_MPKI 154.069
Core_0_L2C_load_miss_rate 0.845378
Core_0_L2C_rfo_access 14357
Core_0_L2C_rfo_hit 13044
Core_0_L2C_rfo_miss 1313
Core_0_L2C_rfo_MPKI 0.01313
Core_0_L2C_rfo_miss_rate 0.0914536
Core_0_L2C_prefetch_access 3487461
Core_0_L2C_prefetch_hit 2240968
Core_0_L2C_prefetch_miss 1246493
Core_0_L2C_prefetch_MPKI 12.4649
Core_0_L2C_prefetch_miss_rate 0.357421
Core_0_L2C_writeback_access 56996
Core_0_L2C_writeback_hit 56995
Core_0_L2C_writeback_miss 1
Core_0_L2C_writeback_MPKI 1e-05
Core_0_L2C_writeback_miss_rate 1.75451e-05
Core_0_L2C_prefetch_requested 3487461
Core_0_L2C_prefetch_issued 3487461
Core_0_L2C_prefetch_useful 1183115
Core_0_L2C_prefetch_useless 36090
Core_0_L2C_prefetch_late 4955
Core_0_L2C_prefetch_fill 1214264
Core_0_L2C_prefetch_accuracy 0.339248
Core_0_L2C_prefetch_coverage 0.0713092

Core_0_LLC_total_access 16654750
Core_0_LLC_total_hit 3413796
Core_0_LLC_total_miss 13240954
Core_0_LLC_total_MPKI 132.41
Core_0_LLC_total_miss_rate 0.795026
Core_0_LLC_demand_access 15403258
Core_0_LLC_demand_hit 3402649
Core_0_LLC_demand_miss 12000609
Core_0_LLC_demand_MPKI 120.006
Core_0_LLC_demand_miss_rate 0.779096
Core_0_LLC_load_access 15401945
Core_0_LLC_load_hit 3401337
Core_0_LLC_load_miss 12000608
Core_0_LLC_load_MPKI 120.006
Core_0_LLC_load_miss_rate 0.779162
Core_0_LLC_rfo_access 1313
Core_0_LLC_rfo_hit 1312
Core_0_LLC_rfo_miss 1
Core_0_LLC_rfo_MPKI 1e-05
Core_0_LLC_rfo_miss_rate 0.000761615
Core_0_LLC_prefetch_access 1219220
Core_0_LLC_prefetch_hit 2249
Core_0_LLC_prefetch_miss 1216971
Core_0_LLC_prefetch_MPKI 12.1697
Core_0_LLC_prefetch_miss_rate 0.998155
Core_0_LLC_writeback_access 32272
Core_0_LLC_writeback_hit 8898
Core_0_LLC_writeback_miss 23374
Core_0_LLC_writeback_MPKI 0.23374
Core_0_LLC_writeback_miss_rate 0.724281
Core_0_LLC_prefetch_requested 0
Core_0_LLC_prefetch_issued 0
Core_0_LLC_prefetch_useful 0
Core_0_LLC_prefetch_useless 0
Core_0_LLC_prefetch_late 0
Core_0_LLC_prefetch_fill 1216970
Core_0_LLC_prefetch_accuracy 0
Core_0_LLC_prefetch_coverage 0

[DRAM Statistics]
Channel_0_RQ_row_buffer_hit 25257
Channel_0_RQ_row_buffer_miss 13300504
Channel_0_WQ_row_buffer_hit 5918
Channel_0_WQ_row_buffer_miss 23462
Channel_0_WQ_full 0
Channel_0_dbus_congested 2728908
DRAM_total_RQ_row_buffer_hit 25257
DRAM_total_RQ_row_buffer_miss 13300504
DRAM_total_WQ_row_buffer_hit 5918
DRAM_total_WQ_row_buffer_miss 23462
DRAM_total_WQ_full 0
DRAM_total_dbus_congested 2728908
DRAM_avg_congested_cycle 16.0279

====== DRAM_RQ_TRAFFIC ========
DRAM_RQ_READ_TRAFFIC_BREAKDOWN:
data_demand_read.count = 12000610
data_demand_read.share = 90.06%

inst_demand_read.count = 0
inst_demand_read.share = 0.00%

cache_inst_prefetch.count = 0
cache_inst_prefetch.share = 0.00%

cache_data_prefetch.count = 1216971
cache_data_prefetch.share = 9.13%

stlb_data_demand.count = 108182
stlb_data_demand.share = 0.81%

stlb_inst_demand.count = 0
stlb_inst_demand.share = 0.00%

stlb_l1i_pref.count = 0
stlb_l1i_pref.share = 0.00%

stlb_l1d_pref.count = 0
stlb_l1d_pref.share = 0.00%

DRAM_RQ_READ_TRAFFIC_SUMMARY:
cache_demand.count = 12000610
cache_demand.share = 90.06%

cache_prefetch.count = 1216971
cache_prefetch.share = 9.13%

stlb_demand.count = 108182
stlb_demand.share = 0.81%

stlb_prefetch.count = 0
stlb_prefetch.share = 0.00%

DRAM_RQ_READ_TRAFFIC_DEBUG:
total_classified_read.count = 13325763
unclassified_read.count = 0
total_read_with_other.count = 13325763

classified_plus_unclassified_check.count = 13325763
dram_rq_read_total_observed.count = 13325763
dram_rq_read_total_observed.per_1K_instructions = 133.258

STLB_MISS_PTW_DRAM_TOUCH_BREAKDOWN:
stlb_miss_total.count = 14407041

stlb_miss_touch_dram.count = 108156
stlb_miss_touch_dram.share = 0.75%

stlb_miss_no_dram_touch.count = 14298885
stlb_miss_no_dram_touch.share = 99.25%

STLB_MISS_PTW_DRAM_TOUCH_DEBUG:
stlb_miss_touch_plus_no_touch.count = 14407041
stlb_miss_total_check.count = 14407041

======STLB miss causes ========
Core_0_STLB_miss_cause_breakdown
Core_0_STLB_cause_Demand_Data_miss 14407041
Core_0_STLB_cause_Demand_Data_miss_rate 0.853276
Core_0_STLB_cause_Demand_Instruction_miss 0
Core_0_STLB_cause_Demand_Instruction_miss_rate 0
Core_0_STLB_cause_L1D_Prefetch_miss 0
Core_0_STLB_cause_L1D_Prefetch_miss_rate 0
Core_0_STLB_cause_L1D_Prefetch_Same_Page_miss 0
Core_0_STLB_cause_L1D_Prefetch_Same_Page_miss_rate 0
Core_0_STLB_cause_L1D_Prefetch_Cross_Page_miss 0
Core_0_STLB_cause_L1D_Prefetch_Cross_Page_miss_rate 0
Core_0_STLB_cause_L1I_Prefetch_miss 0
Core_0_STLB_cause_L1I_Prefetch_miss_rate 0
Core_0_STLB_cause_Other_miss 0
Core_0_STLB_cause_Other_miss_rate 0
Core_0_STLB_Demand_miss 14407041
Core_0_STLB_Demand_miss_rate 0.853276
Core_0_STLB_L1D_Prefetch_miss 0
Core_0_STLB_L1D_Prefetch_miss_rate 0
Core_0_STLB_Other_miss 0
Core_0_STLB_Other_miss_rate 0

========== vBerti-TLB Cross-page Flow Stats ==========

Core_0_vBerti_Requested 0
Core_0_vBerti_Cross_page_prefetch_in_Requested 0
Core_0_vBerti_Same_page_prefetch_in_Requested 0
Core_0_vBerti_Cross_page_prefetch_of_Requested 0
Core_0_vBerti_Issued 0
Core_0_vBerti_PQ_Drop_Rate 0
Core_0_vBerti_InPQ_Cross_page_prefetch_of_Requested 0
Core_0_vBerti_Cross_page_PQ_Drop_rate 0
Core_0_vBerti_Cross_page_prefetch_of_Issued 0

========= DTLB_vBerti Prefetch Stats =========
Core_0_DTLB_demand_access 38539559
Core_0_DTLB_demand_hit 21597903
Core_0_DTLB_demand_miss 16941656
Core_0_DTLB_demand_mshr_merge 57269
Core_0_DTLB_demand_fill 16884395
Core_0_DTLB_demand_miss_rate 0.439591
Core_0_DTLB_demand_mpki 169.417
Core_0_DTLB_vberti_prefetch_access 0
Core_0_DTLB_vberti_prefetch_hit 0
Core_0_DTLB_vberti_prefetch_miss 0
Core_0_DTLB_vberti_prefetch_mshr_merge 0
Core_0_DTLB_vberti_prefetch_fill 0
Core_0_DTLB_vberti_prefetch_miss_rate 0
Core_0_DTLB_vberti_prefetch_mpki 0

=== DTLB_vBerti Same/Cross-page Prefetch Stats ===
Core_0_DTLB_vberti_same_page_prefetch 0
Core_0_DTLB_vberti_same_page_prefetch_hit 0
Core_0_DTLB_vberti_same_page_prefetch_miss 0
Core_0_DTLB_vberti_same_page_prefetch_mshr_merge 0
Core_0_DTLB_vberti_same_page_prefetch_fill 0
Core_0_DTLB_vberti_same_page_prefetch_miss_rate 0
Core_0_DTLB_vberti_same_page_prefetch_mpki 0
Core_0_DTLB_vberti_cross_page_prefetch 0
Core_0_DTLB_vberti_cross_page_prefetch_hit 0
Core_0_DTLB_vberti_cross_page_prefetch_miss 0
Core_0_DTLB_vberti_cross_page_prefetch_mshr_merge 0
Core_0_DTLB_vberti_cross_page_prefetch_fill 0
Core_0_DTLB_vberti_cross_page_prefetch_miss_rate 0
Core_0_DTLB_vberti_cross_page_prefetch_mpki 0
Core_0_DTLB_same_page_prefetch_miss_rate 0
Core_0_DTLB_same_page_prefetch_mpki 0
Core_0_DTLB_cross_page_prefetch_miss_rate 0
Core_0_DTLB_cross_page_prefetch_mpki 0
Core_0_DTLB_cross_page_prefetch_issued 0
Core_0_DTLB_cross_page_prefetch_lookups 0
Core_0_DTLB_cross_page_prefetch_useful 0
Core_0_DTLB_cross_page_prefetch_useless 0
Core_0_DTLB_cross_page_prefetch_late 0
Core_0_DTLB_cross_page_prefetch_accuracy 0
Core_0_DTLB_cross_page_prefetch_coverage 0

========= STLB_vBerti Prefetch Stats =========
Core_0_STLB_demand_access 16884388
Core_0_STLB_demand_hit 2477347
Core_0_STLB_demand_miss 14407041
Core_0_STLB_demand_mshr_merge 0
Core_0_STLB_demand_fill 14407048
Core_0_STLB_demand_miss_rate 0.853276
Core_0_STLB_demand_mpki 144.07
Core_0_STLB_vberti_prefetch_access 0
Core_0_STLB_vberti_prefetch_hit 0
Core_0_STLB_vberti_prefetch_miss 0
Core_0_STLB_vberti_prefetch_mshr_merge 0
Core_0_STLB_vberti_prefetch_fill 0
Core_0_STLB_vberti_prefetch_miss_rate 0
Core_0_STLB_vberti_prefetch_mpki 0

=== STLB_vBerti Same/Cross-page Prefetch Stats ===
Core_0_STLB_vberti_same_page_prefetch 0
Core_0_STLB_vberti_same_page_prefetch_hit 0
Core_0_STLB_vberti_same_page_prefetch_miss 0
Core_0_STLB_vberti_same_page_prefetch_mshr_merge 0
Core_0_STLB_vberti_same_page_prefetch_fill 0
Core_0_STLB_vberti_same_page_prefetch_miss_rate 0
Core_0_STLB_vberti_same_page_prefetch_mpki 0
Core_0_STLB_vberti_cross_page_prefetch 0
Core_0_STLB_vberti_cross_page_prefetch_hit 0
Core_0_STLB_vberti_cross_page_prefetch_miss 0
Core_0_STLB_vberti_cross_page_prefetch_mshr_merge 0
Core_0_STLB_vberti_cross_page_prefetch_fill 0
Core_0_STLB_vberti_cross_page_prefetch_miss_rate 0
Core_0_STLB_vberti_cross_page_prefetch_mpki 0
Core_0_STLB_same_page_prefetch_miss_rate 0
Core_0_STLB_same_page_prefetch_mpki 0
Core_0_STLB_cross_page_prefetch_miss_rate 0
Core_0_STLB_cross_page_prefetch_mpki 0
Core_0_STLB_cross_page_prefetch_issued 0
Core_0_STLB_cross_page_prefetch_lookups 0
Core_0_STLB_cross_page_prefetch_useful 0
Core_0_STLB_cross_page_prefetch_useless 0
Core_0_STLB_cross_page_prefetch_late 0
Core_0_STLB_cross_page_prefetch_accuracy 0
Core_0_STLB_cross_page_prefetch_coverage 0

Core_0_TLB_demand_miss_rate 0.373825
Core_0_TLB_demand_mpki 144.07
Core_0_TLB_same_page_prefetch_miss_rate 0
Core_0_TLB_same_page_prefetch_mpki 0
Core_0_TLB_cross_page_prefetch_miss_rate 0
Core_0_TLB_cross_page_prefetch_mpki 0
Core_0_TLB_cross_page_prefetch_issued 0
Core_0_TLB_cross_page_prefetch_lookups 0
Core_0_TLB_cross_page_prefetch_useful 0
Core_0_TLB_cross_page_prefetch_useless 0
Core_0_TLB_cross_page_prefetch_late 0
Core_0_TLB_cross_page_prefetch_accuracy 0
Core_0_TLB_cross_page_prefetch_coverage 0
