[VMEM] WARNING: physical memory size is smaller than virtual memory size.

*** ChampSim Multicore Out-of-Order Simulator ***
Warmup Instructions: 50000000
Simulation Instructions: 100000000
Number of CPUs: 1
Page size: 4096
Core 0: /data2/zcq/champsim_traces_gap/pr.urand-2209B.champsimtrace.xz
Off-chip DRAM Size: 16 GiB Channels: 1 Width: 64-bit Data Rate: 3205 MT/s
Warmup halting CPU 0 at instruction 50000000 cycle 32947861 for remainder of phase
Warmup finished CPU 0 instructions: 50000000 cycles: 32947861 cumulative IPC: 1.518 (Simulation time: 00 hr 07 min 52 sec)
Warmup complete CPU 0 instructions: 50000000 cycles: 32947861 cumulative IPC: 1.518 (Simulation time: 00 hr 07 min 52 sec)
Simulation CPU 0 warning: IPC 0.021593 < 0.05
Simulation CPU 0 warning: IPC 0.021528 < 0.05
Simulation CPU 0 warning: IPC 0.021502 < 0.05
Simulation CPU 0 warning: IPC 0.021486 < 0.05
Simulation CPU 0 warning: IPC 0.021511 < 0.05
Simulation CPU 0 warning: IPC 0.021559 < 0.05
Simulation CPU 0 warning: IPC 0.021546 < 0.05
Simulation CPU 0 warning: IPC 0.021523 < 0.05
Simulation CPU 0 warning: IPC 0.021537 < 0.05
Simulation CPU 0 warning: IPC 0.021553 < 0.05
Simulation CPU 0 warning: IPC 0.021545 < 0.05
Simulation CPU 0 warning: IPC 0.021553 < 0.05
Simulation CPU 0 warning: IPC 0.021575 < 0.05
Simulation CPU 0 warning: IPC 0.021553 < 0.05
Simulation CPU 0 warning: IPC 0.021565 < 0.05
Simulation CPU 0 warning: IPC 0.021502 < 0.05
Simulation CPU 0 warning: IPC 0.021492 < 0.05
Simulation CPU 0 warning: IPC 0.021494 < 0.05
Simulation CPU 0 warning: IPC 0.021511 < 0.05
Simulation CPU 0 warning: IPC 0.021594 < 0.05
Simulation CPU 0 warning: IPC 0.021545 < 0.05
Simulation CPU 0 warning: IPC 0.02148 < 0.05
Simulation CPU 0 warning: IPC 0.021563 < 0.05
Simulation CPU 0 warning: IPC 0.021523 < 0.05
Simulation CPU 0 warning: IPC 0.021497 < 0.05
Simulation CPU 0 warning: IPC 0.021517 < 0.05
Simulation CPU 0 warning: IPC 0.021553 < 0.05
Simulation CPU 0 warning: IPC 0.02154 < 0.05
Simulation CPU 0 warning: IPC 0.021578 < 0.05
Simulation CPU 0 warning: IPC 0.021528 < 0.05
Simulation CPU 0 warning: IPC 0.021566 < 0.05
Simulation CPU 0 warning: IPC 0.021552 < 0.05
Simulation CPU 0 warning: IPC 0.021575 < 0.05
Simulation CPU 0 warning: IPC 0.021531 < 0.05
Simulation CPU 0 warning: IPC 0.02156 < 0.05
Simulation CPU 0 warning: IPC 0.021486 < 0.05
Simulation CPU 0 warning: IPC 0.021509 < 0.05
Simulation CPU 0 warning: IPC 0.021527 < 0.05
Simulation CPU 0 warning: IPC 0.021516 < 0.05
Simulation CPU 0 warning: IPC 0.021515 < 0.05
Simulation CPU 0 warning: IPC 0.021485 < 0.05
Simulation CPU 0 warning: IPC 0.02153 < 0.05
Simulation CPU 0 warning: IPC 0.021518 < 0.05
Simulation CPU 0 warning: IPC 0.021516 < 0.05
Simulation CPU 0 warning: IPC 0.021525 < 0.05
Simulation CPU 0 warning: IPC 0.021586 < 0.05
Simulation CPU 0 warning: IPC 0.021545 < 0.05
Simulation CPU 0 warning: IPC 0.021548 < 0.05
Simulation CPU 0 warning: IPC 0.021552 < 0.05
Simulation CPU 0 warning: IPC 0.021544 < 0.05
Simulation CPU 0 warning: IPC 0.021537 < 0.05
Simulation CPU 0 warning: IPC 0.021507 < 0.05
Simulation CPU 0 warning: IPC 0.021597 < 0.05
Simulation CPU 0 warning: IPC 0.021525 < 0.05
Simulation CPU 0 warning: IPC 0.021508 < 0.05
Simulation CPU 0 warning: IPC 0.021535 < 0.05
Simulation CPU 0 warning: IPC 0.021513 < 0.05
Simulation CPU 0 warning: IPC 0.021562 < 0.05
Simulation CPU 0 warning: IPC 0.021528 < 0.05
Simulation CPU 0 warning: IPC 0.021563 < 0.05
Simulation CPU 0 warning: IPC 0.021545 < 0.05
Simulation CPU 0 warning: IPC 0.021493 < 0.05
Simulation CPU 0 warning: IPC 0.02152 < 0.05
Simulation CPU 0 warning: IPC 0.021469 < 0.05
Simulation CPU 0 warning: IPC 0.021516 < 0.05
Simulation CPU 0 warning: IPC 0.021472 < 0.05
Simulation CPU 0 warning: IPC 0.021526 < 0.05
Simulation CPU 0 warning: IPC 0.021534 < 0.05
Simulation CPU 0 warning: IPC 0.021566 < 0.05
Simulation CPU 0 warning: IPC 0.021538 < 0.05
Simulation CPU 0 warning: IPC 0.021538 < 0.05
Simulation CPU 0 warning: IPC 0.021514 < 0.05
Simulation CPU 0 warning: IPC 0.02155 < 0.05
Simulation CPU 0 warning: IPC 0.021559 < 0.05
Simulation CPU 0 warning: IPC 0.021564 < 0.05
Simulation CPU 0 warning: IPC 0.021543 < 0.05
Simulation CPU 0 warning: IPC 0.021552 < 0.05
Simulation CPU 0 warning: IPC 0.021577 < 0.05
Simulation CPU 0 warning: IPC 0.02156 < 0.05
Simulation CPU 0 warning: IPC 0.021535 < 0.05
Simulation CPU 0 warning: IPC 0.021495 < 0.05
Simulation CPU 0 warning: IPC 0.021507 < 0.05
Simulation CPU 0 warning: IPC 0.021533 < 0.05
Simulation CPU 0 warning: IPC 0.021513 < 0.05
Simulation CPU 0 warning: IPC 0.021501 < 0.05
Simulation CPU 0 warning: IPC 0.02151 < 0.05
Simulation CPU 0 warning: IPC 0.021565 < 0.05
Simulation CPU 0 warning: IPC 0.021545 < 0.05
Simulation CPU 0 warning: IPC 0.021498 < 0.05
Simulation CPU 0 warning: IPC 0.021518 < 0.05
Simulation CPU 0 warning: IPC 0.02151 < 0.05
Simulation CPU 0 warning: IPC 0.021494 < 0.05
Simulation CPU 0 warning: IPC 0.021541 < 0.05
Simulation CPU 0 warning: IPC 0.021514 < 0.05
Simulation CPU 0 warning: IPC 0.021544 < 0.05
Simulation CPU 0 warning: IPC 0.021517 < 0.05
Simulation CPU 0 warning: IPC 0.021522 < 0.05
Simulation CPU 0 warning: IPC 0.021489 < 0.05
Simulation CPU 0 warning: IPC 0.021555 < 0.05
Simulation CPU 0 warning: IPC 0.021547 < 0.05
Simulation CPU 0 warning: IPC 0.021589 < 0.05
Simulation CPU 0 warning: IPC 0.021522 < 0.05
Simulation CPU 0 warning: IPC 0.021549 < 0.05
Simulation CPU 0 warning: IPC 0.021524 < 0.05
Simulation CPU 0 warning: IPC 0.021502 < 0.05
Simulation CPU 0 warning: IPC 0.021511 < 0.05
Simulation CPU 0 warning: IPC 0.021505 < 0.05
Simulation CPU 0 warning: IPC 0.021525 < 0.05
Simulation CPU 0 warning: IPC 0.021552 < 0.05
Simulation CPU 0 warning: IPC 0.021554 < 0.05
Simulation CPU 0 warning: IPC 0.021531 < 0.05
Simulation CPU 0 warning: IPC 0.021466 < 0.05
Simulation CPU 0 warning: IPC 0.021507 < 0.05
Simulation CPU 0 warning: IPC 0.021565 < 0.05
Simulation CPU 0 warning: IPC 0.02159 < 0.05
Simulation CPU 0 warning: IPC 0.021507 < 0.05
Simulation CPU 0 warning: IPC 0.021504 < 0.05
Simulation CPU 0 warning: IPC 0.02155 < 0.05
Simulation CPU 0 warning: IPC 0.021565 < 0.05
Simulation CPU 0 warning: IPC 0.021528 < 0.05
Simulation CPU 0 warning: IPC 0.02154 < 0.05
Simulation CPU 0 warning: IPC 0.021471 < 0.05
Simulation CPU 0 warning: IPC 0.021556 < 0.05
Simulation CPU 0 warning: IPC 0.021521 < 0.05
Simulation CPU 0 warning: IPC 0.02155 < 0.05
Simulation CPU 0 warning: IPC 0.021575 < 0.05
Simulation CPU 0 warning: IPC 0.021528 < 0.05
Simulation CPU 0 warning: IPC 0.021501 < 0.05
Simulation CPU 0 warning: IPC 0.021537 < 0.05
Simulation CPU 0 warning: IPC 0.021537 < 0.05
Simulation CPU 0 warning: IPC 0.021538 < 0.05
Simulation CPU 0 warning: IPC 0.021513 < 0.05
Simulation CPU 0 warning: IPC 0.021528 < 0.05
Simulation CPU 0 warning: IPC 0.02159 < 0.05
Simulation CPU 0 warning: IPC 0.021554 < 0.05
Simulation CPU 0 warning: IPC 0.021569 < 0.05
Simulation CPU 0 warning: IPC 0.021506 < 0.05
Simulation CPU 0 warning: IPC 0.021513 < 0.05
Simulation CPU 0 warning: IPC 0.021556 < 0.05
Simulation CPU 0 warning: IPC 0.02151 < 0.05
Simulation CPU 0 warning: IPC 0.021536 < 0.05
Simulation CPU 0 warning: IPC 0.021487 < 0.05
Simulation CPU 0 warning: IPC 0.021488 < 0.05
Simulation CPU 0 warning: IPC 0.02155 < 0.05
Simulation CPU 0 warning: IPC 0.021526 < 0.05
Simulation CPU 0 warning: IPC 0.021572 < 0.05
Simulation CPU 0 warning: IPC 0.02153 < 0.05
Simulation CPU 0 warning: IPC 0.021564 < 0.05
Simulation CPU 0 warning: IPC 0.021569 < 0.05
Simulation CPU 0 warning: IPC 0.021511 < 0.05
Simulation CPU 0 warning: IPC 0.021504 < 0.05
Simulation CPU 0 warning: IPC 0.021556 < 0.05
Simulation CPU 0 warning: IPC 0.021538 < 0.05
Simulation CPU 0 warning: IPC 0.021583 < 0.05
Simulation CPU 0 warning: IPC 0.02152 < 0.05
Simulation CPU 0 warning: IPC 0.021505 < 0.05
Simulation CPU 0 warning: IPC 0.021559 < 0.05
Simulation CPU 0 warning: IPC 0.02155 < 0.05
Simulation CPU 0 warning: IPC 0.021519 < 0.05
Simulation CPU 0 warning: IPC 0.021557 < 0.05
Simulation CPU 0 warning: IPC 0.021546 < 0.05
Simulation CPU 0 warning: IPC 0.021536 < 0.05
Simulation CPU 0 warning: IPC 0.021492 < 0.05
Simulation CPU 0 warning: IPC 0.021475 < 0.05
Simulation CPU 0 warning: IPC 0.021505 < 0.05
Simulation CPU 0 warning: IPC 0.021527 < 0.05
Simulation CPU 0 warning: IPC 0.021522 < 0.05
Simulation CPU 0 warning: IPC 0.021559 < 0.05
Simulation CPU 0 warning: IPC 0.021535 < 0.05
Simulation CPU 0 warning: IPC 0.02152 < 0.05
Simulation CPU 0 warning: IPC 0.021549 < 0.05
Simulation CPU 0 warning: IPC 0.021518 < 0.05
Simulation CPU 0 warning: IPC 0.021518 < 0.05
Simulation CPU 0 warning: IPC 0.021539 < 0.05
Simulation CPU 0 warning: IPC 0.021517 < 0.05
Simulation CPU 0 warning: IPC 0.021519 < 0.05
Simulation CPU 0 warning: IPC 0.021509 < 0.05
Simulation CPU 0 warning: IPC 0.02153 < 0.05
Simulation CPU 0 warning: IPC 0.02152 < 0.05
Simulation CPU 0 warning: IPC 0.021534 < 0.05
Simulation CPU 0 warning: IPC 0.021553 < 0.05
Simulation CPU 0 warning: IPC 0.021572 < 0.05
Simulation CPU 0 warning: IPC 0.021578 < 0.05
Simulation CPU 0 warning: IPC 0.021567 < 0.05
Simulation CPU 0 warning: IPC 0.021486 < 0.05
Simulation CPU 0 warning: IPC 0.021512 < 0.05
Simulation CPU 0 warning: IPC 0.021541 < 0.05
Simulation CPU 0 warning: IPC 0.021552 < 0.05
Simulation CPU 0 warning: IPC 0.021544 < 0.05
Simulation CPU 0 warning: IPC 0.021528 < 0.05
Simulation CPU 0 warning: IPC 0.021523 < 0.05
Simulation CPU 0 warning: IPC 0.021559 < 0.05
Simulation CPU 0 warning: IPC 0.021529 < 0.05
Simulation CPU 0 warning: IPC 0.021549 < 0.05
Simulation CPU 0 warning: IPC 0.021501 < 0.05
Simulation CPU 0 warning: IPC 0.021511 < 0.05
Simulation CPU 0 warning: IPC 0.021509 < 0.05
Simulation CPU 0 warning: IPC 0.021576 < 0.05
Simulation CPU 0 warning: IPC 0.021502 < 0.05
Simulation CPU 0 warning: IPC 0.021524 < 0.05
Simulation CPU 0 warning: IPC 0.021508 < 0.05
Simulation CPU 0 warning: IPC 0.021566 < 0.05
Simulation CPU 0 warning: IPC 0.021518 < 0.05
Simulation CPU 0 warning: IPC 0.021507 < 0.05
Simulation CPU 0 warning: IPC 0.02155 < 0.05
Simulation CPU 0 warning: IPC 0.021555 < 0.05
Simulation CPU 0 warning: IPC 0.021525 < 0.05
Simulation CPU 0 warning: IPC 0.021538 < 0.05
Simulation CPU 0 warning: IPC 0.021501 < 0.05
Simulation CPU 0 warning: IPC 0.021491 < 0.05
Simulation CPU 0 warning: IPC 0.021534 < 0.05
Simulation CPU 0 warning: IPC 0.021577 < 0.05
Simulation CPU 0 warning: IPC 0.021537 < 0.05
Simulation CPU 0 warning: IPC 0.021538 < 0.05
Simulation CPU 0 warning: IPC 0.02153 < 0.05
Simulation CPU 0 warning: IPC 0.021509 < 0.05
Simulation CPU 0 warning: IPC 0.021494 < 0.05
Simulation CPU 0 warning: IPC 0.021515 < 0.05
Simulation CPU 0 warning: IPC 0.02154 < 0.05
Simulation CPU 0 warning: IPC 0.021539 < 0.05
Simulation CPU 0 warning: IPC 0.021497 < 0.05
Simulation CPU 0 warning: IPC 0.021555 < 0.05
Simulation CPU 0 warning: IPC 0.021587 < 0.05
Simulation CPU 0 warning: IPC 0.021543 < 0.05
Simulation CPU 0 warning: IPC 0.021521 < 0.05
Simulation CPU 0 warning: IPC 0.021517 < 0.05
Simulation CPU 0 warning: IPC 0.021561 < 0.05
Simulation CPU 0 warning: IPC 0.021549 < 0.05
Simulation CPU 0 warning: IPC 0.021594 < 0.05
Simulation CPU 0 warning: IPC 0.021555 < 0.05
Simulation CPU 0 warning: IPC 0.021594 < 0.05
Simulation CPU 0 warning: IPC 0.021535 < 0.05
Simulation CPU 0 warning: IPC 0.021551 < 0.05
Simulation CPU 0 warning: IPC 0.021532 < 0.05
Simulation CPU 0 warning: IPC 0.021505 < 0.05
Simulation CPU 0 warning: IPC 0.021517 < 0.05
Simulation CPU 0 warning: IPC 0.021521 < 0.05
Simulation CPU 0 warning: IPC 0.021478 < 0.05
Simulation CPU 0 warning: IPC 0.021492 < 0.05
Simulation CPU 0 warning: IPC 0.021553 < 0.05
Simulation CPU 0 warning: IPC 0.021493 < 0.05
Simulation CPU 0 warning: IPC 0.021559 < 0.05
Simulation CPU 0 warning: IPC 0.021561 < 0.05
Simulation CPU 0 warning: IPC 0.021565 < 0.05
Simulation CPU 0 warning: IPC 0.021566 < 0.05
Simulation CPU 0 warning: IPC 0.021515 < 0.05
Simulation CPU 0 warning: IPC 0.021585 < 0.05
Simulation CPU 0 warning: IPC 0.021556 < 0.05
Simulation CPU 0 warning: IPC 0.021615 < 0.05
Simulation CPU 0 warning: IPC 0.021515 < 0.05
Simulation CPU 0 warning: IPC 0.021481 < 0.05
Simulation CPU 0 warning: IPC 0.021515 < 0.05
Simulation CPU 0 warning: IPC 0.021564 < 0.05
Simulation CPU 0 warning: IPC 0.021531 < 0.05
Simulation CPU 0 warning: IPC 0.021561 < 0.05
Simulation CPU 0 warning: IPC 0.021554 < 0.05
Simulation CPU 0 warning: IPC 0.021565 < 0.05
Simulation CPU 0 warning: IPC 0.021559 < 0.05
Simulation CPU 0 warning: IPC 0.021576 < 0.05
Simulation CPU 0 warning: IPC 0.021565 < 0.05
Simulation CPU 0 warning: IPC 0.021513 < 0.05
Simulation CPU 0 warning: IPC 0.021548 < 0.05
Simulation CPU 0 warning: IPC 0.02151 < 0.05
Simulation CPU 0 warning: IPC 0.021581 < 0.05
Simulation CPU 0 warning: IPC 0.021583 < 0.05
Simulation CPU 0 warning: IPC 0.021523 < 0.05
Simulation CPU 0 warning: IPC 0.021587 < 0.05
Simulation CPU 0 warning: IPC 0.021551 < 0.05
Simulation CPU 0 warning: IPC 0.021528 < 0.05
Simulation CPU 0 warning: IPC 0.021559 < 0.05
Simulation CPU 0 warning: IPC 0.021533 < 0.05
Simulation CPU 0 warning: IPC 0.021548 < 0.05
Simulation CPU 0 warning: IPC 0.021537 < 0.05
Simulation CPU 0 warning: IPC 0.021548 < 0.05
Simulation CPU 0 warning: IPC 0.021528 < 0.05
Simulation CPU 0 warning: IPC 0.021507 < 0.05
Simulation CPU 0 warning: IPC 0.021583 < 0.05
Simulation CPU 0 warning: IPC 0.021583 < 0.05
Simulation CPU 0 warning: IPC 0.021522 < 0.05
Simulation CPU 0 warning: IPC 0.021513 < 0.05
Simulation CPU 0 warning: IPC 0.021491 < 0.05
Simulation CPU 0 warning: IPC 0.021505 < 0.05
Simulation CPU 0 warning: IPC 0.021501 < 0.05
Simulation CPU 0 warning: IPC 0.021527 < 0.05
Simulation CPU 0 warning: IPC 0.021565 < 0.05
Simulation CPU 0 warning: IPC 0.021565 < 0.05
Simulation CPU 0 warning: IPC 0.021501 < 0.05
Simulation CPU 0 warning: IPC 0.021522 < 0.05
Simulation CPU 0 warning: IPC 0.021468 < 0.05
Simulation CPU 0 warning: IPC 0.021464 < 0.05
Simulation CPU 0 warning: IPC 0.021492 < 0.05
Simulation CPU 0 warning: IPC 0.021491 < 0.05
Simulation CPU 0 warning: IPC 0.021535 < 0.05
Simulation CPU 0 warning: IPC 0.021506 < 0.05
Simulation CPU 0 warning: IPC 0.021529 < 0.05
Simulation CPU 0 warning: IPC 0.021547 < 0.05
Simulation CPU 0 warning: IPC 0.021521 < 0.05
Simulation CPU 0 warning: IPC 0.021552 < 0.05
Simulation CPU 0 warning: IPC 0.021537 < 0.05
Simulation CPU 0 warning: IPC 0.021522 < 0.05
Simulation CPU 0 warning: IPC 0.021508 < 0.05
Simulation CPU 0 warning: IPC 0.021501 < 0.05
Simulation CPU 0 warning: IPC 0.02156 < 0.05
Simulation CPU 0 warning: IPC 0.021528 < 0.05
Simulation CPU 0 warning: IPC 0.021553 < 0.05
Simulation CPU 0 warning: IPC 0.02155 < 0.05
Simulation CPU 0 warning: IPC 0.021535 < 0.05
Simulation CPU 0 warning: IPC 0.021552 < 0.05
Simulation CPU 0 warning: IPC 0.021476 < 0.05
Simulation CPU 0 warning: IPC 0.021505 < 0.05
Simulation CPU 0 warning: IPC 0.021579 < 0.05
Simulation CPU 0 warning: IPC 0.021527 < 0.05
Simulation CPU 0 warning: IPC 0.021558 < 0.05
Simulation CPU 0 warning: IPC 0.021569 < 0.05
Simulation CPU 0 warning: IPC 0.021553 < 0.05
Simulation CPU 0 warning: IPC 0.02153 < 0.05
Simulation CPU 0 warning: IPC 0.021561 < 0.05
Simulation CPU 0 warning: IPC 0.021524 < 0.05
Simulation CPU 0 warning: IPC 0.021534 < 0.05
Simulation CPU 0 warning: IPC 0.02158 < 0.05
Simulation CPU 0 warning: IPC 0.021508 < 0.05
Simulation CPU 0 warning: IPC 0.021525 < 0.05
Simulation CPU 0 warning: IPC 0.021546 < 0.05
Simulation CPU 0 warning: IPC 0.021543 < 0.05
Simulation CPU 0 warning: IPC 0.021555 < 0.05
Simulation CPU 0 warning: IPC 0.021535 < 0.05
Simulation CPU 0 warning: IPC 0.021535 < 0.05
Simulation CPU 0 warning: IPC 0.021524 < 0.05
Simulation CPU 0 warning: IPC 0.021501 < 0.05
Simulation CPU 0 warning: IPC 0.021525 < 0.05
Simulation CPU 0 warning: IPC 0.021507 < 0.05
Simulation CPU 0 warning: IPC 0.021549 < 0.05
Simulation CPU 0 warning: IPC 0.021532 < 0.05
Simulation CPU 0 warning: IPC 0.021539 < 0.05
Simulation CPU 0 warning: IPC 0.021514 < 0.05
Simulation CPU 0 warning: IPC 0.021567 < 0.05
Simulation CPU 0 warning: IPC 0.021555 < 0.05
Simulation CPU 0 warning: IPC 0.021498 < 0.05
Simulation CPU 0 warning: IPC 0.021511 < 0.05
Simulation CPU 0 warning: IPC 0.021528 < 0.05
Simulation CPU 0 warning: IPC 0.021511 < 0.05
Simulation CPU 0 warning: IPC 0.021517 < 0.05
Simulation CPU 0 warning: IPC 0.021542 < 0.05
Simulation CPU 0 warning: IPC 0.021521 < 0.05
Simulation CPU 0 warning: IPC 0.021558 < 0.05
Simulation CPU 0 warning: IPC 0.021505 < 0.05
Simulation CPU 0 warning: IPC 0.021516 < 0.05
Simulation CPU 0 warning: IPC 0.021533 < 0.05
Simulation CPU 0 warning: IPC 0.021539 < 0.05
Simulation CPU 0 warning: IPC 0.021545 < 0.05
Simulation CPU 0 warning: IPC 0.02151 < 0.05
Simulation CPU 0 warning: IPC 0.021464 < 0.05
Simulation CPU 0 warning: IPC 0.021528 < 0.05
Simulation CPU 0 warning: IPC 0.021538 < 0.05
Simulation CPU 0 warning: IPC 0.02149 < 0.05
Simulation CPU 0 warning: IPC 0.021503 < 0.05
Simulation CPU 0 warning: IPC 0.021475 < 0.05
Simulation CPU 0 warning: IPC 0.021501 < 0.05
Simulation CPU 0 warning: IPC 0.021535 < 0.05
Simulation CPU 0 warning: IPC 0.021514 < 0.05
Simulation CPU 0 warning: IPC 0.021548 < 0.05
Simulation CPU 0 warning: IPC 0.021538 < 0.05
Simulation CPU 0 warning: IPC 0.021542 < 0.05
Simulation CPU 0 warning: IPC 0.021536 < 0.05
Simulation CPU 0 warning: IPC 0.021537 < 0.05
Simulation CPU 0 warning: IPC 0.021518 < 0.05
Simulation CPU 0 warning: IPC 0.021517 < 0.05
Simulation CPU 0 warning: IPC 0.021524 < 0.05
Simulation CPU 0 warning: IPC 0.021544 < 0.05
Simulation CPU 0 warning: IPC 0.021521 < 0.05
Simulation CPU 0 warning: IPC 0.021495 < 0.05
Simulation CPU 0 warning: IPC 0.021511 < 0.05
Simulation CPU 0 warning: IPC 0.021514 < 0.05
Simulation CPU 0 warning: IPC 0.021561 < 0.05
Simulation CPU 0 warning: IPC 0.021481 < 0.05
Simulation CPU 0 warning: IPC 0.021533 < 0.05
Simulation CPU 0 warning: IPC 0.021537 < 0.05
Simulation CPU 0 warning: IPC 0.021492 < 0.05
Simulation CPU 0 warning: IPC 0.021524 < 0.05
Simulation CPU 0 warning: IPC 0.021522 < 0.05
Simulation CPU 0 warning: IPC 0.021485 < 0.05
Simulation CPU 0 warning: IPC 0.021533 < 0.05
Simulation CPU 0 warning: IPC 0.021525 < 0.05
Simulation CPU 0 warning: IPC 0.021514 < 0.05
Simulation CPU 0 warning: IPC 0.021543 < 0.05
Simulation CPU 0 warning: IPC 0.021514 < 0.05
Simulation CPU 0 warning: IPC 0.021552 < 0.05
Simulation CPU 0 warning: IPC 0.021551 < 0.05
Simulation CPU 0 warning: IPC 0.021541 < 0.05
Simulation CPU 0 warning: IPC 0.021547 < 0.05
Simulation CPU 0 warning: IPC 0.021591 < 0.05
Simulation CPU 0 warning: IPC 0.021559 < 0.05
Simulation CPU 0 warning: IPC 0.021552 < 0.05
Simulation CPU 0 warning: IPC 0.02159 < 0.05
Simulation CPU 0 warning: IPC 0.021554 < 0.05
Simulation CPU 0 warning: IPC 0.021511 < 0.05
Simulation CPU 0 warning: IPC 0.021524 < 0.05
Simulation CPU 0 warning: IPC 0.021532 < 0.05
Simulation CPU 0 warning: IPC 0.02155 < 0.05
Simulation CPU 0 warning: IPC 0.021563 < 0.05
Simulation CPU 0 warning: IPC 0.021563 < 0.05
Simulation CPU 0 warning: IPC 0.021529 < 0.05
Simulation CPU 0 warning: IPC 0.021516 < 0.05
Simulation CPU 0 warning: IPC 0.02148 < 0.05
Simulation CPU 0 warning: IPC 0.021521 < 0.05
Simulation CPU 0 warning: IPC 0.021512 < 0.05
Simulation CPU 0 warning: IPC 0.021465 < 0.05
Simulation CPU 0 warning: IPC 0.021536 < 0.05
Simulation CPU 0 warning: IPC 0.021509 < 0.05
Simulation CPU 0 warning: IPC 0.021496 < 0.05
Simulation CPU 0 warning: IPC 0.021492 < 0.05
Simulation CPU 0 warning: IPC 0.02152 < 0.05
Simulation CPU 0 warning: IPC 0.021524 < 0.05
Simulation CPU 0 warning: IPC 0.021501 < 0.05
Simulation CPU 0 warning: IPC 0.021498 < 0.05
Simulation CPU 0 warning: IPC 0.021534 < 0.05
Simulation CPU 0 warning: IPC 0.021531 < 0.05
Simulation CPU 0 warning: IPC 0.021478 < 0.05
Simulation CPU 0 warning: IPC 0.021537 < 0.05
Simulation CPU 0 warning: IPC 0.021555 < 0.05
Simulation CPU 0 warning: IPC 0.021552 < 0.05
Simulation CPU 0 warning: IPC 0.021545 < 0.05
Simulation CPU 0 warning: IPC 0.021542 < 0.05
Simulation CPU 0 warning: IPC 0.021515 < 0.05
Simulation CPU 0 warning: IPC 0.021554 < 0.05
Simulation CPU 0 warning: IPC 0.021564 < 0.05
Simulation CPU 0 warning: IPC 0.021528 < 0.05
Simulation CPU 0 warning: IPC 0.021558 < 0.05
Simulation CPU 0 warning: IPC 0.021576 < 0.05
Simulation CPU 0 warning: IPC 0.021587 < 0.05
Simulation CPU 0 warning: IPC 0.021526 < 0.05
Simulation CPU 0 warning: IPC 0.021511 < 0.05
Simulation CPU 0 warning: IPC 0.021508 < 0.05
Simulation CPU 0 warning: IPC 0.02151 < 0.05
Simulation CPU 0 warning: IPC 0.021603 < 0.05
Simulation CPU 0 warning: IPC 0.021529 < 0.05
Simulation CPU 0 warning: IPC 0.021543 < 0.05
Simulation CPU 0 warning: IPC 0.021542 < 0.05
Simulation CPU 0 warning: IPC 0.021537 < 0.05
Simulation CPU 0 warning: IPC 0.021562 < 0.05
Simulation CPU 0 warning: IPC 0.021481 < 0.05
Simulation CPU 0 warning: IPC 0.021461 < 0.05
Simulation CPU 0 warning: IPC 0.021526 < 0.05
Simulation CPU 0 warning: IPC 0.021558 < 0.05
Simulation CPU 0 warning: IPC 0.021528 < 0.05
Simulation CPU 0 warning: IPC 0.02153 < 0.05
Simulation CPU 0 warning: IPC 0.021514 < 0.05
Simulation CPU 0 warning: IPC 0.021521 < 0.05
Simulation CPU 0 warning: IPC 0.021554 < 0.05
Simulation CPU 0 warning: IPC 0.021536 < 0.05
Simulation CPU 0 warning: IPC 0.02157 < 0.05
Simulation CPU 0 warning: IPC 0.021553 < 0.05
Simulation CPU 0 warning: IPC 0.021513 < 0.05
Simulation CPU 0 warning: IPC 0.021506 < 0.05
Simulation CPU 0 warning: IPC 0.021512 < 0.05
Simulation CPU 0 warning: IPC 0.021552 < 0.05
Simulation CPU 0 warning: IPC 0.021503 < 0.05
Simulation CPU 0 warning: IPC 0.021513 < 0.05
Simulation CPU 0 warning: IPC 0.021559 < 0.05
Simulation CPU 0 warning: IPC 0.021561 < 0.05
Simulation CPU 0 warning: IPC 0.021553 < 0.05
Simulation CPU 0 warning: IPC 0.021509 < 0.05
Simulation CPU 0 warning: IPC 0.021532 < 0.05
Simulation CPU 0 warning: IPC 0.021523 < 0.05
Simulation finished CPU 0 instructions: 100000003 cycles: 4644227250 cumulative IPC: 0.02153 (Simulation time: 06 hr 37 min 10 sec)
Simulation complete CPU 0 instructions: 100000003 cycles: 4644227250 cumulative IPC: 0.02153 (Simulation time: 06 hr 37 min 10 sec)

ChampSim completed all CPUs

=== Simulation ===
CPU 0 runs /data2/zcq/champsim_traces_gap/pr.urand-2209B.champsimtrace.xz

Region of Interest Statistics

CPU 0 cumulative IPC: 0.02153 instructions: 100000003 cycles: 4644227250
CPU 0 Branch Prediction Accuracy: 97.02% MPKI: 5.683 Average ROB Occupancy at Mispredict: 346.1
Branch type MPKI
BRANCH_DIRECT_JUMP: 0
BRANCH_INDIRECT: 0
BRANCH_CONDITIONAL: 5.683
BRANCH_DIRECT_CALL: 0
BRANCH_INDIRECT_CALL: 0
BRANCH_RETURN: 0

cpu0->cpu0_STLB TOTAL        ACCESS:   18203969 HIT:     459750 MISS:   17744219 MSHR_MERGE:          0
cpu0->cpu0_STLB LOAD         ACCESS:   18203969 HIT:     459750 MISS:   17744219 MSHR_MERGE:          0
cpu0->cpu0_STLB RFO          ACCESS:          0 HIT:          0 MISS:          0 MSHR_MERGE:          0
cpu0->cpu0_STLB PREFETCH     ACCESS:          0 HIT:          0 MISS:          0 MSHR_MERGE:          0
cpu0->cpu0_STLB WRITE        ACCESS:          0 HIT:          0 MISS:          0 MSHR_MERGE:          0
cpu0->cpu0_STLB TRANSLATION  ACCESS:          0 HIT:          0 MISS:          0 MSHR_MERGE:          0
cpu0->cpu0_STLB PREFETCH REQUESTED:          0 ISSUED:          0 USEFUL:          0 USELESS:          0 LATE:          0 TOO_EARLY:          0
cpu0->cpu0_STLB AVERAGE MISS LATENCY: 38.36 cycles
cpu0->cpu0_L2C TOTAL        ACCESS:   40191517 HIT:    7060115 MISS:   33131402 MSHR_MERGE:      18709
cpu0->cpu0_L2C LOAD         ACCESS:   19196715 HIT:    1241548 MISS:   17955167 MSHR_MERGE:        333
cpu0->cpu0_L2C RFO          ACCESS:      17484 HIT:      17213 MISS:        271 MSHR_MERGE:          0
cpu0->cpu0_L2C PREFETCH     ACCESS:    3441379 HIT:    2256486 MISS:    1184893 MSHR_MERGE:      18376
cpu0->cpu0_L2C WRITE        ACCESS:      61195 HIT:      61186 MISS:          9 MSHR_MERGE:          0
cpu0->cpu0_L2C TRANSLATION  ACCESS:   17474744 HIT:    3483682 MISS:   13991062 MSHR_MERGE:          0
cpu0->cpu0_L2C PREFETCH REQUESTED:    3441379 ISSUED:    3441379 USEFUL:    1166513 USELESS:          1 LATE:        333 TOO_EARLY:          0
cpu0->cpu0_L2C AVERAGE MISS LATENCY: 119.2 cycles
cpu0->cpu0_L1I TOTAL        ACCESS:     350711 HIT:     350711 MISS:          0 MSHR_MERGE:          0
cpu0->cpu0_L1I LOAD         ACCESS:     350711 HIT:     350711 MISS:          0 MSHR_MERGE:          0
cpu0->cpu0_L1I RFO          ACCESS:          0 HIT:          0 MISS:          0 MSHR_MERGE:          0
cpu0->cpu0_L1I PREFETCH     ACCESS:          0 HIT:          0 MISS:          0 MSHR_MERGE:          0
cpu0->cpu0_L1I WRITE        ACCESS:          0 HIT:          0 MISS:          0 MSHR_MERGE:          0
cpu0->cpu0_L1I TRANSLATION  ACCESS:          0 HIT:          0 MISS:          0 MSHR_MERGE:          0
cpu0->cpu0_L1I PREFETCH REQUESTED:          0 ISSUED:          0 USEFUL:          0 USELESS:          0 LATE:          0 TOO_EARLY:          0
cpu0->cpu0_L1I AVERAGE MISS LATENCY: - cycles
cpu0->cpu0_L1D TOTAL        ACCESS:   89360278 HIT:   52270049 MISS:   37090229 MSHR_MERGE:     401287
cpu0->cpu0_L1D LOAD         ACCESS:   37623150 HIT:   18060122 MISS:   19563028 MSHR_MERGE:     366314
cpu0->cpu0_L1D RFO          ACCESS:          0 HIT:          0 MISS:          0 MSHR_MERGE:          0
cpu0->cpu0_L1D PREFETCH     ACCESS:          0 HIT:          0 MISS:          0 MSHR_MERGE:          0
cpu0->cpu0_L1D WRITE        ACCESS:     638176 HIT:     585724 MISS:      52452 MSHR_MERGE:      34968
cpu0->cpu0_L1D TRANSLATION  ACCESS:   51098952 HIT:   33624203 MISS:   17474749 MSHR_MERGE:          5
cpu0->cpu0_L1D PREFETCH REQUESTED:          0 ISSUED:          0 USEFUL:          0 USELESS:          0 LATE:          0 TOO_EARLY:          0
cpu0->cpu0_L1D AVERAGE MISS LATENCY: 112.6 cycles
cpu0->cpu0_ITLB TOTAL        ACCESS:     350703 HIT:     350703 MISS:          0 MSHR_MERGE:          0
cpu0->cpu0_ITLB LOAD         ACCESS:     350703 HIT:     350703 MISS:          0 MSHR_MERGE:          0
cpu0->cpu0_ITLB RFO          ACCESS:          0 HIT:          0 MISS:          0 MSHR_MERGE:          0
cpu0->cpu0_ITLB PREFETCH     ACCESS:          0 HIT:          0 MISS:          0 MSHR_MERGE:          0
cpu0->cpu0_ITLB WRITE        ACCESS:          0 HIT:          0 MISS:          0 MSHR_MERGE:          0
cpu0->cpu0_ITLB TRANSLATION  ACCESS:          0 HIT:          0 MISS:          0 MSHR_MERGE:          0
cpu0->cpu0_ITLB PREFETCH REQUESTED:          0 ISSUED:          0 USEFUL:          0 USELESS:          0 LATE:          0 TOO_EARLY:          0
cpu0->cpu0_ITLB AVERAGE MISS LATENCY: - cycles
cpu0->cpu0_DTLB TOTAL        ACCESS:   38252583 HIT:   19989278 MISS:   18263305 MSHR_MERGE:      59337
cpu0->cpu0_DTLB LOAD         ACCESS:   38252583 HIT:   19989278 MISS:   18263305 MSHR_MERGE:      59337
cpu0->cpu0_DTLB RFO          ACCESS:          0 HIT:          0 MISS:          0 MSHR_MERGE:          0
cpu0->cpu0_DTLB PREFETCH     ACCESS:          0 HIT:          0 MISS:          0 MSHR_MERGE:          0
cpu0->cpu0_DTLB WRITE        ACCESS:          0 HIT:          0 MISS:          0 MSHR_MERGE:          0
cpu0->cpu0_DTLB TRANSLATION  ACCESS:          0 HIT:          0 MISS:          0 MSHR_MERGE:          0
cpu0->cpu0_DTLB PREFETCH REQUESTED:          0 ISSUED:          0 USEFUL:          0 USELESS:          0 LATE:          0 TOO_EARLY:          0
cpu0->cpu0_DTLB AVERAGE MISS LATENCY: 43.36 cycles
cpu0->LLC TOTAL        ACCESS:   33148599 HIT:   13650561 MISS:   19498038 MSHR_MERGE:          1
cpu0->LLC LOAD         ACCESS:   17954834 HIT:      30668 MISS:   17924166 MSHR_MERGE:          0
cpu0->LLC RFO          ACCESS:        271 HIT:        271 MISS:          0 MSHR_MERGE:          0
cpu0->LLC PREFETCH     ACCESS:    1166517 HIT:          1 MISS:    1166516 MSHR_MERGE:          1
cpu0->LLC WRITE        ACCESS:      35915 HIT:       7335 MISS:      28580 MSHR_MERGE:          0
cpu0->LLC TRANSLATION  ACCESS:   13991062 HIT:   13612286 MISS:     378776 MSHR_MERGE:          0
cpu0->LLC PREFETCH REQUESTED:          0 ISSUED:          0 USEFUL:          0 USELESS:          0 LATE:          0 TOO_EARLY:          0
cpu0->LLC AVERAGE MISS LATENCY: 180.5 cycles

DRAM Statistics

Channel 0 RQ ROW_BUFFER_HIT:        255
  ROW_BUFFER_MISS:   19469202
  AVG DBUS CONGESTED CYCLE: 17.87
Channel 0 WQ ROW_BUFFER_HIT:       2769
  ROW_BUFFER_MISS:      32358
  FULL:          0
Channel 0 REFRESHES ISSUED:     387019

[ROI Statistics]
[System Configuration]
num_cpus 1
cpu_freq 4000
fetch_width 6
decode_width 6
dispatch_width 6
execute_width 6
lq_width 2
sq_width 2
retire_width 6
scheduler_size 128
branch_mispredict_penalty 15
rob_size 352
lq_size 128
sq_size 72
ifetch_buffer_size 64
decode_buffer_size 32
dispatch_buffer_size 32
register_file_size 288
decode_latency 1
dispatch_latency 1
schedule_latency 1
execute_latency 1
page_size 4096
block_size 64
core_0_itlb_set 16
core_0_itlb_way 4
core_0_itlb_rq_size 16
core_0_itlb_wq_size 16
core_0_itlb_pq_size 0
core_0_itlb_mshr_size 8
core_0_itlb_hit_latency 1
core_0_itlb_fill_latency 1
core_0_itlb_max_tag_check 2
core_0_itlb_max_fill 2
core_0_dtlb_set 16
core_0_dtlb_way 4
core_0_dtlb_rq_size 16
core_0_dtlb_wq_size 16
core_0_dtlb_pq_size 0
core_0_dtlb_mshr_size 8
core_0_dtlb_hit_latency 1
core_0_dtlb_fill_latency 1
core_0_dtlb_max_tag_check 2
core_0_dtlb_max_fill 2
core_0_stlb_set 128
core_0_stlb_way 12
core_0_stlb_rq_size 32
core_0_stlb_wq_size 32
core_0_stlb_pq_size 0
core_0_stlb_mshr_size 16
core_0_stlb_hit_latency 4
core_0_stlb_fill_latency 4
core_0_stlb_max_tag_check 1
core_0_stlb_max_fill 1
core_0_l1i_set 64
core_0_l1i_way 8
core_0_l1i_rq_size 64
core_0_l1i_wq_size 64
core_0_l1i_pq_size 32
core_0_l1i_mshr_size 8
core_0_l1i_hit_latency 2
core_0_l1i_fill_latency 2
core_0_l1i_max_tag_check 2
core_0_l1i_max_fill 2
core_0_l1d_set 64
core_0_l1d_way 12
core_0_l1d_rq_size 64
core_0_l1d_wq_size 64
core_0_l1d_pq_size 8
core_0_l1d_mshr_size 16
core_0_l1d_hit_latency 2
core_0_l1d_fill_latency 3
core_0_l1d_max_tag_check 2
core_0_l1d_max_fill 2
core_0_l2c_set 1024
core_0_l2c_way 8
core_0_l2c_rq_size 32
core_0_l2c_wq_size 32
core_0_l2c_pq_size 16
core_0_l2c_mshr_size 32
core_0_l2c_hit_latency 5
core_0_l2c_fill_latency 5
core_0_l2c_max_tag_check 1
core_0_l2c_max_fill 1
llc_set 2048
llc_way 16
llc_rq_size 32
llc_wq_size 32
llc_pq_size 32
llc_mshr_size 64
llc_hit_latency 10
llc_fill_latency 10
llc_max_tag_check 1
llc_max_fill 1
dram_channels 1
dram_ranks 1
dram_bankgroups 8
dram_banks 4
dram_rows 65536
dram_columns 1024
dram_channel_width 8
dram_rq_size 64
dram_wq_size 64
dram_size 17179869184
core_0_itlb_prefetcher no
core_0_dtlb_prefetcher no
core_0_stlb_prefetcher no
core_0_l1i_prefetcher next_line
core_0_l1d_prefetcher no
core_0_l2c_prefetcher ip_stride
llc_prefetcher no
llc_replacement drrip

Core_0_instructions 100000003
Core_0_cycles 4644227250
Core_0_IPC 0.0215321
Core_0_branch_prediction_accuracy 97.0235
Core_0_branch_MPKI 5.68282
Core_0_average_ROB_occupancy_at_mispredict 346.09

Core_0_ITLB_total_access 350703
Core_0_ITLB_total_hit 350703
Core_0_ITLB_total_miss 0
Core_0_ITLB_total_MPKI 0
Core_0_ITLB_total_miss_rate 0
Core_0_ITLB_demand_access 350703
Core_0_ITLB_demand_hit 350703
Core_0_ITLB_demand_miss 0
Core_0_ITLB_demand_MPKI 0
Core_0_ITLB_demand_miss_rate 0
Core_0_ITLB_load_access 350703
Core_0_ITLB_load_hit 350703
Core_0_ITLB_load_miss 0
Core_0_ITLB_load_MPKI 0
Core_0_ITLB_load_miss_rate 0
Core_0_ITLB_rfo_access 0
Core_0_ITLB_rfo_hit 0
Core_0_ITLB_rfo_miss 0
Core_0_ITLB_rfo_MPKI 0
Core_0_ITLB_rfo_miss_rate 0
Core_0_ITLB_prefetch_access 0
Core_0_ITLB_prefetch_hit 0
Core_0_ITLB_prefetch_miss 0
Core_0_ITLB_prefetch_MPKI 0
Core_0_ITLB_prefetch_miss_rate 0
Core_0_ITLB_writeback_access 0
Core_0_ITLB_writeback_hit 0
Core_0_ITLB_writeback_miss 0
Core_0_ITLB_writeback_MPKI 0
Core_0_ITLB_writeback_miss_rate 0
Core_0_ITLB_prefetch_requested 0
Core_0_ITLB_prefetch_issued 0
Core_0_ITLB_prefetch_useful 0
Core_0_ITLB_prefetch_useless 0
Core_0_ITLB_prefetch_late 0
Core_0_ITLB_prefetch_fill 0
Core_0_ITLB_prefetch_too_early 0
Core_0_ITLB_prefetch_too_early_among_fill 0
Core_0_ITLB_prefetch_too_early_among_useless 0
Core_0_ITLB_prefetch_pollution_evict 0
Core_0_ITLB_prefetch_pollution_demand 0
Core_0_ITLB_prefetch_pollution_among_prefetch_fill 0
Core_0_ITLB_prefetch_accuracy 0
Core_0_ITLB_prefetch_coverage 0

Core_0_DTLB_total_access 38252583
Core_0_DTLB_total_hit 19989278
Core_0_DTLB_total_miss 18263305
Core_0_DTLB_total_MPKI 182.633
Core_0_DTLB_total_miss_rate 0.47744
Core_0_DTLB_demand_access 38252583
Core_0_DTLB_demand_hit 19989278
Core_0_DTLB_demand_miss 18263305
Core_0_DTLB_demand_MPKI 182.633
Core_0_DTLB_demand_miss_rate 0.47744
Core_0_DTLB_load_access 38252583
Core_0_DTLB_load_hit 19989278
Core_0_DTLB_load_miss 18263305
Core_0_DTLB_load_MPKI 182.633
Core_0_DTLB_load_miss_rate 0.47744
Core_0_DTLB_rfo_access 0
Core_0_DTLB_rfo_hit 0
Core_0_DTLB_rfo_miss 0
Core_0_DTLB_rfo_MPKI 0
Core_0_DTLB_rfo_miss_rate 0
Core_0_DTLB_prefetch_access 0
Core_0_DTLB_prefetch_hit 0
Core_0_DTLB_prefetch_miss 0
Core_0_DTLB_prefetch_MPKI 0
Core_0_DTLB_prefetch_miss_rate 0
Core_0_DTLB_writeback_access 0
Core_0_DTLB_writeback_hit 0
Core_0_DTLB_writeback_miss 0
Core_0_DTLB_writeback_MPKI 0
Core_0_DTLB_writeback_miss_rate 0
Core_0_DTLB_prefetch_requested 0
Core_0_DTLB_prefetch_issued 0
Core_0_DTLB_prefetch_useful 0
Core_0_DTLB_prefetch_useless 0
Core_0_DTLB_prefetch_late 0
Core_0_DTLB_prefetch_fill 0
Core_0_DTLB_prefetch_too_early 0
Core_0_DTLB_prefetch_too_early_among_fill 0
Core_0_DTLB_prefetch_too_early_among_useless 0
Core_0_DTLB_prefetch_pollution_evict 0
Core_0_DTLB_prefetch_pollution_demand 0
Core_0_DTLB_prefetch_pollution_among_prefetch_fill 0
Core_0_DTLB_prefetch_accuracy 0
Core_0_DTLB_prefetch_coverage 0

Core_0_STLB_total_access 18203969
Core_0_STLB_total_hit 459750
Core_0_STLB_total_miss 17744219
Core_0_STLB_total_MPKI 177.442
Core_0_STLB_total_miss_rate 0.974745
Core_0_STLB_demand_access 18203969
Core_0_STLB_demand_hit 459750
Core_0_STLB_demand_miss 17744219
Core_0_STLB_demand_MPKI 177.442
Core_0_STLB_demand_miss_rate 0.974745
Core_0_STLB_load_access 18203969
Core_0_STLB_load_hit 459750
Core_0_STLB_load_miss 17744219
Core_0_STLB_load_MPKI 177.442
Core_0_STLB_load_miss_rate 0.974745
Core_0_STLB_rfo_access 0
Core_0_STLB_rfo_hit 0
Core_0_STLB_rfo_miss 0
Core_0_STLB_rfo_MPKI 0
Core_0_STLB_rfo_miss_rate 0
Core_0_STLB_prefetch_access 0
Core_0_STLB_prefetch_hit 0
Core_0_STLB_prefetch_miss 0
Core_0_STLB_prefetch_MPKI 0
Core_0_STLB_prefetch_miss_rate 0
Core_0_STLB_writeback_access 0
Core_0_STLB_writeback_hit 0
Core_0_STLB_writeback_miss 0
Core_0_STLB_writeback_MPKI 0
Core_0_STLB_writeback_miss_rate 0
Core_0_STLB_prefetch_requested 0
Core_0_STLB_prefetch_issued 0
Core_0_STLB_prefetch_useful 0
Core_0_STLB_prefetch_useless 0
Core_0_STLB_prefetch_late 0
Core_0_STLB_prefetch_fill 0
Core_0_STLB_prefetch_too_early 0
Core_0_STLB_prefetch_too_early_among_fill 0
Core_0_STLB_prefetch_too_early_among_useless 0
Core_0_STLB_prefetch_pollution_evict 0
Core_0_STLB_prefetch_pollution_demand 0
Core_0_STLB_prefetch_pollution_among_prefetch_fill 0
Core_0_STLB_prefetch_accuracy 0
Core_0_STLB_prefetch_coverage 0

Core_0_L1I_total_access 350711
Core_0_L1I_total_hit 350711
Core_0_L1I_total_miss 0
Core_0_L1I_total_MPKI 0
Core_0_L1I_total_miss_rate 0
Core_0_L1I_demand_access 350711
Core_0_L1I_demand_hit 350711
Core_0_L1I_demand_miss 0
Core_0_L1I_demand_MPKI 0
Core_0_L1I_demand_miss_rate 0
Core_0_L1I_load_access 350711
Core_0_L1I_load_hit 350711
Core_0_L1I_load_miss 0
Core_0_L1I_load_MPKI 0
Core_0_L1I_load_miss_rate 0
Core_0_L1I_rfo_access 0
Core_0_L1I_rfo_hit 0
Core_0_L1I_rfo_miss 0
Core_0_L1I_rfo_MPKI 0
Core_0_L1I_rfo_miss_rate 0
Core_0_L1I_prefetch_access 0
Core_0_L1I_prefetch_hit 0
Core_0_L1I_prefetch_miss 0
Core_0_L1I_prefetch_MPKI 0
Core_0_L1I_prefetch_miss_rate 0
Core_0_L1I_writeback_access 0
Core_0_L1I_writeback_hit 0
Core_0_L1I_writeback_miss 0
Core_0_L1I_writeback_MPKI 0
Core_0_L1I_writeback_miss_rate 0
Core_0_L1I_prefetch_requested 0
Core_0_L1I_prefetch_issued 0
Core_0_L1I_prefetch_useful 0
Core_0_L1I_prefetch_useless 0
Core_0_L1I_prefetch_late 0
Core_0_L1I_prefetch_fill 0
Core_0_L1I_prefetch_too_early 0
Core_0_L1I_prefetch_too_early_among_fill 0
Core_0_L1I_prefetch_too_early_among_useless 0
Core_0_L1I_prefetch_pollution_evict 0
Core_0_L1I_prefetch_pollution_demand 0
Core_0_L1I_prefetch_pollution_among_prefetch_fill 0
Core_0_L1I_prefetch_accuracy 0
Core_0_L1I_prefetch_coverage 0

Core_0_L1D_total_access 38261326
Core_0_L1D_total_hit 18645846
Core_0_L1D_total_miss 19615480
Core_0_L1D_total_MPKI 196.155
Core_0_L1D_total_miss_rate 0.512671
Core_0_L1D_demand_access 37623150
Core_0_L1D_demand_hit 18060122
Core_0_L1D_demand_miss 19563028
Core_0_L1D_demand_MPKI 195.63
Core_0_L1D_demand_miss_rate 0.519973
Core_0_L1D_load_access 37623150
Core_0_L1D_load_hit 18060122
Core_0_L1D_load_miss 19563028
Core_0_L1D_load_MPKI 195.63
Core_0_L1D_load_miss_rate 0.519973
Core_0_L1D_rfo_access 0
Core_0_L1D_rfo_hit 0
Core_0_L1D_rfo_miss 0
Core_0_L1D_rfo_MPKI 0
Core_0_L1D_rfo_miss_rate 0
Core_0_L1D_prefetch_access 0
Core_0_L1D_prefetch_hit 0
Core_0_L1D_prefetch_miss 0
Core_0_L1D_prefetch_MPKI 0
Core_0_L1D_prefetch_miss_rate 0
Core_0_L1D_writeback_access 638176
Core_0_L1D_writeback_hit 585724
Core_0_L1D_writeback_miss 52452
Core_0_L1D_writeback_MPKI 0.52452
Core_0_L1D_writeback_miss_rate 0.0821905
Core_0_L1D_prefetch_requested 0
Core_0_L1D_prefetch_issued 0
Core_0_L1D_prefetch_useful 0
Core_0_L1D_prefetch_useless 0
Core_0_L1D_prefetch_late 0
Core_0_L1D_prefetch_fill 0
Core_0_L1D_prefetch_too_early 0
Core_0_L1D_prefetch_too_early_among_fill 0
Core_0_L1D_prefetch_too_early_among_useless 0
Core_0_L1D_prefetch_pollution_evict 0
Core_0_L1D_prefetch_pollution_demand 0
Core_0_L1D_prefetch_pollution_among_prefetch_fill 0
Core_0_L1D_prefetch_accuracy 0
Core_0_L1D_prefetch_coverage 0

Core_0_L2C_total_access 22716773
Core_0_L2C_total_hit 3576433
Core_0_L2C_total_miss 19140340
Core_0_L2C_total_MPKI 191.403
Core_0_L2C_total_miss_rate 0.842564
Core_0_L2C_demand_access 19214199
Core_0_L2C_demand_hit 1258761
Core_0_L2C_demand_miss 17955438
Core_0_L2C_demand_MPKI 179.554
Core_0_L2C_demand_miss_rate 0.934488
Core_0_L2C_load_access 19196715
Core_0_L2C_load_hit 1241548
Core_0_L2C_load_miss 17955167
Core_0_L2C_load_MPKI 179.552
Core_0_L2C_load_miss_rate 0.935325
Core_0_L2C_rfo_access 17484
Core_0_L2C_rfo_hit 17213
Core_0_L2C_rfo_miss 271
Core_0_L2C_rfo_MPKI 0.00271
Core_0_L2C_rfo_miss_rate 0.0154999
Core_0_L2C_prefetch_access 3441379
Core_0_L2C_prefetch_hit 2256486
Core_0_L2C_prefetch_miss 1184893
Core_0_L2C_prefetch_MPKI 11.8489
Core_0_L2C_prefetch_miss_rate 0.344308
Core_0_L2C_writeback_access 61195
Core_0_L2C_writeback_hit 61186
Core_0_L2C_writeback_miss 9
Core_0_L2C_writeback_MPKI 9e-05
Core_0_L2C_writeback_miss_rate 0.000147071
Core_0_L2C_prefetch_requested 3441379
Core_0_L2C_prefetch_issued 3441379
Core_0_L2C_prefetch_useful 1166513
Core_0_L2C_prefetch_useless 1
Core_0_L2C_prefetch_late 333
Core_0_L2C_prefetch_fill 1166181
Core_0_L2C_prefetch_too_early 0
Core_0_L2C_prefetch_too_early_among_fill 0
Core_0_L2C_prefetch_too_early_among_useless 0
Core_0_L2C_prefetch_pollution_evict 9421
Core_0_L2C_prefetch_pollution_demand 9421
Core_0_L2C_prefetch_pollution_among_prefetch_fill 0.00807851
Core_0_L2C_prefetch_accuracy 0.338967
Core_0_L2C_prefetch_coverage 0.0610039

Core_0_LLC_total_access 19157537
Core_0_LLC_total_hit 38275
Core_0_LLC_total_miss 19119262
Core_0_LLC_total_MPKI 191.193
Core_0_LLC_total_miss_rate 0.998002
Core_0_LLC_demand_access 17955105
Core_0_LLC_demand_hit 30939
Core_0_LLC_demand_miss 17924166
Core_0_LLC_demand_MPKI 179.242
Core_0_LLC_demand_miss_rate 0.998277
Core_0_LLC_load_access 17954834
Core_0_LLC_load_hit 30668
Core_0_LLC_load_miss 17924166
Core_0_LLC_load_MPKI 179.242
Core_0_LLC_load_miss_rate 0.998292
Core_0_LLC_rfo_access 271
Core_0_LLC_rfo_hit 271
Core_0_LLC_rfo_miss 0
Core_0_LLC_rfo_MPKI 0
Core_0_LLC_rfo_miss_rate 0
Core_0_LLC_prefetch_access 1166517
Core_0_LLC_prefetch_hit 1
Core_0_LLC_prefetch_miss 1166516
Core_0_LLC_prefetch_MPKI 11.6652
Core_0_LLC_prefetch_miss_rate 0.999999
Core_0_LLC_writeback_access 35915
Core_0_LLC_writeback_hit 7335
Core_0_LLC_writeback_miss 28580
Core_0_LLC_writeback_MPKI 0.2858
Core_0_LLC_writeback_miss_rate 0.795768
Core_0_LLC_prefetch_requested 0
Core_0_LLC_prefetch_issued 0
Core_0_LLC_prefetch_useful 0
Core_0_LLC_prefetch_useless 0
Core_0_LLC_prefetch_late 0
Core_0_LLC_prefetch_fill 1166514
Core_0_LLC_prefetch_too_early 0
Core_0_LLC_prefetch_too_early_among_fill 0
Core_0_LLC_prefetch_too_early_among_useless 0
Core_0_LLC_prefetch_pollution_evict 61963
Core_0_LLC_prefetch_pollution_demand 61963
Core_0_LLC_prefetch_pollution_among_prefetch_fill 0.0531181
Core_0_LLC_prefetch_accuracy 0
Core_0_LLC_prefetch_coverage 0

[DRAM Statistics]
Channel_0_RQ_row_buffer_hit 255
Channel_0_RQ_row_buffer_miss 19469202
Channel_0_WQ_row_buffer_hit 2769
Channel_0_WQ_row_buffer_miss 32358
Channel_0_WQ_full 0
Channel_0_dbus_congested 24004542
DRAM_total_RQ_row_buffer_hit 255
DRAM_total_RQ_row_buffer_miss 19469202
DRAM_total_WQ_row_buffer_hit 2769
DRAM_total_WQ_row_buffer_miss 32358
DRAM_total_WQ_full 0
DRAM_total_dbus_congested 24004542
DRAM_avg_congested_cycle 17.8719

====== DRAM_RQ_TRAFFIC ========
DRAM_RQ_READ_TRAFFIC_BREAKDOWN:
data_demand_read.count = 17924166
data_demand_read.share = 92.06%

inst_demand_read.count = 0
inst_demand_read.share = 0.00%

cache_inst_prefetch.count = 0
cache_inst_prefetch.share = 0.00%

cache_data_prefetch.count = 1166515
cache_data_prefetch.share = 5.99%

stlb_data_demand.count = 378776
stlb_data_demand.share = 1.95%

stlb_inst_demand.count = 0
stlb_inst_demand.share = 0.00%

stlb_l1i_pref.count = 0
stlb_l1i_pref.share = 0.00%

stlb_l1d_pref.count = 0
stlb_l1d_pref.share = 0.00%

DRAM_RQ_READ_TRAFFIC_SUMMARY:
cache_demand.count = 17924166
cache_demand.share = 92.06%

cache_prefetch.count = 1166515
cache_prefetch.share = 5.99%

stlb_demand.count = 378776
stlb_demand.share = 1.95%

stlb_prefetch.count = 0
stlb_prefetch.share = 0.00%

DRAM_RQ_READ_TRAFFIC_DEBUG:
total_classified_read.count = 19469457
unclassified_read.count = 0
total_read_with_other.count = 19469457

classified_plus_unclassified_check.count = 19469457
dram_rq_read_total_observed.count = 19469457
dram_rq_read_total_observed.per_1K_instructions = 194.695

STLB_MISS_PTW_DRAM_TOUCH_BREAKDOWN:
stlb_miss_total.count = 17744219

stlb_miss_touch_dram.count = 378700
stlb_miss_touch_dram.share = 2.13%

stlb_miss_no_dram_touch.count = 17365519
stlb_miss_no_dram_touch.share = 97.87%

STLB_MISS_PTW_DRAM_TOUCH_DEBUG:
stlb_miss_touch_plus_no_touch.count = 17744219
stlb_miss_total_check.count = 17744219

======STLB miss causes ========
Core_0_STLB_miss_cause_breakdown
Core_0_STLB_cause_Demand_Data_miss 17744219
Core_0_STLB_cause_Demand_Data_miss_rate 0.974745
Core_0_STLB_cause_Demand_Instruction_miss 0
Core_0_STLB_cause_Demand_Instruction_miss_rate 0
Core_0_STLB_cause_L1D_Prefetch_miss 0
Core_0_STLB_cause_L1D_Prefetch_miss_rate 0
Core_0_STLB_cause_L1D_Prefetch_Same_Page_miss 0
Core_0_STLB_cause_L1D_Prefetch_Same_Page_miss_rate 0
Core_0_STLB_cause_L1D_Prefetch_Cross_Page_miss 0
Core_0_STLB_cause_L1D_Prefetch_Cross_Page_miss_rate 0
Core_0_STLB_cause_L1I_Prefetch_miss 0
Core_0_STLB_cause_L1I_Prefetch_miss_rate 0
Core_0_STLB_cause_Other_miss 0
Core_0_STLB_cause_Other_miss_rate 0
Core_0_STLB_Demand_miss 17744219
Core_0_STLB_Demand_miss_rate 0.974745
Core_0_STLB_L1D_Prefetch_miss 0
Core_0_STLB_L1D_Prefetch_miss_rate 0
Core_0_STLB_Other_miss 0
Core_0_STLB_Other_miss_rate 0

========== vBerti-TLB Cross-page Flow Stats ==========

Core_0_vBerti_Requested 0
Core_0_vBerti_Cross_page_prefetch_in_Requested 0
Core_0_vBerti_Same_page_prefetch_in_Requested 0
Core_0_vBerti_Cross_page_prefetch_of_Requested 0
Core_0_vBerti_Issued 0
Core_0_vBerti_PQ_Drop_Rate 0
Core_0_vBerti_InPQ_Cross_page_prefetch_of_Requested 0
Core_0_vBerti_Cross_page_PQ_Drop_rate 0
Core_0_vBerti_Cross_page_prefetch_of_Issued 0

========= DTLB_vBerti Prefetch Stats =========
Core_0_DTLB_demand_access 38252583
Core_0_DTLB_demand_hit 19989278
Core_0_DTLB_demand_miss 18263305
Core_0_DTLB_demand_mshr_merge 59337
Core_0_DTLB_demand_fill 18203976
Core_0_DTLB_demand_miss_rate 0.47744
Core_0_DTLB_demand_mpki 182.633
Core_0_DTLB_vberti_prefetch_access 0
Core_0_DTLB_vberti_prefetch_hit 0
Core_0_DTLB_vberti_prefetch_miss 0
Core_0_DTLB_vberti_prefetch_mshr_merge 0
Core_0_DTLB_vberti_prefetch_fill 0
Core_0_DTLB_vberti_prefetch_miss_rate 0
Core_0_DTLB_vberti_prefetch_mpki 0

=== DTLB_vBerti Same/Cross-page Prefetch Stats ===
Core_0_DTLB_vberti_same_page_prefetch 0
Core_0_DTLB_vberti_same_page_prefetch_hit 0
Core_0_DTLB_vberti_same_page_prefetch_miss 0
Core_0_DTLB_vberti_same_page_prefetch_mshr_merge 0
Core_0_DTLB_vberti_same_page_prefetch_fill 0
Core_0_DTLB_vberti_same_page_prefetch_miss_rate 0
Core_0_DTLB_vberti_same_page_prefetch_mpki 0
Core_0_DTLB_vberti_cross_page_prefetch 0
Core_0_DTLB_vberti_cross_page_prefetch_hit 0
Core_0_DTLB_vberti_cross_page_prefetch_miss 0
Core_0_DTLB_vberti_cross_page_prefetch_mshr_merge 0
Core_0_DTLB_vberti_cross_page_prefetch_fill 0
Core_0_DTLB_vberti_cross_page_prefetch_miss_rate 0
Core_0_DTLB_vberti_cross_page_prefetch_mpki 0
Core_0_DTLB_same_page_prefetch_miss_rate 0
Core_0_DTLB_same_page_prefetch_mpki 0
Core_0_DTLB_cross_page_prefetch_miss_rate 0
Core_0_DTLB_cross_page_prefetch_mpki 0
Core_0_DTLB_cross_page_prefetch_issued 0
Core_0_DTLB_cross_page_prefetch_lookups 0
Core_0_DTLB_cross_page_prefetch_useful 0
Core_0_DTLB_cross_page_prefetch_useless 0
Core_0_DTLB_cross_page_prefetch_late 0
Core_0_DTLB_cross_page_prefetch_too_early 0
Core_0_DTLB_cross_page_prefetch_too_early_among_fill 0
Core_0_DTLB_cross_page_prefetch_too_early_among_useless 0
Core_0_DTLB_cross_page_prefetch_pollution_evict 0
Core_0_DTLB_cross_page_prefetch_pollution_demand 0
Core_0_DTLB_cross_page_prefetch_pollution_among_prefetch_fill 0
Core_0_DTLB_cross_page_prefetch_accuracy 0
Core_0_DTLB_cross_page_prefetch_coverage 0

========= STLB_vBerti Prefetch Stats =========
Core_0_STLB_demand_access 18203969
Core_0_STLB_demand_hit 459750
Core_0_STLB_demand_miss 17744219
Core_0_STLB_demand_mshr_merge 0
Core_0_STLB_demand_fill 17744226
Core_0_STLB_demand_miss_rate 0.974745
Core_0_STLB_demand_mpki 177.442
Core_0_STLB_vberti_prefetch_access 0
Core_0_STLB_vberti_prefetch_hit 0
Core_0_STLB_vberti_prefetch_miss 0
Core_0_STLB_vberti_prefetch_mshr_merge 0
Core_0_STLB_vberti_prefetch_fill 0
Core_0_STLB_vberti_prefetch_miss_rate 0
Core_0_STLB_vberti_prefetch_mpki 0

=== STLB_vBerti Same/Cross-page Prefetch Stats ===
Core_0_STLB_vberti_same_page_prefetch 0
Core_0_STLB_vberti_same_page_prefetch_hit 0
Core_0_STLB_vberti_same_page_prefetch_miss 0
Core_0_STLB_vberti_same_page_prefetch_mshr_merge 0
Core_0_STLB_vberti_same_page_prefetch_fill 0
Core_0_STLB_vberti_same_page_prefetch_miss_rate 0
Core_0_STLB_vberti_same_page_prefetch_mpki 0
Core_0_STLB_vberti_cross_page_prefetch 0
Core_0_STLB_vberti_cross_page_prefetch_hit 0
Core_0_STLB_vberti_cross_page_prefetch_miss 0
Core_0_STLB_vberti_cross_page_prefetch_mshr_merge 0
Core_0_STLB_vberti_cross_page_prefetch_fill 0
Core_0_STLB_vberti_cross_page_prefetch_miss_rate 0
Core_0_STLB_vberti_cross_page_prefetch_mpki 0
Core_0_STLB_same_page_prefetch_miss_rate 0
Core_0_STLB_same_page_prefetch_mpki 0
Core_0_STLB_cross_page_prefetch_miss_rate 0
Core_0_STLB_cross_page_prefetch_mpki 0
Core_0_STLB_cross_page_prefetch_issued 0
Core_0_STLB_cross_page_prefetch_lookups 0
Core_0_STLB_cross_page_prefetch_useful 0
Core_0_STLB_cross_page_prefetch_useless 0
Core_0_STLB_cross_page_prefetch_late 0
Core_0_STLB_cross_page_prefetch_too_early 0
Core_0_STLB_cross_page_prefetch_too_early_among_fill 0
Core_0_STLB_cross_page_prefetch_too_early_among_useless 0
Core_0_STLB_cross_page_prefetch_pollution_evict 0
Core_0_STLB_cross_page_prefetch_pollution_demand 0
Core_0_STLB_cross_page_prefetch_pollution_among_prefetch_fill 0
Core_0_STLB_cross_page_prefetch_accuracy 0
Core_0_STLB_cross_page_prefetch_coverage 0

========= STLB Cross-page Prefetch Buffer Stats =========
Core_0_STLB_raw_demand_miss 17744219
Core_0_CP_PB_insert 0
Core_0_CP_PB_demand_hit 0
Core_0_STLB_PB_demand_miss 17744219
Core_0_CP_PB_coverage 0
Core_0_STLB_raw_demand_mpki 177.442
Core_0_STLB_PB_demand_mpki 177.442
Core_0_CP_PB_demand_hit_mpki 0

Core_0_TLB_demand_miss_rate 0.46387
Core_0_TLB_demand_mpki 177.442
Core_0_TLB_same_page_prefetch_miss_rate 0
Core_0_TLB_same_page_prefetch_mpki 0
Core_0_TLB_cross_page_prefetch_miss_rate 0
Core_0_TLB_cross_page_prefetch_mpki 0
Core_0_TLB_cross_page_prefetch_issued 0
Core_0_TLB_cross_page_prefetch_lookups 0
Core_0_TLB_cross_page_prefetch_useful 0
Core_0_TLB_cross_page_prefetch_useless 0
Core_0_TLB_cross_page_prefetch_late 0
Core_0_TLB_cross_page_prefetch_too_early 0
Core_0_TLB_cross_page_prefetch_too_early_among_fill 0
Core_0_TLB_cross_page_prefetch_too_early_among_useless 0
Core_0_TLB_cross_page_prefetch_accuracy 0
Core_0_TLB_cross_page_prefetch_coverage 0
