[VMEM] WARNING: physical memory size is smaller than virtual memory size.

*** ChampSim Multicore Out-of-Order Simulator ***
Warmup Instructions: 50000000
Simulation Instructions: 100000000
Number of CPUs: 1
Page size: 4096
Core 0: /data0/tzh/champsim_traces/QMM/srv_64_new.xz
Off-chip DRAM Size: 16 GiB Channels: 1 Width: 64-bit Data Rate: 3205 MT/s
[BTB] WARNING: target of return is a lower address than the corresponding call. This is usually a problem with your trace.
[BTB] WARNING: target of return is a lower address than the corresponding call. This is usually a problem with your trace.
[BTB] WARNING: target of return is a lower address than the corresponding call. This is usually a problem with your trace.
[BTB] WARNING: target of return is a lower address than the corresponding call. This is usually a problem with your trace.
[BTB] WARNING: target of return is a lower address than the corresponding call. This is usually a problem with your trace.
[BTB] WARNING: target of return is a lower address than the corresponding call. This is usually a problem with your trace.
[BTB] WARNING: target of return is a lower address than the corresponding call. This is usually a problem with your trace.
[BTB] WARNING: target of return is a lower address than the corresponding call. This is usually a problem with your trace.
[BTB] WARNING: target of return is a lower address than the corresponding call. This is usually a problem with your trace.
[BTB] WARNING: target of return is a lower address than the corresponding call. This is usually a problem with your trace.
*** Reached end of trace: (0, "/data0/tzh/champsim_traces/QMM/srv_64_new.xz")
Warmup halting CPU 0 at instruction 50000002 cycle 10736306 for remainder of phase
Warmup finished CPU 0 instructions: 50000002 cycles: 10736306 cumulative IPC: 4.657 (Simulation time: 00 hr 02 min 33 sec)
Warmup complete CPU 0 instructions: 50000002 cycles: 10736306 cumulative IPC: 4.657 (Simulation time: 00 hr 02 min 33 sec)
*** Reached end of trace: (0, "/data0/tzh/champsim_traces/QMM/srv_64_new.xz")
*** Reached end of trace: (0, "/data0/tzh/champsim_traces/QMM/srv_64_new.xz")
*** Reached end of trace: (0, "/data0/tzh/champsim_traces/QMM/srv_64_new.xz")
Simulation finished CPU 0 instructions: 100000004 cycles: 51814276 cumulative IPC: 1.93 (Simulation time: 00 hr 10 min 43 sec)
Simulation complete CPU 0 instructions: 100000004 cycles: 51814276 cumulative IPC: 1.93 (Simulation time: 00 hr 10 min 43 sec)

ChampSim completed all CPUs

=== Simulation ===
CPU 0 runs /data0/tzh/champsim_traces/QMM/srv_64_new.xz

Region of Interest Statistics

CPU 0 cumulative IPC: 1.93 instructions: 100000004 cycles: 51814276
CPU 0 Branch Prediction Accuracy: 98.84% MPKI: 2.088 Average ROB Occupancy at Mispredict: 156
Branch type MPKI
BRANCH_DIRECT_JUMP: 0.1303
BRANCH_INDIRECT: 0.1636
BRANCH_CONDITIONAL: 1.238
BRANCH_DIRECT_CALL: 0.2398
BRANCH_INDIRECT_CALL: 0.07531
BRANCH_RETURN: 0.241

cpu0->cpu0_STLB TOTAL        ACCESS:    1632548 HIT:    1472357 MISS:     160191 MSHR_MERGE:          0
cpu0->cpu0_STLB LOAD         ACCESS:    1632548 HIT:    1472357 MISS:     160191 MSHR_MERGE:          0
cpu0->cpu0_STLB RFO          ACCESS:          0 HIT:          0 MISS:          0 MSHR_MERGE:          0
cpu0->cpu0_STLB PREFETCH     ACCESS:          0 HIT:          0 MISS:          0 MSHR_MERGE:          0
cpu0->cpu0_STLB WRITE        ACCESS:          0 HIT:          0 MISS:          0 MSHR_MERGE:          0
cpu0->cpu0_STLB TRANSLATION  ACCESS:          0 HIT:          0 MISS:          0 MSHR_MERGE:          0
cpu0->cpu0_STLB PREFETCH REQUESTED:          0 ISSUED:          0 USEFUL:          0 USELESS:          0 LATE:          0 TOO_EARLY:          0
cpu0->cpu0_STLB AVERAGE MISS LATENCY: 36.25 cycles
cpu0->cpu0_L2C TOTAL        ACCESS:    4536411 HIT:    2946018 MISS:    1590393 MSHR_MERGE:       1069
cpu0->cpu0_L2C LOAD         ACCESS:    3661520 HIT:    2272145 MISS:    1389375 MSHR_MERGE:        101
cpu0->cpu0_L2C RFO          ACCESS:     165006 HIT:      78736 MISS:      86270 MSHR_MERGE:          0
cpu0->cpu0_L2C PREFETCH     ACCESS:      36537 HIT:      18654 MISS:      17883 MSHR_MERGE:        968
cpu0->cpu0_L2C WRITE        ACCESS:     522576 HIT:     516378 MISS:       6198 MSHR_MERGE:          0
cpu0->cpu0_L2C TRANSLATION  ACCESS:     150772 HIT:      60105 MISS:      90667 MSHR_MERGE:          0
cpu0->cpu0_L2C PREFETCH REQUESTED:      36705 ISSUED:      36537 USEFUL:      11204 USELESS:       5712 LATE:        101 TOO_EARLY:        288
cpu0->cpu0_L2C AVERAGE MISS LATENCY: 31.1 cycles
cpu0->cpu0_L1I TOTAL        ACCESS:   15856138 HIT:   11664081 MISS:    4192057 MSHR_MERGE:    1629464
cpu0->cpu0_L1I LOAD         ACCESS:   15856138 HIT:   11664081 MISS:    4192057 MSHR_MERGE:    1629464
cpu0->cpu0_L1I RFO          ACCESS:          0 HIT:          0 MISS:          0 MSHR_MERGE:          0
cpu0->cpu0_L1I PREFETCH     ACCESS:          0 HIT:          0 MISS:          0 MSHR_MERGE:          0
cpu0->cpu0_L1I WRITE        ACCESS:          0 HIT:          0 MISS:          0 MSHR_MERGE:          0
cpu0->cpu0_L1I TRANSLATION  ACCESS:          0 HIT:          0 MISS:          0 MSHR_MERGE:          0
cpu0->cpu0_L1I PREFETCH REQUESTED:          0 ISSUED:          0 USEFUL:          0 USELESS:          0 LATE:          0 TOO_EARLY:          0
cpu0->cpu0_L1I AVERAGE MISS LATENCY: 13.09 cycles
cpu0->cpu0_L1D TOTAL        ACCESS:   23059510 HIT:   20953549 MISS:    2105961 MSHR_MERGE:     691237
cpu0->cpu0_L1D LOAD         ACCESS:   12814518 HIT:   11319739 MISS:    1494779 MSHR_MERGE:     395842
cpu0->cpu0_L1D RFO          ACCESS:          0 HIT:          0 MISS:          0 MSHR_MERGE:          0
cpu0->cpu0_L1D PREFETCH     ACCESS:          0 HIT:          0 MISS:          0 MSHR_MERGE:          0
cpu0->cpu0_L1D WRITE        ACCESS:    9880001 HIT:    9422554 MISS:     457447 MSHR_MERGE:     292432
cpu0->cpu0_L1D TRANSLATION  ACCESS:     364991 HIT:     211256 MISS:     153735 MSHR_MERGE:       2963
cpu0->cpu0_L1D PREFETCH REQUESTED:          0 ISSUED:          0 USEFUL:          0 USELESS:          0 LATE:          0 TOO_EARLY:          0
cpu0->cpu0_L1D AVERAGE MISS LATENCY: 33.37 cycles
cpu0->cpu0_ITLB TOTAL        ACCESS:   13491660 HIT:   12490636 MISS:    1001024 MSHR_MERGE:     620854
cpu0->cpu0_ITLB LOAD         ACCESS:   13491660 HIT:   12490636 MISS:    1001024 MSHR_MERGE:     620854
cpu0->cpu0_ITLB RFO          ACCESS:          0 HIT:          0 MISS:          0 MSHR_MERGE:          0
cpu0->cpu0_ITLB PREFETCH     ACCESS:          0 HIT:          0 MISS:          0 MSHR_MERGE:          0
cpu0->cpu0_ITLB WRITE        ACCESS:          0 HIT:          0 MISS:          0 MSHR_MERGE:          0
cpu0->cpu0_ITLB TRANSLATION  ACCESS:          0 HIT:          0 MISS:          0 MSHR_MERGE:          0
cpu0->cpu0_ITLB PREFETCH REQUESTED:          0 ISSUED:          0 USEFUL:          0 USELESS:          0 LATE:          0 TOO_EARLY:          0
cpu0->cpu0_ITLB AVERAGE MISS LATENCY: 8.597 cycles
cpu0->cpu0_DTLB TOTAL        ACCESS:   21324325 HIT:   19619013 MISS:    1705312 MSHR_MERGE:     452934
cpu0->cpu0_DTLB LOAD         ACCESS:   21324325 HIT:   19619013 MISS:    1705312 MSHR_MERGE:     452934
cpu0->cpu0_DTLB RFO          ACCESS:          0 HIT:          0 MISS:          0 MSHR_MERGE:          0
cpu0->cpu0_DTLB PREFETCH     ACCESS:          0 HIT:          0 MISS:          0 MSHR_MERGE:          0
cpu0->cpu0_DTLB WRITE        ACCESS:          0 HIT:          0 MISS:          0 MSHR_MERGE:          0
cpu0->cpu0_DTLB TRANSLATION  ACCESS:          0 HIT:          0 MISS:          0 MSHR_MERGE:          0
cpu0->cpu0_DTLB PREFETCH REQUESTED:          0 ISSUED:          0 USEFUL:          0 USELESS:          0 LATE:          0 TOO_EARLY:          0
cpu0->cpu0_DTLB AVERAGE MISS LATENCY: 8.687 cycles
cpu0->LLC TOTAL        ACCESS:    1861648 HIT:    1712123 MISS:     149525 MSHR_MERGE:          0
cpu0->LLC LOAD         ACCESS:    1389269 HIT:    1282665 MISS:     106604 MSHR_MERGE:          0
cpu0->LLC RFO          ACCESS:      86269 HIT:      63736 MISS:      22533 MSHR_MERGE:          0
cpu0->LLC PREFETCH     ACCESS:      16915 HIT:       6898 MISS:      10017 MSHR_MERGE:          0
cpu0->LLC WRITE        ACCESS:     278528 HIT:     273852 MISS:       4676 MSHR_MERGE:          0
cpu0->LLC TRANSLATION  ACCESS:      90667 HIT:      84972 MISS:       5695 MSHR_MERGE:          0
cpu0->LLC PREFETCH REQUESTED:          0 ISSUED:          0 USEFUL:          0 USELESS:          0 LATE:          0 TOO_EARLY:          0
cpu0->LLC AVERAGE MISS LATENCY: 181.2 cycles

DRAM Statistics

Channel 0 RQ ROW_BUFFER_HIT:       5940
  ROW_BUFFER_MISS:     138903
  AVG DBUS CONGESTED CYCLE: 15.75
Channel 0 WQ ROW_BUFFER_HIT:      22604
  ROW_BUFFER_MISS:      82687
  FULL:          0
Channel 0 REFRESHES ISSUED:       4318

[ROI Statistics]
[System Configuration]
num_cpus 1
cpu_freq 4000
fetch_width 6
decode_width 6
dispatch_width 6
execute_width 6
lq_width 2
sq_width 2
retire_width 6
scheduler_size 128
branch_mispredict_penalty 15
rob_size 352
lq_size 128
sq_size 72
ifetch_buffer_size 64
decode_buffer_size 32
dispatch_buffer_size 32
register_file_size 288
decode_latency 1
dispatch_latency 1
schedule_latency 1
execute_latency 1
page_size 4096
block_size 64
core_0_itlb_set 16
core_0_itlb_way 4
core_0_itlb_rq_size 16
core_0_itlb_wq_size 16
core_0_itlb_pq_size 0
core_0_itlb_mshr_size 8
core_0_itlb_hit_latency 1
core_0_itlb_fill_latency 1
core_0_itlb_max_tag_check 2
core_0_itlb_max_fill 2
core_0_dtlb_set 16
core_0_dtlb_way 4
core_0_dtlb_rq_size 16
core_0_dtlb_wq_size 16
core_0_dtlb_pq_size 0
core_0_dtlb_mshr_size 8
core_0_dtlb_hit_latency 1
core_0_dtlb_fill_latency 1
core_0_dtlb_max_tag_check 2
core_0_dtlb_max_fill 2
core_0_stlb_set 128
core_0_stlb_way 12
core_0_stlb_rq_size 32
core_0_stlb_wq_size 32
core_0_stlb_pq_size 0
core_0_stlb_mshr_size 16
core_0_stlb_hit_latency 4
core_0_stlb_fill_latency 4
core_0_stlb_max_tag_check 1
core_0_stlb_max_fill 1
core_0_l1i_set 64
core_0_l1i_way 8
core_0_l1i_rq_size 64
core_0_l1i_wq_size 64
core_0_l1i_pq_size 32
core_0_l1i_mshr_size 8
core_0_l1i_hit_latency 2
core_0_l1i_fill_latency 2
core_0_l1i_max_tag_check 2
core_0_l1i_max_fill 2
core_0_l1d_set 64
core_0_l1d_way 12
core_0_l1d_rq_size 64
core_0_l1d_wq_size 64
core_0_l1d_pq_size 8
core_0_l1d_mshr_size 16
core_0_l1d_hit_latency 2
core_0_l1d_fill_latency 3
core_0_l1d_max_tag_check 2
core_0_l1d_max_fill 2
core_0_l2c_set 1024
core_0_l2c_way 8
core_0_l2c_rq_size 32
core_0_l2c_wq_size 32
core_0_l2c_pq_size 16
core_0_l2c_mshr_size 32
core_0_l2c_hit_latency 5
core_0_l2c_fill_latency 5
core_0_l2c_max_tag_check 1
core_0_l2c_max_fill 1
llc_set 2048
llc_way 16
llc_rq_size 32
llc_wq_size 32
llc_pq_size 32
llc_mshr_size 64
llc_hit_latency 10
llc_fill_latency 10
llc_max_tag_check 1
llc_max_fill 1
dram_channels 1
dram_ranks 1
dram_bankgroups 8
dram_banks 4
dram_rows 65536
dram_columns 1024
dram_channel_width 8
dram_rq_size 64
dram_wq_size 64
dram_size 17179869184
core_0_itlb_prefetcher no
core_0_dtlb_prefetcher no
core_0_stlb_prefetcher no
core_0_l1i_prefetcher next_line
core_0_l1d_prefetcher no
core_0_l2c_prefetcher ip_stride
llc_prefetcher no
llc_replacement drrip

Core_0_instructions 100000004
Core_0_cycles 51814276
Core_0_IPC 1.92997
Core_0_branch_prediction_accuracy 98.8358
Core_0_branch_MPKI 2.08849
Core_0_average_ROB_occupancy_at_mispredict 156.007

Core_0_ITLB_total_access 13491660
Core_0_ITLB_total_hit 12490636
Core_0_ITLB_total_miss 1001024
Core_0_ITLB_total_MPKI 10.0102
Core_0_ITLB_total_miss_rate 0.0741958
Core_0_ITLB_demand_access 13491660
Core_0_ITLB_demand_hit 12490636
Core_0_ITLB_demand_miss 1001024
Core_0_ITLB_demand_MPKI 10.0102
Core_0_ITLB_demand_miss_rate 0.0741958
Core_0_ITLB_load_access 13491660
Core_0_ITLB_load_hit 12490636
Core_0_ITLB_load_miss 1001024
Core_0_ITLB_load_MPKI 10.0102
Core_0_ITLB_load_miss_rate 0.0741958
Core_0_ITLB_rfo_access 0
Core_0_ITLB_rfo_hit 0
Core_0_ITLB_rfo_miss 0
Core_0_ITLB_rfo_MPKI 0
Core_0_ITLB_rfo_miss_rate 0
Core_0_ITLB_prefetch_access 0
Core_0_ITLB_prefetch_hit 0
Core_0_ITLB_prefetch_miss 0
Core_0_ITLB_prefetch_MPKI 0
Core_0_ITLB_prefetch_miss_rate 0
Core_0_ITLB_writeback_access 0
Core_0_ITLB_writeback_hit 0
Core_0_ITLB_writeback_miss 0
Core_0_ITLB_writeback_MPKI 0
Core_0_ITLB_writeback_miss_rate 0
Core_0_ITLB_prefetch_requested 0
Core_0_ITLB_prefetch_issued 0
Core_0_ITLB_prefetch_useful 0
Core_0_ITLB_prefetch_useless 0
Core_0_ITLB_prefetch_late 0
Core_0_ITLB_prefetch_fill 0
Core_0_ITLB_prefetch_too_early 0
Core_0_ITLB_prefetch_too_early_among_fill 0
Core_0_ITLB_prefetch_too_early_among_useless 0
Core_0_ITLB_prefetch_pollution_evict 0
Core_0_ITLB_prefetch_pollution_demand 0
Core_0_ITLB_prefetch_pollution_among_prefetch_fill 0
Core_0_ITLB_prefetch_accuracy 0
Core_0_ITLB_prefetch_coverage 0

Core_0_DTLB_total_access 21324325
Core_0_DTLB_total_hit 19619013
Core_0_DTLB_total_miss 1705312
Core_0_DTLB_total_MPKI 17.0531
Core_0_DTLB_total_miss_rate 0.0799703
Core_0_DTLB_demand_access 21324325
Core_0_DTLB_demand_hit 19619013
Core_0_DTLB_demand_miss 1705312
Core_0_DTLB_demand_MPKI 17.0531
Core_0_DTLB_demand_miss_rate 0.0799703
Core_0_DTLB_load_access 21324325
Core_0_DTLB_load_hit 19619013
Core_0_DTLB_load_miss 1705312
Core_0_DTLB_load_MPKI 17.0531
Core_0_DTLB_load_miss_rate 0.0799703
Core_0_DTLB_rfo_access 0
Core_0_DTLB_rfo_hit 0
Core_0_DTLB_rfo_miss 0
Core_0_DTLB_rfo_MPKI 0
Core_0_DTLB_rfo_miss_rate 0
Core_0_DTLB_prefetch_access 0
Core_0_DTLB_prefetch_hit 0
Core_0_DTLB_prefetch_miss 0
Core_0_DTLB_prefetch_MPKI 0
Core_0_DTLB_prefetch_miss_rate 0
Core_0_DTLB_writeback_access 0
Core_0_DTLB_writeback_hit 0
Core_0_DTLB_writeback_miss 0
Core_0_DTLB_writeback_MPKI 0
Core_0_DTLB_writeback_miss_rate 0
Core_0_DTLB_prefetch_requested 0
Core_0_DTLB_prefetch_issued 0
Core_0_DTLB_prefetch_useful 0
Core_0_DTLB_prefetch_useless 0
Core_0_DTLB_prefetch_late 0
Core_0_DTLB_prefetch_fill 0
Core_0_DTLB_prefetch_too_early 0
Core_0_DTLB_prefetch_too_early_among_fill 0
Core_0_DTLB_prefetch_too_early_among_useless 0
Core_0_DTLB_prefetch_pollution_evict 0
Core_0_DTLB_prefetch_pollution_demand 0
Core_0_DTLB_prefetch_pollution_among_prefetch_fill 0
Core_0_DTLB_prefetch_accuracy 0
Core_0_DTLB_prefetch_coverage 0

Core_0_STLB_total_access 1632548
Core_0_STLB_total_hit 1472357
Core_0_STLB_total_miss 160191
Core_0_STLB_total_MPKI 1.60191
Core_0_STLB_total_miss_rate 0.0981233
Core_0_STLB_demand_access 1632548
Core_0_STLB_demand_hit 1472357
Core_0_STLB_demand_miss 160191
Core_0_STLB_demand_MPKI 1.60191
Core_0_STLB_demand_miss_rate 0.0981233
Core_0_STLB_load_access 1632548
Core_0_STLB_load_hit 1472357
Core_0_STLB_load_miss 160191
Core_0_STLB_load_MPKI 1.60191
Core_0_STLB_load_miss_rate 0.0981233
Core_0_STLB_rfo_access 0
Core_0_STLB_rfo_hit 0
Core_0_STLB_rfo_miss 0
Core_0_STLB_rfo_MPKI 0
Core_0_STLB_rfo_miss_rate 0
Core_0_STLB_prefetch_access 0
Core_0_STLB_prefetch_hit 0
Core_0_STLB_prefetch_miss 0
Core_0_STLB_prefetch_MPKI 0
Core_0_STLB_prefetch_miss_rate 0
Core_0_STLB_writeback_access 0
Core_0_STLB_writeback_hit 0
Core_0_STLB_writeback_miss 0
Core_0_STLB_writeback_MPKI 0
Core_0_STLB_writeback_miss_rate 0
Core_0_STLB_prefetch_requested 0
Core_0_STLB_prefetch_issued 0
Core_0_STLB_prefetch_useful 0
Core_0_STLB_prefetch_useless 0
Core_0_STLB_prefetch_late 0
Core_0_STLB_prefetch_fill 0
Core_0_STLB_prefetch_too_early 0
Core_0_STLB_prefetch_too_early_among_fill 0
Core_0_STLB_prefetch_too_early_among_useless 0
Core_0_STLB_prefetch_pollution_evict 0
Core_0_STLB_prefetch_pollution_demand 0
Core_0_STLB_prefetch_pollution_among_prefetch_fill 0
Core_0_STLB_prefetch_accuracy 0
Core_0_STLB_prefetch_coverage 0

Core_0_L1I_total_access 15856138
Core_0_L1I_total_hit 11664081
Core_0_L1I_total_miss 4192057
Core_0_L1I_total_MPKI 41.9206
Core_0_L1I_total_miss_rate 0.264381
Core_0_L1I_demand_access 15856138
Core_0_L1I_demand_hit 11664081
Core_0_L1I_demand_miss 4192057
Core_0_L1I_demand_MPKI 41.9206
Core_0_L1I_demand_miss_rate 0.264381
Core_0_L1I_load_access 15856138
Core_0_L1I_load_hit 11664081
Core_0_L1I_load_miss 4192057
Core_0_L1I_load_MPKI 41.9206
Core_0_L1I_load_miss_rate 0.264381
Core_0_L1I_rfo_access 0
Core_0_L1I_rfo_hit 0
Core_0_L1I_rfo_miss 0
Core_0_L1I_rfo_MPKI 0
Core_0_L1I_rfo_miss_rate 0
Core_0_L1I_prefetch_access 0
Core_0_L1I_prefetch_hit 0
Core_0_L1I_prefetch_miss 0
Core_0_L1I_prefetch_MPKI 0
Core_0_L1I_prefetch_miss_rate 0
Core_0_L1I_writeback_access 0
Core_0_L1I_writeback_hit 0
Core_0_L1I_writeback_miss 0
Core_0_L1I_writeback_MPKI 0
Core_0_L1I_writeback_miss_rate 0
Core_0_L1I_prefetch_requested 0
Core_0_L1I_prefetch_issued 0
Core_0_L1I_prefetch_useful 0
Core_0_L1I_prefetch_useless 0
Core_0_L1I_prefetch_late 0
Core_0_L1I_prefetch_fill 0
Core_0_L1I_prefetch_too_early 0
Core_0_L1I_prefetch_too_early_among_fill 0
Core_0_L1I_prefetch_too_early_among_useless 0
Core_0_L1I_prefetch_pollution_evict 0
Core_0_L1I_prefetch_pollution_demand 0
Core_0_L1I_prefetch_pollution_among_prefetch_fill 0
Core_0_L1I_prefetch_accuracy 0
Core_0_L1I_prefetch_coverage 0

Core_0_L1D_total_access 22694519
Core_0_L1D_total_hit 20742293
Core_0_L1D_total_miss 1952226
Core_0_L1D_total_MPKI 19.5223
Core_0_L1D_total_miss_rate 0.0860219
Core_0_L1D_demand_access 12814518
Core_0_L1D_demand_hit 11319739
Core_0_L1D_demand_miss 1494779
Core_0_L1D_demand_MPKI 14.9478
Core_0_L1D_demand_miss_rate 0.116647
Core_0_L1D_load_access 12814518
Core_0_L1D_load_hit 11319739
Core_0_L1D_load_miss 1494779
Core_0_L1D_load_MPKI 14.9478
Core_0_L1D_load_miss_rate 0.116647
Core_0_L1D_rfo_access 0
Core_0_L1D_rfo_hit 0
Core_0_L1D_rfo_miss 0
Core_0_L1D_rfo_MPKI 0
Core_0_L1D_rfo_miss_rate 0
Core_0_L1D_prefetch_access 0
Core_0_L1D_prefetch_hit 0
Core_0_L1D_prefetch_miss 0
Core_0_L1D_prefetch_MPKI 0
Core_0_L1D_prefetch_miss_rate 0
Core_0_L1D_writeback_access 9880001
Core_0_L1D_writeback_hit 9422554
Core_0_L1D_writeback_miss 457447
Core_0_L1D_writeback_MPKI 4.57447
Core_0_L1D_writeback_miss_rate 0.0463003
Core_0_L1D_prefetch_requested 0
Core_0_L1D_prefetch_issued 0
Core_0_L1D_prefetch_useful 0
Core_0_L1D_prefetch_useless 0
Core_0_L1D_prefetch_late 0
Core_0_L1D_prefetch_fill 0
Core_0_L1D_prefetch_too_early 0
Core_0_L1D_prefetch_too_early_among_fill 0
Core_0_L1D_prefetch_too_early_among_useless 0
Core_0_L1D_prefetch_pollution_evict 0
Core_0_L1D_prefetch_pollution_demand 0
Core_0_L1D_prefetch_pollution_among_prefetch_fill 0
Core_0_L1D_prefetch_accuracy 0
Core_0_L1D_prefetch_coverage 0

Core_0_L2C_total_access 4385639
Core_0_L2C_total_hit 2885913
Core_0_L2C_total_miss 1499726
Core_0_L2C_total_MPKI 14.9973
Core_0_L2C_total_miss_rate 0.341963
Core_0_L2C_demand_access 3826526
Core_0_L2C_demand_hit 2350881
Core_0_L2C_demand_miss 1475645
Core_0_L2C_demand_MPKI 14.7564
Core_0_L2C_demand_miss_rate 0.385636
Core_0_L2C_load_access 3661520
Core_0_L2C_load_hit 2272145
Core_0_L2C_load_miss 1389375
Core_0_L2C_load_MPKI 13.8937
Core_0_L2C_load_miss_rate 0.379453
Core_0_L2C_rfo_access 165006
Core_0_L2C_rfo_hit 78736
Core_0_L2C_rfo_miss 86270
Core_0_L2C_rfo_MPKI 0.8627
Core_0_L2C_rfo_miss_rate 0.522829
Core_0_L2C_prefetch_access 36537
Core_0_L2C_prefetch_hit 18654
Core_0_L2C_prefetch_miss 17883
Core_0_L2C_prefetch_MPKI 0.17883
Core_0_L2C_prefetch_miss_rate 0.489449
Core_0_L2C_writeback_access 522576
Core_0_L2C_writeback_hit 516378
Core_0_L2C_writeback_miss 6198
Core_0_L2C_writeback_MPKI 0.06198
Core_0_L2C_writeback_miss_rate 0.0118605
Core_0_L2C_prefetch_requested 36705
Core_0_L2C_prefetch_issued 36537
Core_0_L2C_prefetch_useful 11204
Core_0_L2C_prefetch_useless 5712
Core_0_L2C_prefetch_late 101
Core_0_L2C_prefetch_fill 16814
Core_0_L2C_prefetch_too_early 288
Core_0_L2C_prefetch_too_early_among_fill 0.0171286
Core_0_L2C_prefetch_too_early_among_useless 0.0504202
Core_0_L2C_prefetch_pollution_evict 14666
Core_0_L2C_prefetch_pollution_demand 14666
Core_0_L2C_prefetch_pollution_among_prefetch_fill 0.872249
Core_0_L2C_prefetch_accuracy 0.306648
Core_0_L2C_prefetch_coverage 0.0075354

Core_0_LLC_total_access 1770981
Core_0_LLC_total_hit 1627151
Core_0_LLC_total_miss 143830
Core_0_LLC_total_MPKI 1.4383
Core_0_LLC_total_miss_rate 0.0812149
Core_0_LLC_demand_access 1475538
Core_0_LLC_demand_hit 1346401
Core_0_LLC_demand_miss 129137
Core_0_LLC_demand_MPKI 1.29137
Core_0_LLC_demand_miss_rate 0.0875186
Core_0_LLC_load_access 1389269
Core_0_LLC_load_hit 1282665
Core_0_LLC_load_miss 106604
Core_0_LLC_load_MPKI 1.06604
Core_0_LLC_load_miss_rate 0.0767339
Core_0_LLC_rfo_access 86269
Core_0_LLC_rfo_hit 63736
Core_0_LLC_rfo_miss 22533
Core_0_LLC_rfo_MPKI 0.22533
Core_0_LLC_rfo_miss_rate 0.261195
Core_0_LLC_prefetch_access 16915
Core_0_LLC_prefetch_hit 6898
Core_0_LLC_prefetch_miss 10017
Core_0_LLC_prefetch_MPKI 0.10017
Core_0_LLC_prefetch_miss_rate 0.592196
Core_0_LLC_writeback_access 278528
Core_0_LLC_writeback_hit 273852
Core_0_LLC_writeback_miss 4676
Core_0_LLC_writeback_MPKI 0.04676
Core_0_LLC_writeback_miss_rate 0.0167883
Core_0_LLC_prefetch_requested 0
Core_0_LLC_prefetch_issued 0
Core_0_LLC_prefetch_useful 0
Core_0_LLC_prefetch_useless 0
Core_0_LLC_prefetch_late 0
Core_0_LLC_prefetch_fill 10017
Core_0_LLC_prefetch_too_early 0
Core_0_LLC_prefetch_too_early_among_fill 0
Core_0_LLC_prefetch_too_early_among_useless 0
Core_0_LLC_prefetch_pollution_evict 7125
Core_0_LLC_prefetch_pollution_demand 7125
Core_0_LLC_prefetch_pollution_among_prefetch_fill 0.711291
Core_0_LLC_prefetch_accuracy 0
Core_0_LLC_prefetch_coverage 0

[DRAM Statistics]
Channel_0_RQ_row_buffer_hit 5940
Channel_0_RQ_row_buffer_miss 138903
Channel_0_WQ_row_buffer_hit 22604
Channel_0_WQ_row_buffer_miss 82687
Channel_0_WQ_full 0
Channel_0_dbus_congested 777094
DRAM_total_RQ_row_buffer_hit 5940
DRAM_total_RQ_row_buffer_miss 138903
DRAM_total_WQ_row_buffer_hit 22604
DRAM_total_WQ_row_buffer_miss 82687
DRAM_total_WQ_full 0
DRAM_total_dbus_congested 777094
DRAM_avg_congested_cycle 15.7475

====== DRAM_RQ_TRAFFIC ========
DRAM_RQ_READ_TRAFFIC_BREAKDOWN:
data_demand_read.count = 126032
data_demand_read.share = 87.01%

inst_demand_read.count = 3105
inst_demand_read.share = 2.14%

cache_inst_prefetch.count = 0
cache_inst_prefetch.share = 0.00%

cache_data_prefetch.count = 10017
cache_data_prefetch.share = 6.92%

stlb_data_demand.count = 5631
stlb_data_demand.share = 3.89%

stlb_inst_demand.count = 64
stlb_inst_demand.share = 0.04%

stlb_l1i_pref.count = 0
stlb_l1i_pref.share = 0.00%

stlb_l1d_pref.count = 0
stlb_l1d_pref.share = 0.00%

DRAM_RQ_READ_TRAFFIC_SUMMARY:
cache_demand.count = 129137
cache_demand.share = 89.15%

cache_prefetch.count = 10017
cache_prefetch.share = 6.92%

stlb_demand.count = 5695
stlb_demand.share = 3.93%

stlb_prefetch.count = 0
stlb_prefetch.share = 0.00%

DRAM_RQ_READ_TRAFFIC_DEBUG:
total_classified_read.count = 144849
unclassified_read.count = 0
total_read_with_other.count = 144849

classified_plus_unclassified_check.count = 144849
dram_rq_read_total_observed.count = 144849
dram_rq_read_total_observed.per_1K_instructions = 1.44849

STLB_MISS_PTW_DRAM_TOUCH_BREAKDOWN:
stlb_miss_total.count = 160191

stlb_miss_touch_dram.count = 5695
stlb_miss_touch_dram.share = 3.56%

stlb_miss_no_dram_touch.count = 154496
stlb_miss_no_dram_touch.share = 96.44%

STLB_MISS_PTW_DRAM_TOUCH_DEBUG:
stlb_miss_touch_plus_no_touch.count = 160191
stlb_miss_total_check.count = 160191

======STLB miss causes ========
Core_0_STLB_miss_cause_breakdown
Core_0_STLB_cause_Demand_Data_miss 104306
Core_0_STLB_cause_Demand_Data_miss_rate 0.0638915
Core_0_STLB_cause_Demand_Instruction_miss 55885
Core_0_STLB_cause_Demand_Instruction_miss_rate 0.0342318
Core_0_STLB_cause_L1D_Prefetch_miss 0
Core_0_STLB_cause_L1D_Prefetch_miss_rate 0
Core_0_STLB_cause_L1D_Prefetch_Same_Page_miss 0
Core_0_STLB_cause_L1D_Prefetch_Same_Page_miss_rate 0
Core_0_STLB_cause_L1D_Prefetch_Cross_Page_miss 0
Core_0_STLB_cause_L1D_Prefetch_Cross_Page_miss_rate 0
Core_0_STLB_cause_L1I_Prefetch_miss 0
Core_0_STLB_cause_L1I_Prefetch_miss_rate 0
Core_0_STLB_cause_Other_miss 0
Core_0_STLB_cause_Other_miss_rate 0
Core_0_STLB_Demand_miss 160191
Core_0_STLB_Demand_miss_rate 0.0981233
Core_0_STLB_L1D_Prefetch_miss 0
Core_0_STLB_L1D_Prefetch_miss_rate 0
Core_0_STLB_Other_miss 0
Core_0_STLB_Other_miss_rate 0

========== vBerti-TLB Cross-page Flow Stats ==========

Core_0_vBerti_Requested 0
Core_0_vBerti_Cross_page_prefetch_in_Requested 0
Core_0_vBerti_Same_page_prefetch_in_Requested 0
Core_0_vBerti_Cross_page_prefetch_of_Requested 0
Core_0_vBerti_Issued 0
Core_0_vBerti_PQ_Drop_Rate 0
Core_0_vBerti_InPQ_Cross_page_prefetch_of_Requested 0
Core_0_vBerti_Cross_page_PQ_Drop_rate 0
Core_0_vBerti_Cross_page_prefetch_of_Issued 0

========= DTLB_vBerti Prefetch Stats =========
Core_0_DTLB_demand_access 21324325
Core_0_DTLB_demand_hit 19619013
Core_0_DTLB_demand_miss 1705312
Core_0_DTLB_demand_mshr_merge 452934
Core_0_DTLB_demand_fill 1252378
Core_0_DTLB_demand_miss_rate 0.0799703
Core_0_DTLB_demand_mpki 17.0531
Core_0_DTLB_vberti_prefetch_access 0
Core_0_DTLB_vberti_prefetch_hit 0
Core_0_DTLB_vberti_prefetch_miss 0
Core_0_DTLB_vberti_prefetch_mshr_merge 0
Core_0_DTLB_vberti_prefetch_fill 0
Core_0_DTLB_vberti_prefetch_miss_rate 0
Core_0_DTLB_vberti_prefetch_mpki 0

=== DTLB_vBerti Same/Cross-page Prefetch Stats ===
Core_0_DTLB_vberti_same_page_prefetch 0
Core_0_DTLB_vberti_same_page_prefetch_hit 0
Core_0_DTLB_vberti_same_page_prefetch_miss 0
Core_0_DTLB_vberti_same_page_prefetch_mshr_merge 0
Core_0_DTLB_vberti_same_page_prefetch_fill 0
Core_0_DTLB_vberti_same_page_prefetch_miss_rate 0
Core_0_DTLB_vberti_same_page_prefetch_mpki 0
Core_0_DTLB_vberti_cross_page_prefetch 0
Core_0_DTLB_vberti_cross_page_prefetch_hit 0
Core_0_DTLB_vberti_cross_page_prefetch_miss 0
Core_0_DTLB_vberti_cross_page_prefetch_mshr_merge 0
Core_0_DTLB_vberti_cross_page_prefetch_fill 0
Core_0_DTLB_vberti_cross_page_prefetch_miss_rate 0
Core_0_DTLB_vberti_cross_page_prefetch_mpki 0
Core_0_DTLB_same_page_prefetch_miss_rate 0
Core_0_DTLB_same_page_prefetch_mpki 0
Core_0_DTLB_cross_page_prefetch_miss_rate 0
Core_0_DTLB_cross_page_prefetch_mpki 0
Core_0_DTLB_cross_page_prefetch_issued 0
Core_0_DTLB_cross_page_prefetch_lookups 0
Core_0_DTLB_cross_page_prefetch_useful 0
Core_0_DTLB_cross_page_prefetch_useless 0
Core_0_DTLB_cross_page_prefetch_late 0
Core_0_DTLB_cross_page_prefetch_too_early 0
Core_0_DTLB_cross_page_prefetch_too_early_among_fill 0
Core_0_DTLB_cross_page_prefetch_too_early_among_useless 0
Core_0_DTLB_cross_page_prefetch_pollution_evict 0
Core_0_DTLB_cross_page_prefetch_pollution_demand 0
Core_0_DTLB_cross_page_prefetch_pollution_among_prefetch_fill 0
Core_0_DTLB_cross_page_prefetch_accuracy 0
Core_0_DTLB_cross_page_prefetch_coverage 0

========= STLB_vBerti Prefetch Stats =========
Core_0_STLB_demand_access 1632548
Core_0_STLB_demand_hit 1472357
Core_0_STLB_demand_miss 160191
Core_0_STLB_demand_mshr_merge 0
Core_0_STLB_demand_fill 160191
Core_0_STLB_demand_miss_rate 0.0981233
Core_0_STLB_demand_mpki 1.60191
Core_0_STLB_vberti_prefetch_access 0
Core_0_STLB_vberti_prefetch_hit 0
Core_0_STLB_vberti_prefetch_miss 0
Core_0_STLB_vberti_prefetch_mshr_merge 0
Core_0_STLB_vberti_prefetch_fill 0
Core_0_STLB_vberti_prefetch_miss_rate 0
Core_0_STLB_vberti_prefetch_mpki 0

=== STLB_vBerti Same/Cross-page Prefetch Stats ===
Core_0_STLB_vberti_same_page_prefetch 0
Core_0_STLB_vberti_same_page_prefetch_hit 0
Core_0_STLB_vberti_same_page_prefetch_miss 0
Core_0_STLB_vberti_same_page_prefetch_mshr_merge 0
Core_0_STLB_vberti_same_page_prefetch_fill 0
Core_0_STLB_vberti_same_page_prefetch_miss_rate 0
Core_0_STLB_vberti_same_page_prefetch_mpki 0
Core_0_STLB_vberti_cross_page_prefetch 0
Core_0_STLB_vberti_cross_page_prefetch_hit 0
Core_0_STLB_vberti_cross_page_prefetch_miss 0
Core_0_STLB_vberti_cross_page_prefetch_mshr_merge 0
Core_0_STLB_vberti_cross_page_prefetch_fill 0
Core_0_STLB_vberti_cross_page_prefetch_miss_rate 0
Core_0_STLB_vberti_cross_page_prefetch_mpki 0
Core_0_STLB_same_page_prefetch_miss_rate 0
Core_0_STLB_same_page_prefetch_mpki 0
Core_0_STLB_cross_page_prefetch_miss_rate 0
Core_0_STLB_cross_page_prefetch_mpki 0
Core_0_STLB_cross_page_prefetch_issued 0
Core_0_STLB_cross_page_prefetch_lookups 0
Core_0_STLB_cross_page_prefetch_useful 0
Core_0_STLB_cross_page_prefetch_useless 0
Core_0_STLB_cross_page_prefetch_late 0
Core_0_STLB_cross_page_prefetch_too_early 0
Core_0_STLB_cross_page_prefetch_too_early_among_fill 0
Core_0_STLB_cross_page_prefetch_too_early_among_useless 0
Core_0_STLB_cross_page_prefetch_pollution_evict 0
Core_0_STLB_cross_page_prefetch_pollution_demand 0
Core_0_STLB_cross_page_prefetch_pollution_among_prefetch_fill 0
Core_0_STLB_cross_page_prefetch_accuracy 0
Core_0_STLB_cross_page_prefetch_coverage 0

========= STLB Cross-page Prefetch Buffer Stats =========
Core_0_STLB_raw_demand_miss 104306
Core_0_CP_PB_insert 0
Core_0_CP_PB_demand_hit 0
Core_0_STLB_PB_demand_miss 104306
Core_0_CP_PB_coverage 0
Core_0_STLB_raw_demand_mpki 1.04306
Core_0_STLB_PB_demand_mpki 1.04306
Core_0_CP_PB_demand_hit_mpki 0

Core_0_TLB_demand_miss_rate 0.00751213
Core_0_TLB_demand_mpki 1.60191
Core_0_TLB_same_page_prefetch_miss_rate 0
Core_0_TLB_same_page_prefetch_mpki 0
Core_0_TLB_cross_page_prefetch_miss_rate 0
Core_0_TLB_cross_page_prefetch_mpki 0
Core_0_TLB_cross_page_prefetch_issued 0
Core_0_TLB_cross_page_prefetch_lookups 0
Core_0_TLB_cross_page_prefetch_useful 0
Core_0_TLB_cross_page_prefetch_useless 0
Core_0_TLB_cross_page_prefetch_late 0
Core_0_TLB_cross_page_prefetch_too_early 0
Core_0_TLB_cross_page_prefetch_too_early_among_fill 0
Core_0_TLB_cross_page_prefetch_too_early_among_useless 0
Core_0_TLB_cross_page_prefetch_accuracy 0
Core_0_TLB_cross_page_prefetch_coverage 0
