[VMEM] WARNING: physical memory size is smaller than virtual memory size.

*** ChampSim Multicore Out-of-Order Simulator ***
Warmup Instructions: 50000000
Simulation Instructions: 100000000
Number of CPUs: 1
Page size: 4096
Core 0: /data2/zcq/champsim_traces_gap/sssp.urand-4819B.champsimtrace.xz
Off-chip DRAM Size: 16 GiB Channels: 1 Width: 64-bit Data Rate: 3205 MT/s
Warmup halting CPU 0 at instruction 50000005 cycle 41603657 for remainder of phase
Warmup finished CPU 0 instructions: 50000005 cycles: 41603657 cumulative IPC: 1.202 (Simulation time: 00 hr 07 min 32 sec)
Warmup complete CPU 0 instructions: 50000005 cycles: 41603657 cumulative IPC: 1.202 (Simulation time: 00 hr 07 min 32 sec)
Simulation finished CPU 0 instructions: 100000000 cycles: 610890269 cumulative IPC: 0.1637 (Simulation time: 01 hr 06 min 40 sec)
Simulation complete CPU 0 instructions: 100000000 cycles: 610890269 cumulative IPC: 0.1637 (Simulation time: 01 hr 06 min 40 sec)

ChampSim completed all CPUs

=== Simulation ===
CPU 0 runs /data2/zcq/champsim_traces_gap/sssp.urand-4819B.champsimtrace.xz

Region of Interest Statistics

CPU 0 cumulative IPC: 0.1637 instructions: 100000000 cycles: 610890269
CPU 0 Branch Prediction Accuracy: 96.72% MPKI: 4.972 Average ROB Occupancy at Mispredict: 157
Branch type MPKI
BRANCH_DIRECT_JUMP: 0
BRANCH_INDIRECT: 0
BRANCH_CONDITIONAL: 4.972
BRANCH_DIRECT_CALL: 0
BRANCH_INDIRECT_CALL: 0
BRANCH_RETURN: 0

cpu0->cpu0_STLB TOTAL        ACCESS:    7609205 HIT:     365444 MISS:    7243761 MSHR_MERGE:          0
cpu0->cpu0_STLB LOAD         ACCESS:    7609205 HIT:     365444 MISS:    7243761 MSHR_MERGE:          0
cpu0->cpu0_STLB RFO          ACCESS:          0 HIT:          0 MISS:          0 MSHR_MERGE:          0
cpu0->cpu0_STLB PREFETCH     ACCESS:          0 HIT:          0 MISS:          0 MSHR_MERGE:          0
cpu0->cpu0_STLB WRITE        ACCESS:          0 HIT:          0 MISS:          0 MSHR_MERGE:          0
cpu0->cpu0_STLB TRANSLATION  ACCESS:          0 HIT:          0 MISS:          0 MSHR_MERGE:          0
cpu0->cpu0_STLB PREFETCH REQUESTED:          0 ISSUED:          0 USEFUL:          0 USELESS:          0 LATE:          0
cpu0->cpu0_STLB AVERAGE MISS LATENCY: 67.15 cycles
cpu0->cpu0_L2C TOTAL        ACCESS:   18244439 HIT:    3022087 MISS:   15222352 MSHR_MERGE:     267354
cpu0->cpu0_L2C LOAD         ACCESS:    8183532 HIT:     420323 MISS:    7763209 MSHR_MERGE:      51883
cpu0->cpu0_L2C RFO          ACCESS:     179158 HIT:     142969 MISS:      36189 MSHR_MERGE:          0
cpu0->cpu0_L2C PREFETCH     ACCESS:    1730032 HIT:     561572 MISS:    1168460 MSHR_MERGE:     215471
cpu0->cpu0_L2C WRITE        ACCESS:     519662 HIT:     518576 MISS:       1086 MSHR_MERGE:          0
cpu0->cpu0_L2C TRANSLATION  ACCESS:    7632055 HIT:    1378647 MISS:    6253408 MSHR_MERGE:          0
cpu0->cpu0_L2C PREFETCH REQUESTED:    1730032 ISSUED:    1730032 USEFUL:     378171 USELESS:     574001 LATE:      51883
cpu0->cpu0_L2C AVERAGE MISS LATENCY: 159.3 cycles
cpu0->cpu0_L1I TOTAL        ACCESS:     522285 HIT:     522285 MISS:          0 MSHR_MERGE:          0
cpu0->cpu0_L1I LOAD         ACCESS:     522285 HIT:     522285 MISS:          0 MSHR_MERGE:          0
cpu0->cpu0_L1I RFO          ACCESS:          0 HIT:          0 MISS:          0 MSHR_MERGE:          0
cpu0->cpu0_L1I PREFETCH     ACCESS:          0 HIT:          0 MISS:          0 MSHR_MERGE:          0
cpu0->cpu0_L1I WRITE        ACCESS:          0 HIT:          0 MISS:          0 MSHR_MERGE:          0
cpu0->cpu0_L1I TRANSLATION  ACCESS:          0 HIT:          0 MISS:          0 MSHR_MERGE:          0
cpu0->cpu0_L1I PREFETCH REQUESTED:          0 ISSUED:          0 USEFUL:          0 USELESS:          0 LATE:          0
cpu0->cpu0_L1I AVERAGE MISS LATENCY: - cycles
cpu0->cpu0_L1D TOTAL        ACCESS:   52841696 HIT:   32419735 MISS:   20421961 MSHR_MERGE:    4427213
cpu0->cpu0_L1D LOAD         ACCESS:   31687642 HIT:   19092102 MISS:   12595540 MSHR_MERGE:    4412006
cpu0->cpu0_L1D RFO          ACCESS:          0 HIT:          0 MISS:          0 MSHR_MERGE:          0
cpu0->cpu0_L1D PREFETCH     ACCESS:          0 HIT:          0 MISS:          0 MSHR_MERGE:          0
cpu0->cpu0_L1D WRITE        ACCESS:    1406270 HIT:    1223442 MISS:     182828 MSHR_MERGE:       3668
cpu0->cpu0_L1D TRANSLATION  ACCESS:   19747784 HIT:   12104191 MISS:    7643593 MSHR_MERGE:      11539
cpu0->cpu0_L1D PREFETCH REQUESTED:          0 ISSUED:          0 USEFUL:          0 USELESS:          0 LATE:          0
cpu0->cpu0_L1D AVERAGE MISS LATENCY: 148.9 cycles
cpu0->cpu0_ITLB TOTAL        ACCESS:     520348 HIT:     520348 MISS:          0 MSHR_MERGE:          0
cpu0->cpu0_ITLB LOAD         ACCESS:     520348 HIT:     520348 MISS:          0 MSHR_MERGE:          0
cpu0->cpu0_ITLB RFO          ACCESS:          0 HIT:          0 MISS:          0 MSHR_MERGE:          0
cpu0->cpu0_ITLB PREFETCH     ACCESS:          0 HIT:          0 MISS:          0 MSHR_MERGE:          0
cpu0->cpu0_ITLB WRITE        ACCESS:          0 HIT:          0 MISS:          0 MSHR_MERGE:          0
cpu0->cpu0_ITLB TRANSLATION  ACCESS:          0 HIT:          0 MISS:          0 MSHR_MERGE:          0
cpu0->cpu0_ITLB PREFETCH REQUESTED:          0 ISSUED:          0 USEFUL:          0 USELESS:          0 LATE:          0
cpu0->cpu0_ITLB AVERAGE MISS LATENCY: - cycles
cpu0->cpu0_DTLB TOTAL        ACCESS:   32799230 HIT:   21767477 MISS:   11031753 MSHR_MERGE:    3422548
cpu0->cpu0_DTLB LOAD         ACCESS:   32799230 HIT:   21767477 MISS:   11031753 MSHR_MERGE:    3422548
cpu0->cpu0_DTLB RFO          ACCESS:          0 HIT:          0 MISS:          0 MSHR_MERGE:          0
cpu0->cpu0_DTLB PREFETCH     ACCESS:          0 HIT:          0 MISS:          0 MSHR_MERGE:          0
cpu0->cpu0_DTLB WRITE        ACCESS:          0 HIT:          0 MISS:          0 MSHR_MERGE:          0
cpu0->cpu0_DTLB TRANSLATION  ACCESS:          0 HIT:          0 MISS:          0 MSHR_MERGE:          0
cpu0->cpu0_DTLB PREFETCH REQUESTED:          0 ISSUED:          0 USEFUL:          0 USELESS:          0 LATE:          0
cpu0->cpu0_DTLB AVERAGE MISS LATENCY: 69.97 cycles
cpu0->LLC TOTAL        ACCESS:   15258913 HIT:    5707662 MISS:    9551251 MSHR_MERGE:         61
cpu0->LLC LOAD         ACCESS:    7711326 HIT:      18501 MISS:    7692825 MSHR_MERGE:         26
cpu0->LLC RFO          ACCESS:      36189 HIT:      18773 MISS:      17416 MSHR_MERGE:          0
cpu0->LLC PREFETCH     ACCESS:     952989 HIT:       3126 MISS:     949863 MSHR_MERGE:         35
cpu0->LLC WRITE        ACCESS:     305001 HIT:      83639 MISS:     221362 MSHR_MERGE:          0
cpu0->LLC TRANSLATION  ACCESS:    6253408 HIT:    5583623 MISS:     669785 MSHR_MERGE:          0
cpu0->LLC PREFETCH REQUESTED:          0 ISSUED:          0 USEFUL:          0 USELESS:          0 LATE:          0
cpu0->LLC AVERAGE MISS LATENCY: 234 cycles

DRAM Statistics

Channel 0 RQ ROW_BUFFER_HIT:        140
  ROW_BUFFER_MISS:    9329685
  AVG DBUS CONGESTED CYCLE: 7.972
Channel 0 WQ ROW_BUFFER_HIT:      80423
  ROW_BUFFER_MISS:     196231
  FULL:          0
Channel 0 REFRESHES ISSUED:      50908

[ROI Statistics]
[System Configuration]
num_cpus 1
cpu_freq 4000
fetch_width 6
decode_width 6
dispatch_width 6
execute_width 6
lq_width 2
sq_width 2
retire_width 6
scheduler_size 128
branch_mispredict_penalty 15
rob_size 352
lq_size 128
sq_size 72
ifetch_buffer_size 64
decode_buffer_size 32
dispatch_buffer_size 32
register_file_size 288
decode_latency 1
dispatch_latency 1
schedule_latency 1
execute_latency 1
page_size 4096
block_size 64
core_0_itlb_set 16
core_0_itlb_way 4
core_0_itlb_rq_size 16
core_0_itlb_wq_size 16
core_0_itlb_pq_size 0
core_0_itlb_mshr_size 8
core_0_itlb_hit_latency 1
core_0_itlb_fill_latency 1
core_0_itlb_max_tag_check 2
core_0_itlb_max_fill 2
core_0_dtlb_set 16
core_0_dtlb_way 4
core_0_dtlb_rq_size 16
core_0_dtlb_wq_size 16
core_0_dtlb_pq_size 0
core_0_dtlb_mshr_size 8
core_0_dtlb_hit_latency 1
core_0_dtlb_fill_latency 1
core_0_dtlb_max_tag_check 2
core_0_dtlb_max_fill 2
core_0_stlb_set 128
core_0_stlb_way 12
core_0_stlb_rq_size 32
core_0_stlb_wq_size 32
core_0_stlb_pq_size 0
core_0_stlb_mshr_size 16
core_0_stlb_hit_latency 4
core_0_stlb_fill_latency 4
core_0_stlb_max_tag_check 1
core_0_stlb_max_fill 1
core_0_l1i_set 64
core_0_l1i_way 8
core_0_l1i_rq_size 64
core_0_l1i_wq_size 64
core_0_l1i_pq_size 32
core_0_l1i_mshr_size 8
core_0_l1i_hit_latency 2
core_0_l1i_fill_latency 2
core_0_l1i_max_tag_check 2
core_0_l1i_max_fill 2
core_0_l1d_set 64
core_0_l1d_way 12
core_0_l1d_rq_size 64
core_0_l1d_wq_size 64
core_0_l1d_pq_size 8
core_0_l1d_mshr_size 16
core_0_l1d_hit_latency 2
core_0_l1d_fill_latency 3
core_0_l1d_max_tag_check 2
core_0_l1d_max_fill 2
core_0_l2c_set 1024
core_0_l2c_way 8
core_0_l2c_rq_size 32
core_0_l2c_wq_size 32
core_0_l2c_pq_size 16
core_0_l2c_mshr_size 32
core_0_l2c_hit_latency 5
core_0_l2c_fill_latency 5
core_0_l2c_max_tag_check 1
core_0_l2c_max_fill 1
llc_set 2048
llc_way 16
llc_rq_size 32
llc_wq_size 32
llc_pq_size 32
llc_mshr_size 64
llc_hit_latency 10
llc_fill_latency 10
llc_max_tag_check 1
llc_max_fill 1
dram_channels 1
dram_ranks 1
dram_bankgroups 8
dram_banks 4
dram_rows 65536
dram_columns 1024
dram_channel_width 8
dram_rq_size 64
dram_wq_size 64
dram_size 17179869184
core_0_itlb_prefetcher no
core_0_dtlb_prefetcher no
core_0_stlb_prefetcher no
core_0_l1i_prefetcher next_line
core_0_l1d_prefetcher no
core_0_l2c_prefetcher ip_stride
llc_prefetcher no
llc_replacement drrip

Core_0_instructions 100000000
Core_0_cycles 610890269
Core_0_IPC 0.163696
Core_0_branch_prediction_accuracy 96.7226
Core_0_branch_MPKI 4.97203
Core_0_average_ROB_occupancy_at_mispredict 157.018

Core_0_ITLB_total_access 520348
Core_0_ITLB_total_hit 520348
Core_0_ITLB_total_miss 0
Core_0_ITLB_total_MPKI 0
Core_0_ITLB_total_miss_rate 0
Core_0_ITLB_demand_access 520348
Core_0_ITLB_demand_hit 520348
Core_0_ITLB_demand_miss 0
Core_0_ITLB_demand_MPKI 0
Core_0_ITLB_demand_miss_rate 0
Core_0_ITLB_load_access 520348
Core_0_ITLB_load_hit 520348
Core_0_ITLB_load_miss 0
Core_0_ITLB_load_MPKI 0
Core_0_ITLB_load_miss_rate 0
Core_0_ITLB_rfo_access 0
Core_0_ITLB_rfo_hit 0
Core_0_ITLB_rfo_miss 0
Core_0_ITLB_rfo_MPKI 0
Core_0_ITLB_rfo_miss_rate 0
Core_0_ITLB_prefetch_access 0
Core_0_ITLB_prefetch_hit 0
Core_0_ITLB_prefetch_miss 0
Core_0_ITLB_prefetch_MPKI 0
Core_0_ITLB_prefetch_miss_rate 0
Core_0_ITLB_writeback_access 0
Core_0_ITLB_writeback_hit 0
Core_0_ITLB_writeback_miss 0
Core_0_ITLB_writeback_MPKI 0
Core_0_ITLB_writeback_miss_rate 0
Core_0_ITLB_prefetch_requested 0
Core_0_ITLB_prefetch_issued 0
Core_0_ITLB_prefetch_useful 0
Core_0_ITLB_prefetch_useless 0
Core_0_ITLB_prefetch_late 0
Core_0_ITLB_prefetch_fill 0
Core_0_ITLB_prefetch_accuracy 0
Core_0_ITLB_prefetch_coverage 0

Core_0_DTLB_total_access 32799230
Core_0_DTLB_total_hit 21767477
Core_0_DTLB_total_miss 11031753
Core_0_DTLB_total_MPKI 110.318
Core_0_DTLB_total_miss_rate 0.336342
Core_0_DTLB_demand_access 32799230
Core_0_DTLB_demand_hit 21767477
Core_0_DTLB_demand_miss 11031753
Core_0_DTLB_demand_MPKI 110.318
Core_0_DTLB_demand_miss_rate 0.336342
Core_0_DTLB_load_access 32799230
Core_0_DTLB_load_hit 21767477
Core_0_DTLB_load_miss 11031753
Core_0_DTLB_load_MPKI 110.318
Core_0_DTLB_load_miss_rate 0.336342
Core_0_DTLB_rfo_access 0
Core_0_DTLB_rfo_hit 0
Core_0_DTLB_rfo_miss 0
Core_0_DTLB_rfo_MPKI 0
Core_0_DTLB_rfo_miss_rate 0
Core_0_DTLB_prefetch_access 0
Core_0_DTLB_prefetch_hit 0
Core_0_DTLB_prefetch_miss 0
Core_0_DTLB_prefetch_MPKI 0
Core_0_DTLB_prefetch_miss_rate 0
Core_0_DTLB_writeback_access 0
Core_0_DTLB_writeback_hit 0
Core_0_DTLB_writeback_miss 0
Core_0_DTLB_writeback_MPKI 0
Core_0_DTLB_writeback_miss_rate 0
Core_0_DTLB_prefetch_requested 0
Core_0_DTLB_prefetch_issued 0
Core_0_DTLB_prefetch_useful 0
Core_0_DTLB_prefetch_useless 0
Core_0_DTLB_prefetch_late 0
Core_0_DTLB_prefetch_fill 0
Core_0_DTLB_prefetch_accuracy 0
Core_0_DTLB_prefetch_coverage 0

Core_0_STLB_total_access 7609205
Core_0_STLB_total_hit 365444
Core_0_STLB_total_miss 7243761
Core_0_STLB_total_MPKI 72.4376
Core_0_STLB_total_miss_rate 0.951973
Core_0_STLB_demand_access 7609205
Core_0_STLB_demand_hit 365444
Core_0_STLB_demand_miss 7243761
Core_0_STLB_demand_MPKI 72.4376
Core_0_STLB_demand_miss_rate 0.951973
Core_0_STLB_load_access 7609205
Core_0_STLB_load_hit 365444
Core_0_STLB_load_miss 7243761
Core_0_STLB_load_MPKI 72.4376
Core_0_STLB_load_miss_rate 0.951973
Core_0_STLB_rfo_access 0
Core_0_STLB_rfo_hit 0
Core_0_STLB_rfo_miss 0
Core_0_STLB_rfo_MPKI 0
Core_0_STLB_rfo_miss_rate 0
Core_0_STLB_prefetch_access 0
Core_0_STLB_prefetch_hit 0
Core_0_STLB_prefetch_miss 0
Core_0_STLB_prefetch_MPKI 0
Core_0_STLB_prefetch_miss_rate 0
Core_0_STLB_writeback_access 0
Core_0_STLB_writeback_hit 0
Core_0_STLB_writeback_miss 0
Core_0_STLB_writeback_MPKI 0
Core_0_STLB_writeback_miss_rate 0
Core_0_STLB_prefetch_requested 0
Core_0_STLB_prefetch_issued 0
Core_0_STLB_prefetch_useful 0
Core_0_STLB_prefetch_useless 0
Core_0_STLB_prefetch_late 0
Core_0_STLB_prefetch_fill 0
Core_0_STLB_prefetch_accuracy 0
Core_0_STLB_prefetch_coverage 0

Core_0_L1I_total_access 522285
Core_0_L1I_total_hit 522285
Core_0_L1I_total_miss 0
Core_0_L1I_total_MPKI 0
Core_0_L1I_total_miss_rate 0
Core_0_L1I_demand_access 522285
Core_0_L1I_demand_hit 522285
Core_0_L1I_demand_miss 0
Core_0_L1I_demand_MPKI 0
Core_0_L1I_demand_miss_rate 0
Core_0_L1I_load_access 522285
Core_0_L1I_load_hit 522285
Core_0_L1I_load_miss 0
Core_0_L1I_load_MPKI 0
Core_0_L1I_load_miss_rate 0
Core_0_L1I_rfo_access 0
Core_0_L1I_rfo_hit 0
Core_0_L1I_rfo_miss 0
Core_0_L1I_rfo_MPKI 0
Core_0_L1I_rfo_miss_rate 0
Core_0_L1I_prefetch_access 0
Core_0_L1I_prefetch_hit 0
Core_0_L1I_prefetch_miss 0
Core_0_L1I_prefetch_MPKI 0
Core_0_L1I_prefetch_miss_rate 0
Core_0_L1I_writeback_access 0
Core_0_L1I_writeback_hit 0
Core_0_L1I_writeback_miss 0
Core_0_L1I_writeback_MPKI 0
Core_0_L1I_writeback_miss_rate 0
Core_0_L1I_prefetch_requested 0
Core_0_L1I_prefetch_issued 0
Core_0_L1I_prefetch_useful 0
Core_0_L1I_prefetch_useless 0
Core_0_L1I_prefetch_late 0
Core_0_L1I_prefetch_fill 0
Core_0_L1I_prefetch_accuracy 0
Core_0_L1I_prefetch_coverage 0

Core_0_L1D_total_access 33093912
Core_0_L1D_total_hit 20315544
Core_0_L1D_total_miss 12778368
Core_0_L1D_total_MPKI 127.784
Core_0_L1D_total_miss_rate 0.386124
Core_0_L1D_demand_access 31687642
Core_0_L1D_demand_hit 19092102
Core_0_L1D_demand_miss 12595540
Core_0_L1D_demand_MPKI 125.955
Core_0_L1D_demand_miss_rate 0.397491
Core_0_L1D_load_access 31687642
Core_0_L1D_load_hit 19092102
Core_0_L1D_load_miss 12595540
Core_0_L1D_load_MPKI 125.955
Core_0_L1D_load_miss_rate 0.397491
Core_0_L1D_rfo_access 0
Core_0_L1D_rfo_hit 0
Core_0_L1D_rfo_miss 0
Core_0_L1D_rfo_MPKI 0
Core_0_L1D_rfo_miss_rate 0
Core_0_L1D_prefetch_access 0
Core_0_L1D_prefetch_hit 0
Core_0_L1D_prefetch_miss 0
Core_0_L1D_prefetch_MPKI 0
Core_0_L1D_prefetch_miss_rate 0
Core_0_L1D_writeback_access 1406270
Core_0_L1D_writeback_hit 1223442
Core_0_L1D_writeback_miss 182828
Core_0_L1D_writeback_MPKI 1.82828
Core_0_L1D_writeback_miss_rate 0.130009
Core_0_L1D_prefetch_requested 0
Core_0_L1D_prefetch_issued 0
Core_0_L1D_prefetch_useful 0
Core_0_L1D_prefetch_useless 0
Core_0_L1D_prefetch_late 0
Core_0_L1D_prefetch_fill 0
Core_0_L1D_prefetch_accuracy 0
Core_0_L1D_prefetch_coverage 0

Core_0_L2C_total_access 10612384
Core_0_L2C_total_hit 1643440
Core_0_L2C_total_miss 8968944
Core_0_L2C_total_MPKI 89.6894
Core_0_L2C_total_miss_rate 0.845139
Core_0_L2C_demand_access 8362690
Core_0_L2C_demand_hit 563292
Core_0_L2C_demand_miss 7799398
Core_0_L2C_demand_MPKI 77.994
Core_0_L2C_demand_miss_rate 0.932642
Core_0_L2C_load_access 8183532
Core_0_L2C_load_hit 420323
Core_0_L2C_load_miss 7763209
Core_0_L2C_load_MPKI 77.6321
Core_0_L2C_load_miss_rate 0.948638
Core_0_L2C_rfo_access 179158
Core_0_L2C_rfo_hit 142969
Core_0_L2C_rfo_miss 36189
Core_0_L2C_rfo_MPKI 0.36189
Core_0_L2C_rfo_miss_rate 0.201995
Core_0_L2C_prefetch_access 1730032
Core_0_L2C_prefetch_hit 561572
Core_0_L2C_prefetch_miss 1168460
Core_0_L2C_prefetch_MPKI 11.6846
Core_0_L2C_prefetch_miss_rate 0.675398
Core_0_L2C_writeback_access 519662
Core_0_L2C_writeback_hit 518576
Core_0_L2C_writeback_miss 1086
Core_0_L2C_writeback_MPKI 0.01086
Core_0_L2C_writeback_miss_rate 0.00208982
Core_0_L2C_prefetch_requested 1730032
Core_0_L2C_prefetch_issued 1730032
Core_0_L2C_prefetch_useful 378171
Core_0_L2C_prefetch_useless 574001
Core_0_L2C_prefetch_late 51883
Core_0_L2C_prefetch_fill 900337
Core_0_L2C_prefetch_accuracy 0.218592
Core_0_L2C_prefetch_coverage 0.0462449

Core_0_LLC_total_access 9005505
Core_0_LLC_total_hit 124039
Core_0_LLC_total_miss 8881466
Core_0_LLC_total_MPKI 88.8147
Core_0_LLC_total_miss_rate 0.986226
Core_0_LLC_demand_access 7747515
Core_0_LLC_demand_hit 37274
Core_0_LLC_demand_miss 7710241
Core_0_LLC_demand_MPKI 77.1024
Core_0_LLC_demand_miss_rate 0.995189
Core_0_LLC_load_access 7711326
Core_0_LLC_load_hit 18501
Core_0_LLC_load_miss 7692825
Core_0_LLC_load_MPKI 76.9283
Core_0_LLC_load_miss_rate 0.997601
Core_0_LLC_rfo_access 36189
Core_0_LLC_rfo_hit 18773
Core_0_LLC_rfo_miss 17416
Core_0_LLC_rfo_MPKI 0.17416
Core_0_LLC_rfo_miss_rate 0.481251
Core_0_LLC_prefetch_access 952989
Core_0_LLC_prefetch_hit 3126
Core_0_LLC_prefetch_miss 949863
Core_0_LLC_prefetch_MPKI 9.49863
Core_0_LLC_prefetch_miss_rate 0.99672
Core_0_LLC_writeback_access 305001
Core_0_LLC_writeback_hit 83639
Core_0_LLC_writeback_miss 221362
Core_0_LLC_writeback_MPKI 2.21362
Core_0_LLC_writeback_miss_rate 0.725775
Core_0_LLC_prefetch_requested 0
Core_0_LLC_prefetch_issued 0
Core_0_LLC_prefetch_useful 0
Core_0_LLC_prefetch_useless 0
Core_0_LLC_prefetch_late 0
Core_0_LLC_prefetch_fill 949802
Core_0_LLC_prefetch_accuracy 0
Core_0_LLC_prefetch_coverage 0

[DRAM Statistics]
Channel_0_RQ_row_buffer_hit 140
Channel_0_RQ_row_buffer_miss 9329685
Channel_0_WQ_row_buffer_hit 80423
Channel_0_WQ_row_buffer_miss 196231
Channel_0_WQ_full 0
Channel_0_dbus_congested 18107248
DRAM_total_RQ_row_buffer_hit 140
DRAM_total_RQ_row_buffer_miss 9329685
DRAM_total_WQ_row_buffer_hit 80423
DRAM_total_WQ_row_buffer_miss 196231
DRAM_total_WQ_full 0
DRAM_total_dbus_congested 18107248
DRAM_avg_congested_cycle 7.97227

====== DRAM_RQ_TRAFFIC ========
DRAM_RQ_READ_TRAFFIC_BREAKDOWN:
data_demand_read.count = 7710216
data_demand_read.share = 82.64%

inst_demand_read.count = 0
inst_demand_read.share = 0.00%

cache_inst_prefetch.count = 0
cache_inst_prefetch.share = 0.00%

cache_data_prefetch.count = 949828
cache_data_prefetch.share = 10.18%

stlb_data_demand.count = 669785
stlb_data_demand.share = 7.18%

stlb_inst_demand.count = 0
stlb_inst_demand.share = 0.00%

stlb_l1i_pref.count = 0
stlb_l1i_pref.share = 0.00%

stlb_l1d_pref.count = 0
stlb_l1d_pref.share = 0.00%

DRAM_RQ_READ_TRAFFIC_SUMMARY:
cache_demand.count = 7710216
cache_demand.share = 82.64%

cache_prefetch.count = 949828
cache_prefetch.share = 10.18%

stlb_demand.count = 669785
stlb_demand.share = 7.18%

stlb_prefetch.count = 0
stlb_prefetch.share = 0.00%

DRAM_RQ_READ_TRAFFIC_DEBUG:
total_classified_read.count = 9329829
unclassified_read.count = 0
total_read_with_other.count = 9329829

classified_plus_unclassified_check.count = 9329829
dram_rq_read_total_observed.count = 9329829
dram_rq_read_total_observed.per_1K_instructions = 93.2983

STLB_MISS_PTW_DRAM_TOUCH_BREAKDOWN:
stlb_miss_total.count = 7243761

stlb_miss_touch_dram.count = 592549
stlb_miss_touch_dram.share = 8.18%

stlb_miss_no_dram_touch.count = 6651212
stlb_miss_no_dram_touch.share = 91.82%

STLB_MISS_PTW_DRAM_TOUCH_DEBUG:
stlb_miss_touch_plus_no_touch.count = 7243761
stlb_miss_total_check.count = 7243761

======STLB miss causes ========
Core_0_STLB_miss_cause_breakdown
Core_0_STLB_cause_Demand_Data_miss 7243761
Core_0_STLB_cause_Demand_Data_miss_rate 0.951973
Core_0_STLB_cause_Demand_Instruction_miss 0
Core_0_STLB_cause_Demand_Instruction_miss_rate 0
Core_0_STLB_cause_L1D_Prefetch_miss 0
Core_0_STLB_cause_L1D_Prefetch_miss_rate 0
Core_0_STLB_cause_L1D_Prefetch_Same_Page_miss 0
Core_0_STLB_cause_L1D_Prefetch_Same_Page_miss_rate 0
Core_0_STLB_cause_L1D_Prefetch_Cross_Page_miss 0
Core_0_STLB_cause_L1D_Prefetch_Cross_Page_miss_rate 0
Core_0_STLB_cause_L1I_Prefetch_miss 0
Core_0_STLB_cause_L1I_Prefetch_miss_rate 0
Core_0_STLB_cause_Other_miss 0
Core_0_STLB_cause_Other_miss_rate 0
Core_0_STLB_Demand_miss 7243761
Core_0_STLB_Demand_miss_rate 0.951973
Core_0_STLB_L1D_Prefetch_miss 0
Core_0_STLB_L1D_Prefetch_miss_rate 0
Core_0_STLB_Other_miss 0
Core_0_STLB_Other_miss_rate 0

========== vBerti-TLB Cross-page Flow Stats ==========

Core_0_vBerti_Requested 0
Core_0_vBerti_Cross_page_prefetch_in_Requested 0
Core_0_vBerti_Same_page_prefetch_in_Requested 0
Core_0_vBerti_Cross_page_prefetch_of_Requested 0
Core_0_vBerti_Issued 0
Core_0_vBerti_PQ_Drop_Rate 0
Core_0_vBerti_InPQ_Cross_page_prefetch_of_Requested 0
Core_0_vBerti_Cross_page_PQ_Drop_rate 0
Core_0_vBerti_Cross_page_prefetch_of_Issued 0

========= DTLB_vBerti Prefetch Stats =========
Core_0_DTLB_demand_access 32799230
Core_0_DTLB_demand_hit 21767477
Core_0_DTLB_demand_miss 11031753
Core_0_DTLB_demand_mshr_merge 3422548
Core_0_DTLB_demand_fill 7609209
Core_0_DTLB_demand_miss_rate 0.336342
Core_0_DTLB_demand_mpki 110.318
Core_0_DTLB_vberti_prefetch_access 0
Core_0_DTLB_vberti_prefetch_hit 0
Core_0_DTLB_vberti_prefetch_miss 0
Core_0_DTLB_vberti_prefetch_mshr_merge 0
Core_0_DTLB_vberti_prefetch_fill 0
Core_0_DTLB_vberti_prefetch_miss_rate 0
Core_0_DTLB_vberti_prefetch_mpki 0

=== DTLB_vBerti Same/Cross-page Prefetch Stats ===
Core_0_DTLB_vberti_same_page_prefetch 0
Core_0_DTLB_vberti_same_page_prefetch_hit 0
Core_0_DTLB_vberti_same_page_prefetch_miss 0
Core_0_DTLB_vberti_same_page_prefetch_mshr_merge 0
Core_0_DTLB_vberti_same_page_prefetch_fill 0
Core_0_DTLB_vberti_same_page_prefetch_miss_rate 0
Core_0_DTLB_vberti_same_page_prefetch_mpki 0
Core_0_DTLB_vberti_cross_page_prefetch 0
Core_0_DTLB_vberti_cross_page_prefetch_hit 0
Core_0_DTLB_vberti_cross_page_prefetch_miss 0
Core_0_DTLB_vberti_cross_page_prefetch_mshr_merge 0
Core_0_DTLB_vberti_cross_page_prefetch_fill 0
Core_0_DTLB_vberti_cross_page_prefetch_miss_rate 0
Core_0_DTLB_vberti_cross_page_prefetch_mpki 0
Core_0_DTLB_same_page_prefetch_miss_rate 0
Core_0_DTLB_same_page_prefetch_mpki 0
Core_0_DTLB_cross_page_prefetch_miss_rate 0
Core_0_DTLB_cross_page_prefetch_mpki 0
Core_0_DTLB_cross_page_prefetch_issued 0
Core_0_DTLB_cross_page_prefetch_lookups 0
Core_0_DTLB_cross_page_prefetch_useful 0
Core_0_DTLB_cross_page_prefetch_useless 0
Core_0_DTLB_cross_page_prefetch_late 0
Core_0_DTLB_cross_page_prefetch_accuracy 0
Core_0_DTLB_cross_page_prefetch_coverage 0

========= STLB_vBerti Prefetch Stats =========
Core_0_STLB_demand_access 7609205
Core_0_STLB_demand_hit 365444
Core_0_STLB_demand_miss 7243761
Core_0_STLB_demand_mshr_merge 0
Core_0_STLB_demand_fill 7243766
Core_0_STLB_demand_miss_rate 0.951973
Core_0_STLB_demand_mpki 72.4376
Core_0_STLB_vberti_prefetch_access 0
Core_0_STLB_vberti_prefetch_hit 0
Core_0_STLB_vberti_prefetch_miss 0
Core_0_STLB_vberti_prefetch_mshr_merge 0
Core_0_STLB_vberti_prefetch_fill 0
Core_0_STLB_vberti_prefetch_miss_rate 0
Core_0_STLB_vberti_prefetch_mpki 0

=== STLB_vBerti Same/Cross-page Prefetch Stats ===
Core_0_STLB_vberti_same_page_prefetch 0
Core_0_STLB_vberti_same_page_prefetch_hit 0
Core_0_STLB_vberti_same_page_prefetch_miss 0
Core_0_STLB_vberti_same_page_prefetch_mshr_merge 0
Core_0_STLB_vberti_same_page_prefetch_fill 0
Core_0_STLB_vberti_same_page_prefetch_miss_rate 0
Core_0_STLB_vberti_same_page_prefetch_mpki 0
Core_0_STLB_vberti_cross_page_prefetch 0
Core_0_STLB_vberti_cross_page_prefetch_hit 0
Core_0_STLB_vberti_cross_page_prefetch_miss 0
Core_0_STLB_vberti_cross_page_prefetch_mshr_merge 0
Core_0_STLB_vberti_cross_page_prefetch_fill 0
Core_0_STLB_vberti_cross_page_prefetch_miss_rate 0
Core_0_STLB_vberti_cross_page_prefetch_mpki 0
Core_0_STLB_same_page_prefetch_miss_rate 0
Core_0_STLB_same_page_prefetch_mpki 0
Core_0_STLB_cross_page_prefetch_miss_rate 0
Core_0_STLB_cross_page_prefetch_mpki 0
Core_0_STLB_cross_page_prefetch_issued 0
Core_0_STLB_cross_page_prefetch_lookups 0
Core_0_STLB_cross_page_prefetch_useful 0
Core_0_STLB_cross_page_prefetch_useless 0
Core_0_STLB_cross_page_prefetch_late 0
Core_0_STLB_cross_page_prefetch_accuracy 0
Core_0_STLB_cross_page_prefetch_coverage 0

Core_0_TLB_demand_miss_rate 0.220852
Core_0_TLB_demand_mpki 72.4376
Core_0_TLB_same_page_prefetch_miss_rate 0
Core_0_TLB_same_page_prefetch_mpki 0
Core_0_TLB_cross_page_prefetch_miss_rate 0
Core_0_TLB_cross_page_prefetch_mpki 0
Core_0_TLB_cross_page_prefetch_issued 0
Core_0_TLB_cross_page_prefetch_lookups 0
Core_0_TLB_cross_page_prefetch_useful 0
Core_0_TLB_cross_page_prefetch_useless 0
Core_0_TLB_cross_page_prefetch_late 0
Core_0_TLB_cross_page_prefetch_accuracy 0
Core_0_TLB_cross_page_prefetch_coverage 0
