[VMEM] WARNING: physical memory size is smaller than virtual memory size.

*** ChampSim Multicore Out-of-Order Simulator ***
Warmup Instructions: 50000000
Simulation Instructions: 100000000
Number of CPUs: 1
Page size: 4096
Core 0: /data2/zcq/champsim_traces_xsbench/xs.XXL64unionized-24B.champsimtrace.xz
Off-chip DRAM Size: 16 GiB Channels: 1 Width: 64-bit Data Rate: 3205 MT/s
Warmup halting CPU 0 at instruction 50000000 cycle 12869735 for remainder of phase
Warmup finished CPU 0 instructions: 50000000 cycles: 12869735 cumulative IPC: 3.885 (Simulation time: 00 hr 02 min 23 sec)
Warmup complete CPU 0 instructions: 50000000 cycles: 12869735 cumulative IPC: 3.885 (Simulation time: 00 hr 02 min 23 sec)
Simulation finished CPU 0 instructions: 100000001 cycles: 306620030 cumulative IPC: 0.3261 (Simulation time: 00 hr 28 min 43 sec)
Simulation complete CPU 0 instructions: 100000001 cycles: 306620030 cumulative IPC: 0.3261 (Simulation time: 00 hr 28 min 43 sec)

ChampSim completed all CPUs

=== Simulation ===
CPU 0 runs /data2/zcq/champsim_traces_xsbench/xs.XXL64unionized-24B.champsimtrace.xz

Region of Interest Statistics

CPU 0 cumulative IPC: 0.3261 instructions: 100000001 cycles: 306620030
CPU 0 Branch Prediction Accuracy: 93.32% MPKI: 15.86 Average ROB Occupancy at Mispredict: 45.51
Branch type MPKI
BRANCH_DIRECT_JUMP: 0.00013
BRANCH_INDIRECT: 0
BRANCH_CONDITIONAL: 15.86
BRANCH_DIRECT_CALL: 8e-05
BRANCH_INDIRECT_CALL: 0
BRANCH_RETURN: 0.00053

cpu0->cpu0_STLB TOTAL        ACCESS:    1577263 HIT:     719502 MISS:     857761 MSHR_MERGE:          0
cpu0->cpu0_STLB LOAD         ACCESS:    1577263 HIT:     719502 MISS:     857761 MSHR_MERGE:          0
cpu0->cpu0_STLB RFO          ACCESS:          0 HIT:          0 MISS:          0 MSHR_MERGE:          0
cpu0->cpu0_STLB PREFETCH     ACCESS:          0 HIT:          0 MISS:          0 MSHR_MERGE:          0
cpu0->cpu0_STLB WRITE        ACCESS:          0 HIT:          0 MISS:          0 MSHR_MERGE:          0
cpu0->cpu0_STLB TRANSLATION  ACCESS:          0 HIT:          0 MISS:          0 MSHR_MERGE:          0
cpu0->cpu0_STLB PREFETCH REQUESTED:          0 ISSUED:          0 USEFUL:          0 USELESS:          0 LATE:          0 TOO_EARLY:          0
cpu0->cpu0_STLB AVERAGE MISS LATENCY: 23.83 cycles
cpu0->cpu0_L2C TOTAL        ACCESS:    6230208 HIT:    3530695 MISS:    2699513 MSHR_MERGE:     238262
cpu0->cpu0_L2C LOAD         ACCESS:    2705888 HIT:     717926 MISS:    1987962 MSHR_MERGE:      80961
cpu0->cpu0_L2C RFO          ACCESS:     275637 HIT:      75533 MISS:     200104 MSHR_MERGE:          0
cpu0->cpu0_L2C PREFETCH     ACCESS:    1022138 HIT:     538071 MISS:     484067 MSHR_MERGE:     157301
cpu0->cpu0_L2C WRITE        ACCESS:    1615755 HIT:    1615726 MISS:         29 MSHR_MERGE:          0
cpu0->cpu0_L2C TRANSLATION  ACCESS:     610790 HIT:     583439 MISS:      27351 MSHR_MERGE:          0
cpu0->cpu0_L2C PREFETCH REQUESTED:    1041155 ISSUED:    1022138 USEFUL:     258631 USELESS:        200 LATE:      80961 TOO_EARLY:         97
cpu0->cpu0_L2C AVERAGE MISS LATENCY: 236.5 cycles
cpu0->cpu0_L1I TOTAL        ACCESS:    2590706 HIT:    2590648 MISS:         58 MSHR_MERGE:          8
cpu0->cpu0_L1I LOAD         ACCESS:    2590706 HIT:    2590648 MISS:         58 MSHR_MERGE:          8
cpu0->cpu0_L1I RFO          ACCESS:          0 HIT:          0 MISS:          0 MSHR_MERGE:          0
cpu0->cpu0_L1I PREFETCH     ACCESS:          0 HIT:          0 MISS:          0 MSHR_MERGE:          0
cpu0->cpu0_L1I WRITE        ACCESS:          0 HIT:          0 MISS:          0 MSHR_MERGE:          0
cpu0->cpu0_L1I TRANSLATION  ACCESS:          0 HIT:          0 MISS:          0 MSHR_MERGE:          0
cpu0->cpu0_L1I PREFETCH REQUESTED:          0 ISSUED:          0 USEFUL:          0 USELESS:          0 LATE:          0 TOO_EARLY:          0
cpu0->cpu0_L1I AVERAGE MISS LATENCY: 217 cycles
cpu0->cpu0_L1D TOTAL        ACCESS:   33359657 HIT:   27589186 MISS:    5770471 MSHR_MERGE:    2178203
cpu0->cpu0_L1D LOAD         ACCESS:   17908689 HIT:   14037519 MISS:    3871170 MSHR_MERGE:    1165332
cpu0->cpu0_L1D RFO          ACCESS:          0 HIT:          0 MISS:          0 MSHR_MERGE:          0
cpu0->cpu0_L1D PREFETCH     ACCESS:          0 HIT:          0 MISS:          0 MSHR_MERGE:          0
cpu0->cpu0_L1D WRITE        ACCESS:   13738040 HIT:   12451585 MISS:    1286455 MSHR_MERGE:    1010815
cpu0->cpu0_L1D TRANSLATION  ACCESS:    1712928 HIT:    1100082 MISS:     612846 MSHR_MERGE:       2056
cpu0->cpu0_L1D PREFETCH REQUESTED:          0 ISSUED:          0 USEFUL:          0 USELESS:          0 LATE:          0 TOO_EARLY:          0
cpu0->cpu0_L1D AVERAGE MISS LATENCY: 154.5 cycles
cpu0->cpu0_ITLB TOTAL        ACCESS:    2213068 HIT:    2213060 MISS:          8 MSHR_MERGE:          1
cpu0->cpu0_ITLB LOAD         ACCESS:    2213068 HIT:    2213060 MISS:          8 MSHR_MERGE:          1
cpu0->cpu0_ITLB RFO          ACCESS:          0 HIT:          0 MISS:          0 MSHR_MERGE:          0
cpu0->cpu0_ITLB PREFETCH     ACCESS:          0 HIT:          0 MISS:          0 MSHR_MERGE:          0
cpu0->cpu0_ITLB WRITE        ACCESS:          0 HIT:          0 MISS:          0 MSHR_MERGE:          0
cpu0->cpu0_ITLB TRANSLATION  ACCESS:          0 HIT:          0 MISS:          0 MSHR_MERGE:          0
cpu0->cpu0_ITLB PREFETCH REQUESTED:          0 ISSUED:          0 USEFUL:          0 USELESS:          0 LATE:          0 TOO_EARLY:          0
cpu0->cpu0_ITLB AVERAGE MISS LATENCY: 345.7 cycles
cpu0->cpu0_DTLB TOTAL        ACCESS:   30652193 HIT:   27963403 MISS:    2688790 MSHR_MERGE:    1111535
cpu0->cpu0_DTLB LOAD         ACCESS:   30652193 HIT:   27963403 MISS:    2688790 MSHR_MERGE:    1111535
cpu0->cpu0_DTLB RFO          ACCESS:          0 HIT:          0 MISS:          0 MSHR_MERGE:          0
cpu0->cpu0_DTLB PREFETCH     ACCESS:          0 HIT:          0 MISS:          0 MSHR_MERGE:          0
cpu0->cpu0_DTLB WRITE        ACCESS:          0 HIT:          0 MISS:          0 MSHR_MERGE:          0
cpu0->cpu0_DTLB TRANSLATION  ACCESS:          0 HIT:          0 MISS:          0 MSHR_MERGE:          0
cpu0->cpu0_DTLB PREFETCH REQUESTED:          0 ISSUED:          0 USEFUL:          0 USELESS:          0 LATE:          0 TOO_EARLY:          0
cpu0->cpu0_DTLB AVERAGE MISS LATENCY: 18.5 cycles
cpu0->LLC TOTAL        ACCESS:    3946861 HIT:     772827 MISS:    3174034 MSHR_MERGE:      57891
cpu0->LLC LOAD         ACCESS:    1907001 HIT:     267752 MISS:    1639249 MSHR_MERGE:      12934
cpu0->LLC RFO          ACCESS:     200104 HIT:      36588 MISS:     163516 MSHR_MERGE:          0
cpu0->LLC PREFETCH     ACCESS:     326766 HIT:      68718 MISS:     258048 MSHR_MERGE:      44957
cpu0->LLC WRITE        ACCESS:    1485639 HIT:     392373 MISS:    1093266 MSHR_MERGE:          0
cpu0->LLC TRANSLATION  ACCESS:      27351 HIT:       7396 MISS:      19955 MSHR_MERGE:          0
cpu0->LLC PREFETCH REQUESTED:          0 ISSUED:          0 USEFUL:          0 USELESS:          0 LATE:          0 TOO_EARLY:          0
cpu0->LLC AVERAGE MISS LATENCY: 165.3 cycles

DRAM Statistics

Channel 0 RQ ROW_BUFFER_HIT:      30011
  ROW_BUFFER_MISS:    1992534
  AVG DBUS CONGESTED CYCLE: 6.059
Channel 0 WQ ROW_BUFFER_HIT:     396728
  ROW_BUFFER_MISS:     937416
  FULL:        612
Channel 0 REFRESHES ISSUED:      25552

[ROI Statistics]
[System Configuration]
num_cpus 1
cpu_freq 4000
fetch_width 6
decode_width 6
dispatch_width 6
execute_width 6
lq_width 2
sq_width 2
retire_width 6
scheduler_size 128
branch_mispredict_penalty 15
rob_size 352
lq_size 128
sq_size 72
ifetch_buffer_size 64
decode_buffer_size 32
dispatch_buffer_size 32
register_file_size 288
decode_latency 1
dispatch_latency 1
schedule_latency 1
execute_latency 1
page_size 4096
block_size 64
core_0_itlb_set 16
core_0_itlb_way 4
core_0_itlb_rq_size 16
core_0_itlb_wq_size 16
core_0_itlb_pq_size 0
core_0_itlb_mshr_size 8
core_0_itlb_hit_latency 1
core_0_itlb_fill_latency 1
core_0_itlb_max_tag_check 2
core_0_itlb_max_fill 2
core_0_dtlb_set 16
core_0_dtlb_way 4
core_0_dtlb_rq_size 16
core_0_dtlb_wq_size 16
core_0_dtlb_pq_size 0
core_0_dtlb_mshr_size 8
core_0_dtlb_hit_latency 1
core_0_dtlb_fill_latency 1
core_0_dtlb_max_tag_check 2
core_0_dtlb_max_fill 2
core_0_stlb_set 128
core_0_stlb_way 12
core_0_stlb_rq_size 32
core_0_stlb_wq_size 32
core_0_stlb_pq_size 0
core_0_stlb_mshr_size 16
core_0_stlb_hit_latency 4
core_0_stlb_fill_latency 4
core_0_stlb_max_tag_check 1
core_0_stlb_max_fill 1
core_0_l1i_set 64
core_0_l1i_way 8
core_0_l1i_rq_size 64
core_0_l1i_wq_size 64
core_0_l1i_pq_size 32
core_0_l1i_mshr_size 8
core_0_l1i_hit_latency 2
core_0_l1i_fill_latency 2
core_0_l1i_max_tag_check 2
core_0_l1i_max_fill 2
core_0_l1d_set 64
core_0_l1d_way 12
core_0_l1d_rq_size 64
core_0_l1d_wq_size 64
core_0_l1d_pq_size 8
core_0_l1d_mshr_size 16
core_0_l1d_hit_latency 2
core_0_l1d_fill_latency 3
core_0_l1d_max_tag_check 2
core_0_l1d_max_fill 2
core_0_l2c_set 1024
core_0_l2c_way 8
core_0_l2c_rq_size 32
core_0_l2c_wq_size 32
core_0_l2c_pq_size 16
core_0_l2c_mshr_size 32
core_0_l2c_hit_latency 5
core_0_l2c_fill_latency 5
core_0_l2c_max_tag_check 1
core_0_l2c_max_fill 1
llc_set 2048
llc_way 16
llc_rq_size 32
llc_wq_size 32
llc_pq_size 32
llc_mshr_size 64
llc_hit_latency 10
llc_fill_latency 10
llc_max_tag_check 1
llc_max_fill 1
dram_channels 1
dram_ranks 1
dram_bankgroups 8
dram_banks 4
dram_rows 65536
dram_columns 1024
dram_channel_width 8
dram_rq_size 64
dram_wq_size 64
dram_size 17179869184
core_0_itlb_prefetcher no
core_0_dtlb_prefetcher no
core_0_stlb_prefetcher no
core_0_l1i_prefetcher next_line
core_0_l1d_prefetcher no
core_0_l2c_prefetcher ip_stride
llc_prefetcher no
llc_replacement drrip

Core_0_instructions 100000001
Core_0_cycles 306620030
Core_0_IPC 0.326137
Core_0_branch_prediction_accuracy 93.3247
Core_0_branch_MPKI 15.8631
Core_0_average_ROB_occupancy_at_mispredict 45.5107

Core_0_ITLB_total_access 2213068
Core_0_ITLB_total_hit 2213060
Core_0_ITLB_total_miss 8
Core_0_ITLB_total_MPKI 8e-05
Core_0_ITLB_total_miss_rate 3.61489e-06
Core_0_ITLB_demand_access 2213068
Core_0_ITLB_demand_hit 2213060
Core_0_ITLB_demand_miss 8
Core_0_ITLB_demand_MPKI 8e-05
Core_0_ITLB_demand_miss_rate 3.61489e-06
Core_0_ITLB_load_access 2213068
Core_0_ITLB_load_hit 2213060
Core_0_ITLB_load_miss 8
Core_0_ITLB_load_MPKI 8e-05
Core_0_ITLB_load_miss_rate 3.61489e-06
Core_0_ITLB_rfo_access 0
Core_0_ITLB_rfo_hit 0
Core_0_ITLB_rfo_miss 0
Core_0_ITLB_rfo_MPKI 0
Core_0_ITLB_rfo_miss_rate 0
Core_0_ITLB_prefetch_access 0
Core_0_ITLB_prefetch_hit 0
Core_0_ITLB_prefetch_miss 0
Core_0_ITLB_prefetch_MPKI 0
Core_0_ITLB_prefetch_miss_rate 0
Core_0_ITLB_writeback_access 0
Core_0_ITLB_writeback_hit 0
Core_0_ITLB_writeback_miss 0
Core_0_ITLB_writeback_MPKI 0
Core_0_ITLB_writeback_miss_rate 0
Core_0_ITLB_prefetch_requested 0
Core_0_ITLB_prefetch_issued 0
Core_0_ITLB_prefetch_useful 0
Core_0_ITLB_prefetch_useless 0
Core_0_ITLB_prefetch_late 0
Core_0_ITLB_prefetch_fill 0
Core_0_ITLB_prefetch_too_early 0
Core_0_ITLB_prefetch_too_early_among_fill 0
Core_0_ITLB_prefetch_too_early_among_useless 0
Core_0_ITLB_prefetch_pollution_evict 0
Core_0_ITLB_prefetch_pollution_demand 0
Core_0_ITLB_prefetch_pollution_among_prefetch_fill 0
Core_0_ITLB_prefetch_accuracy 0
Core_0_ITLB_prefetch_coverage 0

Core_0_DTLB_total_access 30652193
Core_0_DTLB_total_hit 27963403
Core_0_DTLB_total_miss 2688790
Core_0_DTLB_total_MPKI 26.8879
Core_0_DTLB_total_miss_rate 0.0877193
Core_0_DTLB_demand_access 30652193
Core_0_DTLB_demand_hit 27963403
Core_0_DTLB_demand_miss 2688790
Core_0_DTLB_demand_MPKI 26.8879
Core_0_DTLB_demand_miss_rate 0.0877193
Core_0_DTLB_load_access 30652193
Core_0_DTLB_load_hit 27963403
Core_0_DTLB_load_miss 2688790
Core_0_DTLB_load_MPKI 26.8879
Core_0_DTLB_load_miss_rate 0.0877193
Core_0_DTLB_rfo_access 0
Core_0_DTLB_rfo_hit 0
Core_0_DTLB_rfo_miss 0
Core_0_DTLB_rfo_MPKI 0
Core_0_DTLB_rfo_miss_rate 0
Core_0_DTLB_prefetch_access 0
Core_0_DTLB_prefetch_hit 0
Core_0_DTLB_prefetch_miss 0
Core_0_DTLB_prefetch_MPKI 0
Core_0_DTLB_prefetch_miss_rate 0
Core_0_DTLB_writeback_access 0
Core_0_DTLB_writeback_hit 0
Core_0_DTLB_writeback_miss 0
Core_0_DTLB_writeback_MPKI 0
Core_0_DTLB_writeback_miss_rate 0
Core_0_DTLB_prefetch_requested 0
Core_0_DTLB_prefetch_issued 0
Core_0_DTLB_prefetch_useful 0
Core_0_DTLB_prefetch_useless 0
Core_0_DTLB_prefetch_late 0
Core_0_DTLB_prefetch_fill 0
Core_0_DTLB_prefetch_too_early 0
Core_0_DTLB_prefetch_too_early_among_fill 0
Core_0_DTLB_prefetch_too_early_among_useless 0
Core_0_DTLB_prefetch_pollution_evict 0
Core_0_DTLB_prefetch_pollution_demand 0
Core_0_DTLB_prefetch_pollution_among_prefetch_fill 0
Core_0_DTLB_prefetch_accuracy 0
Core_0_DTLB_prefetch_coverage 0

Core_0_STLB_total_access 1577263
Core_0_STLB_total_hit 719502
Core_0_STLB_total_miss 857761
Core_0_STLB_total_MPKI 8.57761
Core_0_STLB_total_miss_rate 0.543829
Core_0_STLB_demand_access 1577263
Core_0_STLB_demand_hit 719502
Core_0_STLB_demand_miss 857761
Core_0_STLB_demand_MPKI 8.57761
Core_0_STLB_demand_miss_rate 0.543829
Core_0_STLB_load_access 1577263
Core_0_STLB_load_hit 719502
Core_0_STLB_load_miss 857761
Core_0_STLB_load_MPKI 8.57761
Core_0_STLB_load_miss_rate 0.543829
Core_0_STLB_rfo_access 0
Core_0_STLB_rfo_hit 0
Core_0_STLB_rfo_miss 0
Core_0_STLB_rfo_MPKI 0
Core_0_STLB_rfo_miss_rate 0
Core_0_STLB_prefetch_access 0
Core_0_STLB_prefetch_hit 0
Core_0_STLB_prefetch_miss 0
Core_0_STLB_prefetch_MPKI 0
Core_0_STLB_prefetch_miss_rate 0
Core_0_STLB_writeback_access 0
Core_0_STLB_writeback_hit 0
Core_0_STLB_writeback_miss 0
Core_0_STLB_writeback_MPKI 0
Core_0_STLB_writeback_miss_rate 0
Core_0_STLB_prefetch_requested 0
Core_0_STLB_prefetch_issued 0
Core_0_STLB_prefetch_useful 0
Core_0_STLB_prefetch_useless 0
Core_0_STLB_prefetch_late 0
Core_0_STLB_prefetch_fill 0
Core_0_STLB_prefetch_too_early 0
Core_0_STLB_prefetch_too_early_among_fill 0
Core_0_STLB_prefetch_too_early_among_useless 0
Core_0_STLB_prefetch_pollution_evict 0
Core_0_STLB_prefetch_pollution_demand 0
Core_0_STLB_prefetch_pollution_among_prefetch_fill 0
Core_0_STLB_prefetch_accuracy 0
Core_0_STLB_prefetch_coverage 0

Core_0_L1I_total_access 2590706
Core_0_L1I_total_hit 2590648
Core_0_L1I_total_miss 58
Core_0_L1I_total_MPKI 0.00058
Core_0_L1I_total_miss_rate 2.23877e-05
Core_0_L1I_demand_access 2590706
Core_0_L1I_demand_hit 2590648
Core_0_L1I_demand_miss 58
Core_0_L1I_demand_MPKI 0.00058
Core_0_L1I_demand_miss_rate 2.23877e-05
Core_0_L1I_load_access 2590706
Core_0_L1I_load_hit 2590648
Core_0_L1I_load_miss 58
Core_0_L1I_load_MPKI 0.00058
Core_0_L1I_load_miss_rate 2.23877e-05
Core_0_L1I_rfo_access 0
Core_0_L1I_rfo_hit 0
Core_0_L1I_rfo_miss 0
Core_0_L1I_rfo_MPKI 0
Core_0_L1I_rfo_miss_rate 0
Core_0_L1I_prefetch_access 0
Core_0_L1I_prefetch_hit 0
Core_0_L1I_prefetch_miss 0
Core_0_L1I_prefetch_MPKI 0
Core_0_L1I_prefetch_miss_rate 0
Core_0_L1I_writeback_access 0
Core_0_L1I_writeback_hit 0
Core_0_L1I_writeback_miss 0
Core_0_L1I_writeback_MPKI 0
Core_0_L1I_writeback_miss_rate 0
Core_0_L1I_prefetch_requested 0
Core_0_L1I_prefetch_issued 0
Core_0_L1I_prefetch_useful 0
Core_0_L1I_prefetch_useless 0
Core_0_L1I_prefetch_late 0
Core_0_L1I_prefetch_fill 0
Core_0_L1I_prefetch_too_early 0
Core_0_L1I_prefetch_too_early_among_fill 0
Core_0_L1I_prefetch_too_early_among_useless 0
Core_0_L1I_prefetch_pollution_evict 0
Core_0_L1I_prefetch_pollution_demand 0
Core_0_L1I_prefetch_pollution_among_prefetch_fill 0
Core_0_L1I_prefetch_accuracy 0
Core_0_L1I_prefetch_coverage 0

Core_0_L1D_total_access 31646729
Core_0_L1D_total_hit 26489104
Core_0_L1D_total_miss 5157625
Core_0_L1D_total_MPKI 51.5762
Core_0_L1D_total_miss_rate 0.162975
Core_0_L1D_demand_access 17908689
Core_0_L1D_demand_hit 14037519
Core_0_L1D_demand_miss 3871170
Core_0_L1D_demand_MPKI 38.7117
Core_0_L1D_demand_miss_rate 0.216162
Core_0_L1D_load_access 17908689
Core_0_L1D_load_hit 14037519
Core_0_L1D_load_miss 3871170
Core_0_L1D_load_MPKI 38.7117
Core_0_L1D_load_miss_rate 0.216162
Core_0_L1D_rfo_access 0
Core_0_L1D_rfo_hit 0
Core_0_L1D_rfo_miss 0
Core_0_L1D_rfo_MPKI 0
Core_0_L1D_rfo_miss_rate 0
Core_0_L1D_prefetch_access 0
Core_0_L1D_prefetch_hit 0
Core_0_L1D_prefetch_miss 0
Core_0_L1D_prefetch_MPKI 0
Core_0_L1D_prefetch_miss_rate 0
Core_0_L1D_writeback_access 13738040
Core_0_L1D_writeback_hit 12451585
Core_0_L1D_writeback_miss 1286455
Core_0_L1D_writeback_MPKI 12.8645
Core_0_L1D_writeback_miss_rate 0.0936418
Core_0_L1D_prefetch_requested 0
Core_0_L1D_prefetch_issued 0
Core_0_L1D_prefetch_useful 0
Core_0_L1D_prefetch_useless 0
Core_0_L1D_prefetch_late 0
Core_0_L1D_prefetch_fill 0
Core_0_L1D_prefetch_too_early 0
Core_0_L1D_prefetch_too_early_among_fill 0
Core_0_L1D_prefetch_too_early_among_useless 0
Core_0_L1D_prefetch_pollution_evict 0
Core_0_L1D_prefetch_pollution_demand 0
Core_0_L1D_prefetch_pollution_among_prefetch_fill 0
Core_0_L1D_prefetch_accuracy 0
Core_0_L1D_prefetch_coverage 0

Core_0_L2C_total_access 5619418
Core_0_L2C_total_hit 2947256
Core_0_L2C_total_miss 2672162
Core_0_L2C_total_MPKI 26.7216
Core_0_L2C_total_miss_rate 0.475523
Core_0_L2C_demand_access 2981525
Core_0_L2C_demand_hit 793459
Core_0_L2C_demand_miss 2188066
Core_0_L2C_demand_MPKI 21.8807
Core_0_L2C_demand_miss_rate 0.733875
Core_0_L2C_load_access 2705888
Core_0_L2C_load_hit 717926
Core_0_L2C_load_miss 1987962
Core_0_L2C_load_MPKI 19.8796
Core_0_L2C_load_miss_rate 0.73468
Core_0_L2C_rfo_access 275637
Core_0_L2C_rfo_hit 75533
Core_0_L2C_rfo_miss 200104
Core_0_L2C_rfo_MPKI 2.00104
Core_0_L2C_rfo_miss_rate 0.725969
Core_0_L2C_prefetch_access 1022138
Core_0_L2C_prefetch_hit 538071
Core_0_L2C_prefetch_miss 484067
Core_0_L2C_prefetch_MPKI 4.84067
Core_0_L2C_prefetch_miss_rate 0.473583
Core_0_L2C_writeback_access 1615755
Core_0_L2C_writeback_hit 1615726
Core_0_L2C_writeback_miss 29
Core_0_L2C_writeback_MPKI 0.00029
Core_0_L2C_writeback_miss_rate 1.79483e-05
Core_0_L2C_prefetch_requested 1041155
Core_0_L2C_prefetch_issued 1022138
Core_0_L2C_prefetch_useful 258631
Core_0_L2C_prefetch_useless 200
Core_0_L2C_prefetch_late 80961
Core_0_L2C_prefetch_fill 177884
Core_0_L2C_prefetch_too_early 97
Core_0_L2C_prefetch_too_early_among_fill 0.000545299
Core_0_L2C_prefetch_too_early_among_useless 0.485
Core_0_L2C_prefetch_pollution_evict 60948
Core_0_L2C_prefetch_pollution_demand 60934
Core_0_L2C_prefetch_pollution_among_prefetch_fill 0.342628
Core_0_L2C_prefetch_accuracy 0.253029
Core_0_L2C_prefetch_coverage 0.105706

Core_0_LLC_total_access 3919510
Core_0_LLC_total_hit 765431
Core_0_LLC_total_miss 3154079
Core_0_LLC_total_MPKI 31.5408
Core_0_LLC_total_miss_rate 0.804713
Core_0_LLC_demand_access 2107105
Core_0_LLC_demand_hit 304340
Core_0_LLC_demand_miss 1802765
Core_0_LLC_demand_MPKI 18.0276
Core_0_LLC_demand_miss_rate 0.855565
Core_0_LLC_load_access 1907001
Core_0_LLC_load_hit 267752
Core_0_LLC_load_miss 1639249
Core_0_LLC_load_MPKI 16.3925
Core_0_LLC_load_miss_rate 0.859595
Core_0_LLC_rfo_access 200104
Core_0_LLC_rfo_hit 36588
Core_0_LLC_rfo_miss 163516
Core_0_LLC_rfo_MPKI 1.63516
Core_0_LLC_rfo_miss_rate 0.817155
Core_0_LLC_prefetch_access 326766
Core_0_LLC_prefetch_hit 68718
Core_0_LLC_prefetch_miss 258048
Core_0_LLC_prefetch_MPKI 2.58048
Core_0_LLC_prefetch_miss_rate 0.789703
Core_0_LLC_writeback_access 1485639
Core_0_LLC_writeback_hit 392373
Core_0_LLC_writeback_miss 1093266
Core_0_LLC_writeback_MPKI 10.9327
Core_0_LLC_writeback_miss_rate 0.735889
Core_0_LLC_prefetch_requested 0
Core_0_LLC_prefetch_issued 0
Core_0_LLC_prefetch_useful 0
Core_0_LLC_prefetch_useless 0
Core_0_LLC_prefetch_late 0
Core_0_LLC_prefetch_fill 200157
Core_0_LLC_prefetch_too_early 0
Core_0_LLC_prefetch_too_early_among_fill 0
Core_0_LLC_prefetch_too_early_among_useless 0
Core_0_LLC_prefetch_pollution_evict 75407
Core_0_LLC_prefetch_pollution_demand 75407
Core_0_LLC_prefetch_pollution_among_prefetch_fill 0.376739
Core_0_LLC_prefetch_accuracy 0
Core_0_LLC_prefetch_coverage 0

[DRAM Statistics]
Channel_0_RQ_row_buffer_hit 30011
Channel_0_RQ_row_buffer_miss 1992534
Channel_0_WQ_row_buffer_hit 396728
Channel_0_WQ_row_buffer_miss 937416
Channel_0_WQ_full 612
Channel_0_dbus_congested 11480274
DRAM_total_RQ_row_buffer_hit 30011
DRAM_total_RQ_row_buffer_miss 1992534
DRAM_total_WQ_row_buffer_hit 396728
DRAM_total_WQ_row_buffer_miss 937416
DRAM_total_WQ_full 612
DRAM_total_dbus_congested 11480274
DRAM_avg_congested_cycle 6.05938

====== DRAM_RQ_TRAFFIC ========
DRAM_RQ_READ_TRAFFIC_BREAKDOWN:
data_demand_read.count = 1789781
data_demand_read.share = 88.48%

inst_demand_read.count = 50
inst_demand_read.share = 0.00%

cache_inst_prefetch.count = 0
cache_inst_prefetch.share = 0.00%

cache_data_prefetch.count = 213091
cache_data_prefetch.share = 10.53%

stlb_data_demand.count = 19951
stlb_data_demand.share = 0.99%

stlb_inst_demand.count = 4
stlb_inst_demand.share = 0.00%

stlb_l1i_pref.count = 0
stlb_l1i_pref.share = 0.00%

stlb_l1d_pref.count = 0
stlb_l1d_pref.share = 0.00%

DRAM_RQ_READ_TRAFFIC_SUMMARY:
cache_demand.count = 1789831
cache_demand.share = 88.48%

cache_prefetch.count = 213091
cache_prefetch.share = 10.53%

stlb_demand.count = 19955
stlb_demand.share = 0.99%

stlb_prefetch.count = 0
stlb_prefetch.share = 0.00%

DRAM_RQ_READ_TRAFFIC_DEBUG:
total_classified_read.count = 2022877
unclassified_read.count = 0
total_read_with_other.count = 2022877

classified_plus_unclassified_check.count = 2022877
dram_rq_read_total_observed.count = 2022877
dram_rq_read_total_observed.per_1K_instructions = 20.2288

STLB_MISS_PTW_DRAM_TOUCH_BREAKDOWN:
stlb_miss_total.count = 857761

stlb_miss_touch_dram.count = 19951
stlb_miss_touch_dram.share = 2.33%

stlb_miss_no_dram_touch.count = 837810
stlb_miss_no_dram_touch.share = 97.67%

STLB_MISS_PTW_DRAM_TOUCH_DEBUG:
stlb_miss_touch_plus_no_touch.count = 857761
stlb_miss_total_check.count = 857761

======STLB miss causes ========
Core_0_STLB_miss_cause_breakdown
Core_0_STLB_cause_Demand_Data_miss 857754
Core_0_STLB_cause_Demand_Data_miss_rate 0.543824
Core_0_STLB_cause_Demand_Instruction_miss 7
Core_0_STLB_cause_Demand_Instruction_miss_rate 4.43807e-06
Core_0_STLB_cause_L1D_Prefetch_miss 0
Core_0_STLB_cause_L1D_Prefetch_miss_rate 0
Core_0_STLB_cause_L1D_Prefetch_Same_Page_miss 0
Core_0_STLB_cause_L1D_Prefetch_Same_Page_miss_rate 0
Core_0_STLB_cause_L1D_Prefetch_Cross_Page_miss 0
Core_0_STLB_cause_L1D_Prefetch_Cross_Page_miss_rate 0
Core_0_STLB_cause_L1I_Prefetch_miss 0
Core_0_STLB_cause_L1I_Prefetch_miss_rate 0
Core_0_STLB_cause_Other_miss 0
Core_0_STLB_cause_Other_miss_rate 0
Core_0_STLB_Demand_miss 857761
Core_0_STLB_Demand_miss_rate 0.543829
Core_0_STLB_L1D_Prefetch_miss 0
Core_0_STLB_L1D_Prefetch_miss_rate 0
Core_0_STLB_Other_miss 0
Core_0_STLB_Other_miss_rate 0

========== vBerti-TLB Cross-page Flow Stats ==========

Core_0_vBerti_Requested 0
Core_0_vBerti_Cross_page_prefetch_in_Requested 0
Core_0_vBerti_Same_page_prefetch_in_Requested 0
Core_0_vBerti_Cross_page_prefetch_of_Requested 0
Core_0_vBerti_Issued 0
Core_0_vBerti_PQ_Drop_Rate 0
Core_0_vBerti_InPQ_Cross_page_prefetch_of_Requested 0
Core_0_vBerti_Cross_page_PQ_Drop_rate 0
Core_0_vBerti_Cross_page_prefetch_of_Issued 0

========= DTLB_vBerti Prefetch Stats =========
Core_0_DTLB_demand_access 30652193
Core_0_DTLB_demand_hit 27963403
Core_0_DTLB_demand_miss 2688790
Core_0_DTLB_demand_mshr_merge 1111535
Core_0_DTLB_demand_fill 1577257
Core_0_DTLB_demand_miss_rate 0.0877193
Core_0_DTLB_demand_mpki 26.8879
Core_0_DTLB_vberti_prefetch_access 0
Core_0_DTLB_vberti_prefetch_hit 0
Core_0_DTLB_vberti_prefetch_miss 0
Core_0_DTLB_vberti_prefetch_mshr_merge 0
Core_0_DTLB_vberti_prefetch_fill 0
Core_0_DTLB_vberti_prefetch_miss_rate 0
Core_0_DTLB_vberti_prefetch_mpki 0

=== DTLB_vBerti Same/Cross-page Prefetch Stats ===
Core_0_DTLB_vberti_same_page_prefetch 0
Core_0_DTLB_vberti_same_page_prefetch_hit 0
Core_0_DTLB_vberti_same_page_prefetch_miss 0
Core_0_DTLB_vberti_same_page_prefetch_mshr_merge 0
Core_0_DTLB_vberti_same_page_prefetch_fill 0
Core_0_DTLB_vberti_same_page_prefetch_miss_rate 0
Core_0_DTLB_vberti_same_page_prefetch_mpki 0
Core_0_DTLB_vberti_cross_page_prefetch 0
Core_0_DTLB_vberti_cross_page_prefetch_hit 0
Core_0_DTLB_vberti_cross_page_prefetch_miss 0
Core_0_DTLB_vberti_cross_page_prefetch_mshr_merge 0
Core_0_DTLB_vberti_cross_page_prefetch_fill 0
Core_0_DTLB_vberti_cross_page_prefetch_miss_rate 0
Core_0_DTLB_vberti_cross_page_prefetch_mpki 0
Core_0_DTLB_same_page_prefetch_miss_rate 0
Core_0_DTLB_same_page_prefetch_mpki 0
Core_0_DTLB_cross_page_prefetch_miss_rate 0
Core_0_DTLB_cross_page_prefetch_mpki 0
Core_0_DTLB_cross_page_prefetch_issued 0
Core_0_DTLB_cross_page_prefetch_lookups 0
Core_0_DTLB_cross_page_prefetch_useful 0
Core_0_DTLB_cross_page_prefetch_useless 0
Core_0_DTLB_cross_page_prefetch_late 0
Core_0_DTLB_cross_page_prefetch_too_early 0
Core_0_DTLB_cross_page_prefetch_too_early_among_fill 0
Core_0_DTLB_cross_page_prefetch_too_early_among_useless 0
Core_0_DTLB_cross_page_prefetch_pollution_evict 0
Core_0_DTLB_cross_page_prefetch_pollution_demand 0
Core_0_DTLB_cross_page_prefetch_pollution_among_prefetch_fill 0
Core_0_DTLB_cross_page_prefetch_accuracy 0
Core_0_DTLB_cross_page_prefetch_coverage 0

========= STLB_vBerti Prefetch Stats =========
Core_0_STLB_demand_access 1577263
Core_0_STLB_demand_hit 719502
Core_0_STLB_demand_miss 857761
Core_0_STLB_demand_mshr_merge 0
Core_0_STLB_demand_fill 857762
Core_0_STLB_demand_miss_rate 0.543829
Core_0_STLB_demand_mpki 8.57761
Core_0_STLB_vberti_prefetch_access 0
Core_0_STLB_vberti_prefetch_hit 0
Core_0_STLB_vberti_prefetch_miss 0
Core_0_STLB_vberti_prefetch_mshr_merge 0
Core_0_STLB_vberti_prefetch_fill 0
Core_0_STLB_vberti_prefetch_miss_rate 0
Core_0_STLB_vberti_prefetch_mpki 0

=== STLB_vBerti Same/Cross-page Prefetch Stats ===
Core_0_STLB_vberti_same_page_prefetch 0
Core_0_STLB_vberti_same_page_prefetch_hit 0
Core_0_STLB_vberti_same_page_prefetch_miss 0
Core_0_STLB_vberti_same_page_prefetch_mshr_merge 0
Core_0_STLB_vberti_same_page_prefetch_fill 0
Core_0_STLB_vberti_same_page_prefetch_miss_rate 0
Core_0_STLB_vberti_same_page_prefetch_mpki 0
Core_0_STLB_vberti_cross_page_prefetch 0
Core_0_STLB_vberti_cross_page_prefetch_hit 0
Core_0_STLB_vberti_cross_page_prefetch_miss 0
Core_0_STLB_vberti_cross_page_prefetch_mshr_merge 0
Core_0_STLB_vberti_cross_page_prefetch_fill 0
Core_0_STLB_vberti_cross_page_prefetch_miss_rate 0
Core_0_STLB_vberti_cross_page_prefetch_mpki 0
Core_0_STLB_same_page_prefetch_miss_rate 0
Core_0_STLB_same_page_prefetch_mpki 0
Core_0_STLB_cross_page_prefetch_miss_rate 0
Core_0_STLB_cross_page_prefetch_mpki 0
Core_0_STLB_cross_page_prefetch_issued 0
Core_0_STLB_cross_page_prefetch_lookups 0
Core_0_STLB_cross_page_prefetch_useful 0
Core_0_STLB_cross_page_prefetch_useless 0
Core_0_STLB_cross_page_prefetch_late 0
Core_0_STLB_cross_page_prefetch_too_early 0
Core_0_STLB_cross_page_prefetch_too_early_among_fill 0
Core_0_STLB_cross_page_prefetch_too_early_among_useless 0
Core_0_STLB_cross_page_prefetch_pollution_evict 0
Core_0_STLB_cross_page_prefetch_pollution_demand 0
Core_0_STLB_cross_page_prefetch_pollution_among_prefetch_fill 0
Core_0_STLB_cross_page_prefetch_accuracy 0
Core_0_STLB_cross_page_prefetch_coverage 0

========= STLB Cross-page Prefetch Buffer Stats =========
Core_0_STLB_raw_demand_miss 857754
Core_0_CP_PB_insert 0
Core_0_CP_PB_demand_hit 0
Core_0_STLB_PB_demand_miss 857754
Core_0_CP_PB_coverage 0
Core_0_STLB_raw_demand_mpki 8.57754
Core_0_STLB_PB_demand_mpki 8.57754
Core_0_CP_PB_demand_hit_mpki 0

Core_0_TLB_demand_miss_rate 0.0279837
Core_0_TLB_demand_mpki 8.57761
Core_0_TLB_same_page_prefetch_miss_rate 0
Core_0_TLB_same_page_prefetch_mpki 0
Core_0_TLB_cross_page_prefetch_miss_rate 0
Core_0_TLB_cross_page_prefetch_mpki 0
Core_0_TLB_cross_page_prefetch_issued 0
Core_0_TLB_cross_page_prefetch_lookups 0
Core_0_TLB_cross_page_prefetch_useful 0
Core_0_TLB_cross_page_prefetch_useless 0
Core_0_TLB_cross_page_prefetch_late 0
Core_0_TLB_cross_page_prefetch_too_early 0
Core_0_TLB_cross_page_prefetch_too_early_among_fill 0
Core_0_TLB_cross_page_prefetch_too_early_among_useless 0
Core_0_TLB_cross_page_prefetch_accuracy 0
Core_0_TLB_cross_page_prefetch_coverage 0
