[VMEM] WARNING: physical memory size is smaller than virtual memory size.

*** ChampSim Multicore Out-of-Order Simulator ***
Warmup Instructions: 50000000
Simulation Instructions: 100000000
Number of CPUs: 1
Page size: 4096
Core 0: /data2/zcq/champsim_traces_xsbench/xs.XXL100nuclide-648B.champsimtrace.xz
Off-chip DRAM Size: 16 GiB Channels: 1 Width: 64-bit Data Rate: 3205 MT/s
Warmup halting CPU 0 at instruction 50000000 cycle 36888929 for remainder of phase
Warmup finished CPU 0 instructions: 50000000 cycles: 36888929 cumulative IPC: 1.355 (Simulation time: 00 hr 05 min 44 sec)
Warmup complete CPU 0 instructions: 50000000 cycles: 36888929 cumulative IPC: 1.355 (Simulation time: 00 hr 05 min 44 sec)
Simulation finished CPU 0 instructions: 100000001 cycles: 690829449 cumulative IPC: 0.1448 (Simulation time: 00 hr 46 min 56 sec)
Simulation complete CPU 0 instructions: 100000001 cycles: 690829449 cumulative IPC: 0.1448 (Simulation time: 00 hr 46 min 56 sec)

ChampSim completed all CPUs

=== Simulation ===
CPU 0 runs /data2/zcq/champsim_traces_xsbench/xs.XXL100nuclide-648B.champsimtrace.xz

Region of Interest Statistics

CPU 0 cumulative IPC: 0.1448 instructions: 100000001 cycles: 690829449
CPU 0 Branch Prediction Accuracy: 87.26% MPKI: 21.49 Average ROB Occupancy at Mispredict: 25.79
Branch type MPKI
BRANCH_DIRECT_JUMP: 0
BRANCH_INDIRECT: 0
BRANCH_CONDITIONAL: 21.49
BRANCH_DIRECT_CALL: 0
BRANCH_INDIRECT_CALL: 0
BRANCH_RETURN: 0

cpu0->cpu0_STLB TOTAL        ACCESS:    3981605 HIT:     123037 MISS:    3858568 MSHR_MERGE:          0
cpu0->cpu0_STLB LOAD         ACCESS:    3981605 HIT:     123037 MISS:    3858568 MSHR_MERGE:          0
cpu0->cpu0_STLB RFO          ACCESS:          0 HIT:          0 MISS:          0 MSHR_MERGE:          0
cpu0->cpu0_STLB PREFETCH     ACCESS:          0 HIT:          0 MISS:          0 MSHR_MERGE:          0
cpu0->cpu0_STLB WRITE        ACCESS:          0 HIT:          0 MISS:          0 MSHR_MERGE:          0
cpu0->cpu0_STLB TRANSLATION  ACCESS:          0 HIT:          0 MISS:          0 MSHR_MERGE:          0
cpu0->cpu0_STLB PREFETCH REQUESTED:          0 ISSUED:          0 USEFUL:          0 USELESS:          0 LATE:          0 TOO_EARLY:          0
cpu0->cpu0_STLB AVERAGE MISS LATENCY: 174.8 cycles
cpu0->cpu0_L2C TOTAL        ACCESS:    9705227 HIT:     614626 MISS:    9090601 MSHR_MERGE:       4930
cpu0->cpu0_L2C LOAD         ACCESS:    6009667 HIT:     227362 MISS:    5782305 MSHR_MERGE:          0
cpu0->cpu0_L2C RFO          ACCESS:      22117 HIT:      21574 MISS:        543 MSHR_MERGE:          0
cpu0->cpu0_L2C PREFETCH     ACCESS:     328860 HIT:     156138 MISS:     172722 MSHR_MERGE:       4930
cpu0->cpu0_L2C WRITE        ACCESS:      26142 HIT:      26088 MISS:         54 MSHR_MERGE:          0
cpu0->cpu0_L2C TRANSLATION  ACCESS:    3318441 HIT:     183464 MISS:    3134977 MSHR_MERGE:          0
cpu0->cpu0_L2C PREFETCH REQUESTED:     328860 ISSUED:     328860 USEFUL:      35018 USELESS:     132801 LATE:          0 TOO_EARLY:         61
cpu0->cpu0_L2C AVERAGE MISS LATENCY: 149.4 cycles
cpu0->cpu0_L1I TOTAL        ACCESS:      21476 HIT:      21476 MISS:          0 MSHR_MERGE:          0
cpu0->cpu0_L1I LOAD         ACCESS:      21476 HIT:      21476 MISS:          0 MSHR_MERGE:          0
cpu0->cpu0_L1I RFO          ACCESS:          0 HIT:          0 MISS:          0 MSHR_MERGE:          0
cpu0->cpu0_L1I PREFETCH     ACCESS:          0 HIT:          0 MISS:          0 MSHR_MERGE:          0
cpu0->cpu0_L1I WRITE        ACCESS:          0 HIT:          0 MISS:          0 MSHR_MERGE:          0
cpu0->cpu0_L1I TRANSLATION  ACCESS:          0 HIT:          0 MISS:          0 MSHR_MERGE:          0
cpu0->cpu0_L1I PREFETCH REQUESTED:          0 ISSUED:          0 USEFUL:          0 USELESS:          0 LATE:          0 TOO_EARLY:          0
cpu0->cpu0_L1I AVERAGE MISS LATENCY: - cycles
cpu0->cpu0_L1D TOTAL        ACCESS:   19840083 HIT:    8533677 MISS:   11306406 MSHR_MERGE:    1956173
cpu0->cpu0_L1D LOAD         ACCESS:    9561297 HIT:    3452582 MISS:    6108715 MSHR_MERGE:      99048
cpu0->cpu0_L1D RFO          ACCESS:          0 HIT:          0 MISS:          0 MSHR_MERGE:          0
cpu0->cpu0_L1D PREFETCH     ACCESS:          0 HIT:          0 MISS:          0 MSHR_MERGE:          0
cpu0->cpu0_L1D WRITE        ACCESS:    1810806 HIT:    1754361 MISS:      56445 MSHR_MERGE:      34320
cpu0->cpu0_L1D TRANSLATION  ACCESS:    8467980 HIT:    3326734 MISS:    5141246 MSHR_MERGE:    1822805
cpu0->cpu0_L1D PREFETCH REQUESTED:          0 ISSUED:          0 USEFUL:          0 USELESS:          0 LATE:          0 TOO_EARLY:          0
cpu0->cpu0_L1D AVERAGE MISS LATENCY: 151.5 cycles
cpu0->cpu0_ITLB TOTAL        ACCESS:      17400 HIT:      17400 MISS:          0 MSHR_MERGE:          0
cpu0->cpu0_ITLB LOAD         ACCESS:      17400 HIT:      17400 MISS:          0 MSHR_MERGE:          0
cpu0->cpu0_ITLB RFO          ACCESS:          0 HIT:          0 MISS:          0 MSHR_MERGE:          0
cpu0->cpu0_ITLB PREFETCH     ACCESS:          0 HIT:          0 MISS:          0 MSHR_MERGE:          0
cpu0->cpu0_ITLB WRITE        ACCESS:          0 HIT:          0 MISS:          0 MSHR_MERGE:          0
cpu0->cpu0_ITLB TRANSLATION  ACCESS:          0 HIT:          0 MISS:          0 MSHR_MERGE:          0
cpu0->cpu0_ITLB PREFETCH REQUESTED:          0 ISSUED:          0 USEFUL:          0 USELESS:          0 LATE:          0 TOO_EARLY:          0
cpu0->cpu0_ITLB AVERAGE MISS LATENCY: - cycles
cpu0->cpu0_DTLB TOTAL        ACCESS:   11264384 HIT:    7080780 MISS:    4183604 MSHR_MERGE:     201999
cpu0->cpu0_DTLB LOAD         ACCESS:   11264384 HIT:    7080780 MISS:    4183604 MSHR_MERGE:     201999
cpu0->cpu0_DTLB RFO          ACCESS:          0 HIT:          0 MISS:          0 MSHR_MERGE:          0
cpu0->cpu0_DTLB PREFETCH     ACCESS:          0 HIT:          0 MISS:          0 MSHR_MERGE:          0
cpu0->cpu0_DTLB WRITE        ACCESS:          0 HIT:          0 MISS:          0 MSHR_MERGE:          0
cpu0->cpu0_DTLB TRANSLATION  ACCESS:          0 HIT:          0 MISS:          0 MSHR_MERGE:          0
cpu0->cpu0_DTLB PREFETCH REQUESTED:          0 ISSUED:          0 USEFUL:          0 USELESS:          0 LATE:          0 TOO_EARLY:          0
cpu0->cpu0_DTLB AVERAGE MISS LATENCY: 175.4 cycles
cpu0->LLC TOTAL        ACCESS:    9087946 HIT:    3044401 MISS:    6043545 MSHR_MERGE:          0
cpu0->LLC LOAD         ACCESS:    5782305 HIT:    1341364 MISS:    4440941 MSHR_MERGE:          0
cpu0->LLC RFO          ACCESS:        543 HIT:        543 MISS:          0 MSHR_MERGE:          0
cpu0->LLC PREFETCH     ACCESS:     167792 HIT:      41857 MISS:     125935 MSHR_MERGE:          0
cpu0->LLC WRITE        ACCESS:       2329 HIT:       2286 MISS:         43 MSHR_MERGE:          0
cpu0->LLC TRANSLATION  ACCESS:    3134977 HIT:    1658351 MISS:    1476626 MSHR_MERGE:          0
cpu0->LLC PREFETCH REQUESTED:          0 ISSUED:          0 USEFUL:          0 USELESS:          0 LATE:          0 TOO_EARLY:          0
cpu0->LLC AVERAGE MISS LATENCY: 201.5 cycles

DRAM Statistics

Channel 0 RQ ROW_BUFFER_HIT:      30333
  ROW_BUFFER_MISS:    6013169
  AVG DBUS CONGESTED CYCLE: 2.935
Channel 0 WQ ROW_BUFFER_HIT:         14
  ROW_BUFFER_MISS:         31
  FULL:          0
Channel 0 REFRESHES ISSUED:      57569

[ROI Statistics]
[System Configuration]
num_cpus 1
cpu_freq 4000
fetch_width 6
decode_width 6
dispatch_width 6
execute_width 6
lq_width 2
sq_width 2
retire_width 6
scheduler_size 128
branch_mispredict_penalty 15
rob_size 352
lq_size 128
sq_size 72
ifetch_buffer_size 64
decode_buffer_size 32
dispatch_buffer_size 32
register_file_size 288
decode_latency 1
dispatch_latency 1
schedule_latency 1
execute_latency 1
page_size 4096
block_size 64
core_0_itlb_set 16
core_0_itlb_way 4
core_0_itlb_rq_size 16
core_0_itlb_wq_size 16
core_0_itlb_pq_size 0
core_0_itlb_mshr_size 8
core_0_itlb_hit_latency 1
core_0_itlb_fill_latency 1
core_0_itlb_max_tag_check 2
core_0_itlb_max_fill 2
core_0_dtlb_set 16
core_0_dtlb_way 4
core_0_dtlb_rq_size 16
core_0_dtlb_wq_size 16
core_0_dtlb_pq_size 0
core_0_dtlb_mshr_size 8
core_0_dtlb_hit_latency 1
core_0_dtlb_fill_latency 1
core_0_dtlb_max_tag_check 2
core_0_dtlb_max_fill 2
core_0_stlb_set 128
core_0_stlb_way 12
core_0_stlb_rq_size 32
core_0_stlb_wq_size 32
core_0_stlb_pq_size 0
core_0_stlb_mshr_size 16
core_0_stlb_hit_latency 4
core_0_stlb_fill_latency 4
core_0_stlb_max_tag_check 1
core_0_stlb_max_fill 1
core_0_l1i_set 64
core_0_l1i_way 8
core_0_l1i_rq_size 64
core_0_l1i_wq_size 64
core_0_l1i_pq_size 32
core_0_l1i_mshr_size 8
core_0_l1i_hit_latency 2
core_0_l1i_fill_latency 2
core_0_l1i_max_tag_check 2
core_0_l1i_max_fill 2
core_0_l1d_set 64
core_0_l1d_way 12
core_0_l1d_rq_size 64
core_0_l1d_wq_size 64
core_0_l1d_pq_size 8
core_0_l1d_mshr_size 16
core_0_l1d_hit_latency 2
core_0_l1d_fill_latency 3
core_0_l1d_max_tag_check 2
core_0_l1d_max_fill 2
core_0_l2c_set 1024
core_0_l2c_way 8
core_0_l2c_rq_size 32
core_0_l2c_wq_size 32
core_0_l2c_pq_size 16
core_0_l2c_mshr_size 32
core_0_l2c_hit_latency 5
core_0_l2c_fill_latency 5
core_0_l2c_max_tag_check 1
core_0_l2c_max_fill 1
llc_set 2048
llc_way 16
llc_rq_size 32
llc_wq_size 32
llc_pq_size 32
llc_mshr_size 64
llc_hit_latency 10
llc_fill_latency 10
llc_max_tag_check 1
llc_max_fill 1
dram_channels 1
dram_ranks 1
dram_bankgroups 8
dram_banks 4
dram_rows 65536
dram_columns 1024
dram_channel_width 8
dram_rq_size 64
dram_wq_size 64
dram_size 17179869184
core_0_itlb_prefetcher no
core_0_dtlb_prefetcher no
core_0_stlb_prefetcher no
core_0_l1i_prefetcher next_line
core_0_l1d_prefetcher no
core_0_l2c_prefetcher ip_stride
llc_prefetcher no
llc_replacement drrip

Core_0_instructions 100000001
Core_0_cycles 690829449
Core_0_IPC 0.144754
Core_0_branch_prediction_accuracy 87.2612
Core_0_branch_MPKI 21.4873
Core_0_average_ROB_occupancy_at_mispredict 25.7913

Core_0_ITLB_total_access 17400
Core_0_ITLB_total_hit 17400
Core_0_ITLB_total_miss 0
Core_0_ITLB_total_MPKI 0
Core_0_ITLB_total_miss_rate 0
Core_0_ITLB_demand_access 17400
Core_0_ITLB_demand_hit 17400
Core_0_ITLB_demand_miss 0
Core_0_ITLB_demand_MPKI 0
Core_0_ITLB_demand_miss_rate 0
Core_0_ITLB_load_access 17400
Core_0_ITLB_load_hit 17400
Core_0_ITLB_load_miss 0
Core_0_ITLB_load_MPKI 0
Core_0_ITLB_load_miss_rate 0
Core_0_ITLB_rfo_access 0
Core_0_ITLB_rfo_hit 0
Core_0_ITLB_rfo_miss 0
Core_0_ITLB_rfo_MPKI 0
Core_0_ITLB_rfo_miss_rate 0
Core_0_ITLB_prefetch_access 0
Core_0_ITLB_prefetch_hit 0
Core_0_ITLB_prefetch_miss 0
Core_0_ITLB_prefetch_MPKI 0
Core_0_ITLB_prefetch_miss_rate 0
Core_0_ITLB_writeback_access 0
Core_0_ITLB_writeback_hit 0
Core_0_ITLB_writeback_miss 0
Core_0_ITLB_writeback_MPKI 0
Core_0_ITLB_writeback_miss_rate 0
Core_0_ITLB_prefetch_requested 0
Core_0_ITLB_prefetch_issued 0
Core_0_ITLB_prefetch_useful 0
Core_0_ITLB_prefetch_useless 0
Core_0_ITLB_prefetch_late 0
Core_0_ITLB_prefetch_fill 0
Core_0_ITLB_prefetch_too_early 0
Core_0_ITLB_prefetch_too_early_among_fill 0
Core_0_ITLB_prefetch_too_early_among_useless 0
Core_0_ITLB_prefetch_pollution_evict 0
Core_0_ITLB_prefetch_pollution_demand 0
Core_0_ITLB_prefetch_pollution_among_prefetch_fill 0
Core_0_ITLB_prefetch_accuracy 0
Core_0_ITLB_prefetch_coverage 0

Core_0_DTLB_total_access 11264384
Core_0_DTLB_total_hit 7080780
Core_0_DTLB_total_miss 4183604
Core_0_DTLB_total_MPKI 41.836
Core_0_DTLB_total_miss_rate 0.371401
Core_0_DTLB_demand_access 11264384
Core_0_DTLB_demand_hit 7080780
Core_0_DTLB_demand_miss 4183604
Core_0_DTLB_demand_MPKI 41.836
Core_0_DTLB_demand_miss_rate 0.371401
Core_0_DTLB_load_access 11264384
Core_0_DTLB_load_hit 7080780
Core_0_DTLB_load_miss 4183604
Core_0_DTLB_load_MPKI 41.836
Core_0_DTLB_load_miss_rate 0.371401
Core_0_DTLB_rfo_access 0
Core_0_DTLB_rfo_hit 0
Core_0_DTLB_rfo_miss 0
Core_0_DTLB_rfo_MPKI 0
Core_0_DTLB_rfo_miss_rate 0
Core_0_DTLB_prefetch_access 0
Core_0_DTLB_prefetch_hit 0
Core_0_DTLB_prefetch_miss 0
Core_0_DTLB_prefetch_MPKI 0
Core_0_DTLB_prefetch_miss_rate 0
Core_0_DTLB_writeback_access 0
Core_0_DTLB_writeback_hit 0
Core_0_DTLB_writeback_miss 0
Core_0_DTLB_writeback_MPKI 0
Core_0_DTLB_writeback_miss_rate 0
Core_0_DTLB_prefetch_requested 0
Core_0_DTLB_prefetch_issued 0
Core_0_DTLB_prefetch_useful 0
Core_0_DTLB_prefetch_useless 0
Core_0_DTLB_prefetch_late 0
Core_0_DTLB_prefetch_fill 0
Core_0_DTLB_prefetch_too_early 0
Core_0_DTLB_prefetch_too_early_among_fill 0
Core_0_DTLB_prefetch_too_early_among_useless 0
Core_0_DTLB_prefetch_pollution_evict 0
Core_0_DTLB_prefetch_pollution_demand 0
Core_0_DTLB_prefetch_pollution_among_prefetch_fill 0
Core_0_DTLB_prefetch_accuracy 0
Core_0_DTLB_prefetch_coverage 0

Core_0_STLB_total_access 3981605
Core_0_STLB_total_hit 123037
Core_0_STLB_total_miss 3858568
Core_0_STLB_total_MPKI 38.5857
Core_0_STLB_total_miss_rate 0.969099
Core_0_STLB_demand_access 3981605
Core_0_STLB_demand_hit 123037
Core_0_STLB_demand_miss 3858568
Core_0_STLB_demand_MPKI 38.5857
Core_0_STLB_demand_miss_rate 0.969099
Core_0_STLB_load_access 3981605
Core_0_STLB_load_hit 123037
Core_0_STLB_load_miss 3858568
Core_0_STLB_load_MPKI 38.5857
Core_0_STLB_load_miss_rate 0.969099
Core_0_STLB_rfo_access 0
Core_0_STLB_rfo_hit 0
Core_0_STLB_rfo_miss 0
Core_0_STLB_rfo_MPKI 0
Core_0_STLB_rfo_miss_rate 0
Core_0_STLB_prefetch_access 0
Core_0_STLB_prefetch_hit 0
Core_0_STLB_prefetch_miss 0
Core_0_STLB_prefetch_MPKI 0
Core_0_STLB_prefetch_miss_rate 0
Core_0_STLB_writeback_access 0
Core_0_STLB_writeback_hit 0
Core_0_STLB_writeback_miss 0
Core_0_STLB_writeback_MPKI 0
Core_0_STLB_writeback_miss_rate 0
Core_0_STLB_prefetch_requested 0
Core_0_STLB_prefetch_issued 0
Core_0_STLB_prefetch_useful 0
Core_0_STLB_prefetch_useless 0
Core_0_STLB_prefetch_late 0
Core_0_STLB_prefetch_fill 0
Core_0_STLB_prefetch_too_early 0
Core_0_STLB_prefetch_too_early_among_fill 0
Core_0_STLB_prefetch_too_early_among_useless 0
Core_0_STLB_prefetch_pollution_evict 0
Core_0_STLB_prefetch_pollution_demand 0
Core_0_STLB_prefetch_pollution_among_prefetch_fill 0
Core_0_STLB_prefetch_accuracy 0
Core_0_STLB_prefetch_coverage 0

Core_0_L1I_total_access 21476
Core_0_L1I_total_hit 21476
Core_0_L1I_total_miss 0
Core_0_L1I_total_MPKI 0
Core_0_L1I_total_miss_rate 0
Core_0_L1I_demand_access 21476
Core_0_L1I_demand_hit 21476
Core_0_L1I_demand_miss 0
Core_0_L1I_demand_MPKI 0
Core_0_L1I_demand_miss_rate 0
Core_0_L1I_load_access 21476
Core_0_L1I_load_hit 21476
Core_0_L1I_load_miss 0
Core_0_L1I_load_MPKI 0
Core_0_L1I_load_miss_rate 0
Core_0_L1I_rfo_access 0
Core_0_L1I_rfo_hit 0
Core_0_L1I_rfo_miss 0
Core_0_L1I_rfo_MPKI 0
Core_0_L1I_rfo_miss_rate 0
Core_0_L1I_prefetch_access 0
Core_0_L1I_prefetch_hit 0
Core_0_L1I_prefetch_miss 0
Core_0_L1I_prefetch_MPKI 0
Core_0_L1I_prefetch_miss_rate 0
Core_0_L1I_writeback_access 0
Core_0_L1I_writeback_hit 0
Core_0_L1I_writeback_miss 0
Core_0_L1I_writeback_MPKI 0
Core_0_L1I_writeback_miss_rate 0
Core_0_L1I_prefetch_requested 0
Core_0_L1I_prefetch_issued 0
Core_0_L1I_prefetch_useful 0
Core_0_L1I_prefetch_useless 0
Core_0_L1I_prefetch_late 0
Core_0_L1I_prefetch_fill 0
Core_0_L1I_prefetch_too_early 0
Core_0_L1I_prefetch_too_early_among_fill 0
Core_0_L1I_prefetch_too_early_among_useless 0
Core_0_L1I_prefetch_pollution_evict 0
Core_0_L1I_prefetch_pollution_demand 0
Core_0_L1I_prefetch_pollution_among_prefetch_fill 0
Core_0_L1I_prefetch_accuracy 0
Core_0_L1I_prefetch_coverage 0

Core_0_L1D_total_access 11372103
Core_0_L1D_total_hit 5206943
Core_0_L1D_total_miss 6165160
Core_0_L1D_total_MPKI 61.6516
Core_0_L1D_total_miss_rate 0.54213
Core_0_L1D_demand_access 9561297
Core_0_L1D_demand_hit 3452582
Core_0_L1D_demand_miss 6108715
Core_0_L1D_demand_MPKI 61.0871
Core_0_L1D_demand_miss_rate 0.6389
Core_0_L1D_load_access 9561297
Core_0_L1D_load_hit 3452582
Core_0_L1D_load_miss 6108715
Core_0_L1D_load_MPKI 61.0871
Core_0_L1D_load_miss_rate 0.6389
Core_0_L1D_rfo_access 0
Core_0_L1D_rfo_hit 0
Core_0_L1D_rfo_miss 0
Core_0_L1D_rfo_MPKI 0
Core_0_L1D_rfo_miss_rate 0
Core_0_L1D_prefetch_access 0
Core_0_L1D_prefetch_hit 0
Core_0_L1D_prefetch_miss 0
Core_0_L1D_prefetch_MPKI 0
Core_0_L1D_prefetch_miss_rate 0
Core_0_L1D_writeback_access 1810806
Core_0_L1D_writeback_hit 1754361
Core_0_L1D_writeback_miss 56445
Core_0_L1D_writeback_MPKI 0.56445
Core_0_L1D_writeback_miss_rate 0.0311712
Core_0_L1D_prefetch_requested 0
Core_0_L1D_prefetch_issued 0
Core_0_L1D_prefetch_useful 0
Core_0_L1D_prefetch_useless 0
Core_0_L1D_prefetch_late 0
Core_0_L1D_prefetch_fill 0
Core_0_L1D_prefetch_too_early 0
Core_0_L1D_prefetch_too_early_among_fill 0
Core_0_L1D_prefetch_too_early_among_useless 0
Core_0_L1D_prefetch_pollution_evict 0
Core_0_L1D_prefetch_pollution_demand 0
Core_0_L1D_prefetch_pollution_among_prefetch_fill 0
Core_0_L1D_prefetch_accuracy 0
Core_0_L1D_prefetch_coverage 0

Core_0_L2C_total_access 6386786
Core_0_L2C_total_hit 431162
Core_0_L2C_total_miss 5955624
Core_0_L2C_total_MPKI 59.5562
Core_0_L2C_total_miss_rate 0.932492
Core_0_L2C_demand_access 6031784
Core_0_L2C_demand_hit 248936
Core_0_L2C_demand_miss 5782848
Core_0_L2C_demand_MPKI 57.8285
Core_0_L2C_demand_miss_rate 0.958729
Core_0_L2C_load_access 6009667
Core_0_L2C_load_hit 227362
Core_0_L2C_load_miss 5782305
Core_0_L2C_load_MPKI 57.823
Core_0_L2C_load_miss_rate 0.962167
Core_0_L2C_rfo_access 22117
Core_0_L2C_rfo_hit 21574
Core_0_L2C_rfo_miss 543
Core_0_L2C_rfo_MPKI 0.00543
Core_0_L2C_rfo_miss_rate 0.0245513
Core_0_L2C_prefetch_access 328860
Core_0_L2C_prefetch_hit 156138
Core_0_L2C_prefetch_miss 172722
Core_0_L2C_prefetch_MPKI 1.72722
Core_0_L2C_prefetch_miss_rate 0.525214
Core_0_L2C_writeback_access 26142
Core_0_L2C_writeback_hit 26088
Core_0_L2C_writeback_miss 54
Core_0_L2C_writeback_MPKI 0.00054
Core_0_L2C_writeback_miss_rate 0.00206564
Core_0_L2C_prefetch_requested 328860
Core_0_L2C_prefetch_issued 328860
Core_0_L2C_prefetch_useful 35018
Core_0_L2C_prefetch_useless 132801
Core_0_L2C_prefetch_late 0
Core_0_L2C_prefetch_fill 167792
Core_0_L2C_prefetch_too_early 61
Core_0_L2C_prefetch_too_early_among_fill 0.000363545
Core_0_L2C_prefetch_too_early_among_useless 0.000459334
Core_0_L2C_prefetch_pollution_evict 35590
Core_0_L2C_prefetch_pollution_demand 35590
Core_0_L2C_prefetch_pollution_among_prefetch_fill 0.212108
Core_0_L2C_prefetch_accuracy 0.106483
Core_0_L2C_prefetch_coverage 0.00601905

Core_0_LLC_total_access 5952969
Core_0_LLC_total_hit 1386050
Core_0_LLC_total_miss 4566919
Core_0_LLC_total_MPKI 45.6692
Core_0_LLC_total_miss_rate 0.767167
Core_0_LLC_demand_access 5782848
Core_0_LLC_demand_hit 1341907
Core_0_LLC_demand_miss 4440941
Core_0_LLC_demand_MPKI 44.4094
Core_0_LLC_demand_miss_rate 0.76795
Core_0_LLC_load_access 5782305
Core_0_LLC_load_hit 1341364
Core_0_LLC_load_miss 4440941
Core_0_LLC_load_MPKI 44.4094
Core_0_LLC_load_miss_rate 0.768023
Core_0_LLC_rfo_access 543
Core_0_LLC_rfo_hit 543
Core_0_LLC_rfo_miss 0
Core_0_LLC_rfo_MPKI 0
Core_0_LLC_rfo_miss_rate 0
Core_0_LLC_prefetch_access 167792
Core_0_LLC_prefetch_hit 41857
Core_0_LLC_prefetch_miss 125935
Core_0_LLC_prefetch_MPKI 1.25935
Core_0_LLC_prefetch_miss_rate 0.750542
Core_0_LLC_writeback_access 2329
Core_0_LLC_writeback_hit 2286
Core_0_LLC_writeback_miss 43
Core_0_LLC_writeback_MPKI 0.00043
Core_0_LLC_writeback_miss_rate 0.0184629
Core_0_LLC_prefetch_requested 0
Core_0_LLC_prefetch_issued 0
Core_0_LLC_prefetch_useful 0
Core_0_LLC_prefetch_useless 0
Core_0_LLC_prefetch_late 0
Core_0_LLC_prefetch_fill 125935
Core_0_LLC_prefetch_too_early 0
Core_0_LLC_prefetch_too_early_among_fill 0
Core_0_LLC_prefetch_too_early_among_useless 0
Core_0_LLC_prefetch_pollution_evict 27263
Core_0_LLC_prefetch_pollution_demand 27263
Core_0_LLC_prefetch_pollution_among_prefetch_fill 0.216485
Core_0_LLC_prefetch_accuracy 0
Core_0_LLC_prefetch_coverage 0

[DRAM Statistics]
Channel_0_RQ_row_buffer_hit 30333
Channel_0_RQ_row_buffer_miss 6013169
Channel_0_WQ_row_buffer_hit 14
Channel_0_WQ_row_buffer_miss 31
Channel_0_WQ_full 0
Channel_0_dbus_congested 6327469
DRAM_total_RQ_row_buffer_hit 30333
DRAM_total_RQ_row_buffer_miss 6013169
DRAM_total_WQ_row_buffer_hit 14
DRAM_total_WQ_row_buffer_miss 31
DRAM_total_WQ_full 0
DRAM_total_dbus_congested 6327469
DRAM_avg_congested_cycle 2.93522

====== DRAM_RQ_TRAFFIC ========
DRAM_RQ_READ_TRAFFIC_BREAKDOWN:
data_demand_read.count = 4440941
data_demand_read.share = 73.48%

inst_demand_read.count = 0
inst_demand_read.share = 0.00%

cache_inst_prefetch.count = 0
cache_inst_prefetch.share = 0.00%

cache_data_prefetch.count = 125935
cache_data_prefetch.share = 2.08%

stlb_data_demand.count = 1476626
stlb_data_demand.share = 24.43%

stlb_inst_demand.count = 0
stlb_inst_demand.share = 0.00%

stlb_l1i_pref.count = 0
stlb_l1i_pref.share = 0.00%

stlb_l1d_pref.count = 0
stlb_l1d_pref.share = 0.00%

DRAM_RQ_READ_TRAFFIC_SUMMARY:
cache_demand.count = 4440941
cache_demand.share = 73.48%

cache_prefetch.count = 125935
cache_prefetch.share = 2.08%

stlb_demand.count = 1476626
stlb_demand.share = 24.43%

stlb_prefetch.count = 0
stlb_prefetch.share = 0.00%

DRAM_RQ_READ_TRAFFIC_DEBUG:
total_classified_read.count = 6043502
unclassified_read.count = 0
total_read_with_other.count = 6043502

classified_plus_unclassified_check.count = 6043502
dram_rq_read_total_observed.count = 6043502
dram_rq_read_total_observed.per_1K_instructions = 60.435

STLB_MISS_PTW_DRAM_TOUCH_BREAKDOWN:
stlb_miss_total.count = 3858568

stlb_miss_touch_dram.count = 1478287
stlb_miss_touch_dram.share = 38.31%

stlb_miss_no_dram_touch.count = 2380281
stlb_miss_no_dram_touch.share = 61.69%

STLB_MISS_PTW_DRAM_TOUCH_DEBUG:
stlb_miss_touch_plus_no_touch.count = 3858568
stlb_miss_total_check.count = 3858568

======STLB miss causes ========
Core_0_STLB_miss_cause_breakdown
Core_0_STLB_cause_Demand_Data_miss 3858568
Core_0_STLB_cause_Demand_Data_miss_rate 0.969099
Core_0_STLB_cause_Demand_Instruction_miss 0
Core_0_STLB_cause_Demand_Instruction_miss_rate 0
Core_0_STLB_cause_L1D_Prefetch_miss 0
Core_0_STLB_cause_L1D_Prefetch_miss_rate 0
Core_0_STLB_cause_L1D_Prefetch_Same_Page_miss 0
Core_0_STLB_cause_L1D_Prefetch_Same_Page_miss_rate 0
Core_0_STLB_cause_L1D_Prefetch_Cross_Page_miss 0
Core_0_STLB_cause_L1D_Prefetch_Cross_Page_miss_rate 0
Core_0_STLB_cause_L1I_Prefetch_miss 0
Core_0_STLB_cause_L1I_Prefetch_miss_rate 0
Core_0_STLB_cause_Other_miss 0
Core_0_STLB_cause_Other_miss_rate 0
Core_0_STLB_Demand_miss 3858568
Core_0_STLB_Demand_miss_rate 0.969099
Core_0_STLB_L1D_Prefetch_miss 0
Core_0_STLB_L1D_Prefetch_miss_rate 0
Core_0_STLB_Other_miss 0
Core_0_STLB_Other_miss_rate 0

========== vBerti-TLB Cross-page Flow Stats ==========

Core_0_vBerti_Requested 0
Core_0_vBerti_Cross_page_prefetch_in_Requested 0
Core_0_vBerti_Same_page_prefetch_in_Requested 0
Core_0_vBerti_Cross_page_prefetch_of_Requested 0
Core_0_vBerti_Issued 0
Core_0_vBerti_PQ_Drop_Rate 0
Core_0_vBerti_InPQ_Cross_page_prefetch_of_Requested 0
Core_0_vBerti_Cross_page_PQ_Drop_rate 0
Core_0_vBerti_Cross_page_prefetch_of_Issued 0

========= DTLB_vBerti Prefetch Stats =========
Core_0_DTLB_demand_access 11264384
Core_0_DTLB_demand_hit 7080780
Core_0_DTLB_demand_miss 4183604
Core_0_DTLB_demand_mshr_merge 201999
Core_0_DTLB_demand_fill 3981612
Core_0_DTLB_demand_miss_rate 0.371401
Core_0_DTLB_demand_mpki 41.836
Core_0_DTLB_vberti_prefetch_access 0
Core_0_DTLB_vberti_prefetch_hit 0
Core_0_DTLB_vberti_prefetch_miss 0
Core_0_DTLB_vberti_prefetch_mshr_merge 0
Core_0_DTLB_vberti_prefetch_fill 0
Core_0_DTLB_vberti_prefetch_miss_rate 0
Core_0_DTLB_vberti_prefetch_mpki 0

=== DTLB_vBerti Same/Cross-page Prefetch Stats ===
Core_0_DTLB_vberti_same_page_prefetch 0
Core_0_DTLB_vberti_same_page_prefetch_hit 0
Core_0_DTLB_vberti_same_page_prefetch_miss 0
Core_0_DTLB_vberti_same_page_prefetch_mshr_merge 0
Core_0_DTLB_vberti_same_page_prefetch_fill 0
Core_0_DTLB_vberti_same_page_prefetch_miss_rate 0
Core_0_DTLB_vberti_same_page_prefetch_mpki 0
Core_0_DTLB_vberti_cross_page_prefetch 0
Core_0_DTLB_vberti_cross_page_prefetch_hit 0
Core_0_DTLB_vberti_cross_page_prefetch_miss 0
Core_0_DTLB_vberti_cross_page_prefetch_mshr_merge 0
Core_0_DTLB_vberti_cross_page_prefetch_fill 0
Core_0_DTLB_vberti_cross_page_prefetch_miss_rate 0
Core_0_DTLB_vberti_cross_page_prefetch_mpki 0
Core_0_DTLB_same_page_prefetch_miss_rate 0
Core_0_DTLB_same_page_prefetch_mpki 0
Core_0_DTLB_cross_page_prefetch_miss_rate 0
Core_0_DTLB_cross_page_prefetch_mpki 0
Core_0_DTLB_cross_page_prefetch_issued 0
Core_0_DTLB_cross_page_prefetch_lookups 0
Core_0_DTLB_cross_page_prefetch_useful 0
Core_0_DTLB_cross_page_prefetch_useless 0
Core_0_DTLB_cross_page_prefetch_late 0
Core_0_DTLB_cross_page_prefetch_too_early 0
Core_0_DTLB_cross_page_prefetch_too_early_among_fill 0
Core_0_DTLB_cross_page_prefetch_too_early_among_useless 0
Core_0_DTLB_cross_page_prefetch_pollution_evict 0
Core_0_DTLB_cross_page_prefetch_pollution_demand 0
Core_0_DTLB_cross_page_prefetch_pollution_among_prefetch_fill 0
Core_0_DTLB_cross_page_prefetch_accuracy 0
Core_0_DTLB_cross_page_prefetch_coverage 0

========= STLB_vBerti Prefetch Stats =========
Core_0_STLB_demand_access 3981605
Core_0_STLB_demand_hit 123037
Core_0_STLB_demand_miss 3858568
Core_0_STLB_demand_mshr_merge 0
Core_0_STLB_demand_fill 3858575
Core_0_STLB_demand_miss_rate 0.969099
Core_0_STLB_demand_mpki 38.5857
Core_0_STLB_vberti_prefetch_access 0
Core_0_STLB_vberti_prefetch_hit 0
Core_0_STLB_vberti_prefetch_miss 0
Core_0_STLB_vberti_prefetch_mshr_merge 0
Core_0_STLB_vberti_prefetch_fill 0
Core_0_STLB_vberti_prefetch_miss_rate 0
Core_0_STLB_vberti_prefetch_mpki 0

=== STLB_vBerti Same/Cross-page Prefetch Stats ===
Core_0_STLB_vberti_same_page_prefetch 0
Core_0_STLB_vberti_same_page_prefetch_hit 0
Core_0_STLB_vberti_same_page_prefetch_miss 0
Core_0_STLB_vberti_same_page_prefetch_mshr_merge 0
Core_0_STLB_vberti_same_page_prefetch_fill 0
Core_0_STLB_vberti_same_page_prefetch_miss_rate 0
Core_0_STLB_vberti_same_page_prefetch_mpki 0
Core_0_STLB_vberti_cross_page_prefetch 0
Core_0_STLB_vberti_cross_page_prefetch_hit 0
Core_0_STLB_vberti_cross_page_prefetch_miss 0
Core_0_STLB_vberti_cross_page_prefetch_mshr_merge 0
Core_0_STLB_vberti_cross_page_prefetch_fill 0
Core_0_STLB_vberti_cross_page_prefetch_miss_rate 0
Core_0_STLB_vberti_cross_page_prefetch_mpki 0
Core_0_STLB_same_page_prefetch_miss_rate 0
Core_0_STLB_same_page_prefetch_mpki 0
Core_0_STLB_cross_page_prefetch_miss_rate 0
Core_0_STLB_cross_page_prefetch_mpki 0
Core_0_STLB_cross_page_prefetch_issued 0
Core_0_STLB_cross_page_prefetch_lookups 0
Core_0_STLB_cross_page_prefetch_useful 0
Core_0_STLB_cross_page_prefetch_useless 0
Core_0_STLB_cross_page_prefetch_late 0
Core_0_STLB_cross_page_prefetch_too_early 0
Core_0_STLB_cross_page_prefetch_too_early_among_fill 0
Core_0_STLB_cross_page_prefetch_too_early_among_useless 0
Core_0_STLB_cross_page_prefetch_pollution_evict 0
Core_0_STLB_cross_page_prefetch_pollution_demand 0
Core_0_STLB_cross_page_prefetch_pollution_among_prefetch_fill 0
Core_0_STLB_cross_page_prefetch_accuracy 0
Core_0_STLB_cross_page_prefetch_coverage 0

========= STLB Cross-page Prefetch Buffer Stats =========
Core_0_STLB_raw_demand_miss 3858568
Core_0_CP_PB_insert 0
Core_0_CP_PB_demand_hit 0
Core_0_STLB_PB_demand_miss 3858568
Core_0_CP_PB_coverage 0
Core_0_STLB_raw_demand_mpki 38.5857
Core_0_STLB_PB_demand_mpki 38.5857
Core_0_CP_PB_demand_hit_mpki 0

Core_0_TLB_demand_miss_rate 0.342546
Core_0_TLB_demand_mpki 38.5857
Core_0_TLB_same_page_prefetch_miss_rate 0
Core_0_TLB_same_page_prefetch_mpki 0
Core_0_TLB_cross_page_prefetch_miss_rate 0
Core_0_TLB_cross_page_prefetch_mpki 0
Core_0_TLB_cross_page_prefetch_issued 0
Core_0_TLB_cross_page_prefetch_lookups 0
Core_0_TLB_cross_page_prefetch_useful 0
Core_0_TLB_cross_page_prefetch_useless 0
Core_0_TLB_cross_page_prefetch_late 0
Core_0_TLB_cross_page_prefetch_too_early 0
Core_0_TLB_cross_page_prefetch_too_early_among_fill 0
Core_0_TLB_cross_page_prefetch_too_early_among_useless 0
Core_0_TLB_cross_page_prefetch_accuracy 0
Core_0_TLB_cross_page_prefetch_coverage 0
