[VMEM] WARNING: physical memory size is smaller than virtual memory size.

*** ChampSim Multicore Out-of-Order Simulator ***
Warmup Instructions: 20000000
Simulation Instructions: 50000000
Number of CPUs: 1
Page size: 4096
Core 0: /data0/tzh/champsim_traces/SPEC17/620.omnetpp_s-141B.champsimtrace.xz
 L1D Berti prefetcher
Off-chip DRAM Size: 16 GiB Channels: 1 Width: 64-bit Data Rate: 3205 MT/s
Warmup halting CPU 0 at instruction 20000002 cycle 7877526 for remainder of phase
Warmup finished CPU 0 instructions: 20000002 cycles: 7877526 cumulative IPC: 2.539 (Simulation time: 00 hr 01 min 37 sec)
Warmup complete CPU 0 instructions: 20000002 cycles: 7877526 cumulative IPC: 2.539 (Simulation time: 00 hr 01 min 37 sec)
Simulation finished CPU 0 instructions: 50000003 cycles: 110561246 cumulative IPC: 0.4522 (Simulation time: 00 hr 11 min 48 sec)
Simulation complete CPU 0 instructions: 50000003 cycles: 110561246 cumulative IPC: 0.4522 (Simulation time: 00 hr 11 min 48 sec)

ChampSim completed all CPUs

=== Simulation ===
CPU 0 runs /data0/tzh/champsim_traces/SPEC17/620.omnetpp_s-141B.champsimtrace.xz

Region of Interest Statistics

CPU 0 cumulative IPC: 0.4522 instructions: 50000003 cycles: 110561246
CPU 0 Branch Prediction Accuracy: 95.7% MPKI: 9.03 Average ROB Occupancy at Mispredict: 80.58
Branch type MPKI
BRANCH_DIRECT_JUMP: 0.8235
BRANCH_INDIRECT: 0.3613
BRANCH_CONDITIONAL: 6.534
BRANCH_DIRECT_CALL: 0.00136
BRANCH_INDIRECT_CALL: 0.8598
BRANCH_RETURN: 0.4496

cpu0->cpu0_STLB TOTAL        ACCESS:    1149763 HIT:     900146 MISS:     249617 MSHR_MERGE:          0
cpu0->cpu0_STLB LOAD         ACCESS:    1149763 HIT:     900146 MISS:     249617 MSHR_MERGE:          0
cpu0->cpu0_STLB RFO          ACCESS:          0 HIT:          0 MISS:          0 MSHR_MERGE:          0
cpu0->cpu0_STLB PREFETCH     ACCESS:          0 HIT:          0 MISS:          0 MSHR_MERGE:          0
cpu0->cpu0_STLB WRITE        ACCESS:          0 HIT:          0 MISS:          0 MSHR_MERGE:          0
cpu0->cpu0_STLB TRANSLATION  ACCESS:          0 HIT:          0 MISS:          0 MSHR_MERGE:          0
cpu0->cpu0_STLB PREFETCH REQUESTED:          0 ISSUED:          0 USEFUL:          0 USELESS:          0 LATE:          0
cpu0->cpu0_STLB AVERAGE MISS LATENCY: 74.37 cycles
cpu0->cpu0_L2C TOTAL        ACCESS:    2005617 HIT:     872331 MISS:    1133286 MSHR_MERGE:       5809
cpu0->cpu0_L2C LOAD         ACCESS:     791322 HIT:     248083 MISS:     543239 MSHR_MERGE:        323
cpu0->cpu0_L2C RFO          ACCESS:     111408 HIT:      24179 MISS:      87229 MSHR_MERGE:          0
cpu0->cpu0_L2C PREFETCH     ACCESS:     402128 HIT:      57074 MISS:     345054 MSHR_MERGE:       5486
cpu0->cpu0_L2C WRITE        ACCESS:     476895 HIT:     475616 MISS:       1279 MSHR_MERGE:          0
cpu0->cpu0_L2C TRANSLATION  ACCESS:     223864 HIT:      67379 MISS:     156485 MSHR_MERGE:          0
cpu0->cpu0_L2C PREFETCH REQUESTED:      27539 ISSUED:      27539 USEFUL:       6348 USELESS:      12590 LATE:        323
cpu0->cpu0_L2C AVERAGE MISS LATENCY: 141.7 cycles
cpu0->cpu0_L1I TOTAL        ACCESS:    7324022 HIT:    7286776 MISS:      37246 MSHR_MERGE:       9176
cpu0->cpu0_L1I LOAD         ACCESS:    7324022 HIT:    7286776 MISS:      37246 MSHR_MERGE:       9176
cpu0->cpu0_L1I RFO          ACCESS:          0 HIT:          0 MISS:          0 MSHR_MERGE:          0
cpu0->cpu0_L1I PREFETCH     ACCESS:          0 HIT:          0 MISS:          0 MSHR_MERGE:          0
cpu0->cpu0_L1I WRITE        ACCESS:          0 HIT:          0 MISS:          0 MSHR_MERGE:          0
cpu0->cpu0_L1I TRANSLATION  ACCESS:          0 HIT:          0 MISS:          0 MSHR_MERGE:          0
cpu0->cpu0_L1I PREFETCH REQUESTED:          0 ISSUED:          0 USEFUL:          0 USELESS:          0 LATE:          0
cpu0->cpu0_L1I AVERAGE MISS LATENCY: 19.63 cycles
cpu0->cpu0_L1D TOTAL        ACCESS:   20116167 HIT:   18177195 MISS:    1938972 MSHR_MERGE:     465846
cpu0->cpu0_L1D LOAD         ACCESS:    9657404 HIT:    8663775 MISS:     993629 MSHR_MERGE:     230373
cpu0->cpu0_L1D RFO          ACCESS:          0 HIT:          0 MISS:          0 MSHR_MERGE:          0
cpu0->cpu0_L1D PREFETCH     ACCESS:    1014145 HIT:     622582 MISS:     391563 MSHR_MERGE:      16974
cpu0->cpu0_L1D WRITE        ACCESS:    8845748 HIT:    8516171 MISS:     329577 MSHR_MERGE:     218160
cpu0->cpu0_L1D TRANSLATION  ACCESS:     598870 HIT:     374667 MISS:     224203 MSHR_MERGE:        339
cpu0->cpu0_L1D PREFETCH REQUESTED:    1020927 ISSUED:    1014138 USEFUL:     111621 USELESS:     262909 LATE:      15549
cpu0->cpu0_L1D AVERAGE MISS LATENCY: 110.2 cycles
cpu0->cpu0_ITLB TOTAL        ACCESS:    6492599 HIT:    6335039 MISS:     157560 MSHR_MERGE:      78775
cpu0->cpu0_ITLB LOAD         ACCESS:    6492599 HIT:    6335039 MISS:     157560 MSHR_MERGE:      78775
cpu0->cpu0_ITLB RFO          ACCESS:          0 HIT:          0 MISS:          0 MSHR_MERGE:          0
cpu0->cpu0_ITLB PREFETCH     ACCESS:          0 HIT:          0 MISS:          0 MSHR_MERGE:          0
cpu0->cpu0_ITLB WRITE        ACCESS:          0 HIT:          0 MISS:          0 MSHR_MERGE:          0
cpu0->cpu0_ITLB TRANSLATION  ACCESS:          0 HIT:          0 MISS:          0 MSHR_MERGE:          0
cpu0->cpu0_ITLB PREFETCH REQUESTED:          0 ISSUED:          0 USEFUL:          0 USELESS:          0 LATE:          0
cpu0->cpu0_ITLB AVERAGE MISS LATENCY: 5.626 cycles
cpu0->cpu0_DTLB TOTAL        ACCESS:   18306727 HIT:   17001141 MISS:    1305586 MSHR_MERGE:     234608
cpu0->cpu0_DTLB LOAD         ACCESS:   18306727 HIT:   17001141 MISS:    1305586 MSHR_MERGE:     234608
cpu0->cpu0_DTLB RFO          ACCESS:          0 HIT:          0 MISS:          0 MSHR_MERGE:          0
cpu0->cpu0_DTLB PREFETCH     ACCESS:          0 HIT:          0 MISS:          0 MSHR_MERGE:          0
cpu0->cpu0_DTLB WRITE        ACCESS:          0 HIT:          0 MISS:          0 MSHR_MERGE:          0
cpu0->cpu0_DTLB TRANSLATION  ACCESS:          0 HIT:          0 MISS:          0 MSHR_MERGE:          0
cpu0->cpu0_DTLB PREFETCH REQUESTED:          0 ISSUED:          0 USEFUL:          0 USELESS:          0 LATE:          0
cpu0->cpu0_DTLB AVERAGE MISS LATENCY: 22.53 cycles
cpu0->LLC TOTAL        ACCESS:    1486170 HIT:     654675 MISS:     831495 MSHR_MERGE:          0
cpu0->LLC LOAD         ACCESS:     542916 HIT:     137212 MISS:     405704 MSHR_MERGE:          0
cpu0->LLC RFO          ACCESS:      87229 HIT:      31230 MISS:      55999 MSHR_MERGE:          0
cpu0->LLC PREFETCH     ACCESS:     339568 HIT:      37628 MISS:     301940 MSHR_MERGE:          0
cpu0->LLC WRITE        ACCESS:     359972 HIT:     331096 MISS:      28876 MSHR_MERGE:          0
cpu0->LLC TRANSLATION  ACCESS:     156485 HIT:     117509 MISS:      38976 MSHR_MERGE:          0
cpu0->LLC PREFETCH REQUESTED:          0 ISSUED:          0 USEFUL:          0 USELESS:          0 LATE:          0
cpu0->LLC AVERAGE MISS LATENCY: 188.1 cycles

DRAM Statistics

Channel 0 RQ ROW_BUFFER_HIT:       9611
  ROW_BUFFER_MISS:     792995
  AVG DBUS CONGESTED CYCLE: 16.26
Channel 0 WQ ROW_BUFFER_HIT:      78027
  ROW_BUFFER_MISS:     179773
  FULL:          0
Channel 0 REFRESHES ISSUED:       9213

[ROI Statistics]
[System Configuration]
num_cpus 1
cpu_freq 4000
fetch_width 6
decode_width 6
dispatch_width 6
execute_width 6
lq_width 2
sq_width 2
retire_width 6
scheduler_size 128
branch_mispredict_penalty 15
rob_size 352
lq_size 128
sq_size 72
ifetch_buffer_size 64
decode_buffer_size 32
dispatch_buffer_size 32
register_file_size 288
decode_latency 1
dispatch_latency 1
schedule_latency 1
execute_latency 1
page_size 4096
block_size 64
core_0_itlb_set 16
core_0_itlb_way 4
core_0_itlb_rq_size 16
core_0_itlb_wq_size 16
core_0_itlb_pq_size 0
core_0_itlb_mshr_size 8
core_0_itlb_hit_latency 1
core_0_itlb_fill_latency 1
core_0_itlb_max_tag_check 2
core_0_itlb_max_fill 2
core_0_dtlb_set 16
core_0_dtlb_way 4
core_0_dtlb_rq_size 16
core_0_dtlb_wq_size 16
core_0_dtlb_pq_size 0
core_0_dtlb_mshr_size 8
core_0_dtlb_hit_latency 1
core_0_dtlb_fill_latency 1
core_0_dtlb_max_tag_check 2
core_0_dtlb_max_fill 2
core_0_stlb_set 128
core_0_stlb_way 12
core_0_stlb_rq_size 32
core_0_stlb_wq_size 32
core_0_stlb_pq_size 0
core_0_stlb_mshr_size 16
core_0_stlb_hit_latency 4
core_0_stlb_fill_latency 4
core_0_stlb_max_tag_check 1
core_0_stlb_max_fill 1
core_0_l1i_set 64
core_0_l1i_way 8
core_0_l1i_rq_size 64
core_0_l1i_wq_size 64
core_0_l1i_pq_size 32
core_0_l1i_mshr_size 8
core_0_l1i_hit_latency 2
core_0_l1i_fill_latency 2
core_0_l1i_max_tag_check 2
core_0_l1i_max_fill 2
core_0_l1d_set 64
core_0_l1d_way 12
core_0_l1d_rq_size 64
core_0_l1d_wq_size 64
core_0_l1d_pq_size 8
core_0_l1d_mshr_size 16
core_0_l1d_hit_latency 2
core_0_l1d_fill_latency 3
core_0_l1d_max_tag_check 2
core_0_l1d_max_fill 2
core_0_l2c_set 1024
core_0_l2c_way 8
core_0_l2c_rq_size 32
core_0_l2c_wq_size 32
core_0_l2c_pq_size 16
core_0_l2c_mshr_size 32
core_0_l2c_hit_latency 5
core_0_l2c_fill_latency 5
core_0_l2c_max_tag_check 1
core_0_l2c_max_fill 1
llc_set 2048
llc_way 16
llc_rq_size 32
llc_wq_size 32
llc_pq_size 32
llc_mshr_size 64
llc_hit_latency 10
llc_fill_latency 10
llc_max_tag_check 1
llc_max_fill 1
dram_channels 1
dram_ranks 1
dram_bankgroups 8
dram_banks 4
dram_rows 65536
dram_columns 1024
dram_channel_width 8
dram_rq_size 64
dram_wq_size 64
dram_size 17179869184
core_0_itlb_prefetcher no
core_0_dtlb_prefetcher no
core_0_stlb_prefetcher no
core_0_l1i_prefetcher next_line
core_0_l1d_prefetcher berti
core_0_l2c_prefetcher ip_stride
llc_prefetcher no
llc_replacement drrip

Core_0_instructions 50000003
Core_0_cycles 110561246
Core_0_IPC 0.452238
Core_0_branch_prediction_accuracy 95.7047
Core_0_branch_MPKI 9.02996
Core_0_average_ROB_occupancy_at_mispredict 80.576

Core_0_ITLB_total_access 6492599
Core_0_ITLB_total_hit 6335039
Core_0_ITLB_total_miss 157560
Core_0_ITLB_total_MPKI 3.1512
Core_0_ITLB_total_miss_rate 0.0242676
Core_0_ITLB_demand_access 6492599
Core_0_ITLB_demand_hit 6335039
Core_0_ITLB_demand_miss 157560
Core_0_ITLB_demand_MPKI 3.1512
Core_0_ITLB_demand_miss_rate 0.0242676
Core_0_ITLB_load_access 6492599
Core_0_ITLB_load_hit 6335039
Core_0_ITLB_load_miss 157560
Core_0_ITLB_load_MPKI 3.1512
Core_0_ITLB_load_miss_rate 0.0242676
Core_0_ITLB_rfo_access 0
Core_0_ITLB_rfo_hit 0
Core_0_ITLB_rfo_miss 0
Core_0_ITLB_rfo_MPKI 0
Core_0_ITLB_rfo_miss_rate 0
Core_0_ITLB_prefetch_access 0
Core_0_ITLB_prefetch_hit 0
Core_0_ITLB_prefetch_miss 0
Core_0_ITLB_prefetch_MPKI 0
Core_0_ITLB_prefetch_miss_rate 0
Core_0_ITLB_writeback_access 0
Core_0_ITLB_writeback_hit 0
Core_0_ITLB_writeback_miss 0
Core_0_ITLB_writeback_MPKI 0
Core_0_ITLB_writeback_miss_rate 0
Core_0_ITLB_prefetch_requested 0
Core_0_ITLB_prefetch_issued 0
Core_0_ITLB_prefetch_useful 0
Core_0_ITLB_prefetch_useless 0
Core_0_ITLB_prefetch_late 0
Core_0_ITLB_prefetch_accuracy 0
Core_0_ITLB_prefetch_coverage 0

Core_0_DTLB_total_access 18306727
Core_0_DTLB_total_hit 17001141
Core_0_DTLB_total_miss 1305586
Core_0_DTLB_total_MPKI 26.1117
Core_0_DTLB_total_miss_rate 0.0713173
Core_0_DTLB_demand_access 18306727
Core_0_DTLB_demand_hit 17001141
Core_0_DTLB_demand_miss 1305586
Core_0_DTLB_demand_MPKI 26.1117
Core_0_DTLB_demand_miss_rate 0.0713173
Core_0_DTLB_load_access 18306727
Core_0_DTLB_load_hit 17001141
Core_0_DTLB_load_miss 1305586
Core_0_DTLB_load_MPKI 26.1117
Core_0_DTLB_load_miss_rate 0.0713173
Core_0_DTLB_rfo_access 0
Core_0_DTLB_rfo_hit 0
Core_0_DTLB_rfo_miss 0
Core_0_DTLB_rfo_MPKI 0
Core_0_DTLB_rfo_miss_rate 0
Core_0_DTLB_prefetch_access 0
Core_0_DTLB_prefetch_hit 0
Core_0_DTLB_prefetch_miss 0
Core_0_DTLB_prefetch_MPKI 0
Core_0_DTLB_prefetch_miss_rate 0
Core_0_DTLB_writeback_access 0
Core_0_DTLB_writeback_hit 0
Core_0_DTLB_writeback_miss 0
Core_0_DTLB_writeback_MPKI 0
Core_0_DTLB_writeback_miss_rate 0
Core_0_DTLB_prefetch_requested 0
Core_0_DTLB_prefetch_issued 0
Core_0_DTLB_prefetch_useful 0
Core_0_DTLB_prefetch_useless 0
Core_0_DTLB_prefetch_late 0
Core_0_DTLB_prefetch_accuracy 0
Core_0_DTLB_prefetch_coverage 0

Core_0_STLB_total_access 1149763
Core_0_STLB_total_hit 900146
Core_0_STLB_total_miss 249617
Core_0_STLB_total_MPKI 4.99234
Core_0_STLB_total_miss_rate 0.217103
Core_0_STLB_demand_access 1149763
Core_0_STLB_demand_hit 900146
Core_0_STLB_demand_miss 249617
Core_0_STLB_demand_MPKI 4.99234
Core_0_STLB_demand_miss_rate 0.217103
Core_0_STLB_load_access 1149763
Core_0_STLB_load_hit 900146
Core_0_STLB_load_miss 249617
Core_0_STLB_load_MPKI 4.99234
Core_0_STLB_load_miss_rate 0.217103
Core_0_STLB_rfo_access 0
Core_0_STLB_rfo_hit 0
Core_0_STLB_rfo_miss 0
Core_0_STLB_rfo_MPKI 0
Core_0_STLB_rfo_miss_rate 0
Core_0_STLB_prefetch_access 0
Core_0_STLB_prefetch_hit 0
Core_0_STLB_prefetch_miss 0
Core_0_STLB_prefetch_MPKI 0
Core_0_STLB_prefetch_miss_rate 0
Core_0_STLB_writeback_access 0
Core_0_STLB_writeback_hit 0
Core_0_STLB_writeback_miss 0
Core_0_STLB_writeback_MPKI 0
Core_0_STLB_writeback_miss_rate 0
Core_0_STLB_prefetch_requested 0
Core_0_STLB_prefetch_issued 0
Core_0_STLB_prefetch_useful 0
Core_0_STLB_prefetch_useless 0
Core_0_STLB_prefetch_late 0
Core_0_STLB_prefetch_accuracy 0
Core_0_STLB_prefetch_coverage 0

Core_0_L1I_total_access 7324022
Core_0_L1I_total_hit 7286776
Core_0_L1I_total_miss 37246
Core_0_L1I_total_MPKI 0.74492
Core_0_L1I_total_miss_rate 0.00508546
Core_0_L1I_demand_access 7324022
Core_0_L1I_demand_hit 7286776
Core_0_L1I_demand_miss 37246
Core_0_L1I_demand_MPKI 0.74492
Core_0_L1I_demand_miss_rate 0.00508546
Core_0_L1I_load_access 7324022
Core_0_L1I_load_hit 7286776
Core_0_L1I_load_miss 37246
Core_0_L1I_load_MPKI 0.74492
Core_0_L1I_load_miss_rate 0.00508546
Core_0_L1I_rfo_access 0
Core_0_L1I_rfo_hit 0
Core_0_L1I_rfo_miss 0
Core_0_L1I_rfo_MPKI 0
Core_0_L1I_rfo_miss_rate 0
Core_0_L1I_prefetch_access 0
Core_0_L1I_prefetch_hit 0
Core_0_L1I_prefetch_miss 0
Core_0_L1I_prefetch_MPKI 0
Core_0_L1I_prefetch_miss_rate 0
Core_0_L1I_writeback_access 0
Core_0_L1I_writeback_hit 0
Core_0_L1I_writeback_miss 0
Core_0_L1I_writeback_MPKI 0
Core_0_L1I_writeback_miss_rate 0
Core_0_L1I_prefetch_requested 0
Core_0_L1I_prefetch_issued 0
Core_0_L1I_prefetch_useful 0
Core_0_L1I_prefetch_useless 0
Core_0_L1I_prefetch_late 0
Core_0_L1I_prefetch_accuracy 0
Core_0_L1I_prefetch_coverage 0

Core_0_L1D_total_access 19517297
Core_0_L1D_total_hit 17802528
Core_0_L1D_total_miss 1714769
Core_0_L1D_total_MPKI 34.2954
Core_0_L1D_total_miss_rate 0.0878589
Core_0_L1D_demand_access 9657404
Core_0_L1D_demand_hit 8663775
Core_0_L1D_demand_miss 993629
Core_0_L1D_demand_MPKI 19.8726
Core_0_L1D_demand_miss_rate 0.102888
Core_0_L1D_load_access 9657404
Core_0_L1D_load_hit 8663775
Core_0_L1D_load_miss 993629
Core_0_L1D_load_MPKI 19.8726
Core_0_L1D_load_miss_rate 0.102888
Core_0_L1D_rfo_access 0
Core_0_L1D_rfo_hit 0
Core_0_L1D_rfo_miss 0
Core_0_L1D_rfo_MPKI 0
Core_0_L1D_rfo_miss_rate 0
Core_0_L1D_prefetch_access 1014145
Core_0_L1D_prefetch_hit 622582
Core_0_L1D_prefetch_miss 391563
Core_0_L1D_prefetch_MPKI 7.83126
Core_0_L1D_prefetch_miss_rate 0.386102
Core_0_L1D_writeback_access 8845748
Core_0_L1D_writeback_hit 8516171
Core_0_L1D_writeback_miss 329577
Core_0_L1D_writeback_MPKI 6.59154
Core_0_L1D_writeback_miss_rate 0.0372582
Core_0_L1D_prefetch_requested 1020927
Core_0_L1D_prefetch_issued 1014138
Core_0_L1D_prefetch_useful 111621
Core_0_L1D_prefetch_useless 262909
Core_0_L1D_prefetch_late 15549
Core_0_L1D_prefetch_accuracy 0.110065
Core_0_L1D_prefetch_coverage 0.100992

Core_0_L2C_total_access 1781753
Core_0_L2C_total_hit 804952
Core_0_L2C_total_miss 976801
Core_0_L2C_total_MPKI 19.536
Core_0_L2C_total_miss_rate 0.548225
Core_0_L2C_demand_access 902730
Core_0_L2C_demand_hit 272262
Core_0_L2C_demand_miss 630468
Core_0_L2C_demand_MPKI 12.6094
Core_0_L2C_demand_miss_rate 0.698402
Core_0_L2C_load_access 791322
Core_0_L2C_load_hit 248083
Core_0_L2C_load_miss 543239
Core_0_L2C_load_MPKI 10.8648
Core_0_L2C_load_miss_rate 0.686496
Core_0_L2C_rfo_access 111408
Core_0_L2C_rfo_hit 24179
Core_0_L2C_rfo_miss 87229
Core_0_L2C_rfo_MPKI 1.74458
Core_0_L2C_rfo_miss_rate 0.782969
Core_0_L2C_prefetch_access 402128
Core_0_L2C_prefetch_hit 57074
Core_0_L2C_prefetch_miss 345054
Core_0_L2C_prefetch_MPKI 6.90108
Core_0_L2C_prefetch_miss_rate 0.85807
Core_0_L2C_writeback_access 476895
Core_0_L2C_writeback_hit 475616
Core_0_L2C_writeback_miss 1279
Core_0_L2C_writeback_MPKI 0.02558
Core_0_L2C_writeback_miss_rate 0.00268193
Core_0_L2C_prefetch_requested 27539
Core_0_L2C_prefetch_issued 27539
Core_0_L2C_prefetch_useful 6348
Core_0_L2C_prefetch_useless 12590
Core_0_L2C_prefetch_late 323
Core_0_L2C_prefetch_accuracy 0.230509
Core_0_L2C_prefetch_coverage 0.00996834

Core_0_LLC_total_access 1329685
Core_0_LLC_total_hit 537166
Core_0_LLC_total_miss 792519
Core_0_LLC_total_MPKI 15.8504
Core_0_LLC_total_miss_rate 0.59602
Core_0_LLC_demand_access 630145
Core_0_LLC_demand_hit 168442
Core_0_LLC_demand_miss 461703
Core_0_LLC_demand_MPKI 9.23406
Core_0_LLC_demand_miss_rate 0.732693
Core_0_LLC_load_access 542916
Core_0_LLC_load_hit 137212
Core_0_LLC_load_miss 405704
Core_0_LLC_load_MPKI 8.11408
Core_0_LLC_load_miss_rate 0.747268
Core_0_LLC_rfo_access 87229
Core_0_LLC_rfo_hit 31230
Core_0_LLC_rfo_miss 55999
Core_0_LLC_rfo_MPKI 1.11998
Core_0_LLC_rfo_miss_rate 0.641977
Core_0_LLC_prefetch_access 339568
Core_0_LLC_prefetch_hit 37628
Core_0_LLC_prefetch_miss 301940
Core_0_LLC_prefetch_MPKI 6.0388
Core_0_LLC_prefetch_miss_rate 0.889189
Core_0_LLC_writeback_access 359972
Core_0_LLC_writeback_hit 331096
Core_0_LLC_writeback_miss 28876
Core_0_LLC_writeback_MPKI 0.57752
Core_0_LLC_writeback_miss_rate 0.0802174
Core_0_LLC_prefetch_requested 0
Core_0_LLC_prefetch_issued 0
Core_0_LLC_prefetch_useful 0
Core_0_LLC_prefetch_useless 0
Core_0_LLC_prefetch_late 0
Core_0_LLC_prefetch_accuracy 0
Core_0_LLC_prefetch_coverage 0

[DRAM Statistics]
Channel_0_RQ_row_buffer_hit 9611
Channel_0_RQ_row_buffer_miss 792995
Channel_0_WQ_row_buffer_hit 78027
Channel_0_WQ_row_buffer_miss 179773
Channel_0_WQ_full 0
Channel_0_dbus_congested 3059488
DRAM_total_RQ_row_buffer_hit 9611
DRAM_total_RQ_row_buffer_miss 792995
DRAM_total_WQ_row_buffer_hit 78027
DRAM_total_WQ_row_buffer_miss 179773
DRAM_total_WQ_full 0
DRAM_total_dbus_congested 3059488
DRAM_avg_congested_cycle 16.2621

====== DRAM_RQ_TRAFFIC ========
DRAM_RQ_READ_TRAFFIC_BREAKDOWN:
data_demand_read.count = 460413
data_demand_read.share = 57.36%

inst_demand_read.count = 1290
inst_demand_read.share = 0.16%

cache_inst_prefetch.count = 0
cache_inst_prefetch.share = 0.00%

cache_data_prefetch.count = 301940
cache_data_prefetch.share = 37.62%

stlb_data_demand.count = 38570
stlb_data_demand.share = 4.81%

stlb_inst_demand.count = 72
stlb_inst_demand.share = 0.01%

stlb_l1i_pref.count = 0
stlb_l1i_pref.share = 0.00%

stlb_l1d_pref.count = 334
stlb_l1d_pref.share = 0.04%

DRAM_RQ_READ_TRAFFIC_SUMMARY:
cache_demand.count = 461703
cache_demand.share = 57.52%

cache_prefetch.count = 301940
cache_prefetch.share = 37.62%

stlb_demand.count = 38642
stlb_demand.share = 4.81%

stlb_prefetch.count = 334
stlb_prefetch.share = 0.04%

DRAM_RQ_READ_TRAFFIC_DEBUG:
total_classified_read.count = 802619
unclassified_read.count = 0
total_read_with_other.count = 802619

classified_plus_unclassified_check.count = 802619
dram_rq_read_total_observed.count = 802619
dram_rq_read_total_observed.per_1K_instructions = 16.0524

STLB_MISS_PTW_DRAM_TOUCH_BREAKDOWN:
stlb_miss_total.count = 249617

stlb_miss_touch_dram.count = 38970
stlb_miss_touch_dram.share = 15.61%

stlb_miss_no_dram_touch.count = 210647
stlb_miss_no_dram_touch.share = 84.39%

STLB_MISS_PTW_DRAM_TOUCH_DEBUG:
stlb_miss_touch_plus_no_touch.count = 249617
stlb_miss_total_check.count = 249617

======STLB miss causes ========
Core_0_STLB_miss_cause_breakdown
Core_0_STLB_cause_Demand_Data_miss 240588
Core_0_STLB_cause_Demand_Data_miss_rate 0.20925
Core_0_STLB_cause_Demand_Instruction_miss 862
Core_0_STLB_cause_Demand_Instruction_miss_rate 0.00074972
Core_0_STLB_cause_L1D_Prefetch_miss 8167
Core_0_STLB_cause_L1D_Prefetch_miss_rate 0.0071032
Core_0_STLB_cause_L1I_Prefetch_miss 0
Core_0_STLB_cause_L1I_Prefetch_miss_rate 0
Core_0_STLB_cause_Other_miss 0
Core_0_STLB_cause_Other_miss_rate 0
Core_0_STLB_Demand_miss 241450
Core_0_STLB_Demand_miss_rate 0.21
Core_0_STLB_L1D_Prefetch_miss 8167
Core_0_STLB_L1D_Prefetch_miss_rate 0.0071032
Core_0_STLB_Other_miss 0
Core_0_STLB_Other_miss_rate 0
