[VMEM] WARNING: physical memory size is smaller than virtual memory size.

*** ChampSim Multicore Out-of-Order Simulator ***
Warmup Instructions: 20000000
Simulation Instructions: 50000000
Number of CPUs: 1
Page size: 4096
Core 0: /data2/zcq/champsim_traces_gap/bc.kron-5154B.champsimtrace.xz
 L1D Berti prefetcher
Off-chip DRAM Size: 16 GiB Channels: 1 Width: 64-bit Data Rate: 3205 MT/s
Warmup halting CPU 0 at instruction 20000000 cycle 7367271 for remainder of phase
Warmup finished CPU 0 instructions: 20000000 cycles: 7367271 cumulative IPC: 2.715 (Simulation time: 00 hr 01 min 09 sec)
Warmup complete CPU 0 instructions: 20000000 cycles: 7367271 cumulative IPC: 2.715 (Simulation time: 00 hr 01 min 09 sec)
Simulation finished CPU 0 instructions: 50000005 cycles: 53687101 cumulative IPC: 0.9313 (Simulation time: 00 hr 06 min 39 sec)
Simulation complete CPU 0 instructions: 50000005 cycles: 53687101 cumulative IPC: 0.9313 (Simulation time: 00 hr 06 min 39 sec)

ChampSim completed all CPUs

=== Simulation ===
CPU 0 runs /data2/zcq/champsim_traces_gap/bc.kron-5154B.champsimtrace.xz

Region of Interest Statistics

CPU 0 cumulative IPC: 0.9313 instructions: 50000005 cycles: 53687101
CPU 0 Branch Prediction Accuracy: 99.25% MPKI: 1.337 Average ROB Occupancy at Mispredict: 196.1
Branch type MPKI
BRANCH_DIRECT_JUMP: 0
BRANCH_INDIRECT: 0
BRANCH_CONDITIONAL: 1.337
BRANCH_DIRECT_CALL: 0
BRANCH_INDIRECT_CALL: 0
BRANCH_RETURN: 0

cpu0->cpu0_STLB TOTAL        ACCESS:     145955 HIT:       2491 MISS:     143464 MSHR_MERGE:          0
cpu0->cpu0_STLB LOAD         ACCESS:     145955 HIT:       2491 MISS:     143464 MSHR_MERGE:          0
cpu0->cpu0_STLB RFO          ACCESS:          0 HIT:          0 MISS:          0 MSHR_MERGE:          0
cpu0->cpu0_STLB PREFETCH     ACCESS:          0 HIT:          0 MISS:          0 MSHR_MERGE:          0
cpu0->cpu0_STLB WRITE        ACCESS:          0 HIT:          0 MISS:          0 MSHR_MERGE:          0
cpu0->cpu0_STLB TRANSLATION  ACCESS:          0 HIT:          0 MISS:          0 MSHR_MERGE:          0
cpu0->cpu0_STLB PREFETCH REQUESTED:          0 ISSUED:          0 USEFUL:          0 USELESS:          0 LATE:          0
cpu0->cpu0_STLB AVERAGE MISS LATENCY: 295.6 cycles
cpu0->cpu0_L2C TOTAL        ACCESS:     427682 HIT:      36408 MISS:     391274 MSHR_MERGE:       1118
cpu0->cpu0_L2C LOAD         ACCESS:     189314 HIT:       3226 MISS:     186088 MSHR_MERGE:         58
cpu0->cpu0_L2C RFO          ACCESS:       3512 HIT:          1 MISS:       3511 MSHR_MERGE:          0
cpu0->cpu0_L2C PREFETCH     ACCESS:      85646 HIT:       6182 MISS:      79464 MSHR_MERGE:       1060
cpu0->cpu0_L2C WRITE        ACCESS:       7146 HIT:       7146 MISS:          0 MSHR_MERGE:          0
cpu0->cpu0_L2C TRANSLATION  ACCESS:     142064 HIT:      19853 MISS:     122211 MSHR_MERGE:          0
cpu0->cpu0_L2C PREFETCH REQUESTED:      20260 ISSUED:      20260 USEFUL:       5399 USELESS:      10528 LATE:         58
cpu0->cpu0_L2C AVERAGE MISS LATENCY: 187 cycles
cpu0->cpu0_L1I TOTAL        ACCESS:    1616078 HIT:    1616078 MISS:          0 MSHR_MERGE:          0
cpu0->cpu0_L1I LOAD         ACCESS:    1616078 HIT:    1616078 MISS:          0 MSHR_MERGE:          0
cpu0->cpu0_L1I RFO          ACCESS:          0 HIT:          0 MISS:          0 MSHR_MERGE:          0
cpu0->cpu0_L1I PREFETCH     ACCESS:          0 HIT:          0 MISS:          0 MSHR_MERGE:          0
cpu0->cpu0_L1I WRITE        ACCESS:          0 HIT:          0 MISS:          0 MSHR_MERGE:          0
cpu0->cpu0_L1I TRANSLATION  ACCESS:          0 HIT:          0 MISS:          0 MSHR_MERGE:          0
cpu0->cpu0_L1I PREFETCH REQUESTED:          0 ISSUED:          0 USEFUL:          0 USELESS:          0 LATE:          0
cpu0->cpu0_L1I AVERAGE MISS LATENCY: - cycles
cpu0->cpu0_L1D TOTAL        ACCESS:    5279711 HIT:    4809870 MISS:     469841 MSHR_MERGE:      69565
cpu0->cpu0_L1D LOAD         ACCESS:    4807675 HIT:    4549808 MISS:     257867 MSHR_MERGE:      68553
cpu0->cpu0_L1D RFO          ACCESS:          0 HIT:          0 MISS:          0 MSHR_MERGE:          0
cpu0->cpu0_L1D PREFETCH     ACCESS:      69347 HIT:       3881 MISS:      65466 MSHR_MERGE:         80
cpu0->cpu0_L1D WRITE        ACCESS:       7453 HIT:       3939 MISS:       3514 MSHR_MERGE:          2
cpu0->cpu0_L1D TRANSLATION  ACCESS:     395236 HIT:     252242 MISS:     142994 MSHR_MERGE:        930
cpu0->cpu0_L1D PREFETCH REQUESTED:      69347 ISSUED:      69347 USEFUL:      17310 USELESS:      48074 LATE:        231
cpu0->cpu0_L1D AVERAGE MISS LATENCY: 183 cycles
cpu0->cpu0_ITLB TOTAL        ACCESS:    1616078 HIT:    1616078 MISS:          0 MSHR_MERGE:          0
cpu0->cpu0_ITLB LOAD         ACCESS:    1616078 HIT:    1616078 MISS:          0 MSHR_MERGE:          0
cpu0->cpu0_ITLB RFO          ACCESS:          0 HIT:          0 MISS:          0 MSHR_MERGE:          0
cpu0->cpu0_ITLB PREFETCH     ACCESS:          0 HIT:          0 MISS:          0 MSHR_MERGE:          0
cpu0->cpu0_ITLB WRITE        ACCESS:          0 HIT:          0 MISS:          0 MSHR_MERGE:          0
cpu0->cpu0_ITLB TRANSLATION  ACCESS:          0 HIT:          0 MISS:          0 MSHR_MERGE:          0
cpu0->cpu0_ITLB PREFETCH REQUESTED:          0 ISSUED:          0 USEFUL:          0 USELESS:          0 LATE:          0
cpu0->cpu0_ITLB AVERAGE MISS LATENCY: - cycles
cpu0->cpu0_DTLB TOTAL        ACCESS:    4876954 HIT:    4706619 MISS:     170335 MSHR_MERGE:      24380
cpu0->cpu0_DTLB LOAD         ACCESS:    4876954 HIT:    4706619 MISS:     170335 MSHR_MERGE:      24380
cpu0->cpu0_DTLB RFO          ACCESS:          0 HIT:          0 MISS:          0 MSHR_MERGE:          0
cpu0->cpu0_DTLB PREFETCH     ACCESS:          0 HIT:          0 MISS:          0 MSHR_MERGE:          0
cpu0->cpu0_DTLB WRITE        ACCESS:          0 HIT:          0 MISS:          0 MSHR_MERGE:          0
cpu0->cpu0_DTLB TRANSLATION  ACCESS:          0 HIT:          0 MISS:          0 MSHR_MERGE:          0
cpu0->cpu0_DTLB PREFETCH REQUESTED:          0 ISSUED:          0 USEFUL:          0 USELESS:          0 LATE:          0
cpu0->cpu0_DTLB AVERAGE MISS LATENCY: 296.6 cycles
cpu0->LLC TOTAL        ACCESS:     397257 HIT:      41726 MISS:     355531 MSHR_MERGE:          0
cpu0->LLC LOAD         ACCESS:     186030 HIT:        315 MISS:     185715 MSHR_MERGE:          0
cpu0->LLC RFO          ACCESS:       3511 HIT:          0 MISS:       3511 MSHR_MERGE:          0
cpu0->LLC PREFETCH     ACCESS:      78404 HIT:          7 MISS:      78397 MSHR_MERGE:          0
cpu0->LLC WRITE        ACCESS:       7101 HIT:       6230 MISS:        871 MSHR_MERGE:          0
cpu0->LLC TRANSLATION  ACCESS:     122211 HIT:      35174 MISS:      87037 MSHR_MERGE:          0
cpu0->LLC PREFETCH REQUESTED:          0 ISSUED:          0 USEFUL:          0 USELESS:          0 LATE:          0
cpu0->LLC AVERAGE MISS LATENCY: 192.6 cycles

DRAM Statistics

Channel 0 RQ ROW_BUFFER_HIT:       4077
  ROW_BUFFER_MISS:     350583
  AVG DBUS CONGESTED CYCLE: 8.961
Channel 0 WQ ROW_BUFFER_HIT:       2110
  ROW_BUFFER_MISS:       4245
  FULL:          0
Channel 0 REFRESHES ISSUED:       4474

[ROI Statistics]
[System Configuration]
num_cpus 1
cpu_freq 4000
fetch_width 6
decode_width 6
dispatch_width 6
execute_width 6
lq_width 2
sq_width 2
retire_width 6
scheduler_size 128
branch_mispredict_penalty 15
rob_size 352
lq_size 128
sq_size 72
ifetch_buffer_size 64
decode_buffer_size 32
dispatch_buffer_size 32
register_file_size 288
decode_latency 1
dispatch_latency 1
schedule_latency 1
execute_latency 1
page_size 4096
block_size 64
core_0_itlb_set 16
core_0_itlb_way 4
core_0_itlb_rq_size 16
core_0_itlb_wq_size 16
core_0_itlb_pq_size 0
core_0_itlb_mshr_size 8
core_0_itlb_hit_latency 1
core_0_itlb_fill_latency 1
core_0_itlb_max_tag_check 2
core_0_itlb_max_fill 2
core_0_dtlb_set 16
core_0_dtlb_way 4
core_0_dtlb_rq_size 16
core_0_dtlb_wq_size 16
core_0_dtlb_pq_size 0
core_0_dtlb_mshr_size 8
core_0_dtlb_hit_latency 1
core_0_dtlb_fill_latency 1
core_0_dtlb_max_tag_check 2
core_0_dtlb_max_fill 2
core_0_stlb_set 128
core_0_stlb_way 12
core_0_stlb_rq_size 32
core_0_stlb_wq_size 32
core_0_stlb_pq_size 0
core_0_stlb_mshr_size 16
core_0_stlb_hit_latency 4
core_0_stlb_fill_latency 4
core_0_stlb_max_tag_check 1
core_0_stlb_max_fill 1
core_0_l1i_set 64
core_0_l1i_way 8
core_0_l1i_rq_size 64
core_0_l1i_wq_size 64
core_0_l1i_pq_size 32
core_0_l1i_mshr_size 8
core_0_l1i_hit_latency 2
core_0_l1i_fill_latency 2
core_0_l1i_max_tag_check 2
core_0_l1i_max_fill 2
core_0_l1d_set 64
core_0_l1d_way 12
core_0_l1d_rq_size 64
core_0_l1d_wq_size 64
core_0_l1d_pq_size 8
core_0_l1d_mshr_size 16
core_0_l1d_hit_latency 2
core_0_l1d_fill_latency 3
core_0_l1d_max_tag_check 2
core_0_l1d_max_fill 2
core_0_l2c_set 1024
core_0_l2c_way 8
core_0_l2c_rq_size 32
core_0_l2c_wq_size 32
core_0_l2c_pq_size 16
core_0_l2c_mshr_size 32
core_0_l2c_hit_latency 5
core_0_l2c_fill_latency 5
core_0_l2c_max_tag_check 1
core_0_l2c_max_fill 1
llc_set 2048
llc_way 16
llc_rq_size 32
llc_wq_size 32
llc_pq_size 32
llc_mshr_size 64
llc_hit_latency 10
llc_fill_latency 10
llc_max_tag_check 1
llc_max_fill 1
dram_channels 1
dram_ranks 1
dram_bankgroups 8
dram_banks 4
dram_rows 65536
dram_columns 1024
dram_channel_width 8
dram_rq_size 64
dram_wq_size 64
dram_size 17179869184
core_0_itlb_prefetcher no
core_0_dtlb_prefetcher no
core_0_stlb_prefetcher no
core_0_l1i_prefetcher next_line
core_0_l1d_prefetcher berti
core_0_l2c_prefetcher ip_stride
llc_prefetcher no
llc_replacement drrip

Core_0_instructions 50000005
Core_0_cycles 53687101
Core_0_IPC 0.931322
Core_0_branch_prediction_accuracy 99.2541
Core_0_branch_MPKI 1.3368
Core_0_average_ROB_occupancy_at_mispredict 196.059

Core_0_ITLB_total_access 1616078
Core_0_ITLB_total_hit 1616078
Core_0_ITLB_total_miss 0
Core_0_ITLB_total_MPKI 0
Core_0_ITLB_total_miss_rate 0
Core_0_ITLB_demand_access 1616078
Core_0_ITLB_demand_hit 1616078
Core_0_ITLB_demand_miss 0
Core_0_ITLB_demand_MPKI 0
Core_0_ITLB_demand_miss_rate 0
Core_0_ITLB_load_access 1616078
Core_0_ITLB_load_hit 1616078
Core_0_ITLB_load_miss 0
Core_0_ITLB_load_MPKI 0
Core_0_ITLB_load_miss_rate 0
Core_0_ITLB_rfo_access 0
Core_0_ITLB_rfo_hit 0
Core_0_ITLB_rfo_miss 0
Core_0_ITLB_rfo_MPKI 0
Core_0_ITLB_rfo_miss_rate 0
Core_0_ITLB_prefetch_access 0
Core_0_ITLB_prefetch_hit 0
Core_0_ITLB_prefetch_miss 0
Core_0_ITLB_prefetch_MPKI 0
Core_0_ITLB_prefetch_miss_rate 0
Core_0_ITLB_writeback_access 0
Core_0_ITLB_writeback_hit 0
Core_0_ITLB_writeback_miss 0
Core_0_ITLB_writeback_MPKI 0
Core_0_ITLB_writeback_miss_rate 0
Core_0_ITLB_prefetch_requested 0
Core_0_ITLB_prefetch_issued 0
Core_0_ITLB_prefetch_useful 0
Core_0_ITLB_prefetch_useless 0
Core_0_ITLB_prefetch_late 0
Core_0_ITLB_prefetch_accuracy 0
Core_0_ITLB_prefetch_coverage 0

Core_0_DTLB_total_access 4876954
Core_0_DTLB_total_hit 4706619
Core_0_DTLB_total_miss 170335
Core_0_DTLB_total_MPKI 3.4067
Core_0_DTLB_total_miss_rate 0.0349265
Core_0_DTLB_demand_access 4876954
Core_0_DTLB_demand_hit 4706619
Core_0_DTLB_demand_miss 170335
Core_0_DTLB_demand_MPKI 3.4067
Core_0_DTLB_demand_miss_rate 0.0349265
Core_0_DTLB_load_access 4876954
Core_0_DTLB_load_hit 4706619
Core_0_DTLB_load_miss 170335
Core_0_DTLB_load_MPKI 3.4067
Core_0_DTLB_load_miss_rate 0.0349265
Core_0_DTLB_rfo_access 0
Core_0_DTLB_rfo_hit 0
Core_0_DTLB_rfo_miss 0
Core_0_DTLB_rfo_MPKI 0
Core_0_DTLB_rfo_miss_rate 0
Core_0_DTLB_prefetch_access 0
Core_0_DTLB_prefetch_hit 0
Core_0_DTLB_prefetch_miss 0
Core_0_DTLB_prefetch_MPKI 0
Core_0_DTLB_prefetch_miss_rate 0
Core_0_DTLB_writeback_access 0
Core_0_DTLB_writeback_hit 0
Core_0_DTLB_writeback_miss 0
Core_0_DTLB_writeback_MPKI 0
Core_0_DTLB_writeback_miss_rate 0
Core_0_DTLB_prefetch_requested 0
Core_0_DTLB_prefetch_issued 0
Core_0_DTLB_prefetch_useful 0
Core_0_DTLB_prefetch_useless 0
Core_0_DTLB_prefetch_late 0
Core_0_DTLB_prefetch_accuracy 0
Core_0_DTLB_prefetch_coverage 0

Core_0_STLB_total_access 145955
Core_0_STLB_total_hit 2491
Core_0_STLB_total_miss 143464
Core_0_STLB_total_MPKI 2.86928
Core_0_STLB_total_miss_rate 0.982933
Core_0_STLB_demand_access 145955
Core_0_STLB_demand_hit 2491
Core_0_STLB_demand_miss 143464
Core_0_STLB_demand_MPKI 2.86928
Core_0_STLB_demand_miss_rate 0.982933
Core_0_STLB_load_access 145955
Core_0_STLB_load_hit 2491
Core_0_STLB_load_miss 143464
Core_0_STLB_load_MPKI 2.86928
Core_0_STLB_load_miss_rate 0.982933
Core_0_STLB_rfo_access 0
Core_0_STLB_rfo_hit 0
Core_0_STLB_rfo_miss 0
Core_0_STLB_rfo_MPKI 0
Core_0_STLB_rfo_miss_rate 0
Core_0_STLB_prefetch_access 0
Core_0_STLB_prefetch_hit 0
Core_0_STLB_prefetch_miss 0
Core_0_STLB_prefetch_MPKI 0
Core_0_STLB_prefetch_miss_rate 0
Core_0_STLB_writeback_access 0
Core_0_STLB_writeback_hit 0
Core_0_STLB_writeback_miss 0
Core_0_STLB_writeback_MPKI 0
Core_0_STLB_writeback_miss_rate 0
Core_0_STLB_prefetch_requested 0
Core_0_STLB_prefetch_issued 0
Core_0_STLB_prefetch_useful 0
Core_0_STLB_prefetch_useless 0
Core_0_STLB_prefetch_late 0
Core_0_STLB_prefetch_accuracy 0
Core_0_STLB_prefetch_coverage 0

Core_0_L1I_total_access 1616078
Core_0_L1I_total_hit 1616078
Core_0_L1I_total_miss 0
Core_0_L1I_total_MPKI 0
Core_0_L1I_total_miss_rate 0
Core_0_L1I_demand_access 1616078
Core_0_L1I_demand_hit 1616078
Core_0_L1I_demand_miss 0
Core_0_L1I_demand_MPKI 0
Core_0_L1I_demand_miss_rate 0
Core_0_L1I_load_access 1616078
Core_0_L1I_load_hit 1616078
Core_0_L1I_load_miss 0
Core_0_L1I_load_MPKI 0
Core_0_L1I_load_miss_rate 0
Core_0_L1I_rfo_access 0
Core_0_L1I_rfo_hit 0
Core_0_L1I_rfo_miss 0
Core_0_L1I_rfo_MPKI 0
Core_0_L1I_rfo_miss_rate 0
Core_0_L1I_prefetch_access 0
Core_0_L1I_prefetch_hit 0
Core_0_L1I_prefetch_miss 0
Core_0_L1I_prefetch_MPKI 0
Core_0_L1I_prefetch_miss_rate 0
Core_0_L1I_writeback_access 0
Core_0_L1I_writeback_hit 0
Core_0_L1I_writeback_miss 0
Core_0_L1I_writeback_MPKI 0
Core_0_L1I_writeback_miss_rate 0
Core_0_L1I_prefetch_requested 0
Core_0_L1I_prefetch_issued 0
Core_0_L1I_prefetch_useful 0
Core_0_L1I_prefetch_useless 0
Core_0_L1I_prefetch_late 0
Core_0_L1I_prefetch_accuracy 0
Core_0_L1I_prefetch_coverage 0

Core_0_L1D_total_access 4884475
Core_0_L1D_total_hit 4557628
Core_0_L1D_total_miss 326847
Core_0_L1D_total_MPKI 6.53694
Core_0_L1D_total_miss_rate 0.0669155
Core_0_L1D_demand_access 4807675
Core_0_L1D_demand_hit 4549808
Core_0_L1D_demand_miss 257867
Core_0_L1D_demand_MPKI 5.15734
Core_0_L1D_demand_miss_rate 0.0536365
Core_0_L1D_load_access 4807675
Core_0_L1D_load_hit 4549808
Core_0_L1D_load_miss 257867
Core_0_L1D_load_MPKI 5.15734
Core_0_L1D_load_miss_rate 0.0536365
Core_0_L1D_rfo_access 0
Core_0_L1D_rfo_hit 0
Core_0_L1D_rfo_miss 0
Core_0_L1D_rfo_MPKI 0
Core_0_L1D_rfo_miss_rate 0
Core_0_L1D_prefetch_access 69347
Core_0_L1D_prefetch_hit 3881
Core_0_L1D_prefetch_miss 65466
Core_0_L1D_prefetch_MPKI 1.30932
Core_0_L1D_prefetch_miss_rate 0.944035
Core_0_L1D_writeback_access 7453
Core_0_L1D_writeback_hit 3939
Core_0_L1D_writeback_miss 3514
Core_0_L1D_writeback_MPKI 0.07028
Core_0_L1D_writeback_miss_rate 0.471488
Core_0_L1D_prefetch_requested 69347
Core_0_L1D_prefetch_issued 69347
Core_0_L1D_prefetch_useful 17310
Core_0_L1D_prefetch_useless 48074
Core_0_L1D_prefetch_late 231
Core_0_L1D_prefetch_accuracy 0.249614
Core_0_L1D_prefetch_coverage 0.062905

Core_0_L2C_total_access 285618
Core_0_L2C_total_hit 16555
Core_0_L2C_total_miss 269063
Core_0_L2C_total_MPKI 5.38126
Core_0_L2C_total_miss_rate 0.942038
Core_0_L2C_demand_access 192826
Core_0_L2C_demand_hit 3227
Core_0_L2C_demand_miss 189599
Core_0_L2C_demand_MPKI 3.79198
Core_0_L2C_demand_miss_rate 0.983265
Core_0_L2C_load_access 189314
Core_0_L2C_load_hit 3226
Core_0_L2C_load_miss 186088
Core_0_L2C_load_MPKI 3.72176
Core_0_L2C_load_miss_rate 0.98296
Core_0_L2C_rfo_access 3512
Core_0_L2C_rfo_hit 1
Core_0_L2C_rfo_miss 3511
Core_0_L2C_rfo_MPKI 0.07022
Core_0_L2C_rfo_miss_rate 0.999715
Core_0_L2C_prefetch_access 85646
Core_0_L2C_prefetch_hit 6182
Core_0_L2C_prefetch_miss 79464
Core_0_L2C_prefetch_MPKI 1.58928
Core_0_L2C_prefetch_miss_rate 0.927819
Core_0_L2C_writeback_access 7146
Core_0_L2C_writeback_hit 7146
Core_0_L2C_writeback_miss 0
Core_0_L2C_writeback_MPKI 0
Core_0_L2C_writeback_miss_rate 0
Core_0_L2C_prefetch_requested 20260
Core_0_L2C_prefetch_issued 20260
Core_0_L2C_prefetch_useful 5399
Core_0_L2C_prefetch_useless 10528
Core_0_L2C_prefetch_late 58
Core_0_L2C_prefetch_accuracy 0.266486
Core_0_L2C_prefetch_coverage 0.0276875

Core_0_LLC_total_access 275046
Core_0_LLC_total_hit 6552
Core_0_LLC_total_miss 268494
Core_0_LLC_total_MPKI 5.36988
Core_0_LLC_total_miss_rate 0.976179
Core_0_LLC_demand_access 189541
Core_0_LLC_demand_hit 315
Core_0_LLC_demand_miss 189226
Core_0_LLC_demand_MPKI 3.78452
Core_0_LLC_demand_miss_rate 0.998338
Core_0_LLC_load_access 186030
Core_0_LLC_load_hit 315
Core_0_LLC_load_miss 185715
Core_0_LLC_load_MPKI 3.7143
Core_0_LLC_load_miss_rate 0.998307
Core_0_LLC_rfo_access 3511
Core_0_LLC_rfo_hit 0
Core_0_LLC_rfo_miss 3511
Core_0_LLC_rfo_MPKI 0.07022
Core_0_LLC_rfo_miss_rate 1
Core_0_LLC_prefetch_access 78404
Core_0_LLC_prefetch_hit 7
Core_0_LLC_prefetch_miss 78397
Core_0_LLC_prefetch_MPKI 1.56794
Core_0_LLC_prefetch_miss_rate 0.999911
Core_0_LLC_writeback_access 7101
Core_0_LLC_writeback_hit 6230
Core_0_LLC_writeback_miss 871
Core_0_LLC_writeback_MPKI 0.01742
Core_0_LLC_writeback_miss_rate 0.122659
Core_0_LLC_prefetch_requested 0
Core_0_LLC_prefetch_issued 0
Core_0_LLC_prefetch_useful 0
Core_0_LLC_prefetch_useless 0
Core_0_LLC_prefetch_late 0
Core_0_LLC_prefetch_accuracy 0
Core_0_LLC_prefetch_coverage 0

[DRAM Statistics]
Channel_0_RQ_row_buffer_hit 4077
Channel_0_RQ_row_buffer_miss 350583
Channel_0_WQ_row_buffer_hit 2110
Channel_0_WQ_row_buffer_miss 4245
Channel_0_WQ_full 0
Channel_0_dbus_congested 345080
DRAM_total_RQ_row_buffer_hit 4077
DRAM_total_RQ_row_buffer_miss 350583
DRAM_total_WQ_row_buffer_hit 2110
DRAM_total_WQ_row_buffer_miss 4245
DRAM_total_WQ_full 0
DRAM_total_dbus_congested 345080
DRAM_avg_congested_cycle 8.96053

====== DRAM_RQ_TRAFFIC ========
DRAM_RQ_READ_TRAFFIC_BREAKDOWN:
data_demand_read.count = 189226
data_demand_read.share = 53.35%

inst_demand_read.count = 0
inst_demand_read.share = 0.00%

cache_inst_prefetch.count = 0
cache_inst_prefetch.share = 0.00%

cache_data_prefetch.count = 78397
cache_data_prefetch.share = 22.10%

stlb_data_demand.count = 86543
stlb_data_demand.share = 24.40%

stlb_inst_demand.count = 0
stlb_inst_demand.share = 0.00%

stlb_l1i_pref.count = 0
stlb_l1i_pref.share = 0.00%

stlb_l1d_pref.count = 494
stlb_l1d_pref.share = 0.14%

DRAM_RQ_READ_TRAFFIC_SUMMARY:
cache_demand.count = 189226
cache_demand.share = 53.35%

cache_prefetch.count = 78397
cache_prefetch.share = 22.10%

stlb_demand.count = 86543
stlb_demand.share = 24.40%

stlb_prefetch.count = 494
stlb_prefetch.share = 0.14%

DRAM_RQ_READ_TRAFFIC_DEBUG:
total_classified_read.count = 354660
unclassified_read.count = 0
total_read_with_other.count = 354660

classified_plus_unclassified_check.count = 354660
dram_rq_read_total_observed.count = 354660
dram_rq_read_total_observed.per_1K_instructions = 7.0932

STLB_MISS_PTW_DRAM_TOUCH_BREAKDOWN:
stlb_miss_total.count = 143464

stlb_miss_touch_dram.count = 86981
stlb_miss_touch_dram.share = 60.63%

stlb_miss_no_dram_touch.count = 56483
stlb_miss_no_dram_touch.share = 39.37%

STLB_MISS_PTW_DRAM_TOUCH_DEBUG:
stlb_miss_touch_plus_no_touch.count = 143464
stlb_miss_total_check.count = 143464

======STLB miss causes ========
Core_0_STLB_miss_cause_breakdown
Core_0_STLB_cause_Demand_Data_miss 139582
Core_0_STLB_cause_Demand_Data_miss_rate 0.956336
Core_0_STLB_cause_Demand_Instruction_miss 0
Core_0_STLB_cause_Demand_Instruction_miss_rate 0
Core_0_STLB_cause_L1D_Prefetch_miss 3882
Core_0_STLB_cause_L1D_Prefetch_miss_rate 0.0265972
Core_0_STLB_cause_L1I_Prefetch_miss 0
Core_0_STLB_cause_L1I_Prefetch_miss_rate 0
Core_0_STLB_cause_Other_miss 0
Core_0_STLB_cause_Other_miss_rate 0
Core_0_STLB_Demand_miss 139582
Core_0_STLB_Demand_miss_rate 0.956336
Core_0_STLB_L1D_Prefetch_miss 3882
Core_0_STLB_L1D_Prefetch_miss_rate 0.0265972
Core_0_STLB_Other_miss 0
Core_0_STLB_Other_miss_rate 0
