[VMEM] WARNING: physical memory size is smaller than virtual memory size.

*** ChampSim Multicore Out-of-Order Simulator ***
Warmup Instructions: 20000000
Simulation Instructions: 50000000
Number of CPUs: 1
Page size: 4096
Core 0: /data2/zcq/champsim_traces_gap/bc.road-79B.champsimtrace.xz
 L1D Berti prefetcher
Off-chip DRAM Size: 16 GiB Channels: 1 Width: 64-bit Data Rate: 3205 MT/s
Warmup halting CPU 0 at instruction 20000003 cycle 5919561 for remainder of phase
Warmup finished CPU 0 instructions: 20000003 cycles: 5919561 cumulative IPC: 3.379 (Simulation time: 00 hr 01 min 22 sec)
Warmup complete CPU 0 instructions: 20000003 cycles: 5919561 cumulative IPC: 3.379 (Simulation time: 00 hr 01 min 22 sec)
Simulation finished CPU 0 instructions: 50000000 cycles: 183478603 cumulative IPC: 0.2725 (Simulation time: 00 hr 15 min 14 sec)
Simulation complete CPU 0 instructions: 50000000 cycles: 183478603 cumulative IPC: 0.2725 (Simulation time: 00 hr 15 min 14 sec)

ChampSim completed all CPUs

=== Simulation ===
CPU 0 runs /data2/zcq/champsim_traces_gap/bc.road-79B.champsimtrace.xz

Region of Interest Statistics

CPU 0 cumulative IPC: 0.2725 instructions: 50000000 cycles: 183478603
CPU 0 Branch Prediction Accuracy: 88.72% MPKI: 16.83 Average ROB Occupancy at Mispredict: 38.85
Branch type MPKI
BRANCH_DIRECT_JUMP: 0
BRANCH_INDIRECT: 0
BRANCH_CONDITIONAL: 16.83
BRANCH_DIRECT_CALL: 0
BRANCH_INDIRECT_CALL: 0
BRANCH_RETURN: 0

cpu0->cpu0_STLB TOTAL        ACCESS:    1007848 HIT:     611270 MISS:     396578 MSHR_MERGE:          0
cpu0->cpu0_STLB LOAD         ACCESS:    1007848 HIT:     611270 MISS:     396578 MSHR_MERGE:          0
cpu0->cpu0_STLB RFO          ACCESS:          0 HIT:          0 MISS:          0 MSHR_MERGE:          0
cpu0->cpu0_STLB PREFETCH     ACCESS:          0 HIT:          0 MISS:          0 MSHR_MERGE:          0
cpu0->cpu0_STLB WRITE        ACCESS:          0 HIT:          0 MISS:          0 MSHR_MERGE:          0
cpu0->cpu0_STLB TRANSLATION  ACCESS:          0 HIT:          0 MISS:          0 MSHR_MERGE:          0
cpu0->cpu0_STLB PREFETCH REQUESTED:          0 ISSUED:          0 USEFUL:          0 USELESS:          0 LATE:          0
cpu0->cpu0_STLB AVERAGE MISS LATENCY: 28.91 cycles
cpu0->cpu0_L2C TOTAL        ACCESS:    5728365 HIT:    1861100 MISS:    3867265 MSHR_MERGE:       1256
cpu0->cpu0_L2C LOAD         ACCESS:    2504656 HIT:     293359 MISS:    2211297 MSHR_MERGE:         39
cpu0->cpu0_L2C RFO          ACCESS:      77108 HIT:      26915 MISS:      50193 MSHR_MERGE:          0
cpu0->cpu0_L2C PREFETCH     ACCESS:    1706470 HIT:     258702 MISS:    1447768 MSHR_MERGE:       1217
cpu0->cpu0_L2C WRITE        ACCESS:    1202859 HIT:    1202324 MISS:        535 MSHR_MERGE:          0
cpu0->cpu0_L2C TRANSLATION  ACCESS:     237272 HIT:      79800 MISS:     157472 MSHR_MERGE:          0
cpu0->cpu0_L2C PREFETCH REQUESTED:     139232 ISSUED:     139232 USEFUL:      15916 USELESS:      11162 LATE:         39
cpu0->cpu0_L2C AVERAGE MISS LATENCY: 60.91 cycles
cpu0->cpu0_L1I TOTAL        ACCESS:    2455179 HIT:    2455179 MISS:          0 MSHR_MERGE:          0
cpu0->cpu0_L1I LOAD         ACCESS:    2455179 HIT:    2455179 MISS:          0 MSHR_MERGE:          0
cpu0->cpu0_L1I RFO          ACCESS:          0 HIT:          0 MISS:          0 MSHR_MERGE:          0
cpu0->cpu0_L1I PREFETCH     ACCESS:          0 HIT:          0 MISS:          0 MSHR_MERGE:          0
cpu0->cpu0_L1I WRITE        ACCESS:          0 HIT:          0 MISS:          0 MSHR_MERGE:          0
cpu0->cpu0_L1I TRANSLATION  ACCESS:          0 HIT:          0 MISS:          0 MSHR_MERGE:          0
cpu0->cpu0_L1I PREFETCH REQUESTED:          0 ISSUED:          0 USEFUL:          0 USELESS:          0 LATE:          0
cpu0->cpu0_L1I AVERAGE MISS LATENCY: - cycles
cpu0->cpu0_L1D TOTAL        ACCESS:   26453223 HIT:   20439185 MISS:    6014038 MSHR_MERGE:    1627759
cpu0->cpu0_L1D LOAD         ACCESS:   18770554 HIT:   15798426 MISS:    2972128 MSHR_MERGE:     467470
cpu0->cpu0_L1D RFO          ACCESS:          0 HIT:          0 MISS:          0 MSHR_MERGE:          0
cpu0->cpu0_L1D PREFETCH     ACCESS:    1774596 HIT:     200041 MISS:    1574555 MSHR_MERGE:       7317
cpu0->cpu0_L1D WRITE        ACCESS:    5064800 HIT:    3835998 MISS:    1228802 MSHR_MERGE:    1151691
cpu0->cpu0_L1D TRANSLATION  ACCESS:     843273 HIT:     604720 MISS:     238553 MSHR_MERGE:       1281
cpu0->cpu0_L1D PREFETCH REQUESTED:    1774596 ISSUED:    1774594 USEFUL:     231843 USELESS:    1335273 LATE:       4328
cpu0->cpu0_L1D AVERAGE MISS LATENCY: 61.18 cycles
cpu0->cpu0_ITLB TOTAL        ACCESS:    2452178 HIT:    2452178 MISS:          0 MSHR_MERGE:          0
cpu0->cpu0_ITLB LOAD         ACCESS:    2452178 HIT:    2452178 MISS:          0 MSHR_MERGE:          0
cpu0->cpu0_ITLB RFO          ACCESS:          0 HIT:          0 MISS:          0 MSHR_MERGE:          0
cpu0->cpu0_ITLB PREFETCH     ACCESS:          0 HIT:          0 MISS:          0 MSHR_MERGE:          0
cpu0->cpu0_ITLB WRITE        ACCESS:          0 HIT:          0 MISS:          0 MSHR_MERGE:          0
cpu0->cpu0_ITLB TRANSLATION  ACCESS:          0 HIT:          0 MISS:          0 MSHR_MERGE:          0
cpu0->cpu0_ITLB PREFETCH REQUESTED:          0 ISSUED:          0 USEFUL:          0 USELESS:          0 LATE:          0
cpu0->cpu0_ITLB AVERAGE MISS LATENCY: - cycles
cpu0->cpu0_DTLB TOTAL        ACCESS:   25151313 HIT:   23907566 MISS:    1243747 MSHR_MERGE:     235899
cpu0->cpu0_DTLB LOAD         ACCESS:   25151313 HIT:   23907566 MISS:    1243747 MSHR_MERGE:     235899
cpu0->cpu0_DTLB RFO          ACCESS:          0 HIT:          0 MISS:          0 MSHR_MERGE:          0
cpu0->cpu0_DTLB PREFETCH     ACCESS:          0 HIT:          0 MISS:          0 MSHR_MERGE:          0
cpu0->cpu0_DTLB WRITE        ACCESS:          0 HIT:          0 MISS:          0 MSHR_MERGE:          0
cpu0->cpu0_DTLB TRANSLATION  ACCESS:          0 HIT:          0 MISS:          0 MSHR_MERGE:          0
cpu0->cpu0_DTLB PREFETCH REQUESTED:          0 ISSUED:          0 USEFUL:          0 USELESS:          0 LATE:          0
cpu0->cpu0_DTLB AVERAGE MISS LATENCY: 16.77 cycles
cpu0->LLC TOTAL        ACCESS:    4930346 HIT:    3669173 MISS:    1261173 MSHR_MERGE:          0
cpu0->LLC LOAD         ACCESS:    2211257 HIT:    1688011 MISS:     523246 MSHR_MERGE:          0
cpu0->LLC RFO          ACCESS:      50193 HIT:      12403 MISS:      37790 MSHR_MERGE:          0
cpu0->LLC PREFETCH     ACCESS:    1446551 HIT:     772705 MISS:     673846 MSHR_MERGE:          0
cpu0->LLC WRITE        ACCESS:    1064873 HIT:    1045124 MISS:      19749 MSHR_MERGE:          0
cpu0->LLC TRANSLATION  ACCESS:     157472 HIT:     150930 MISS:       6542 MSHR_MERGE:          0
cpu0->LLC PREFETCH REQUESTED:          0 ISSUED:          0 USEFUL:          0 USELESS:          0 LATE:          0
cpu0->LLC AVERAGE MISS LATENCY: 188.4 cycles

DRAM Statistics

Channel 0 RQ ROW_BUFFER_HIT:       4526
  ROW_BUFFER_MISS:    1236514
  AVG DBUS CONGESTED CYCLE: 19.02
Channel 0 WQ ROW_BUFFER_HIT:      77970
  ROW_BUFFER_MISS:     159235
  FULL:          0
Channel 0 REFRESHES ISSUED:      15290

[ROI Statistics]
[System Configuration]
num_cpus 1
cpu_freq 4000
fetch_width 6
decode_width 6
dispatch_width 6
execute_width 6
lq_width 2
sq_width 2
retire_width 6
scheduler_size 128
branch_mispredict_penalty 15
rob_size 352
lq_size 128
sq_size 72
ifetch_buffer_size 64
decode_buffer_size 32
dispatch_buffer_size 32
register_file_size 288
decode_latency 1
dispatch_latency 1
schedule_latency 1
execute_latency 1
page_size 4096
block_size 64
core_0_itlb_set 16
core_0_itlb_way 4
core_0_itlb_rq_size 16
core_0_itlb_wq_size 16
core_0_itlb_pq_size 0
core_0_itlb_mshr_size 8
core_0_itlb_hit_latency 1
core_0_itlb_fill_latency 1
core_0_itlb_max_tag_check 2
core_0_itlb_max_fill 2
core_0_dtlb_set 16
core_0_dtlb_way 4
core_0_dtlb_rq_size 16
core_0_dtlb_wq_size 16
core_0_dtlb_pq_size 0
core_0_dtlb_mshr_size 8
core_0_dtlb_hit_latency 1
core_0_dtlb_fill_latency 1
core_0_dtlb_max_tag_check 2
core_0_dtlb_max_fill 2
core_0_stlb_set 128
core_0_stlb_way 12
core_0_stlb_rq_size 32
core_0_stlb_wq_size 32
core_0_stlb_pq_size 0
core_0_stlb_mshr_size 16
core_0_stlb_hit_latency 4
core_0_stlb_fill_latency 4
core_0_stlb_max_tag_check 1
core_0_stlb_max_fill 1
core_0_l1i_set 64
core_0_l1i_way 8
core_0_l1i_rq_size 64
core_0_l1i_wq_size 64
core_0_l1i_pq_size 32
core_0_l1i_mshr_size 8
core_0_l1i_hit_latency 2
core_0_l1i_fill_latency 2
core_0_l1i_max_tag_check 2
core_0_l1i_max_fill 2
core_0_l1d_set 64
core_0_l1d_way 12
core_0_l1d_rq_size 64
core_0_l1d_wq_size 64
core_0_l1d_pq_size 8
core_0_l1d_mshr_size 16
core_0_l1d_hit_latency 2
core_0_l1d_fill_latency 3
core_0_l1d_max_tag_check 2
core_0_l1d_max_fill 2
core_0_l2c_set 1024
core_0_l2c_way 8
core_0_l2c_rq_size 32
core_0_l2c_wq_size 32
core_0_l2c_pq_size 16
core_0_l2c_mshr_size 32
core_0_l2c_hit_latency 5
core_0_l2c_fill_latency 5
core_0_l2c_max_tag_check 1
core_0_l2c_max_fill 1
llc_set 2048
llc_way 16
llc_rq_size 32
llc_wq_size 32
llc_pq_size 32
llc_mshr_size 64
llc_hit_latency 10
llc_fill_latency 10
llc_max_tag_check 1
llc_max_fill 1
dram_channels 1
dram_ranks 1
dram_bankgroups 8
dram_banks 4
dram_rows 65536
dram_columns 1024
dram_channel_width 8
dram_rq_size 64
dram_wq_size 64
dram_size 17179869184
core_0_itlb_prefetcher no
core_0_dtlb_prefetcher no
core_0_stlb_prefetcher no
core_0_l1i_prefetcher next_line
core_0_l1d_prefetcher berti
core_0_l2c_prefetcher ip_stride
llc_prefetcher no
llc_replacement drrip

Core_0_instructions 50000000
Core_0_cycles 183478603
Core_0_IPC 0.272511
Core_0_branch_prediction_accuracy 88.7243
Core_0_branch_MPKI 16.8348
Core_0_average_ROB_occupancy_at_mispredict 38.8468

Core_0_ITLB_total_access 2452178
Core_0_ITLB_total_hit 2452178
Core_0_ITLB_total_miss 0
Core_0_ITLB_total_MPKI 0
Core_0_ITLB_total_miss_rate 0
Core_0_ITLB_demand_access 2452178
Core_0_ITLB_demand_hit 2452178
Core_0_ITLB_demand_miss 0
Core_0_ITLB_demand_MPKI 0
Core_0_ITLB_demand_miss_rate 0
Core_0_ITLB_load_access 2452178
Core_0_ITLB_load_hit 2452178
Core_0_ITLB_load_miss 0
Core_0_ITLB_load_MPKI 0
Core_0_ITLB_load_miss_rate 0
Core_0_ITLB_rfo_access 0
Core_0_ITLB_rfo_hit 0
Core_0_ITLB_rfo_miss 0
Core_0_ITLB_rfo_MPKI 0
Core_0_ITLB_rfo_miss_rate 0
Core_0_ITLB_prefetch_access 0
Core_0_ITLB_prefetch_hit 0
Core_0_ITLB_prefetch_miss 0
Core_0_ITLB_prefetch_MPKI 0
Core_0_ITLB_prefetch_miss_rate 0
Core_0_ITLB_writeback_access 0
Core_0_ITLB_writeback_hit 0
Core_0_ITLB_writeback_miss 0
Core_0_ITLB_writeback_MPKI 0
Core_0_ITLB_writeback_miss_rate 0
Core_0_ITLB_prefetch_requested 0
Core_0_ITLB_prefetch_issued 0
Core_0_ITLB_prefetch_useful 0
Core_0_ITLB_prefetch_useless 0
Core_0_ITLB_prefetch_late 0
Core_0_ITLB_prefetch_accuracy 0
Core_0_ITLB_prefetch_coverage 0

Core_0_DTLB_total_access 25151313
Core_0_DTLB_total_hit 23907566
Core_0_DTLB_total_miss 1243747
Core_0_DTLB_total_MPKI 24.8749
Core_0_DTLB_total_miss_rate 0.0494506
Core_0_DTLB_demand_access 25151313
Core_0_DTLB_demand_hit 23907566
Core_0_DTLB_demand_miss 1243747
Core_0_DTLB_demand_MPKI 24.8749
Core_0_DTLB_demand_miss_rate 0.0494506
Core_0_DTLB_load_access 25151313
Core_0_DTLB_load_hit 23907566
Core_0_DTLB_load_miss 1243747
Core_0_DTLB_load_MPKI 24.8749
Core_0_DTLB_load_miss_rate 0.0494506
Core_0_DTLB_rfo_access 0
Core_0_DTLB_rfo_hit 0
Core_0_DTLB_rfo_miss 0
Core_0_DTLB_rfo_MPKI 0
Core_0_DTLB_rfo_miss_rate 0
Core_0_DTLB_prefetch_access 0
Core_0_DTLB_prefetch_hit 0
Core_0_DTLB_prefetch_miss 0
Core_0_DTLB_prefetch_MPKI 0
Core_0_DTLB_prefetch_miss_rate 0
Core_0_DTLB_writeback_access 0
Core_0_DTLB_writeback_hit 0
Core_0_DTLB_writeback_miss 0
Core_0_DTLB_writeback_MPKI 0
Core_0_DTLB_writeback_miss_rate 0
Core_0_DTLB_prefetch_requested 0
Core_0_DTLB_prefetch_issued 0
Core_0_DTLB_prefetch_useful 0
Core_0_DTLB_prefetch_useless 0
Core_0_DTLB_prefetch_late 0
Core_0_DTLB_prefetch_accuracy 0
Core_0_DTLB_prefetch_coverage 0

Core_0_STLB_total_access 1007848
Core_0_STLB_total_hit 611270
Core_0_STLB_total_miss 396578
Core_0_STLB_total_MPKI 7.93156
Core_0_STLB_total_miss_rate 0.39349
Core_0_STLB_demand_access 1007848
Core_0_STLB_demand_hit 611270
Core_0_STLB_demand_miss 396578
Core_0_STLB_demand_MPKI 7.93156
Core_0_STLB_demand_miss_rate 0.39349
Core_0_STLB_load_access 1007848
Core_0_STLB_load_hit 611270
Core_0_STLB_load_miss 396578
Core_0_STLB_load_MPKI 7.93156
Core_0_STLB_load_miss_rate 0.39349
Core_0_STLB_rfo_access 0
Core_0_STLB_rfo_hit 0
Core_0_STLB_rfo_miss 0
Core_0_STLB_rfo_MPKI 0
Core_0_STLB_rfo_miss_rate 0
Core_0_STLB_prefetch_access 0
Core_0_STLB_prefetch_hit 0
Core_0_STLB_prefetch_miss 0
Core_0_STLB_prefetch_MPKI 0
Core_0_STLB_prefetch_miss_rate 0
Core_0_STLB_writeback_access 0
Core_0_STLB_writeback_hit 0
Core_0_STLB_writeback_miss 0
Core_0_STLB_writeback_MPKI 0
Core_0_STLB_writeback_miss_rate 0
Core_0_STLB_prefetch_requested 0
Core_0_STLB_prefetch_issued 0
Core_0_STLB_prefetch_useful 0
Core_0_STLB_prefetch_useless 0
Core_0_STLB_prefetch_late 0
Core_0_STLB_prefetch_accuracy 0
Core_0_STLB_prefetch_coverage 0

Core_0_L1I_total_access 2455179
Core_0_L1I_total_hit 2455179
Core_0_L1I_total_miss 0
Core_0_L1I_total_MPKI 0
Core_0_L1I_total_miss_rate 0
Core_0_L1I_demand_access 2455179
Core_0_L1I_demand_hit 2455179
Core_0_L1I_demand_miss 0
Core_0_L1I_demand_MPKI 0
Core_0_L1I_demand_miss_rate 0
Core_0_L1I_load_access 2455179
Core_0_L1I_load_hit 2455179
Core_0_L1I_load_miss 0
Core_0_L1I_load_MPKI 0
Core_0_L1I_load_miss_rate 0
Core_0_L1I_rfo_access 0
Core_0_L1I_rfo_hit 0
Core_0_L1I_rfo_miss 0
Core_0_L1I_rfo_MPKI 0
Core_0_L1I_rfo_miss_rate 0
Core_0_L1I_prefetch_access 0
Core_0_L1I_prefetch_hit 0
Core_0_L1I_prefetch_miss 0
Core_0_L1I_prefetch_MPKI 0
Core_0_L1I_prefetch_miss_rate 0
Core_0_L1I_writeback_access 0
Core_0_L1I_writeback_hit 0
Core_0_L1I_writeback_miss 0
Core_0_L1I_writeback_MPKI 0
Core_0_L1I_writeback_miss_rate 0
Core_0_L1I_prefetch_requested 0
Core_0_L1I_prefetch_issued 0
Core_0_L1I_prefetch_useful 0
Core_0_L1I_prefetch_useless 0
Core_0_L1I_prefetch_late 0
Core_0_L1I_prefetch_accuracy 0
Core_0_L1I_prefetch_coverage 0

Core_0_L1D_total_access 25609950
Core_0_L1D_total_hit 19834465
Core_0_L1D_total_miss 5775485
Core_0_L1D_total_MPKI 115.51
Core_0_L1D_total_miss_rate 0.225517
Core_0_L1D_demand_access 18770554
Core_0_L1D_demand_hit 15798426
Core_0_L1D_demand_miss 2972128
Core_0_L1D_demand_MPKI 59.4426
Core_0_L1D_demand_miss_rate 0.15834
Core_0_L1D_load_access 18770554
Core_0_L1D_load_hit 15798426
Core_0_L1D_load_miss 2972128
Core_0_L1D_load_MPKI 59.4426
Core_0_L1D_load_miss_rate 0.15834
Core_0_L1D_rfo_access 0
Core_0_L1D_rfo_hit 0
Core_0_L1D_rfo_miss 0
Core_0_L1D_rfo_MPKI 0
Core_0_L1D_rfo_miss_rate 0
Core_0_L1D_prefetch_access 1774596
Core_0_L1D_prefetch_hit 200041
Core_0_L1D_prefetch_miss 1574555
Core_0_L1D_prefetch_MPKI 31.4911
Core_0_L1D_prefetch_miss_rate 0.887275
Core_0_L1D_writeback_access 5064800
Core_0_L1D_writeback_hit 3835998
Core_0_L1D_writeback_miss 1228802
Core_0_L1D_writeback_MPKI 24.576
Core_0_L1D_writeback_miss_rate 0.242616
Core_0_L1D_prefetch_requested 1774596
Core_0_L1D_prefetch_issued 1774594
Core_0_L1D_prefetch_useful 231843
Core_0_L1D_prefetch_useless 1335273
Core_0_L1D_prefetch_late 4328
Core_0_L1D_prefetch_accuracy 0.130646
Core_0_L1D_prefetch_coverage 0.0723611

Core_0_L2C_total_access 5491093
Core_0_L2C_total_hit 1781300
Core_0_L2C_total_miss 3709793
Core_0_L2C_total_MPKI 74.1959
Core_0_L2C_total_miss_rate 0.675602
Core_0_L2C_demand_access 2581764
Core_0_L2C_demand_hit 320274
Core_0_L2C_demand_miss 2261490
Core_0_L2C_demand_MPKI 45.2298
Core_0_L2C_demand_miss_rate 0.875948
Core_0_L2C_load_access 2504656
Core_0_L2C_load_hit 293359
Core_0_L2C_load_miss 2211297
Core_0_L2C_load_MPKI 44.2259
Core_0_L2C_load_miss_rate 0.882875
Core_0_L2C_rfo_access 77108
Core_0_L2C_rfo_hit 26915
Core_0_L2C_rfo_miss 50193
Core_0_L2C_rfo_MPKI 1.00386
Core_0_L2C_rfo_miss_rate 0.650944
Core_0_L2C_prefetch_access 1706470
Core_0_L2C_prefetch_hit 258702
Core_0_L2C_prefetch_miss 1447768
Core_0_L2C_prefetch_MPKI 28.9554
Core_0_L2C_prefetch_miss_rate 0.848399
Core_0_L2C_writeback_access 1202859
Core_0_L2C_writeback_hit 1202324
Core_0_L2C_writeback_miss 535
Core_0_L2C_writeback_MPKI 0.0107
Core_0_L2C_writeback_miss_rate 0.000444774
Core_0_L2C_prefetch_requested 139232
Core_0_L2C_prefetch_issued 139232
Core_0_L2C_prefetch_useful 15916
Core_0_L2C_prefetch_useless 11162
Core_0_L2C_prefetch_late 39
Core_0_L2C_prefetch_accuracy 0.114313
Core_0_L2C_prefetch_coverage 0.00698865

Core_0_LLC_total_access 4772874
Core_0_LLC_total_hit 3518243
Core_0_LLC_total_miss 1254631
Core_0_LLC_total_MPKI 25.0926
Core_0_LLC_total_miss_rate 0.262867
Core_0_LLC_demand_access 2261450
Core_0_LLC_demand_hit 1700414
Core_0_LLC_demand_miss 561036
Core_0_LLC_demand_MPKI 11.2207
Core_0_LLC_demand_miss_rate 0.248087
Core_0_LLC_load_access 2211257
Core_0_LLC_load_hit 1688011
Core_0_LLC_load_miss 523246
Core_0_LLC_load_MPKI 10.4649
Core_0_LLC_load_miss_rate 0.236628
Core_0_LLC_rfo_access 50193
Core_0_LLC_rfo_hit 12403
Core_0_LLC_rfo_miss 37790
Core_0_LLC_rfo_MPKI 0.7558
Core_0_LLC_rfo_miss_rate 0.752894
Core_0_LLC_prefetch_access 1446551
Core_0_LLC_prefetch_hit 772705
Core_0_LLC_prefetch_miss 673846
Core_0_LLC_prefetch_MPKI 13.4769
Core_0_LLC_prefetch_miss_rate 0.465829
Core_0_LLC_writeback_access 1064873
Core_0_LLC_writeback_hit 1045124
Core_0_LLC_writeback_miss 19749
Core_0_LLC_writeback_MPKI 0.39498
Core_0_LLC_writeback_miss_rate 0.0185459
Core_0_LLC_prefetch_requested 0
Core_0_LLC_prefetch_issued 0
Core_0_LLC_prefetch_useful 0
Core_0_LLC_prefetch_useless 0
Core_0_LLC_prefetch_late 0
Core_0_LLC_prefetch_accuracy 0
Core_0_LLC_prefetch_coverage 0

[DRAM Statistics]
Channel_0_RQ_row_buffer_hit 4526
Channel_0_RQ_row_buffer_miss 1236514
Channel_0_WQ_row_buffer_hit 77970
Channel_0_WQ_row_buffer_miss 159235
Channel_0_WQ_full 0
Channel_0_dbus_congested 3526145
DRAM_total_RQ_row_buffer_hit 4526
DRAM_total_RQ_row_buffer_miss 1236514
DRAM_total_WQ_row_buffer_hit 77970
DRAM_total_WQ_row_buffer_miss 159235
DRAM_total_WQ_full 0
DRAM_total_dbus_congested 3526145
DRAM_avg_congested_cycle 19.0199

====== DRAM_RQ_TRAFFIC ========
DRAM_RQ_READ_TRAFFIC_BREAKDOWN:
data_demand_read.count = 561036
data_demand_read.share = 45.19%

inst_demand_read.count = 0
inst_demand_read.share = 0.00%

cache_inst_prefetch.count = 0
cache_inst_prefetch.share = 0.00%

cache_data_prefetch.count = 673846
cache_data_prefetch.share = 54.28%

stlb_data_demand.count = 5461
stlb_data_demand.share = 0.44%

stlb_inst_demand.count = 0
stlb_inst_demand.share = 0.00%

stlb_l1i_pref.count = 0
stlb_l1i_pref.share = 0.00%

stlb_l1d_pref.count = 1081
stlb_l1d_pref.share = 0.09%

DRAM_RQ_READ_TRAFFIC_SUMMARY:
cache_demand.count = 561036
cache_demand.share = 45.19%

cache_prefetch.count = 673846
cache_prefetch.share = 54.28%

stlb_demand.count = 5461
stlb_demand.share = 0.44%

stlb_prefetch.count = 1081
stlb_prefetch.share = 0.09%

DRAM_RQ_READ_TRAFFIC_DEBUG:
total_classified_read.count = 1241424
unclassified_read.count = 0
total_read_with_other.count = 1241424

classified_plus_unclassified_check.count = 1241424
dram_rq_read_total_observed.count = 1241424
dram_rq_read_total_observed.per_1K_instructions = 24.8285

STLB_MISS_PTW_DRAM_TOUCH_BREAKDOWN:
stlb_miss_total.count = 396578

stlb_miss_touch_dram.count = 6505
stlb_miss_touch_dram.share = 1.64%

stlb_miss_no_dram_touch.count = 390073
stlb_miss_no_dram_touch.share = 98.36%

STLB_MISS_PTW_DRAM_TOUCH_DEBUG:
stlb_miss_touch_plus_no_touch.count = 396578
stlb_miss_total_check.count = 396578

======STLB miss causes ========
Core_0_STLB_miss_cause_breakdown
Core_0_STLB_cause_Demand_Data_miss 352701
Core_0_STLB_cause_Demand_Data_miss_rate 0.349955
Core_0_STLB_cause_Demand_Instruction_miss 0
Core_0_STLB_cause_Demand_Instruction_miss_rate 0
Core_0_STLB_cause_L1D_Prefetch_miss 43877
Core_0_STLB_cause_L1D_Prefetch_miss_rate 0.0435353
Core_0_STLB_cause_L1I_Prefetch_miss 0
Core_0_STLB_cause_L1I_Prefetch_miss_rate 0
Core_0_STLB_cause_Other_miss 0
Core_0_STLB_cause_Other_miss_rate 0
Core_0_STLB_Demand_miss 352701
Core_0_STLB_Demand_miss_rate 0.349955
Core_0_STLB_L1D_Prefetch_miss 43877
Core_0_STLB_L1D_Prefetch_miss_rate 0.0435353
Core_0_STLB_Other_miss 0
Core_0_STLB_Other_miss_rate 0
