[VMEM] WARNING: physical memory size is smaller than virtual memory size.

*** ChampSim Multicore Out-of-Order Simulator ***
Warmup Instructions: 20000000
Simulation Instructions: 50000000
Number of CPUs: 1
Page size: 4096
Core 0: /data2/zcq/champsim_traces_gap/bfs.kron-542B.champsimtrace.xz
 L1D Berti prefetcher
Off-chip DRAM Size: 16 GiB Channels: 1 Width: 64-bit Data Rate: 3205 MT/s
Warmup halting CPU 0 at instruction 20000002 cycle 5919925 for remainder of phase
Warmup finished CPU 0 instructions: 20000002 cycles: 5919925 cumulative IPC: 3.378 (Simulation time: 00 hr 01 min 26 sec)
Warmup complete CPU 0 instructions: 20000002 cycles: 5919925 cumulative IPC: 3.378 (Simulation time: 00 hr 01 min 26 sec)
Simulation finished CPU 0 instructions: 50000002 cycles: 278123437 cumulative IPC: 0.1798 (Simulation time: 00 hr 19 min 14 sec)
Simulation complete CPU 0 instructions: 50000002 cycles: 278123437 cumulative IPC: 0.1798 (Simulation time: 00 hr 19 min 14 sec)

ChampSim completed all CPUs

=== Simulation ===
CPU 0 runs /data2/zcq/champsim_traces_gap/bfs.kron-542B.champsimtrace.xz

Region of Interest Statistics

CPU 0 cumulative IPC: 0.1798 instructions: 50000002 cycles: 278123437
CPU 0 Branch Prediction Accuracy: 85.41% MPKI: 28.77 Average ROB Occupancy at Mispredict: 17.03
Branch type MPKI
BRANCH_DIRECT_JUMP: 0
BRANCH_INDIRECT: 0
BRANCH_CONDITIONAL: 28.77
BRANCH_DIRECT_CALL: 0
BRANCH_INDIRECT_CALL: 0
BRANCH_RETURN: 0

cpu0->cpu0_STLB TOTAL        ACCESS:    2793582 HIT:    1453295 MISS:    1340287 MSHR_MERGE:          0
cpu0->cpu0_STLB LOAD         ACCESS:    2793582 HIT:    1453295 MISS:    1340287 MSHR_MERGE:          0
cpu0->cpu0_STLB RFO          ACCESS:          0 HIT:          0 MISS:          0 MSHR_MERGE:          0
cpu0->cpu0_STLB PREFETCH     ACCESS:          0 HIT:          0 MISS:          0 MSHR_MERGE:          0
cpu0->cpu0_STLB WRITE        ACCESS:          0 HIT:          0 MISS:          0 MSHR_MERGE:          0
cpu0->cpu0_STLB TRANSLATION  ACCESS:          0 HIT:          0 MISS:          0 MSHR_MERGE:          0
cpu0->cpu0_STLB PREFETCH REQUESTED:          0 ISSUED:          0 USEFUL:          0 USELESS:          0 LATE:          0
cpu0->cpu0_STLB AVERAGE MISS LATENCY: 26.31 cycles
cpu0->cpu0_L2C TOTAL        ACCESS:    4934712 HIT:    1382489 MISS:    3552223 MSHR_MERGE:      10860
cpu0->cpu0_L2C LOAD         ACCESS:    3046058 HIT:     273501 MISS:    2772557 MSHR_MERGE:        315
cpu0->cpu0_L2C RFO          ACCESS:       1492 HIT:       1481 MISS:         11 MSHR_MERGE:          0
cpu0->cpu0_L2C PREFETCH     ACCESS:     889621 HIT:     134305 MISS:     755316 MSHR_MERGE:      10545
cpu0->cpu0_L2C WRITE        ACCESS:      99141 HIT:      99138 MISS:          3 MSHR_MERGE:          0
cpu0->cpu0_L2C TRANSLATION  ACCESS:     898400 HIT:     874064 MISS:      24336 MSHR_MERGE:          0
cpu0->cpu0_L2C PREFETCH REQUESTED:     218803 ISSUED:     218803 USEFUL:      97348 USELESS:      37854 LATE:        315
cpu0->cpu0_L2C AVERAGE MISS LATENCY: 172.3 cycles
cpu0->cpu0_L1I TOTAL        ACCESS:        968 HIT:        968 MISS:          0 MSHR_MERGE:          0
cpu0->cpu0_L1I LOAD         ACCESS:        968 HIT:        968 MISS:          0 MSHR_MERGE:          0
cpu0->cpu0_L1I RFO          ACCESS:          0 HIT:          0 MISS:          0 MSHR_MERGE:          0
cpu0->cpu0_L1I PREFETCH     ACCESS:          0 HIT:          0 MISS:          0 MSHR_MERGE:          0
cpu0->cpu0_L1I WRITE        ACCESS:          0 HIT:          0 MISS:          0 MSHR_MERGE:          0
cpu0->cpu0_L1I TRANSLATION  ACCESS:          0 HIT:          0 MISS:          0 MSHR_MERGE:          0
cpu0->cpu0_L1I PREFETCH REQUESTED:          0 ISSUED:          0 USEFUL:          0 USELESS:          0 LATE:          0
cpu0->cpu0_L1I AVERAGE MISS LATENCY: - cycles
cpu0->cpu0_L1D TOTAL        ACCESS:   16550398 HIT:   11354132 MISS:    5196266 MSHR_MERGE:     579497
cpu0->cpu0_L1D LOAD         ACCESS:   11878244 HIT:    8265788 MISS:    3612456 MSHR_MERGE:     566398
cpu0->cpu0_L1D RFO          ACCESS:          0 HIT:          0 MISS:          0 MSHR_MERGE:          0
cpu0->cpu0_L1D PREFETCH     ACCESS:     851262 HIT:     172471 MISS:     678791 MSHR_MERGE:       7973
cpu0->cpu0_L1D WRITE        ACCESS:    1149857 HIT:    1148365 MISS:       1492 MSHR_MERGE:          0
cpu0->cpu0_L1D TRANSLATION  ACCESS:    2671035 HIT:    1767508 MISS:     903527 MSHR_MERGE:       5126
cpu0->cpu0_L1D PREFETCH REQUESTED:     851264 ISSUED:     851263 USEFUL:     429022 USELESS:     241816 LATE:      24674
cpu0->cpu0_L1D AVERAGE MISS LATENCY: 131.2 cycles
cpu0->cpu0_ITLB TOTAL        ACCESS:        967 HIT:        967 MISS:          0 MSHR_MERGE:          0
cpu0->cpu0_ITLB LOAD         ACCESS:        967 HIT:        967 MISS:          0 MSHR_MERGE:          0
cpu0->cpu0_ITLB RFO          ACCESS:          0 HIT:          0 MISS:          0 MSHR_MERGE:          0
cpu0->cpu0_ITLB PREFETCH     ACCESS:          0 HIT:          0 MISS:          0 MSHR_MERGE:          0
cpu0->cpu0_ITLB WRITE        ACCESS:          0 HIT:          0 MISS:          0 MSHR_MERGE:          0
cpu0->cpu0_ITLB TRANSLATION  ACCESS:          0 HIT:          0 MISS:          0 MSHR_MERGE:          0
cpu0->cpu0_ITLB PREFETCH REQUESTED:          0 ISSUED:          0 USEFUL:          0 USELESS:          0 LATE:          0
cpu0->cpu0_ITLB AVERAGE MISS LATENCY: - cycles
cpu0->cpu0_DTLB TOTAL        ACCESS:   13501974 HIT:   10609292 MISS:    2892682 MSHR_MERGE:      99098
cpu0->cpu0_DTLB LOAD         ACCESS:   13501974 HIT:   10609292 MISS:    2892682 MSHR_MERGE:      99098
cpu0->cpu0_DTLB RFO          ACCESS:          0 HIT:          0 MISS:          0 MSHR_MERGE:          0
cpu0->cpu0_DTLB PREFETCH     ACCESS:          0 HIT:          0 MISS:          0 MSHR_MERGE:          0
cpu0->cpu0_DTLB WRITE        ACCESS:          0 HIT:          0 MISS:          0 MSHR_MERGE:          0
cpu0->cpu0_DTLB TRANSLATION  ACCESS:          0 HIT:          0 MISS:          0 MSHR_MERGE:          0
cpu0->cpu0_DTLB PREFETCH REQUESTED:          0 ISSUED:          0 USEFUL:          0 USELESS:          0 LATE:          0
cpu0->cpu0_DTLB AVERAGE MISS LATENCY: 18.16 cycles
cpu0->LLC TOTAL        ACCESS:    3639013 HIT:     831459 MISS:    2807554 MSHR_MERGE:          5
cpu0->LLC LOAD         ACCESS:    2772242 HIT:     778334 MISS:    1993908 MSHR_MERGE:          1
cpu0->LLC RFO          ACCESS:         11 HIT:         11 MISS:          0 MSHR_MERGE:          0
cpu0->LLC PREFETCH     ACCESS:     744770 HIT:      24587 MISS:     720183 MSHR_MERGE:          4
cpu0->LLC WRITE        ACCESS:      97654 HIT:      17160 MISS:      80494 MSHR_MERGE:          0
cpu0->LLC TRANSLATION  ACCESS:      24336 HIT:      11367 MISS:      12969 MSHR_MERGE:          0
cpu0->LLC PREFETCH REQUESTED:          0 ISSUED:          0 USEFUL:          0 USELESS:          0 LATE:          0
cpu0->LLC AVERAGE MISS LATENCY: 210.1 cycles

DRAM Statistics

Channel 0 RQ ROW_BUFFER_HIT:       6995
  ROW_BUFFER_MISS:    2720061
  AVG DBUS CONGESTED CYCLE: 11.89
Channel 0 WQ ROW_BUFFER_HIT:      25018
  ROW_BUFFER_MISS:      74316
  FULL:          0
Channel 0 REFRESHES ISSUED:      23177

[ROI Statistics]
[System Configuration]
num_cpus 1
cpu_freq 4000
fetch_width 6
decode_width 6
dispatch_width 6
execute_width 6
lq_width 2
sq_width 2
retire_width 6
scheduler_size 128
branch_mispredict_penalty 15
rob_size 352
lq_size 128
sq_size 72
ifetch_buffer_size 64
decode_buffer_size 32
dispatch_buffer_size 32
register_file_size 288
decode_latency 1
dispatch_latency 1
schedule_latency 1
execute_latency 1
page_size 4096
block_size 64
core_0_itlb_set 16
core_0_itlb_way 4
core_0_itlb_rq_size 16
core_0_itlb_wq_size 16
core_0_itlb_pq_size 0
core_0_itlb_mshr_size 8
core_0_itlb_hit_latency 1
core_0_itlb_fill_latency 1
core_0_itlb_max_tag_check 2
core_0_itlb_max_fill 2
core_0_dtlb_set 16
core_0_dtlb_way 4
core_0_dtlb_rq_size 16
core_0_dtlb_wq_size 16
core_0_dtlb_pq_size 0
core_0_dtlb_mshr_size 8
core_0_dtlb_hit_latency 1
core_0_dtlb_fill_latency 1
core_0_dtlb_max_tag_check 2
core_0_dtlb_max_fill 2
core_0_stlb_set 128
core_0_stlb_way 12
core_0_stlb_rq_size 32
core_0_stlb_wq_size 32
core_0_stlb_pq_size 0
core_0_stlb_mshr_size 16
core_0_stlb_hit_latency 4
core_0_stlb_fill_latency 4
core_0_stlb_max_tag_check 1
core_0_stlb_max_fill 1
core_0_l1i_set 64
core_0_l1i_way 8
core_0_l1i_rq_size 64
core_0_l1i_wq_size 64
core_0_l1i_pq_size 32
core_0_l1i_mshr_size 8
core_0_l1i_hit_latency 2
core_0_l1i_fill_latency 2
core_0_l1i_max_tag_check 2
core_0_l1i_max_fill 2
core_0_l1d_set 64
core_0_l1d_way 12
core_0_l1d_rq_size 64
core_0_l1d_wq_size 64
core_0_l1d_pq_size 8
core_0_l1d_mshr_size 16
core_0_l1d_hit_latency 2
core_0_l1d_fill_latency 3
core_0_l1d_max_tag_check 2
core_0_l1d_max_fill 2
core_0_l2c_set 1024
core_0_l2c_way 8
core_0_l2c_rq_size 32
core_0_l2c_wq_size 32
core_0_l2c_pq_size 16
core_0_l2c_mshr_size 32
core_0_l2c_hit_latency 5
core_0_l2c_fill_latency 5
core_0_l2c_max_tag_check 1
core_0_l2c_max_fill 1
llc_set 2048
llc_way 16
llc_rq_size 32
llc_wq_size 32
llc_pq_size 32
llc_mshr_size 64
llc_hit_latency 10
llc_fill_latency 10
llc_max_tag_check 1
llc_max_fill 1
dram_channels 1
dram_ranks 1
dram_bankgroups 8
dram_banks 4
dram_rows 65536
dram_columns 1024
dram_channel_width 8
dram_rq_size 64
dram_wq_size 64
dram_size 17179869184
core_0_itlb_prefetcher no
core_0_dtlb_prefetcher no
core_0_stlb_prefetcher no
core_0_l1i_prefetcher next_line
core_0_l1d_prefetcher berti
core_0_l2c_prefetcher ip_stride
llc_prefetcher no
llc_replacement drrip

Core_0_instructions 50000002
Core_0_cycles 278123437
Core_0_IPC 0.179776
Core_0_branch_prediction_accuracy 85.4147
Core_0_branch_MPKI 28.7684
Core_0_average_ROB_occupancy_at_mispredict 17.0348

Core_0_ITLB_total_access 967
Core_0_ITLB_total_hit 967
Core_0_ITLB_total_miss 0
Core_0_ITLB_total_MPKI 0
Core_0_ITLB_total_miss_rate 0
Core_0_ITLB_demand_access 967
Core_0_ITLB_demand_hit 967
Core_0_ITLB_demand_miss 0
Core_0_ITLB_demand_MPKI 0
Core_0_ITLB_demand_miss_rate 0
Core_0_ITLB_load_access 967
Core_0_ITLB_load_hit 967
Core_0_ITLB_load_miss 0
Core_0_ITLB_load_MPKI 0
Core_0_ITLB_load_miss_rate 0
Core_0_ITLB_rfo_access 0
Core_0_ITLB_rfo_hit 0
Core_0_ITLB_rfo_miss 0
Core_0_ITLB_rfo_MPKI 0
Core_0_ITLB_rfo_miss_rate 0
Core_0_ITLB_prefetch_access 0
Core_0_ITLB_prefetch_hit 0
Core_0_ITLB_prefetch_miss 0
Core_0_ITLB_prefetch_MPKI 0
Core_0_ITLB_prefetch_miss_rate 0
Core_0_ITLB_writeback_access 0
Core_0_ITLB_writeback_hit 0
Core_0_ITLB_writeback_miss 0
Core_0_ITLB_writeback_MPKI 0
Core_0_ITLB_writeback_miss_rate 0
Core_0_ITLB_prefetch_requested 0
Core_0_ITLB_prefetch_issued 0
Core_0_ITLB_prefetch_useful 0
Core_0_ITLB_prefetch_useless 0
Core_0_ITLB_prefetch_late 0
Core_0_ITLB_prefetch_accuracy 0
Core_0_ITLB_prefetch_coverage 0

Core_0_DTLB_total_access 13501974
Core_0_DTLB_total_hit 10609292
Core_0_DTLB_total_miss 2892682
Core_0_DTLB_total_MPKI 57.8536
Core_0_DTLB_total_miss_rate 0.214241
Core_0_DTLB_demand_access 13501974
Core_0_DTLB_demand_hit 10609292
Core_0_DTLB_demand_miss 2892682
Core_0_DTLB_demand_MPKI 57.8536
Core_0_DTLB_demand_miss_rate 0.214241
Core_0_DTLB_load_access 13501974
Core_0_DTLB_load_hit 10609292
Core_0_DTLB_load_miss 2892682
Core_0_DTLB_load_MPKI 57.8536
Core_0_DTLB_load_miss_rate 0.214241
Core_0_DTLB_rfo_access 0
Core_0_DTLB_rfo_hit 0
Core_0_DTLB_rfo_miss 0
Core_0_DTLB_rfo_MPKI 0
Core_0_DTLB_rfo_miss_rate 0
Core_0_DTLB_prefetch_access 0
Core_0_DTLB_prefetch_hit 0
Core_0_DTLB_prefetch_miss 0
Core_0_DTLB_prefetch_MPKI 0
Core_0_DTLB_prefetch_miss_rate 0
Core_0_DTLB_writeback_access 0
Core_0_DTLB_writeback_hit 0
Core_0_DTLB_writeback_miss 0
Core_0_DTLB_writeback_MPKI 0
Core_0_DTLB_writeback_miss_rate 0
Core_0_DTLB_prefetch_requested 0
Core_0_DTLB_prefetch_issued 0
Core_0_DTLB_prefetch_useful 0
Core_0_DTLB_prefetch_useless 0
Core_0_DTLB_prefetch_late 0
Core_0_DTLB_prefetch_accuracy 0
Core_0_DTLB_prefetch_coverage 0

Core_0_STLB_total_access 2793582
Core_0_STLB_total_hit 1453295
Core_0_STLB_total_miss 1340287
Core_0_STLB_total_MPKI 26.8057
Core_0_STLB_total_miss_rate 0.479774
Core_0_STLB_demand_access 2793582
Core_0_STLB_demand_hit 1453295
Core_0_STLB_demand_miss 1340287
Core_0_STLB_demand_MPKI 26.8057
Core_0_STLB_demand_miss_rate 0.479774
Core_0_STLB_load_access 2793582
Core_0_STLB_load_hit 1453295
Core_0_STLB_load_miss 1340287
Core_0_STLB_load_MPKI 26.8057
Core_0_STLB_load_miss_rate 0.479774
Core_0_STLB_rfo_access 0
Core_0_STLB_rfo_hit 0
Core_0_STLB_rfo_miss 0
Core_0_STLB_rfo_MPKI 0
Core_0_STLB_rfo_miss_rate 0
Core_0_STLB_prefetch_access 0
Core_0_STLB_prefetch_hit 0
Core_0_STLB_prefetch_miss 0
Core_0_STLB_prefetch_MPKI 0
Core_0_STLB_prefetch_miss_rate 0
Core_0_STLB_writeback_access 0
Core_0_STLB_writeback_hit 0
Core_0_STLB_writeback_miss 0
Core_0_STLB_writeback_MPKI 0
Core_0_STLB_writeback_miss_rate 0
Core_0_STLB_prefetch_requested 0
Core_0_STLB_prefetch_issued 0
Core_0_STLB_prefetch_useful 0
Core_0_STLB_prefetch_useless 0
Core_0_STLB_prefetch_late 0
Core_0_STLB_prefetch_accuracy 0
Core_0_STLB_prefetch_coverage 0

Core_0_L1I_total_access 968
Core_0_L1I_total_hit 968
Core_0_L1I_total_miss 0
Core_0_L1I_total_MPKI 0
Core_0_L1I_total_miss_rate 0
Core_0_L1I_demand_access 968
Core_0_L1I_demand_hit 968
Core_0_L1I_demand_miss 0
Core_0_L1I_demand_MPKI 0
Core_0_L1I_demand_miss_rate 0
Core_0_L1I_load_access 968
Core_0_L1I_load_hit 968
Core_0_L1I_load_miss 0
Core_0_L1I_load_MPKI 0
Core_0_L1I_load_miss_rate 0
Core_0_L1I_rfo_access 0
Core_0_L1I_rfo_hit 0
Core_0_L1I_rfo_miss 0
Core_0_L1I_rfo_MPKI 0
Core_0_L1I_rfo_miss_rate 0
Core_0_L1I_prefetch_access 0
Core_0_L1I_prefetch_hit 0
Core_0_L1I_prefetch_miss 0
Core_0_L1I_prefetch_MPKI 0
Core_0_L1I_prefetch_miss_rate 0
Core_0_L1I_writeback_access 0
Core_0_L1I_writeback_hit 0
Core_0_L1I_writeback_miss 0
Core_0_L1I_writeback_MPKI 0
Core_0_L1I_writeback_miss_rate 0
Core_0_L1I_prefetch_requested 0
Core_0_L1I_prefetch_issued 0
Core_0_L1I_prefetch_useful 0
Core_0_L1I_prefetch_useless 0
Core_0_L1I_prefetch_late 0
Core_0_L1I_prefetch_accuracy 0
Core_0_L1I_prefetch_coverage 0

Core_0_L1D_total_access 13879363
Core_0_L1D_total_hit 9586624
Core_0_L1D_total_miss 4292739
Core_0_L1D_total_MPKI 85.8548
Core_0_L1D_total_miss_rate 0.309289
Core_0_L1D_demand_access 11878244
Core_0_L1D_demand_hit 8265788
Core_0_L1D_demand_miss 3612456
Core_0_L1D_demand_MPKI 72.2491
Core_0_L1D_demand_miss_rate 0.304124
Core_0_L1D_load_access 11878244
Core_0_L1D_load_hit 8265788
Core_0_L1D_load_miss 3612456
Core_0_L1D_load_MPKI 72.2491
Core_0_L1D_load_miss_rate 0.304124
Core_0_L1D_rfo_access 0
Core_0_L1D_rfo_hit 0
Core_0_L1D_rfo_miss 0
Core_0_L1D_rfo_MPKI 0
Core_0_L1D_rfo_miss_rate 0
Core_0_L1D_prefetch_access 851262
Core_0_L1D_prefetch_hit 172471
Core_0_L1D_prefetch_miss 678791
Core_0_L1D_prefetch_MPKI 13.5758
Core_0_L1D_prefetch_miss_rate 0.797394
Core_0_L1D_writeback_access 1149857
Core_0_L1D_writeback_hit 1148365
Core_0_L1D_writeback_miss 1492
Core_0_L1D_writeback_MPKI 0.02984
Core_0_L1D_writeback_miss_rate 0.00129755
Core_0_L1D_prefetch_requested 851264
Core_0_L1D_prefetch_issued 851263
Core_0_L1D_prefetch_useful 429022
Core_0_L1D_prefetch_useless 241816
Core_0_L1D_prefetch_late 24674
Core_0_L1D_prefetch_accuracy 0.503983
Core_0_L1D_prefetch_coverage 0.106155

Core_0_L2C_total_access 4036312
Core_0_L2C_total_hit 508425
Core_0_L2C_total_miss 3527887
Core_0_L2C_total_MPKI 70.5577
Core_0_L2C_total_miss_rate 0.874037
Core_0_L2C_demand_access 3047550
Core_0_L2C_demand_hit 274982
Core_0_L2C_demand_miss 2772568
Core_0_L2C_demand_MPKI 55.4514
Core_0_L2C_demand_miss_rate 0.909769
Core_0_L2C_load_access 3046058
Core_0_L2C_load_hit 273501
Core_0_L2C_load_miss 2772557
Core_0_L2C_load_MPKI 55.4511
Core_0_L2C_load_miss_rate 0.910211
Core_0_L2C_rfo_access 1492
Core_0_L2C_rfo_hit 1481
Core_0_L2C_rfo_miss 11
Core_0_L2C_rfo_MPKI 0.00022
Core_0_L2C_rfo_miss_rate 0.00737265
Core_0_L2C_prefetch_access 889621
Core_0_L2C_prefetch_hit 134305
Core_0_L2C_prefetch_miss 755316
Core_0_L2C_prefetch_MPKI 15.1063
Core_0_L2C_prefetch_miss_rate 0.849031
Core_0_L2C_writeback_access 99141
Core_0_L2C_writeback_hit 99138
Core_0_L2C_writeback_miss 3
Core_0_L2C_writeback_MPKI 6e-05
Core_0_L2C_writeback_miss_rate 3.02599e-05
Core_0_L2C_prefetch_requested 218803
Core_0_L2C_prefetch_issued 218803
Core_0_L2C_prefetch_useful 97348
Core_0_L2C_prefetch_useless 37854
Core_0_L2C_prefetch_late 315
Core_0_L2C_prefetch_accuracy 0.444912
Core_0_L2C_prefetch_coverage 0.0339202

Core_0_LLC_total_access 3614677
Core_0_LLC_total_hit 820092
Core_0_LLC_total_miss 2794585
Core_0_LLC_total_MPKI 55.8917
Core_0_LLC_total_miss_rate 0.773122
Core_0_LLC_demand_access 2772253
Core_0_LLC_demand_hit 778345
Core_0_LLC_demand_miss 1993908
Core_0_LLC_demand_MPKI 39.8782
Core_0_LLC_demand_miss_rate 0.719237
Core_0_LLC_load_access 2772242
Core_0_LLC_load_hit 778334
Core_0_LLC_load_miss 1993908
Core_0_LLC_load_MPKI 39.8782
Core_0_LLC_load_miss_rate 0.71924
Core_0_LLC_rfo_access 11
Core_0_LLC_rfo_hit 11
Core_0_LLC_rfo_miss 0
Core_0_LLC_rfo_MPKI 0
Core_0_LLC_rfo_miss_rate 0
Core_0_LLC_prefetch_access 744770
Core_0_LLC_prefetch_hit 24587
Core_0_LLC_prefetch_miss 720183
Core_0_LLC_prefetch_MPKI 14.4037
Core_0_LLC_prefetch_miss_rate 0.966987
Core_0_LLC_writeback_access 97654
Core_0_LLC_writeback_hit 17160
Core_0_LLC_writeback_miss 80494
Core_0_LLC_writeback_MPKI 1.60988
Core_0_LLC_writeback_miss_rate 0.824278
Core_0_LLC_prefetch_requested 0
Core_0_LLC_prefetch_issued 0
Core_0_LLC_prefetch_useful 0
Core_0_LLC_prefetch_useless 0
Core_0_LLC_prefetch_late 0
Core_0_LLC_prefetch_accuracy 0
Core_0_LLC_prefetch_coverage 0

[DRAM Statistics]
Channel_0_RQ_row_buffer_hit 6995
Channel_0_RQ_row_buffer_miss 2720061
Channel_0_WQ_row_buffer_hit 25018
Channel_0_WQ_row_buffer_miss 74316
Channel_0_WQ_full 0
Channel_0_dbus_congested 5223869
DRAM_total_RQ_row_buffer_hit 6995
DRAM_total_RQ_row_buffer_miss 2720061
DRAM_total_WQ_row_buffer_hit 25018
DRAM_total_WQ_row_buffer_miss 74316
DRAM_total_WQ_full 0
DRAM_total_dbus_congested 5223869
DRAM_avg_congested_cycle 11.891

====== DRAM_RQ_TRAFFIC ========
DRAM_RQ_READ_TRAFFIC_BREAKDOWN:
data_demand_read.count = 1993908
data_demand_read.share = 73.12%

inst_demand_read.count = 0
inst_demand_read.share = 0.00%

cache_inst_prefetch.count = 0
cache_inst_prefetch.share = 0.00%

cache_data_prefetch.count = 720179
cache_data_prefetch.share = 26.41%

stlb_data_demand.count = 11755
stlb_data_demand.share = 0.43%

stlb_inst_demand.count = 0
stlb_inst_demand.share = 0.00%

stlb_l1i_pref.count = 0
stlb_l1i_pref.share = 0.00%

stlb_l1d_pref.count = 1214
stlb_l1d_pref.share = 0.04%

DRAM_RQ_READ_TRAFFIC_SUMMARY:
cache_demand.count = 1993908
cache_demand.share = 73.12%

cache_prefetch.count = 720179
cache_prefetch.share = 26.41%

stlb_demand.count = 11755
stlb_demand.share = 0.43%

stlb_prefetch.count = 1214
stlb_prefetch.share = 0.04%

DRAM_RQ_READ_TRAFFIC_DEBUG:
total_classified_read.count = 2727056
unclassified_read.count = 0
total_read_with_other.count = 2727056

classified_plus_unclassified_check.count = 2727056
dram_rq_read_total_observed.count = 2727056
dram_rq_read_total_observed.per_1K_instructions = 54.5411

STLB_MISS_PTW_DRAM_TOUCH_BREAKDOWN:
stlb_miss_total.count = 1340284

stlb_miss_touch_dram.count = 12894
stlb_miss_touch_dram.share = 0.96%

stlb_miss_no_dram_touch.count = 1327390
stlb_miss_no_dram_touch.share = 99.04%

STLB_MISS_PTW_DRAM_TOUCH_DEBUG:
stlb_miss_touch_plus_no_touch.count = 1340284
stlb_miss_total_check.count = 1340284

======STLB miss causes ========
Core_0_STLB_miss_cause_breakdown
Core_0_STLB_cause_Demand_Data_miss 1318303
Core_0_STLB_cause_Demand_Data_miss_rate 0.471904
Core_0_STLB_cause_Demand_Instruction_miss 0
Core_0_STLB_cause_Demand_Instruction_miss_rate 0
Core_0_STLB_cause_L1D_Prefetch_miss 21984
Core_0_STLB_cause_L1D_Prefetch_miss_rate 0.00786947
Core_0_STLB_cause_L1I_Prefetch_miss 0
Core_0_STLB_cause_L1I_Prefetch_miss_rate 0
Core_0_STLB_cause_Other_miss 0
Core_0_STLB_cause_Other_miss_rate 0
Core_0_STLB_Demand_miss 1318303
Core_0_STLB_Demand_miss_rate 0.471904
Core_0_STLB_L1D_Prefetch_miss 21984
Core_0_STLB_L1D_Prefetch_miss_rate 0.00786947
Core_0_STLB_Other_miss 0
Core_0_STLB_Other_miss_rate 0
