[VMEM] WARNING: physical memory size is smaller than virtual memory size.

*** ChampSim Multicore Out-of-Order Simulator ***
Warmup Instructions: 20000000
Simulation Instructions: 50000000
Number of CPUs: 1
Page size: 4096
Core 0: /data2/zcq/champsim_traces_gap/bfs.urand-118B.champsimtrace.xz
 L1D Berti prefetcher
Off-chip DRAM Size: 16 GiB Channels: 1 Width: 64-bit Data Rate: 3205 MT/s
Warmup halting CPU 0 at instruction 20000003 cycle 20791829 for remainder of phase
Warmup finished CPU 0 instructions: 20000003 cycles: 20791829 cumulative IPC: 0.9619 (Simulation time: 00 hr 03 min 13 sec)
Warmup complete CPU 0 instructions: 20000003 cycles: 20791829 cumulative IPC: 0.9619 (Simulation time: 00 hr 03 min 13 sec)
Simulation finished CPU 0 instructions: 50000000 cycles: 351051667 cumulative IPC: 0.1424 (Simulation time: 00 hr 33 min 40 sec)
Simulation complete CPU 0 instructions: 50000000 cycles: 351051667 cumulative IPC: 0.1424 (Simulation time: 00 hr 33 min 40 sec)

ChampSim completed all CPUs

=== Simulation ===
CPU 0 runs /data2/zcq/champsim_traces_gap/bfs.urand-118B.champsimtrace.xz

Region of Interest Statistics

CPU 0 cumulative IPC: 0.1424 instructions: 50000000 cycles: 351051667
CPU 0 Branch Prediction Accuracy: 94.86% MPKI: 8.056 Average ROB Occupancy at Mispredict: 76.9
Branch type MPKI
BRANCH_DIRECT_JUMP: 0
BRANCH_INDIRECT: 0
BRANCH_CONDITIONAL: 8.056
BRANCH_DIRECT_CALL: 0
BRANCH_INDIRECT_CALL: 0
BRANCH_RETURN: 0

cpu0->cpu0_STLB TOTAL        ACCESS:    2208682 HIT:      75125 MISS:    2133557 MSHR_MERGE:          0
cpu0->cpu0_STLB LOAD         ACCESS:    2208682 HIT:      75125 MISS:    2133557 MSHR_MERGE:          0
cpu0->cpu0_STLB RFO          ACCESS:          0 HIT:          0 MISS:          0 MSHR_MERGE:          0
cpu0->cpu0_STLB PREFETCH     ACCESS:          0 HIT:          0 MISS:          0 MSHR_MERGE:          0
cpu0->cpu0_STLB WRITE        ACCESS:          0 HIT:          0 MISS:          0 MSHR_MERGE:          0
cpu0->cpu0_STLB TRANSLATION  ACCESS:          0 HIT:          0 MISS:          0 MSHR_MERGE:          0
cpu0->cpu0_STLB PREFETCH REQUESTED:          0 ISSUED:          0 USEFUL:          0 USELESS:          0 LATE:          0
cpu0->cpu0_STLB AVERAGE MISS LATENCY: 122.9 cycles
cpu0->cpu0_L2C TOTAL        ACCESS:    7296855 HIT:    2693032 MISS:    4603823 MSHR_MERGE:       1745
cpu0->cpu0_L2C LOAD         ACCESS:    2182643 HIT:       5820 MISS:    2176823 MSHR_MERGE:          4
cpu0->cpu0_L2C RFO          ACCESS:     217703 HIT:      17388 MISS:     200315 MSHR_MERGE:          0
cpu0->cpu0_L2C PREFETCH     ACCESS:     712593 HIT:     332601 MISS:     379992 MSHR_MERGE:       1741
cpu0->cpu0_L2C WRITE        ACCESS:    1959360 HIT:    1959251 MISS:        109 MSHR_MERGE:          0
cpu0->cpu0_L2C TRANSLATION  ACCESS:    2224556 HIT:     377972 MISS:    1846584 MSHR_MERGE:          0
cpu0->cpu0_L2C PREFETCH REQUESTED:     436899 ISSUED:     436899 USEFUL:      93366 USELESS:     117667 LATE:          4
cpu0->cpu0_L2C AVERAGE MISS LATENCY: 173.9 cycles
cpu0->cpu0_L1I TOTAL        ACCESS:    7245628 HIT:    7245628 MISS:          0 MSHR_MERGE:          0
cpu0->cpu0_L1I LOAD         ACCESS:    7245628 HIT:    7245628 MISS:          0 MSHR_MERGE:          0
cpu0->cpu0_L1I RFO          ACCESS:          0 HIT:          0 MISS:          0 MSHR_MERGE:          0
cpu0->cpu0_L1I PREFETCH     ACCESS:          0 HIT:          0 MISS:          0 MSHR_MERGE:          0
cpu0->cpu0_L1I WRITE        ACCESS:          0 HIT:          0 MISS:          0 MSHR_MERGE:          0
cpu0->cpu0_L1I TRANSLATION  ACCESS:          0 HIT:          0 MISS:          0 MSHR_MERGE:          0
cpu0->cpu0_L1I PREFETCH REQUESTED:          0 ISSUED:          0 USEFUL:          0 USELESS:          0 LATE:          0
cpu0->cpu0_L1I AVERAGE MISS LATENCY: - cycles
cpu0->cpu0_L1D TOTAL        ACCESS:   33833663 HIT:   25023490 MISS:    8810173 MSHR_MERGE:    3909578
cpu0->cpu0_L1D LOAD         ACCESS:   17085238 HIT:   14674114 MISS:    2411124 MSHR_MERGE:     228482
cpu0->cpu0_L1D RFO          ACCESS:          0 HIT:          0 MISS:          0 MSHR_MERGE:          0
cpu0->cpu0_L1D PREFETCH     ACCESS:     377984 HIT:      86927 MISS:     291057 MSHR_MERGE:      15363
cpu0->cpu0_L1D WRITE        ACCESS:   10430499 HIT:    6549874 MISS:    3880625 MSHR_MERGE:    3662922
cpu0->cpu0_L1D TRANSLATION  ACCESS:    5939942 HIT:    3712575 MISS:    2227367 MSHR_MERGE:       2811
cpu0->cpu0_L1D PREFETCH REQUESTED:     377977 ISSUED:     377976 USEFUL:     211457 USELESS:      64228 LATE:        247
cpu0->cpu0_L1D AVERAGE MISS LATENCY: 167.8 cycles
cpu0->cpu0_ITLB TOTAL        ACCESS:    7197783 HIT:    7197783 MISS:          0 MSHR_MERGE:          0
cpu0->cpu0_ITLB LOAD         ACCESS:    7197783 HIT:    7197783 MISS:          0 MSHR_MERGE:          0
cpu0->cpu0_ITLB RFO          ACCESS:          0 HIT:          0 MISS:          0 MSHR_MERGE:          0
cpu0->cpu0_ITLB PREFETCH     ACCESS:          0 HIT:          0 MISS:          0 MSHR_MERGE:          0
cpu0->cpu0_ITLB WRITE        ACCESS:          0 HIT:          0 MISS:          0 MSHR_MERGE:          0
cpu0->cpu0_ITLB TRANSLATION  ACCESS:          0 HIT:          0 MISS:          0 MSHR_MERGE:          0
cpu0->cpu0_ITLB PREFETCH REQUESTED:          0 ISSUED:          0 USEFUL:          0 USELESS:          0 LATE:          0
cpu0->cpu0_ITLB AVERAGE MISS LATENCY: - cycles
cpu0->cpu0_DTLB TOTAL        ACCESS:   27849258 HIT:   25370558 MISS:    2478700 MSHR_MERGE:     270018
cpu0->cpu0_DTLB LOAD         ACCESS:   27849258 HIT:   25370558 MISS:    2478700 MSHR_MERGE:     270018
cpu0->cpu0_DTLB RFO          ACCESS:          0 HIT:          0 MISS:          0 MSHR_MERGE:          0
cpu0->cpu0_DTLB PREFETCH     ACCESS:          0 HIT:          0 MISS:          0 MSHR_MERGE:          0
cpu0->cpu0_DTLB WRITE        ACCESS:          0 HIT:          0 MISS:          0 MSHR_MERGE:          0
cpu0->cpu0_DTLB TRANSLATION  ACCESS:          0 HIT:          0 MISS:          0 MSHR_MERGE:          0
cpu0->cpu0_DTLB PREFETCH REQUESTED:          0 ISSUED:          0 USEFUL:          0 USELESS:          0 LATE:          0
cpu0->cpu0_DTLB AVERAGE MISS LATENCY: 124.7 cycles
cpu0->LLC TOTAL        ACCESS:    6560871 HIT:    3001279 MISS:    3559592 MSHR_MERGE:          0
cpu0->LLC LOAD         ACCESS:    2176818 HIT:       5242 MISS:    2171576 MSHR_MERGE:          0
cpu0->LLC RFO          ACCESS:     200315 HIT:      80735 MISS:     119580 MSHR_MERGE:          0
cpu0->LLC PREFETCH     ACCESS:     378251 HIT:      68092 MISS:     310159 MSHR_MERGE:          0
cpu0->LLC WRITE        ACCESS:    1958902 HIT:    1732075 MISS:     226827 MSHR_MERGE:          0
cpu0->LLC TRANSLATION  ACCESS:    1846585 HIT:    1115135 MISS:     731450 MSHR_MERGE:          0
cpu0->LLC PREFETCH REQUESTED:          0 ISSUED:          0 USEFUL:          0 USELESS:          0 LATE:          0
cpu0->LLC AVERAGE MISS LATENCY: 206.3 cycles

DRAM Statistics

Channel 0 RQ ROW_BUFFER_HIT:       2749
  ROW_BUFFER_MISS:    3329967
  AVG DBUS CONGESTED CYCLE: 8.285
Channel 0 WQ ROW_BUFFER_HIT:     525563
  ROW_BUFFER_MISS:    1352286
  FULL:          0
Channel 0 REFRESHES ISSUED:      29254

[ROI Statistics]
[System Configuration]
num_cpus 1
cpu_freq 4000
fetch_width 6
decode_width 6
dispatch_width 6
execute_width 6
lq_width 2
sq_width 2
retire_width 6
scheduler_size 128
branch_mispredict_penalty 15
rob_size 352
lq_size 128
sq_size 72
ifetch_buffer_size 64
decode_buffer_size 32
dispatch_buffer_size 32
register_file_size 288
decode_latency 1
dispatch_latency 1
schedule_latency 1
execute_latency 1
page_size 4096
block_size 64
core_0_itlb_set 16
core_0_itlb_way 4
core_0_itlb_rq_size 16
core_0_itlb_wq_size 16
core_0_itlb_pq_size 0
core_0_itlb_mshr_size 8
core_0_itlb_hit_latency 1
core_0_itlb_fill_latency 1
core_0_itlb_max_tag_check 2
core_0_itlb_max_fill 2
core_0_dtlb_set 16
core_0_dtlb_way 4
core_0_dtlb_rq_size 16
core_0_dtlb_wq_size 16
core_0_dtlb_pq_size 0
core_0_dtlb_mshr_size 8
core_0_dtlb_hit_latency 1
core_0_dtlb_fill_latency 1
core_0_dtlb_max_tag_check 2
core_0_dtlb_max_fill 2
core_0_stlb_set 128
core_0_stlb_way 12
core_0_stlb_rq_size 32
core_0_stlb_wq_size 32
core_0_stlb_pq_size 0
core_0_stlb_mshr_size 16
core_0_stlb_hit_latency 4
core_0_stlb_fill_latency 4
core_0_stlb_max_tag_check 1
core_0_stlb_max_fill 1
core_0_l1i_set 64
core_0_l1i_way 8
core_0_l1i_rq_size 64
core_0_l1i_wq_size 64
core_0_l1i_pq_size 32
core_0_l1i_mshr_size 8
core_0_l1i_hit_latency 2
core_0_l1i_fill_latency 2
core_0_l1i_max_tag_check 2
core_0_l1i_max_fill 2
core_0_l1d_set 64
core_0_l1d_way 12
core_0_l1d_rq_size 64
core_0_l1d_wq_size 64
core_0_l1d_pq_size 8
core_0_l1d_mshr_size 16
core_0_l1d_hit_latency 2
core_0_l1d_fill_latency 3
core_0_l1d_max_tag_check 2
core_0_l1d_max_fill 2
core_0_l2c_set 1024
core_0_l2c_way 8
core_0_l2c_rq_size 32
core_0_l2c_wq_size 32
core_0_l2c_pq_size 16
core_0_l2c_mshr_size 32
core_0_l2c_hit_latency 5
core_0_l2c_fill_latency 5
core_0_l2c_max_tag_check 1
core_0_l2c_max_fill 1
llc_set 2048
llc_way 16
llc_rq_size 32
llc_wq_size 32
llc_pq_size 32
llc_mshr_size 64
llc_hit_latency 10
llc_fill_latency 10
llc_max_tag_check 1
llc_max_fill 1
dram_channels 1
dram_ranks 1
dram_bankgroups 8
dram_banks 4
dram_rows 65536
dram_columns 1024
dram_channel_width 8
dram_rq_size 64
dram_wq_size 64
dram_size 17179869184
core_0_itlb_prefetcher no
core_0_dtlb_prefetcher no
core_0_stlb_prefetcher no
core_0_l1i_prefetcher next_line
core_0_l1d_prefetcher berti
core_0_l2c_prefetcher ip_stride
llc_prefetcher no
llc_replacement drrip

Core_0_instructions 50000000
Core_0_cycles 351051667
Core_0_IPC 0.142429
Core_0_branch_prediction_accuracy 94.8595
Core_0_branch_MPKI 8.05584
Core_0_average_ROB_occupancy_at_mispredict 76.9004

Core_0_ITLB_total_access 7197783
Core_0_ITLB_total_hit 7197783
Core_0_ITLB_total_miss 0
Core_0_ITLB_total_MPKI 0
Core_0_ITLB_total_miss_rate 0
Core_0_ITLB_demand_access 7197783
Core_0_ITLB_demand_hit 7197783
Core_0_ITLB_demand_miss 0
Core_0_ITLB_demand_MPKI 0
Core_0_ITLB_demand_miss_rate 0
Core_0_ITLB_load_access 7197783
Core_0_ITLB_load_hit 7197783
Core_0_ITLB_load_miss 0
Core_0_ITLB_load_MPKI 0
Core_0_ITLB_load_miss_rate 0
Core_0_ITLB_rfo_access 0
Core_0_ITLB_rfo_hit 0
Core_0_ITLB_rfo_miss 0
Core_0_ITLB_rfo_MPKI 0
Core_0_ITLB_rfo_miss_rate 0
Core_0_ITLB_prefetch_access 0
Core_0_ITLB_prefetch_hit 0
Core_0_ITLB_prefetch_miss 0
Core_0_ITLB_prefetch_MPKI 0
Core_0_ITLB_prefetch_miss_rate 0
Core_0_ITLB_writeback_access 0
Core_0_ITLB_writeback_hit 0
Core_0_ITLB_writeback_miss 0
Core_0_ITLB_writeback_MPKI 0
Core_0_ITLB_writeback_miss_rate 0
Core_0_ITLB_prefetch_requested 0
Core_0_ITLB_prefetch_issued 0
Core_0_ITLB_prefetch_useful 0
Core_0_ITLB_prefetch_useless 0
Core_0_ITLB_prefetch_late 0
Core_0_ITLB_prefetch_accuracy 0
Core_0_ITLB_prefetch_coverage 0

Core_0_DTLB_total_access 27849258
Core_0_DTLB_total_hit 25370558
Core_0_DTLB_total_miss 2478700
Core_0_DTLB_total_MPKI 49.574
Core_0_DTLB_total_miss_rate 0.0890042
Core_0_DTLB_demand_access 27849258
Core_0_DTLB_demand_hit 25370558
Core_0_DTLB_demand_miss 2478700
Core_0_DTLB_demand_MPKI 49.574
Core_0_DTLB_demand_miss_rate 0.0890042
Core_0_DTLB_load_access 27849258
Core_0_DTLB_load_hit 25370558
Core_0_DTLB_load_miss 2478700
Core_0_DTLB_load_MPKI 49.574
Core_0_DTLB_load_miss_rate 0.0890042
Core_0_DTLB_rfo_access 0
Core_0_DTLB_rfo_hit 0
Core_0_DTLB_rfo_miss 0
Core_0_DTLB_rfo_MPKI 0
Core_0_DTLB_rfo_miss_rate 0
Core_0_DTLB_prefetch_access 0
Core_0_DTLB_prefetch_hit 0
Core_0_DTLB_prefetch_miss 0
Core_0_DTLB_prefetch_MPKI 0
Core_0_DTLB_prefetch_miss_rate 0
Core_0_DTLB_writeback_access 0
Core_0_DTLB_writeback_hit 0
Core_0_DTLB_writeback_miss 0
Core_0_DTLB_writeback_MPKI 0
Core_0_DTLB_writeback_miss_rate 0
Core_0_DTLB_prefetch_requested 0
Core_0_DTLB_prefetch_issued 0
Core_0_DTLB_prefetch_useful 0
Core_0_DTLB_prefetch_useless 0
Core_0_DTLB_prefetch_late 0
Core_0_DTLB_prefetch_accuracy 0
Core_0_DTLB_prefetch_coverage 0

Core_0_STLB_total_access 2208682
Core_0_STLB_total_hit 75125
Core_0_STLB_total_miss 2133557
Core_0_STLB_total_MPKI 42.6711
Core_0_STLB_total_miss_rate 0.965987
Core_0_STLB_demand_access 2208682
Core_0_STLB_demand_hit 75125
Core_0_STLB_demand_miss 2133557
Core_0_STLB_demand_MPKI 42.6711
Core_0_STLB_demand_miss_rate 0.965987
Core_0_STLB_load_access 2208682
Core_0_STLB_load_hit 75125
Core_0_STLB_load_miss 2133557
Core_0_STLB_load_MPKI 42.6711
Core_0_STLB_load_miss_rate 0.965987
Core_0_STLB_rfo_access 0
Core_0_STLB_rfo_hit 0
Core_0_STLB_rfo_miss 0
Core_0_STLB_rfo_MPKI 0
Core_0_STLB_rfo_miss_rate 0
Core_0_STLB_prefetch_access 0
Core_0_STLB_prefetch_hit 0
Core_0_STLB_prefetch_miss 0
Core_0_STLB_prefetch_MPKI 0
Core_0_STLB_prefetch_miss_rate 0
Core_0_STLB_writeback_access 0
Core_0_STLB_writeback_hit 0
Core_0_STLB_writeback_miss 0
Core_0_STLB_writeback_MPKI 0
Core_0_STLB_writeback_miss_rate 0
Core_0_STLB_prefetch_requested 0
Core_0_STLB_prefetch_issued 0
Core_0_STLB_prefetch_useful 0
Core_0_STLB_prefetch_useless 0
Core_0_STLB_prefetch_late 0
Core_0_STLB_prefetch_accuracy 0
Core_0_STLB_prefetch_coverage 0

Core_0_L1I_total_access 7245628
Core_0_L1I_total_hit 7245628
Core_0_L1I_total_miss 0
Core_0_L1I_total_MPKI 0
Core_0_L1I_total_miss_rate 0
Core_0_L1I_demand_access 7245628
Core_0_L1I_demand_hit 7245628
Core_0_L1I_demand_miss 0
Core_0_L1I_demand_MPKI 0
Core_0_L1I_demand_miss_rate 0
Core_0_L1I_load_access 7245628
Core_0_L1I_load_hit 7245628
Core_0_L1I_load_miss 0
Core_0_L1I_load_MPKI 0
Core_0_L1I_load_miss_rate 0
Core_0_L1I_rfo_access 0
Core_0_L1I_rfo_hit 0
Core_0_L1I_rfo_miss 0
Core_0_L1I_rfo_MPKI 0
Core_0_L1I_rfo_miss_rate 0
Core_0_L1I_prefetch_access 0
Core_0_L1I_prefetch_hit 0
Core_0_L1I_prefetch_miss 0
Core_0_L1I_prefetch_MPKI 0
Core_0_L1I_prefetch_miss_rate 0
Core_0_L1I_writeback_access 0
Core_0_L1I_writeback_hit 0
Core_0_L1I_writeback_miss 0
Core_0_L1I_writeback_MPKI 0
Core_0_L1I_writeback_miss_rate 0
Core_0_L1I_prefetch_requested 0
Core_0_L1I_prefetch_issued 0
Core_0_L1I_prefetch_useful 0
Core_0_L1I_prefetch_useless 0
Core_0_L1I_prefetch_late 0
Core_0_L1I_prefetch_accuracy 0
Core_0_L1I_prefetch_coverage 0

Core_0_L1D_total_access 27893721
Core_0_L1D_total_hit 21310915
Core_0_L1D_total_miss 6582806
Core_0_L1D_total_MPKI 131.656
Core_0_L1D_total_miss_rate 0.235996
Core_0_L1D_demand_access 17085238
Core_0_L1D_demand_hit 14674114
Core_0_L1D_demand_miss 2411124
Core_0_L1D_demand_MPKI 48.2225
Core_0_L1D_demand_miss_rate 0.141123
Core_0_L1D_load_access 17085238
Core_0_L1D_load_hit 14674114
Core_0_L1D_load_miss 2411124
Core_0_L1D_load_MPKI 48.2225
Core_0_L1D_load_miss_rate 0.141123
Core_0_L1D_rfo_access 0
Core_0_L1D_rfo_hit 0
Core_0_L1D_rfo_miss 0
Core_0_L1D_rfo_MPKI 0
Core_0_L1D_rfo_miss_rate 0
Core_0_L1D_prefetch_access 377984
Core_0_L1D_prefetch_hit 86927
Core_0_L1D_prefetch_miss 291057
Core_0_L1D_prefetch_MPKI 5.82114
Core_0_L1D_prefetch_miss_rate 0.770025
Core_0_L1D_writeback_access 10430499
Core_0_L1D_writeback_hit 6549874
Core_0_L1D_writeback_miss 3880625
Core_0_L1D_writeback_MPKI 77.6125
Core_0_L1D_writeback_miss_rate 0.372046
Core_0_L1D_prefetch_requested 377977
Core_0_L1D_prefetch_issued 377976
Core_0_L1D_prefetch_useful 211457
Core_0_L1D_prefetch_useless 64228
Core_0_L1D_prefetch_late 247
Core_0_L1D_prefetch_accuracy 0.559446
Core_0_L1D_prefetch_coverage 0.0806293

Core_0_L2C_total_access 5072299
Core_0_L2C_total_hit 2315060
Core_0_L2C_total_miss 2757239
Core_0_L2C_total_MPKI 55.1448
Core_0_L2C_total_miss_rate 0.543588
Core_0_L2C_demand_access 2400346
Core_0_L2C_demand_hit 23208
Core_0_L2C_demand_miss 2377138
Core_0_L2C_demand_MPKI 47.5428
Core_0_L2C_demand_miss_rate 0.990331
Core_0_L2C_load_access 2182643
Core_0_L2C_load_hit 5820
Core_0_L2C_load_miss 2176823
Core_0_L2C_load_MPKI 43.5365
Core_0_L2C_load_miss_rate 0.997334
Core_0_L2C_rfo_access 217703
Core_0_L2C_rfo_hit 17388
Core_0_L2C_rfo_miss 200315
Core_0_L2C_rfo_MPKI 4.0063
Core_0_L2C_rfo_miss_rate 0.92013
Core_0_L2C_prefetch_access 712593
Core_0_L2C_prefetch_hit 332601
Core_0_L2C_prefetch_miss 379992
Core_0_L2C_prefetch_MPKI 7.59984
Core_0_L2C_prefetch_miss_rate 0.533253
Core_0_L2C_writeback_access 1959360
Core_0_L2C_writeback_hit 1959251
Core_0_L2C_writeback_miss 109
Core_0_L2C_writeback_MPKI 0.00218
Core_0_L2C_writeback_miss_rate 5.56304e-05
Core_0_L2C_prefetch_requested 436899
Core_0_L2C_prefetch_issued 436899
Core_0_L2C_prefetch_useful 93366
Core_0_L2C_prefetch_useless 117667
Core_0_L2C_prefetch_late 4
Core_0_L2C_prefetch_accuracy 0.213702
Core_0_L2C_prefetch_coverage 0.0377923

Core_0_LLC_total_access 4714286
Core_0_LLC_total_hit 1886144
Core_0_LLC_total_miss 2828142
Core_0_LLC_total_MPKI 56.5628
Core_0_LLC_total_miss_rate 0.599909
Core_0_LLC_demand_access 2377133
Core_0_LLC_demand_hit 85977
Core_0_LLC_demand_miss 2291156
Core_0_LLC_demand_MPKI 45.8231
Core_0_LLC_demand_miss_rate 0.963832
Core_0_LLC_load_access 2176818
Core_0_LLC_load_hit 5242
Core_0_LLC_load_miss 2171576
Core_0_LLC_load_MPKI 43.4315
Core_0_LLC_load_miss_rate 0.997592
Core_0_LLC_rfo_access 200315
Core_0_LLC_rfo_hit 80735
Core_0_LLC_rfo_miss 119580
Core_0_LLC_rfo_MPKI 2.3916
Core_0_LLC_rfo_miss_rate 0.59696
Core_0_LLC_prefetch_access 378251
Core_0_LLC_prefetch_hit 68092
Core_0_LLC_prefetch_miss 310159
Core_0_LLC_prefetch_MPKI 6.20318
Core_0_LLC_prefetch_miss_rate 0.819982
Core_0_LLC_writeback_access 1958902
Core_0_LLC_writeback_hit 1732075
Core_0_LLC_writeback_miss 226827
Core_0_LLC_writeback_MPKI 4.53654
Core_0_LLC_writeback_miss_rate 0.115793
Core_0_LLC_prefetch_requested 0
Core_0_LLC_prefetch_issued 0
Core_0_LLC_prefetch_useful 0
Core_0_LLC_prefetch_useless 0
Core_0_LLC_prefetch_late 0
Core_0_LLC_prefetch_accuracy 0
Core_0_LLC_prefetch_coverage 0

[DRAM Statistics]
Channel_0_RQ_row_buffer_hit 2749
Channel_0_RQ_row_buffer_miss 3329967
Channel_0_WQ_row_buffer_hit 525563
Channel_0_WQ_row_buffer_miss 1352286
Channel_0_WQ_full 0
Channel_0_dbus_congested 14542535
DRAM_total_RQ_row_buffer_hit 2749
DRAM_total_RQ_row_buffer_miss 3329967
DRAM_total_WQ_row_buffer_hit 525563
DRAM_total_WQ_row_buffer_miss 1352286
DRAM_total_WQ_full 0
DRAM_total_dbus_congested 14542535
DRAM_avg_congested_cycle 8.28487

====== DRAM_RQ_TRAFFIC ========
DRAM_RQ_READ_TRAFFIC_BREAKDOWN:
data_demand_read.count = 2291157
data_demand_read.share = 68.75%

inst_demand_read.count = 0
inst_demand_read.share = 0.00%

cache_inst_prefetch.count = 0
cache_inst_prefetch.share = 0.00%

cache_data_prefetch.count = 310159
cache_data_prefetch.share = 9.31%

stlb_data_demand.count = 731060
stlb_data_demand.share = 21.94%

stlb_inst_demand.count = 0
stlb_inst_demand.share = 0.00%

stlb_l1i_pref.count = 0
stlb_l1i_pref.share = 0.00%

stlb_l1d_pref.count = 390
stlb_l1d_pref.share = 0.01%

DRAM_RQ_READ_TRAFFIC_SUMMARY:
cache_demand.count = 2291157
cache_demand.share = 68.75%

cache_prefetch.count = 310159
cache_prefetch.share = 9.31%

stlb_demand.count = 731060
stlb_demand.share = 21.94%

stlb_prefetch.count = 390
stlb_prefetch.share = 0.01%

DRAM_RQ_READ_TRAFFIC_DEBUG:
total_classified_read.count = 3332766
unclassified_read.count = 0
total_read_with_other.count = 3332766

classified_plus_unclassified_check.count = 3332766
dram_rq_read_total_observed.count = 3332766
dram_rq_read_total_observed.per_1K_instructions = 66.6553

STLB_MISS_PTW_DRAM_TOUCH_BREAKDOWN:
stlb_miss_total.count = 2133556

stlb_miss_touch_dram.count = 694233
stlb_miss_touch_dram.share = 32.54%

stlb_miss_no_dram_touch.count = 1439323
stlb_miss_no_dram_touch.share = 67.46%

STLB_MISS_PTW_DRAM_TOUCH_DEBUG:
stlb_miss_touch_plus_no_touch.count = 2133556
stlb_miss_total_check.count = 2133556

======STLB miss causes ========
Core_0_STLB_miss_cause_breakdown
Core_0_STLB_cause_Demand_Data_miss 2130651
Core_0_STLB_cause_Demand_Data_miss_rate 0.964671
Core_0_STLB_cause_Demand_Instruction_miss 0
Core_0_STLB_cause_Demand_Instruction_miss_rate 0
Core_0_STLB_cause_L1D_Prefetch_miss 2906
Core_0_STLB_cause_L1D_Prefetch_miss_rate 0.00131572
Core_0_STLB_cause_L1I_Prefetch_miss 0
Core_0_STLB_cause_L1I_Prefetch_miss_rate 0
Core_0_STLB_cause_Other_miss 0
Core_0_STLB_cause_Other_miss_rate 0
Core_0_STLB_Demand_miss 2130651
Core_0_STLB_Demand_miss_rate 0.964671
Core_0_STLB_L1D_Prefetch_miss 2906
Core_0_STLB_L1D_Prefetch_miss_rate 0.00131572
Core_0_STLB_Other_miss 0
Core_0_STLB_Other_miss_rate 0
