[VMEM] WARNING: physical memory size is smaller than virtual memory size.

*** ChampSim Multicore Out-of-Order Simulator ***
Warmup Instructions: 20000000
Simulation Instructions: 50000000
Number of CPUs: 1
Page size: 4096
Core 0: /data2/zcq/champsim_traces_gap/bfs.urand-410B.champsimtrace.xz
 L1D Berti prefetcher
Off-chip DRAM Size: 16 GiB Channels: 1 Width: 64-bit Data Rate: 3205 MT/s
Warmup halting CPU 0 at instruction 20000001 cycle 6913325 for remainder of phase
Warmup finished CPU 0 instructions: 20000001 cycles: 6913325 cumulative IPC: 2.893 (Simulation time: 00 hr 01 min 40 sec)
Warmup complete CPU 0 instructions: 20000001 cycles: 6913325 cumulative IPC: 2.893 (Simulation time: 00 hr 01 min 40 sec)
Simulation finished CPU 0 instructions: 50000004 cycles: 333473537 cumulative IPC: 0.1499 (Simulation time: 00 hr 22 min 25 sec)
Simulation complete CPU 0 instructions: 50000004 cycles: 333473537 cumulative IPC: 0.1499 (Simulation time: 00 hr 22 min 25 sec)

ChampSim completed all CPUs

=== Simulation ===
CPU 0 runs /data2/zcq/champsim_traces_gap/bfs.urand-410B.champsimtrace.xz

Region of Interest Statistics

CPU 0 cumulative IPC: 0.1499 instructions: 50000004 cycles: 333473537
CPU 0 Branch Prediction Accuracy: 84.19% MPKI: 27.65 Average ROB Occupancy at Mispredict: 15.85
Branch type MPKI
BRANCH_DIRECT_JUMP: 0
BRANCH_INDIRECT: 0
BRANCH_CONDITIONAL: 27.65
BRANCH_DIRECT_CALL: 0
BRANCH_INDIRECT_CALL: 0
BRANCH_RETURN: 0

cpu0->cpu0_STLB TOTAL        ACCESS:    2888411 HIT:    2661010 MISS:     227401 MSHR_MERGE:          0
cpu0->cpu0_STLB LOAD         ACCESS:    2888411 HIT:    2661010 MISS:     227401 MSHR_MERGE:          0
cpu0->cpu0_STLB RFO          ACCESS:          0 HIT:          0 MISS:          0 MSHR_MERGE:          0
cpu0->cpu0_STLB PREFETCH     ACCESS:          0 HIT:          0 MISS:          0 MSHR_MERGE:          0
cpu0->cpu0_STLB WRITE        ACCESS:          0 HIT:          0 MISS:          0 MSHR_MERGE:          0
cpu0->cpu0_STLB TRANSLATION  ACCESS:          0 HIT:          0 MISS:          0 MSHR_MERGE:          0
cpu0->cpu0_STLB PREFETCH REQUESTED:          0 ISSUED:          0 USEFUL:          0 USELESS:          0 LATE:          0
cpu0->cpu0_STLB AVERAGE MISS LATENCY: 77.12 cycles
cpu0->cpu0_L2C TOTAL        ACCESS:    5932132 HIT:     884219 MISS:    5047913 MSHR_MERGE:      58782
cpu0->cpu0_L2C LOAD         ACCESS:    3675348 HIT:     376595 MISS:    3298753 MSHR_MERGE:       3884
cpu0->cpu0_L2C RFO          ACCESS:       1349 HIT:       1294 MISS:         55 MSHR_MERGE:          0
cpu0->cpu0_L2C PREFETCH     ACCESS:    1994164 HIT:     312950 MISS:    1681214 MSHR_MERGE:      54898
cpu0->cpu0_L2C WRITE        ACCESS:      91720 HIT:      91697 MISS:         23 MSHR_MERGE:          0
cpu0->cpu0_L2C TRANSLATION  ACCESS:     169551 HIT:     101683 MISS:      67868 MSHR_MERGE:          0
cpu0->cpu0_L2C PREFETCH REQUESTED:     619874 ISSUED:     619874 USEFUL:     256914 USELESS:     162259 LATE:       3884
cpu0->cpu0_L2C AVERAGE MISS LATENCY: 135.9 cycles
cpu0->cpu0_L1I TOTAL        ACCESS:          5 HIT:          5 MISS:          0 MSHR_MERGE:          0
cpu0->cpu0_L1I LOAD         ACCESS:          5 HIT:          5 MISS:          0 MSHR_MERGE:          0
cpu0->cpu0_L1I RFO          ACCESS:          0 HIT:          0 MISS:          0 MSHR_MERGE:          0
cpu0->cpu0_L1I PREFETCH     ACCESS:          0 HIT:          0 MISS:          0 MSHR_MERGE:          0
cpu0->cpu0_L1I WRITE        ACCESS:          0 HIT:          0 MISS:          0 MSHR_MERGE:          0
cpu0->cpu0_L1I TRANSLATION  ACCESS:          0 HIT:          0 MISS:          0 MSHR_MERGE:          0
cpu0->cpu0_L1I PREFETCH REQUESTED:          0 ISSUED:          0 USEFUL:          0 USELESS:          0 LATE:          0
cpu0->cpu0_L1I AVERAGE MISS LATENCY: - cycles
cpu0->cpu0_L1D TOTAL        ACCESS:   17916622 HIT:   11456022 MISS:    6460600 MSHR_MERGE:    1240063
cpu0->cpu0_L1D LOAD         ACCESS:   13051926 HIT:    8144024 MISS:    4907902 MSHR_MERGE:    1232555
cpu0->cpu0_L1D RFO          ACCESS:          0 HIT:          0 MISS:          0 MSHR_MERGE:          0
cpu0->cpu0_L1D PREFETCH     ACCESS:    1596765 HIT:     217637 MISS:    1379128 MSHR_MERGE:       4838
cpu0->cpu0_L1D WRITE        ACCESS:    2814589 HIT:    2811891 MISS:       2698 MSHR_MERGE:       1349
cpu0->cpu0_L1D TRANSLATION  ACCESS:     453342 HIT:     282470 MISS:     170872 MSHR_MERGE:       1321
cpu0->cpu0_L1D PREFETCH REQUESTED:    1596762 ISSUED:    1596760 USEFUL:     619991 USELESS:     754302 LATE:      44034
cpu0->cpu0_L1D AVERAGE MISS LATENCY: 127.7 cycles
cpu0->cpu0_ITLB TOTAL        ACCESS:          4 HIT:          4 MISS:          0 MSHR_MERGE:          0
cpu0->cpu0_ITLB LOAD         ACCESS:          4 HIT:          4 MISS:          0 MSHR_MERGE:          0
cpu0->cpu0_ITLB RFO          ACCESS:          0 HIT:          0 MISS:          0 MSHR_MERGE:          0
cpu0->cpu0_ITLB PREFETCH     ACCESS:          0 HIT:          0 MISS:          0 MSHR_MERGE:          0
cpu0->cpu0_ITLB WRITE        ACCESS:          0 HIT:          0 MISS:          0 MSHR_MERGE:          0
cpu0->cpu0_ITLB TRANSLATION  ACCESS:          0 HIT:          0 MISS:          0 MSHR_MERGE:          0
cpu0->cpu0_ITLB PREFETCH REQUESTED:          0 ISSUED:          0 USEFUL:          0 USELESS:          0 LATE:          0
cpu0->cpu0_ITLB AVERAGE MISS LATENCY: - cycles
cpu0->cpu0_DTLB TOTAL        ACCESS:   17041381 HIT:   14091779 MISS:    2949602 MSHR_MERGE:      61191
cpu0->cpu0_DTLB LOAD         ACCESS:   17041381 HIT:   14091779 MISS:    2949602 MSHR_MERGE:      61191
cpu0->cpu0_DTLB RFO          ACCESS:          0 HIT:          0 MISS:          0 MSHR_MERGE:          0
cpu0->cpu0_DTLB PREFETCH     ACCESS:          0 HIT:          0 MISS:          0 MSHR_MERGE:          0
cpu0->cpu0_DTLB WRITE        ACCESS:          0 HIT:          0 MISS:          0 MSHR_MERGE:          0
cpu0->cpu0_DTLB TRANSLATION  ACCESS:          0 HIT:          0 MISS:          0 MSHR_MERGE:          0
cpu0->cpu0_DTLB PREFETCH REQUESTED:          0 ISSUED:          0 USEFUL:          0 USELESS:          0 LATE:          0
cpu0->cpu0_DTLB AVERAGE MISS LATENCY: 11.25 cycles
cpu0->LLC TOTAL        ACCESS:    5078252 HIT:    1553518 MISS:    3524734 MSHR_MERGE:          0
cpu0->LLC LOAD         ACCESS:    3294869 HIT:    1375722 MISS:    1919147 MSHR_MERGE:          0
cpu0->LLC RFO          ACCESS:         55 HIT:         55 MISS:          0 MSHR_MERGE:          0
cpu0->LLC PREFETCH     ACCESS:    1626316 HIT:     103143 MISS:    1523173 MSHR_MERGE:          0
cpu0->LLC WRITE        ACCESS:      89144 HIT:      16409 MISS:      72735 MSHR_MERGE:          0
cpu0->LLC TRANSLATION  ACCESS:      67868 HIT:      58189 MISS:       9679 MSHR_MERGE:          0
cpu0->LLC PREFETCH REQUESTED:          0 ISSUED:          0 USEFUL:          0 USELESS:          0 LATE:          0
cpu0->LLC AVERAGE MISS LATENCY: 202.6 cycles

DRAM Statistics

Channel 0 RQ ROW_BUFFER_HIT:     208173
  ROW_BUFFER_MISS:    3243826
  AVG DBUS CONGESTED CYCLE: 15.41
Channel 0 WQ ROW_BUFFER_HIT:      29686
  ROW_BUFFER_MISS:      60290
  FULL:          0
Channel 0 REFRESHES ISSUED:      27789

[ROI Statistics]
[System Configuration]
num_cpus 1
cpu_freq 4000
fetch_width 6
decode_width 6
dispatch_width 6
execute_width 6
lq_width 2
sq_width 2
retire_width 6
scheduler_size 128
branch_mispredict_penalty 15
rob_size 352
lq_size 128
sq_size 72
ifetch_buffer_size 64
decode_buffer_size 32
dispatch_buffer_size 32
register_file_size 288
decode_latency 1
dispatch_latency 1
schedule_latency 1
execute_latency 1
page_size 4096
block_size 64
core_0_itlb_set 16
core_0_itlb_way 4
core_0_itlb_rq_size 16
core_0_itlb_wq_size 16
core_0_itlb_pq_size 0
core_0_itlb_mshr_size 8
core_0_itlb_hit_latency 1
core_0_itlb_fill_latency 1
core_0_itlb_max_tag_check 2
core_0_itlb_max_fill 2
core_0_dtlb_set 16
core_0_dtlb_way 4
core_0_dtlb_rq_size 16
core_0_dtlb_wq_size 16
core_0_dtlb_pq_size 0
core_0_dtlb_mshr_size 8
core_0_dtlb_hit_latency 1
core_0_dtlb_fill_latency 1
core_0_dtlb_max_tag_check 2
core_0_dtlb_max_fill 2
core_0_stlb_set 128
core_0_stlb_way 12
core_0_stlb_rq_size 32
core_0_stlb_wq_size 32
core_0_stlb_pq_size 0
core_0_stlb_mshr_size 16
core_0_stlb_hit_latency 4
core_0_stlb_fill_latency 4
core_0_stlb_max_tag_check 1
core_0_stlb_max_fill 1
core_0_l1i_set 64
core_0_l1i_way 8
core_0_l1i_rq_size 64
core_0_l1i_wq_size 64
core_0_l1i_pq_size 32
core_0_l1i_mshr_size 8
core_0_l1i_hit_latency 2
core_0_l1i_fill_latency 2
core_0_l1i_max_tag_check 2
core_0_l1i_max_fill 2
core_0_l1d_set 64
core_0_l1d_way 12
core_0_l1d_rq_size 64
core_0_l1d_wq_size 64
core_0_l1d_pq_size 8
core_0_l1d_mshr_size 16
core_0_l1d_hit_latency 2
core_0_l1d_fill_latency 3
core_0_l1d_max_tag_check 2
core_0_l1d_max_fill 2
core_0_l2c_set 1024
core_0_l2c_way 8
core_0_l2c_rq_size 32
core_0_l2c_wq_size 32
core_0_l2c_pq_size 16
core_0_l2c_mshr_size 32
core_0_l2c_hit_latency 5
core_0_l2c_fill_latency 5
core_0_l2c_max_tag_check 1
core_0_l2c_max_fill 1
llc_set 2048
llc_way 16
llc_rq_size 32
llc_wq_size 32
llc_pq_size 32
llc_mshr_size 64
llc_hit_latency 10
llc_fill_latency 10
llc_max_tag_check 1
llc_max_fill 1
dram_channels 1
dram_ranks 1
dram_bankgroups 8
dram_banks 4
dram_rows 65536
dram_columns 1024
dram_channel_width 8
dram_rq_size 64
dram_wq_size 64
dram_size 17179869184
core_0_itlb_prefetcher no
core_0_dtlb_prefetcher no
core_0_stlb_prefetcher no
core_0_l1i_prefetcher next_line
core_0_l1d_prefetcher berti
core_0_l2c_prefetcher ip_stride
llc_prefetcher no
llc_replacement drrip

Core_0_instructions 50000004
Core_0_cycles 333473537
Core_0_IPC 0.149937
Core_0_branch_prediction_accuracy 84.1894
Core_0_branch_MPKI 27.6534
Core_0_average_ROB_occupancy_at_mispredict 15.8473

Core_0_ITLB_total_access 4
Core_0_ITLB_total_hit 4
Core_0_ITLB_total_miss 0
Core_0_ITLB_total_MPKI 0
Core_0_ITLB_total_miss_rate 0
Core_0_ITLB_demand_access 4
Core_0_ITLB_demand_hit 4
Core_0_ITLB_demand_miss 0
Core_0_ITLB_demand_MPKI 0
Core_0_ITLB_demand_miss_rate 0
Core_0_ITLB_load_access 4
Core_0_ITLB_load_hit 4
Core_0_ITLB_load_miss 0
Core_0_ITLB_load_MPKI 0
Core_0_ITLB_load_miss_rate 0
Core_0_ITLB_rfo_access 0
Core_0_ITLB_rfo_hit 0
Core_0_ITLB_rfo_miss 0
Core_0_ITLB_rfo_MPKI 0
Core_0_ITLB_rfo_miss_rate 0
Core_0_ITLB_prefetch_access 0
Core_0_ITLB_prefetch_hit 0
Core_0_ITLB_prefetch_miss 0
Core_0_ITLB_prefetch_MPKI 0
Core_0_ITLB_prefetch_miss_rate 0
Core_0_ITLB_writeback_access 0
Core_0_ITLB_writeback_hit 0
Core_0_ITLB_writeback_miss 0
Core_0_ITLB_writeback_MPKI 0
Core_0_ITLB_writeback_miss_rate 0
Core_0_ITLB_prefetch_requested 0
Core_0_ITLB_prefetch_issued 0
Core_0_ITLB_prefetch_useful 0
Core_0_ITLB_prefetch_useless 0
Core_0_ITLB_prefetch_late 0
Core_0_ITLB_prefetch_accuracy 0
Core_0_ITLB_prefetch_coverage 0

Core_0_DTLB_total_access 17041381
Core_0_DTLB_total_hit 14091779
Core_0_DTLB_total_miss 2949602
Core_0_DTLB_total_MPKI 58.992
Core_0_DTLB_total_miss_rate 0.173085
Core_0_DTLB_demand_access 17041381
Core_0_DTLB_demand_hit 14091779
Core_0_DTLB_demand_miss 2949602
Core_0_DTLB_demand_MPKI 58.992
Core_0_DTLB_demand_miss_rate 0.173085
Core_0_DTLB_load_access 17041381
Core_0_DTLB_load_hit 14091779
Core_0_DTLB_load_miss 2949602
Core_0_DTLB_load_MPKI 58.992
Core_0_DTLB_load_miss_rate 0.173085
Core_0_DTLB_rfo_access 0
Core_0_DTLB_rfo_hit 0
Core_0_DTLB_rfo_miss 0
Core_0_DTLB_rfo_MPKI 0
Core_0_DTLB_rfo_miss_rate 0
Core_0_DTLB_prefetch_access 0
Core_0_DTLB_prefetch_hit 0
Core_0_DTLB_prefetch_miss 0
Core_0_DTLB_prefetch_MPKI 0
Core_0_DTLB_prefetch_miss_rate 0
Core_0_DTLB_writeback_access 0
Core_0_DTLB_writeback_hit 0
Core_0_DTLB_writeback_miss 0
Core_0_DTLB_writeback_MPKI 0
Core_0_DTLB_writeback_miss_rate 0
Core_0_DTLB_prefetch_requested 0
Core_0_DTLB_prefetch_issued 0
Core_0_DTLB_prefetch_useful 0
Core_0_DTLB_prefetch_useless 0
Core_0_DTLB_prefetch_late 0
Core_0_DTLB_prefetch_accuracy 0
Core_0_DTLB_prefetch_coverage 0

Core_0_STLB_total_access 2888411
Core_0_STLB_total_hit 2661010
Core_0_STLB_total_miss 227401
Core_0_STLB_total_MPKI 4.54802
Core_0_STLB_total_miss_rate 0.0787288
Core_0_STLB_demand_access 2888411
Core_0_STLB_demand_hit 2661010
Core_0_STLB_demand_miss 227401
Core_0_STLB_demand_MPKI 4.54802
Core_0_STLB_demand_miss_rate 0.0787288
Core_0_STLB_load_access 2888411
Core_0_STLB_load_hit 2661010
Core_0_STLB_load_miss 227401
Core_0_STLB_load_MPKI 4.54802
Core_0_STLB_load_miss_rate 0.0787288
Core_0_STLB_rfo_access 0
Core_0_STLB_rfo_hit 0
Core_0_STLB_rfo_miss 0
Core_0_STLB_rfo_MPKI 0
Core_0_STLB_rfo_miss_rate 0
Core_0_STLB_prefetch_access 0
Core_0_STLB_prefetch_hit 0
Core_0_STLB_prefetch_miss 0
Core_0_STLB_prefetch_MPKI 0
Core_0_STLB_prefetch_miss_rate 0
Core_0_STLB_writeback_access 0
Core_0_STLB_writeback_hit 0
Core_0_STLB_writeback_miss 0
Core_0_STLB_writeback_MPKI 0
Core_0_STLB_writeback_miss_rate 0
Core_0_STLB_prefetch_requested 0
Core_0_STLB_prefetch_issued 0
Core_0_STLB_prefetch_useful 0
Core_0_STLB_prefetch_useless 0
Core_0_STLB_prefetch_late 0
Core_0_STLB_prefetch_accuracy 0
Core_0_STLB_prefetch_coverage 0

Core_0_L1I_total_access 5
Core_0_L1I_total_hit 5
Core_0_L1I_total_miss 0
Core_0_L1I_total_MPKI 0
Core_0_L1I_total_miss_rate 0
Core_0_L1I_demand_access 5
Core_0_L1I_demand_hit 5
Core_0_L1I_demand_miss 0
Core_0_L1I_demand_MPKI 0
Core_0_L1I_demand_miss_rate 0
Core_0_L1I_load_access 5
Core_0_L1I_load_hit 5
Core_0_L1I_load_miss 0
Core_0_L1I_load_MPKI 0
Core_0_L1I_load_miss_rate 0
Core_0_L1I_rfo_access 0
Core_0_L1I_rfo_hit 0
Core_0_L1I_rfo_miss 0
Core_0_L1I_rfo_MPKI 0
Core_0_L1I_rfo_miss_rate 0
Core_0_L1I_prefetch_access 0
Core_0_L1I_prefetch_hit 0
Core_0_L1I_prefetch_miss 0
Core_0_L1I_prefetch_MPKI 0
Core_0_L1I_prefetch_miss_rate 0
Core_0_L1I_writeback_access 0
Core_0_L1I_writeback_hit 0
Core_0_L1I_writeback_miss 0
Core_0_L1I_writeback_MPKI 0
Core_0_L1I_writeback_miss_rate 0
Core_0_L1I_prefetch_requested 0
Core_0_L1I_prefetch_issued 0
Core_0_L1I_prefetch_useful 0
Core_0_L1I_prefetch_useless 0
Core_0_L1I_prefetch_late 0
Core_0_L1I_prefetch_accuracy 0
Core_0_L1I_prefetch_coverage 0

Core_0_L1D_total_access 17463280
Core_0_L1D_total_hit 11173552
Core_0_L1D_total_miss 6289728
Core_0_L1D_total_MPKI 125.795
Core_0_L1D_total_miss_rate 0.360169
Core_0_L1D_demand_access 13051926
Core_0_L1D_demand_hit 8144024
Core_0_L1D_demand_miss 4907902
Core_0_L1D_demand_MPKI 98.158
Core_0_L1D_demand_miss_rate 0.376029
Core_0_L1D_load_access 13051926
Core_0_L1D_load_hit 8144024
Core_0_L1D_load_miss 4907902
Core_0_L1D_load_MPKI 98.158
Core_0_L1D_load_miss_rate 0.376029
Core_0_L1D_rfo_access 0
Core_0_L1D_rfo_hit 0
Core_0_L1D_rfo_miss 0
Core_0_L1D_rfo_MPKI 0
Core_0_L1D_rfo_miss_rate 0
Core_0_L1D_prefetch_access 1596765
Core_0_L1D_prefetch_hit 217637
Core_0_L1D_prefetch_miss 1379128
Core_0_L1D_prefetch_MPKI 27.5826
Core_0_L1D_prefetch_miss_rate 0.863701
Core_0_L1D_writeback_access 2814589
Core_0_L1D_writeback_hit 2811891
Core_0_L1D_writeback_miss 2698
Core_0_L1D_writeback_MPKI 0.05396
Core_0_L1D_writeback_miss_rate 0.000958577
Core_0_L1D_prefetch_requested 1596762
Core_0_L1D_prefetch_issued 1596760
Core_0_L1D_prefetch_useful 619991
Core_0_L1D_prefetch_useless 754302
Core_0_L1D_prefetch_late 44034
Core_0_L1D_prefetch_accuracy 0.388281
Core_0_L1D_prefetch_coverage 0.112157

Core_0_L2C_total_access 5762581
Core_0_L2C_total_hit 782536
Core_0_L2C_total_miss 4980045
Core_0_L2C_total_MPKI 99.6009
Core_0_L2C_total_miss_rate 0.864204
Core_0_L2C_demand_access 3676697
Core_0_L2C_demand_hit 377889
Core_0_L2C_demand_miss 3298808
Core_0_L2C_demand_MPKI 65.9762
Core_0_L2C_demand_miss_rate 0.897221
Core_0_L2C_load_access 3675348
Core_0_L2C_load_hit 376595
Core_0_L2C_load_miss 3298753
Core_0_L2C_load_MPKI 65.9751
Core_0_L2C_load_miss_rate 0.897535
Core_0_L2C_rfo_access 1349
Core_0_L2C_rfo_hit 1294
Core_0_L2C_rfo_miss 55
Core_0_L2C_rfo_MPKI 0.0011
Core_0_L2C_rfo_miss_rate 0.0407709
Core_0_L2C_prefetch_access 1994164
Core_0_L2C_prefetch_hit 312950
Core_0_L2C_prefetch_miss 1681214
Core_0_L2C_prefetch_MPKI 33.6243
Core_0_L2C_prefetch_miss_rate 0.843067
Core_0_L2C_writeback_access 91720
Core_0_L2C_writeback_hit 91697
Core_0_L2C_writeback_miss 23
Core_0_L2C_writeback_MPKI 0.00046
Core_0_L2C_writeback_miss_rate 0.000250763
Core_0_L2C_prefetch_requested 619874
Core_0_L2C_prefetch_issued 619874
Core_0_L2C_prefetch_useful 256914
Core_0_L2C_prefetch_useless 162259
Core_0_L2C_prefetch_late 3884
Core_0_L2C_prefetch_accuracy 0.414462
Core_0_L2C_prefetch_coverage 0.0722537

Core_0_LLC_total_access 5010384
Core_0_LLC_total_hit 1495329
Core_0_LLC_total_miss 3515055
Core_0_LLC_total_MPKI 70.3011
Core_0_LLC_total_miss_rate 0.701554
Core_0_LLC_demand_access 3294924
Core_0_LLC_demand_hit 1375777
Core_0_LLC_demand_miss 1919147
Core_0_LLC_demand_MPKI 38.3829
Core_0_LLC_demand_miss_rate 0.582456
Core_0_LLC_load_access 3294869
Core_0_LLC_load_hit 1375722
Core_0_LLC_load_miss 1919147
Core_0_LLC_load_MPKI 38.3829
Core_0_LLC_load_miss_rate 0.582465
Core_0_LLC_rfo_access 55
Core_0_LLC_rfo_hit 55
Core_0_LLC_rfo_miss 0
Core_0_LLC_rfo_MPKI 0
Core_0_LLC_rfo_miss_rate 0
Core_0_LLC_prefetch_access 1626316
Core_0_LLC_prefetch_hit 103143
Core_0_LLC_prefetch_miss 1523173
Core_0_LLC_prefetch_MPKI 30.4635
Core_0_LLC_prefetch_miss_rate 0.936579
Core_0_LLC_writeback_access 89144
Core_0_LLC_writeback_hit 16409
Core_0_LLC_writeback_miss 72735
Core_0_LLC_writeback_MPKI 1.4547
Core_0_LLC_writeback_miss_rate 0.815927
Core_0_LLC_prefetch_requested 0
Core_0_LLC_prefetch_issued 0
Core_0_LLC_prefetch_useful 0
Core_0_LLC_prefetch_useless 0
Core_0_LLC_prefetch_late 0
Core_0_LLC_prefetch_accuracy 0
Core_0_LLC_prefetch_coverage 0

[DRAM Statistics]
Channel_0_RQ_row_buffer_hit 208173
Channel_0_RQ_row_buffer_miss 3243826
Channel_0_WQ_row_buffer_hit 29686
Channel_0_WQ_row_buffer_miss 60290
Channel_0_WQ_full 0
Channel_0_dbus_congested 8357277
DRAM_total_RQ_row_buffer_hit 208173
DRAM_total_RQ_row_buffer_miss 3243826
DRAM_total_WQ_row_buffer_hit 29686
DRAM_total_WQ_row_buffer_miss 60290
DRAM_total_WQ_full 0
DRAM_total_dbus_congested 8357277
DRAM_avg_congested_cycle 15.4085

====== DRAM_RQ_TRAFFIC ========
DRAM_RQ_READ_TRAFFIC_BREAKDOWN:
data_demand_read.count = 1919147
data_demand_read.share = 55.60%

inst_demand_read.count = 0
inst_demand_read.share = 0.00%

cache_inst_prefetch.count = 0
cache_inst_prefetch.share = 0.00%

cache_data_prefetch.count = 1523173
cache_data_prefetch.share = 44.12%

stlb_data_demand.count = 5452
stlb_data_demand.share = 0.16%

stlb_inst_demand.count = 0
stlb_inst_demand.share = 0.00%

stlb_l1i_pref.count = 0
stlb_l1i_pref.share = 0.00%

stlb_l1d_pref.count = 4227
stlb_l1d_pref.share = 0.12%

DRAM_RQ_READ_TRAFFIC_SUMMARY:
cache_demand.count = 1919147
cache_demand.share = 55.60%

cache_prefetch.count = 1523173
cache_prefetch.share = 44.12%

stlb_demand.count = 5452
stlb_demand.share = 0.16%

stlb_prefetch.count = 4227
stlb_prefetch.share = 0.12%

DRAM_RQ_READ_TRAFFIC_DEBUG:
total_classified_read.count = 3451999
unclassified_read.count = 0
total_read_with_other.count = 3451999

classified_plus_unclassified_check.count = 3451999
dram_rq_read_total_observed.count = 3451999
dram_rq_read_total_observed.per_1K_instructions = 69.04

STLB_MISS_PTW_DRAM_TOUCH_BREAKDOWN:
stlb_miss_total.count = 227401

stlb_miss_touch_dram.count = 9599
stlb_miss_touch_dram.share = 4.22%

stlb_miss_no_dram_touch.count = 217802
stlb_miss_no_dram_touch.share = 95.78%

STLB_MISS_PTW_DRAM_TOUCH_DEBUG:
stlb_miss_touch_plus_no_touch.count = 227401
stlb_miss_total_check.count = 227401

======STLB miss causes ========
Core_0_STLB_miss_cause_breakdown
Core_0_STLB_cause_Demand_Data_miss 191445
Core_0_STLB_cause_Demand_Data_miss_rate 0.0662804
Core_0_STLB_cause_Demand_Instruction_miss 0
Core_0_STLB_cause_Demand_Instruction_miss_rate 0
Core_0_STLB_cause_L1D_Prefetch_miss 35956
Core_0_STLB_cause_L1D_Prefetch_miss_rate 0.0124484
Core_0_STLB_cause_L1I_Prefetch_miss 0
Core_0_STLB_cause_L1I_Prefetch_miss_rate 0
Core_0_STLB_cause_Other_miss 0
Core_0_STLB_cause_Other_miss_rate 0
Core_0_STLB_Demand_miss 191445
Core_0_STLB_Demand_miss_rate 0.0662804
Core_0_STLB_L1D_Prefetch_miss 35956
Core_0_STLB_L1D_Prefetch_miss_rate 0.0124484
Core_0_STLB_Other_miss 0
Core_0_STLB_Other_miss_rate 0
