[VMEM] WARNING: physical memory size is smaller than virtual memory size.

*** ChampSim Multicore Out-of-Order Simulator ***
Warmup Instructions: 20000000
Simulation Instructions: 50000000
Number of CPUs: 1
Page size: 4096
Core 0: /data2/zcq/champsim_traces_gap/bfs.urand-60B.champsimtrace.xz
 L1D Berti prefetcher
Off-chip DRAM Size: 16 GiB Channels: 1 Width: 64-bit Data Rate: 3205 MT/s
Warmup halting CPU 0 at instruction 20000005 cycle 6623468 for remainder of phase
Warmup finished CPU 0 instructions: 20000005 cycles: 6623468 cumulative IPC: 3.02 (Simulation time: 00 hr 01 min 35 sec)
Warmup complete CPU 0 instructions: 20000005 cycles: 6623468 cumulative IPC: 3.02 (Simulation time: 00 hr 01 min 35 sec)
Simulation finished CPU 0 instructions: 50000001 cycles: 321769681 cumulative IPC: 0.1554 (Simulation time: 00 hr 21 min 47 sec)
Simulation complete CPU 0 instructions: 50000001 cycles: 321769681 cumulative IPC: 0.1554 (Simulation time: 00 hr 21 min 47 sec)

ChampSim completed all CPUs

=== Simulation ===
CPU 0 runs /data2/zcq/champsim_traces_gap/bfs.urand-60B.champsimtrace.xz

Region of Interest Statistics

CPU 0 cumulative IPC: 0.1554 instructions: 50000001 cycles: 321769681
CPU 0 Branch Prediction Accuracy: 86.37% MPKI: 24.22 Average ROB Occupancy at Mispredict: 20.11
Branch type MPKI
BRANCH_DIRECT_JUMP: 0
BRANCH_INDIRECT: 0
BRANCH_CONDITIONAL: 24.22
BRANCH_DIRECT_CALL: 0
BRANCH_INDIRECT_CALL: 0
BRANCH_RETURN: 0

cpu0->cpu0_STLB TOTAL        ACCESS:    3136175 HIT:    2810665 MISS:     325510 MSHR_MERGE:          0
cpu0->cpu0_STLB LOAD         ACCESS:    3136175 HIT:    2810665 MISS:     325510 MSHR_MERGE:          0
cpu0->cpu0_STLB RFO          ACCESS:          0 HIT:          0 MISS:          0 MSHR_MERGE:          0
cpu0->cpu0_STLB PREFETCH     ACCESS:          0 HIT:          0 MISS:          0 MSHR_MERGE:          0
cpu0->cpu0_STLB WRITE        ACCESS:          0 HIT:          0 MISS:          0 MSHR_MERGE:          0
cpu0->cpu0_STLB TRANSLATION  ACCESS:          0 HIT:          0 MISS:          0 MSHR_MERGE:          0
cpu0->cpu0_STLB PREFETCH REQUESTED:          0 ISSUED:          0 USEFUL:          0 USELESS:          0 LATE:          0
cpu0->cpu0_STLB AVERAGE MISS LATENCY: 57.86 cycles
cpu0->cpu0_L2C TOTAL        ACCESS:    6107063 HIT:     953657 MISS:    5153406 MSHR_MERGE:      62491
cpu0->cpu0_L2C LOAD         ACCESS:    3849607 HIT:     372435 MISS:    3477172 MSHR_MERGE:       3991
cpu0->cpu0_L2C RFO          ACCESS:          0 HIT:          0 MISS:          0 MSHR_MERGE:          0
cpu0->cpu0_L2C PREFETCH     ACCESS:    1925767 HIT:     329517 MISS:    1596250 MSHR_MERGE:      58500
cpu0->cpu0_L2C WRITE        ACCESS:      79169 HIT:      79145 MISS:         24 MSHR_MERGE:          0
cpu0->cpu0_L2C TRANSLATION  ACCESS:     252520 HIT:     172560 MISS:      79960 MSHR_MERGE:          0
cpu0->cpu0_L2C PREFETCH REQUESTED:     633401 ISSUED:     633401 USEFUL:     274151 USELESS:     152054 LATE:       3991
cpu0->cpu0_L2C AVERAGE MISS LATENCY: 144.2 cycles
cpu0->cpu0_L1I TOTAL        ACCESS:          5 HIT:          5 MISS:          0 MSHR_MERGE:          0
cpu0->cpu0_L1I LOAD         ACCESS:          5 HIT:          5 MISS:          0 MSHR_MERGE:          0
cpu0->cpu0_L1I RFO          ACCESS:          0 HIT:          0 MISS:          0 MSHR_MERGE:          0
cpu0->cpu0_L1I PREFETCH     ACCESS:          0 HIT:          0 MISS:          0 MSHR_MERGE:          0
cpu0->cpu0_L1I WRITE        ACCESS:          0 HIT:          0 MISS:          0 MSHR_MERGE:          0
cpu0->cpu0_L1I TRANSLATION  ACCESS:          0 HIT:          0 MISS:          0 MSHR_MERGE:          0
cpu0->cpu0_L1I PREFETCH REQUESTED:          0 ISSUED:          0 USEFUL:          0 USELESS:          0 LATE:          0
cpu0->cpu0_L1I AVERAGE MISS LATENCY: - cycles
cpu0->cpu0_L1D TOTAL        ACCESS:   17724776 HIT:   11011200 MISS:    6713576 MSHR_MERGE:    1319082
cpu0->cpu0_L1D LOAD         ACCESS:   12938126 HIT:    7775823 MISS:    5162303 MSHR_MERGE:    1312695
cpu0->cpu0_L1D RFO          ACCESS:          0 HIT:          0 MISS:          0 MSHR_MERGE:          0
cpu0->cpu0_L1D PREFETCH     ACCESS:    1511821 HIT:     214961 MISS:    1296860 MSHR_MERGE:       4494
cpu0->cpu0_L1D WRITE        ACCESS:    2626130 HIT:    2626130 MISS:          0 MSHR_MERGE:          0
cpu0->cpu0_L1D TRANSLATION  ACCESS:     648699 HIT:     394286 MISS:     254413 MSHR_MERGE:       1893
cpu0->cpu0_L1D PREFETCH REQUESTED:    1511818 ISSUED:    1511818 USEFUL:     609894 USELESS:     682473 LATE:      41512
cpu0->cpu0_L1D AVERAGE MISS LATENCY: 133.8 cycles
cpu0->cpu0_ITLB TOTAL        ACCESS:          5 HIT:          5 MISS:          0 MSHR_MERGE:          0
cpu0->cpu0_ITLB LOAD         ACCESS:          5 HIT:          5 MISS:          0 MSHR_MERGE:          0
cpu0->cpu0_ITLB RFO          ACCESS:          0 HIT:          0 MISS:          0 MSHR_MERGE:          0
cpu0->cpu0_ITLB PREFETCH     ACCESS:          0 HIT:          0 MISS:          0 MSHR_MERGE:          0
cpu0->cpu0_ITLB WRITE        ACCESS:          0 HIT:          0 MISS:          0 MSHR_MERGE:          0
cpu0->cpu0_ITLB TRANSLATION  ACCESS:          0 HIT:          0 MISS:          0 MSHR_MERGE:          0
cpu0->cpu0_ITLB PREFETCH REQUESTED:          0 ISSUED:          0 USEFUL:          0 USELESS:          0 LATE:          0
cpu0->cpu0_ITLB AVERAGE MISS LATENCY: - cycles
cpu0->cpu0_DTLB TOTAL        ACCESS:   16615758 HIT:   13412312 MISS:    3203446 MSHR_MERGE:      67271
cpu0->cpu0_DTLB LOAD         ACCESS:   16615758 HIT:   13412312 MISS:    3203446 MSHR_MERGE:      67271
cpu0->cpu0_DTLB RFO          ACCESS:          0 HIT:          0 MISS:          0 MSHR_MERGE:          0
cpu0->cpu0_DTLB PREFETCH     ACCESS:          0 HIT:          0 MISS:          0 MSHR_MERGE:          0
cpu0->cpu0_DTLB WRITE        ACCESS:          0 HIT:          0 MISS:          0 MSHR_MERGE:          0
cpu0->cpu0_DTLB TRANSLATION  ACCESS:          0 HIT:          0 MISS:          0 MSHR_MERGE:          0
cpu0->cpu0_DTLB PREFETCH REQUESTED:          0 ISSUED:          0 USEFUL:          0 USELESS:          0 LATE:          0
cpu0->cpu0_DTLB AVERAGE MISS LATENCY: 11.22 cycles
cpu0->LLC TOTAL        ACCESS:    5168930 HIT:    1540594 MISS:    3628336 MSHR_MERGE:          0
cpu0->LLC LOAD         ACCESS:    3473181 HIT:    1366056 MISS:    2107125 MSHR_MERGE:          0
cpu0->LLC RFO          ACCESS:          0 HIT:          0 MISS:          0 MSHR_MERGE:          0
cpu0->LLC PREFETCH     ACCESS:    1537750 HIT:      89129 MISS:    1448621 MSHR_MERGE:          0
cpu0->LLC WRITE        ACCESS:      78039 HIT:      14380 MISS:      63659 MSHR_MERGE:          0
cpu0->LLC TRANSLATION  ACCESS:      79960 HIT:      71029 MISS:       8931 MSHR_MERGE:          0
cpu0->LLC PREFETCH REQUESTED:          0 ISSUED:          0 USEFUL:          0 USELESS:          0 LATE:          0
cpu0->LLC AVERAGE MISS LATENCY: 209.9 cycles

DRAM Statistics

Channel 0 RQ ROW_BUFFER_HIT:     169491
  ROW_BUFFER_MISS:    3395186
  AVG DBUS CONGESTED CYCLE: 14.65
Channel 0 WQ ROW_BUFFER_HIT:      25561
  ROW_BUFFER_MISS:      53077
  FULL:          0
Channel 0 REFRESHES ISSUED:      26815

[ROI Statistics]
[System Configuration]
num_cpus 1
cpu_freq 4000
fetch_width 6
decode_width 6
dispatch_width 6
execute_width 6
lq_width 2
sq_width 2
retire_width 6
scheduler_size 128
branch_mispredict_penalty 15
rob_size 352
lq_size 128
sq_size 72
ifetch_buffer_size 64
decode_buffer_size 32
dispatch_buffer_size 32
register_file_size 288
decode_latency 1
dispatch_latency 1
schedule_latency 1
execute_latency 1
page_size 4096
block_size 64
core_0_itlb_set 16
core_0_itlb_way 4
core_0_itlb_rq_size 16
core_0_itlb_wq_size 16
core_0_itlb_pq_size 0
core_0_itlb_mshr_size 8
core_0_itlb_hit_latency 1
core_0_itlb_fill_latency 1
core_0_itlb_max_tag_check 2
core_0_itlb_max_fill 2
core_0_dtlb_set 16
core_0_dtlb_way 4
core_0_dtlb_rq_size 16
core_0_dtlb_wq_size 16
core_0_dtlb_pq_size 0
core_0_dtlb_mshr_size 8
core_0_dtlb_hit_latency 1
core_0_dtlb_fill_latency 1
core_0_dtlb_max_tag_check 2
core_0_dtlb_max_fill 2
core_0_stlb_set 128
core_0_stlb_way 12
core_0_stlb_rq_size 32
core_0_stlb_wq_size 32
core_0_stlb_pq_size 0
core_0_stlb_mshr_size 16
core_0_stlb_hit_latency 4
core_0_stlb_fill_latency 4
core_0_stlb_max_tag_check 1
core_0_stlb_max_fill 1
core_0_l1i_set 64
core_0_l1i_way 8
core_0_l1i_rq_size 64
core_0_l1i_wq_size 64
core_0_l1i_pq_size 32
core_0_l1i_mshr_size 8
core_0_l1i_hit_latency 2
core_0_l1i_fill_latency 2
core_0_l1i_max_tag_check 2
core_0_l1i_max_fill 2
core_0_l1d_set 64
core_0_l1d_way 12
core_0_l1d_rq_size 64
core_0_l1d_wq_size 64
core_0_l1d_pq_size 8
core_0_l1d_mshr_size 16
core_0_l1d_hit_latency 2
core_0_l1d_fill_latency 3
core_0_l1d_max_tag_check 2
core_0_l1d_max_fill 2
core_0_l2c_set 1024
core_0_l2c_way 8
core_0_l2c_rq_size 32
core_0_l2c_wq_size 32
core_0_l2c_pq_size 16
core_0_l2c_mshr_size 32
core_0_l2c_hit_latency 5
core_0_l2c_fill_latency 5
core_0_l2c_max_tag_check 1
core_0_l2c_max_fill 1
llc_set 2048
llc_way 16
llc_rq_size 32
llc_wq_size 32
llc_pq_size 32
llc_mshr_size 64
llc_hit_latency 10
llc_fill_latency 10
llc_max_tag_check 1
llc_max_fill 1
dram_channels 1
dram_ranks 1
dram_bankgroups 8
dram_banks 4
dram_rows 65536
dram_columns 1024
dram_channel_width 8
dram_rq_size 64
dram_wq_size 64
dram_size 17179869184
core_0_itlb_prefetcher no
core_0_dtlb_prefetcher no
core_0_stlb_prefetcher no
core_0_l1i_prefetcher next_line
core_0_l1d_prefetcher berti
core_0_l2c_prefetcher ip_stride
llc_prefetcher no
llc_replacement drrip

Core_0_instructions 50000001
Core_0_cycles 321769681
Core_0_IPC 0.155391
Core_0_branch_prediction_accuracy 86.3699
Core_0_branch_MPKI 24.2244
Core_0_average_ROB_occupancy_at_mispredict 20.1114

Core_0_ITLB_total_access 5
Core_0_ITLB_total_hit 5
Core_0_ITLB_total_miss 0
Core_0_ITLB_total_MPKI 0
Core_0_ITLB_total_miss_rate 0
Core_0_ITLB_demand_access 5
Core_0_ITLB_demand_hit 5
Core_0_ITLB_demand_miss 0
Core_0_ITLB_demand_MPKI 0
Core_0_ITLB_demand_miss_rate 0
Core_0_ITLB_load_access 5
Core_0_ITLB_load_hit 5
Core_0_ITLB_load_miss 0
Core_0_ITLB_load_MPKI 0
Core_0_ITLB_load_miss_rate 0
Core_0_ITLB_rfo_access 0
Core_0_ITLB_rfo_hit 0
Core_0_ITLB_rfo_miss 0
Core_0_ITLB_rfo_MPKI 0
Core_0_ITLB_rfo_miss_rate 0
Core_0_ITLB_prefetch_access 0
Core_0_ITLB_prefetch_hit 0
Core_0_ITLB_prefetch_miss 0
Core_0_ITLB_prefetch_MPKI 0
Core_0_ITLB_prefetch_miss_rate 0
Core_0_ITLB_writeback_access 0
Core_0_ITLB_writeback_hit 0
Core_0_ITLB_writeback_miss 0
Core_0_ITLB_writeback_MPKI 0
Core_0_ITLB_writeback_miss_rate 0
Core_0_ITLB_prefetch_requested 0
Core_0_ITLB_prefetch_issued 0
Core_0_ITLB_prefetch_useful 0
Core_0_ITLB_prefetch_useless 0
Core_0_ITLB_prefetch_late 0
Core_0_ITLB_prefetch_accuracy 0
Core_0_ITLB_prefetch_coverage 0

Core_0_DTLB_total_access 16615758
Core_0_DTLB_total_hit 13412312
Core_0_DTLB_total_miss 3203446
Core_0_DTLB_total_MPKI 64.0689
Core_0_DTLB_total_miss_rate 0.192796
Core_0_DTLB_demand_access 16615758
Core_0_DTLB_demand_hit 13412312
Core_0_DTLB_demand_miss 3203446
Core_0_DTLB_demand_MPKI 64.0689
Core_0_DTLB_demand_miss_rate 0.192796
Core_0_DTLB_load_access 16615758
Core_0_DTLB_load_hit 13412312
Core_0_DTLB_load_miss 3203446
Core_0_DTLB_load_MPKI 64.0689
Core_0_DTLB_load_miss_rate 0.192796
Core_0_DTLB_rfo_access 0
Core_0_DTLB_rfo_hit 0
Core_0_DTLB_rfo_miss 0
Core_0_DTLB_rfo_MPKI 0
Core_0_DTLB_rfo_miss_rate 0
Core_0_DTLB_prefetch_access 0
Core_0_DTLB_prefetch_hit 0
Core_0_DTLB_prefetch_miss 0
Core_0_DTLB_prefetch_MPKI 0
Core_0_DTLB_prefetch_miss_rate 0
Core_0_DTLB_writeback_access 0
Core_0_DTLB_writeback_hit 0
Core_0_DTLB_writeback_miss 0
Core_0_DTLB_writeback_MPKI 0
Core_0_DTLB_writeback_miss_rate 0
Core_0_DTLB_prefetch_requested 0
Core_0_DTLB_prefetch_issued 0
Core_0_DTLB_prefetch_useful 0
Core_0_DTLB_prefetch_useless 0
Core_0_DTLB_prefetch_late 0
Core_0_DTLB_prefetch_accuracy 0
Core_0_DTLB_prefetch_coverage 0

Core_0_STLB_total_access 3136175
Core_0_STLB_total_hit 2810665
Core_0_STLB_total_miss 325510
Core_0_STLB_total_MPKI 6.5102
Core_0_STLB_total_miss_rate 0.103792
Core_0_STLB_demand_access 3136175
Core_0_STLB_demand_hit 2810665
Core_0_STLB_demand_miss 325510
Core_0_STLB_demand_MPKI 6.5102
Core_0_STLB_demand_miss_rate 0.103792
Core_0_STLB_load_access 3136175
Core_0_STLB_load_hit 2810665
Core_0_STLB_load_miss 325510
Core_0_STLB_load_MPKI 6.5102
Core_0_STLB_load_miss_rate 0.103792
Core_0_STLB_rfo_access 0
Core_0_STLB_rfo_hit 0
Core_0_STLB_rfo_miss 0
Core_0_STLB_rfo_MPKI 0
Core_0_STLB_rfo_miss_rate 0
Core_0_STLB_prefetch_access 0
Core_0_STLB_prefetch_hit 0
Core_0_STLB_prefetch_miss 0
Core_0_STLB_prefetch_MPKI 0
Core_0_STLB_prefetch_miss_rate 0
Core_0_STLB_writeback_access 0
Core_0_STLB_writeback_hit 0
Core_0_STLB_writeback_miss 0
Core_0_STLB_writeback_MPKI 0
Core_0_STLB_writeback_miss_rate 0
Core_0_STLB_prefetch_requested 0
Core_0_STLB_prefetch_issued 0
Core_0_STLB_prefetch_useful 0
Core_0_STLB_prefetch_useless 0
Core_0_STLB_prefetch_late 0
Core_0_STLB_prefetch_accuracy 0
Core_0_STLB_prefetch_coverage 0

Core_0_L1I_total_access 5
Core_0_L1I_total_hit 5
Core_0_L1I_total_miss 0
Core_0_L1I_total_MPKI 0
Core_0_L1I_total_miss_rate 0
Core_0_L1I_demand_access 5
Core_0_L1I_demand_hit 5
Core_0_L1I_demand_miss 0
Core_0_L1I_demand_MPKI 0
Core_0_L1I_demand_miss_rate 0
Core_0_L1I_load_access 5
Core_0_L1I_load_hit 5
Core_0_L1I_load_miss 0
Core_0_L1I_load_MPKI 0
Core_0_L1I_load_miss_rate 0
Core_0_L1I_rfo_access 0
Core_0_L1I_rfo_hit 0
Core_0_L1I_rfo_miss 0
Core_0_L1I_rfo_MPKI 0
Core_0_L1I_rfo_miss_rate 0
Core_0_L1I_prefetch_access 0
Core_0_L1I_prefetch_hit 0
Core_0_L1I_prefetch_miss 0
Core_0_L1I_prefetch_MPKI 0
Core_0_L1I_prefetch_miss_rate 0
Core_0_L1I_writeback_access 0
Core_0_L1I_writeback_hit 0
Core_0_L1I_writeback_miss 0
Core_0_L1I_writeback_MPKI 0
Core_0_L1I_writeback_miss_rate 0
Core_0_L1I_prefetch_requested 0
Core_0_L1I_prefetch_issued 0
Core_0_L1I_prefetch_useful 0
Core_0_L1I_prefetch_useless 0
Core_0_L1I_prefetch_late 0
Core_0_L1I_prefetch_accuracy 0
Core_0_L1I_prefetch_coverage 0

Core_0_L1D_total_access 17076077
Core_0_L1D_total_hit 10616914
Core_0_L1D_total_miss 6459163
Core_0_L1D_total_MPKI 129.183
Core_0_L1D_total_miss_rate 0.378258
Core_0_L1D_demand_access 12938126
Core_0_L1D_demand_hit 7775823
Core_0_L1D_demand_miss 5162303
Core_0_L1D_demand_MPKI 103.246
Core_0_L1D_demand_miss_rate 0.398999
Core_0_L1D_load_access 12938126
Core_0_L1D_load_hit 7775823
Core_0_L1D_load_miss 5162303
Core_0_L1D_load_MPKI 103.246
Core_0_L1D_load_miss_rate 0.398999
Core_0_L1D_rfo_access 0
Core_0_L1D_rfo_hit 0
Core_0_L1D_rfo_miss 0
Core_0_L1D_rfo_MPKI 0
Core_0_L1D_rfo_miss_rate 0
Core_0_L1D_prefetch_access 1511821
Core_0_L1D_prefetch_hit 214961
Core_0_L1D_prefetch_miss 1296860
Core_0_L1D_prefetch_MPKI 25.9372
Core_0_L1D_prefetch_miss_rate 0.857813
Core_0_L1D_writeback_access 2626130
Core_0_L1D_writeback_hit 2626130
Core_0_L1D_writeback_miss 0
Core_0_L1D_writeback_MPKI 0
Core_0_L1D_writeback_miss_rate 0
Core_0_L1D_prefetch_requested 1511818
Core_0_L1D_prefetch_issued 1511818
Core_0_L1D_prefetch_useful 609894
Core_0_L1D_prefetch_useless 682473
Core_0_L1D_prefetch_late 41512
Core_0_L1D_prefetch_accuracy 0.403418
Core_0_L1D_prefetch_coverage 0.105661

Core_0_L2C_total_access 5854543
Core_0_L2C_total_hit 781097
Core_0_L2C_total_miss 5073446
Core_0_L2C_total_MPKI 101.469
Core_0_L2C_total_miss_rate 0.866583
Core_0_L2C_demand_access 3849607
Core_0_L2C_demand_hit 372435
Core_0_L2C_demand_miss 3477172
Core_0_L2C_demand_MPKI 69.5434
Core_0_L2C_demand_miss_rate 0.903254
Core_0_L2C_load_access 3849607
Core_0_L2C_load_hit 372435
Core_0_L2C_load_miss 3477172
Core_0_L2C_load_MPKI 69.5434
Core_0_L2C_load_miss_rate 0.903254
Core_0_L2C_rfo_access 0
Core_0_L2C_rfo_hit 0
Core_0_L2C_rfo_miss 0
Core_0_L2C_rfo_MPKI 0
Core_0_L2C_rfo_miss_rate 0
Core_0_L2C_prefetch_access 1925767
Core_0_L2C_prefetch_hit 329517
Core_0_L2C_prefetch_miss 1596250
Core_0_L2C_prefetch_MPKI 31.925
Core_0_L2C_prefetch_miss_rate 0.828891
Core_0_L2C_writeback_access 79169
Core_0_L2C_writeback_hit 79145
Core_0_L2C_writeback_miss 24
Core_0_L2C_writeback_MPKI 0.00048
Core_0_L2C_writeback_miss_rate 0.000303149
Core_0_L2C_prefetch_requested 633401
Core_0_L2C_prefetch_issued 633401
Core_0_L2C_prefetch_useful 274151
Core_0_L2C_prefetch_useless 152054
Core_0_L2C_prefetch_late 3991
Core_0_L2C_prefetch_accuracy 0.432824
Core_0_L2C_prefetch_coverage 0.0730812

Core_0_LLC_total_access 5088970
Core_0_LLC_total_hit 1469565
Core_0_LLC_total_miss 3619405
Core_0_LLC_total_MPKI 72.3881
Core_0_LLC_total_miss_rate 0.711225
Core_0_LLC_demand_access 3473181
Core_0_LLC_demand_hit 1366056
Core_0_LLC_demand_miss 2107125
Core_0_LLC_demand_MPKI 42.1425
Core_0_LLC_demand_miss_rate 0.606684
Core_0_LLC_load_access 3473181
Core_0_LLC_load_hit 1366056
Core_0_LLC_load_miss 2107125
Core_0_LLC_load_MPKI 42.1425
Core_0_LLC_load_miss_rate 0.606684
Core_0_LLC_rfo_access 0
Core_0_LLC_rfo_hit 0
Core_0_LLC_rfo_miss 0
Core_0_LLC_rfo_MPKI 0
Core_0_LLC_rfo_miss_rate 0
Core_0_LLC_prefetch_access 1537750
Core_0_LLC_prefetch_hit 89129
Core_0_LLC_prefetch_miss 1448621
Core_0_LLC_prefetch_MPKI 28.9724
Core_0_LLC_prefetch_miss_rate 0.942039
Core_0_LLC_writeback_access 78039
Core_0_LLC_writeback_hit 14380
Core_0_LLC_writeback_miss 63659
Core_0_LLC_writeback_MPKI 1.27318
Core_0_LLC_writeback_miss_rate 0.815733
Core_0_LLC_prefetch_requested 0
Core_0_LLC_prefetch_issued 0
Core_0_LLC_prefetch_useful 0
Core_0_LLC_prefetch_useless 0
Core_0_LLC_prefetch_late 0
Core_0_LLC_prefetch_accuracy 0
Core_0_LLC_prefetch_coverage 0

[DRAM Statistics]
Channel_0_RQ_row_buffer_hit 169491
Channel_0_RQ_row_buffer_miss 3395186
Channel_0_WQ_row_buffer_hit 25561
Channel_0_WQ_row_buffer_miss 53077
Channel_0_WQ_full 0
Channel_0_dbus_congested 8532112
DRAM_total_RQ_row_buffer_hit 169491
DRAM_total_RQ_row_buffer_miss 3395186
DRAM_total_WQ_row_buffer_hit 25561
DRAM_total_WQ_row_buffer_miss 53077
DRAM_total_WQ_full 0
DRAM_total_dbus_congested 8532112
DRAM_avg_congested_cycle 14.6501

====== DRAM_RQ_TRAFFIC ========
DRAM_RQ_READ_TRAFFIC_BREAKDOWN:
data_demand_read.count = 2107125
data_demand_read.share = 59.11%

inst_demand_read.count = 0
inst_demand_read.share = 0.00%

cache_inst_prefetch.count = 0
cache_inst_prefetch.share = 0.00%

cache_data_prefetch.count = 1448621
cache_data_prefetch.share = 40.64%

stlb_data_demand.count = 5346
stlb_data_demand.share = 0.15%

stlb_inst_demand.count = 0
stlb_inst_demand.share = 0.00%

stlb_l1i_pref.count = 0
stlb_l1i_pref.share = 0.00%

stlb_l1d_pref.count = 3585
stlb_l1d_pref.share = 0.10%

DRAM_RQ_READ_TRAFFIC_SUMMARY:
cache_demand.count = 2107125
cache_demand.share = 59.11%

cache_prefetch.count = 1448621
cache_prefetch.share = 40.64%

stlb_demand.count = 5346
stlb_demand.share = 0.15%

stlb_prefetch.count = 3585
stlb_prefetch.share = 0.10%

DRAM_RQ_READ_TRAFFIC_DEBUG:
total_classified_read.count = 3564677
unclassified_read.count = 0
total_read_with_other.count = 3564677

classified_plus_unclassified_check.count = 3564677
dram_rq_read_total_observed.count = 3564677
dram_rq_read_total_observed.per_1K_instructions = 71.2935

STLB_MISS_PTW_DRAM_TOUCH_BREAKDOWN:
stlb_miss_total.count = 325510

stlb_miss_touch_dram.count = 8859
stlb_miss_touch_dram.share = 2.72%

stlb_miss_no_dram_touch.count = 316651
stlb_miss_no_dram_touch.share = 97.28%

STLB_MISS_PTW_DRAM_TOUCH_DEBUG:
stlb_miss_touch_plus_no_touch.count = 325510
stlb_miss_total_check.count = 325510

======STLB miss causes ========
Core_0_STLB_miss_cause_breakdown
Core_0_STLB_cause_Demand_Data_miss 293158
Core_0_STLB_cause_Demand_Data_miss_rate 0.0934763
Core_0_STLB_cause_Demand_Instruction_miss 0
Core_0_STLB_cause_Demand_Instruction_miss_rate 0
Core_0_STLB_cause_L1D_Prefetch_miss 32352
Core_0_STLB_cause_L1D_Prefetch_miss_rate 0.0103158
Core_0_STLB_cause_L1I_Prefetch_miss 0
Core_0_STLB_cause_L1I_Prefetch_miss_rate 0
Core_0_STLB_cause_Other_miss 0
Core_0_STLB_cause_Other_miss_rate 0
Core_0_STLB_Demand_miss 293158
Core_0_STLB_Demand_miss_rate 0.0934763
Core_0_STLB_L1D_Prefetch_miss 32352
Core_0_STLB_L1D_Prefetch_miss_rate 0.0103158
Core_0_STLB_Other_miss 0
Core_0_STLB_Other_miss_rate 0
