[VMEM] WARNING: physical memory size is smaller than virtual memory size.

*** ChampSim Multicore Out-of-Order Simulator ***
Warmup Instructions: 20000000
Simulation Instructions: 50000000
Number of CPUs: 1
Page size: 4096
Core 0: /data2/zcq/champsim_traces_xsbench/xs.XL100nuclide-185B.champsimtrace.xz
 L1D Berti prefetcher
Off-chip DRAM Size: 16 GiB Channels: 1 Width: 64-bit Data Rate: 3205 MT/s
Warmup halting CPU 0 at instruction 20000000 cycle 15201211 for remainder of phase
Warmup finished CPU 0 instructions: 20000000 cycles: 15201211 cumulative IPC: 1.316 (Simulation time: 00 hr 02 min 34 sec)
Warmup complete CPU 0 instructions: 20000000 cycles: 15201211 cumulative IPC: 1.316 (Simulation time: 00 hr 02 min 34 sec)
Simulation finished CPU 0 instructions: 50000000 cycles: 339900324 cumulative IPC: 0.1471 (Simulation time: 00 hr 22 min 58 sec)
Simulation complete CPU 0 instructions: 50000000 cycles: 339900324 cumulative IPC: 0.1471 (Simulation time: 00 hr 22 min 58 sec)

ChampSim completed all CPUs

=== Simulation ===
CPU 0 runs /data2/zcq/champsim_traces_xsbench/xs.XL100nuclide-185B.champsimtrace.xz

Region of Interest Statistics

CPU 0 cumulative IPC: 0.1471 instructions: 50000000 cycles: 339900324
CPU 0 Branch Prediction Accuracy: 87.1% MPKI: 21.54 Average ROB Occupancy at Mispredict: 25.73
Branch type MPKI
BRANCH_DIRECT_JUMP: 4e-05
BRANCH_INDIRECT: 0
BRANCH_CONDITIONAL: 21.54
BRANCH_DIRECT_CALL: 0
BRANCH_INDIRECT_CALL: 0
BRANCH_RETURN: 0

cpu0->cpu0_STLB TOTAL        ACCESS:    1969974 HIT:      72151 MISS:    1897823 MSHR_MERGE:          0
cpu0->cpu0_STLB LOAD         ACCESS:    1969974 HIT:      72151 MISS:    1897823 MSHR_MERGE:          0
cpu0->cpu0_STLB RFO          ACCESS:          0 HIT:          0 MISS:          0 MSHR_MERGE:          0
cpu0->cpu0_STLB PREFETCH     ACCESS:          0 HIT:          0 MISS:          0 MSHR_MERGE:          0
cpu0->cpu0_STLB WRITE        ACCESS:          0 HIT:          0 MISS:          0 MSHR_MERGE:          0
cpu0->cpu0_STLB TRANSLATION  ACCESS:          0 HIT:          0 MISS:          0 MSHR_MERGE:          0
cpu0->cpu0_STLB PREFETCH REQUESTED:          0 ISSUED:          0 USEFUL:          0 USELESS:          0 LATE:          0
cpu0->cpu0_STLB AVERAGE MISS LATENCY: 169.5 cycles
cpu0->cpu0_L2C TOTAL        ACCESS:    4915922 HIT:     268476 MISS:    4647446 MSHR_MERGE:       2786
cpu0->cpu0_L2C LOAD         ACCESS:    2934286 HIT:     110169 MISS:    2824117 MSHR_MERGE:         58
cpu0->cpu0_L2C RFO          ACCESS:      12625 HIT:      12164 MISS:        461 MSHR_MERGE:          0
cpu0->cpu0_L2C PREFETCH     ACCESS:     508743 HIT:      48775 MISS:     459968 MSHR_MERGE:       2728
cpu0->cpu0_L2C WRITE        ACCESS:      14034 HIT:      14008 MISS:         26 MSHR_MERGE:          0
cpu0->cpu0_L2C TRANSLATION  ACCESS:    1446234 HIT:      83360 MISS:    1362874 MSHR_MERGE:          0
cpu0->cpu0_L2C PREFETCH REQUESTED:     140300 ISSUED:     140300 USEFUL:      10653 USELESS:      84770 LATE:         58
cpu0->cpu0_L2C AVERAGE MISS LATENCY: 151 cycles
cpu0->cpu0_L1I TOTAL        ACCESS:      10994 HIT:      10993 MISS:          1 MSHR_MERGE:          0
cpu0->cpu0_L1I LOAD         ACCESS:      10994 HIT:      10993 MISS:          1 MSHR_MERGE:          0
cpu0->cpu0_L1I RFO          ACCESS:          0 HIT:          0 MISS:          0 MSHR_MERGE:          0
cpu0->cpu0_L1I PREFETCH     ACCESS:          0 HIT:          0 MISS:          0 MSHR_MERGE:          0
cpu0->cpu0_L1I WRITE        ACCESS:          0 HIT:          0 MISS:          0 MSHR_MERGE:          0
cpu0->cpu0_L1I TRANSLATION  ACCESS:          0 HIT:          0 MISS:          0 MSHR_MERGE:          0
cpu0->cpu0_L1I PREFETCH REQUESTED:          0 ISSUED:          0 USEFUL:          0 USELESS:          0 LATE:          0
cpu0->cpu0_L1I AVERAGE MISS LATENCY: 164 cycles
cpu0->cpu0_L1D TOTAL        ACCESS:   10196999 HIT:    4689465 MISS:    5507534 MSHR_MERGE:     745934
cpu0->cpu0_L1D LOAD         ACCESS:    4816942 HIT:    1827649 MISS:    2989293 MSHR_MERGE:      55008
cpu0->cpu0_L1D RFO          ACCESS:          0 HIT:          0 MISS:          0 MSHR_MERGE:          0
cpu0->cpu0_L1D PREFETCH     ACCESS:     391345 HIT:      20060 MISS:     371285 MSHR_MERGE:       2842
cpu0->cpu0_L1D WRITE        ACCESS:     950650 HIT:     912830 MISS:      37820 MSHR_MERGE:      25182
cpu0->cpu0_L1D TRANSLATION  ACCESS:    4038062 HIT:    1928926 MISS:    2109136 MSHR_MERGE:     662902
cpu0->cpu0_L1D PREFETCH REQUESTED:     391345 ISSUED:     391345 USEFUL:      20549 USELESS:     347832 LATE:       1009
cpu0->cpu0_L1D AVERAGE MISS LATENCY: 153 cycles
cpu0->cpu0_ITLB TOTAL        ACCESS:       8906 HIT:       8906 MISS:          0 MSHR_MERGE:          0
cpu0->cpu0_ITLB LOAD         ACCESS:       8906 HIT:       8906 MISS:          0 MSHR_MERGE:          0
cpu0->cpu0_ITLB RFO          ACCESS:          0 HIT:          0 MISS:          0 MSHR_MERGE:          0
cpu0->cpu0_ITLB PREFETCH     ACCESS:          0 HIT:          0 MISS:          0 MSHR_MERGE:          0
cpu0->cpu0_ITLB WRITE        ACCESS:          0 HIT:          0 MISS:          0 MSHR_MERGE:          0
cpu0->cpu0_ITLB TRANSLATION  ACCESS:          0 HIT:          0 MISS:          0 MSHR_MERGE:          0
cpu0->cpu0_ITLB PREFETCH REQUESTED:          0 ISSUED:          0 USEFUL:          0 USELESS:          0 LATE:          0
cpu0->cpu0_ITLB AVERAGE MISS LATENCY: - cycles
cpu0->cpu0_DTLB TOTAL        ACCESS:    6072414 HIT:    3995287 MISS:    2077127 MSHR_MERGE:     107153
cpu0->cpu0_DTLB LOAD         ACCESS:    6072414 HIT:    3995287 MISS:    2077127 MSHR_MERGE:     107153
cpu0->cpu0_DTLB RFO          ACCESS:          0 HIT:          0 MISS:          0 MSHR_MERGE:          0
cpu0->cpu0_DTLB PREFETCH     ACCESS:          0 HIT:          0 MISS:          0 MSHR_MERGE:          0
cpu0->cpu0_DTLB WRITE        ACCESS:          0 HIT:          0 MISS:          0 MSHR_MERGE:          0
cpu0->cpu0_DTLB TRANSLATION  ACCESS:          0 HIT:          0 MISS:          0 MSHR_MERGE:          0
cpu0->cpu0_DTLB PREFETCH REQUESTED:          0 ISSUED:          0 USEFUL:          0 USELESS:          0 LATE:          0
cpu0->cpu0_DTLB AVERAGE MISS LATENCY: 169.3 cycles
cpu0->LLC TOTAL        ACCESS:    4645786 HIT:    1428351 MISS:    3217435 MSHR_MERGE:          0
cpu0->LLC LOAD         ACCESS:    2824059 HIT:     663525 MISS:    2160534 MSHR_MERGE:          0
cpu0->LLC RFO          ACCESS:        461 HIT:        459 MISS:          2 MSHR_MERGE:          0
cpu0->LLC PREFETCH     ACCESS:     457240 HIT:      24208 MISS:     433032 MSHR_MERGE:          0
cpu0->LLC WRITE        ACCESS:       1152 HIT:       1145 MISS:          7 MSHR_MERGE:          0
cpu0->LLC TRANSLATION  ACCESS:    1362874 HIT:     739014 MISS:     623860 MSHR_MERGE:          0
cpu0->LLC PREFETCH REQUESTED:          0 ISSUED:          0 USEFUL:          0 USELESS:          0 LATE:          0
cpu0->LLC AVERAGE MISS LATENCY: 203.5 cycles

DRAM Statistics

Channel 0 RQ ROW_BUFFER_HIT:      36706
  ROW_BUFFER_MISS:    3180722
  AVG DBUS CONGESTED CYCLE: 2.947
Channel 0 WQ ROW_BUFFER_HIT:          2
  ROW_BUFFER_MISS:          6
  FULL:          0
Channel 0 REFRESHES ISSUED:      28325

[ROI Statistics]
[System Configuration]
num_cpus 1
cpu_freq 4000
fetch_width 6
decode_width 6
dispatch_width 6
execute_width 6
lq_width 2
sq_width 2
retire_width 6
scheduler_size 128
branch_mispredict_penalty 15
rob_size 352
lq_size 128
sq_size 72
ifetch_buffer_size 64
decode_buffer_size 32
dispatch_buffer_size 32
register_file_size 288
decode_latency 1
dispatch_latency 1
schedule_latency 1
execute_latency 1
page_size 4096
block_size 64
core_0_itlb_set 16
core_0_itlb_way 4
core_0_itlb_rq_size 16
core_0_itlb_wq_size 16
core_0_itlb_pq_size 0
core_0_itlb_mshr_size 8
core_0_itlb_hit_latency 1
core_0_itlb_fill_latency 1
core_0_itlb_max_tag_check 2
core_0_itlb_max_fill 2
core_0_dtlb_set 16
core_0_dtlb_way 4
core_0_dtlb_rq_size 16
core_0_dtlb_wq_size 16
core_0_dtlb_pq_size 0
core_0_dtlb_mshr_size 8
core_0_dtlb_hit_latency 1
core_0_dtlb_fill_latency 1
core_0_dtlb_max_tag_check 2
core_0_dtlb_max_fill 2
core_0_stlb_set 128
core_0_stlb_way 12
core_0_stlb_rq_size 32
core_0_stlb_wq_size 32
core_0_stlb_pq_size 0
core_0_stlb_mshr_size 16
core_0_stlb_hit_latency 4
core_0_stlb_fill_latency 4
core_0_stlb_max_tag_check 1
core_0_stlb_max_fill 1
core_0_l1i_set 64
core_0_l1i_way 8
core_0_l1i_rq_size 64
core_0_l1i_wq_size 64
core_0_l1i_pq_size 32
core_0_l1i_mshr_size 8
core_0_l1i_hit_latency 2
core_0_l1i_fill_latency 2
core_0_l1i_max_tag_check 2
core_0_l1i_max_fill 2
core_0_l1d_set 64
core_0_l1d_way 12
core_0_l1d_rq_size 64
core_0_l1d_wq_size 64
core_0_l1d_pq_size 8
core_0_l1d_mshr_size 16
core_0_l1d_hit_latency 2
core_0_l1d_fill_latency 3
core_0_l1d_max_tag_check 2
core_0_l1d_max_fill 2
core_0_l2c_set 1024
core_0_l2c_way 8
core_0_l2c_rq_size 32
core_0_l2c_wq_size 32
core_0_l2c_pq_size 16
core_0_l2c_mshr_size 32
core_0_l2c_hit_latency 5
core_0_l2c_fill_latency 5
core_0_l2c_max_tag_check 1
core_0_l2c_max_fill 1
llc_set 2048
llc_way 16
llc_rq_size 32
llc_wq_size 32
llc_pq_size 32
llc_mshr_size 64
llc_hit_latency 10
llc_fill_latency 10
llc_max_tag_check 1
llc_max_fill 1
dram_channels 1
dram_ranks 1
dram_bankgroups 8
dram_banks 4
dram_rows 65536
dram_columns 1024
dram_channel_width 8
dram_rq_size 64
dram_wq_size 64
dram_size 17179869184
core_0_itlb_prefetcher no
core_0_dtlb_prefetcher no
core_0_stlb_prefetcher no
core_0_l1i_prefetcher next_line
core_0_l1d_prefetcher berti
core_0_l2c_prefetcher ip_stride
llc_prefetcher no
llc_replacement drrip

Core_0_instructions 50000000
Core_0_cycles 339900324
Core_0_IPC 0.147102
Core_0_branch_prediction_accuracy 87.1005
Core_0_branch_MPKI 21.5431
Core_0_average_ROB_occupancy_at_mispredict 25.7279

Core_0_ITLB_total_access 8906
Core_0_ITLB_total_hit 8906
Core_0_ITLB_total_miss 0
Core_0_ITLB_total_MPKI 0
Core_0_ITLB_total_miss_rate 0
Core_0_ITLB_demand_access 8906
Core_0_ITLB_demand_hit 8906
Core_0_ITLB_demand_miss 0
Core_0_ITLB_demand_MPKI 0
Core_0_ITLB_demand_miss_rate 0
Core_0_ITLB_load_access 8906
Core_0_ITLB_load_hit 8906
Core_0_ITLB_load_miss 0
Core_0_ITLB_load_MPKI 0
Core_0_ITLB_load_miss_rate 0
Core_0_ITLB_rfo_access 0
Core_0_ITLB_rfo_hit 0
Core_0_ITLB_rfo_miss 0
Core_0_ITLB_rfo_MPKI 0
Core_0_ITLB_rfo_miss_rate 0
Core_0_ITLB_prefetch_access 0
Core_0_ITLB_prefetch_hit 0
Core_0_ITLB_prefetch_miss 0
Core_0_ITLB_prefetch_MPKI 0
Core_0_ITLB_prefetch_miss_rate 0
Core_0_ITLB_writeback_access 0
Core_0_ITLB_writeback_hit 0
Core_0_ITLB_writeback_miss 0
Core_0_ITLB_writeback_MPKI 0
Core_0_ITLB_writeback_miss_rate 0
Core_0_ITLB_prefetch_requested 0
Core_0_ITLB_prefetch_issued 0
Core_0_ITLB_prefetch_useful 0
Core_0_ITLB_prefetch_useless 0
Core_0_ITLB_prefetch_late 0
Core_0_ITLB_prefetch_accuracy 0
Core_0_ITLB_prefetch_coverage 0

Core_0_DTLB_total_access 6072414
Core_0_DTLB_total_hit 3995287
Core_0_DTLB_total_miss 2077127
Core_0_DTLB_total_MPKI 41.5425
Core_0_DTLB_total_miss_rate 0.34206
Core_0_DTLB_demand_access 6072414
Core_0_DTLB_demand_hit 3995287
Core_0_DTLB_demand_miss 2077127
Core_0_DTLB_demand_MPKI 41.5425
Core_0_DTLB_demand_miss_rate 0.34206
Core_0_DTLB_load_access 6072414
Core_0_DTLB_load_hit 3995287
Core_0_DTLB_load_miss 2077127
Core_0_DTLB_load_MPKI 41.5425
Core_0_DTLB_load_miss_rate 0.34206
Core_0_DTLB_rfo_access 0
Core_0_DTLB_rfo_hit 0
Core_0_DTLB_rfo_miss 0
Core_0_DTLB_rfo_MPKI 0
Core_0_DTLB_rfo_miss_rate 0
Core_0_DTLB_prefetch_access 0
Core_0_DTLB_prefetch_hit 0
Core_0_DTLB_prefetch_miss 0
Core_0_DTLB_prefetch_MPKI 0
Core_0_DTLB_prefetch_miss_rate 0
Core_0_DTLB_writeback_access 0
Core_0_DTLB_writeback_hit 0
Core_0_DTLB_writeback_miss 0
Core_0_DTLB_writeback_MPKI 0
Core_0_DTLB_writeback_miss_rate 0
Core_0_DTLB_prefetch_requested 0
Core_0_DTLB_prefetch_issued 0
Core_0_DTLB_prefetch_useful 0
Core_0_DTLB_prefetch_useless 0
Core_0_DTLB_prefetch_late 0
Core_0_DTLB_prefetch_accuracy 0
Core_0_DTLB_prefetch_coverage 0

Core_0_STLB_total_access 1969974
Core_0_STLB_total_hit 72151
Core_0_STLB_total_miss 1897823
Core_0_STLB_total_MPKI 37.9565
Core_0_STLB_total_miss_rate 0.963375
Core_0_STLB_demand_access 1969974
Core_0_STLB_demand_hit 72151
Core_0_STLB_demand_miss 1897823
Core_0_STLB_demand_MPKI 37.9565
Core_0_STLB_demand_miss_rate 0.963375
Core_0_STLB_load_access 1969974
Core_0_STLB_load_hit 72151
Core_0_STLB_load_miss 1897823
Core_0_STLB_load_MPKI 37.9565
Core_0_STLB_load_miss_rate 0.963375
Core_0_STLB_rfo_access 0
Core_0_STLB_rfo_hit 0
Core_0_STLB_rfo_miss 0
Core_0_STLB_rfo_MPKI 0
Core_0_STLB_rfo_miss_rate 0
Core_0_STLB_prefetch_access 0
Core_0_STLB_prefetch_hit 0
Core_0_STLB_prefetch_miss 0
Core_0_STLB_prefetch_MPKI 0
Core_0_STLB_prefetch_miss_rate 0
Core_0_STLB_writeback_access 0
Core_0_STLB_writeback_hit 0
Core_0_STLB_writeback_miss 0
Core_0_STLB_writeback_MPKI 0
Core_0_STLB_writeback_miss_rate 0
Core_0_STLB_prefetch_requested 0
Core_0_STLB_prefetch_issued 0
Core_0_STLB_prefetch_useful 0
Core_0_STLB_prefetch_useless 0
Core_0_STLB_prefetch_late 0
Core_0_STLB_prefetch_accuracy 0
Core_0_STLB_prefetch_coverage 0

Core_0_L1I_total_access 10994
Core_0_L1I_total_hit 10993
Core_0_L1I_total_miss 1
Core_0_L1I_total_MPKI 2e-05
Core_0_L1I_total_miss_rate 9.09587e-05
Core_0_L1I_demand_access 10994
Core_0_L1I_demand_hit 10993
Core_0_L1I_demand_miss 1
Core_0_L1I_demand_MPKI 2e-05
Core_0_L1I_demand_miss_rate 9.09587e-05
Core_0_L1I_load_access 10994
Core_0_L1I_load_hit 10993
Core_0_L1I_load_miss 1
Core_0_L1I_load_MPKI 2e-05
Core_0_L1I_load_miss_rate 9.09587e-05
Core_0_L1I_rfo_access 0
Core_0_L1I_rfo_hit 0
Core_0_L1I_rfo_miss 0
Core_0_L1I_rfo_MPKI 0
Core_0_L1I_rfo_miss_rate 0
Core_0_L1I_prefetch_access 0
Core_0_L1I_prefetch_hit 0
Core_0_L1I_prefetch_miss 0
Core_0_L1I_prefetch_MPKI 0
Core_0_L1I_prefetch_miss_rate 0
Core_0_L1I_writeback_access 0
Core_0_L1I_writeback_hit 0
Core_0_L1I_writeback_miss 0
Core_0_L1I_writeback_MPKI 0
Core_0_L1I_writeback_miss_rate 0
Core_0_L1I_prefetch_requested 0
Core_0_L1I_prefetch_issued 0
Core_0_L1I_prefetch_useful 0
Core_0_L1I_prefetch_useless 0
Core_0_L1I_prefetch_late 0
Core_0_L1I_prefetch_accuracy 0
Core_0_L1I_prefetch_coverage 0

Core_0_L1D_total_access 6158937
Core_0_L1D_total_hit 2760539
Core_0_L1D_total_miss 3398398
Core_0_L1D_total_MPKI 67.968
Core_0_L1D_total_miss_rate 0.551783
Core_0_L1D_demand_access 4816942
Core_0_L1D_demand_hit 1827649
Core_0_L1D_demand_miss 2989293
Core_0_L1D_demand_MPKI 59.7859
Core_0_L1D_demand_miss_rate 0.620579
Core_0_L1D_load_access 4816942
Core_0_L1D_load_hit 1827649
Core_0_L1D_load_miss 2989293
Core_0_L1D_load_MPKI 59.7859
Core_0_L1D_load_miss_rate 0.620579
Core_0_L1D_rfo_access 0
Core_0_L1D_rfo_hit 0
Core_0_L1D_rfo_miss 0
Core_0_L1D_rfo_MPKI 0
Core_0_L1D_rfo_miss_rate 0
Core_0_L1D_prefetch_access 391345
Core_0_L1D_prefetch_hit 20060
Core_0_L1D_prefetch_miss 371285
Core_0_L1D_prefetch_MPKI 7.4257
Core_0_L1D_prefetch_miss_rate 0.948741
Core_0_L1D_writeback_access 950650
Core_0_L1D_writeback_hit 912830
Core_0_L1D_writeback_miss 37820
Core_0_L1D_writeback_MPKI 0.7564
Core_0_L1D_writeback_miss_rate 0.0397833
Core_0_L1D_prefetch_requested 391345
Core_0_L1D_prefetch_issued 391345
Core_0_L1D_prefetch_useful 20549
Core_0_L1D_prefetch_useless 347832
Core_0_L1D_prefetch_late 1009
Core_0_L1D_prefetch_accuracy 0.0525087
Core_0_L1D_prefetch_coverage 0.00682727

Core_0_L2C_total_access 3469688
Core_0_L2C_total_hit 185116
Core_0_L2C_total_miss 3284572
Core_0_L2C_total_MPKI 65.6914
Core_0_L2C_total_miss_rate 0.946648
Core_0_L2C_demand_access 2946911
Core_0_L2C_demand_hit 122333
Core_0_L2C_demand_miss 2824578
Core_0_L2C_demand_MPKI 56.4916
Core_0_L2C_demand_miss_rate 0.958488
Core_0_L2C_load_access 2934286
Core_0_L2C_load_hit 110169
Core_0_L2C_load_miss 2824117
Core_0_L2C_load_MPKI 56.4823
Core_0_L2C_load_miss_rate 0.962455
Core_0_L2C_rfo_access 12625
Core_0_L2C_rfo_hit 12164
Core_0_L2C_rfo_miss 461
Core_0_L2C_rfo_MPKI 0.00922
Core_0_L2C_rfo_miss_rate 0.0365149
Core_0_L2C_prefetch_access 508743
Core_0_L2C_prefetch_hit 48775
Core_0_L2C_prefetch_miss 459968
Core_0_L2C_prefetch_MPKI 9.19936
Core_0_L2C_prefetch_miss_rate 0.904126
Core_0_L2C_writeback_access 14034
Core_0_L2C_writeback_hit 14008
Core_0_L2C_writeback_miss 26
Core_0_L2C_writeback_MPKI 0.00052
Core_0_L2C_writeback_miss_rate 0.00185264
Core_0_L2C_prefetch_requested 140300
Core_0_L2C_prefetch_issued 140300
Core_0_L2C_prefetch_useful 10653
Core_0_L2C_prefetch_useless 84770
Core_0_L2C_prefetch_late 58
Core_0_L2C_prefetch_accuracy 0.0759301
Core_0_L2C_prefetch_coverage 0.00375737

Core_0_LLC_total_access 3282912
Core_0_LLC_total_hit 689337
Core_0_LLC_total_miss 2593575
Core_0_LLC_total_MPKI 51.8715
Core_0_LLC_total_miss_rate 0.790023
Core_0_LLC_demand_access 2824520
Core_0_LLC_demand_hit 663984
Core_0_LLC_demand_miss 2160536
Core_0_LLC_demand_MPKI 43.2107
Core_0_LLC_demand_miss_rate 0.764921
Core_0_LLC_load_access 2824059
Core_0_LLC_load_hit 663525
Core_0_LLC_load_miss 2160534
Core_0_LLC_load_MPKI 43.2107
Core_0_LLC_load_miss_rate 0.765046
Core_0_LLC_rfo_access 461
Core_0_LLC_rfo_hit 459
Core_0_LLC_rfo_miss 2
Core_0_LLC_rfo_MPKI 4e-05
Core_0_LLC_rfo_miss_rate 0.00433839
Core_0_LLC_prefetch_access 457240
Core_0_LLC_prefetch_hit 24208
Core_0_LLC_prefetch_miss 433032
Core_0_LLC_prefetch_MPKI 8.66064
Core_0_LLC_prefetch_miss_rate 0.947056
Core_0_LLC_writeback_access 1152
Core_0_LLC_writeback_hit 1145
Core_0_LLC_writeback_miss 7
Core_0_LLC_writeback_MPKI 0.00014
Core_0_LLC_writeback_miss_rate 0.00607639
Core_0_LLC_prefetch_requested 0
Core_0_LLC_prefetch_issued 0
Core_0_LLC_prefetch_useful 0
Core_0_LLC_prefetch_useless 0
Core_0_LLC_prefetch_late 0
Core_0_LLC_prefetch_accuracy 0
Core_0_LLC_prefetch_coverage 0

[DRAM Statistics]
Channel_0_RQ_row_buffer_hit 36706
Channel_0_RQ_row_buffer_miss 3180722
Channel_0_WQ_row_buffer_hit 2
Channel_0_WQ_row_buffer_miss 6
Channel_0_WQ_full 0
Channel_0_dbus_congested 3799051
DRAM_total_RQ_row_buffer_hit 36706
DRAM_total_RQ_row_buffer_miss 3180722
DRAM_total_WQ_row_buffer_hit 2
DRAM_total_WQ_row_buffer_miss 6
DRAM_total_WQ_full 0
DRAM_total_dbus_congested 3799051
DRAM_avg_congested_cycle 2.94726

====== DRAM_RQ_TRAFFIC ========
DRAM_RQ_READ_TRAFFIC_BREAKDOWN:
data_demand_read.count = 2160535
data_demand_read.share = 67.15%

inst_demand_read.count = 1
inst_demand_read.share = 0.00%

cache_inst_prefetch.count = 0
cache_inst_prefetch.share = 0.00%

cache_data_prefetch.count = 433032
cache_data_prefetch.share = 13.46%

stlb_data_demand.count = 616892
stlb_data_demand.share = 19.17%

stlb_inst_demand.count = 0
stlb_inst_demand.share = 0.00%

stlb_l1i_pref.count = 0
stlb_l1i_pref.share = 0.00%

stlb_l1d_pref.count = 6968
stlb_l1d_pref.share = 0.22%

DRAM_RQ_READ_TRAFFIC_SUMMARY:
cache_demand.count = 2160536
cache_demand.share = 67.15%

cache_prefetch.count = 433032
cache_prefetch.share = 13.46%

stlb_demand.count = 616892
stlb_demand.share = 19.17%

stlb_prefetch.count = 6968
stlb_prefetch.share = 0.22%

DRAM_RQ_READ_TRAFFIC_DEBUG:
total_classified_read.count = 3217428
unclassified_read.count = 0
total_read_with_other.count = 3217428

classified_plus_unclassified_check.count = 3217428
dram_rq_read_total_observed.count = 3217428
dram_rq_read_total_observed.per_1K_instructions = 64.3486

STLB_MISS_PTW_DRAM_TOUCH_BREAKDOWN:
stlb_miss_total.count = 1897823

stlb_miss_touch_dram.count = 627009
stlb_miss_touch_dram.share = 33.04%

stlb_miss_no_dram_touch.count = 1270814
stlb_miss_no_dram_touch.share = 66.96%

STLB_MISS_PTW_DRAM_TOUCH_DEBUG:
stlb_miss_touch_plus_no_touch.count = 1897823
stlb_miss_total_check.count = 1897823

======STLB miss causes ========
Core_0_STLB_miss_cause_breakdown
Core_0_STLB_cause_Demand_Data_miss 1824701
Core_0_STLB_cause_Demand_Data_miss_rate 0.926256
Core_0_STLB_cause_Demand_Instruction_miss 0
Core_0_STLB_cause_Demand_Instruction_miss_rate 0
Core_0_STLB_cause_L1D_Prefetch_miss 73122
Core_0_STLB_cause_L1D_Prefetch_miss_rate 0.0371183
Core_0_STLB_cause_L1I_Prefetch_miss 0
Core_0_STLB_cause_L1I_Prefetch_miss_rate 0
Core_0_STLB_cause_Other_miss 0
Core_0_STLB_cause_Other_miss_rate 0
Core_0_STLB_Demand_miss 1824701
Core_0_STLB_Demand_miss_rate 0.926256
Core_0_STLB_L1D_Prefetch_miss 73122
Core_0_STLB_L1D_Prefetch_miss_rate 0.0371183
Core_0_STLB_Other_miss 0
Core_0_STLB_Other_miss_rate 0
