[VMEM] WARNING: physical memory size is smaller than virtual memory size.

*** ChampSim Multicore Out-of-Order Simulator ***
Warmup Instructions: 50000000
Simulation Instructions: 100000000
Number of CPUs: 1
Page size: 4096
STLB ideal mode: all
STLB ideal fill: on
Core 0: /data0/tzh/champsim_traces/SPEC17/605.mcf_s-994B.champsimtrace.xz
VBerti Prefetcher
BERTI HASH ENTANGLING
BERTI IP MASK ffff
Off-chip DRAM Size: 16 GiB Channels: 1 Width: 64-bit Data Rate: 3205 MT/s
Warmup halting CPU 0 at instruction 50000000 cycle 11927099 for remainder of phase
Warmup finished CPU 0 instructions: 50000000 cycles: 11927099 cumulative IPC: 4.192 (Simulation time: 00 hr 02 min 35 sec)
Warmup complete CPU 0 instructions: 50000000 cycles: 11927099 cumulative IPC: 4.192 (Simulation time: 00 hr 02 min 35 sec)
Simulation finished CPU 0 instructions: 100000000 cycles: 201058514 cumulative IPC: 0.4974 (Simulation time: 00 hr 20 min 50 sec)
Simulation complete CPU 0 instructions: 100000000 cycles: 201058514 cumulative IPC: 0.4974 (Simulation time: 00 hr 20 min 50 sec)

ChampSim completed all CPUs

=== Simulation ===
CPU 0 runs /data0/tzh/champsim_traces/SPEC17/605.mcf_s-994B.champsimtrace.xz

Region of Interest Statistics

CPU 0 cumulative IPC: 0.4974 instructions: 100000000 cycles: 201058514
CPU 0 Branch Prediction Accuracy: 94.57% MPKI: 13.48 Average ROB Occupancy at Mispredict: 49.6
Branch type MPKI
BRANCH_DIRECT_JUMP: 0.1462
BRANCH_INDIRECT: 0
BRANCH_CONDITIONAL: 13.33
BRANCH_DIRECT_CALL: 0
BRANCH_INDIRECT_CALL: 0.00153
BRANCH_RETURN: 1e-05

cpu0->cpu0_STLB TOTAL        ACCESS:    1629771 HIT:    1629771 MISS:          0 MSHR_MERGE:          0
cpu0->cpu0_STLB LOAD         ACCESS:    1629771 HIT:    1629771 MISS:          0 MSHR_MERGE:          0
cpu0->cpu0_STLB RFO          ACCESS:          0 HIT:          0 MISS:          0 MSHR_MERGE:          0
cpu0->cpu0_STLB PREFETCH     ACCESS:          0 HIT:          0 MISS:          0 MSHR_MERGE:          0
cpu0->cpu0_STLB WRITE        ACCESS:          0 HIT:          0 MISS:          0 MSHR_MERGE:          0
cpu0->cpu0_STLB TRANSLATION  ACCESS:          0 HIT:          0 MISS:          0 MSHR_MERGE:          0
cpu0->cpu0_STLB PREFETCH REQUESTED:          0 ISSUED:          0 USEFUL:          0 USELESS:          0 LATE:          0
cpu0->cpu0_STLB AVERAGE MISS LATENCY: - cycles
cpu0->cpu0_L2C TOTAL        ACCESS:    7577786 HIT:    5318316 MISS:    2259470 MSHR_MERGE:      25893
cpu0->cpu0_L2C LOAD         ACCESS:    3420269 HIT:    1339692 MISS:    2080577 MSHR_MERGE:         30
cpu0->cpu0_L2C RFO          ACCESS:      19002 HIT:      17932 MISS:       1070 MSHR_MERGE:         13
cpu0->cpu0_L2C PREFETCH     ACCESS:    3900786 HIT:    3723277 MISS:     177509 MSHR_MERGE:      25850
cpu0->cpu0_L2C WRITE        ACCESS:     237729 HIT:     237415 MISS:        314 MSHR_MERGE:          0
cpu0->cpu0_L2C TRANSLATION  ACCESS:          0 HIT:          0 MISS:          0 MSHR_MERGE:          0
cpu0->cpu0_L2C PREFETCH REQUESTED:    1490952 ISSUED:    1490374 USEFUL:     106984 USELESS:       1384 LATE:         34
cpu0->cpu0_L2C AVERAGE MISS LATENCY: 176 cycles
cpu0->cpu0_L1I TOTAL        ACCESS:     128290 HIT:     128290 MISS:          0 MSHR_MERGE:          0
cpu0->cpu0_L1I LOAD         ACCESS:     128290 HIT:     128290 MISS:          0 MSHR_MERGE:          0
cpu0->cpu0_L1I RFO          ACCESS:          0 HIT:          0 MISS:          0 MSHR_MERGE:          0
cpu0->cpu0_L1I PREFETCH     ACCESS:          0 HIT:          0 MISS:          0 MSHR_MERGE:          0
cpu0->cpu0_L1I WRITE        ACCESS:          0 HIT:          0 MISS:          0 MSHR_MERGE:          0
cpu0->cpu0_L1I TRANSLATION  ACCESS:          0 HIT:          0 MISS:          0 MSHR_MERGE:          0
cpu0->cpu0_L1I PREFETCH REQUESTED:          0 ISSUED:          0 USEFUL:          0 USELESS:          0 LATE:          0
cpu0->cpu0_L1I AVERAGE MISS LATENCY: - cycles
cpu0->cpu0_L1D TOTAL        ACCESS:   52828002 HIT:   46828528 MISS:    5999474 MSHR_MERGE:     136921
cpu0->cpu0_L1D LOAD         ACCESS:   27926126 HIT:   24404468 MISS:    3521658 MSHR_MERGE:     101389
cpu0->cpu0_L1D RFO          ACCESS:          0 HIT:          0 MISS:          0 MSHR_MERGE:          0
cpu0->cpu0_L1D PREFETCH     ACCESS:   14844624 HIT:   12413558 MISS:    2431066 MSHR_MERGE:       7848
cpu0->cpu0_L1D WRITE        ACCESS:   10057252 HIT:   10010502 MISS:      46750 MSHR_MERGE:      27684
cpu0->cpu0_L1D TRANSLATION  ACCESS:          0 HIT:          0 MISS:          0 MSHR_MERGE:          0
cpu0->cpu0_L1D PREFETCH REQUESTED:   23996848 ISSUED:   14844624 USEFUL:     142211 USELESS:       9870 LATE:        137
cpu0->cpu0_L1D AVERAGE MISS LATENCY: 115.3 cycles
cpu0->cpu0_ITLB TOTAL        ACCESS:     118946 HIT:     118946 MISS:          0 MSHR_MERGE:          0
cpu0->cpu0_ITLB LOAD         ACCESS:     118946 HIT:     118946 MISS:          0 MSHR_MERGE:          0
cpu0->cpu0_ITLB RFO          ACCESS:          0 HIT:          0 MISS:          0 MSHR_MERGE:          0
cpu0->cpu0_ITLB PREFETCH     ACCESS:          0 HIT:          0 MISS:          0 MSHR_MERGE:          0
cpu0->cpu0_ITLB WRITE        ACCESS:          0 HIT:          0 MISS:          0 MSHR_MERGE:          0
cpu0->cpu0_ITLB TRANSLATION  ACCESS:          0 HIT:          0 MISS:          0 MSHR_MERGE:          0
cpu0->cpu0_ITLB PREFETCH REQUESTED:          0 ISSUED:          0 USEFUL:          0 USELESS:          0 LATE:          0
cpu0->cpu0_ITLB AVERAGE MISS LATENCY: - cycles
cpu0->cpu0_DTLB TOTAL        ACCESS:   46610990 HIT:   44887308 MISS:    1723682 MSHR_MERGE:      93911
cpu0->cpu0_DTLB LOAD         ACCESS:   46610990 HIT:   44887308 MISS:    1723682 MSHR_MERGE:      93911
cpu0->cpu0_DTLB RFO          ACCESS:          0 HIT:          0 MISS:          0 MSHR_MERGE:          0
cpu0->cpu0_DTLB PREFETCH     ACCESS:          0 HIT:          0 MISS:          0 MSHR_MERGE:          0
cpu0->cpu0_DTLB WRITE        ACCESS:          0 HIT:          0 MISS:          0 MSHR_MERGE:          0
cpu0->cpu0_DTLB TRANSLATION  ACCESS:          0 HIT:          0 MISS:          0 MSHR_MERGE:          0
cpu0->cpu0_DTLB PREFETCH REQUESTED:          0 ISSUED:          0 USEFUL:          0 USELESS:          0 LATE:          0
cpu0->cpu0_DTLB AVERAGE MISS LATENCY: 5.004 cycles
cpu0->LLC TOTAL        ACCESS:    2375840 HIT:     794565 MISS:    1581275 MSHR_MERGE:        667
cpu0->LLC LOAD         ACCESS:    2080547 HIT:     605248 MISS:    1475299 MSHR_MERGE:          2
cpu0->LLC RFO          ACCESS:       1057 HIT:        721 MISS:        336 MSHR_MERGE:          0
cpu0->LLC PREFETCH     ACCESS:     151658 HIT:      60213 MISS:      91445 MSHR_MERGE:        665
cpu0->LLC WRITE        ACCESS:     142578 HIT:     128383 MISS:      14195 MSHR_MERGE:          0
cpu0->LLC TRANSLATION  ACCESS:          0 HIT:          0 MISS:          0 MSHR_MERGE:          0
cpu0->LLC PREFETCH REQUESTED:          0 ISSUED:          0 USEFUL:          0 USELESS:          0 LATE:          0
cpu0->LLC AVERAGE MISS LATENCY: 224.1 cycles

DRAM Statistics

Channel 0 RQ ROW_BUFFER_HIT:       2034
  ROW_BUFFER_MISS:    1564114
  AVG DBUS CONGESTED CYCLE: 6.603
Channel 0 WQ ROW_BUFFER_HIT:      27752
  ROW_BUFFER_MISS:      62863
  FULL:          0
Channel 0 REFRESHES ISSUED:      16755

[ROI Statistics]
[System Configuration]
num_cpus 1
cpu_freq 4000
fetch_width 6
decode_width 6
dispatch_width 6
execute_width 6
lq_width 2
sq_width 2
retire_width 6
scheduler_size 128
branch_mispredict_penalty 15
rob_size 352
lq_size 128
sq_size 72
ifetch_buffer_size 64
decode_buffer_size 32
dispatch_buffer_size 32
register_file_size 288
decode_latency 1
dispatch_latency 1
schedule_latency 1
execute_latency 1
page_size 4096
block_size 64
core_0_itlb_set 16
core_0_itlb_way 4
core_0_itlb_rq_size 16
core_0_itlb_wq_size 16
core_0_itlb_pq_size 0
core_0_itlb_mshr_size 8
core_0_itlb_hit_latency 1
core_0_itlb_fill_latency 1
core_0_itlb_max_tag_check 2
core_0_itlb_max_fill 2
core_0_dtlb_set 16
core_0_dtlb_way 4
core_0_dtlb_rq_size 16
core_0_dtlb_wq_size 16
core_0_dtlb_pq_size 0
core_0_dtlb_mshr_size 8
core_0_dtlb_hit_latency 1
core_0_dtlb_fill_latency 1
core_0_dtlb_max_tag_check 2
core_0_dtlb_max_fill 2
core_0_stlb_set 128
core_0_stlb_way 12
core_0_stlb_rq_size 32
core_0_stlb_wq_size 32
core_0_stlb_pq_size 0
core_0_stlb_mshr_size 16
core_0_stlb_hit_latency 4
core_0_stlb_fill_latency 4
core_0_stlb_max_tag_check 1
core_0_stlb_max_fill 1
core_0_l1i_set 64
core_0_l1i_way 8
core_0_l1i_rq_size 64
core_0_l1i_wq_size 64
core_0_l1i_pq_size 32
core_0_l1i_mshr_size 8
core_0_l1i_hit_latency 2
core_0_l1i_fill_latency 2
core_0_l1i_max_tag_check 2
core_0_l1i_max_fill 2
core_0_l1d_set 64
core_0_l1d_way 12
core_0_l1d_rq_size 64
core_0_l1d_wq_size 64
core_0_l1d_pq_size 8
core_0_l1d_mshr_size 16
core_0_l1d_hit_latency 2
core_0_l1d_fill_latency 3
core_0_l1d_max_tag_check 2
core_0_l1d_max_fill 2
core_0_l2c_set 1024
core_0_l2c_way 8
core_0_l2c_rq_size 32
core_0_l2c_wq_size 32
core_0_l2c_pq_size 16
core_0_l2c_mshr_size 32
core_0_l2c_hit_latency 5
core_0_l2c_fill_latency 5
core_0_l2c_max_tag_check 1
core_0_l2c_max_fill 1
llc_set 2048
llc_way 16
llc_rq_size 32
llc_wq_size 32
llc_pq_size 32
llc_mshr_size 64
llc_hit_latency 10
llc_fill_latency 10
llc_max_tag_check 1
llc_max_fill 1
dram_channels 1
dram_ranks 1
dram_bankgroups 8
dram_banks 4
dram_rows 65536
dram_columns 1024
dram_channel_width 8
dram_rq_size 64
dram_wq_size 64
dram_size 17179869184
core_0_itlb_prefetcher no
core_0_dtlb_prefetcher no
core_0_stlb_prefetcher no
core_0_l1i_prefetcher next_line
core_0_l1d_prefetcher vberti
core_0_l2c_prefetcher ip_stride
llc_prefetcher no
llc_replacement drrip

Core_0_instructions 100000000
Core_0_cycles 201058514
Core_0_IPC 0.497368
Core_0_branch_prediction_accuracy 94.5685
Core_0_branch_MPKI 13.4776
Core_0_average_ROB_occupancy_at_mispredict 49.5968

Core_0_ITLB_total_access 118946
Core_0_ITLB_total_hit 118946
Core_0_ITLB_total_miss 0
Core_0_ITLB_total_MPKI 0
Core_0_ITLB_total_miss_rate 0
Core_0_ITLB_demand_access 118946
Core_0_ITLB_demand_hit 118946
Core_0_ITLB_demand_miss 0
Core_0_ITLB_demand_MPKI 0
Core_0_ITLB_demand_miss_rate 0
Core_0_ITLB_load_access 118946
Core_0_ITLB_load_hit 118946
Core_0_ITLB_load_miss 0
Core_0_ITLB_load_MPKI 0
Core_0_ITLB_load_miss_rate 0
Core_0_ITLB_rfo_access 0
Core_0_ITLB_rfo_hit 0
Core_0_ITLB_rfo_miss 0
Core_0_ITLB_rfo_MPKI 0
Core_0_ITLB_rfo_miss_rate 0
Core_0_ITLB_prefetch_access 0
Core_0_ITLB_prefetch_hit 0
Core_0_ITLB_prefetch_miss 0
Core_0_ITLB_prefetch_MPKI 0
Core_0_ITLB_prefetch_miss_rate 0
Core_0_ITLB_writeback_access 0
Core_0_ITLB_writeback_hit 0
Core_0_ITLB_writeback_miss 0
Core_0_ITLB_writeback_MPKI 0
Core_0_ITLB_writeback_miss_rate 0
Core_0_ITLB_prefetch_requested 0
Core_0_ITLB_prefetch_issued 0
Core_0_ITLB_prefetch_useful 0
Core_0_ITLB_prefetch_useless 0
Core_0_ITLB_prefetch_late 0
Core_0_ITLB_prefetch_accuracy 0
Core_0_ITLB_prefetch_coverage 0
Core_0_ITLB_total_eviction 0

Core_0_DTLB_total_access 46610990
Core_0_DTLB_total_hit 44887308
Core_0_DTLB_total_miss 1723682
Core_0_DTLB_total_MPKI 17.2368
Core_0_DTLB_total_miss_rate 0.0369802
Core_0_DTLB_demand_access 46610990
Core_0_DTLB_demand_hit 44887308
Core_0_DTLB_demand_miss 1723682
Core_0_DTLB_demand_MPKI 17.2368
Core_0_DTLB_demand_miss_rate 0.0369802
Core_0_DTLB_load_access 46610990
Core_0_DTLB_load_hit 44887308
Core_0_DTLB_load_miss 1723682
Core_0_DTLB_load_MPKI 17.2368
Core_0_DTLB_load_miss_rate 0.0369802
Core_0_DTLB_rfo_access 0
Core_0_DTLB_rfo_hit 0
Core_0_DTLB_rfo_miss 0
Core_0_DTLB_rfo_MPKI 0
Core_0_DTLB_rfo_miss_rate 0
Core_0_DTLB_prefetch_access 0
Core_0_DTLB_prefetch_hit 0
Core_0_DTLB_prefetch_miss 0
Core_0_DTLB_prefetch_MPKI 0
Core_0_DTLB_prefetch_miss_rate 0
Core_0_DTLB_writeback_access 0
Core_0_DTLB_writeback_hit 0
Core_0_DTLB_writeback_miss 0
Core_0_DTLB_writeback_MPKI 0
Core_0_DTLB_writeback_miss_rate 0
Core_0_DTLB_prefetch_requested 0
Core_0_DTLB_prefetch_issued 0
Core_0_DTLB_prefetch_useful 0
Core_0_DTLB_prefetch_useless 0
Core_0_DTLB_prefetch_late 0
Core_0_DTLB_prefetch_accuracy 0
Core_0_DTLB_prefetch_coverage 0
Core_0_DTLB_total_eviction 1629771

Core_0_STLB_total_access 1629771
Core_0_STLB_total_hit 1629771
Core_0_STLB_total_miss 0
Core_0_STLB_total_MPKI 0
Core_0_STLB_total_miss_rate 0
Core_0_STLB_demand_access 1629771
Core_0_STLB_demand_hit 1629771
Core_0_STLB_demand_miss 0
Core_0_STLB_demand_MPKI 0
Core_0_STLB_demand_miss_rate 0
Core_0_STLB_load_access 1629771
Core_0_STLB_load_hit 1629771
Core_0_STLB_load_miss 0
Core_0_STLB_load_MPKI 0
Core_0_STLB_load_miss_rate 0
Core_0_STLB_rfo_access 0
Core_0_STLB_rfo_hit 0
Core_0_STLB_rfo_miss 0
Core_0_STLB_rfo_MPKI 0
Core_0_STLB_rfo_miss_rate 0
Core_0_STLB_prefetch_access 0
Core_0_STLB_prefetch_hit 0
Core_0_STLB_prefetch_miss 0
Core_0_STLB_prefetch_MPKI 0
Core_0_STLB_prefetch_miss_rate 0
Core_0_STLB_writeback_access 0
Core_0_STLB_writeback_hit 0
Core_0_STLB_writeback_miss 0
Core_0_STLB_writeback_MPKI 0
Core_0_STLB_writeback_miss_rate 0
Core_0_STLB_prefetch_requested 0
Core_0_STLB_prefetch_issued 0
Core_0_STLB_prefetch_useful 0
Core_0_STLB_prefetch_useless 0
Core_0_STLB_prefetch_late 0
Core_0_STLB_prefetch_accuracy 0
Core_0_STLB_prefetch_coverage 0
Core_0_STLB_total_eviction 808229

Core_0_L1I_total_access 128290
Core_0_L1I_total_hit 128290
Core_0_L1I_total_miss 0
Core_0_L1I_total_MPKI 0
Core_0_L1I_total_miss_rate 0
Core_0_L1I_demand_access 128290
Core_0_L1I_demand_hit 128290
Core_0_L1I_demand_miss 0
Core_0_L1I_demand_MPKI 0
Core_0_L1I_demand_miss_rate 0
Core_0_L1I_load_access 128290
Core_0_L1I_load_hit 128290
Core_0_L1I_load_miss 0
Core_0_L1I_load_MPKI 0
Core_0_L1I_load_miss_rate 0
Core_0_L1I_rfo_access 0
Core_0_L1I_rfo_hit 0
Core_0_L1I_rfo_miss 0
Core_0_L1I_rfo_MPKI 0
Core_0_L1I_rfo_miss_rate 0
Core_0_L1I_prefetch_access 0
Core_0_L1I_prefetch_hit 0
Core_0_L1I_prefetch_miss 0
Core_0_L1I_prefetch_MPKI 0
Core_0_L1I_prefetch_miss_rate 0
Core_0_L1I_writeback_access 0
Core_0_L1I_writeback_hit 0
Core_0_L1I_writeback_miss 0
Core_0_L1I_writeback_MPKI 0
Core_0_L1I_writeback_miss_rate 0
Core_0_L1I_prefetch_requested 0
Core_0_L1I_prefetch_issued 0
Core_0_L1I_prefetch_useful 0
Core_0_L1I_prefetch_useless 0
Core_0_L1I_prefetch_late 0
Core_0_L1I_prefetch_accuracy 0
Core_0_L1I_prefetch_coverage 0
Core_0_L1I_total_eviction 0

Core_0_L1D_total_access 52828002
Core_0_L1D_total_hit 46828528
Core_0_L1D_total_miss 5999474
Core_0_L1D_total_MPKI 59.9947
Core_0_L1D_total_miss_rate 0.113566
Core_0_L1D_demand_access 27926126
Core_0_L1D_demand_hit 24404468
Core_0_L1D_demand_miss 3521658
Core_0_L1D_demand_MPKI 35.2166
Core_0_L1D_demand_miss_rate 0.126106
Core_0_L1D_load_access 27926126
Core_0_L1D_load_hit 24404468
Core_0_L1D_load_miss 3521658
Core_0_L1D_load_MPKI 35.2166
Core_0_L1D_load_miss_rate 0.126106
Core_0_L1D_rfo_access 0
Core_0_L1D_rfo_hit 0
Core_0_L1D_rfo_miss 0
Core_0_L1D_rfo_MPKI 0
Core_0_L1D_rfo_miss_rate 0
Core_0_L1D_prefetch_access 14844624
Core_0_L1D_prefetch_hit 12413558
Core_0_L1D_prefetch_miss 2431066
Core_0_L1D_prefetch_MPKI 24.3107
Core_0_L1D_prefetch_miss_rate 0.163767
Core_0_L1D_writeback_access 10057252
Core_0_L1D_writeback_hit 10010502
Core_0_L1D_writeback_miss 46750
Core_0_L1D_writeback_MPKI 0.4675
Core_0_L1D_writeback_miss_rate 0.00464839
Core_0_L1D_prefetch_requested 23996848
Core_0_L1D_prefetch_issued 14844624
Core_0_L1D_prefetch_useful 142211
Core_0_L1D_prefetch_useless 9870
Core_0_L1D_prefetch_late 137
Core_0_L1D_prefetch_accuracy 0.00957997
Core_0_L1D_prefetch_coverage 0.0388144
Core_0_L1D_total_eviction 3591423

Core_0_L2C_total_access 7577786
Core_0_L2C_total_hit 5318316
Core_0_L2C_total_miss 2259470
Core_0_L2C_total_MPKI 22.5947
Core_0_L2C_total_miss_rate 0.29817
Core_0_L2C_demand_access 3439271
Core_0_L2C_demand_hit 1357624
Core_0_L2C_demand_miss 2081647
Core_0_L2C_demand_MPKI 20.8165
Core_0_L2C_demand_miss_rate 0.605258
Core_0_L2C_load_access 3420269
Core_0_L2C_load_hit 1339692
Core_0_L2C_load_miss 2080577
Core_0_L2C_load_MPKI 20.8058
Core_0_L2C_load_miss_rate 0.608308
Core_0_L2C_rfo_access 19002
Core_0_L2C_rfo_hit 17932
Core_0_L2C_rfo_miss 1070
Core_0_L2C_rfo_MPKI 0.0107
Core_0_L2C_rfo_miss_rate 0.0563099
Core_0_L2C_prefetch_access 3900786
Core_0_L2C_prefetch_hit 3723277
Core_0_L2C_prefetch_miss 177509
Core_0_L2C_prefetch_MPKI 1.77509
Core_0_L2C_prefetch_miss_rate 0.045506
Core_0_L2C_writeback_access 237729
Core_0_L2C_writeback_hit 237415
Core_0_L2C_writeback_miss 314
Core_0_L2C_writeback_MPKI 0.00314
Core_0_L2C_writeback_miss_rate 0.00132083
Core_0_L2C_prefetch_requested 1490952
Core_0_L2C_prefetch_issued 1490374
Core_0_L2C_prefetch_useful 106984
Core_0_L2C_prefetch_useless 1384
Core_0_L2C_prefetch_late 34
Core_0_L2C_prefetch_accuracy 0.0717833
Core_0_L2C_prefetch_coverage 0.0488817
Core_0_L2C_total_eviction 2231385

Core_0_LLC_total_access 2375840
Core_0_LLC_total_hit 794565
Core_0_LLC_total_miss 1581275
Core_0_LLC_total_MPKI 15.8127
Core_0_LLC_total_miss_rate 0.665565
Core_0_LLC_demand_access 2081604
Core_0_LLC_demand_hit 605969
Core_0_LLC_demand_miss 1475635
Core_0_LLC_demand_MPKI 14.7563
Core_0_LLC_demand_miss_rate 0.708893
Core_0_LLC_load_access 2080547
Core_0_LLC_load_hit 605248
Core_0_LLC_load_miss 1475299
Core_0_LLC_load_MPKI 14.753
Core_0_LLC_load_miss_rate 0.709092
Core_0_LLC_rfo_access 1057
Core_0_LLC_rfo_hit 721
Core_0_LLC_rfo_miss 336
Core_0_LLC_rfo_MPKI 0.00336
Core_0_LLC_rfo_miss_rate 0.317881
Core_0_LLC_prefetch_access 151658
Core_0_LLC_prefetch_hit 60213
Core_0_LLC_prefetch_miss 91445
Core_0_LLC_prefetch_MPKI 0.91445
Core_0_LLC_prefetch_miss_rate 0.602969
Core_0_LLC_writeback_access 142578
Core_0_LLC_writeback_hit 128383
Core_0_LLC_writeback_miss 14195
Core_0_LLC_writeback_MPKI 0.14195
Core_0_LLC_writeback_miss_rate 0.0995595
Core_0_LLC_prefetch_requested 0
Core_0_LLC_prefetch_issued 0
Core_0_LLC_prefetch_useful 0
Core_0_LLC_prefetch_useless 0
Core_0_LLC_prefetch_late 0
Core_0_LLC_prefetch_accuracy 0
Core_0_LLC_prefetch_coverage 0
Core_0_LLC_total_eviction 1580608

[DRAM Statistics]
Channel_0_RQ_row_buffer_hit 2034
Channel_0_RQ_row_buffer_miss 1564114
Channel_0_WQ_row_buffer_hit 27752
Channel_0_WQ_row_buffer_miss 62863
Channel_0_WQ_full 0
Channel_0_dbus_congested 3200520
DRAM_total_RQ_row_buffer_hit 2034
DRAM_total_RQ_row_buffer_miss 1564114
DRAM_total_WQ_row_buffer_hit 27752
DRAM_total_WQ_row_buffer_miss 62863
DRAM_total_WQ_full 0
DRAM_total_dbus_congested 3200520
DRAM_avg_congested_cycle 6.60275

======STLB miss causes ========
Core_0_STLB_miss_cause_breakdown
Core_0_STLB_cause_Demand_Data_miss 0
Core_0_STLB_cause_Demand_Data_miss_rate 0
Core_0_STLB_cause_Demand_Instruction_miss 0
Core_0_STLB_cause_Demand_Instruction_miss_rate 0
Core_0_STLB_cause_L1D_Prefetch_miss 0
Core_0_STLB_cause_L1D_Prefetch_miss_rate 0
Core_0_STLB_cause_L1I_Prefetch_miss 0
Core_0_STLB_cause_L1I_Prefetch_miss_rate 0
Core_0_STLB_cause_Other_miss 0
Core_0_STLB_cause_Other_miss_rate 0
Core_0_STLB_Demand_miss 0
Core_0_STLB_Demand_miss_rate 0
Core_0_STLB_L1D_Prefetch_miss 0
Core_0_STLB_L1D_Prefetch_miss_rate 0
Core_0_STLB_Other_miss 0
Core_0_STLB_Other_miss_rate 0
BERTI TO_L1: 11389814 TO_L2: 18335677 TO_L2_BC_MSHR: 153516
BERTI AVG_LAT: 78.7554 NUM_TRACK_LATENCY: 5252598 NUM_CANT_TRACK_LATENCY: 0
BERTI CROSS_PAGE 3016662 NO_CROSS_PAGE: 26708829
BERTI FOUND_BERTI: 29242828 NO_FOUND_BERTI: 21523488
BERTI AVERAGE_ISSUED: 2.7947
