[VMEM] WARNING: physical memory size is smaller than virtual memory size.

*** ChampSim Multicore Out-of-Order Simulator ***
Warmup Instructions: 50000000
Simulation Instructions: 100000000
Number of CPUs: 1
Page size: 4096
STLB ideal mode: all
STLB ideal fill: on
Core 0: /data0/tzh/champsim_traces/SPEC17/623.xalancbmk_s-10B.champsimtrace.xz
VBerti Prefetcher
BERTI HASH ENTANGLING
BERTI IP MASK ffff
Off-chip DRAM Size: 16 GiB Channels: 1 Width: 64-bit Data Rate: 3205 MT/s
Warmup halting CPU 0 at instruction 50000003 cycle 11424085 for remainder of phase
Warmup finished CPU 0 instructions: 50000003 cycles: 11424085 cumulative IPC: 4.377 (Simulation time: 00 hr 02 min 18 sec)
Warmup complete CPU 0 instructions: 50000003 cycles: 11424085 cumulative IPC: 4.377 (Simulation time: 00 hr 02 min 18 sec)
Simulation finished CPU 0 instructions: 100000003 cycles: 137924113 cumulative IPC: 0.725 (Simulation time: 00 hr 18 min 31 sec)
Simulation complete CPU 0 instructions: 100000003 cycles: 137924113 cumulative IPC: 0.725 (Simulation time: 00 hr 18 min 31 sec)

ChampSim completed all CPUs

=== Simulation ===
CPU 0 runs /data0/tzh/champsim_traces/SPEC17/623.xalancbmk_s-10B.champsimtrace.xz

Region of Interest Statistics

CPU 0 cumulative IPC: 0.725 instructions: 100000003 cycles: 137924113
CPU 0 Branch Prediction Accuracy: 99.28% MPKI: 1.862 Average ROB Occupancy at Mispredict: 101
Branch type MPKI
BRANCH_DIRECT_JUMP: 0.09703
BRANCH_INDIRECT: 0.018
BRANCH_CONDITIONAL: 1.23
BRANCH_DIRECT_CALL: 9e-05
BRANCH_INDIRECT_CALL: 0.1243
BRANCH_RETURN: 0.3927

cpu0->cpu0_STLB TOTAL        ACCESS:     725784 HIT:     725784 MISS:          0 MSHR_MERGE:          0
cpu0->cpu0_STLB LOAD         ACCESS:     725784 HIT:     725784 MISS:          0 MSHR_MERGE:          0
cpu0->cpu0_STLB RFO          ACCESS:          0 HIT:          0 MISS:          0 MSHR_MERGE:          0
cpu0->cpu0_STLB PREFETCH     ACCESS:          0 HIT:          0 MISS:          0 MSHR_MERGE:          0
cpu0->cpu0_STLB WRITE        ACCESS:          0 HIT:          0 MISS:          0 MSHR_MERGE:          0
cpu0->cpu0_STLB TRANSLATION  ACCESS:          0 HIT:          0 MISS:          0 MSHR_MERGE:          0
cpu0->cpu0_STLB PREFETCH REQUESTED:          0 ISSUED:          0 USEFUL:          0 USELESS:          0 LATE:          0
cpu0->cpu0_STLB AVERAGE MISS LATENCY: - cycles
cpu0->cpu0_L2C TOTAL        ACCESS:    3487829 HIT:     903129 MISS:    2584700 MSHR_MERGE:      42826
cpu0->cpu0_L2C LOAD         ACCESS:    2913825 HIT:     597458 MISS:    2316367 MSHR_MERGE:       2962
cpu0->cpu0_L2C RFO          ACCESS:      37678 HIT:      13846 MISS:      23832 MSHR_MERGE:        212
cpu0->cpu0_L2C PREFETCH     ACCESS:     457010 HIT:     212845 MISS:     244165 MSHR_MERGE:      39652
cpu0->cpu0_L2C WRITE        ACCESS:      79316 HIT:      78980 MISS:        336 MSHR_MERGE:          0
cpu0->cpu0_L2C TRANSLATION  ACCESS:          0 HIT:          0 MISS:          0 MSHR_MERGE:          0
cpu0->cpu0_L2C PREFETCH REQUESTED:     248442 ISSUED:     245034 USEFUL:      68013 USELESS:      29435 LATE:       1122
cpu0->cpu0_L2C AVERAGE MISS LATENCY: 119.6 cycles
cpu0->cpu0_L1I TOTAL        ACCESS:   14672574 HIT:   14149049 MISS:     523525 MSHR_MERGE:     167025
cpu0->cpu0_L1I LOAD         ACCESS:   14672574 HIT:   14149049 MISS:     523525 MSHR_MERGE:     167025
cpu0->cpu0_L1I RFO          ACCESS:          0 HIT:          0 MISS:          0 MSHR_MERGE:          0
cpu0->cpu0_L1I PREFETCH     ACCESS:          0 HIT:          0 MISS:          0 MSHR_MERGE:          0
cpu0->cpu0_L1I WRITE        ACCESS:          0 HIT:          0 MISS:          0 MSHR_MERGE:          0
cpu0->cpu0_L1I TRANSLATION  ACCESS:          0 HIT:          0 MISS:          0 MSHR_MERGE:          0
cpu0->cpu0_L1I PREFETCH REQUESTED:          0 ISSUED:          0 USEFUL:          0 USELESS:          0 LATE:          0
cpu0->cpu0_L1I AVERAGE MISS LATENCY: 12.02 cycles
cpu0->cpu0_L1D TOTAL        ACCESS:   26672929 HIT:   21185439 MISS:    5487490 MSHR_MERGE:    2679471
cpu0->cpu0_L1D LOAD         ACCESS:   20903410 HIT:   15812075 MISS:    5091335 MSHR_MERGE:    2534010
cpu0->cpu0_L1D RFO          ACCESS:          0 HIT:          0 MISS:          0 MSHR_MERGE:          0
cpu0->cpu0_L1D PREFETCH     ACCESS:     846560 HIT:     633082 MISS:     213478 MSHR_MERGE:        462
cpu0->cpu0_L1D WRITE        ACCESS:    4922959 HIT:    4740282 MISS:     182677 MSHR_MERGE:     144999
cpu0->cpu0_L1D TRANSLATION  ACCESS:          0 HIT:          0 MISS:          0 MSHR_MERGE:          0
cpu0->cpu0_L1D PREFETCH REQUESTED:    4522445 ISSUED:     846560 USEFUL:      59595 USELESS:       5861 LATE:        652
cpu0->cpu0_L1D AVERAGE MISS LATENCY: 116.2 cycles
cpu0->cpu0_ITLB TOTAL        ACCESS:   13251890 HIT:   13091273 MISS:     160617 MSHR_MERGE:      94673
cpu0->cpu0_ITLB LOAD         ACCESS:   13251890 HIT:   13091273 MISS:     160617 MSHR_MERGE:      94673
cpu0->cpu0_ITLB RFO          ACCESS:          0 HIT:          0 MISS:          0 MSHR_MERGE:          0
cpu0->cpu0_ITLB PREFETCH     ACCESS:          0 HIT:          0 MISS:          0 MSHR_MERGE:          0
cpu0->cpu0_ITLB WRITE        ACCESS:          0 HIT:          0 MISS:          0 MSHR_MERGE:          0
cpu0->cpu0_ITLB TRANSLATION  ACCESS:          0 HIT:          0 MISS:          0 MSHR_MERGE:          0
cpu0->cpu0_ITLB PREFETCH REQUESTED:          0 ISSUED:          0 USEFUL:          0 USELESS:          0 LATE:          0
cpu0->cpu0_ITLB AVERAGE MISS LATENCY: 5.005 cycles
cpu0->cpu0_DTLB TOTAL        ACCESS:   25776317 HIT:   24537721 MISS:    1238596 MSHR_MERGE:     578756
cpu0->cpu0_DTLB LOAD         ACCESS:   25776317 HIT:   24537721 MISS:    1238596 MSHR_MERGE:     578756
cpu0->cpu0_DTLB RFO          ACCESS:          0 HIT:          0 MISS:          0 MSHR_MERGE:          0
cpu0->cpu0_DTLB PREFETCH     ACCESS:          0 HIT:          0 MISS:          0 MSHR_MERGE:          0
cpu0->cpu0_DTLB WRITE        ACCESS:          0 HIT:          0 MISS:          0 MSHR_MERGE:          0
cpu0->cpu0_DTLB TRANSLATION  ACCESS:          0 HIT:          0 MISS:          0 MSHR_MERGE:          0
cpu0->cpu0_DTLB PREFETCH REQUESTED:          0 ISSUED:          0 USEFUL:          0 USELESS:          0 LATE:          0
cpu0->cpu0_DTLB AVERAGE MISS LATENCY: 5.001 cycles
cpu0->LLC TOTAL        ACCESS:    2585067 HIT:    1260096 MISS:    1324971 MSHR_MERGE:       1648
cpu0->LLC LOAD         ACCESS:    2313405 HIT:    1141100 MISS:    1172305 MSHR_MERGE:        214
cpu0->LLC RFO          ACCESS:      23620 HIT:       7968 MISS:      15652 MSHR_MERGE:         46
cpu0->LLC PREFETCH     ACCESS:     204513 HIT:      77460 MISS:     127053 MSHR_MERGE:       1388
cpu0->LLC WRITE        ACCESS:      43529 HIT:      33568 MISS:       9961 MSHR_MERGE:          0
cpu0->LLC TRANSLATION  ACCESS:          0 HIT:          0 MISS:          0 MSHR_MERGE:          0
cpu0->LLC PREFETCH REQUESTED:          0 ISSUED:          0 USEFUL:          0 USELESS:          0 LATE:          0
cpu0->LLC AVERAGE MISS LATENCY: 203.2 cycles

DRAM Statistics

Channel 0 RQ ROW_BUFFER_HIT:      19012
  ROW_BUFFER_MISS:    1294318
  AVG DBUS CONGESTED CYCLE: 8.4
Channel 0 WQ ROW_BUFFER_HIT:       9459
  ROW_BUFFER_MISS:      13982
  FULL:          0
Channel 0 REFRESHES ISSUED:      11493

[ROI Statistics]
[System Configuration]
num_cpus 1
cpu_freq 4000
fetch_width 6
decode_width 6
dispatch_width 6
execute_width 6
lq_width 2
sq_width 2
retire_width 6
scheduler_size 128
branch_mispredict_penalty 15
rob_size 352
lq_size 128
sq_size 72
ifetch_buffer_size 64
decode_buffer_size 32
dispatch_buffer_size 32
register_file_size 288
decode_latency 1
dispatch_latency 1
schedule_latency 1
execute_latency 1
page_size 4096
block_size 64
core_0_itlb_set 16
core_0_itlb_way 4
core_0_itlb_rq_size 16
core_0_itlb_wq_size 16
core_0_itlb_pq_size 0
core_0_itlb_mshr_size 8
core_0_itlb_hit_latency 1
core_0_itlb_fill_latency 1
core_0_itlb_max_tag_check 2
core_0_itlb_max_fill 2
core_0_dtlb_set 16
core_0_dtlb_way 4
core_0_dtlb_rq_size 16
core_0_dtlb_wq_size 16
core_0_dtlb_pq_size 0
core_0_dtlb_mshr_size 8
core_0_dtlb_hit_latency 1
core_0_dtlb_fill_latency 1
core_0_dtlb_max_tag_check 2
core_0_dtlb_max_fill 2
core_0_stlb_set 128
core_0_stlb_way 12
core_0_stlb_rq_size 32
core_0_stlb_wq_size 32
core_0_stlb_pq_size 0
core_0_stlb_mshr_size 16
core_0_stlb_hit_latency 4
core_0_stlb_fill_latency 4
core_0_stlb_max_tag_check 1
core_0_stlb_max_fill 1
core_0_l1i_set 64
core_0_l1i_way 8
core_0_l1i_rq_size 64
core_0_l1i_wq_size 64
core_0_l1i_pq_size 32
core_0_l1i_mshr_size 8
core_0_l1i_hit_latency 2
core_0_l1i_fill_latency 2
core_0_l1i_max_tag_check 2
core_0_l1i_max_fill 2
core_0_l1d_set 64
core_0_l1d_way 12
core_0_l1d_rq_size 64
core_0_l1d_wq_size 64
core_0_l1d_pq_size 8
core_0_l1d_mshr_size 16
core_0_l1d_hit_latency 2
core_0_l1d_fill_latency 3
core_0_l1d_max_tag_check 2
core_0_l1d_max_fill 2
core_0_l2c_set 1024
core_0_l2c_way 8
core_0_l2c_rq_size 32
core_0_l2c_wq_size 32
core_0_l2c_pq_size 16
core_0_l2c_mshr_size 32
core_0_l2c_hit_latency 5
core_0_l2c_fill_latency 5
core_0_l2c_max_tag_check 1
core_0_l2c_max_fill 1
llc_set 2048
llc_way 16
llc_rq_size 32
llc_wq_size 32
llc_pq_size 32
llc_mshr_size 64
llc_hit_latency 10
llc_fill_latency 10
llc_max_tag_check 1
llc_max_fill 1
dram_channels 1
dram_ranks 1
dram_bankgroups 8
dram_banks 4
dram_rows 65536
dram_columns 1024
dram_channel_width 8
dram_rq_size 64
dram_wq_size 64
dram_size 17179869184
core_0_itlb_prefetcher no
core_0_dtlb_prefetcher no
core_0_stlb_prefetcher no
core_0_l1i_prefetcher next_line
core_0_l1d_prefetcher vberti
core_0_l2c_prefetcher ip_stride
llc_prefetcher no
llc_replacement drrip

Core_0_instructions 100000003
Core_0_cycles 137924113
Core_0_IPC 0.725036
Core_0_branch_prediction_accuracy 99.2798
Core_0_branch_MPKI 1.86203
Core_0_average_ROB_occupancy_at_mispredict 101.023

Core_0_ITLB_total_access 13251890
Core_0_ITLB_total_hit 13091273
Core_0_ITLB_total_miss 160617
Core_0_ITLB_total_MPKI 1.60617
Core_0_ITLB_total_miss_rate 0.0121203
Core_0_ITLB_demand_access 13251890
Core_0_ITLB_demand_hit 13091273
Core_0_ITLB_demand_miss 160617
Core_0_ITLB_demand_MPKI 1.60617
Core_0_ITLB_demand_miss_rate 0.0121203
Core_0_ITLB_load_access 13251890
Core_0_ITLB_load_hit 13091273
Core_0_ITLB_load_miss 160617
Core_0_ITLB_load_MPKI 1.60617
Core_0_ITLB_load_miss_rate 0.0121203
Core_0_ITLB_rfo_access 0
Core_0_ITLB_rfo_hit 0
Core_0_ITLB_rfo_miss 0
Core_0_ITLB_rfo_MPKI 0
Core_0_ITLB_rfo_miss_rate 0
Core_0_ITLB_prefetch_access 0
Core_0_ITLB_prefetch_hit 0
Core_0_ITLB_prefetch_miss 0
Core_0_ITLB_prefetch_MPKI 0
Core_0_ITLB_prefetch_miss_rate 0
Core_0_ITLB_writeback_access 0
Core_0_ITLB_writeback_hit 0
Core_0_ITLB_writeback_miss 0
Core_0_ITLB_writeback_MPKI 0
Core_0_ITLB_writeback_miss_rate 0
Core_0_ITLB_prefetch_requested 0
Core_0_ITLB_prefetch_issued 0
Core_0_ITLB_prefetch_useful 0
Core_0_ITLB_prefetch_useless 0
Core_0_ITLB_prefetch_late 0
Core_0_ITLB_prefetch_accuracy 0
Core_0_ITLB_prefetch_coverage 0
Core_0_ITLB_total_eviction 65944

Core_0_DTLB_total_access 25776317
Core_0_DTLB_total_hit 24537721
Core_0_DTLB_total_miss 1238596
Core_0_DTLB_total_MPKI 12.386
Core_0_DTLB_total_miss_rate 0.0480517
Core_0_DTLB_demand_access 25776317
Core_0_DTLB_demand_hit 24537721
Core_0_DTLB_demand_miss 1238596
Core_0_DTLB_demand_MPKI 12.386
Core_0_DTLB_demand_miss_rate 0.0480517
Core_0_DTLB_load_access 25776317
Core_0_DTLB_load_hit 24537721
Core_0_DTLB_load_miss 1238596
Core_0_DTLB_load_MPKI 12.386
Core_0_DTLB_load_miss_rate 0.0480517
Core_0_DTLB_rfo_access 0
Core_0_DTLB_rfo_hit 0
Core_0_DTLB_rfo_miss 0
Core_0_DTLB_rfo_MPKI 0
Core_0_DTLB_rfo_miss_rate 0
Core_0_DTLB_prefetch_access 0
Core_0_DTLB_prefetch_hit 0
Core_0_DTLB_prefetch_miss 0
Core_0_DTLB_prefetch_MPKI 0
Core_0_DTLB_prefetch_miss_rate 0
Core_0_DTLB_writeback_access 0
Core_0_DTLB_writeback_hit 0
Core_0_DTLB_writeback_miss 0
Core_0_DTLB_writeback_MPKI 0
Core_0_DTLB_writeback_miss_rate 0
Core_0_DTLB_prefetch_requested 0
Core_0_DTLB_prefetch_issued 0
Core_0_DTLB_prefetch_useful 0
Core_0_DTLB_prefetch_useless 0
Core_0_DTLB_prefetch_late 0
Core_0_DTLB_prefetch_accuracy 0
Core_0_DTLB_prefetch_coverage 0
Core_0_DTLB_total_eviction 659840

Core_0_STLB_total_access 725784
Core_0_STLB_total_hit 725784
Core_0_STLB_total_miss 0
Core_0_STLB_total_MPKI 0
Core_0_STLB_total_miss_rate 0
Core_0_STLB_demand_access 725784
Core_0_STLB_demand_hit 725784
Core_0_STLB_demand_miss 0
Core_0_STLB_demand_MPKI 0
Core_0_STLB_demand_miss_rate 0
Core_0_STLB_load_access 725784
Core_0_STLB_load_hit 725784
Core_0_STLB_load_miss 0
Core_0_STLB_load_MPKI 0
Core_0_STLB_load_miss_rate 0
Core_0_STLB_rfo_access 0
Core_0_STLB_rfo_hit 0
Core_0_STLB_rfo_miss 0
Core_0_STLB_rfo_MPKI 0
Core_0_STLB_rfo_miss_rate 0
Core_0_STLB_prefetch_access 0
Core_0_STLB_prefetch_hit 0
Core_0_STLB_prefetch_miss 0
Core_0_STLB_prefetch_MPKI 0
Core_0_STLB_prefetch_miss_rate 0
Core_0_STLB_writeback_access 0
Core_0_STLB_writeback_hit 0
Core_0_STLB_writeback_miss 0
Core_0_STLB_writeback_MPKI 0
Core_0_STLB_writeback_miss_rate 0
Core_0_STLB_prefetch_requested 0
Core_0_STLB_prefetch_issued 0
Core_0_STLB_prefetch_useful 0
Core_0_STLB_prefetch_useless 0
Core_0_STLB_prefetch_late 0
Core_0_STLB_prefetch_accuracy 0
Core_0_STLB_prefetch_coverage 0
Core_0_STLB_total_eviction 482044

Core_0_L1I_total_access 14672574
Core_0_L1I_total_hit 14149049
Core_0_L1I_total_miss 523525
Core_0_L1I_total_MPKI 5.23525
Core_0_L1I_total_miss_rate 0.0356805
Core_0_L1I_demand_access 14672574
Core_0_L1I_demand_hit 14149049
Core_0_L1I_demand_miss 523525
Core_0_L1I_demand_MPKI 5.23525
Core_0_L1I_demand_miss_rate 0.0356805
Core_0_L1I_load_access 14672574
Core_0_L1I_load_hit 14149049
Core_0_L1I_load_miss 523525
Core_0_L1I_load_MPKI 5.23525
Core_0_L1I_load_miss_rate 0.0356805
Core_0_L1I_rfo_access 0
Core_0_L1I_rfo_hit 0
Core_0_L1I_rfo_miss 0
Core_0_L1I_rfo_MPKI 0
Core_0_L1I_rfo_miss_rate 0
Core_0_L1I_prefetch_access 0
Core_0_L1I_prefetch_hit 0
Core_0_L1I_prefetch_miss 0
Core_0_L1I_prefetch_MPKI 0
Core_0_L1I_prefetch_miss_rate 0
Core_0_L1I_writeback_access 0
Core_0_L1I_writeback_hit 0
Core_0_L1I_writeback_miss 0
Core_0_L1I_writeback_MPKI 0
Core_0_L1I_writeback_miss_rate 0
Core_0_L1I_prefetch_requested 0
Core_0_L1I_prefetch_issued 0
Core_0_L1I_prefetch_useful 0
Core_0_L1I_prefetch_useless 0
Core_0_L1I_prefetch_late 0
Core_0_L1I_prefetch_accuracy 0
Core_0_L1I_prefetch_coverage 0
Core_0_L1I_total_eviction 356500

Core_0_L1D_total_access 26672929
Core_0_L1D_total_hit 21185439
Core_0_L1D_total_miss 5487490
Core_0_L1D_total_MPKI 54.8749
Core_0_L1D_total_miss_rate 0.205733
Core_0_L1D_demand_access 20903410
Core_0_L1D_demand_hit 15812075
Core_0_L1D_demand_miss 5091335
Core_0_L1D_demand_MPKI 50.9133
Core_0_L1D_demand_miss_rate 0.243565
Core_0_L1D_load_access 20903410
Core_0_L1D_load_hit 15812075
Core_0_L1D_load_miss 5091335
Core_0_L1D_load_MPKI 50.9133
Core_0_L1D_load_miss_rate 0.243565
Core_0_L1D_rfo_access 0
Core_0_L1D_rfo_hit 0
Core_0_L1D_rfo_miss 0
Core_0_L1D_rfo_MPKI 0
Core_0_L1D_rfo_miss_rate 0
Core_0_L1D_prefetch_access 846560
Core_0_L1D_prefetch_hit 633082
Core_0_L1D_prefetch_miss 213478
Core_0_L1D_prefetch_MPKI 2.13478
Core_0_L1D_prefetch_miss_rate 0.252171
Core_0_L1D_writeback_access 4922959
Core_0_L1D_writeback_hit 4740282
Core_0_L1D_writeback_miss 182677
Core_0_L1D_writeback_MPKI 1.82677
Core_0_L1D_writeback_miss_rate 0.0371072
Core_0_L1D_prefetch_requested 4522445
Core_0_L1D_prefetch_issued 846560
Core_0_L1D_prefetch_useful 59595
Core_0_L1D_prefetch_useless 5861
Core_0_L1D_prefetch_late 652
Core_0_L1D_prefetch_accuracy 0.0703967
Core_0_L1D_prefetch_coverage 0.0115698
Core_0_L1D_total_eviction 2660462

Core_0_L2C_total_access 3487829
Core_0_L2C_total_hit 903129
Core_0_L2C_total_miss 2584700
Core_0_L2C_total_MPKI 25.847
Core_0_L2C_total_miss_rate 0.741063
Core_0_L2C_demand_access 2951503
Core_0_L2C_demand_hit 611304
Core_0_L2C_demand_miss 2340199
Core_0_L2C_demand_MPKI 23.402
Core_0_L2C_demand_miss_rate 0.792884
Core_0_L2C_load_access 2913825
Core_0_L2C_load_hit 597458
Core_0_L2C_load_miss 2316367
Core_0_L2C_load_MPKI 23.1637
Core_0_L2C_load_miss_rate 0.794957
Core_0_L2C_rfo_access 37678
Core_0_L2C_rfo_hit 13846
Core_0_L2C_rfo_miss 23832
Core_0_L2C_rfo_MPKI 0.23832
Core_0_L2C_rfo_miss_rate 0.632518
Core_0_L2C_prefetch_access 457010
Core_0_L2C_prefetch_hit 212845
Core_0_L2C_prefetch_miss 244165
Core_0_L2C_prefetch_MPKI 2.44165
Core_0_L2C_prefetch_miss_rate 0.534266
Core_0_L2C_writeback_access 79316
Core_0_L2C_writeback_hit 78980
Core_0_L2C_writeback_miss 336
Core_0_L2C_writeback_MPKI 0.00336
Core_0_L2C_writeback_miss_rate 0.00423622
Core_0_L2C_prefetch_requested 248442
Core_0_L2C_prefetch_issued 245034
Core_0_L2C_prefetch_useful 68013
Core_0_L2C_prefetch_useless 29435
Core_0_L2C_prefetch_late 1122
Core_0_L2C_prefetch_accuracy 0.277566
Core_0_L2C_prefetch_coverage 0.0282421
Core_0_L2C_total_eviction 2539806

Core_0_LLC_total_access 2585067
Core_0_LLC_total_hit 1260096
Core_0_LLC_total_miss 1324971
Core_0_LLC_total_MPKI 13.2497
Core_0_LLC_total_miss_rate 0.512548
Core_0_LLC_demand_access 2337025
Core_0_LLC_demand_hit 1149068
Core_0_LLC_demand_miss 1187957
Core_0_LLC_demand_MPKI 11.8796
Core_0_LLC_demand_miss_rate 0.50832
Core_0_LLC_load_access 2313405
Core_0_LLC_load_hit 1141100
Core_0_LLC_load_miss 1172305
Core_0_LLC_load_MPKI 11.723
Core_0_LLC_load_miss_rate 0.506744
Core_0_LLC_rfo_access 23620
Core_0_LLC_rfo_hit 7968
Core_0_LLC_rfo_miss 15652
Core_0_LLC_rfo_MPKI 0.15652
Core_0_LLC_rfo_miss_rate 0.662659
Core_0_LLC_prefetch_access 204513
Core_0_LLC_prefetch_hit 77460
Core_0_LLC_prefetch_miss 127053
Core_0_LLC_prefetch_MPKI 1.27053
Core_0_LLC_prefetch_miss_rate 0.621247
Core_0_LLC_writeback_access 43529
Core_0_LLC_writeback_hit 33568
Core_0_LLC_writeback_miss 9961
Core_0_LLC_writeback_MPKI 0.09961
Core_0_LLC_writeback_miss_rate 0.228836
Core_0_LLC_prefetch_requested 0
Core_0_LLC_prefetch_issued 0
Core_0_LLC_prefetch_useful 0
Core_0_LLC_prefetch_useless 0
Core_0_LLC_prefetch_late 0
Core_0_LLC_prefetch_accuracy 0
Core_0_LLC_prefetch_coverage 0
Core_0_LLC_total_eviction 1323323

[DRAM Statistics]
Channel_0_RQ_row_buffer_hit 19012
Channel_0_RQ_row_buffer_miss 1294318
Channel_0_WQ_row_buffer_hit 9459
Channel_0_WQ_row_buffer_miss 13982
Channel_0_WQ_full 0
Channel_0_dbus_congested 1562490
DRAM_total_RQ_row_buffer_hit 19012
DRAM_total_RQ_row_buffer_miss 1294318
DRAM_total_WQ_row_buffer_hit 9459
DRAM_total_WQ_row_buffer_miss 13982
DRAM_total_WQ_full 0
DRAM_total_dbus_congested 1562490
DRAM_avg_congested_cycle 8.40025

======STLB miss causes ========
Core_0_STLB_miss_cause_breakdown
Core_0_STLB_cause_Demand_Data_miss 0
Core_0_STLB_cause_Demand_Data_miss_rate 0
Core_0_STLB_cause_Demand_Instruction_miss 0
Core_0_STLB_cause_Demand_Instruction_miss_rate 0
Core_0_STLB_cause_L1D_Prefetch_miss 0
Core_0_STLB_cause_L1D_Prefetch_miss_rate 0
Core_0_STLB_cause_L1I_Prefetch_miss 0
Core_0_STLB_cause_L1I_Prefetch_miss_rate 0
Core_0_STLB_cause_Other_miss 0
Core_0_STLB_cause_Other_miss_rate 0
Core_0_STLB_Demand_miss 0
Core_0_STLB_Demand_miss_rate 0
Core_0_STLB_L1D_Prefetch_miss 0
Core_0_STLB_L1D_Prefetch_miss_rate 0
Core_0_STLB_Other_miss 0
Core_0_STLB_Other_miss_rate 0
BERTI TO_L1: 5479557 TO_L2: 892526 TO_L2_BC_MSHR: 77753
BERTI AVG_LAT: 76.6611 NUM_TRACK_LATENCY: 4039818 NUM_CANT_TRACK_LATENCY: 0
BERTI CROSS_PAGE 853137 NO_CROSS_PAGE: 5518946
BERTI FOUND_BERTI: 9823406 NO_FOUND_BERTI: 26551014
BERTI AVERAGE_ISSUED: 1.3102
