[VMEM] WARNING: physical memory size is smaller than virtual memory size.

*** ChampSim Multicore Out-of-Order Simulator ***
Warmup Instructions: 50000000
Simulation Instructions: 100000000
Number of CPUs: 1
Page size: 4096
STLB ideal mode: all
STLB ideal fill: on
Core 0: /data0/tzh/champsim_traces/SPEC17/623.xalancbmk_s-592B.champsimtrace.xz
VBerti Prefetcher
BERTI HASH ENTANGLING
BERTI IP MASK ffff
Off-chip DRAM Size: 16 GiB Channels: 1 Width: 64-bit Data Rate: 3205 MT/s
Warmup halting CPU 0 at instruction 50000000 cycle 11736451 for remainder of phase
Warmup finished CPU 0 instructions: 50000000 cycles: 11736451 cumulative IPC: 4.26 (Simulation time: 00 hr 02 min 40 sec)
Warmup complete CPU 0 instructions: 50000000 cycles: 11736451 cumulative IPC: 4.26 (Simulation time: 00 hr 02 min 40 sec)
Simulation finished CPU 0 instructions: 100000000 cycles: 83069815 cumulative IPC: 1.204 (Simulation time: 00 hr 14 min 58 sec)
Simulation complete CPU 0 instructions: 100000000 cycles: 83069815 cumulative IPC: 1.204 (Simulation time: 00 hr 14 min 58 sec)

ChampSim completed all CPUs

=== Simulation ===
CPU 0 runs /data0/tzh/champsim_traces/SPEC17/623.xalancbmk_s-592B.champsimtrace.xz

Region of Interest Statistics

CPU 0 cumulative IPC: 1.204 instructions: 100000000 cycles: 83069815
CPU 0 Branch Prediction Accuracy: 98.32% MPKI: 4.959 Average ROB Occupancy at Mispredict: 53.68
Branch type MPKI
BRANCH_DIRECT_JUMP: 0.09886
BRANCH_INDIRECT: 0.3208
BRANCH_CONDITIONAL: 2.904
BRANCH_DIRECT_CALL: 0.0002
BRANCH_INDIRECT_CALL: 0.3342
BRANCH_RETURN: 1.302

cpu0->cpu0_STLB TOTAL        ACCESS:    2382609 HIT:    2382609 MISS:          0 MSHR_MERGE:          0
cpu0->cpu0_STLB LOAD         ACCESS:    2382609 HIT:    2382609 MISS:          0 MSHR_MERGE:          0
cpu0->cpu0_STLB RFO          ACCESS:          0 HIT:          0 MISS:          0 MSHR_MERGE:          0
cpu0->cpu0_STLB PREFETCH     ACCESS:          0 HIT:          0 MISS:          0 MSHR_MERGE:          0
cpu0->cpu0_STLB WRITE        ACCESS:          0 HIT:          0 MISS:          0 MSHR_MERGE:          0
cpu0->cpu0_STLB TRANSLATION  ACCESS:          0 HIT:          0 MISS:          0 MSHR_MERGE:          0
cpu0->cpu0_STLB PREFETCH REQUESTED:          0 ISSUED:          0 USEFUL:          0 USELESS:          0 LATE:          0
cpu0->cpu0_STLB AVERAGE MISS LATENCY: - cycles
cpu0->cpu0_L2C TOTAL        ACCESS:    5696733 HIT:    5289005 MISS:     407728 MSHR_MERGE:      34747
cpu0->cpu0_L2C LOAD         ACCESS:    3848974 HIT:    3661366 MISS:     187608 MSHR_MERGE:         94
cpu0->cpu0_L2C RFO          ACCESS:     164378 HIT:      41841 MISS:     122537 MSHR_MERGE:       5997
cpu0->cpu0_L2C PREFETCH     ACCESS:    1432826 HIT:    1335244 MISS:      97582 MSHR_MERGE:      28656
cpu0->cpu0_L2C WRITE        ACCESS:     250555 HIT:     250554 MISS:          1 MSHR_MERGE:          0
cpu0->cpu0_L2C TRANSLATION  ACCESS:          0 HIT:          0 MISS:          0 MSHR_MERGE:          0
cpu0->cpu0_L2C PREFETCH REQUESTED:     470083 ISSUED:     454975 USEFUL:       8748 USELESS:       3237 LATE:        778
cpu0->cpu0_L2C AVERAGE MISS LATENCY: 100.6 cycles
cpu0->cpu0_L1I TOTAL        ACCESS:   18869930 HIT:   18543128 MISS:     326802 MSHR_MERGE:      98901
cpu0->cpu0_L1I LOAD         ACCESS:   18869930 HIT:   18543128 MISS:     326802 MSHR_MERGE:      98901
cpu0->cpu0_L1I RFO          ACCESS:          0 HIT:          0 MISS:          0 MSHR_MERGE:          0
cpu0->cpu0_L1I PREFETCH     ACCESS:          0 HIT:          0 MISS:          0 MSHR_MERGE:          0
cpu0->cpu0_L1I WRITE        ACCESS:          0 HIT:          0 MISS:          0 MSHR_MERGE:          0
cpu0->cpu0_L1I TRANSLATION  ACCESS:          0 HIT:          0 MISS:          0 MSHR_MERGE:          0
cpu0->cpu0_L1I PREFETCH REQUESTED:          0 ISSUED:          0 USEFUL:          0 USELESS:          0 LATE:          0
cpu0->cpu0_L1I AVERAGE MISS LATENCY: 8.587 cycles
cpu0->cpu0_L1D TOTAL        ACCESS:   37401191 HIT:   31377304 MISS:    6023887 MSHR_MERGE:    1252989
cpu0->cpu0_L1D LOAD         ACCESS:   17718021 HIT:   13330340 MISS:    4387681 MSHR_MERGE:     766607
cpu0->cpu0_L1D RFO          ACCESS:          0 HIT:          0 MISS:          0 MSHR_MERGE:          0
cpu0->cpu0_L1D PREFETCH     ACCESS:   13313419 HIT:   12306486 MISS:    1006933 MSHR_MERGE:      21489
cpu0->cpu0_L1D WRITE        ACCESS:    6369751 HIT:    5740478 MISS:     629273 MSHR_MERGE:     464893
cpu0->cpu0_L1D TRANSLATION  ACCESS:          0 HIT:          0 MISS:          0 MSHR_MERGE:          0
cpu0->cpu0_L1D PREFETCH REQUESTED:   47554501 ISSUED:   13313427 USEFUL:     334144 USELESS:      37703 LATE:       4813
cpu0->cpu0_L1D AVERAGE MISS LATENCY: 16.46 cycles
cpu0->cpu0_ITLB TOTAL        ACCESS:   17693627 HIT:   17615865 MISS:      77762 MSHR_MERGE:      45006
cpu0->cpu0_ITLB LOAD         ACCESS:   17693627 HIT:   17615865 MISS:      77762 MSHR_MERGE:      45006
cpu0->cpu0_ITLB RFO          ACCESS:          0 HIT:          0 MISS:          0 MSHR_MERGE:          0
cpu0->cpu0_ITLB PREFETCH     ACCESS:          0 HIT:          0 MISS:          0 MSHR_MERGE:          0
cpu0->cpu0_ITLB WRITE        ACCESS:          0 HIT:          0 MISS:          0 MSHR_MERGE:          0
cpu0->cpu0_ITLB TRANSLATION  ACCESS:          0 HIT:          0 MISS:          0 MSHR_MERGE:          0
cpu0->cpu0_ITLB PREFETCH REQUESTED:          0 ISSUED:          0 USEFUL:          0 USELESS:          0 LATE:          0
cpu0->cpu0_ITLB AVERAGE MISS LATENCY: 5.01 cycles
cpu0->cpu0_DTLB TOTAL        ACCESS:   31683533 HIT:   28209602 MISS:    3473931 MSHR_MERGE:    1124078
cpu0->cpu0_DTLB LOAD         ACCESS:   31683533 HIT:   28209602 MISS:    3473931 MSHR_MERGE:    1124078
cpu0->cpu0_DTLB RFO          ACCESS:          0 HIT:          0 MISS:          0 MSHR_MERGE:          0
cpu0->cpu0_DTLB PREFETCH     ACCESS:          0 HIT:          0 MISS:          0 MSHR_MERGE:          0
cpu0->cpu0_DTLB WRITE        ACCESS:          0 HIT:          0 MISS:          0 MSHR_MERGE:          0
cpu0->cpu0_DTLB TRANSLATION  ACCESS:          0 HIT:          0 MISS:          0 MSHR_MERGE:          0
cpu0->cpu0_DTLB PREFETCH REQUESTED:          0 ISSUED:          0 USEFUL:          0 USELESS:          0 LATE:          0
cpu0->cpu0_DTLB AVERAGE MISS LATENCY: 5.001 cycles
cpu0->LLC TOTAL        ACCESS:     540901 HIT:     315892 MISS:     225009 MSHR_MERGE:       2677
cpu0->LLC LOAD         ACCESS:     187514 HIT:     168303 MISS:      19211 MSHR_MERGE:          1
cpu0->LLC RFO          ACCESS:     116540 HIT:       5444 MISS:     111096 MSHR_MERGE:        130
cpu0->LLC PREFETCH     ACCESS:      68917 HIT:      19046 MISS:      49871 MSHR_MERGE:       2546
cpu0->LLC WRITE        ACCESS:     167930 HIT:     123099 MISS:      44831 MSHR_MERGE:          0
cpu0->LLC TRANSLATION  ACCESS:          0 HIT:          0 MISS:          0 MSHR_MERGE:          0
cpu0->LLC PREFETCH REQUESTED:          0 ISSUED:          0 USEFUL:          0 USELESS:          0 LATE:          0
cpu0->LLC AVERAGE MISS LATENCY: 147.9 cycles

DRAM Statistics

Channel 0 RQ ROW_BUFFER_HIT:      15189
  ROW_BUFFER_MISS:     162312
  AVG DBUS CONGESTED CYCLE: 7.239
Channel 0 WQ ROW_BUFFER_HIT:      13319
  ROW_BUFFER_MISS:     146722
  FULL:          0
Channel 0 REFRESHES ISSUED:       6922

[ROI Statistics]
[System Configuration]
num_cpus 1
cpu_freq 4000
fetch_width 6
decode_width 6
dispatch_width 6
execute_width 6
lq_width 2
sq_width 2
retire_width 6
scheduler_size 128
branch_mispredict_penalty 15
rob_size 352
lq_size 128
sq_size 72
ifetch_buffer_size 64
decode_buffer_size 32
dispatch_buffer_size 32
register_file_size 288
decode_latency 1
dispatch_latency 1
schedule_latency 1
execute_latency 1
page_size 4096
block_size 64
core_0_itlb_set 16
core_0_itlb_way 4
core_0_itlb_rq_size 16
core_0_itlb_wq_size 16
core_0_itlb_pq_size 0
core_0_itlb_mshr_size 8
core_0_itlb_hit_latency 1
core_0_itlb_fill_latency 1
core_0_itlb_max_tag_check 2
core_0_itlb_max_fill 2
core_0_dtlb_set 16
core_0_dtlb_way 4
core_0_dtlb_rq_size 16
core_0_dtlb_wq_size 16
core_0_dtlb_pq_size 0
core_0_dtlb_mshr_size 8
core_0_dtlb_hit_latency 1
core_0_dtlb_fill_latency 1
core_0_dtlb_max_tag_check 2
core_0_dtlb_max_fill 2
core_0_stlb_set 128
core_0_stlb_way 12
core_0_stlb_rq_size 32
core_0_stlb_wq_size 32
core_0_stlb_pq_size 0
core_0_stlb_mshr_size 16
core_0_stlb_hit_latency 4
core_0_stlb_fill_latency 4
core_0_stlb_max_tag_check 1
core_0_stlb_max_fill 1
core_0_l1i_set 64
core_0_l1i_way 8
core_0_l1i_rq_size 64
core_0_l1i_wq_size 64
core_0_l1i_pq_size 32
core_0_l1i_mshr_size 8
core_0_l1i_hit_latency 2
core_0_l1i_fill_latency 2
core_0_l1i_max_tag_check 2
core_0_l1i_max_fill 2
core_0_l1d_set 64
core_0_l1d_way 12
core_0_l1d_rq_size 64
core_0_l1d_wq_size 64
core_0_l1d_pq_size 8
core_0_l1d_mshr_size 16
core_0_l1d_hit_latency 2
core_0_l1d_fill_latency 3
core_0_l1d_max_tag_check 2
core_0_l1d_max_fill 2
core_0_l2c_set 1024
core_0_l2c_way 8
core_0_l2c_rq_size 32
core_0_l2c_wq_size 32
core_0_l2c_pq_size 16
core_0_l2c_mshr_size 32
core_0_l2c_hit_latency 5
core_0_l2c_fill_latency 5
core_0_l2c_max_tag_check 1
core_0_l2c_max_fill 1
llc_set 2048
llc_way 16
llc_rq_size 32
llc_wq_size 32
llc_pq_size 32
llc_mshr_size 64
llc_hit_latency 10
llc_fill_latency 10
llc_max_tag_check 1
llc_max_fill 1
dram_channels 1
dram_ranks 1
dram_bankgroups 8
dram_banks 4
dram_rows 65536
dram_columns 1024
dram_channel_width 8
dram_rq_size 64
dram_wq_size 64
dram_size 17179869184
core_0_itlb_prefetcher no
core_0_dtlb_prefetcher no
core_0_stlb_prefetcher no
core_0_l1i_prefetcher next_line
core_0_l1d_prefetcher vberti
core_0_l2c_prefetcher ip_stride
llc_prefetcher no
llc_replacement drrip

Core_0_instructions 100000000
Core_0_cycles 83069815
Core_0_IPC 1.20381
Core_0_branch_prediction_accuracy 98.3246
Core_0_branch_MPKI 4.95945
Core_0_average_ROB_occupancy_at_mispredict 53.6752

Core_0_ITLB_total_access 17693627
Core_0_ITLB_total_hit 17615865
Core_0_ITLB_total_miss 77762
Core_0_ITLB_total_MPKI 0.77762
Core_0_ITLB_total_miss_rate 0.00439492
Core_0_ITLB_demand_access 17693627
Core_0_ITLB_demand_hit 17615865
Core_0_ITLB_demand_miss 77762
Core_0_ITLB_demand_MPKI 0.77762
Core_0_ITLB_demand_miss_rate 0.00439492
Core_0_ITLB_load_access 17693627
Core_0_ITLB_load_hit 17615865
Core_0_ITLB_load_miss 77762
Core_0_ITLB_load_MPKI 0.77762
Core_0_ITLB_load_miss_rate 0.00439492
Core_0_ITLB_rfo_access 0
Core_0_ITLB_rfo_hit 0
Core_0_ITLB_rfo_miss 0
Core_0_ITLB_rfo_MPKI 0
Core_0_ITLB_rfo_miss_rate 0
Core_0_ITLB_prefetch_access 0
Core_0_ITLB_prefetch_hit 0
Core_0_ITLB_prefetch_miss 0
Core_0_ITLB_prefetch_MPKI 0
Core_0_ITLB_prefetch_miss_rate 0
Core_0_ITLB_writeback_access 0
Core_0_ITLB_writeback_hit 0
Core_0_ITLB_writeback_miss 0
Core_0_ITLB_writeback_MPKI 0
Core_0_ITLB_writeback_miss_rate 0
Core_0_ITLB_prefetch_requested 0
Core_0_ITLB_prefetch_issued 0
Core_0_ITLB_prefetch_useful 0
Core_0_ITLB_prefetch_useless 0
Core_0_ITLB_prefetch_late 0
Core_0_ITLB_prefetch_accuracy 0
Core_0_ITLB_prefetch_coverage 0
Core_0_ITLB_total_eviction 32756

Core_0_DTLB_total_access 31683533
Core_0_DTLB_total_hit 28209602
Core_0_DTLB_total_miss 3473931
Core_0_DTLB_total_MPKI 34.7393
Core_0_DTLB_total_miss_rate 0.109645
Core_0_DTLB_demand_access 31683533
Core_0_DTLB_demand_hit 28209602
Core_0_DTLB_demand_miss 3473931
Core_0_DTLB_demand_MPKI 34.7393
Core_0_DTLB_demand_miss_rate 0.109645
Core_0_DTLB_load_access 31683533
Core_0_DTLB_load_hit 28209602
Core_0_DTLB_load_miss 3473931
Core_0_DTLB_load_MPKI 34.7393
Core_0_DTLB_load_miss_rate 0.109645
Core_0_DTLB_rfo_access 0
Core_0_DTLB_rfo_hit 0
Core_0_DTLB_rfo_miss 0
Core_0_DTLB_rfo_MPKI 0
Core_0_DTLB_rfo_miss_rate 0
Core_0_DTLB_prefetch_access 0
Core_0_DTLB_prefetch_hit 0
Core_0_DTLB_prefetch_miss 0
Core_0_DTLB_prefetch_MPKI 0
Core_0_DTLB_prefetch_miss_rate 0
Core_0_DTLB_writeback_access 0
Core_0_DTLB_writeback_hit 0
Core_0_DTLB_writeback_miss 0
Core_0_DTLB_writeback_MPKI 0
Core_0_DTLB_writeback_miss_rate 0
Core_0_DTLB_prefetch_requested 0
Core_0_DTLB_prefetch_issued 0
Core_0_DTLB_prefetch_useful 0
Core_0_DTLB_prefetch_useless 0
Core_0_DTLB_prefetch_late 0
Core_0_DTLB_prefetch_accuracy 0
Core_0_DTLB_prefetch_coverage 0
Core_0_DTLB_total_eviction 2349853

Core_0_STLB_total_access 2382609
Core_0_STLB_total_hit 2382609
Core_0_STLB_total_miss 0
Core_0_STLB_total_MPKI 0
Core_0_STLB_total_miss_rate 0
Core_0_STLB_demand_access 2382609
Core_0_STLB_demand_hit 2382609
Core_0_STLB_demand_miss 0
Core_0_STLB_demand_MPKI 0
Core_0_STLB_demand_miss_rate 0
Core_0_STLB_load_access 2382609
Core_0_STLB_load_hit 2382609
Core_0_STLB_load_miss 0
Core_0_STLB_load_MPKI 0
Core_0_STLB_load_miss_rate 0
Core_0_STLB_rfo_access 0
Core_0_STLB_rfo_hit 0
Core_0_STLB_rfo_miss 0
Core_0_STLB_rfo_MPKI 0
Core_0_STLB_rfo_miss_rate 0
Core_0_STLB_prefetch_access 0
Core_0_STLB_prefetch_hit 0
Core_0_STLB_prefetch_miss 0
Core_0_STLB_prefetch_MPKI 0
Core_0_STLB_prefetch_miss_rate 0
Core_0_STLB_writeback_access 0
Core_0_STLB_writeback_hit 0
Core_0_STLB_writeback_miss 0
Core_0_STLB_writeback_MPKI 0
Core_0_STLB_writeback_miss_rate 0
Core_0_STLB_prefetch_requested 0
Core_0_STLB_prefetch_issued 0
Core_0_STLB_prefetch_useful 0
Core_0_STLB_prefetch_useless 0
Core_0_STLB_prefetch_late 0
Core_0_STLB_prefetch_accuracy 0
Core_0_STLB_prefetch_coverage 0
Core_0_STLB_total_eviction 134280

Core_0_L1I_total_access 18869930
Core_0_L1I_total_hit 18543128
Core_0_L1I_total_miss 326802
Core_0_L1I_total_MPKI 3.26802
Core_0_L1I_total_miss_rate 0.0173187
Core_0_L1I_demand_access 18869930
Core_0_L1I_demand_hit 18543128
Core_0_L1I_demand_miss 326802
Core_0_L1I_demand_MPKI 3.26802
Core_0_L1I_demand_miss_rate 0.0173187
Core_0_L1I_load_access 18869930
Core_0_L1I_load_hit 18543128
Core_0_L1I_load_miss 326802
Core_0_L1I_load_MPKI 3.26802
Core_0_L1I_load_miss_rate 0.0173187
Core_0_L1I_rfo_access 0
Core_0_L1I_rfo_hit 0
Core_0_L1I_rfo_miss 0
Core_0_L1I_rfo_MPKI 0
Core_0_L1I_rfo_miss_rate 0
Core_0_L1I_prefetch_access 0
Core_0_L1I_prefetch_hit 0
Core_0_L1I_prefetch_miss 0
Core_0_L1I_prefetch_MPKI 0
Core_0_L1I_prefetch_miss_rate 0
Core_0_L1I_writeback_access 0
Core_0_L1I_writeback_hit 0
Core_0_L1I_writeback_miss 0
Core_0_L1I_writeback_MPKI 0
Core_0_L1I_writeback_miss_rate 0
Core_0_L1I_prefetch_requested 0
Core_0_L1I_prefetch_issued 0
Core_0_L1I_prefetch_useful 0
Core_0_L1I_prefetch_useless 0
Core_0_L1I_prefetch_late 0
Core_0_L1I_prefetch_accuracy 0
Core_0_L1I_prefetch_coverage 0
Core_0_L1I_total_eviction 227901

Core_0_L1D_total_access 37401191
Core_0_L1D_total_hit 31377304
Core_0_L1D_total_miss 6023887
Core_0_L1D_total_MPKI 60.2389
Core_0_L1D_total_miss_rate 0.161061
Core_0_L1D_demand_access 17718021
Core_0_L1D_demand_hit 13330340
Core_0_L1D_demand_miss 4387681
Core_0_L1D_demand_MPKI 43.8768
Core_0_L1D_demand_miss_rate 0.247639
Core_0_L1D_load_access 17718021
Core_0_L1D_load_hit 13330340
Core_0_L1D_load_miss 4387681
Core_0_L1D_load_MPKI 43.8768
Core_0_L1D_load_miss_rate 0.247639
Core_0_L1D_rfo_access 0
Core_0_L1D_rfo_hit 0
Core_0_L1D_rfo_miss 0
Core_0_L1D_rfo_MPKI 0
Core_0_L1D_rfo_miss_rate 0
Core_0_L1D_prefetch_access 13313419
Core_0_L1D_prefetch_hit 12306486
Core_0_L1D_prefetch_miss 1006933
Core_0_L1D_prefetch_MPKI 10.0693
Core_0_L1D_prefetch_miss_rate 0.0756329
Core_0_L1D_writeback_access 6369751
Core_0_L1D_writeback_hit 5740478
Core_0_L1D_writeback_miss 629273
Core_0_L1D_writeback_MPKI 6.29273
Core_0_L1D_writeback_miss_rate 0.0987908
Core_0_L1D_prefetch_requested 47554501
Core_0_L1D_prefetch_issued 13313427
Core_0_L1D_prefetch_useful 334144
Core_0_L1D_prefetch_useless 37703
Core_0_L1D_prefetch_late 4813
Core_0_L1D_prefetch_accuracy 0.0250983
Core_0_L1D_prefetch_coverage 0.0707659
Core_0_L1D_total_eviction 4157319

Core_0_L2C_total_access 5696733
Core_0_L2C_total_hit 5289005
Core_0_L2C_total_miss 407728
Core_0_L2C_total_MPKI 4.07728
Core_0_L2C_total_miss_rate 0.0715723
Core_0_L2C_demand_access 4013352
Core_0_L2C_demand_hit 3703207
Core_0_L2C_demand_miss 310145
Core_0_L2C_demand_MPKI 3.10145
Core_0_L2C_demand_miss_rate 0.0772783
Core_0_L2C_load_access 3848974
Core_0_L2C_load_hit 3661366
Core_0_L2C_load_miss 187608
Core_0_L2C_load_MPKI 1.87608
Core_0_L2C_load_miss_rate 0.0487423
Core_0_L2C_rfo_access 164378
Core_0_L2C_rfo_hit 41841
Core_0_L2C_rfo_miss 122537
Core_0_L2C_rfo_MPKI 1.22537
Core_0_L2C_rfo_miss_rate 0.745459
Core_0_L2C_prefetch_access 1432826
Core_0_L2C_prefetch_hit 1335244
Core_0_L2C_prefetch_miss 97582
Core_0_L2C_prefetch_MPKI 0.97582
Core_0_L2C_prefetch_miss_rate 0.0681046
Core_0_L2C_writeback_access 250555
Core_0_L2C_writeback_hit 250554
Core_0_L2C_writeback_miss 1
Core_0_L2C_writeback_MPKI 1e-05
Core_0_L2C_writeback_miss_rate 3.99114e-06
Core_0_L2C_prefetch_requested 470083
Core_0_L2C_prefetch_issued 454975
Core_0_L2C_prefetch_useful 8748
Core_0_L2C_prefetch_useless 3237
Core_0_L2C_prefetch_late 778
Core_0_L2C_prefetch_accuracy 0.0192274
Core_0_L2C_prefetch_coverage 0.0274324
Core_0_L2C_total_eviction 367911

Core_0_LLC_total_access 540901
Core_0_LLC_total_hit 315892
Core_0_LLC_total_miss 225009
Core_0_LLC_total_MPKI 2.25009
Core_0_LLC_total_miss_rate 0.415989
Core_0_LLC_demand_access 304054
Core_0_LLC_demand_hit 173747
Core_0_LLC_demand_miss 130307
Core_0_LLC_demand_MPKI 1.30307
Core_0_LLC_demand_miss_rate 0.428565
Core_0_LLC_load_access 187514
Core_0_LLC_load_hit 168303
Core_0_LLC_load_miss 19211
Core_0_LLC_load_MPKI 0.19211
Core_0_LLC_load_miss_rate 0.102451
Core_0_LLC_rfo_access 116540
Core_0_LLC_rfo_hit 5444
Core_0_LLC_rfo_miss 111096
Core_0_LLC_rfo_MPKI 1.11096
Core_0_LLC_rfo_miss_rate 0.953286
Core_0_LLC_prefetch_access 68917
Core_0_LLC_prefetch_hit 19046
Core_0_LLC_prefetch_miss 49871
Core_0_LLC_prefetch_MPKI 0.49871
Core_0_LLC_prefetch_miss_rate 0.723639
Core_0_LLC_writeback_access 167930
Core_0_LLC_writeback_hit 123099
Core_0_LLC_writeback_miss 44831
Core_0_LLC_writeback_MPKI 0.44831
Core_0_LLC_writeback_miss_rate 0.266962
Core_0_LLC_prefetch_requested 0
Core_0_LLC_prefetch_issued 0
Core_0_LLC_prefetch_useful 0
Core_0_LLC_prefetch_useless 0
Core_0_LLC_prefetch_late 0
Core_0_LLC_prefetch_accuracy 0
Core_0_LLC_prefetch_coverage 0
Core_0_LLC_total_eviction 222332

[DRAM Statistics]
Channel_0_RQ_row_buffer_hit 15189
Channel_0_RQ_row_buffer_miss 162312
Channel_0_WQ_row_buffer_hit 13319
Channel_0_WQ_row_buffer_miss 146722
Channel_0_WQ_full 0
Channel_0_dbus_congested 819121
DRAM_total_RQ_row_buffer_hit 15189
DRAM_total_RQ_row_buffer_miss 162312
DRAM_total_WQ_row_buffer_hit 13319
DRAM_total_WQ_row_buffer_miss 146722
DRAM_total_WQ_full 0
DRAM_total_dbus_congested 819121
DRAM_avg_congested_cycle 7.23857

======STLB miss causes ========
Core_0_STLB_miss_cause_breakdown
Core_0_STLB_cause_Demand_Data_miss 0
Core_0_STLB_cause_Demand_Data_miss_rate 0
Core_0_STLB_cause_Demand_Instruction_miss 0
Core_0_STLB_cause_Demand_Instruction_miss_rate 0
Core_0_STLB_cause_L1D_Prefetch_miss 0
Core_0_STLB_cause_L1D_Prefetch_miss_rate 0
Core_0_STLB_cause_L1I_Prefetch_miss 0
Core_0_STLB_cause_L1I_Prefetch_miss_rate 0
Core_0_STLB_cause_Other_miss 0
Core_0_STLB_cause_Other_miss_rate 0
Core_0_STLB_Demand_miss 0
Core_0_STLB_Demand_miss_rate 0
Core_0_STLB_L1D_Prefetch_miss 0
Core_0_STLB_L1D_Prefetch_miss_rate 0
Core_0_STLB_Other_miss 0
Core_0_STLB_Other_miss_rate 0
BERTI TO_L1: 41504257 TO_L2: 15417330 TO_L2_BC_MSHR: 375770
BERTI AVG_LAT: 12.8398 NUM_TRACK_LATENCY: 6594946 NUM_CANT_TRACK_LATENCY: 0
BERTI CROSS_PAGE 9701399 NO_CROSS_PAGE: 47220188
BERTI FOUND_BERTI: 18848506 NO_FOUND_BERTI: 16020421
BERTI AVERAGE_ISSUED: 2.43526
