[VMEM] WARNING: physical memory size is smaller than virtual memory size.

*** ChampSim Multicore Out-of-Order Simulator ***
Warmup Instructions: 50000000
Simulation Instructions: 100000000
Number of CPUs: 1
Page size: 4096
STLB ideal mode: all
STLB ideal fill: on
Core 0: /data0/tzh/champsim_traces/SPEC17/649.fotonik3d_s-10881B.champsimtrace.xz
VBerti Prefetcher
BERTI HASH ENTANGLING
BERTI IP MASK ffff
Off-chip DRAM Size: 16 GiB Channels: 1 Width: 64-bit Data Rate: 3205 MT/s
Warmup halting CPU 0 at instruction 50000001 cycle 17018027 for remainder of phase
Warmup finished CPU 0 instructions: 50000001 cycles: 17018027 cumulative IPC: 2.938 (Simulation time: 00 hr 04 min 06 sec)
Warmup complete CPU 0 instructions: 50000001 cycles: 17018027 cumulative IPC: 2.938 (Simulation time: 00 hr 04 min 06 sec)
Simulation finished CPU 0 instructions: 100000002 cycles: 83502890 cumulative IPC: 1.198 (Simulation time: 00 hr 18 min 34 sec)
Simulation complete CPU 0 instructions: 100000002 cycles: 83502890 cumulative IPC: 1.198 (Simulation time: 00 hr 18 min 34 sec)

ChampSim completed all CPUs

=== Simulation ===
CPU 0 runs /data0/tzh/champsim_traces/SPEC17/649.fotonik3d_s-10881B.champsimtrace.xz

Region of Interest Statistics

CPU 0 cumulative IPC: 1.198 instructions: 100000002 cycles: 83502890
CPU 0 Branch Prediction Accuracy: 99.99% MPKI: 0.00083 Average ROB Occupancy at Mispredict: 349.4
Branch type MPKI
BRANCH_DIRECT_JUMP: 0
BRANCH_INDIRECT: 0
BRANCH_CONDITIONAL: 0.00083
BRANCH_DIRECT_CALL: 0
BRANCH_INDIRECT_CALL: 0
BRANCH_RETURN: 0

cpu0->cpu0_STLB TOTAL        ACCESS:     747900 HIT:     747900 MISS:          0 MSHR_MERGE:          0
cpu0->cpu0_STLB LOAD         ACCESS:     747900 HIT:     747900 MISS:          0 MSHR_MERGE:          0
cpu0->cpu0_STLB RFO          ACCESS:          0 HIT:          0 MISS:          0 MSHR_MERGE:          0
cpu0->cpu0_STLB PREFETCH     ACCESS:          0 HIT:          0 MISS:          0 MSHR_MERGE:          0
cpu0->cpu0_STLB WRITE        ACCESS:          0 HIT:          0 MISS:          0 MSHR_MERGE:          0
cpu0->cpu0_STLB TRANSLATION  ACCESS:          0 HIT:          0 MISS:          0 MSHR_MERGE:          0
cpu0->cpu0_STLB PREFETCH REQUESTED:          0 ISSUED:          0 USEFUL:          0 USELESS:          0 LATE:          0
cpu0->cpu0_STLB AVERAGE MISS LATENCY: - cycles
cpu0->cpu0_L2C TOTAL        ACCESS:    5456102 HIT:    2269668 MISS:    3186434 MSHR_MERGE:     657196
cpu0->cpu0_L2C LOAD         ACCESS:     296491 HIT:     193332 MISS:     103159 MSHR_MERGE:      11302
cpu0->cpu0_L2C RFO          ACCESS:          0 HIT:          0 MISS:          0 MSHR_MERGE:          0
cpu0->cpu0_L2C PREFETCH     ACCESS:    4188091 HIT:    1104816 MISS:    3083275 MSHR_MERGE:     645894
cpu0->cpu0_L2C WRITE        ACCESS:     971520 HIT:     971520 MISS:          0 MSHR_MERGE:          0
cpu0->cpu0_L2C TRANSLATION  ACCESS:          0 HIT:          0 MISS:          0 MSHR_MERGE:          0
cpu0->cpu0_L2C PREFETCH REQUESTED:     148651 ISSUED:     148651 USEFUL:      62356 USELESS:       9448 LATE:          1
cpu0->cpu0_L2C AVERAGE MISS LATENCY: 382.7 cycles
cpu0->cpu0_L1I TOTAL        ACCESS:   20913008 HIT:   20913008 MISS:          0 MSHR_MERGE:          0
cpu0->cpu0_L1I LOAD         ACCESS:   20913008 HIT:   20913008 MISS:          0 MSHR_MERGE:          0
cpu0->cpu0_L1I RFO          ACCESS:          0 HIT:          0 MISS:          0 MSHR_MERGE:          0
cpu0->cpu0_L1I PREFETCH     ACCESS:          0 HIT:          0 MISS:          0 MSHR_MERGE:          0
cpu0->cpu0_L1I WRITE        ACCESS:          0 HIT:          0 MISS:          0 MSHR_MERGE:          0
cpu0->cpu0_L1I TRANSLATION  ACCESS:          0 HIT:          0 MISS:          0 MSHR_MERGE:          0
cpu0->cpu0_L1I PREFETCH REQUESTED:          0 ISSUED:          0 USEFUL:          0 USELESS:          0 LATE:          0
cpu0->cpu0_L1I AVERAGE MISS LATENCY: - cycles
cpu0->cpu0_L1D TOTAL        ACCESS:   47101859 HIT:   42568216 MISS:    4533643 MSHR_MERGE:     184572
cpu0->cpu0_L1D LOAD         ACCESS:   31808981 HIT:   31329722 MISS:     479259 MSHR_MERGE:     182768
cpu0->cpu0_L1D RFO          ACCESS:          0 HIT:          0 MISS:          0 MSHR_MERGE:          0
cpu0->cpu0_L1D PREFETCH     ACCESS:    8881571 HIT:    4827187 MISS:    4054384 MSHR_MERGE:       1804
cpu0->cpu0_L1D WRITE        ACCESS:    6411307 HIT:    6411307 MISS:          0 MSHR_MERGE:          0
cpu0->cpu0_L1D TRANSLATION  ACCESS:          0 HIT:          0 MISS:          0 MSHR_MERGE:          0
cpu0->cpu0_L1D PREFETCH REQUESTED:   55950585 ISSUED:    8881571 USEFUL:    1627532 USELESS:     266403 LATE:      62179
cpu0->cpu0_L1D AVERAGE MISS LATENCY: 169.4 cycles
cpu0->cpu0_ITLB TOTAL        ACCESS:   16263968 HIT:   16263968 MISS:          0 MSHR_MERGE:          0
cpu0->cpu0_ITLB LOAD         ACCESS:   16263968 HIT:   16263968 MISS:          0 MSHR_MERGE:          0
cpu0->cpu0_ITLB RFO          ACCESS:          0 HIT:          0 MISS:          0 MSHR_MERGE:          0
cpu0->cpu0_ITLB PREFETCH     ACCESS:          0 HIT:          0 MISS:          0 MSHR_MERGE:          0
cpu0->cpu0_ITLB WRITE        ACCESS:          0 HIT:          0 MISS:          0 MSHR_MERGE:          0
cpu0->cpu0_ITLB TRANSLATION  ACCESS:          0 HIT:          0 MISS:          0 MSHR_MERGE:          0
cpu0->cpu0_ITLB PREFETCH REQUESTED:          0 ISSUED:          0 USEFUL:          0 USELESS:          0 LATE:          0
cpu0->cpu0_ITLB AVERAGE MISS LATENCY: - cycles
cpu0->cpu0_DTLB TOTAL        ACCESS:   45779681 HIT:   44869461 MISS:     910220 MSHR_MERGE:     162320
cpu0->cpu0_DTLB LOAD         ACCESS:   45779681 HIT:   44869461 MISS:     910220 MSHR_MERGE:     162320
cpu0->cpu0_DTLB RFO          ACCESS:          0 HIT:          0 MISS:          0 MSHR_MERGE:          0
cpu0->cpu0_DTLB PREFETCH     ACCESS:          0 HIT:          0 MISS:          0 MSHR_MERGE:          0
cpu0->cpu0_DTLB WRITE        ACCESS:          0 HIT:          0 MISS:          0 MSHR_MERGE:          0
cpu0->cpu0_DTLB TRANSLATION  ACCESS:          0 HIT:          0 MISS:          0 MSHR_MERGE:          0
cpu0->cpu0_DTLB PREFETCH REQUESTED:          0 ISSUED:          0 USEFUL:          0 USELESS:          0 LATE:          0
cpu0->cpu0_DTLB AVERAGE MISS LATENCY: 5.003 cycles
cpu0->LLC TOTAL        ACCESS:    3500838 HIT:    1052948 MISS:    2447890 MSHR_MERGE:       4838
cpu0->LLC LOAD         ACCESS:      91857 HIT:       9044 MISS:      82813 MSHR_MERGE:          0
cpu0->LLC RFO          ACCESS:          0 HIT:          0 MISS:          0 MSHR_MERGE:          0
cpu0->LLC PREFETCH     ACCESS:    2437376 HIT:     188056 MISS:    2249320 MSHR_MERGE:       4838
cpu0->LLC WRITE        ACCESS:     971605 HIT:     855848 MISS:     115757 MSHR_MERGE:          0
cpu0->LLC TRANSLATION  ACCESS:          0 HIT:          0 MISS:          0 MSHR_MERGE:          0
cpu0->LLC PREFETCH REQUESTED:          0 ISSUED:          0 USEFUL:          0 USELESS:          0 LATE:          0
cpu0->LLC AVERAGE MISS LATENCY: 177.1 cycles

DRAM Statistics

Channel 0 RQ ROW_BUFFER_HIT:     272449
  ROW_BUFFER_MISS:    2054839
  AVG DBUS CONGESTED CYCLE: 7.084
Channel 0 WQ ROW_BUFFER_HIT:     108912
  ROW_BUFFER_MISS:     863063
  FULL:          0
Channel 0 REFRESHES ISSUED:       6958

[ROI Statistics]
[System Configuration]
num_cpus 1
cpu_freq 4000
fetch_width 6
decode_width 6
dispatch_width 6
execute_width 6
lq_width 2
sq_width 2
retire_width 6
scheduler_size 128
branch_mispredict_penalty 15
rob_size 352
lq_size 128
sq_size 72
ifetch_buffer_size 64
decode_buffer_size 32
dispatch_buffer_size 32
register_file_size 288
decode_latency 1
dispatch_latency 1
schedule_latency 1
execute_latency 1
page_size 4096
block_size 64
core_0_itlb_set 16
core_0_itlb_way 4
core_0_itlb_rq_size 16
core_0_itlb_wq_size 16
core_0_itlb_pq_size 0
core_0_itlb_mshr_size 8
core_0_itlb_hit_latency 1
core_0_itlb_fill_latency 1
core_0_itlb_max_tag_check 2
core_0_itlb_max_fill 2
core_0_dtlb_set 16
core_0_dtlb_way 4
core_0_dtlb_rq_size 16
core_0_dtlb_wq_size 16
core_0_dtlb_pq_size 0
core_0_dtlb_mshr_size 8
core_0_dtlb_hit_latency 1
core_0_dtlb_fill_latency 1
core_0_dtlb_max_tag_check 2
core_0_dtlb_max_fill 2
core_0_stlb_set 128
core_0_stlb_way 12
core_0_stlb_rq_size 32
core_0_stlb_wq_size 32
core_0_stlb_pq_size 0
core_0_stlb_mshr_size 16
core_0_stlb_hit_latency 4
core_0_stlb_fill_latency 4
core_0_stlb_max_tag_check 1
core_0_stlb_max_fill 1
core_0_l1i_set 64
core_0_l1i_way 8
core_0_l1i_rq_size 64
core_0_l1i_wq_size 64
core_0_l1i_pq_size 32
core_0_l1i_mshr_size 8
core_0_l1i_hit_latency 2
core_0_l1i_fill_latency 2
core_0_l1i_max_tag_check 2
core_0_l1i_max_fill 2
core_0_l1d_set 64
core_0_l1d_way 12
core_0_l1d_rq_size 64
core_0_l1d_wq_size 64
core_0_l1d_pq_size 8
core_0_l1d_mshr_size 16
core_0_l1d_hit_latency 2
core_0_l1d_fill_latency 3
core_0_l1d_max_tag_check 2
core_0_l1d_max_fill 2
core_0_l2c_set 1024
core_0_l2c_way 8
core_0_l2c_rq_size 32
core_0_l2c_wq_size 32
core_0_l2c_pq_size 16
core_0_l2c_mshr_size 32
core_0_l2c_hit_latency 5
core_0_l2c_fill_latency 5
core_0_l2c_max_tag_check 1
core_0_l2c_max_fill 1
llc_set 2048
llc_way 16
llc_rq_size 32
llc_wq_size 32
llc_pq_size 32
llc_mshr_size 64
llc_hit_latency 10
llc_fill_latency 10
llc_max_tag_check 1
llc_max_fill 1
dram_channels 1
dram_ranks 1
dram_bankgroups 8
dram_banks 4
dram_rows 65536
dram_columns 1024
dram_channel_width 8
dram_rq_size 64
dram_wq_size 64
dram_size 17179869184
core_0_itlb_prefetcher no
core_0_dtlb_prefetcher no
core_0_stlb_prefetcher no
core_0_l1i_prefetcher next_line
core_0_l1d_prefetcher vberti
core_0_l2c_prefetcher ip_stride
llc_prefetcher no
llc_replacement drrip

Core_0_instructions 100000002
Core_0_cycles 83502890
Core_0_IPC 1.19756
Core_0_branch_prediction_accuracy 99.9931
Core_0_branch_MPKI 0.00083
Core_0_average_ROB_occupancy_at_mispredict 349.41

Core_0_ITLB_total_access 16263968
Core_0_ITLB_total_hit 16263968
Core_0_ITLB_total_miss 0
Core_0_ITLB_total_MPKI 0
Core_0_ITLB_total_miss_rate 0
Core_0_ITLB_demand_access 16263968
Core_0_ITLB_demand_hit 16263968
Core_0_ITLB_demand_miss 0
Core_0_ITLB_demand_MPKI 0
Core_0_ITLB_demand_miss_rate 0
Core_0_ITLB_load_access 16263968
Core_0_ITLB_load_hit 16263968
Core_0_ITLB_load_miss 0
Core_0_ITLB_load_MPKI 0
Core_0_ITLB_load_miss_rate 0
Core_0_ITLB_rfo_access 0
Core_0_ITLB_rfo_hit 0
Core_0_ITLB_rfo_miss 0
Core_0_ITLB_rfo_MPKI 0
Core_0_ITLB_rfo_miss_rate 0
Core_0_ITLB_prefetch_access 0
Core_0_ITLB_prefetch_hit 0
Core_0_ITLB_prefetch_miss 0
Core_0_ITLB_prefetch_MPKI 0
Core_0_ITLB_prefetch_miss_rate 0
Core_0_ITLB_writeback_access 0
Core_0_ITLB_writeback_hit 0
Core_0_ITLB_writeback_miss 0
Core_0_ITLB_writeback_MPKI 0
Core_0_ITLB_writeback_miss_rate 0
Core_0_ITLB_prefetch_requested 0
Core_0_ITLB_prefetch_issued 0
Core_0_ITLB_prefetch_useful 0
Core_0_ITLB_prefetch_useless 0
Core_0_ITLB_prefetch_late 0
Core_0_ITLB_prefetch_accuracy 0
Core_0_ITLB_prefetch_coverage 0
Core_0_ITLB_total_eviction 0

Core_0_DTLB_total_access 45779681
Core_0_DTLB_total_hit 44869461
Core_0_DTLB_total_miss 910220
Core_0_DTLB_total_MPKI 9.1022
Core_0_DTLB_total_miss_rate 0.0198826
Core_0_DTLB_demand_access 45779681
Core_0_DTLB_demand_hit 44869461
Core_0_DTLB_demand_miss 910220
Core_0_DTLB_demand_MPKI 9.1022
Core_0_DTLB_demand_miss_rate 0.0198826
Core_0_DTLB_load_access 45779681
Core_0_DTLB_load_hit 44869461
Core_0_DTLB_load_miss 910220
Core_0_DTLB_load_MPKI 9.1022
Core_0_DTLB_load_miss_rate 0.0198826
Core_0_DTLB_rfo_access 0
Core_0_DTLB_rfo_hit 0
Core_0_DTLB_rfo_miss 0
Core_0_DTLB_rfo_MPKI 0
Core_0_DTLB_rfo_miss_rate 0
Core_0_DTLB_prefetch_access 0
Core_0_DTLB_prefetch_hit 0
Core_0_DTLB_prefetch_miss 0
Core_0_DTLB_prefetch_MPKI 0
Core_0_DTLB_prefetch_miss_rate 0
Core_0_DTLB_writeback_access 0
Core_0_DTLB_writeback_hit 0
Core_0_DTLB_writeback_miss 0
Core_0_DTLB_writeback_MPKI 0
Core_0_DTLB_writeback_miss_rate 0
Core_0_DTLB_prefetch_requested 0
Core_0_DTLB_prefetch_issued 0
Core_0_DTLB_prefetch_useful 0
Core_0_DTLB_prefetch_useless 0
Core_0_DTLB_prefetch_late 0
Core_0_DTLB_prefetch_accuracy 0
Core_0_DTLB_prefetch_coverage 0
Core_0_DTLB_total_eviction 747900

Core_0_STLB_total_access 747900
Core_0_STLB_total_hit 747900
Core_0_STLB_total_miss 0
Core_0_STLB_total_MPKI 0
Core_0_STLB_total_miss_rate 0
Core_0_STLB_demand_access 747900
Core_0_STLB_demand_hit 747900
Core_0_STLB_demand_miss 0
Core_0_STLB_demand_MPKI 0
Core_0_STLB_demand_miss_rate 0
Core_0_STLB_load_access 747900
Core_0_STLB_load_hit 747900
Core_0_STLB_load_miss 0
Core_0_STLB_load_MPKI 0
Core_0_STLB_load_miss_rate 0
Core_0_STLB_rfo_access 0
Core_0_STLB_rfo_hit 0
Core_0_STLB_rfo_miss 0
Core_0_STLB_rfo_MPKI 0
Core_0_STLB_rfo_miss_rate 0
Core_0_STLB_prefetch_access 0
Core_0_STLB_prefetch_hit 0
Core_0_STLB_prefetch_miss 0
Core_0_STLB_prefetch_MPKI 0
Core_0_STLB_prefetch_miss_rate 0
Core_0_STLB_writeback_access 0
Core_0_STLB_writeback_hit 0
Core_0_STLB_writeback_miss 0
Core_0_STLB_writeback_MPKI 0
Core_0_STLB_writeback_miss_rate 0
Core_0_STLB_prefetch_requested 0
Core_0_STLB_prefetch_issued 0
Core_0_STLB_prefetch_useful 0
Core_0_STLB_prefetch_useless 0
Core_0_STLB_prefetch_late 0
Core_0_STLB_prefetch_accuracy 0
Core_0_STLB_prefetch_coverage 0
Core_0_STLB_total_eviction 339512

Core_0_L1I_total_access 20913008
Core_0_L1I_total_hit 20913008
Core_0_L1I_total_miss 0
Core_0_L1I_total_MPKI 0
Core_0_L1I_total_miss_rate 0
Core_0_L1I_demand_access 20913008
Core_0_L1I_demand_hit 20913008
Core_0_L1I_demand_miss 0
Core_0_L1I_demand_MPKI 0
Core_0_L1I_demand_miss_rate 0
Core_0_L1I_load_access 20913008
Core_0_L1I_load_hit 20913008
Core_0_L1I_load_miss 0
Core_0_L1I_load_MPKI 0
Core_0_L1I_load_miss_rate 0
Core_0_L1I_rfo_access 0
Core_0_L1I_rfo_hit 0
Core_0_L1I_rfo_miss 0
Core_0_L1I_rfo_MPKI 0
Core_0_L1I_rfo_miss_rate 0
Core_0_L1I_prefetch_access 0
Core_0_L1I_prefetch_hit 0
Core_0_L1I_prefetch_miss 0
Core_0_L1I_prefetch_MPKI 0
Core_0_L1I_prefetch_miss_rate 0
Core_0_L1I_writeback_access 0
Core_0_L1I_writeback_hit 0
Core_0_L1I_writeback_miss 0
Core_0_L1I_writeback_MPKI 0
Core_0_L1I_writeback_miss_rate 0
Core_0_L1I_prefetch_requested 0
Core_0_L1I_prefetch_issued 0
Core_0_L1I_prefetch_useful 0
Core_0_L1I_prefetch_useless 0
Core_0_L1I_prefetch_late 0
Core_0_L1I_prefetch_accuracy 0
Core_0_L1I_prefetch_coverage 0
Core_0_L1I_total_eviction 0

Core_0_L1D_total_access 47101859
Core_0_L1D_total_hit 42568216
Core_0_L1D_total_miss 4533643
Core_0_L1D_total_MPKI 45.3364
Core_0_L1D_total_miss_rate 0.0962519
Core_0_L1D_demand_access 31808981
Core_0_L1D_demand_hit 31329722
Core_0_L1D_demand_miss 479259
Core_0_L1D_demand_MPKI 4.79259
Core_0_L1D_demand_miss_rate 0.0150668
Core_0_L1D_load_access 31808981
Core_0_L1D_load_hit 31329722
Core_0_L1D_load_miss 479259
Core_0_L1D_load_MPKI 4.79259
Core_0_L1D_load_miss_rate 0.0150668
Core_0_L1D_rfo_access 0
Core_0_L1D_rfo_hit 0
Core_0_L1D_rfo_miss 0
Core_0_L1D_rfo_MPKI 0
Core_0_L1D_rfo_miss_rate 0
Core_0_L1D_prefetch_access 8881571
Core_0_L1D_prefetch_hit 4827187
Core_0_L1D_prefetch_miss 4054384
Core_0_L1D_prefetch_MPKI 40.5438
Core_0_L1D_prefetch_miss_rate 0.456494
Core_0_L1D_writeback_access 6411307
Core_0_L1D_writeback_hit 6411307
Core_0_L1D_writeback_miss 0
Core_0_L1D_writeback_MPKI 0
Core_0_L1D_writeback_miss_rate 0
Core_0_L1D_prefetch_requested 55950585
Core_0_L1D_prefetch_issued 8881571
Core_0_L1D_prefetch_useful 1627532
Core_0_L1D_prefetch_useless 266403
Core_0_L1D_prefetch_late 62179
Core_0_L1D_prefetch_accuracy 0.183248
Core_0_L1D_prefetch_coverage 0.772517
Core_0_L1D_total_eviction 2190521

Core_0_L2C_total_access 5456102
Core_0_L2C_total_hit 2269668
Core_0_L2C_total_miss 3186434
Core_0_L2C_total_MPKI 31.8643
Core_0_L2C_total_miss_rate 0.584013
Core_0_L2C_demand_access 296491
Core_0_L2C_demand_hit 193332
Core_0_L2C_demand_miss 103159
Core_0_L2C_demand_MPKI 1.03159
Core_0_L2C_demand_miss_rate 0.347933
Core_0_L2C_load_access 296491
Core_0_L2C_load_hit 193332
Core_0_L2C_load_miss 103159
Core_0_L2C_load_MPKI 1.03159
Core_0_L2C_load_miss_rate 0.347933
Core_0_L2C_rfo_access 0
Core_0_L2C_rfo_hit 0
Core_0_L2C_rfo_miss 0
Core_0_L2C_rfo_MPKI 0
Core_0_L2C_rfo_miss_rate 0
Core_0_L2C_prefetch_access 4188091
Core_0_L2C_prefetch_hit 1104816
Core_0_L2C_prefetch_miss 3083275
Core_0_L2C_prefetch_MPKI 30.8327
Core_0_L2C_prefetch_miss_rate 0.736201
Core_0_L2C_writeback_access 971520
Core_0_L2C_writeback_hit 971520
Core_0_L2C_writeback_miss 0
Core_0_L2C_writeback_MPKI 0
Core_0_L2C_writeback_miss_rate 0
Core_0_L2C_prefetch_requested 148651
Core_0_L2C_prefetch_issued 148651
Core_0_L2C_prefetch_useful 62356
Core_0_L2C_prefetch_useless 9448
Core_0_L2C_prefetch_late 1
Core_0_L2C_prefetch_accuracy 0.419479
Core_0_L2C_prefetch_coverage 0.376739
Core_0_L2C_total_eviction 2489746

Core_0_LLC_total_access 3500838
Core_0_LLC_total_hit 1052948
Core_0_LLC_total_miss 2447890
Core_0_LLC_total_MPKI 24.4789
Core_0_LLC_total_miss_rate 0.69923
Core_0_LLC_demand_access 91857
Core_0_LLC_demand_hit 9044
Core_0_LLC_demand_miss 82813
Core_0_LLC_demand_MPKI 0.82813
Core_0_LLC_demand_miss_rate 0.901543
Core_0_LLC_load_access 91857
Core_0_LLC_load_hit 9044
Core_0_LLC_load_miss 82813
Core_0_LLC_load_MPKI 0.82813
Core_0_LLC_load_miss_rate 0.901543
Core_0_LLC_rfo_access 0
Core_0_LLC_rfo_hit 0
Core_0_LLC_rfo_miss 0
Core_0_LLC_rfo_MPKI 0
Core_0_LLC_rfo_miss_rate 0
Core_0_LLC_prefetch_access 2437376
Core_0_LLC_prefetch_hit 188056
Core_0_LLC_prefetch_miss 2249320
Core_0_LLC_prefetch_MPKI 22.4932
Core_0_LLC_prefetch_miss_rate 0.922845
Core_0_LLC_writeback_access 971605
Core_0_LLC_writeback_hit 855848
Core_0_LLC_writeback_miss 115757
Core_0_LLC_writeback_MPKI 1.15757
Core_0_LLC_writeback_miss_rate 0.11914
Core_0_LLC_prefetch_requested 0
Core_0_LLC_prefetch_issued 0
Core_0_LLC_prefetch_useful 0
Core_0_LLC_prefetch_useless 0
Core_0_LLC_prefetch_late 0
Core_0_LLC_prefetch_accuracy 0
Core_0_LLC_prefetch_coverage 0
Core_0_LLC_total_eviction 2443045

[DRAM Statistics]
Channel_0_RQ_row_buffer_hit 272449
Channel_0_RQ_row_buffer_miss 2054839
Channel_0_WQ_row_buffer_hit 108912
Channel_0_WQ_row_buffer_miss 863063
Channel_0_WQ_full 0
Channel_0_dbus_congested 10156729
DRAM_total_RQ_row_buffer_hit 272449
DRAM_total_RQ_row_buffer_miss 2054839
DRAM_total_WQ_row_buffer_hit 108912
DRAM_total_WQ_row_buffer_miss 863063
DRAM_total_WQ_full 0
DRAM_total_dbus_congested 10156729
DRAM_avg_congested_cycle 7.08448

======STLB miss causes ========
Core_0_STLB_miss_cause_breakdown
Core_0_STLB_cause_Demand_Data_miss 0
Core_0_STLB_cause_Demand_Data_miss_rate 0
Core_0_STLB_cause_Demand_Instruction_miss 0
Core_0_STLB_cause_Demand_Instruction_miss_rate 0
Core_0_STLB_cause_L1D_Prefetch_miss 0
Core_0_STLB_cause_L1D_Prefetch_miss_rate 0
Core_0_STLB_cause_L1I_Prefetch_miss 0
Core_0_STLB_cause_L1I_Prefetch_miss_rate 0
Core_0_STLB_cause_Other_miss 0
Core_0_STLB_cause_Other_miss_rate 0
Core_0_STLB_Demand_miss 0
Core_0_STLB_Demand_miss_rate 0
Core_0_STLB_L1D_Prefetch_miss 0
Core_0_STLB_L1D_Prefetch_miss_rate 0
Core_0_STLB_Other_miss 0
Core_0_STLB_Other_miss_rate 0
BERTI TO_L1: 41773697 TO_L2: 41620670 TO_L2_BC_MSHR: 6027625
BERTI AVG_LAT: 251.977 NUM_TRACK_LATENCY: 3154154 NUM_CANT_TRACK_LATENCY: 0
BERTI CROSS_PAGE 50446399 NO_CROSS_PAGE: 32947968
BERTI FOUND_BERTI: 23597739 NO_FOUND_BERTI: 31789688
BERTI AVERAGE_ISSUED: 1.58528
