[VMEM] WARNING: physical memory size is smaller than virtual memory size.

*** ChampSim Multicore Out-of-Order Simulator ***
Warmup Instructions: 50000000
Simulation Instructions: 100000000
Number of CPUs: 1
Page size: 4096
STLB ideal mode: all
STLB ideal fill: on
Core 0: /data2/zcq/champsim_traces_gap/bfs.road-140B.champsimtrace.xz
VBerti Prefetcher
BERTI HASH ENTANGLING
BERTI IP MASK ffff
Off-chip DRAM Size: 16 GiB Channels: 1 Width: 64-bit Data Rate: 3205 MT/s
Warmup halting CPU 0 at instruction 50000003 cycle 12978209 for remainder of phase
Warmup finished CPU 0 instructions: 50000003 cycles: 12978209 cumulative IPC: 3.853 (Simulation time: 00 hr 02 min 46 sec)
Warmup complete CPU 0 instructions: 50000003 cycles: 12978209 cumulative IPC: 3.853 (Simulation time: 00 hr 02 min 46 sec)
Simulation finished CPU 0 instructions: 100000001 cycles: 547596730 cumulative IPC: 0.1826 (Simulation time: 00 hr 36 min 41 sec)
Simulation complete CPU 0 instructions: 100000001 cycles: 547596730 cumulative IPC: 0.1826 (Simulation time: 00 hr 36 min 41 sec)

ChampSim completed all CPUs

=== Simulation ===
CPU 0 runs /data2/zcq/champsim_traces_gap/bfs.road-140B.champsimtrace.xz

Region of Interest Statistics

CPU 0 cumulative IPC: 0.1826 instructions: 100000001 cycles: 547596730
CPU 0 Branch Prediction Accuracy: 86.25% MPKI: 23.83 Average ROB Occupancy at Mispredict: 19.71
Branch type MPKI
BRANCH_DIRECT_JUMP: 0.00382
BRANCH_INDIRECT: 0.00758
BRANCH_CONDITIONAL: 23.8
BRANCH_DIRECT_CALL: 3e-05
BRANCH_INDIRECT_CALL: 0.00379
BRANCH_RETURN: 0.0152

cpu0->cpu0_STLB TOTAL        ACCESS:    1350601 HIT:    1350601 MISS:          0 MSHR_MERGE:          0
cpu0->cpu0_STLB LOAD         ACCESS:    1350601 HIT:    1350601 MISS:          0 MSHR_MERGE:          0
cpu0->cpu0_STLB RFO          ACCESS:          0 HIT:          0 MISS:          0 MSHR_MERGE:          0
cpu0->cpu0_STLB PREFETCH     ACCESS:          0 HIT:          0 MISS:          0 MSHR_MERGE:          0
cpu0->cpu0_STLB WRITE        ACCESS:          0 HIT:          0 MISS:          0 MSHR_MERGE:          0
cpu0->cpu0_STLB TRANSLATION  ACCESS:          0 HIT:          0 MISS:          0 MSHR_MERGE:          0
cpu0->cpu0_STLB PREFETCH REQUESTED:          0 ISSUED:          0 USEFUL:          0 USELESS:          0 LATE:          0
cpu0->cpu0_STLB AVERAGE MISS LATENCY: - cycles
cpu0->cpu0_L2C TOTAL        ACCESS:    8531722 HIT:    3282908 MISS:    5248814 MSHR_MERGE:     103651
cpu0->cpu0_L2C LOAD         ACCESS:    4915538 HIT:     184085 MISS:    4731453 MSHR_MERGE:        898
cpu0->cpu0_L2C RFO          ACCESS:      11411 HIT:        578 MISS:      10833 MSHR_MERGE:          0
cpu0->cpu0_L2C PREFETCH     ACCESS:    2145357 HIT:    1638836 MISS:     506521 MSHR_MERGE:     102753
cpu0->cpu0_L2C WRITE        ACCESS:    1459416 HIT:    1459409 MISS:          7 MSHR_MERGE:          0
cpu0->cpu0_L2C TRANSLATION  ACCESS:          0 HIT:          0 MISS:          0 MSHR_MERGE:          0
cpu0->cpu0_L2C PREFETCH REQUESTED:     514644 ISSUED:     506418 USEFUL:     126693 USELESS:      40123 LATE:        360
cpu0->cpu0_L2C AVERAGE MISS LATENCY: 82.87 cycles
cpu0->cpu0_L1I TOTAL        ACCESS:    7128932 HIT:    7110086 MISS:      18846 MSHR_MERGE:       5449
cpu0->cpu0_L1I LOAD         ACCESS:    7128932 HIT:    7110086 MISS:      18846 MSHR_MERGE:       5449
cpu0->cpu0_L1I RFO          ACCESS:          0 HIT:          0 MISS:          0 MSHR_MERGE:          0
cpu0->cpu0_L1I PREFETCH     ACCESS:          0 HIT:          0 MISS:          0 MSHR_MERGE:          0
cpu0->cpu0_L1I WRITE        ACCESS:          0 HIT:          0 MISS:          0 MSHR_MERGE:          0
cpu0->cpu0_L1I TRANSLATION  ACCESS:          0 HIT:          0 MISS:          0 MSHR_MERGE:          0
cpu0->cpu0_L1I PREFETCH REQUESTED:          0 ISSUED:          0 USEFUL:          0 USELESS:          0 LATE:          0
cpu0->cpu0_L1I AVERAGE MISS LATENCY: 26.2 cycles
cpu0->cpu0_L1D TOTAL        ACCESS:   96237446 HIT:   88681528 MISS:    7555918 MSHR_MERGE:     999804
cpu0->cpu0_L1D LOAD         ACCESS:   31518144 HIT:   25634146 MISS:    5883998 MSHR_MERGE:     981857
cpu0->cpu0_L1D RFO          ACCESS:          0 HIT:          0 MISS:          0 MSHR_MERGE:          0
cpu0->cpu0_L1D PREFETCH     ACCESS:   54145208 HIT:   52498039 MISS:    1647169 MSHR_MERGE:       4607
cpu0->cpu0_L1D WRITE        ACCESS:   10574094 HIT:   10549343 MISS:      24751 MSHR_MERGE:      13340
cpu0->cpu0_L1D TRANSLATION  ACCESS:          0 HIT:          0 MISS:          0 MSHR_MERGE:          0
cpu0->cpu0_L1D PREFETCH REQUESTED:  126197256 ISSUED:   54145200 USEFUL:     422935 USELESS:      11496 LATE:         29
cpu0->cpu0_L1D AVERAGE MISS LATENCY: 88.91 cycles
cpu0->cpu0_ITLB TOTAL        ACCESS:    7084825 HIT:    7083019 MISS:       1806 MSHR_MERGE:        670
cpu0->cpu0_ITLB LOAD         ACCESS:    7084825 HIT:    7083019 MISS:       1806 MSHR_MERGE:        670
cpu0->cpu0_ITLB RFO          ACCESS:          0 HIT:          0 MISS:          0 MSHR_MERGE:          0
cpu0->cpu0_ITLB PREFETCH     ACCESS:          0 HIT:          0 MISS:          0 MSHR_MERGE:          0
cpu0->cpu0_ITLB WRITE        ACCESS:          0 HIT:          0 MISS:          0 MSHR_MERGE:          0
cpu0->cpu0_ITLB TRANSLATION  ACCESS:          0 HIT:          0 MISS:          0 MSHR_MERGE:          0
cpu0->cpu0_ITLB PREFETCH REQUESTED:          0 ISSUED:          0 USEFUL:          0 USELESS:          0 LATE:          0
cpu0->cpu0_ITLB AVERAGE MISS LATENCY: 5 cycles
cpu0->cpu0_DTLB TOTAL        ACCESS:   73463945 HIT:   71730240 MISS:    1733705 MSHR_MERGE:     384240
cpu0->cpu0_DTLB LOAD         ACCESS:   73463945 HIT:   71730240 MISS:    1733705 MSHR_MERGE:     384240
cpu0->cpu0_DTLB RFO          ACCESS:          0 HIT:          0 MISS:          0 MSHR_MERGE:          0
cpu0->cpu0_DTLB PREFETCH     ACCESS:          0 HIT:          0 MISS:          0 MSHR_MERGE:          0
cpu0->cpu0_DTLB WRITE        ACCESS:          0 HIT:          0 MISS:          0 MSHR_MERGE:          0
cpu0->cpu0_DTLB TRANSLATION  ACCESS:          0 HIT:          0 MISS:          0 MSHR_MERGE:          0
cpu0->cpu0_DTLB PREFETCH REQUESTED:          0 ISSUED:          0 USEFUL:          0 USELESS:          0 LATE:          0
cpu0->cpu0_DTLB AVERAGE MISS LATENCY: 5 cycles
cpu0->LLC TOTAL        ACCESS:    6538851 HIT:    4558679 MISS:    1980172 MSHR_MERGE:          5
cpu0->LLC LOAD         ACCESS:    4730555 HIT:    2973374 MISS:    1757181 MSHR_MERGE:          0
cpu0->LLC RFO          ACCESS:      10833 HIT:      10625 MISS:        208 MSHR_MERGE:          0
cpu0->LLC PREFETCH     ACCESS:     403768 HIT:     218909 MISS:     184859 MSHR_MERGE:          5
cpu0->LLC WRITE        ACCESS:    1393695 HIT:    1355771 MISS:      37924 MSHR_MERGE:          0
cpu0->LLC TRANSLATION  ACCESS:          0 HIT:          0 MISS:          0 MSHR_MERGE:          0
cpu0->LLC PREFETCH REQUESTED:          0 ISSUED:          0 USEFUL:          0 USELESS:          0 LATE:          0
cpu0->LLC AVERAGE MISS LATENCY: 178.4 cycles

DRAM Statistics

Channel 0 RQ ROW_BUFFER_HIT:       7124
  ROW_BUFFER_MISS:    1934999
  AVG DBUS CONGESTED CYCLE: 21.94
Channel 0 WQ ROW_BUFFER_HIT:     137774
  ROW_BUFFER_MISS:     274805
  FULL:          0
Channel 0 REFRESHES ISSUED:      45633

[ROI Statistics]
[System Configuration]
num_cpus 1
cpu_freq 4000
fetch_width 6
decode_width 6
dispatch_width 6
execute_width 6
lq_width 2
sq_width 2
retire_width 6
scheduler_size 128
branch_mispredict_penalty 15
rob_size 352
lq_size 128
sq_size 72
ifetch_buffer_size 64
decode_buffer_size 32
dispatch_buffer_size 32
register_file_size 288
decode_latency 1
dispatch_latency 1
schedule_latency 1
execute_latency 1
page_size 4096
block_size 64
core_0_itlb_set 16
core_0_itlb_way 4
core_0_itlb_rq_size 16
core_0_itlb_wq_size 16
core_0_itlb_pq_size 0
core_0_itlb_mshr_size 8
core_0_itlb_hit_latency 1
core_0_itlb_fill_latency 1
core_0_itlb_max_tag_check 2
core_0_itlb_max_fill 2
core_0_dtlb_set 16
core_0_dtlb_way 4
core_0_dtlb_rq_size 16
core_0_dtlb_wq_size 16
core_0_dtlb_pq_size 0
core_0_dtlb_mshr_size 8
core_0_dtlb_hit_latency 1
core_0_dtlb_fill_latency 1
core_0_dtlb_max_tag_check 2
core_0_dtlb_max_fill 2
core_0_stlb_set 128
core_0_stlb_way 12
core_0_stlb_rq_size 32
core_0_stlb_wq_size 32
core_0_stlb_pq_size 0
core_0_stlb_mshr_size 16
core_0_stlb_hit_latency 4
core_0_stlb_fill_latency 4
core_0_stlb_max_tag_check 1
core_0_stlb_max_fill 1
core_0_l1i_set 64
core_0_l1i_way 8
core_0_l1i_rq_size 64
core_0_l1i_wq_size 64
core_0_l1i_pq_size 32
core_0_l1i_mshr_size 8
core_0_l1i_hit_latency 2
core_0_l1i_fill_latency 2
core_0_l1i_max_tag_check 2
core_0_l1i_max_fill 2
core_0_l1d_set 64
core_0_l1d_way 12
core_0_l1d_rq_size 64
core_0_l1d_wq_size 64
core_0_l1d_pq_size 8
core_0_l1d_mshr_size 16
core_0_l1d_hit_latency 2
core_0_l1d_fill_latency 3
core_0_l1d_max_tag_check 2
core_0_l1d_max_fill 2
core_0_l2c_set 1024
core_0_l2c_way 8
core_0_l2c_rq_size 32
core_0_l2c_wq_size 32
core_0_l2c_pq_size 16
core_0_l2c_mshr_size 32
core_0_l2c_hit_latency 5
core_0_l2c_fill_latency 5
core_0_l2c_max_tag_check 1
core_0_l2c_max_fill 1
llc_set 2048
llc_way 16
llc_rq_size 32
llc_wq_size 32
llc_pq_size 32
llc_mshr_size 64
llc_hit_latency 10
llc_fill_latency 10
llc_max_tag_check 1
llc_max_fill 1
dram_channels 1
dram_ranks 1
dram_bankgroups 8
dram_banks 4
dram_rows 65536
dram_columns 1024
dram_channel_width 8
dram_rq_size 64
dram_wq_size 64
dram_size 17179869184
core_0_itlb_prefetcher no
core_0_dtlb_prefetcher no
core_0_stlb_prefetcher no
core_0_l1i_prefetcher next_line
core_0_l1d_prefetcher vberti
core_0_l2c_prefetcher ip_stride
llc_prefetcher no
llc_replacement drrip

Core_0_instructions 100000001
Core_0_cycles 547596730
Core_0_IPC 0.182616
Core_0_branch_prediction_accuracy 86.2548
Core_0_branch_MPKI 23.827
Core_0_average_ROB_occupancy_at_mispredict 19.7109

Core_0_ITLB_total_access 7084825
Core_0_ITLB_total_hit 7083019
Core_0_ITLB_total_miss 1806
Core_0_ITLB_total_MPKI 0.01806
Core_0_ITLB_total_miss_rate 0.000254911
Core_0_ITLB_demand_access 7084825
Core_0_ITLB_demand_hit 7083019
Core_0_ITLB_demand_miss 1806
Core_0_ITLB_demand_MPKI 0.01806
Core_0_ITLB_demand_miss_rate 0.000254911
Core_0_ITLB_load_access 7084825
Core_0_ITLB_load_hit 7083019
Core_0_ITLB_load_miss 1806
Core_0_ITLB_load_MPKI 0.01806
Core_0_ITLB_load_miss_rate 0.000254911
Core_0_ITLB_rfo_access 0
Core_0_ITLB_rfo_hit 0
Core_0_ITLB_rfo_miss 0
Core_0_ITLB_rfo_MPKI 0
Core_0_ITLB_rfo_miss_rate 0
Core_0_ITLB_prefetch_access 0
Core_0_ITLB_prefetch_hit 0
Core_0_ITLB_prefetch_miss 0
Core_0_ITLB_prefetch_MPKI 0
Core_0_ITLB_prefetch_miss_rate 0
Core_0_ITLB_writeback_access 0
Core_0_ITLB_writeback_hit 0
Core_0_ITLB_writeback_miss 0
Core_0_ITLB_writeback_MPKI 0
Core_0_ITLB_writeback_miss_rate 0
Core_0_ITLB_prefetch_requested 0
Core_0_ITLB_prefetch_issued 0
Core_0_ITLB_prefetch_useful 0
Core_0_ITLB_prefetch_useless 0
Core_0_ITLB_prefetch_late 0
Core_0_ITLB_prefetch_accuracy 0
Core_0_ITLB_prefetch_coverage 0
Core_0_ITLB_total_eviction 1136

Core_0_DTLB_total_access 73463945
Core_0_DTLB_total_hit 71730240
Core_0_DTLB_total_miss 1733705
Core_0_DTLB_total_MPKI 17.337
Core_0_DTLB_total_miss_rate 0.0235994
Core_0_DTLB_demand_access 73463945
Core_0_DTLB_demand_hit 71730240
Core_0_DTLB_demand_miss 1733705
Core_0_DTLB_demand_MPKI 17.337
Core_0_DTLB_demand_miss_rate 0.0235994
Core_0_DTLB_load_access 73463945
Core_0_DTLB_load_hit 71730240
Core_0_DTLB_load_miss 1733705
Core_0_DTLB_load_MPKI 17.337
Core_0_DTLB_load_miss_rate 0.0235994
Core_0_DTLB_rfo_access 0
Core_0_DTLB_rfo_hit 0
Core_0_DTLB_rfo_miss 0
Core_0_DTLB_rfo_MPKI 0
Core_0_DTLB_rfo_miss_rate 0
Core_0_DTLB_prefetch_access 0
Core_0_DTLB_prefetch_hit 0
Core_0_DTLB_prefetch_miss 0
Core_0_DTLB_prefetch_MPKI 0
Core_0_DTLB_prefetch_miss_rate 0
Core_0_DTLB_writeback_access 0
Core_0_DTLB_writeback_hit 0
Core_0_DTLB_writeback_miss 0
Core_0_DTLB_writeback_MPKI 0
Core_0_DTLB_writeback_miss_rate 0
Core_0_DTLB_prefetch_requested 0
Core_0_DTLB_prefetch_issued 0
Core_0_DTLB_prefetch_useful 0
Core_0_DTLB_prefetch_useless 0
Core_0_DTLB_prefetch_late 0
Core_0_DTLB_prefetch_accuracy 0
Core_0_DTLB_prefetch_coverage 0
Core_0_DTLB_total_eviction 1349465

Core_0_STLB_total_access 1350601
Core_0_STLB_total_hit 1350601
Core_0_STLB_total_miss 0
Core_0_STLB_total_MPKI 0
Core_0_STLB_total_miss_rate 0
Core_0_STLB_demand_access 1350601
Core_0_STLB_demand_hit 1350601
Core_0_STLB_demand_miss 0
Core_0_STLB_demand_MPKI 0
Core_0_STLB_demand_miss_rate 0
Core_0_STLB_load_access 1350601
Core_0_STLB_load_hit 1350601
Core_0_STLB_load_miss 0
Core_0_STLB_load_MPKI 0
Core_0_STLB_load_miss_rate 0
Core_0_STLB_rfo_access 0
Core_0_STLB_rfo_hit 0
Core_0_STLB_rfo_miss 0
Core_0_STLB_rfo_MPKI 0
Core_0_STLB_rfo_miss_rate 0
Core_0_STLB_prefetch_access 0
Core_0_STLB_prefetch_hit 0
Core_0_STLB_prefetch_miss 0
Core_0_STLB_prefetch_MPKI 0
Core_0_STLB_prefetch_miss_rate 0
Core_0_STLB_writeback_access 0
Core_0_STLB_writeback_hit 0
Core_0_STLB_writeback_miss 0
Core_0_STLB_writeback_MPKI 0
Core_0_STLB_writeback_miss_rate 0
Core_0_STLB_prefetch_requested 0
Core_0_STLB_prefetch_issued 0
Core_0_STLB_prefetch_useful 0
Core_0_STLB_prefetch_useless 0
Core_0_STLB_prefetch_late 0
Core_0_STLB_prefetch_accuracy 0
Core_0_STLB_prefetch_coverage 0
Core_0_STLB_total_eviction 859846

Core_0_L1I_total_access 7128932
Core_0_L1I_total_hit 7110086
Core_0_L1I_total_miss 18846
Core_0_L1I_total_MPKI 0.18846
Core_0_L1I_total_miss_rate 0.00264359
Core_0_L1I_demand_access 7128932
Core_0_L1I_demand_hit 7110086
Core_0_L1I_demand_miss 18846
Core_0_L1I_demand_MPKI 0.18846
Core_0_L1I_demand_miss_rate 0.00264359
Core_0_L1I_load_access 7128932
Core_0_L1I_load_hit 7110086
Core_0_L1I_load_miss 18846
Core_0_L1I_load_MPKI 0.18846
Core_0_L1I_load_miss_rate 0.00264359
Core_0_L1I_rfo_access 0
Core_0_L1I_rfo_hit 0
Core_0_L1I_rfo_miss 0
Core_0_L1I_rfo_MPKI 0
Core_0_L1I_rfo_miss_rate 0
Core_0_L1I_prefetch_access 0
Core_0_L1I_prefetch_hit 0
Core_0_L1I_prefetch_miss 0
Core_0_L1I_prefetch_MPKI 0
Core_0_L1I_prefetch_miss_rate 0
Core_0_L1I_writeback_access 0
Core_0_L1I_writeback_hit 0
Core_0_L1I_writeback_miss 0
Core_0_L1I_writeback_MPKI 0
Core_0_L1I_writeback_miss_rate 0
Core_0_L1I_prefetch_requested 0
Core_0_L1I_prefetch_issued 0
Core_0_L1I_prefetch_useful 0
Core_0_L1I_prefetch_useless 0
Core_0_L1I_prefetch_late 0
Core_0_L1I_prefetch_accuracy 0
Core_0_L1I_prefetch_coverage 0
Core_0_L1I_total_eviction 13388

Core_0_L1D_total_access 96237446
Core_0_L1D_total_hit 88681528
Core_0_L1D_total_miss 7555918
Core_0_L1D_total_MPKI 75.5592
Core_0_L1D_total_miss_rate 0.0785133
Core_0_L1D_demand_access 31518144
Core_0_L1D_demand_hit 25634146
Core_0_L1D_demand_miss 5883998
Core_0_L1D_demand_MPKI 58.84
Core_0_L1D_demand_miss_rate 0.186686
Core_0_L1D_load_access 31518144
Core_0_L1D_load_hit 25634146
Core_0_L1D_load_miss 5883998
Core_0_L1D_load_MPKI 58.84
Core_0_L1D_load_miss_rate 0.186686
Core_0_L1D_rfo_access 0
Core_0_L1D_rfo_hit 0
Core_0_L1D_rfo_miss 0
Core_0_L1D_rfo_MPKI 0
Core_0_L1D_rfo_miss_rate 0
Core_0_L1D_prefetch_access 54145208
Core_0_L1D_prefetch_hit 52498039
Core_0_L1D_prefetch_miss 1647169
Core_0_L1D_prefetch_MPKI 16.4717
Core_0_L1D_prefetch_miss_rate 0.0304213
Core_0_L1D_writeback_access 10574094
Core_0_L1D_writeback_hit 10549343
Core_0_L1D_writeback_miss 24751
Core_0_L1D_writeback_MPKI 0.24751
Core_0_L1D_writeback_miss_rate 0.00234072
Core_0_L1D_prefetch_requested 126197256
Core_0_L1D_prefetch_issued 54145200
Core_0_L1D_prefetch_useful 422935
Core_0_L1D_prefetch_useless 11496
Core_0_L1D_prefetch_late 29
Core_0_L1D_prefetch_accuracy 0.00781113
Core_0_L1D_prefetch_coverage 0.0670587
Core_0_L1D_total_eviction 5347990

Core_0_L2C_total_access 8531722
Core_0_L2C_total_hit 3282908
Core_0_L2C_total_miss 5248814
Core_0_L2C_total_MPKI 52.4881
Core_0_L2C_total_miss_rate 0.615212
Core_0_L2C_demand_access 4926949
Core_0_L2C_demand_hit 184663
Core_0_L2C_demand_miss 4742286
Core_0_L2C_demand_MPKI 47.4229
Core_0_L2C_demand_miss_rate 0.96252
Core_0_L2C_load_access 4915538
Core_0_L2C_load_hit 184085
Core_0_L2C_load_miss 4731453
Core_0_L2C_load_MPKI 47.3145
Core_0_L2C_load_miss_rate 0.96255
Core_0_L2C_rfo_access 11411
Core_0_L2C_rfo_hit 578
Core_0_L2C_rfo_miss 10833
Core_0_L2C_rfo_MPKI 0.10833
Core_0_L2C_rfo_miss_rate 0.949347
Core_0_L2C_prefetch_access 2145357
Core_0_L2C_prefetch_hit 1638836
Core_0_L2C_prefetch_miss 506521
Core_0_L2C_prefetch_MPKI 5.06521
Core_0_L2C_prefetch_miss_rate 0.236101
Core_0_L2C_writeback_access 1459416
Core_0_L2C_writeback_hit 1459409
Core_0_L2C_writeback_miss 7
Core_0_L2C_writeback_MPKI 7e-05
Core_0_L2C_writeback_miss_rate 4.79644e-06
Core_0_L2C_prefetch_requested 514644
Core_0_L2C_prefetch_issued 506418
Core_0_L2C_prefetch_useful 126693
Core_0_L2C_prefetch_useless 40123
Core_0_L2C_prefetch_late 360
Core_0_L2C_prefetch_accuracy 0.250175
Core_0_L2C_prefetch_coverage 0.0260204
Core_0_L2C_total_eviction 5145109

Core_0_LLC_total_access 6538851
Core_0_LLC_total_hit 4558679
Core_0_LLC_total_miss 1980172
Core_0_LLC_total_MPKI 19.8017
Core_0_LLC_total_miss_rate 0.302832
Core_0_LLC_demand_access 4741388
Core_0_LLC_demand_hit 2983999
Core_0_LLC_demand_miss 1757389
Core_0_LLC_demand_MPKI 17.5739
Core_0_LLC_demand_miss_rate 0.370649
Core_0_LLC_load_access 4730555
Core_0_LLC_load_hit 2973374
Core_0_LLC_load_miss 1757181
Core_0_LLC_load_MPKI 17.5718
Core_0_LLC_load_miss_rate 0.371453
Core_0_LLC_rfo_access 10833
Core_0_LLC_rfo_hit 10625
Core_0_LLC_rfo_miss 208
Core_0_LLC_rfo_MPKI 0.00208
Core_0_LLC_rfo_miss_rate 0.0192006
Core_0_LLC_prefetch_access 403768
Core_0_LLC_prefetch_hit 218909
Core_0_LLC_prefetch_miss 184859
Core_0_LLC_prefetch_MPKI 1.84859
Core_0_LLC_prefetch_miss_rate 0.457835
Core_0_LLC_writeback_access 1393695
Core_0_LLC_writeback_hit 1355771
Core_0_LLC_writeback_miss 37924
Core_0_LLC_writeback_MPKI 0.37924
Core_0_LLC_writeback_miss_rate 0.0272111
Core_0_LLC_prefetch_requested 0
Core_0_LLC_prefetch_issued 0
Core_0_LLC_prefetch_useful 0
Core_0_LLC_prefetch_useless 0
Core_0_LLC_prefetch_late 0
Core_0_LLC_prefetch_accuracy 0
Core_0_LLC_prefetch_coverage 0
Core_0_LLC_total_eviction 1980167

[DRAM Statistics]
Channel_0_RQ_row_buffer_hit 7124
Channel_0_RQ_row_buffer_miss 1934999
Channel_0_WQ_row_buffer_hit 137774
Channel_0_WQ_row_buffer_miss 274805
Channel_0_WQ_full 0
Channel_0_dbus_congested 6700641
DRAM_total_RQ_row_buffer_hit 7124
DRAM_total_RQ_row_buffer_miss 1934999
DRAM_total_WQ_row_buffer_hit 137774
DRAM_total_WQ_row_buffer_miss 274805
DRAM_total_WQ_full 0
DRAM_total_dbus_congested 6700641
DRAM_avg_congested_cycle 21.9449

======STLB miss causes ========
Core_0_STLB_miss_cause_breakdown
Core_0_STLB_cause_Demand_Data_miss 0
Core_0_STLB_cause_Demand_Data_miss_rate 0
Core_0_STLB_cause_Demand_Instruction_miss 0
Core_0_STLB_cause_Demand_Instruction_miss_rate 0
Core_0_STLB_cause_L1D_Prefetch_miss 0
Core_0_STLB_cause_L1D_Prefetch_miss_rate 0
Core_0_STLB_cause_L1I_Prefetch_miss 0
Core_0_STLB_cause_L1I_Prefetch_miss_rate 0
Core_0_STLB_cause_Other_miss 0
Core_0_STLB_cause_Other_miss_rate 0
Core_0_STLB_Demand_miss 0
Core_0_STLB_Demand_miss_rate 0
Core_0_STLB_L1D_Prefetch_miss 0
Core_0_STLB_L1D_Prefetch_miss_rate 0
Core_0_STLB_Other_miss 0
Core_0_STLB_Other_miss_rate 0
BERTI TO_L1: 135559551 TO_L2: 13012315 TO_L2_BC_MSHR: 58
BERTI AVG_LAT: 64.274 NUM_TRACK_LATENCY: 8042612 NUM_CANT_TRACK_LATENCY: 0
BERTI CROSS_PAGE 11500629 NO_CROSS_PAGE: 137071237
BERTI FOUND_BERTI: 40383437 NO_FOUND_BERTI: 14141363
BERTI AVERAGE_ISSUED: 3.11683
