[VMEM] WARNING: physical memory size is smaller than virtual memory size.

*** ChampSim Multicore Out-of-Order Simulator ***
Warmup Instructions: 50000000
Simulation Instructions: 100000000
Number of CPUs: 1
Page size: 4096
STLB ideal mode: all
STLB ideal fill: on
Core 0: /data2/zcq/champsim_traces_gap/bfs.urand-356B.champsimtrace.xz
VBerti Prefetcher
BERTI HASH ENTANGLING
BERTI IP MASK ffff
Off-chip DRAM Size: 16 GiB Channels: 1 Width: 64-bit Data Rate: 3205 MT/s
Warmup halting CPU 0 at instruction 50000003 cycle 19747783 for remainder of phase
Warmup finished CPU 0 instructions: 50000003 cycles: 19747783 cumulative IPC: 2.532 (Simulation time: 00 hr 03 min 28 sec)
Warmup complete CPU 0 instructions: 50000003 cycles: 19747783 cumulative IPC: 2.532 (Simulation time: 00 hr 03 min 28 sec)
Simulation finished CPU 0 instructions: 100000000 cycles: 491623187 cumulative IPC: 0.2034 (Simulation time: 00 hr 48 min 24 sec)
Simulation complete CPU 0 instructions: 100000000 cycles: 491623187 cumulative IPC: 0.2034 (Simulation time: 00 hr 48 min 24 sec)

ChampSim completed all CPUs

=== Simulation ===
CPU 0 runs /data2/zcq/champsim_traces_gap/bfs.urand-356B.champsimtrace.xz

Region of Interest Statistics

CPU 0 cumulative IPC: 0.2034 instructions: 100000000 cycles: 491623187
CPU 0 Branch Prediction Accuracy: 95.72% MPKI: 6.689 Average ROB Occupancy at Mispredict: 94.03
Branch type MPKI
BRANCH_DIRECT_JUMP: 0
BRANCH_INDIRECT: 0
BRANCH_CONDITIONAL: 6.689
BRANCH_DIRECT_CALL: 0
BRANCH_INDIRECT_CALL: 0
BRANCH_RETURN: 0

cpu0->cpu0_STLB TOTAL        ACCESS:    4312617 HIT:    4312617 MISS:          0 MSHR_MERGE:          0
cpu0->cpu0_STLB LOAD         ACCESS:    4312617 HIT:    4312617 MISS:          0 MSHR_MERGE:          0
cpu0->cpu0_STLB RFO          ACCESS:          0 HIT:          0 MISS:          0 MSHR_MERGE:          0
cpu0->cpu0_STLB PREFETCH     ACCESS:          0 HIT:          0 MISS:          0 MSHR_MERGE:          0
cpu0->cpu0_STLB WRITE        ACCESS:          0 HIT:          0 MISS:          0 MSHR_MERGE:          0
cpu0->cpu0_STLB TRANSLATION  ACCESS:          0 HIT:          0 MISS:          0 MSHR_MERGE:          0
cpu0->cpu0_STLB PREFETCH REQUESTED:          0 ISSUED:          0 USEFUL:          0 USELESS:          0 LATE:          0
cpu0->cpu0_STLB AVERAGE MISS LATENCY: - cycles
cpu0->cpu0_L2C TOTAL        ACCESS:   13314413 HIT:    7178462 MISS:    6135951 MSHR_MERGE:     877656
cpu0->cpu0_L2C LOAD         ACCESS:    4367295 HIT:     103420 MISS:    4263875 MSHR_MERGE:        339
cpu0->cpu0_L2C RFO          ACCESS:        436 HIT:        216 MISS:        220 MSHR_MERGE:          0
cpu0->cpu0_L2C PREFETCH     ACCESS:    4963491 HIT:    3091851 MISS:    1871640 MSHR_MERGE:     877317
cpu0->cpu0_L2C WRITE        ACCESS:    3983191 HIT:    3982975 MISS:        216 MSHR_MERGE:          0
cpu0->cpu0_L2C TRANSLATION  ACCESS:          0 HIT:          0 MISS:          0 MSHR_MERGE:          0
cpu0->cpu0_L2C PREFETCH REQUESTED:     729559 ISSUED:     714444 USEFUL:     306308 USELESS:      76832 LATE:          1
cpu0->cpu0_L2C AVERAGE MISS LATENCY: 312.9 cycles
cpu0->cpu0_L1I TOTAL        ACCESS:   15188651 HIT:   15188651 MISS:          0 MSHR_MERGE:          0
cpu0->cpu0_L1I LOAD         ACCESS:   15188651 HIT:   15188651 MISS:          0 MSHR_MERGE:          0
cpu0->cpu0_L1I RFO          ACCESS:          0 HIT:          0 MISS:          0 MSHR_MERGE:          0
cpu0->cpu0_L1I PREFETCH     ACCESS:          0 HIT:          0 MISS:          0 MSHR_MERGE:          0
cpu0->cpu0_L1I WRITE        ACCESS:          0 HIT:          0 MISS:          0 MSHR_MERGE:          0
cpu0->cpu0_L1I TRANSLATION  ACCESS:          0 HIT:          0 MISS:          0 MSHR_MERGE:          0
cpu0->cpu0_L1I PREFETCH REQUESTED:          0 ISSUED:          0 USEFUL:          0 USELESS:          0 LATE:          0
cpu0->cpu0_L1I AVERAGE MISS LATENCY: - cycles
cpu0->cpu0_L1D TOTAL        ACCESS:  143588175 HIT:  134173265 MISS:    9414910 MSHR_MERGE:     612061
cpu0->cpu0_L1D LOAD         ACCESS:   33707602 HIT:   28806413 MISS:    4901189 MSHR_MERGE:     533894
cpu0->cpu0_L1D RFO          ACCESS:          0 HIT:          0 MISS:          0 MSHR_MERGE:          0
cpu0->cpu0_L1D PREFETCH     ACCESS:   88643527 HIT:   84133399 MISS:    4510128 MSHR_MERGE:      75010
cpu0->cpu0_L1D WRITE        ACCESS:   21237046 HIT:   21233453 MISS:       3593 MSHR_MERGE:       3157
cpu0->cpu0_L1D TRANSLATION  ACCESS:          0 HIT:          0 MISS:          0 MSHR_MERGE:          0
cpu0->cpu0_L1D PREFETCH REQUESTED:  229764667 ISSUED:   88643521 USEFUL:     782091 USELESS:      92308 LATE:        559
cpu0->cpu0_L1D AVERAGE MISS LATENCY: 314.5 cycles
cpu0->cpu0_ITLB TOTAL        ACCESS:   15014540 HIT:   15014540 MISS:          0 MSHR_MERGE:          0
cpu0->cpu0_ITLB LOAD         ACCESS:   15014540 HIT:   15014540 MISS:          0 MSHR_MERGE:          0
cpu0->cpu0_ITLB RFO          ACCESS:          0 HIT:          0 MISS:          0 MSHR_MERGE:          0
cpu0->cpu0_ITLB PREFETCH     ACCESS:          0 HIT:          0 MISS:          0 MSHR_MERGE:          0
cpu0->cpu0_ITLB WRITE        ACCESS:          0 HIT:          0 MISS:          0 MSHR_MERGE:          0
cpu0->cpu0_ITLB TRANSLATION  ACCESS:          0 HIT:          0 MISS:          0 MSHR_MERGE:          0
cpu0->cpu0_ITLB PREFETCH REQUESTED:          0 ISSUED:          0 USEFUL:          0 USELESS:          0 LATE:          0
cpu0->cpu0_ITLB AVERAGE MISS LATENCY: - cycles
cpu0->cpu0_DTLB TOTAL        ACCESS:  109009581 HIT:  104289435 MISS:    4720146 MSHR_MERGE:     407529
cpu0->cpu0_DTLB LOAD         ACCESS:  109009581 HIT:  104289435 MISS:    4720146 MSHR_MERGE:     407529
cpu0->cpu0_DTLB RFO          ACCESS:          0 HIT:          0 MISS:          0 MSHR_MERGE:          0
cpu0->cpu0_DTLB PREFETCH     ACCESS:          0 HIT:          0 MISS:          0 MSHR_MERGE:          0
cpu0->cpu0_DTLB WRITE        ACCESS:          0 HIT:          0 MISS:          0 MSHR_MERGE:          0
cpu0->cpu0_DTLB TRANSLATION  ACCESS:          0 HIT:          0 MISS:          0 MSHR_MERGE:          0
cpu0->cpu0_DTLB PREFETCH REQUESTED:          0 ISSUED:          0 USEFUL:          0 USELESS:          0 LATE:          0
cpu0->cpu0_DTLB AVERAGE MISS LATENCY: 5.066 cycles
cpu0->LLC TOTAL        ACCESS:    9238232 HIT:    3469367 MISS:    5768865 MSHR_MERGE:          0
cpu0->LLC LOAD         ACCESS:    4263536 HIT:      12079 MISS:    4251457 MSHR_MERGE:          0
cpu0->LLC RFO          ACCESS:        220 HIT:        178 MISS:         42 MSHR_MERGE:          0
cpu0->LLC PREFETCH     ACCESS:     994323 HIT:     310379 MISS:     683944 MSHR_MERGE:          0
cpu0->LLC WRITE        ACCESS:    3980153 HIT:    3146731 MISS:     833422 MSHR_MERGE:          0
cpu0->LLC TRANSLATION  ACCESS:          0 HIT:          0 MISS:          0 MSHR_MERGE:          0
cpu0->LLC PREFETCH REQUESTED:          0 ISSUED:          0 USEFUL:          0 USELESS:          0 LATE:          0
cpu0->LLC AVERAGE MISS LATENCY: 250.5 cycles

DRAM Statistics

Channel 0 RQ ROW_BUFFER_HIT:      33963
  ROW_BUFFER_MISS:    4901433
  AVG DBUS CONGESTED CYCLE: 5.543
Channel 0 WQ ROW_BUFFER_HIT:     909511
  ROW_BUFFER_MISS:    2844305
  FULL:          0
Channel 0 REFRESHES ISSUED:      40969

[ROI Statistics]
[System Configuration]
num_cpus 1
cpu_freq 4000
fetch_width 6
decode_width 6
dispatch_width 6
execute_width 6
lq_width 2
sq_width 2
retire_width 6
scheduler_size 128
branch_mispredict_penalty 15
rob_size 352
lq_size 128
sq_size 72
ifetch_buffer_size 64
decode_buffer_size 32
dispatch_buffer_size 32
register_file_size 288
decode_latency 1
dispatch_latency 1
schedule_latency 1
execute_latency 1
page_size 4096
block_size 64
core_0_itlb_set 16
core_0_itlb_way 4
core_0_itlb_rq_size 16
core_0_itlb_wq_size 16
core_0_itlb_pq_size 0
core_0_itlb_mshr_size 8
core_0_itlb_hit_latency 1
core_0_itlb_fill_latency 1
core_0_itlb_max_tag_check 2
core_0_itlb_max_fill 2
core_0_dtlb_set 16
core_0_dtlb_way 4
core_0_dtlb_rq_size 16
core_0_dtlb_wq_size 16
core_0_dtlb_pq_size 0
core_0_dtlb_mshr_size 8
core_0_dtlb_hit_latency 1
core_0_dtlb_fill_latency 1
core_0_dtlb_max_tag_check 2
core_0_dtlb_max_fill 2
core_0_stlb_set 128
core_0_stlb_way 12
core_0_stlb_rq_size 32
core_0_stlb_wq_size 32
core_0_stlb_pq_size 0
core_0_stlb_mshr_size 16
core_0_stlb_hit_latency 4
core_0_stlb_fill_latency 4
core_0_stlb_max_tag_check 1
core_0_stlb_max_fill 1
core_0_l1i_set 64
core_0_l1i_way 8
core_0_l1i_rq_size 64
core_0_l1i_wq_size 64
core_0_l1i_pq_size 32
core_0_l1i_mshr_size 8
core_0_l1i_hit_latency 2
core_0_l1i_fill_latency 2
core_0_l1i_max_tag_check 2
core_0_l1i_max_fill 2
core_0_l1d_set 64
core_0_l1d_way 12
core_0_l1d_rq_size 64
core_0_l1d_wq_size 64
core_0_l1d_pq_size 8
core_0_l1d_mshr_size 16
core_0_l1d_hit_latency 2
core_0_l1d_fill_latency 3
core_0_l1d_max_tag_check 2
core_0_l1d_max_fill 2
core_0_l2c_set 1024
core_0_l2c_way 8
core_0_l2c_rq_size 32
core_0_l2c_wq_size 32
core_0_l2c_pq_size 16
core_0_l2c_mshr_size 32
core_0_l2c_hit_latency 5
core_0_l2c_fill_latency 5
core_0_l2c_max_tag_check 1
core_0_l2c_max_fill 1
llc_set 2048
llc_way 16
llc_rq_size 32
llc_wq_size 32
llc_pq_size 32
llc_mshr_size 64
llc_hit_latency 10
llc_fill_latency 10
llc_max_tag_check 1
llc_max_fill 1
dram_channels 1
dram_ranks 1
dram_bankgroups 8
dram_banks 4
dram_rows 65536
dram_columns 1024
dram_channel_width 8
dram_rq_size 64
dram_wq_size 64
dram_size 17179869184
core_0_itlb_prefetcher no
core_0_dtlb_prefetcher no
core_0_stlb_prefetcher no
core_0_l1i_prefetcher next_line
core_0_l1d_prefetcher vberti
core_0_l2c_prefetcher ip_stride
llc_prefetcher no
llc_replacement drrip

Core_0_instructions 100000000
Core_0_cycles 491623187
Core_0_IPC 0.203408
Core_0_branch_prediction_accuracy 95.7183
Core_0_branch_MPKI 6.68915
Core_0_average_ROB_occupancy_at_mispredict 94.0312

Core_0_ITLB_total_access 15014540
Core_0_ITLB_total_hit 15014540
Core_0_ITLB_total_miss 0
Core_0_ITLB_total_MPKI 0
Core_0_ITLB_total_miss_rate 0
Core_0_ITLB_demand_access 15014540
Core_0_ITLB_demand_hit 15014540
Core_0_ITLB_demand_miss 0
Core_0_ITLB_demand_MPKI 0
Core_0_ITLB_demand_miss_rate 0
Core_0_ITLB_load_access 15014540
Core_0_ITLB_load_hit 15014540
Core_0_ITLB_load_miss 0
Core_0_ITLB_load_MPKI 0
Core_0_ITLB_load_miss_rate 0
Core_0_ITLB_rfo_access 0
Core_0_ITLB_rfo_hit 0
Core_0_ITLB_rfo_miss 0
Core_0_ITLB_rfo_MPKI 0
Core_0_ITLB_rfo_miss_rate 0
Core_0_ITLB_prefetch_access 0
Core_0_ITLB_prefetch_hit 0
Core_0_ITLB_prefetch_miss 0
Core_0_ITLB_prefetch_MPKI 0
Core_0_ITLB_prefetch_miss_rate 0
Core_0_ITLB_writeback_access 0
Core_0_ITLB_writeback_hit 0
Core_0_ITLB_writeback_miss 0
Core_0_ITLB_writeback_MPKI 0
Core_0_ITLB_writeback_miss_rate 0
Core_0_ITLB_prefetch_requested 0
Core_0_ITLB_prefetch_issued 0
Core_0_ITLB_prefetch_useful 0
Core_0_ITLB_prefetch_useless 0
Core_0_ITLB_prefetch_late 0
Core_0_ITLB_prefetch_accuracy 0
Core_0_ITLB_prefetch_coverage 0
Core_0_ITLB_total_eviction 0

Core_0_DTLB_total_access 109009581
Core_0_DTLB_total_hit 104289435
Core_0_DTLB_total_miss 4720146
Core_0_DTLB_total_MPKI 47.2015
Core_0_DTLB_total_miss_rate 0.0433003
Core_0_DTLB_demand_access 109009581
Core_0_DTLB_demand_hit 104289435
Core_0_DTLB_demand_miss 4720146
Core_0_DTLB_demand_MPKI 47.2015
Core_0_DTLB_demand_miss_rate 0.0433003
Core_0_DTLB_load_access 109009581
Core_0_DTLB_load_hit 104289435
Core_0_DTLB_load_miss 4720146
Core_0_DTLB_load_MPKI 47.2015
Core_0_DTLB_load_miss_rate 0.0433003
Core_0_DTLB_rfo_access 0
Core_0_DTLB_rfo_hit 0
Core_0_DTLB_rfo_miss 0
Core_0_DTLB_rfo_MPKI 0
Core_0_DTLB_rfo_miss_rate 0
Core_0_DTLB_prefetch_access 0
Core_0_DTLB_prefetch_hit 0
Core_0_DTLB_prefetch_miss 0
Core_0_DTLB_prefetch_MPKI 0
Core_0_DTLB_prefetch_miss_rate 0
Core_0_DTLB_writeback_access 0
Core_0_DTLB_writeback_hit 0
Core_0_DTLB_writeback_miss 0
Core_0_DTLB_writeback_MPKI 0
Core_0_DTLB_writeback_miss_rate 0
Core_0_DTLB_prefetch_requested 0
Core_0_DTLB_prefetch_issued 0
Core_0_DTLB_prefetch_useful 0
Core_0_DTLB_prefetch_useless 0
Core_0_DTLB_prefetch_late 0
Core_0_DTLB_prefetch_accuracy 0
Core_0_DTLB_prefetch_coverage 0
Core_0_DTLB_total_eviction 4312617

Core_0_STLB_total_access 4312617
Core_0_STLB_total_hit 4312617
Core_0_STLB_total_miss 0
Core_0_STLB_total_MPKI 0
Core_0_STLB_total_miss_rate 0
Core_0_STLB_demand_access 4312617
Core_0_STLB_demand_hit 4312617
Core_0_STLB_demand_miss 0
Core_0_STLB_demand_MPKI 0
Core_0_STLB_demand_miss_rate 0
Core_0_STLB_load_access 4312617
Core_0_STLB_load_hit 4312617
Core_0_STLB_load_miss 0
Core_0_STLB_load_MPKI 0
Core_0_STLB_load_miss_rate 0
Core_0_STLB_rfo_access 0
Core_0_STLB_rfo_hit 0
Core_0_STLB_rfo_miss 0
Core_0_STLB_rfo_MPKI 0
Core_0_STLB_rfo_miss_rate 0
Core_0_STLB_prefetch_access 0
Core_0_STLB_prefetch_hit 0
Core_0_STLB_prefetch_miss 0
Core_0_STLB_prefetch_MPKI 0
Core_0_STLB_prefetch_miss_rate 0
Core_0_STLB_writeback_access 0
Core_0_STLB_writeback_hit 0
Core_0_STLB_writeback_miss 0
Core_0_STLB_writeback_MPKI 0
Core_0_STLB_writeback_miss_rate 0
Core_0_STLB_prefetch_requested 0
Core_0_STLB_prefetch_issued 0
Core_0_STLB_prefetch_useful 0
Core_0_STLB_prefetch_useless 0
Core_0_STLB_prefetch_late 0
Core_0_STLB_prefetch_accuracy 0
Core_0_STLB_prefetch_coverage 0
Core_0_STLB_total_eviction 4187606

Core_0_L1I_total_access 15188651
Core_0_L1I_total_hit 15188651
Core_0_L1I_total_miss 0
Core_0_L1I_total_MPKI 0
Core_0_L1I_total_miss_rate 0
Core_0_L1I_demand_access 15188651
Core_0_L1I_demand_hit 15188651
Core_0_L1I_demand_miss 0
Core_0_L1I_demand_MPKI 0
Core_0_L1I_demand_miss_rate 0
Core_0_L1I_load_access 15188651
Core_0_L1I_load_hit 15188651
Core_0_L1I_load_miss 0
Core_0_L1I_load_MPKI 0
Core_0_L1I_load_miss_rate 0
Core_0_L1I_rfo_access 0
Core_0_L1I_rfo_hit 0
Core_0_L1I_rfo_miss 0
Core_0_L1I_rfo_MPKI 0
Core_0_L1I_rfo_miss_rate 0
Core_0_L1I_prefetch_access 0
Core_0_L1I_prefetch_hit 0
Core_0_L1I_prefetch_miss 0
Core_0_L1I_prefetch_MPKI 0
Core_0_L1I_prefetch_miss_rate 0
Core_0_L1I_writeback_access 0
Core_0_L1I_writeback_hit 0
Core_0_L1I_writeback_miss 0
Core_0_L1I_writeback_MPKI 0
Core_0_L1I_writeback_miss_rate 0
Core_0_L1I_prefetch_requested 0
Core_0_L1I_prefetch_issued 0
Core_0_L1I_prefetch_useful 0
Core_0_L1I_prefetch_useless 0
Core_0_L1I_prefetch_late 0
Core_0_L1I_prefetch_accuracy 0
Core_0_L1I_prefetch_coverage 0
Core_0_L1I_total_eviction 0

Core_0_L1D_total_access 143588175
Core_0_L1D_total_hit 134173265
Core_0_L1D_total_miss 9414910
Core_0_L1D_total_MPKI 94.1491
Core_0_L1D_total_miss_rate 0.0655688
Core_0_L1D_demand_access 33707602
Core_0_L1D_demand_hit 28806413
Core_0_L1D_demand_miss 4901189
Core_0_L1D_demand_MPKI 49.0119
Core_0_L1D_demand_miss_rate 0.145403
Core_0_L1D_load_access 33707602
Core_0_L1D_load_hit 28806413
Core_0_L1D_load_miss 4901189
Core_0_L1D_load_MPKI 49.0119
Core_0_L1D_load_miss_rate 0.145403
Core_0_L1D_rfo_access 0
Core_0_L1D_rfo_hit 0
Core_0_L1D_rfo_miss 0
Core_0_L1D_rfo_MPKI 0
Core_0_L1D_rfo_miss_rate 0
Core_0_L1D_prefetch_access 88643527
Core_0_L1D_prefetch_hit 84133399
Core_0_L1D_prefetch_miss 4510128
Core_0_L1D_prefetch_MPKI 45.1013
Core_0_L1D_prefetch_miss_rate 0.0508794
Core_0_L1D_writeback_access 21237046
Core_0_L1D_writeback_hit 21233453
Core_0_L1D_writeback_miss 3593
Core_0_L1D_writeback_MPKI 0.03593
Core_0_L1D_writeback_miss_rate 0.000169185
Core_0_L1D_prefetch_requested 229764667
Core_0_L1D_prefetch_issued 88643521
Core_0_L1D_prefetch_useful 782091
Core_0_L1D_prefetch_useless 92308
Core_0_L1D_prefetch_late 559
Core_0_L1D_prefetch_accuracy 0.00882288
Core_0_L1D_prefetch_coverage 0.137613
Core_0_L1D_total_eviction 5242138

Core_0_L2C_total_access 13314413
Core_0_L2C_total_hit 7178462
Core_0_L2C_total_miss 6135951
Core_0_L2C_total_MPKI 61.3595
Core_0_L2C_total_miss_rate 0.46085
Core_0_L2C_demand_access 4367731
Core_0_L2C_demand_hit 103636
Core_0_L2C_demand_miss 4264095
Core_0_L2C_demand_MPKI 42.6409
Core_0_L2C_demand_miss_rate 0.976272
Core_0_L2C_load_access 4367295
Core_0_L2C_load_hit 103420
Core_0_L2C_load_miss 4263875
Core_0_L2C_load_MPKI 42.6388
Core_0_L2C_load_miss_rate 0.976319
Core_0_L2C_rfo_access 436
Core_0_L2C_rfo_hit 216
Core_0_L2C_rfo_miss 220
Core_0_L2C_rfo_MPKI 0.0022
Core_0_L2C_rfo_miss_rate 0.504587
Core_0_L2C_prefetch_access 4963491
Core_0_L2C_prefetch_hit 3091851
Core_0_L2C_prefetch_miss 1871640
Core_0_L2C_prefetch_MPKI 18.7164
Core_0_L2C_prefetch_miss_rate 0.377081
Core_0_L2C_writeback_access 3983191
Core_0_L2C_writeback_hit 3982975
Core_0_L2C_writeback_miss 216
Core_0_L2C_writeback_MPKI 0.00216
Core_0_L2C_writeback_miss_rate 5.42279e-05
Core_0_L2C_prefetch_requested 729559
Core_0_L2C_prefetch_issued 714444
Core_0_L2C_prefetch_useful 306308
Core_0_L2C_prefetch_useless 76832
Core_0_L2C_prefetch_late 1
Core_0_L2C_prefetch_accuracy 0.428736
Core_0_L2C_prefetch_coverage 0.0670199
Core_0_L2C_total_eviction 5258293

Core_0_LLC_total_access 9238232
Core_0_LLC_total_hit 3469367
Core_0_LLC_total_miss 5768865
Core_0_LLC_total_MPKI 57.6887
Core_0_LLC_total_miss_rate 0.624456
Core_0_LLC_demand_access 4263756
Core_0_LLC_demand_hit 12257
Core_0_LLC_demand_miss 4251499
Core_0_LLC_demand_MPKI 42.515
Core_0_LLC_demand_miss_rate 0.997125
Core_0_LLC_load_access 4263536
Core_0_LLC_load_hit 12079
Core_0_LLC_load_miss 4251457
Core_0_LLC_load_MPKI 42.5146
Core_0_LLC_load_miss_rate 0.997167
Core_0_LLC_rfo_access 220
Core_0_LLC_rfo_hit 178
Core_0_LLC_rfo_miss 42
Core_0_LLC_rfo_MPKI 0.00042
Core_0_LLC_rfo_miss_rate 0.190909
Core_0_LLC_prefetch_access 994323
Core_0_LLC_prefetch_hit 310379
Core_0_LLC_prefetch_miss 683944
Core_0_LLC_prefetch_MPKI 6.83944
Core_0_LLC_prefetch_miss_rate 0.687849
Core_0_LLC_writeback_access 3980153
Core_0_LLC_writeback_hit 3146731
Core_0_LLC_writeback_miss 833422
Core_0_LLC_writeback_MPKI 8.33422
Core_0_LLC_writeback_miss_rate 0.209394
Core_0_LLC_prefetch_requested 0
Core_0_LLC_prefetch_issued 0
Core_0_LLC_prefetch_useful 0
Core_0_LLC_prefetch_useless 0
Core_0_LLC_prefetch_late 0
Core_0_LLC_prefetch_accuracy 0
Core_0_LLC_prefetch_coverage 0
Core_0_LLC_total_eviction 5768862

[DRAM Statistics]
Channel_0_RQ_row_buffer_hit 33963
Channel_0_RQ_row_buffer_miss 4901433
Channel_0_WQ_row_buffer_hit 909511
Channel_0_WQ_row_buffer_miss 2844305
Channel_0_WQ_full 0
Channel_0_dbus_congested 30104948
DRAM_total_RQ_row_buffer_hit 33963
DRAM_total_RQ_row_buffer_miss 4901433
DRAM_total_WQ_row_buffer_hit 909511
DRAM_total_WQ_row_buffer_miss 2844305
DRAM_total_WQ_full 0
DRAM_total_dbus_congested 30104948
DRAM_avg_congested_cycle 5.54289

======STLB miss causes ========
Core_0_STLB_miss_cause_breakdown
Core_0_STLB_cause_Demand_Data_miss 0
Core_0_STLB_cause_Demand_Data_miss_rate 0
Core_0_STLB_cause_Demand_Instruction_miss 0
Core_0_STLB_cause_Demand_Instruction_miss_rate 0
Core_0_STLB_cause_L1D_Prefetch_miss 0
Core_0_STLB_cause_L1D_Prefetch_miss_rate 0
Core_0_STLB_cause_L1I_Prefetch_miss 0
Core_0_STLB_cause_L1I_Prefetch_miss_rate 0
Core_0_STLB_cause_Other_miss 0
Core_0_STLB_cause_Other_miss_rate 0
Core_0_STLB_Demand_miss 0
Core_0_STLB_Demand_miss_rate 0
Core_0_STLB_L1D_Prefetch_miss 0
Core_0_STLB_L1D_Prefetch_miss_rate 0
Core_0_STLB_Other_miss 0
Core_0_STLB_Other_miss_rate 0
BERTI TO_L1: 282283855 TO_L2: 11748898 TO_L2_BC_MSHR: 197
BERTI AVG_LAT: 189.622 NUM_TRACK_LATENCY: 7790297 NUM_CANT_TRACK_LATENCY: 0
BERTI CROSS_PAGE 19697866 NO_CROSS_PAGE: 274334887
BERTI FOUND_BERTI: 64631217 NO_FOUND_BERTI: 9183819
BERTI AVERAGE_ISSUED: 2.52329
