[VMEM] WARNING: physical memory size is smaller than virtual memory size.

*** ChampSim Multicore Out-of-Order Simulator ***
Warmup Instructions: 50000000
Simulation Instructions: 100000000
Number of CPUs: 1
Page size: 4096
STLB ideal mode: all
STLB ideal fill: on
Core 0: /data2/zcq/champsim_traces_gap/cc.twitter-85B.champsimtrace.xz
VBerti Prefetcher
BERTI HASH ENTANGLING
BERTI IP MASK ffff
Off-chip DRAM Size: 16 GiB Channels: 1 Width: 64-bit Data Rate: 3205 MT/s
Warmup halting CPU 0 at instruction 50000001 cycle 10000027 for remainder of phase
Warmup finished CPU 0 instructions: 50000001 cycles: 10000027 cumulative IPC: 5 (Simulation time: 00 hr 02 min 24 sec)
Warmup complete CPU 0 instructions: 50000001 cycles: 10000027 cumulative IPC: 5 (Simulation time: 00 hr 02 min 24 sec)
Simulation finished CPU 0 instructions: 100000001 cycles: 184236275 cumulative IPC: 0.5428 (Simulation time: 00 hr 21 min 18 sec)
Simulation complete CPU 0 instructions: 100000001 cycles: 184236275 cumulative IPC: 0.5428 (Simulation time: 00 hr 21 min 18 sec)

ChampSim completed all CPUs

=== Simulation ===
CPU 0 runs /data2/zcq/champsim_traces_gap/cc.twitter-85B.champsimtrace.xz

Region of Interest Statistics

CPU 0 cumulative IPC: 0.5428 instructions: 100000001 cycles: 184236275
CPU 0 Branch Prediction Accuracy: 98.48% MPKI: 2.791 Average ROB Occupancy at Mispredict: 187.6
Branch type MPKI
BRANCH_DIRECT_JUMP: 0
BRANCH_INDIRECT: 0
BRANCH_CONDITIONAL: 2.791
BRANCH_DIRECT_CALL: 0
BRANCH_INDIRECT_CALL: 0
BRANCH_RETURN: 0

cpu0->cpu0_STLB TOTAL        ACCESS:    1707960 HIT:    1707960 MISS:          0 MSHR_MERGE:          0
cpu0->cpu0_STLB LOAD         ACCESS:    1707960 HIT:    1707960 MISS:          0 MSHR_MERGE:          0
cpu0->cpu0_STLB RFO          ACCESS:          0 HIT:          0 MISS:          0 MSHR_MERGE:          0
cpu0->cpu0_STLB PREFETCH     ACCESS:          0 HIT:          0 MISS:          0 MSHR_MERGE:          0
cpu0->cpu0_STLB WRITE        ACCESS:          0 HIT:          0 MISS:          0 MSHR_MERGE:          0
cpu0->cpu0_STLB TRANSLATION  ACCESS:          0 HIT:          0 MISS:          0 MSHR_MERGE:          0
cpu0->cpu0_STLB PREFETCH REQUESTED:          0 ISSUED:          0 USEFUL:          0 USELESS:          0 LATE:          0
cpu0->cpu0_STLB AVERAGE MISS LATENCY: - cycles
cpu0->cpu0_L2C TOTAL        ACCESS:    9006862 HIT:    3303369 MISS:    5703493 MSHR_MERGE:    1470288
cpu0->cpu0_L2C LOAD         ACCESS:    1932483 HIT:     430838 MISS:    1501645 MSHR_MERGE:      33983
cpu0->cpu0_L2C RFO          ACCESS:          0 HIT:          0 MISS:          0 MSHR_MERGE:          0
cpu0->cpu0_L2C PREFETCH     ACCESS:    6716613 HIT:    2514853 MISS:    4201760 MSHR_MERGE:    1436305
cpu0->cpu0_L2C WRITE        ACCESS:     357766 HIT:     357678 MISS:         88 MSHR_MERGE:          0
cpu0->cpu0_L2C TRANSLATION  ACCESS:          0 HIT:          0 MISS:          0 MSHR_MERGE:          0
cpu0->cpu0_L2C PREFETCH REQUESTED:    2357463 ISSUED:    2357457 USEFUL:     525651 USELESS:     248257 LATE:      16423
cpu0->cpu0_L2C AVERAGE MISS LATENCY: 220.5 cycles
cpu0->cpu0_L1I TOTAL        ACCESS:    6250280 HIT:    6250280 MISS:          0 MSHR_MERGE:          0
cpu0->cpu0_L1I LOAD         ACCESS:    6250280 HIT:    6250280 MISS:          0 MSHR_MERGE:          0
cpu0->cpu0_L1I RFO          ACCESS:          0 HIT:          0 MISS:          0 MSHR_MERGE:          0
cpu0->cpu0_L1I PREFETCH     ACCESS:          0 HIT:          0 MISS:          0 MSHR_MERGE:          0
cpu0->cpu0_L1I WRITE        ACCESS:          0 HIT:          0 MISS:          0 MSHR_MERGE:          0
cpu0->cpu0_L1I TRANSLATION  ACCESS:          0 HIT:          0 MISS:          0 MSHR_MERGE:          0
cpu0->cpu0_L1I PREFETCH REQUESTED:          0 ISSUED:          0 USEFUL:          0 USELESS:          0 LATE:          0
cpu0->cpu0_L1I AVERAGE MISS LATENCY: - cycles
cpu0->cpu0_L1D TOTAL        ACCESS:   45617695 HIT:   39138407 MISS:    6479288 MSHR_MERGE:     178571
cpu0->cpu0_L1D LOAD         ACCESS:   22010268 HIT:   19920447 MISS:    2089821 MSHR_MERGE:     157338
cpu0->cpu0_L1D RFO          ACCESS:          0 HIT:          0 MISS:          0 MSHR_MERGE:          0
cpu0->cpu0_L1D PREFETCH     ACCESS:   21105303 HIT:   16715836 MISS:    4389467 MSHR_MERGE:      21233
cpu0->cpu0_L1D WRITE        ACCESS:    2502124 HIT:    2502124 MISS:          0 MSHR_MERGE:          0
cpu0->cpu0_L1D TRANSLATION  ACCESS:          0 HIT:          0 MISS:          0 MSHR_MERGE:          0
cpu0->cpu0_L1D PREFETCH REQUESTED:   97173666 ISSUED:   21105295 USEFUL:    1552277 USELESS:     566719 LATE:      28129
cpu0->cpu0_L1D AVERAGE MISS LATENCY: 179.4 cycles
cpu0->cpu0_ITLB TOTAL        ACCESS:    5322507 HIT:    5322507 MISS:          0 MSHR_MERGE:          0
cpu0->cpu0_ITLB LOAD         ACCESS:    5322507 HIT:    5322507 MISS:          0 MSHR_MERGE:          0
cpu0->cpu0_ITLB RFO          ACCESS:          0 HIT:          0 MISS:          0 MSHR_MERGE:          0
cpu0->cpu0_ITLB PREFETCH     ACCESS:          0 HIT:          0 MISS:          0 MSHR_MERGE:          0
cpu0->cpu0_ITLB WRITE        ACCESS:          0 HIT:          0 MISS:          0 MSHR_MERGE:          0
cpu0->cpu0_ITLB TRANSLATION  ACCESS:          0 HIT:          0 MISS:          0 MSHR_MERGE:          0
cpu0->cpu0_ITLB PREFETCH REQUESTED:          0 ISSUED:          0 USEFUL:          0 USELESS:          0 LATE:          0
cpu0->cpu0_ITLB AVERAGE MISS LATENCY: - cycles
cpu0->cpu0_DTLB TOTAL        ACCESS:   38892907 HIT:   37156524 MISS:    1736383 MSHR_MERGE:      28423
cpu0->cpu0_DTLB LOAD         ACCESS:   38892907 HIT:   37156524 MISS:    1736383 MSHR_MERGE:      28423
cpu0->cpu0_DTLB RFO          ACCESS:          0 HIT:          0 MISS:          0 MSHR_MERGE:          0
cpu0->cpu0_DTLB PREFETCH     ACCESS:          0 HIT:          0 MISS:          0 MSHR_MERGE:          0
cpu0->cpu0_DTLB WRITE        ACCESS:          0 HIT:          0 MISS:          0 MSHR_MERGE:          0
cpu0->cpu0_DTLB TRANSLATION  ACCESS:          0 HIT:          0 MISS:          0 MSHR_MERGE:          0
cpu0->cpu0_DTLB PREFETCH REQUESTED:          0 ISSUED:          0 USEFUL:          0 USELESS:          0 LATE:          0
cpu0->cpu0_DTLB AVERAGE MISS LATENCY: 5.004 cycles
cpu0->LLC TOTAL        ACCESS:    4585963 HIT:     273227 MISS:    4312736 MSHR_MERGE:      39417
cpu0->LLC LOAD         ACCESS:    1467662 HIT:     159793 MISS:    1307869 MSHR_MERGE:        532
cpu0->LLC RFO          ACCESS:          0 HIT:          0 MISS:          0 MSHR_MERGE:          0
cpu0->LLC PREFETCH     ACCESS:    2765445 HIT:      44243 MISS:    2721202 MSHR_MERGE:      38885
cpu0->LLC WRITE        ACCESS:     352856 HIT:      69191 MISS:     283665 MSHR_MERGE:          0
cpu0->LLC TRANSLATION  ACCESS:          0 HIT:          0 MISS:          0 MSHR_MERGE:          0
cpu0->LLC PREFETCH REQUESTED:          0 ISSUED:          0 USEFUL:          0 USELESS:          0 LATE:          0
cpu0->LLC AVERAGE MISS LATENCY: 191.6 cycles

DRAM Statistics

Channel 0 RQ ROW_BUFFER_HIT:     145367
  ROW_BUFFER_MISS:    3844196
  AVG DBUS CONGESTED CYCLE: 6.425
Channel 0 WQ ROW_BUFFER_HIT:     101563
  ROW_BUFFER_MISS:     242018
  FULL:          0
Channel 0 REFRESHES ISSUED:      15353

[ROI Statistics]
[System Configuration]
num_cpus 1
cpu_freq 4000
fetch_width 6
decode_width 6
dispatch_width 6
execute_width 6
lq_width 2
sq_width 2
retire_width 6
scheduler_size 128
branch_mispredict_penalty 15
rob_size 352
lq_size 128
sq_size 72
ifetch_buffer_size 64
decode_buffer_size 32
dispatch_buffer_size 32
register_file_size 288
decode_latency 1
dispatch_latency 1
schedule_latency 1
execute_latency 1
page_size 4096
block_size 64
core_0_itlb_set 16
core_0_itlb_way 4
core_0_itlb_rq_size 16
core_0_itlb_wq_size 16
core_0_itlb_pq_size 0
core_0_itlb_mshr_size 8
core_0_itlb_hit_latency 1
core_0_itlb_fill_latency 1
core_0_itlb_max_tag_check 2
core_0_itlb_max_fill 2
core_0_dtlb_set 16
core_0_dtlb_way 4
core_0_dtlb_rq_size 16
core_0_dtlb_wq_size 16
core_0_dtlb_pq_size 0
core_0_dtlb_mshr_size 8
core_0_dtlb_hit_latency 1
core_0_dtlb_fill_latency 1
core_0_dtlb_max_tag_check 2
core_0_dtlb_max_fill 2
core_0_stlb_set 128
core_0_stlb_way 12
core_0_stlb_rq_size 32
core_0_stlb_wq_size 32
core_0_stlb_pq_size 0
core_0_stlb_mshr_size 16
core_0_stlb_hit_latency 4
core_0_stlb_fill_latency 4
core_0_stlb_max_tag_check 1
core_0_stlb_max_fill 1
core_0_l1i_set 64
core_0_l1i_way 8
core_0_l1i_rq_size 64
core_0_l1i_wq_size 64
core_0_l1i_pq_size 32
core_0_l1i_mshr_size 8
core_0_l1i_hit_latency 2
core_0_l1i_fill_latency 2
core_0_l1i_max_tag_check 2
core_0_l1i_max_fill 2
core_0_l1d_set 64
core_0_l1d_way 12
core_0_l1d_rq_size 64
core_0_l1d_wq_size 64
core_0_l1d_pq_size 8
core_0_l1d_mshr_size 16
core_0_l1d_hit_latency 2
core_0_l1d_fill_latency 3
core_0_l1d_max_tag_check 2
core_0_l1d_max_fill 2
core_0_l2c_set 1024
core_0_l2c_way 8
core_0_l2c_rq_size 32
core_0_l2c_wq_size 32
core_0_l2c_pq_size 16
core_0_l2c_mshr_size 32
core_0_l2c_hit_latency 5
core_0_l2c_fill_latency 5
core_0_l2c_max_tag_check 1
core_0_l2c_max_fill 1
llc_set 2048
llc_way 16
llc_rq_size 32
llc_wq_size 32
llc_pq_size 32
llc_mshr_size 64
llc_hit_latency 10
llc_fill_latency 10
llc_max_tag_check 1
llc_max_fill 1
dram_channels 1
dram_ranks 1
dram_bankgroups 8
dram_banks 4
dram_rows 65536
dram_columns 1024
dram_channel_width 8
dram_rq_size 64
dram_wq_size 64
dram_size 17179869184
core_0_itlb_prefetcher no
core_0_dtlb_prefetcher no
core_0_stlb_prefetcher no
core_0_l1i_prefetcher next_line
core_0_l1d_prefetcher vberti
core_0_l2c_prefetcher ip_stride
llc_prefetcher no
llc_replacement drrip

Core_0_instructions 100000001
Core_0_cycles 184236275
Core_0_IPC 0.542781
Core_0_branch_prediction_accuracy 98.4813
Core_0_branch_MPKI 2.79092
Core_0_average_ROB_occupancy_at_mispredict 187.574

Core_0_ITLB_total_access 5322507
Core_0_ITLB_total_hit 5322507
Core_0_ITLB_total_miss 0
Core_0_ITLB_total_MPKI 0
Core_0_ITLB_total_miss_rate 0
Core_0_ITLB_demand_access 5322507
Core_0_ITLB_demand_hit 5322507
Core_0_ITLB_demand_miss 0
Core_0_ITLB_demand_MPKI 0
Core_0_ITLB_demand_miss_rate 0
Core_0_ITLB_load_access 5322507
Core_0_ITLB_load_hit 5322507
Core_0_ITLB_load_miss 0
Core_0_ITLB_load_MPKI 0
Core_0_ITLB_load_miss_rate 0
Core_0_ITLB_rfo_access 0
Core_0_ITLB_rfo_hit 0
Core_0_ITLB_rfo_miss 0
Core_0_ITLB_rfo_MPKI 0
Core_0_ITLB_rfo_miss_rate 0
Core_0_ITLB_prefetch_access 0
Core_0_ITLB_prefetch_hit 0
Core_0_ITLB_prefetch_miss 0
Core_0_ITLB_prefetch_MPKI 0
Core_0_ITLB_prefetch_miss_rate 0
Core_0_ITLB_writeback_access 0
Core_0_ITLB_writeback_hit 0
Core_0_ITLB_writeback_miss 0
Core_0_ITLB_writeback_MPKI 0
Core_0_ITLB_writeback_miss_rate 0
Core_0_ITLB_prefetch_requested 0
Core_0_ITLB_prefetch_issued 0
Core_0_ITLB_prefetch_useful 0
Core_0_ITLB_prefetch_useless 0
Core_0_ITLB_prefetch_late 0
Core_0_ITLB_prefetch_accuracy 0
Core_0_ITLB_prefetch_coverage 0
Core_0_ITLB_total_eviction 0

Core_0_DTLB_total_access 38892907
Core_0_DTLB_total_hit 37156524
Core_0_DTLB_total_miss 1736383
Core_0_DTLB_total_MPKI 17.3638
Core_0_DTLB_total_miss_rate 0.0446452
Core_0_DTLB_demand_access 38892907
Core_0_DTLB_demand_hit 37156524
Core_0_DTLB_demand_miss 1736383
Core_0_DTLB_demand_MPKI 17.3638
Core_0_DTLB_demand_miss_rate 0.0446452
Core_0_DTLB_load_access 38892907
Core_0_DTLB_load_hit 37156524
Core_0_DTLB_load_miss 1736383
Core_0_DTLB_load_MPKI 17.3638
Core_0_DTLB_load_miss_rate 0.0446452
Core_0_DTLB_rfo_access 0
Core_0_DTLB_rfo_hit 0
Core_0_DTLB_rfo_miss 0
Core_0_DTLB_rfo_MPKI 0
Core_0_DTLB_rfo_miss_rate 0
Core_0_DTLB_prefetch_access 0
Core_0_DTLB_prefetch_hit 0
Core_0_DTLB_prefetch_miss 0
Core_0_DTLB_prefetch_MPKI 0
Core_0_DTLB_prefetch_miss_rate 0
Core_0_DTLB_writeback_access 0
Core_0_DTLB_writeback_hit 0
Core_0_DTLB_writeback_miss 0
Core_0_DTLB_writeback_MPKI 0
Core_0_DTLB_writeback_miss_rate 0
Core_0_DTLB_prefetch_requested 0
Core_0_DTLB_prefetch_issued 0
Core_0_DTLB_prefetch_useful 0
Core_0_DTLB_prefetch_useless 0
Core_0_DTLB_prefetch_late 0
Core_0_DTLB_prefetch_accuracy 0
Core_0_DTLB_prefetch_coverage 0
Core_0_DTLB_total_eviction 1707960

Core_0_STLB_total_access 1707960
Core_0_STLB_total_hit 1707960
Core_0_STLB_total_miss 0
Core_0_STLB_total_MPKI 0
Core_0_STLB_total_miss_rate 0
Core_0_STLB_demand_access 1707960
Core_0_STLB_demand_hit 1707960
Core_0_STLB_demand_miss 0
Core_0_STLB_demand_MPKI 0
Core_0_STLB_demand_miss_rate 0
Core_0_STLB_load_access 1707960
Core_0_STLB_load_hit 1707960
Core_0_STLB_load_miss 0
Core_0_STLB_load_MPKI 0
Core_0_STLB_load_miss_rate 0
Core_0_STLB_rfo_access 0
Core_0_STLB_rfo_hit 0
Core_0_STLB_rfo_miss 0
Core_0_STLB_rfo_MPKI 0
Core_0_STLB_rfo_miss_rate 0
Core_0_STLB_prefetch_access 0
Core_0_STLB_prefetch_hit 0
Core_0_STLB_prefetch_miss 0
Core_0_STLB_prefetch_MPKI 0
Core_0_STLB_prefetch_miss_rate 0
Core_0_STLB_writeback_access 0
Core_0_STLB_writeback_hit 0
Core_0_STLB_writeback_miss 0
Core_0_STLB_writeback_MPKI 0
Core_0_STLB_writeback_miss_rate 0
Core_0_STLB_prefetch_requested 0
Core_0_STLB_prefetch_issued 0
Core_0_STLB_prefetch_useful 0
Core_0_STLB_prefetch_useless 0
Core_0_STLB_prefetch_late 0
Core_0_STLB_prefetch_accuracy 0
Core_0_STLB_prefetch_coverage 0
Core_0_STLB_total_eviction 1351426

Core_0_L1I_total_access 6250280
Core_0_L1I_total_hit 6250280
Core_0_L1I_total_miss 0
Core_0_L1I_total_MPKI 0
Core_0_L1I_total_miss_rate 0
Core_0_L1I_demand_access 6250280
Core_0_L1I_demand_hit 6250280
Core_0_L1I_demand_miss 0
Core_0_L1I_demand_MPKI 0
Core_0_L1I_demand_miss_rate 0
Core_0_L1I_load_access 6250280
Core_0_L1I_load_hit 6250280
Core_0_L1I_load_miss 0
Core_0_L1I_load_MPKI 0
Core_0_L1I_load_miss_rate 0
Core_0_L1I_rfo_access 0
Core_0_L1I_rfo_hit 0
Core_0_L1I_rfo_miss 0
Core_0_L1I_rfo_MPKI 0
Core_0_L1I_rfo_miss_rate 0
Core_0_L1I_prefetch_access 0
Core_0_L1I_prefetch_hit 0
Core_0_L1I_prefetch_miss 0
Core_0_L1I_prefetch_MPKI 0
Core_0_L1I_prefetch_miss_rate 0
Core_0_L1I_writeback_access 0
Core_0_L1I_writeback_hit 0
Core_0_L1I_writeback_miss 0
Core_0_L1I_writeback_MPKI 0
Core_0_L1I_writeback_miss_rate 0
Core_0_L1I_prefetch_requested 0
Core_0_L1I_prefetch_issued 0
Core_0_L1I_prefetch_useful 0
Core_0_L1I_prefetch_useless 0
Core_0_L1I_prefetch_late 0
Core_0_L1I_prefetch_accuracy 0
Core_0_L1I_prefetch_coverage 0
Core_0_L1I_total_eviction 0

Core_0_L1D_total_access 45617695
Core_0_L1D_total_hit 39138407
Core_0_L1D_total_miss 6479288
Core_0_L1D_total_MPKI 64.7929
Core_0_L1D_total_miss_rate 0.142035
Core_0_L1D_demand_access 22010268
Core_0_L1D_demand_hit 19920447
Core_0_L1D_demand_miss 2089821
Core_0_L1D_demand_MPKI 20.8982
Core_0_L1D_demand_miss_rate 0.0949475
Core_0_L1D_load_access 22010268
Core_0_L1D_load_hit 19920447
Core_0_L1D_load_miss 2089821
Core_0_L1D_load_MPKI 20.8982
Core_0_L1D_load_miss_rate 0.0949475
Core_0_L1D_rfo_access 0
Core_0_L1D_rfo_hit 0
Core_0_L1D_rfo_miss 0
Core_0_L1D_rfo_MPKI 0
Core_0_L1D_rfo_miss_rate 0
Core_0_L1D_prefetch_access 21105303
Core_0_L1D_prefetch_hit 16715836
Core_0_L1D_prefetch_miss 4389467
Core_0_L1D_prefetch_MPKI 43.8947
Core_0_L1D_prefetch_miss_rate 0.207979
Core_0_L1D_writeback_access 2502124
Core_0_L1D_writeback_hit 2502124
Core_0_L1D_writeback_miss 0
Core_0_L1D_writeback_MPKI 0
Core_0_L1D_writeback_miss_rate 0
Core_0_L1D_prefetch_requested 97173666
Core_0_L1D_prefetch_issued 21105295
Core_0_L1D_prefetch_useful 1552277
Core_0_L1D_prefetch_useless 566719
Core_0_L1D_prefetch_late 28129
Core_0_L1D_prefetch_accuracy 0.0735492
Core_0_L1D_prefetch_coverage 0.426204
Core_0_L1D_total_eviction 4051583

Core_0_L2C_total_access 9006862
Core_0_L2C_total_hit 3303369
Core_0_L2C_total_miss 5703493
Core_0_L2C_total_MPKI 57.0349
Core_0_L2C_total_miss_rate 0.633239
Core_0_L2C_demand_access 1932483
Core_0_L2C_demand_hit 430838
Core_0_L2C_demand_miss 1501645
Core_0_L2C_demand_MPKI 15.0164
Core_0_L2C_demand_miss_rate 0.777055
Core_0_L2C_load_access 1932483
Core_0_L2C_load_hit 430838
Core_0_L2C_load_miss 1501645
Core_0_L2C_load_MPKI 15.0164
Core_0_L2C_load_miss_rate 0.777055
Core_0_L2C_rfo_access 0
Core_0_L2C_rfo_hit 0
Core_0_L2C_rfo_miss 0
Core_0_L2C_rfo_MPKI 0
Core_0_L2C_rfo_miss_rate 0
Core_0_L2C_prefetch_access 6716613
Core_0_L2C_prefetch_hit 2514853
Core_0_L2C_prefetch_miss 4201760
Core_0_L2C_prefetch_MPKI 42.0176
Core_0_L2C_prefetch_miss_rate 0.625577
Core_0_L2C_writeback_access 357766
Core_0_L2C_writeback_hit 357678
Core_0_L2C_writeback_miss 88
Core_0_L2C_writeback_MPKI 0.00088
Core_0_L2C_writeback_miss_rate 0.000245971
Core_0_L2C_prefetch_requested 2357463
Core_0_L2C_prefetch_issued 2357457
Core_0_L2C_prefetch_useful 525651
Core_0_L2C_prefetch_useless 248257
Core_0_L2C_prefetch_late 16423
Core_0_L2C_prefetch_accuracy 0.222974
Core_0_L2C_prefetch_coverage 0.259287
Core_0_L2C_total_eviction 4152446

Core_0_LLC_total_access 4585963
Core_0_LLC_total_hit 273227
Core_0_LLC_total_miss 4312736
Core_0_LLC_total_MPKI 43.1274
Core_0_LLC_total_miss_rate 0.940421
Core_0_LLC_demand_access 1467662
Core_0_LLC_demand_hit 159793
Core_0_LLC_demand_miss 1307869
Core_0_LLC_demand_MPKI 13.0787
Core_0_LLC_demand_miss_rate 0.891124
Core_0_LLC_load_access 1467662
Core_0_LLC_load_hit 159793
Core_0_LLC_load_miss 1307869
Core_0_LLC_load_MPKI 13.0787
Core_0_LLC_load_miss_rate 0.891124
Core_0_LLC_rfo_access 0
Core_0_LLC_rfo_hit 0
Core_0_LLC_rfo_miss 0
Core_0_LLC_rfo_MPKI 0
Core_0_LLC_rfo_miss_rate 0
Core_0_LLC_prefetch_access 2765445
Core_0_LLC_prefetch_hit 44243
Core_0_LLC_prefetch_miss 2721202
Core_0_LLC_prefetch_MPKI 27.212
Core_0_LLC_prefetch_miss_rate 0.984001
Core_0_LLC_writeback_access 352856
Core_0_LLC_writeback_hit 69191
Core_0_LLC_writeback_miss 283665
Core_0_LLC_writeback_MPKI 2.83665
Core_0_LLC_writeback_miss_rate 0.803912
Core_0_LLC_prefetch_requested 0
Core_0_LLC_prefetch_issued 0
Core_0_LLC_prefetch_useful 0
Core_0_LLC_prefetch_useless 0
Core_0_LLC_prefetch_late 0
Core_0_LLC_prefetch_accuracy 0
Core_0_LLC_prefetch_coverage 0
Core_0_LLC_total_eviction 4273318

[DRAM Statistics]
Channel_0_RQ_row_buffer_hit 145367
Channel_0_RQ_row_buffer_miss 3844196
Channel_0_WQ_row_buffer_hit 101563
Channel_0_WQ_row_buffer_miss 242018
Channel_0_WQ_full 0
Channel_0_dbus_congested 9794655
DRAM_total_RQ_row_buffer_hit 145367
DRAM_total_RQ_row_buffer_miss 3844196
DRAM_total_WQ_row_buffer_hit 101563
DRAM_total_WQ_row_buffer_miss 242018
DRAM_total_WQ_full 0
DRAM_total_dbus_congested 9794655
DRAM_avg_congested_cycle 6.42531

======STLB miss causes ========
Core_0_STLB_miss_cause_breakdown
Core_0_STLB_cause_Demand_Data_miss 0
Core_0_STLB_cause_Demand_Data_miss_rate 0
Core_0_STLB_cause_Demand_Instruction_miss 0
Core_0_STLB_cause_Demand_Instruction_miss_rate 0
Core_0_STLB_cause_L1D_Prefetch_miss 0
Core_0_STLB_cause_L1D_Prefetch_miss_rate 0
Core_0_STLB_cause_L1I_Prefetch_miss 0
Core_0_STLB_cause_L1I_Prefetch_miss_rate 0
Core_0_STLB_cause_Other_miss 0
Core_0_STLB_cause_Other_miss_rate 0
Core_0_STLB_Demand_miss 0
Core_0_STLB_Demand_miss_rate 0
Core_0_STLB_L1D_Prefetch_miss 0
Core_0_STLB_L1D_Prefetch_miss_rate 0
Core_0_STLB_Other_miss 0
Core_0_STLB_Other_miss_rate 0
BERTI TO_L1: 115476390 TO_L2: 27579432 TO_L2_BC_MSHR: 1764958
BERTI AVG_LAT: 132.705 NUM_TRACK_LATENCY: 5783146 NUM_CANT_TRACK_LATENCY: 0
BERTI CROSS_PAGE 19372689 NO_CROSS_PAGE: 123683133
BERTI FOUND_BERTI: 21459139 NO_FOUND_BERTI: 12565365
BERTI AVERAGE_ISSUED: 3.1726
