[VMEM] WARNING: physical memory size is smaller than virtual memory size.

*** ChampSim Multicore Out-of-Order Simulator ***
Warmup Instructions: 50000000
Simulation Instructions: 100000000
Number of CPUs: 1
Page size: 4096
STLB ideal mode: all
STLB ideal fill: on
Core 0: /data2/zcq/champsim_traces_gap/cc.twitter-10B.champsimtrace.xz
VBerti Prefetcher
BERTI HASH ENTANGLING
BERTI IP MASK ffff
Off-chip DRAM Size: 16 GiB Channels: 1 Width: 64-bit Data Rate: 3205 MT/s
Warmup halting CPU 0 at instruction 50000004 cycle 10000029 for remainder of phase
Warmup finished CPU 0 instructions: 50000004 cycles: 10000029 cumulative IPC: 5 (Simulation time: 00 hr 02 min 01 sec)
Warmup complete CPU 0 instructions: 50000004 cycles: 10000029 cumulative IPC: 5 (Simulation time: 00 hr 02 min 01 sec)
Simulation finished CPU 0 instructions: 100000001 cycles: 208209440 cumulative IPC: 0.4803 (Simulation time: 00 hr 18 min 10 sec)
Simulation complete CPU 0 instructions: 100000001 cycles: 208209440 cumulative IPC: 0.4803 (Simulation time: 00 hr 18 min 10 sec)

ChampSim completed all CPUs

=== Simulation ===
CPU 0 runs /data2/zcq/champsim_traces_gap/cc.twitter-10B.champsimtrace.xz

Region of Interest Statistics

CPU 0 cumulative IPC: 0.4803 instructions: 100000001 cycles: 208209440
CPU 0 Branch Prediction Accuracy: 95.33% MPKI: 11.33 Average ROB Occupancy at Mispredict: 53.2
Branch type MPKI
BRANCH_DIRECT_JUMP: 0
BRANCH_INDIRECT: 0
BRANCH_CONDITIONAL: 11.33
BRANCH_DIRECT_CALL: 0
BRANCH_INDIRECT_CALL: 0
BRANCH_RETURN: 0

cpu0->cpu0_STLB TOTAL        ACCESS:    2362106 HIT:    2362106 MISS:          0 MSHR_MERGE:          0
cpu0->cpu0_STLB LOAD         ACCESS:    2362106 HIT:    2362106 MISS:          0 MSHR_MERGE:          0
cpu0->cpu0_STLB RFO          ACCESS:          0 HIT:          0 MISS:          0 MSHR_MERGE:          0
cpu0->cpu0_STLB PREFETCH     ACCESS:          0 HIT:          0 MISS:          0 MSHR_MERGE:          0
cpu0->cpu0_STLB WRITE        ACCESS:          0 HIT:          0 MISS:          0 MSHR_MERGE:          0
cpu0->cpu0_STLB TRANSLATION  ACCESS:          0 HIT:          0 MISS:          0 MSHR_MERGE:          0
cpu0->cpu0_STLB PREFETCH REQUESTED:          0 ISSUED:          0 USEFUL:          0 USELESS:          0 LATE:          0
cpu0->cpu0_STLB AVERAGE MISS LATENCY: - cycles
cpu0->cpu0_L2C TOTAL        ACCESS:    4104222 HIT:    2230051 MISS:    1874171 MSHR_MERGE:      74393
cpu0->cpu0_L2C LOAD         ACCESS:    2007393 HIT:     604723 MISS:    1402670 MSHR_MERGE:          0
cpu0->cpu0_L2C RFO          ACCESS:          0 HIT:          0 MISS:          0 MSHR_MERGE:          0
cpu0->cpu0_L2C PREFETCH     ACCESS:    1699728 HIT:    1228229 MISS:     471499 MSHR_MERGE:      74393
cpu0->cpu0_L2C WRITE        ACCESS:     397101 HIT:     397099 MISS:          2 MSHR_MERGE:          0
cpu0->cpu0_L2C TRANSLATION  ACCESS:          0 HIT:          0 MISS:          0 MSHR_MERGE:          0
cpu0->cpu0_L2C PREFETCH REQUESTED:    1074710 ISSUED:    1074710 USEFUL:     373324 USELESS:          0 LATE:          0
cpu0->cpu0_L2C AVERAGE MISS LATENCY: 156 cycles
cpu0->cpu0_L1I TOTAL        ACCESS:    1125486 HIT:    1125486 MISS:          0 MSHR_MERGE:          0
cpu0->cpu0_L1I LOAD         ACCESS:    1125486 HIT:    1125486 MISS:          0 MSHR_MERGE:          0
cpu0->cpu0_L1I RFO          ACCESS:          0 HIT:          0 MISS:          0 MSHR_MERGE:          0
cpu0->cpu0_L1I PREFETCH     ACCESS:          0 HIT:          0 MISS:          0 MSHR_MERGE:          0
cpu0->cpu0_L1I WRITE        ACCESS:          0 HIT:          0 MISS:          0 MSHR_MERGE:          0
cpu0->cpu0_L1I TRANSLATION  ACCESS:          0 HIT:          0 MISS:          0 MSHR_MERGE:          0
cpu0->cpu0_L1I PREFETCH REQUESTED:          0 ISSUED:          0 USEFUL:          0 USELESS:          0 LATE:          0
cpu0->cpu0_L1I AVERAGE MISS LATENCY: - cycles
cpu0->cpu0_L1D TOTAL        ACCESS:   43212326 HIT:   40523472 MISS:    2688854 MSHR_MERGE:      56443
cpu0->cpu0_L1D LOAD         ACCESS:   16537264 HIT:   14473428 MISS:    2063836 MSHR_MERGE:      56443
cpu0->cpu0_L1D RFO          ACCESS:          0 HIT:          0 MISS:          0 MSHR_MERGE:          0
cpu0->cpu0_L1D PREFETCH     ACCESS:   21469517 HIT:   20844499 MISS:     625018 MSHR_MERGE:          0
cpu0->cpu0_L1D WRITE        ACCESS:    5205545 HIT:    5205545 MISS:          0 MSHR_MERGE:          0
cpu0->cpu0_L1D TRANSLATION  ACCESS:          0 HIT:          0 MISS:          0 MSHR_MERGE:          0
cpu0->cpu0_L1D PREFETCH REQUESTED:   89066370 ISSUED:   21469509 USEFUL:     397103 USELESS:          0 LATE:          0
cpu0->cpu0_L1D AVERAGE MISS LATENCY: 117.7 cycles
cpu0->cpu0_ITLB TOTAL        ACCESS:    1125485 HIT:    1125485 MISS:          0 MSHR_MERGE:          0
cpu0->cpu0_ITLB LOAD         ACCESS:    1125485 HIT:    1125485 MISS:          0 MSHR_MERGE:          0
cpu0->cpu0_ITLB RFO          ACCESS:          0 HIT:          0 MISS:          0 MSHR_MERGE:          0
cpu0->cpu0_ITLB PREFETCH     ACCESS:          0 HIT:          0 MISS:          0 MSHR_MERGE:          0
cpu0->cpu0_ITLB WRITE        ACCESS:          0 HIT:          0 MISS:          0 MSHR_MERGE:          0
cpu0->cpu0_ITLB TRANSLATION  ACCESS:          0 HIT:          0 MISS:          0 MSHR_MERGE:          0
cpu0->cpu0_ITLB PREFETCH REQUESTED:          0 ISSUED:          0 USEFUL:          0 USELESS:          0 LATE:          0
cpu0->cpu0_ITLB AVERAGE MISS LATENCY: - cycles
cpu0->cpu0_DTLB TOTAL        ACCESS:   32940154 HIT:   30566226 MISS:    2373928 MSHR_MERGE:      11822
cpu0->cpu0_DTLB LOAD         ACCESS:   32940154 HIT:   30566226 MISS:    2373928 MSHR_MERGE:      11822
cpu0->cpu0_DTLB RFO          ACCESS:          0 HIT:          0 MISS:          0 MSHR_MERGE:          0
cpu0->cpu0_DTLB PREFETCH     ACCESS:          0 HIT:          0 MISS:          0 MSHR_MERGE:          0
cpu0->cpu0_DTLB WRITE        ACCESS:          0 HIT:          0 MISS:          0 MSHR_MERGE:          0
cpu0->cpu0_DTLB TRANSLATION  ACCESS:          0 HIT:          0 MISS:          0 MSHR_MERGE:          0
cpu0->cpu0_DTLB PREFETCH REQUESTED:          0 ISSUED:          0 USEFUL:          0 USELESS:          0 LATE:          0
cpu0->cpu0_DTLB AVERAGE MISS LATENCY: 5.001 cycles
cpu0->LLC TOTAL        ACCESS:    2196594 HIT:     769028 MISS:    1427566 MSHR_MERGE:          0
cpu0->LLC LOAD         ACCESS:    1402670 HIT:     419905 MISS:     982765 MSHR_MERGE:          0
cpu0->LLC RFO          ACCESS:          0 HIT:          0 MISS:          0 MSHR_MERGE:          0
cpu0->LLC PREFETCH     ACCESS:     397106 HIT:          3 MISS:     397103 MSHR_MERGE:          0
cpu0->LLC WRITE        ACCESS:     396818 HIT:     349120 MISS:      47698 MSHR_MERGE:          0
cpu0->LLC TRANSLATION  ACCESS:          0 HIT:          0 MISS:          0 MSHR_MERGE:          0
cpu0->LLC PREFETCH REQUESTED:          0 ISSUED:          0 USEFUL:          0 USELESS:          0 LATE:          0
cpu0->LLC AVERAGE MISS LATENCY: 191.4 cycles

DRAM Statistics

Channel 0 RQ ROW_BUFFER_HIT:        112
  ROW_BUFFER_MISS:    1379751
  AVG DBUS CONGESTED CYCLE: 20.5
Channel 0 WQ ROW_BUFFER_HIT:      95860
  ROW_BUFFER_MISS:     299093
  FULL:          0
Channel 0 REFRESHES ISSUED:      17351

[ROI Statistics]
[System Configuration]
num_cpus 1
cpu_freq 4000
fetch_width 6
decode_width 6
dispatch_width 6
execute_width 6
lq_width 2
sq_width 2
retire_width 6
scheduler_size 128
branch_mispredict_penalty 15
rob_size 352
lq_size 128
sq_size 72
ifetch_buffer_size 64
decode_buffer_size 32
dispatch_buffer_size 32
register_file_size 288
decode_latency 1
dispatch_latency 1
schedule_latency 1
execute_latency 1
page_size 4096
block_size 64
core_0_itlb_set 16
core_0_itlb_way 4
core_0_itlb_rq_size 16
core_0_itlb_wq_size 16
core_0_itlb_pq_size 0
core_0_itlb_mshr_size 8
core_0_itlb_hit_latency 1
core_0_itlb_fill_latency 1
core_0_itlb_max_tag_check 2
core_0_itlb_max_fill 2
core_0_dtlb_set 16
core_0_dtlb_way 4
core_0_dtlb_rq_size 16
core_0_dtlb_wq_size 16
core_0_dtlb_pq_size 0
core_0_dtlb_mshr_size 8
core_0_dtlb_hit_latency 1
core_0_dtlb_fill_latency 1
core_0_dtlb_max_tag_check 2
core_0_dtlb_max_fill 2
core_0_stlb_set 128
core_0_stlb_way 12
core_0_stlb_rq_size 32
core_0_stlb_wq_size 32
core_0_stlb_pq_size 0
core_0_stlb_mshr_size 16
core_0_stlb_hit_latency 4
core_0_stlb_fill_latency 4
core_0_stlb_max_tag_check 1
core_0_stlb_max_fill 1
core_0_l1i_set 64
core_0_l1i_way 8
core_0_l1i_rq_size 64
core_0_l1i_wq_size 64
core_0_l1i_pq_size 32
core_0_l1i_mshr_size 8
core_0_l1i_hit_latency 2
core_0_l1i_fill_latency 2
core_0_l1i_max_tag_check 2
core_0_l1i_max_fill 2
core_0_l1d_set 64
core_0_l1d_way 12
core_0_l1d_rq_size 64
core_0_l1d_wq_size 64
core_0_l1d_pq_size 8
core_0_l1d_mshr_size 16
core_0_l1d_hit_latency 2
core_0_l1d_fill_latency 3
core_0_l1d_max_tag_check 2
core_0_l1d_max_fill 2
core_0_l2c_set 1024
core_0_l2c_way 8
core_0_l2c_rq_size 32
core_0_l2c_wq_size 32
core_0_l2c_pq_size 16
core_0_l2c_mshr_size 32
core_0_l2c_hit_latency 5
core_0_l2c_fill_latency 5
core_0_l2c_max_tag_check 1
core_0_l2c_max_fill 1
llc_set 2048
llc_way 16
llc_rq_size 32
llc_wq_size 32
llc_pq_size 32
llc_mshr_size 64
llc_hit_latency 10
llc_fill_latency 10
llc_max_tag_check 1
llc_max_fill 1
dram_channels 1
dram_ranks 1
dram_bankgroups 8
dram_banks 4
dram_rows 65536
dram_columns 1024
dram_channel_width 8
dram_rq_size 64
dram_wq_size 64
dram_size 17179869184
core_0_itlb_prefetcher no
core_0_dtlb_prefetcher no
core_0_stlb_prefetcher no
core_0_l1i_prefetcher next_line
core_0_l1d_prefetcher vberti
core_0_l2c_prefetcher ip_stride
llc_prefetcher no
llc_replacement drrip

Core_0_instructions 100000001
Core_0_cycles 208209440
Core_0_IPC 0.480286
Core_0_branch_prediction_accuracy 95.3299
Core_0_branch_MPKI 11.3327
Core_0_average_ROB_occupancy_at_mispredict 53.1976

Core_0_ITLB_total_access 1125485
Core_0_ITLB_total_hit 1125485
Core_0_ITLB_total_miss 0
Core_0_ITLB_total_MPKI 0
Core_0_ITLB_total_miss_rate 0
Core_0_ITLB_demand_access 1125485
Core_0_ITLB_demand_hit 1125485
Core_0_ITLB_demand_miss 0
Core_0_ITLB_demand_MPKI 0
Core_0_ITLB_demand_miss_rate 0
Core_0_ITLB_load_access 1125485
Core_0_ITLB_load_hit 1125485
Core_0_ITLB_load_miss 0
Core_0_ITLB_load_MPKI 0
Core_0_ITLB_load_miss_rate 0
Core_0_ITLB_rfo_access 0
Core_0_ITLB_rfo_hit 0
Core_0_ITLB_rfo_miss 0
Core_0_ITLB_rfo_MPKI 0
Core_0_ITLB_rfo_miss_rate 0
Core_0_ITLB_prefetch_access 0
Core_0_ITLB_prefetch_hit 0
Core_0_ITLB_prefetch_miss 0
Core_0_ITLB_prefetch_MPKI 0
Core_0_ITLB_prefetch_miss_rate 0
Core_0_ITLB_writeback_access 0
Core_0_ITLB_writeback_hit 0
Core_0_ITLB_writeback_miss 0
Core_0_ITLB_writeback_MPKI 0
Core_0_ITLB_writeback_miss_rate 0
Core_0_ITLB_prefetch_requested 0
Core_0_ITLB_prefetch_issued 0
Core_0_ITLB_prefetch_useful 0
Core_0_ITLB_prefetch_useless 0
Core_0_ITLB_prefetch_late 0
Core_0_ITLB_prefetch_accuracy 0
Core_0_ITLB_prefetch_coverage 0
Core_0_ITLB_total_eviction 0

Core_0_DTLB_total_access 32940154
Core_0_DTLB_total_hit 30566226
Core_0_DTLB_total_miss 2373928
Core_0_DTLB_total_MPKI 23.7393
Core_0_DTLB_total_miss_rate 0.0720679
Core_0_DTLB_demand_access 32940154
Core_0_DTLB_demand_hit 30566226
Core_0_DTLB_demand_miss 2373928
Core_0_DTLB_demand_MPKI 23.7393
Core_0_DTLB_demand_miss_rate 0.0720679
Core_0_DTLB_load_access 32940154
Core_0_DTLB_load_hit 30566226
Core_0_DTLB_load_miss 2373928
Core_0_DTLB_load_MPKI 23.7393
Core_0_DTLB_load_miss_rate 0.0720679
Core_0_DTLB_rfo_access 0
Core_0_DTLB_rfo_hit 0
Core_0_DTLB_rfo_miss 0
Core_0_DTLB_rfo_MPKI 0
Core_0_DTLB_rfo_miss_rate 0
Core_0_DTLB_prefetch_access 0
Core_0_DTLB_prefetch_hit 0
Core_0_DTLB_prefetch_miss 0
Core_0_DTLB_prefetch_MPKI 0
Core_0_DTLB_prefetch_miss_rate 0
Core_0_DTLB_writeback_access 0
Core_0_DTLB_writeback_hit 0
Core_0_DTLB_writeback_miss 0
Core_0_DTLB_writeback_MPKI 0
Core_0_DTLB_writeback_miss_rate 0
Core_0_DTLB_prefetch_requested 0
Core_0_DTLB_prefetch_issued 0
Core_0_DTLB_prefetch_useful 0
Core_0_DTLB_prefetch_useless 0
Core_0_DTLB_prefetch_late 0
Core_0_DTLB_prefetch_accuracy 0
Core_0_DTLB_prefetch_coverage 0
Core_0_DTLB_total_eviction 2362106

Core_0_STLB_total_access 2362106
Core_0_STLB_total_hit 2362106
Core_0_STLB_total_miss 0
Core_0_STLB_total_MPKI 0
Core_0_STLB_total_miss_rate 0
Core_0_STLB_demand_access 2362106
Core_0_STLB_demand_hit 2362106
Core_0_STLB_demand_miss 0
Core_0_STLB_demand_MPKI 0
Core_0_STLB_demand_miss_rate 0
Core_0_STLB_load_access 2362106
Core_0_STLB_load_hit 2362106
Core_0_STLB_load_miss 0
Core_0_STLB_load_MPKI 0
Core_0_STLB_load_miss_rate 0
Core_0_STLB_rfo_access 0
Core_0_STLB_rfo_hit 0
Core_0_STLB_rfo_miss 0
Core_0_STLB_rfo_MPKI 0
Core_0_STLB_rfo_miss_rate 0
Core_0_STLB_prefetch_access 0
Core_0_STLB_prefetch_hit 0
Core_0_STLB_prefetch_miss 0
Core_0_STLB_prefetch_MPKI 0
Core_0_STLB_prefetch_miss_rate 0
Core_0_STLB_writeback_access 0
Core_0_STLB_writeback_hit 0
Core_0_STLB_writeback_miss 0
Core_0_STLB_writeback_MPKI 0
Core_0_STLB_writeback_miss_rate 0
Core_0_STLB_prefetch_requested 0
Core_0_STLB_prefetch_issued 0
Core_0_STLB_prefetch_useful 0
Core_0_STLB_prefetch_useless 0
Core_0_STLB_prefetch_late 0
Core_0_STLB_prefetch_accuracy 0
Core_0_STLB_prefetch_coverage 0
Core_0_STLB_total_eviction 1491380

Core_0_L1I_total_access 1125486
Core_0_L1I_total_hit 1125486
Core_0_L1I_total_miss 0
Core_0_L1I_total_MPKI 0
Core_0_L1I_total_miss_rate 0
Core_0_L1I_demand_access 1125486
Core_0_L1I_demand_hit 1125486
Core_0_L1I_demand_miss 0
Core_0_L1I_demand_MPKI 0
Core_0_L1I_demand_miss_rate 0
Core_0_L1I_load_access 1125486
Core_0_L1I_load_hit 1125486
Core_0_L1I_load_miss 0
Core_0_L1I_load_MPKI 0
Core_0_L1I_load_miss_rate 0
Core_0_L1I_rfo_access 0
Core_0_L1I_rfo_hit 0
Core_0_L1I_rfo_miss 0
Core_0_L1I_rfo_MPKI 0
Core_0_L1I_rfo_miss_rate 0
Core_0_L1I_prefetch_access 0
Core_0_L1I_prefetch_hit 0
Core_0_L1I_prefetch_miss 0
Core_0_L1I_prefetch_MPKI 0
Core_0_L1I_prefetch_miss_rate 0
Core_0_L1I_writeback_access 0
Core_0_L1I_writeback_hit 0
Core_0_L1I_writeback_miss 0
Core_0_L1I_writeback_MPKI 0
Core_0_L1I_writeback_miss_rate 0
Core_0_L1I_prefetch_requested 0
Core_0_L1I_prefetch_issued 0
Core_0_L1I_prefetch_useful 0
Core_0_L1I_prefetch_useless 0
Core_0_L1I_prefetch_late 0
Core_0_L1I_prefetch_accuracy 0
Core_0_L1I_prefetch_coverage 0
Core_0_L1I_total_eviction 0

Core_0_L1D_total_access 43212326
Core_0_L1D_total_hit 40523472
Core_0_L1D_total_miss 2688854
Core_0_L1D_total_MPKI 26.8885
Core_0_L1D_total_miss_rate 0.0622242
Core_0_L1D_demand_access 16537264
Core_0_L1D_demand_hit 14473428
Core_0_L1D_demand_miss 2063836
Core_0_L1D_demand_MPKI 20.6384
Core_0_L1D_demand_miss_rate 0.124799
Core_0_L1D_load_access 16537264
Core_0_L1D_load_hit 14473428
Core_0_L1D_load_miss 2063836
Core_0_L1D_load_MPKI 20.6384
Core_0_L1D_load_miss_rate 0.124799
Core_0_L1D_rfo_access 0
Core_0_L1D_rfo_hit 0
Core_0_L1D_rfo_miss 0
Core_0_L1D_rfo_MPKI 0
Core_0_L1D_rfo_miss_rate 0
Core_0_L1D_prefetch_access 21469517
Core_0_L1D_prefetch_hit 20844499
Core_0_L1D_prefetch_miss 625018
Core_0_L1D_prefetch_MPKI 6.25018
Core_0_L1D_prefetch_miss_rate 0.0291119
Core_0_L1D_writeback_access 5205545
Core_0_L1D_writeback_hit 5205545
Core_0_L1D_writeback_miss 0
Core_0_L1D_writeback_MPKI 0
Core_0_L1D_writeback_miss_rate 0
Core_0_L1D_prefetch_requested 89066370
Core_0_L1D_prefetch_issued 21469509
Core_0_L1D_prefetch_useful 397103
Core_0_L1D_prefetch_useless 0
Core_0_L1D_prefetch_late 0
Core_0_L1D_prefetch_accuracy 0.0184961
Core_0_L1D_prefetch_coverage 0.161362
Core_0_L1D_total_eviction 2404496

Core_0_L2C_total_access 4104222
Core_0_L2C_total_hit 2230051
Core_0_L2C_total_miss 1874171
Core_0_L2C_total_MPKI 18.7417
Core_0_L2C_total_miss_rate 0.456645
Core_0_L2C_demand_access 2007393
Core_0_L2C_demand_hit 604723
Core_0_L2C_demand_miss 1402670
Core_0_L2C_demand_MPKI 14.0267
Core_0_L2C_demand_miss_rate 0.698752
Core_0_L2C_load_access 2007393
Core_0_L2C_load_hit 604723
Core_0_L2C_load_miss 1402670
Core_0_L2C_load_MPKI 14.0267
Core_0_L2C_load_miss_rate 0.698752
Core_0_L2C_rfo_access 0
Core_0_L2C_rfo_hit 0
Core_0_L2C_rfo_miss 0
Core_0_L2C_rfo_MPKI 0
Core_0_L2C_rfo_miss_rate 0
Core_0_L2C_prefetch_access 1699728
Core_0_L2C_prefetch_hit 1228229
Core_0_L2C_prefetch_miss 471499
Core_0_L2C_prefetch_MPKI 4.71499
Core_0_L2C_prefetch_miss_rate 0.277397
Core_0_L2C_writeback_access 397101
Core_0_L2C_writeback_hit 397099
Core_0_L2C_writeback_miss 2
Core_0_L2C_writeback_MPKI 2e-05
Core_0_L2C_writeback_miss_rate 5.0365e-06
Core_0_L2C_prefetch_requested 1074710
Core_0_L2C_prefetch_issued 1074710
Core_0_L2C_prefetch_useful 373324
Core_0_L2C_prefetch_useless 0
Core_0_L2C_prefetch_late 0
Core_0_L2C_prefetch_accuracy 0.347372
Core_0_L2C_prefetch_coverage 0.210206
Core_0_L2C_total_eviction 1799774

Core_0_LLC_total_access 2196594
Core_0_LLC_total_hit 769028
Core_0_LLC_total_miss 1427566
Core_0_LLC_total_MPKI 14.2757
Core_0_LLC_total_miss_rate 0.6499
Core_0_LLC_demand_access 1402670
Core_0_LLC_demand_hit 419905
Core_0_LLC_demand_miss 982765
Core_0_LLC_demand_MPKI 9.82765
Core_0_LLC_demand_miss_rate 0.700639
Core_0_LLC_load_access 1402670
Core_0_LLC_load_hit 419905
Core_0_LLC_load_miss 982765
Core_0_LLC_load_MPKI 9.82765
Core_0_LLC_load_miss_rate 0.700639
Core_0_LLC_rfo_access 0
Core_0_LLC_rfo_hit 0
Core_0_LLC_rfo_miss 0
Core_0_LLC_rfo_MPKI 0
Core_0_LLC_rfo_miss_rate 0
Core_0_LLC_prefetch_access 397106
Core_0_LLC_prefetch_hit 3
Core_0_LLC_prefetch_miss 397103
Core_0_LLC_prefetch_MPKI 3.97103
Core_0_LLC_prefetch_miss_rate 0.999992
Core_0_LLC_writeback_access 396818
Core_0_LLC_writeback_hit 349120
Core_0_LLC_writeback_miss 47698
Core_0_LLC_writeback_MPKI 0.47698
Core_0_LLC_writeback_miss_rate 0.120201
Core_0_LLC_prefetch_requested 0
Core_0_LLC_prefetch_issued 0
Core_0_LLC_prefetch_useful 0
Core_0_LLC_prefetch_useless 0
Core_0_LLC_prefetch_late 0
Core_0_LLC_prefetch_accuracy 0
Core_0_LLC_prefetch_coverage 0
Core_0_LLC_total_eviction 1427565

[DRAM Statistics]
Channel_0_RQ_row_buffer_hit 112
Channel_0_RQ_row_buffer_miss 1379751
Channel_0_WQ_row_buffer_hit 95860
Channel_0_WQ_row_buffer_miss 299093
Channel_0_WQ_full 0
Channel_0_dbus_congested 6040620
DRAM_total_RQ_row_buffer_hit 112
DRAM_total_RQ_row_buffer_miss 1379751
DRAM_total_WQ_row_buffer_hit 95860
DRAM_total_WQ_row_buffer_miss 299093
DRAM_total_WQ_full 0
DRAM_total_dbus_congested 6040620
DRAM_avg_congested_cycle 20.5043

======STLB miss causes ========
Core_0_STLB_miss_cause_breakdown
Core_0_STLB_cause_Demand_Data_miss 0
Core_0_STLB_cause_Demand_Data_miss_rate 0
Core_0_STLB_cause_Demand_Instruction_miss 0
Core_0_STLB_cause_Demand_Instruction_miss_rate 0
Core_0_STLB_cause_L1D_Prefetch_miss 0
Core_0_STLB_cause_L1D_Prefetch_miss_rate 0
Core_0_STLB_cause_L1I_Prefetch_miss 0
Core_0_STLB_cause_L1I_Prefetch_miss_rate 0
Core_0_STLB_cause_Other_miss 0
Core_0_STLB_cause_Other_miss_rate 0
Core_0_STLB_Demand_miss 0
Core_0_STLB_Demand_miss_rate 0
Core_0_STLB_L1D_Prefetch_miss 0
Core_0_STLB_L1D_Prefetch_miss_rate 0
Core_0_STLB_Other_miss 0
Core_0_STLB_Other_miss_rate 0
BERTI TO_L1: 107185618 TO_L2: 5310901 TO_L2_BC_MSHR: 261
BERTI AVG_LAT: 73.6176 NUM_TRACK_LATENCY: 3720682 NUM_CANT_TRACK_LATENCY: 0
BERTI CROSS_PAGE 14907120 NO_CROSS_PAGE: 97589399
BERTI FOUND_BERTI: 23114947 NO_FOUND_BERTI: 7843259
BERTI AVERAGE_ISSUED: 3.43167
