[VMEM] WARNING: physical memory size is smaller than virtual memory size.

*** ChampSim Multicore Out-of-Order Simulator ***
Warmup Instructions: 50000000
Simulation Instructions: 100000000
Number of CPUs: 1
Page size: 4096
STLB ideal mode: all
STLB ideal fill: on
Core 0: /data2/zcq/champsim_traces_gap/cc.urand-353B.champsimtrace.xz
VBerti Prefetcher
BERTI HASH ENTANGLING
BERTI IP MASK ffff
Off-chip DRAM Size: 16 GiB Channels: 1 Width: 64-bit Data Rate: 3205 MT/s
Warmup halting CPU 0 at instruction 50000005 cycle 10000032 for remainder of phase
Warmup finished CPU 0 instructions: 50000005 cycles: 10000032 cumulative IPC: 5 (Simulation time: 00 hr 02 min 24 sec)
Warmup complete CPU 0 instructions: 50000005 cycles: 10000032 cumulative IPC: 5 (Simulation time: 00 hr 02 min 24 sec)
Simulation finished CPU 0 instructions: 100000000 cycles: 180726232 cumulative IPC: 0.5533 (Simulation time: 00 hr 24 min 26 sec)
Simulation complete CPU 0 instructions: 100000000 cycles: 180726232 cumulative IPC: 0.5533 (Simulation time: 00 hr 24 min 26 sec)

ChampSim completed all CPUs

=== Simulation ===
CPU 0 runs /data2/zcq/champsim_traces_gap/cc.urand-353B.champsimtrace.xz

Region of Interest Statistics

CPU 0 cumulative IPC: 0.5533 instructions: 100000000 cycles: 180726232
CPU 0 Branch Prediction Accuracy: 100% MPKI: 0 Average ROB Occupancy at Mispredict: -
Branch type MPKI
BRANCH_DIRECT_JUMP: 0
BRANCH_INDIRECT: 0
BRANCH_CONDITIONAL: 0
BRANCH_DIRECT_CALL: 0
BRANCH_INDIRECT_CALL: 0
BRANCH_RETURN: 0

cpu0->cpu0_STLB TOTAL        ACCESS:    2703652 HIT:    2703652 MISS:          0 MSHR_MERGE:          0
cpu0->cpu0_STLB LOAD         ACCESS:    2703652 HIT:    2703652 MISS:          0 MSHR_MERGE:          0
cpu0->cpu0_STLB RFO          ACCESS:          0 HIT:          0 MISS:          0 MSHR_MERGE:          0
cpu0->cpu0_STLB PREFETCH     ACCESS:          0 HIT:          0 MISS:          0 MSHR_MERGE:          0
cpu0->cpu0_STLB WRITE        ACCESS:          0 HIT:          0 MISS:          0 MSHR_MERGE:          0
cpu0->cpu0_STLB TRANSLATION  ACCESS:          0 HIT:          0 MISS:          0 MSHR_MERGE:          0
cpu0->cpu0_STLB PREFETCH REQUESTED:          0 ISSUED:          0 USEFUL:          0 USELESS:          0 LATE:          0
cpu0->cpu0_STLB AVERAGE MISS LATENCY: - cycles
cpu0->cpu0_L2C TOTAL        ACCESS:   19603721 HIT:    7489341 MISS:   12114380 MSHR_MERGE:    3621528
cpu0->cpu0_L2C LOAD         ACCESS:    4154687 HIT:    1305839 MISS:    2848848 MSHR_MERGE:     114001
cpu0->cpu0_L2C RFO          ACCESS:          0 HIT:          0 MISS:          0 MSHR_MERGE:          0
cpu0->cpu0_L2C PREFETCH     ACCESS:   15284560 HIT:    6019039 MISS:    9265521 MSHR_MERGE:    3507527
cpu0->cpu0_L2C WRITE        ACCESS:     164474 HIT:     164463 MISS:         11 MSHR_MERGE:          0
cpu0->cpu0_L2C TRANSLATION  ACCESS:          0 HIT:          0 MISS:          0 MSHR_MERGE:          0
cpu0->cpu0_L2C PREFETCH REQUESTED:    3697969 ISSUED:    3697954 USEFUL:     611143 USELESS:     198487 LATE:      22368
cpu0->cpu0_L2C AVERAGE MISS LATENCY: 274.1 cycles
cpu0->cpu0_L1I TOTAL        ACCESS:   18710807 HIT:   18710807 MISS:          0 MSHR_MERGE:          0
cpu0->cpu0_L1I LOAD         ACCESS:   18710807 HIT:   18710807 MISS:          0 MSHR_MERGE:          0
cpu0->cpu0_L1I RFO          ACCESS:          0 HIT:          0 MISS:          0 MSHR_MERGE:          0
cpu0->cpu0_L1I PREFETCH     ACCESS:          0 HIT:          0 MISS:          0 MSHR_MERGE:          0
cpu0->cpu0_L1I WRITE        ACCESS:          0 HIT:          0 MISS:          0 MSHR_MERGE:          0
cpu0->cpu0_L1I TRANSLATION  ACCESS:          0 HIT:          0 MISS:          0 MSHR_MERGE:          0
cpu0->cpu0_L1I PREFETCH REQUESTED:          0 ISSUED:          0 USEFUL:          0 USELESS:          0 LATE:          0
cpu0->cpu0_L1I AVERAGE MISS LATENCY: - cycles
cpu0->cpu0_L1D TOTAL        ACCESS:   63013599 HIT:   47198481 MISS:   15815118 MSHR_MERGE:      64372
cpu0->cpu0_L1D LOAD         ACCESS:   23357959 HIT:   19167092 MISS:    4190867 MSHR_MERGE:      36180
cpu0->cpu0_L1D RFO          ACCESS:          0 HIT:          0 MISS:          0 MSHR_MERGE:          0
cpu0->cpu0_L1D PREFETCH     ACCESS:   37024061 HIT:   25399810 MISS:   11624251 MSHR_MERGE:      28192
cpu0->cpu0_L1D WRITE        ACCESS:    2631579 HIT:    2631579 MISS:          0 MSHR_MERGE:          0
cpu0->cpu0_L1D TRANSLATION  ACCESS:          0 HIT:          0 MISS:          0 MSHR_MERGE:          0
cpu0->cpu0_L1D PREFETCH REQUESTED:  100811497 ISSUED:   37024053 USEFUL:    1600290 USELESS:    1071561 LATE:      36132
cpu0->cpu0_L1D AVERAGE MISS LATENCY: 195.9 cycles
cpu0->cpu0_ITLB TOTAL        ACCESS:   16079221 HIT:   16079221 MISS:          0 MSHR_MERGE:          0
cpu0->cpu0_ITLB LOAD         ACCESS:   16079221 HIT:   16079221 MISS:          0 MSHR_MERGE:          0
cpu0->cpu0_ITLB RFO          ACCESS:          0 HIT:          0 MISS:          0 MSHR_MERGE:          0
cpu0->cpu0_ITLB PREFETCH     ACCESS:          0 HIT:          0 MISS:          0 MSHR_MERGE:          0
cpu0->cpu0_ITLB WRITE        ACCESS:          0 HIT:          0 MISS:          0 MSHR_MERGE:          0
cpu0->cpu0_ITLB TRANSLATION  ACCESS:          0 HIT:          0 MISS:          0 MSHR_MERGE:          0
cpu0->cpu0_ITLB PREFETCH REQUESTED:          0 ISSUED:          0 USEFUL:          0 USELESS:          0 LATE:          0
cpu0->cpu0_ITLB AVERAGE MISS LATENCY: - cycles
cpu0->cpu0_DTLB TOTAL        ACCESS:   50382616 HIT:   47659136 MISS:    2723480 MSHR_MERGE:      19828
cpu0->cpu0_DTLB LOAD         ACCESS:   50382616 HIT:   47659136 MISS:    2723480 MSHR_MERGE:      19828
cpu0->cpu0_DTLB RFO          ACCESS:          0 HIT:          0 MISS:          0 MSHR_MERGE:          0
cpu0->cpu0_DTLB PREFETCH     ACCESS:          0 HIT:          0 MISS:          0 MSHR_MERGE:          0
cpu0->cpu0_DTLB WRITE        ACCESS:          0 HIT:          0 MISS:          0 MSHR_MERGE:          0
cpu0->cpu0_DTLB TRANSLATION  ACCESS:          0 HIT:          0 MISS:          0 MSHR_MERGE:          0
cpu0->cpu0_DTLB PREFETCH REQUESTED:          0 ISSUED:          0 USEFUL:          0 USELESS:          0 LATE:          0
cpu0->cpu0_DTLB AVERAGE MISS LATENCY: 5.002 cycles
cpu0->LLC TOTAL        ACCESS:    8657365 HIT:     223563 MISS:    8433802 MSHR_MERGE:     136954
cpu0->LLC LOAD         ACCESS:    2734847 HIT:      44203 MISS:    2690644 MSHR_MERGE:       1511
cpu0->LLC RFO          ACCESS:          0 HIT:          0 MISS:          0 MSHR_MERGE:          0
cpu0->LLC PREFETCH     ACCESS:    5757991 HIT:     117096 MISS:    5640895 MSHR_MERGE:     135443
cpu0->LLC WRITE        ACCESS:     164527 HIT:      62264 MISS:     102263 MSHR_MERGE:          0
cpu0->LLC TRANSLATION  ACCESS:          0 HIT:          0 MISS:          0 MSHR_MERGE:          0
cpu0->LLC PREFETCH REQUESTED:          0 ISSUED:          0 USEFUL:          0 USELESS:          0 LATE:          0
cpu0->LLC AVERAGE MISS LATENCY: 259.1 cycles

DRAM Statistics

Channel 0 RQ ROW_BUFFER_HIT:    1040323
  ROW_BUFFER_MISS:    7154259
  AVG DBUS CONGESTED CYCLE: 3.306
Channel 0 WQ ROW_BUFFER_HIT:       3272
  ROW_BUFFER_MISS:     164218
  FULL:          0
Channel 0 REFRESHES ISSUED:      15060

[ROI Statistics]
[System Configuration]
num_cpus 1
cpu_freq 4000
fetch_width 6
decode_width 6
dispatch_width 6
execute_width 6
lq_width 2
sq_width 2
retire_width 6
scheduler_size 128
branch_mispredict_penalty 15
rob_size 352
lq_size 128
sq_size 72
ifetch_buffer_size 64
decode_buffer_size 32
dispatch_buffer_size 32
register_file_size 288
decode_latency 1
dispatch_latency 1
schedule_latency 1
execute_latency 1
page_size 4096
block_size 64
core_0_itlb_set 16
core_0_itlb_way 4
core_0_itlb_rq_size 16
core_0_itlb_wq_size 16
core_0_itlb_pq_size 0
core_0_itlb_mshr_size 8
core_0_itlb_hit_latency 1
core_0_itlb_fill_latency 1
core_0_itlb_max_tag_check 2
core_0_itlb_max_fill 2
core_0_dtlb_set 16
core_0_dtlb_way 4
core_0_dtlb_rq_size 16
core_0_dtlb_wq_size 16
core_0_dtlb_pq_size 0
core_0_dtlb_mshr_size 8
core_0_dtlb_hit_latency 1
core_0_dtlb_fill_latency 1
core_0_dtlb_max_tag_check 2
core_0_dtlb_max_fill 2
core_0_stlb_set 128
core_0_stlb_way 12
core_0_stlb_rq_size 32
core_0_stlb_wq_size 32
core_0_stlb_pq_size 0
core_0_stlb_mshr_size 16
core_0_stlb_hit_latency 4
core_0_stlb_fill_latency 4
core_0_stlb_max_tag_check 1
core_0_stlb_max_fill 1
core_0_l1i_set 64
core_0_l1i_way 8
core_0_l1i_rq_size 64
core_0_l1i_wq_size 64
core_0_l1i_pq_size 32
core_0_l1i_mshr_size 8
core_0_l1i_hit_latency 2
core_0_l1i_fill_latency 2
core_0_l1i_max_tag_check 2
core_0_l1i_max_fill 2
core_0_l1d_set 64
core_0_l1d_way 12
core_0_l1d_rq_size 64
core_0_l1d_wq_size 64
core_0_l1d_pq_size 8
core_0_l1d_mshr_size 16
core_0_l1d_hit_latency 2
core_0_l1d_fill_latency 3
core_0_l1d_max_tag_check 2
core_0_l1d_max_fill 2
core_0_l2c_set 1024
core_0_l2c_way 8
core_0_l2c_rq_size 32
core_0_l2c_wq_size 32
core_0_l2c_pq_size 16
core_0_l2c_mshr_size 32
core_0_l2c_hit_latency 5
core_0_l2c_fill_latency 5
core_0_l2c_max_tag_check 1
core_0_l2c_max_fill 1
llc_set 2048
llc_way 16
llc_rq_size 32
llc_wq_size 32
llc_pq_size 32
llc_mshr_size 64
llc_hit_latency 10
llc_fill_latency 10
llc_max_tag_check 1
llc_max_fill 1
dram_channels 1
dram_ranks 1
dram_bankgroups 8
dram_banks 4
dram_rows 65536
dram_columns 1024
dram_channel_width 8
dram_rq_size 64
dram_wq_size 64
dram_size 17179869184
core_0_itlb_prefetcher no
core_0_dtlb_prefetcher no
core_0_stlb_prefetcher no
core_0_l1i_prefetcher next_line
core_0_l1d_prefetcher vberti
core_0_l2c_prefetcher ip_stride
llc_prefetcher no
llc_replacement drrip

Core_0_instructions 100000000
Core_0_cycles 180726232
Core_0_IPC 0.553323
Core_0_branch_prediction_accuracy 100
Core_0_branch_MPKI 0
Core_0_average_ROB_occupancy_at_mispredict 0

Core_0_ITLB_total_access 16079221
Core_0_ITLB_total_hit 16079221
Core_0_ITLB_total_miss 0
Core_0_ITLB_total_MPKI 0
Core_0_ITLB_total_miss_rate 0
Core_0_ITLB_demand_access 16079221
Core_0_ITLB_demand_hit 16079221
Core_0_ITLB_demand_miss 0
Core_0_ITLB_demand_MPKI 0
Core_0_ITLB_demand_miss_rate 0
Core_0_ITLB_load_access 16079221
Core_0_ITLB_load_hit 16079221
Core_0_ITLB_load_miss 0
Core_0_ITLB_load_MPKI 0
Core_0_ITLB_load_miss_rate 0
Core_0_ITLB_rfo_access 0
Core_0_ITLB_rfo_hit 0
Core_0_ITLB_rfo_miss 0
Core_0_ITLB_rfo_MPKI 0
Core_0_ITLB_rfo_miss_rate 0
Core_0_ITLB_prefetch_access 0
Core_0_ITLB_prefetch_hit 0
Core_0_ITLB_prefetch_miss 0
Core_0_ITLB_prefetch_MPKI 0
Core_0_ITLB_prefetch_miss_rate 0
Core_0_ITLB_writeback_access 0
Core_0_ITLB_writeback_hit 0
Core_0_ITLB_writeback_miss 0
Core_0_ITLB_writeback_MPKI 0
Core_0_ITLB_writeback_miss_rate 0
Core_0_ITLB_prefetch_requested 0
Core_0_ITLB_prefetch_issued 0
Core_0_ITLB_prefetch_useful 0
Core_0_ITLB_prefetch_useless 0
Core_0_ITLB_prefetch_late 0
Core_0_ITLB_prefetch_accuracy 0
Core_0_ITLB_prefetch_coverage 0
Core_0_ITLB_total_eviction 0

Core_0_DTLB_total_access 50382616
Core_0_DTLB_total_hit 47659136
Core_0_DTLB_total_miss 2723480
Core_0_DTLB_total_MPKI 27.2348
Core_0_DTLB_total_miss_rate 0.0540559
Core_0_DTLB_demand_access 50382616
Core_0_DTLB_demand_hit 47659136
Core_0_DTLB_demand_miss 2723480
Core_0_DTLB_demand_MPKI 27.2348
Core_0_DTLB_demand_miss_rate 0.0540559
Core_0_DTLB_load_access 50382616
Core_0_DTLB_load_hit 47659136
Core_0_DTLB_load_miss 2723480
Core_0_DTLB_load_MPKI 27.2348
Core_0_DTLB_load_miss_rate 0.0540559
Core_0_DTLB_rfo_access 0
Core_0_DTLB_rfo_hit 0
Core_0_DTLB_rfo_miss 0
Core_0_DTLB_rfo_MPKI 0
Core_0_DTLB_rfo_miss_rate 0
Core_0_DTLB_prefetch_access 0
Core_0_DTLB_prefetch_hit 0
Core_0_DTLB_prefetch_miss 0
Core_0_DTLB_prefetch_MPKI 0
Core_0_DTLB_prefetch_miss_rate 0
Core_0_DTLB_writeback_access 0
Core_0_DTLB_writeback_hit 0
Core_0_DTLB_writeback_miss 0
Core_0_DTLB_writeback_MPKI 0
Core_0_DTLB_writeback_miss_rate 0
Core_0_DTLB_prefetch_requested 0
Core_0_DTLB_prefetch_issued 0
Core_0_DTLB_prefetch_useful 0
Core_0_DTLB_prefetch_useless 0
Core_0_DTLB_prefetch_late 0
Core_0_DTLB_prefetch_accuracy 0
Core_0_DTLB_prefetch_coverage 0
Core_0_DTLB_total_eviction 2703652

Core_0_STLB_total_access 2703652
Core_0_STLB_total_hit 2703652
Core_0_STLB_total_miss 0
Core_0_STLB_total_MPKI 0
Core_0_STLB_total_miss_rate 0
Core_0_STLB_demand_access 2703652
Core_0_STLB_demand_hit 2703652
Core_0_STLB_demand_miss 0
Core_0_STLB_demand_MPKI 0
Core_0_STLB_demand_miss_rate 0
Core_0_STLB_load_access 2703652
Core_0_STLB_load_hit 2703652
Core_0_STLB_load_miss 0
Core_0_STLB_load_MPKI 0
Core_0_STLB_load_miss_rate 0
Core_0_STLB_rfo_access 0
Core_0_STLB_rfo_hit 0
Core_0_STLB_rfo_miss 0
Core_0_STLB_rfo_MPKI 0
Core_0_STLB_rfo_miss_rate 0
Core_0_STLB_prefetch_access 0
Core_0_STLB_prefetch_hit 0
Core_0_STLB_prefetch_miss 0
Core_0_STLB_prefetch_MPKI 0
Core_0_STLB_prefetch_miss_rate 0
Core_0_STLB_writeback_access 0
Core_0_STLB_writeback_hit 0
Core_0_STLB_writeback_miss 0
Core_0_STLB_writeback_MPKI 0
Core_0_STLB_writeback_miss_rate 0
Core_0_STLB_prefetch_requested 0
Core_0_STLB_prefetch_issued 0
Core_0_STLB_prefetch_useful 0
Core_0_STLB_prefetch_useless 0
Core_0_STLB_prefetch_late 0
Core_0_STLB_prefetch_accuracy 0
Core_0_STLB_prefetch_coverage 0
Core_0_STLB_total_eviction 2261099

Core_0_L1I_total_access 18710807
Core_0_L1I_total_hit 18710807
Core_0_L1I_total_miss 0
Core_0_L1I_total_MPKI 0
Core_0_L1I_total_miss_rate 0
Core_0_L1I_demand_access 18710807
Core_0_L1I_demand_hit 18710807
Core_0_L1I_demand_miss 0
Core_0_L1I_demand_MPKI 0
Core_0_L1I_demand_miss_rate 0
Core_0_L1I_load_access 18710807
Core_0_L1I_load_hit 18710807
Core_0_L1I_load_miss 0
Core_0_L1I_load_MPKI 0
Core_0_L1I_load_miss_rate 0
Core_0_L1I_rfo_access 0
Core_0_L1I_rfo_hit 0
Core_0_L1I_rfo_miss 0
Core_0_L1I_rfo_MPKI 0
Core_0_L1I_rfo_miss_rate 0
Core_0_L1I_prefetch_access 0
Core_0_L1I_prefetch_hit 0
Core_0_L1I_prefetch_miss 0
Core_0_L1I_prefetch_MPKI 0
Core_0_L1I_prefetch_miss_rate 0
Core_0_L1I_writeback_access 0
Core_0_L1I_writeback_hit 0
Core_0_L1I_writeback_miss 0
Core_0_L1I_writeback_MPKI 0
Core_0_L1I_writeback_miss_rate 0
Core_0_L1I_prefetch_requested 0
Core_0_L1I_prefetch_issued 0
Core_0_L1I_prefetch_useful 0
Core_0_L1I_prefetch_useless 0
Core_0_L1I_prefetch_late 0
Core_0_L1I_prefetch_accuracy 0
Core_0_L1I_prefetch_coverage 0
Core_0_L1I_total_eviction 0

Core_0_L1D_total_access 63013599
Core_0_L1D_total_hit 47198481
Core_0_L1D_total_miss 15815118
Core_0_L1D_total_MPKI 158.151
Core_0_L1D_total_miss_rate 0.250979
Core_0_L1D_demand_access 23357959
Core_0_L1D_demand_hit 19167092
Core_0_L1D_demand_miss 4190867
Core_0_L1D_demand_MPKI 41.9087
Core_0_L1D_demand_miss_rate 0.179419
Core_0_L1D_load_access 23357959
Core_0_L1D_load_hit 19167092
Core_0_L1D_load_miss 4190867
Core_0_L1D_load_MPKI 41.9087
Core_0_L1D_load_miss_rate 0.179419
Core_0_L1D_rfo_access 0
Core_0_L1D_rfo_hit 0
Core_0_L1D_rfo_miss 0
Core_0_L1D_rfo_MPKI 0
Core_0_L1D_rfo_miss_rate 0
Core_0_L1D_prefetch_access 37024061
Core_0_L1D_prefetch_hit 25399810
Core_0_L1D_prefetch_miss 11624251
Core_0_L1D_prefetch_MPKI 116.243
Core_0_L1D_prefetch_miss_rate 0.313965
Core_0_L1D_writeback_access 2631579
Core_0_L1D_writeback_hit 2631579
Core_0_L1D_writeback_miss 0
Core_0_L1D_writeback_MPKI 0
Core_0_L1D_writeback_miss_rate 0
Core_0_L1D_prefetch_requested 100811497
Core_0_L1D_prefetch_issued 37024053
Core_0_L1D_prefetch_useful 1600290
Core_0_L1D_prefetch_useless 1071561
Core_0_L1D_prefetch_late 36132
Core_0_L1D_prefetch_accuracy 0.043223
Core_0_L1D_prefetch_coverage 0.276333
Core_0_L1D_total_eviction 6826638

Core_0_L2C_total_access 19603721
Core_0_L2C_total_hit 7489341
Core_0_L2C_total_miss 12114380
Core_0_L2C_total_MPKI 121.144
Core_0_L2C_total_miss_rate 0.617963
Core_0_L2C_demand_access 4154687
Core_0_L2C_demand_hit 1305839
Core_0_L2C_demand_miss 2848848
Core_0_L2C_demand_MPKI 28.4885
Core_0_L2C_demand_miss_rate 0.685695
Core_0_L2C_load_access 4154687
Core_0_L2C_load_hit 1305839
Core_0_L2C_load_miss 2848848
Core_0_L2C_load_MPKI 28.4885
Core_0_L2C_load_miss_rate 0.685695
Core_0_L2C_rfo_access 0
Core_0_L2C_rfo_hit 0
Core_0_L2C_rfo_miss 0
Core_0_L2C_rfo_MPKI 0
Core_0_L2C_rfo_miss_rate 0
Core_0_L2C_prefetch_access 15284560
Core_0_L2C_prefetch_hit 6019039
Core_0_L2C_prefetch_miss 9265521
Core_0_L2C_prefetch_MPKI 92.6552
Core_0_L2C_prefetch_miss_rate 0.606201
Core_0_L2C_writeback_access 164474
Core_0_L2C_writeback_hit 164463
Core_0_L2C_writeback_miss 11
Core_0_L2C_writeback_MPKI 0.00011
Core_0_L2C_writeback_miss_rate 6.68799e-05
Core_0_L2C_prefetch_requested 3697969
Core_0_L2C_prefetch_issued 3697954
Core_0_L2C_prefetch_useful 611143
Core_0_L2C_prefetch_useless 198487
Core_0_L2C_prefetch_late 22368
Core_0_L2C_prefetch_accuracy 0.165265
Core_0_L2C_prefetch_coverage 0.176631
Core_0_L2C_total_eviction 8225980

Core_0_LLC_total_access 8657365
Core_0_LLC_total_hit 223563
Core_0_LLC_total_miss 8433802
Core_0_LLC_total_MPKI 84.338
Core_0_LLC_total_miss_rate 0.974177
Core_0_LLC_demand_access 2734847
Core_0_LLC_demand_hit 44203
Core_0_LLC_demand_miss 2690644
Core_0_LLC_demand_MPKI 26.9064
Core_0_LLC_demand_miss_rate 0.983837
Core_0_LLC_load_access 2734847
Core_0_LLC_load_hit 44203
Core_0_LLC_load_miss 2690644
Core_0_LLC_load_MPKI 26.9064
Core_0_LLC_load_miss_rate 0.983837
Core_0_LLC_rfo_access 0
Core_0_LLC_rfo_hit 0
Core_0_LLC_rfo_miss 0
Core_0_LLC_rfo_MPKI 0
Core_0_LLC_rfo_miss_rate 0
Core_0_LLC_prefetch_access 5757991
Core_0_LLC_prefetch_hit 117096
Core_0_LLC_prefetch_miss 5640895
Core_0_LLC_prefetch_MPKI 56.4089
Core_0_LLC_prefetch_miss_rate 0.979664
Core_0_LLC_writeback_access 164527
Core_0_LLC_writeback_hit 62264
Core_0_LLC_writeback_miss 102263
Core_0_LLC_writeback_MPKI 1.02263
Core_0_LLC_writeback_miss_rate 0.621558
Core_0_LLC_prefetch_requested 0
Core_0_LLC_prefetch_issued 0
Core_0_LLC_prefetch_useful 0
Core_0_LLC_prefetch_useless 0
Core_0_LLC_prefetch_late 0
Core_0_LLC_prefetch_accuracy 0
Core_0_LLC_prefetch_coverage 0
Core_0_LLC_total_eviction 8296845

[DRAM Statistics]
Channel_0_RQ_row_buffer_hit 1040323
Channel_0_RQ_row_buffer_miss 7154259
Channel_0_WQ_row_buffer_hit 3272
Channel_0_WQ_row_buffer_miss 164218
Channel_0_WQ_full 0
Channel_0_dbus_congested 15528733
DRAM_total_RQ_row_buffer_hit 1040323
DRAM_total_RQ_row_buffer_miss 7154259
DRAM_total_WQ_row_buffer_hit 3272
DRAM_total_WQ_row_buffer_miss 164218
DRAM_total_WQ_full 0
DRAM_total_dbus_congested 15528733
DRAM_avg_congested_cycle 3.30638

======STLB miss causes ========
Core_0_STLB_miss_cause_breakdown
Core_0_STLB_cause_Demand_Data_miss 0
Core_0_STLB_cause_Demand_Data_miss_rate 0
Core_0_STLB_cause_Demand_Instruction_miss 0
Core_0_STLB_cause_Demand_Instruction_miss_rate 0
Core_0_STLB_cause_L1D_Prefetch_miss 0
Core_0_STLB_cause_L1D_Prefetch_miss_rate 0
Core_0_STLB_cause_L1I_Prefetch_miss 0
Core_0_STLB_cause_L1I_Prefetch_miss_rate 0
Core_0_STLB_cause_Other_miss 0
Core_0_STLB_cause_Other_miss_rate 0
Core_0_STLB_Demand_miss 0
Core_0_STLB_Demand_miss_rate 0
Core_0_STLB_L1D_Prefetch_miss 0
Core_0_STLB_L1D_Prefetch_miss_rate 0
Core_0_STLB_Other_miss 0
Core_0_STLB_Other_miss_rate 0
BERTI TO_L1: 92338115 TO_L2: 41262908 TO_L2_BC_MSHR: 4079003
BERTI AVG_LAT: 132.611 NUM_TRACK_LATENCY: 9806800 NUM_CANT_TRACK_LATENCY: 0
BERTI CROSS_PAGE 21197414 NO_CROSS_PAGE: 112403609
BERTI FOUND_BERTI: 14858554 NO_FOUND_BERTI: 20007441
BERTI AVERAGE_ISSUED: 4.55532
