[VMEM] WARNING: physical memory size is smaller than virtual memory size.

*** ChampSim Multicore Out-of-Order Simulator ***
Warmup Instructions: 50000000
Simulation Instructions: 100000000
Number of CPUs: 1
Page size: 4096
STLB ideal mode: all
STLB ideal fill: on
Core 0: /data2/zcq/champsim_traces_gap/cc.web-13B.champsimtrace.xz
VBerti Prefetcher
BERTI HASH ENTANGLING
BERTI IP MASK ffff
Off-chip DRAM Size: 16 GiB Channels: 1 Width: 64-bit Data Rate: 3205 MT/s
Warmup halting CPU 0 at instruction 50000001 cycle 10000022 for remainder of phase
Warmup finished CPU 0 instructions: 50000001 cycles: 10000022 cumulative IPC: 5 (Simulation time: 00 hr 02 min 13 sec)
Warmup complete CPU 0 instructions: 50000001 cycles: 10000022 cumulative IPC: 5 (Simulation time: 00 hr 02 min 13 sec)
Simulation finished CPU 0 instructions: 100000000 cycles: 86419820 cumulative IPC: 1.157 (Simulation time: 00 hr 13 min 36 sec)
Simulation complete CPU 0 instructions: 100000000 cycles: 86419820 cumulative IPC: 1.157 (Simulation time: 00 hr 13 min 36 sec)

ChampSim completed all CPUs

=== Simulation ===
CPU 0 runs /data2/zcq/champsim_traces_gap/cc.web-13B.champsimtrace.xz

Region of Interest Statistics

CPU 0 cumulative IPC: 1.157 instructions: 100000000 cycles: 86419820
CPU 0 Branch Prediction Accuracy: 98.46% MPKI: 3.23 Average ROB Occupancy at Mispredict: 65.52
Branch type MPKI
BRANCH_DIRECT_JUMP: 0.00024
BRANCH_INDIRECT: 0
BRANCH_CONDITIONAL: 3.229
BRANCH_DIRECT_CALL: 0.00014
BRANCH_INDIRECT_CALL: 1e-05
BRANCH_RETURN: 0.00015

cpu0->cpu0_STLB TOTAL        ACCESS:     147814 HIT:     147814 MISS:          0 MSHR_MERGE:          0
cpu0->cpu0_STLB LOAD         ACCESS:     147814 HIT:     147814 MISS:          0 MSHR_MERGE:          0
cpu0->cpu0_STLB RFO          ACCESS:          0 HIT:          0 MISS:          0 MSHR_MERGE:          0
cpu0->cpu0_STLB PREFETCH     ACCESS:          0 HIT:          0 MISS:          0 MSHR_MERGE:          0
cpu0->cpu0_STLB WRITE        ACCESS:          0 HIT:          0 MISS:          0 MSHR_MERGE:          0
cpu0->cpu0_STLB TRANSLATION  ACCESS:          0 HIT:          0 MISS:          0 MSHR_MERGE:          0
cpu0->cpu0_STLB PREFETCH REQUESTED:          0 ISSUED:          0 USEFUL:          0 USELESS:          0 LATE:          0
cpu0->cpu0_STLB AVERAGE MISS LATENCY: - cycles
cpu0->cpu0_L2C TOTAL        ACCESS:    6486674 HIT:    1669390 MISS:    4817284 MSHR_MERGE:    1696902
cpu0->cpu0_L2C LOAD         ACCESS:     991210 HIT:     365238 MISS:     625972 MSHR_MERGE:     156413
cpu0->cpu0_L2C RFO          ACCESS:         14 HIT:          0 MISS:         14 MSHR_MERGE:          0
cpu0->cpu0_L2C PREFETCH     ACCESS:    5279855 HIT:    1088822 MISS:    4191033 MSHR_MERGE:    1540489
cpu0->cpu0_L2C WRITE        ACCESS:     215595 HIT:     215330 MISS:        265 MSHR_MERGE:          0
cpu0->cpu0_L2C TRANSLATION  ACCESS:          0 HIT:          0 MISS:          0 MSHR_MERGE:          0
cpu0->cpu0_L2C PREFETCH REQUESTED:    1764665 ISSUED:    1758351 USEFUL:     307262 USELESS:     258656 LATE:      62278
cpu0->cpu0_L2C AVERAGE MISS LATENCY: 213.5 cycles
cpu0->cpu0_L1I TOTAL        ACCESS:   10551577 HIT:   10551464 MISS:        113 MSHR_MERGE:          9
cpu0->cpu0_L1I LOAD         ACCESS:   10551577 HIT:   10551464 MISS:        113 MSHR_MERGE:          9
cpu0->cpu0_L1I RFO          ACCESS:          0 HIT:          0 MISS:          0 MSHR_MERGE:          0
cpu0->cpu0_L1I PREFETCH     ACCESS:          0 HIT:          0 MISS:          0 MSHR_MERGE:          0
cpu0->cpu0_L1I WRITE        ACCESS:          0 HIT:          0 MISS:          0 MSHR_MERGE:          0
cpu0->cpu0_L1I TRANSLATION  ACCESS:          0 HIT:          0 MISS:          0 MSHR_MERGE:          0
cpu0->cpu0_L1I PREFETCH REQUESTED:          0 ISSUED:          0 USEFUL:          0 USELESS:          0 LATE:          0
cpu0->cpu0_L1I AVERAGE MISS LATENCY: 218.6 cycles
cpu0->cpu0_L1D TOTAL        ACCESS:   41186112 HIT:   36477300 MISS:    4708812 MSHR_MERGE:     184115
cpu0->cpu0_L1D LOAD         ACCESS:   20090759 HIT:   18927781 MISS:    1162978 MSHR_MERGE:     171872
cpu0->cpu0_L1D RFO          ACCESS:          0 HIT:          0 MISS:          0 MSHR_MERGE:          0
cpu0->cpu0_L1D PREFETCH     ACCESS:   18397698 HIT:   14851893 MISS:    3545805 MSHR_MERGE:      12228
cpu0->cpu0_L1D WRITE        ACCESS:    2697655 HIT:    2697626 MISS:         29 MSHR_MERGE:         15
cpu0->cpu0_L1D TRANSLATION  ACCESS:          0 HIT:          0 MISS:          0 MSHR_MERGE:          0
cpu0->cpu0_L1D PREFETCH REQUESTED:   85892079 ISSUED:   18397698 USEFUL:     903351 USELESS:     282638 LATE:      88748
cpu0->cpu0_L1D AVERAGE MISS LATENCY: 141.7 cycles
cpu0->cpu0_ITLB TOTAL        ACCESS:    9192586 HIT:    9192568 MISS:         18 MSHR_MERGE:          3
cpu0->cpu0_ITLB LOAD         ACCESS:    9192586 HIT:    9192568 MISS:         18 MSHR_MERGE:          3
cpu0->cpu0_ITLB RFO          ACCESS:          0 HIT:          0 MISS:          0 MSHR_MERGE:          0
cpu0->cpu0_ITLB PREFETCH     ACCESS:          0 HIT:          0 MISS:          0 MSHR_MERGE:          0
cpu0->cpu0_ITLB WRITE        ACCESS:          0 HIT:          0 MISS:          0 MSHR_MERGE:          0
cpu0->cpu0_ITLB TRANSLATION  ACCESS:          0 HIT:          0 MISS:          0 MSHR_MERGE:          0
cpu0->cpu0_ITLB PREFETCH REQUESTED:          0 ISSUED:          0 USEFUL:          0 USELESS:          0 LATE:          0
cpu0->cpu0_ITLB AVERAGE MISS LATENCY: 5 cycles
cpu0->cpu0_DTLB TOTAL        ACCESS:   33463753 HIT:   33281149 MISS:     182604 MSHR_MERGE:      34805
cpu0->cpu0_DTLB LOAD         ACCESS:   33463753 HIT:   33281149 MISS:     182604 MSHR_MERGE:      34805
cpu0->cpu0_DTLB RFO          ACCESS:          0 HIT:          0 MISS:          0 MSHR_MERGE:          0
cpu0->cpu0_DTLB PREFETCH     ACCESS:          0 HIT:          0 MISS:          0 MSHR_MERGE:          0
cpu0->cpu0_DTLB WRITE        ACCESS:          0 HIT:          0 MISS:          0 MSHR_MERGE:          0
cpu0->cpu0_DTLB TRANSLATION  ACCESS:          0 HIT:          0 MISS:          0 MSHR_MERGE:          0
cpu0->cpu0_DTLB PREFETCH REQUESTED:          0 ISSUED:          0 USEFUL:          0 USELESS:          0 LATE:          0
cpu0->cpu0_DTLB AVERAGE MISS LATENCY: 5.002 cycles
cpu0->LLC TOTAL        ACCESS:    3329279 HIT:     193872 MISS:    3135407 MSHR_MERGE:     144581
cpu0->LLC LOAD         ACCESS:     469559 HIT:      19229 MISS:     450330 MSHR_MERGE:       9758
cpu0->LLC RFO          ACCESS:         14 HIT:          0 MISS:         14 MSHR_MERGE:          0
cpu0->LLC PREFETCH     ACCESS:    2650526 HIT:      58613 MISS:    2591913 MSHR_MERGE:     134823
cpu0->LLC WRITE        ACCESS:     209180 HIT:     116030 MISS:      93150 MSHR_MERGE:          0
cpu0->LLC TRANSLATION  ACCESS:          0 HIT:          0 MISS:          0 MSHR_MERGE:          0
cpu0->LLC PREFETCH REQUESTED:          0 ISSUED:          0 USEFUL:          0 USELESS:          0 LATE:          0
cpu0->LLC AVERAGE MISS LATENCY: 191.2 cycles

DRAM Statistics

Channel 0 RQ ROW_BUFFER_HIT:     487574
  ROW_BUFFER_MISS:    2410085
  AVG DBUS CONGESTED CYCLE: 5.85
Channel 0 WQ ROW_BUFFER_HIT:      23833
  ROW_BUFFER_MISS:     168441
  FULL:          0
Channel 0 REFRESHES ISSUED:       7201

[ROI Statistics]
[System Configuration]
num_cpus 1
cpu_freq 4000
fetch_width 6
decode_width 6
dispatch_width 6
execute_width 6
lq_width 2
sq_width 2
retire_width 6
scheduler_size 128
branch_mispredict_penalty 15
rob_size 352
lq_size 128
sq_size 72
ifetch_buffer_size 64
decode_buffer_size 32
dispatch_buffer_size 32
register_file_size 288
decode_latency 1
dispatch_latency 1
schedule_latency 1
execute_latency 1
page_size 4096
block_size 64
core_0_itlb_set 16
core_0_itlb_way 4
core_0_itlb_rq_size 16
core_0_itlb_wq_size 16
core_0_itlb_pq_size 0
core_0_itlb_mshr_size 8
core_0_itlb_hit_latency 1
core_0_itlb_fill_latency 1
core_0_itlb_max_tag_check 2
core_0_itlb_max_fill 2
core_0_dtlb_set 16
core_0_dtlb_way 4
core_0_dtlb_rq_size 16
core_0_dtlb_wq_size 16
core_0_dtlb_pq_size 0
core_0_dtlb_mshr_size 8
core_0_dtlb_hit_latency 1
core_0_dtlb_fill_latency 1
core_0_dtlb_max_tag_check 2
core_0_dtlb_max_fill 2
core_0_stlb_set 128
core_0_stlb_way 12
core_0_stlb_rq_size 32
core_0_stlb_wq_size 32
core_0_stlb_pq_size 0
core_0_stlb_mshr_size 16
core_0_stlb_hit_latency 4
core_0_stlb_fill_latency 4
core_0_stlb_max_tag_check 1
core_0_stlb_max_fill 1
core_0_l1i_set 64
core_0_l1i_way 8
core_0_l1i_rq_size 64
core_0_l1i_wq_size 64
core_0_l1i_pq_size 32
core_0_l1i_mshr_size 8
core_0_l1i_hit_latency 2
core_0_l1i_fill_latency 2
core_0_l1i_max_tag_check 2
core_0_l1i_max_fill 2
core_0_l1d_set 64
core_0_l1d_way 12
core_0_l1d_rq_size 64
core_0_l1d_wq_size 64
core_0_l1d_pq_size 8
core_0_l1d_mshr_size 16
core_0_l1d_hit_latency 2
core_0_l1d_fill_latency 3
core_0_l1d_max_tag_check 2
core_0_l1d_max_fill 2
core_0_l2c_set 1024
core_0_l2c_way 8
core_0_l2c_rq_size 32
core_0_l2c_wq_size 32
core_0_l2c_pq_size 16
core_0_l2c_mshr_size 32
core_0_l2c_hit_latency 5
core_0_l2c_fill_latency 5
core_0_l2c_max_tag_check 1
core_0_l2c_max_fill 1
llc_set 2048
llc_way 16
llc_rq_size 32
llc_wq_size 32
llc_pq_size 32
llc_mshr_size 64
llc_hit_latency 10
llc_fill_latency 10
llc_max_tag_check 1
llc_max_fill 1
dram_channels 1
dram_ranks 1
dram_bankgroups 8
dram_banks 4
dram_rows 65536
dram_columns 1024
dram_channel_width 8
dram_rq_size 64
dram_wq_size 64
dram_size 17179869184
core_0_itlb_prefetcher no
core_0_dtlb_prefetcher no
core_0_stlb_prefetcher no
core_0_l1i_prefetcher next_line
core_0_l1d_prefetcher vberti
core_0_l2c_prefetcher ip_stride
llc_prefetcher no
llc_replacement drrip

Core_0_instructions 100000000
Core_0_cycles 86419820
Core_0_IPC 1.15714
Core_0_branch_prediction_accuracy 98.4581
Core_0_branch_MPKI 3.23001
Core_0_average_ROB_occupancy_at_mispredict 65.5203

Core_0_ITLB_total_access 9192586
Core_0_ITLB_total_hit 9192568
Core_0_ITLB_total_miss 18
Core_0_ITLB_total_MPKI 0.00018
Core_0_ITLB_total_miss_rate 1.9581e-06
Core_0_ITLB_demand_access 9192586
Core_0_ITLB_demand_hit 9192568
Core_0_ITLB_demand_miss 18
Core_0_ITLB_demand_MPKI 0.00018
Core_0_ITLB_demand_miss_rate 1.9581e-06
Core_0_ITLB_load_access 9192586
Core_0_ITLB_load_hit 9192568
Core_0_ITLB_load_miss 18
Core_0_ITLB_load_MPKI 0.00018
Core_0_ITLB_load_miss_rate 1.9581e-06
Core_0_ITLB_rfo_access 0
Core_0_ITLB_rfo_hit 0
Core_0_ITLB_rfo_miss 0
Core_0_ITLB_rfo_MPKI 0
Core_0_ITLB_rfo_miss_rate 0
Core_0_ITLB_prefetch_access 0
Core_0_ITLB_prefetch_hit 0
Core_0_ITLB_prefetch_miss 0
Core_0_ITLB_prefetch_MPKI 0
Core_0_ITLB_prefetch_miss_rate 0
Core_0_ITLB_writeback_access 0
Core_0_ITLB_writeback_hit 0
Core_0_ITLB_writeback_miss 0
Core_0_ITLB_writeback_MPKI 0
Core_0_ITLB_writeback_miss_rate 0
Core_0_ITLB_prefetch_requested 0
Core_0_ITLB_prefetch_issued 0
Core_0_ITLB_prefetch_useful 0
Core_0_ITLB_prefetch_useless 0
Core_0_ITLB_prefetch_late 0
Core_0_ITLB_prefetch_accuracy 0
Core_0_ITLB_prefetch_coverage 0
Core_0_ITLB_total_eviction 0

Core_0_DTLB_total_access 33463753
Core_0_DTLB_total_hit 33281149
Core_0_DTLB_total_miss 182604
Core_0_DTLB_total_MPKI 1.82604
Core_0_DTLB_total_miss_rate 0.00545677
Core_0_DTLB_demand_access 33463753
Core_0_DTLB_demand_hit 33281149
Core_0_DTLB_demand_miss 182604
Core_0_DTLB_demand_MPKI 1.82604
Core_0_DTLB_demand_miss_rate 0.00545677
Core_0_DTLB_load_access 33463753
Core_0_DTLB_load_hit 33281149
Core_0_DTLB_load_miss 182604
Core_0_DTLB_load_MPKI 1.82604
Core_0_DTLB_load_miss_rate 0.00545677
Core_0_DTLB_rfo_access 0
Core_0_DTLB_rfo_hit 0
Core_0_DTLB_rfo_miss 0
Core_0_DTLB_rfo_MPKI 0
Core_0_DTLB_rfo_miss_rate 0
Core_0_DTLB_prefetch_access 0
Core_0_DTLB_prefetch_hit 0
Core_0_DTLB_prefetch_miss 0
Core_0_DTLB_prefetch_MPKI 0
Core_0_DTLB_prefetch_miss_rate 0
Core_0_DTLB_writeback_access 0
Core_0_DTLB_writeback_hit 0
Core_0_DTLB_writeback_miss 0
Core_0_DTLB_writeback_MPKI 0
Core_0_DTLB_writeback_miss_rate 0
Core_0_DTLB_prefetch_requested 0
Core_0_DTLB_prefetch_issued 0
Core_0_DTLB_prefetch_useful 0
Core_0_DTLB_prefetch_useless 0
Core_0_DTLB_prefetch_late 0
Core_0_DTLB_prefetch_accuracy 0
Core_0_DTLB_prefetch_coverage 0
Core_0_DTLB_total_eviction 147799

Core_0_STLB_total_access 147814
Core_0_STLB_total_hit 147814
Core_0_STLB_total_miss 0
Core_0_STLB_total_MPKI 0
Core_0_STLB_total_miss_rate 0
Core_0_STLB_demand_access 147814
Core_0_STLB_demand_hit 147814
Core_0_STLB_demand_miss 0
Core_0_STLB_demand_MPKI 0
Core_0_STLB_demand_miss_rate 0
Core_0_STLB_load_access 147814
Core_0_STLB_load_hit 147814
Core_0_STLB_load_miss 0
Core_0_STLB_load_MPKI 0
Core_0_STLB_load_miss_rate 0
Core_0_STLB_rfo_access 0
Core_0_STLB_rfo_hit 0
Core_0_STLB_rfo_miss 0
Core_0_STLB_rfo_MPKI 0
Core_0_STLB_rfo_miss_rate 0
Core_0_STLB_prefetch_access 0
Core_0_STLB_prefetch_hit 0
Core_0_STLB_prefetch_miss 0
Core_0_STLB_prefetch_MPKI 0
Core_0_STLB_prefetch_miss_rate 0
Core_0_STLB_writeback_access 0
Core_0_STLB_writeback_hit 0
Core_0_STLB_writeback_miss 0
Core_0_STLB_writeback_MPKI 0
Core_0_STLB_writeback_miss_rate 0
Core_0_STLB_prefetch_requested 0
Core_0_STLB_prefetch_issued 0
Core_0_STLB_prefetch_useful 0
Core_0_STLB_prefetch_useless 0
Core_0_STLB_prefetch_late 0
Core_0_STLB_prefetch_accuracy 0
Core_0_STLB_prefetch_coverage 0
Core_0_STLB_total_eviction 111849

Core_0_L1I_total_access 10551577
Core_0_L1I_total_hit 10551464
Core_0_L1I_total_miss 113
Core_0_L1I_total_MPKI 0.00113
Core_0_L1I_total_miss_rate 1.07093e-05
Core_0_L1I_demand_access 10551577
Core_0_L1I_demand_hit 10551464
Core_0_L1I_demand_miss 113
Core_0_L1I_demand_MPKI 0.00113
Core_0_L1I_demand_miss_rate 1.07093e-05
Core_0_L1I_load_access 10551577
Core_0_L1I_load_hit 10551464
Core_0_L1I_load_miss 113
Core_0_L1I_load_MPKI 0.00113
Core_0_L1I_load_miss_rate 1.07093e-05
Core_0_L1I_rfo_access 0
Core_0_L1I_rfo_hit 0
Core_0_L1I_rfo_miss 0
Core_0_L1I_rfo_MPKI 0
Core_0_L1I_rfo_miss_rate 0
Core_0_L1I_prefetch_access 0
Core_0_L1I_prefetch_hit 0
Core_0_L1I_prefetch_miss 0
Core_0_L1I_prefetch_MPKI 0
Core_0_L1I_prefetch_miss_rate 0
Core_0_L1I_writeback_access 0
Core_0_L1I_writeback_hit 0
Core_0_L1I_writeback_miss 0
Core_0_L1I_writeback_MPKI 0
Core_0_L1I_writeback_miss_rate 0
Core_0_L1I_prefetch_requested 0
Core_0_L1I_prefetch_issued 0
Core_0_L1I_prefetch_useful 0
Core_0_L1I_prefetch_useless 0
Core_0_L1I_prefetch_late 0
Core_0_L1I_prefetch_accuracy 0
Core_0_L1I_prefetch_coverage 0
Core_0_L1I_total_eviction 0

Core_0_L1D_total_access 41186112
Core_0_L1D_total_hit 36477300
Core_0_L1D_total_miss 4708812
Core_0_L1D_total_MPKI 47.0881
Core_0_L1D_total_miss_rate 0.11433
Core_0_L1D_demand_access 20090759
Core_0_L1D_demand_hit 18927781
Core_0_L1D_demand_miss 1162978
Core_0_L1D_demand_MPKI 11.6298
Core_0_L1D_demand_miss_rate 0.0578862
Core_0_L1D_load_access 20090759
Core_0_L1D_load_hit 18927781
Core_0_L1D_load_miss 1162978
Core_0_L1D_load_MPKI 11.6298
Core_0_L1D_load_miss_rate 0.0578862
Core_0_L1D_rfo_access 0
Core_0_L1D_rfo_hit 0
Core_0_L1D_rfo_miss 0
Core_0_L1D_rfo_MPKI 0
Core_0_L1D_rfo_miss_rate 0
Core_0_L1D_prefetch_access 18397698
Core_0_L1D_prefetch_hit 14851893
Core_0_L1D_prefetch_miss 3545805
Core_0_L1D_prefetch_MPKI 35.4581
Core_0_L1D_prefetch_miss_rate 0.192731
Core_0_L1D_writeback_access 2697655
Core_0_L1D_writeback_hit 2697626
Core_0_L1D_writeback_miss 29
Core_0_L1D_writeback_MPKI 0.00029
Core_0_L1D_writeback_miss_rate 1.07501e-05
Core_0_L1D_prefetch_requested 85892079
Core_0_L1D_prefetch_issued 18397698
Core_0_L1D_prefetch_useful 903351
Core_0_L1D_prefetch_useless 282638
Core_0_L1D_prefetch_late 88748
Core_0_L1D_prefetch_accuracy 0.0491013
Core_0_L1D_prefetch_coverage 0.437177
Core_0_L1D_total_eviction 2177095

Core_0_L2C_total_access 6486674
Core_0_L2C_total_hit 1669390
Core_0_L2C_total_miss 4817284
Core_0_L2C_total_MPKI 48.1728
Core_0_L2C_total_miss_rate 0.742643
Core_0_L2C_demand_access 991224
Core_0_L2C_demand_hit 365238
Core_0_L2C_demand_miss 625986
Core_0_L2C_demand_MPKI 6.25986
Core_0_L2C_demand_miss_rate 0.631528
Core_0_L2C_load_access 991210
Core_0_L2C_load_hit 365238
Core_0_L2C_load_miss 625972
Core_0_L2C_load_MPKI 6.25972
Core_0_L2C_load_miss_rate 0.631523
Core_0_L2C_rfo_access 14
Core_0_L2C_rfo_hit 0
Core_0_L2C_rfo_miss 14
Core_0_L2C_rfo_MPKI 0.00014
Core_0_L2C_rfo_miss_rate 1
Core_0_L2C_prefetch_access 5279855
Core_0_L2C_prefetch_hit 1088822
Core_0_L2C_prefetch_miss 4191033
Core_0_L2C_prefetch_MPKI 41.9103
Core_0_L2C_prefetch_miss_rate 0.793778
Core_0_L2C_writeback_access 215595
Core_0_L2C_writeback_hit 215330
Core_0_L2C_writeback_miss 265
Core_0_L2C_writeback_MPKI 0.00265
Core_0_L2C_writeback_miss_rate 0.00122916
Core_0_L2C_prefetch_requested 1764665
Core_0_L2C_prefetch_issued 1758351
Core_0_L2C_prefetch_useful 307262
Core_0_L2C_prefetch_useless 258656
Core_0_L2C_prefetch_late 62278
Core_0_L2C_prefetch_accuracy 0.174744
Core_0_L2C_prefetch_coverage 0.329239
Core_0_L2C_total_eviction 2874919

Core_0_LLC_total_access 3329279
Core_0_LLC_total_hit 193872
Core_0_LLC_total_miss 3135407
Core_0_LLC_total_MPKI 31.3541
Core_0_LLC_total_miss_rate 0.941768
Core_0_LLC_demand_access 469573
Core_0_LLC_demand_hit 19229
Core_0_LLC_demand_miss 450344
Core_0_LLC_demand_MPKI 4.50344
Core_0_LLC_demand_miss_rate 0.95905
Core_0_LLC_load_access 469559
Core_0_LLC_load_hit 19229
Core_0_LLC_load_miss 450330
Core_0_LLC_load_MPKI 4.5033
Core_0_LLC_load_miss_rate 0.959049
Core_0_LLC_rfo_access 14
Core_0_LLC_rfo_hit 0
Core_0_LLC_rfo_miss 14
Core_0_LLC_rfo_MPKI 0.00014
Core_0_LLC_rfo_miss_rate 1
Core_0_LLC_prefetch_access 2650526
Core_0_LLC_prefetch_hit 58613
Core_0_LLC_prefetch_miss 2591913
Core_0_LLC_prefetch_MPKI 25.9191
Core_0_LLC_prefetch_miss_rate 0.977886
Core_0_LLC_writeback_access 209180
Core_0_LLC_writeback_hit 116030
Core_0_LLC_writeback_miss 93150
Core_0_LLC_writeback_MPKI 0.9315
Core_0_LLC_writeback_miss_rate 0.44531
Core_0_LLC_prefetch_requested 0
Core_0_LLC_prefetch_issued 0
Core_0_LLC_prefetch_useful 0
Core_0_LLC_prefetch_useless 0
Core_0_LLC_prefetch_late 0
Core_0_LLC_prefetch_accuracy 0
Core_0_LLC_prefetch_coverage 0
Core_0_LLC_total_eviction 2990826

[DRAM Statistics]
Channel_0_RQ_row_buffer_hit 487574
Channel_0_RQ_row_buffer_miss 2410085
Channel_0_WQ_row_buffer_hit 23833
Channel_0_WQ_row_buffer_miss 168441
Channel_0_WQ_full 0
Channel_0_dbus_congested 7307191
DRAM_total_RQ_row_buffer_hit 487574
DRAM_total_RQ_row_buffer_miss 2410085
DRAM_total_WQ_row_buffer_hit 23833
DRAM_total_WQ_row_buffer_miss 168441
DRAM_total_WQ_full 0
DRAM_total_dbus_congested 7307191
DRAM_avg_congested_cycle 5.85006

======STLB miss causes ========
Core_0_STLB_miss_cause_breakdown
Core_0_STLB_cause_Demand_Data_miss 0
Core_0_STLB_cause_Demand_Data_miss_rate 0
Core_0_STLB_cause_Demand_Instruction_miss 0
Core_0_STLB_cause_Demand_Instruction_miss_rate 0
Core_0_STLB_cause_L1D_Prefetch_miss 0
Core_0_STLB_cause_L1D_Prefetch_miss_rate 0
Core_0_STLB_cause_L1I_Prefetch_miss 0
Core_0_STLB_cause_L1I_Prefetch_miss_rate 0
Core_0_STLB_cause_Other_miss 0
Core_0_STLB_cause_Other_miss_rate 0
Core_0_STLB_Demand_miss 0
Core_0_STLB_Demand_miss_rate 0
Core_0_STLB_L1D_Prefetch_miss 0
Core_0_STLB_L1D_Prefetch_miss_rate 0
Core_0_STLB_Other_miss 0
Core_0_STLB_Other_miss_rate 0
BERTI TO_L1: 96794445 TO_L2: 23132507 TO_L2_BC_MSHR: 3820123
BERTI AVG_LAT: 119.639 NUM_TRACK_LATENCY: 3424436 NUM_CANT_TRACK_LATENCY: 21
BERTI CROSS_PAGE 18840800 NO_CROSS_PAGE: 101086152
BERTI FOUND_BERTI: 20727542 NO_FOUND_BERTI: 11976964
BERTI AVERAGE_ISSUED: 3.12615
