[VMEM] WARNING: physical memory size is smaller than virtual memory size.

*** ChampSim Multicore Out-of-Order Simulator ***
Warmup Instructions: 50000000
Simulation Instructions: 100000000
Number of CPUs: 1
Page size: 4096
STLB ideal mode: all
STLB ideal fill: on
Core 0: /data2/zcq/champsim_traces_gap/cc.web-99B.champsimtrace.xz
VBerti Prefetcher
BERTI HASH ENTANGLING
BERTI IP MASK ffff
Off-chip DRAM Size: 16 GiB Channels: 1 Width: 64-bit Data Rate: 3205 MT/s
Warmup halting CPU 0 at instruction 50000002 cycle 10000029 for remainder of phase
Warmup finished CPU 0 instructions: 50000002 cycles: 10000029 cumulative IPC: 5 (Simulation time: 00 hr 02 min 10 sec)
Warmup complete CPU 0 instructions: 50000002 cycles: 10000029 cumulative IPC: 5 (Simulation time: 00 hr 02 min 10 sec)
Simulation finished CPU 0 instructions: 100000002 cycles: 99597508 cumulative IPC: 1.004 (Simulation time: 00 hr 15 min 00 sec)
Simulation complete CPU 0 instructions: 100000002 cycles: 99597508 cumulative IPC: 1.004 (Simulation time: 00 hr 15 min 00 sec)

ChampSim completed all CPUs

=== Simulation ===
CPU 0 runs /data2/zcq/champsim_traces_gap/cc.web-99B.champsimtrace.xz

Region of Interest Statistics

CPU 0 cumulative IPC: 1.004 instructions: 100000002 cycles: 99597508
CPU 0 Branch Prediction Accuracy: 99.03% MPKI: 1.788 Average ROB Occupancy at Mispredict: 106
Branch type MPKI
BRANCH_DIRECT_JUMP: 0
BRANCH_INDIRECT: 0
BRANCH_CONDITIONAL: 1.788
BRANCH_DIRECT_CALL: 0
BRANCH_INDIRECT_CALL: 0
BRANCH_RETURN: 0

cpu0->cpu0_STLB TOTAL        ACCESS:     147263 HIT:     147263 MISS:          0 MSHR_MERGE:          0
cpu0->cpu0_STLB LOAD         ACCESS:     147263 HIT:     147263 MISS:          0 MSHR_MERGE:          0
cpu0->cpu0_STLB RFO          ACCESS:          0 HIT:          0 MISS:          0 MSHR_MERGE:          0
cpu0->cpu0_STLB PREFETCH     ACCESS:          0 HIT:          0 MISS:          0 MSHR_MERGE:          0
cpu0->cpu0_STLB WRITE        ACCESS:          0 HIT:          0 MISS:          0 MSHR_MERGE:          0
cpu0->cpu0_STLB TRANSLATION  ACCESS:          0 HIT:          0 MISS:          0 MSHR_MERGE:          0
cpu0->cpu0_STLB PREFETCH REQUESTED:          0 ISSUED:          0 USEFUL:          0 USELESS:          0 LATE:          0
cpu0->cpu0_STLB AVERAGE MISS LATENCY: - cycles
cpu0->cpu0_L2C TOTAL        ACCESS:    9094331 HIT:    2027035 MISS:    7067296 MSHR_MERGE:    2397083
cpu0->cpu0_L2C LOAD         ACCESS:    1542288 HIT:     546157 MISS:     996131 MSHR_MERGE:     279738
cpu0->cpu0_L2C RFO          ACCESS:          0 HIT:          0 MISS:          0 MSHR_MERGE:          0
cpu0->cpu0_L2C PREFETCH     ACCESS:    7368697 HIT:    1297770 MISS:    6070927 MSHR_MERGE:    2117345
cpu0->cpu0_L2C WRITE        ACCESS:     183346 HIT:     183108 MISS:        238 MSHR_MERGE:          0
cpu0->cpu0_L2C TRANSLATION  ACCESS:          0 HIT:          0 MISS:          0 MSHR_MERGE:          0
cpu0->cpu0_L2C PREFETCH REQUESTED:    2405457 ISSUED:    2403103 USEFUL:     336557 USELESS:     417813 LATE:     121143
cpu0->cpu0_L2C AVERAGE MISS LATENCY: 206.1 cycles
cpu0->cpu0_L1I TOTAL        ACCESS:   12699098 HIT:   12699098 MISS:          0 MSHR_MERGE:          0
cpu0->cpu0_L1I LOAD         ACCESS:   12699098 HIT:   12699098 MISS:          0 MSHR_MERGE:          0
cpu0->cpu0_L1I RFO          ACCESS:          0 HIT:          0 MISS:          0 MSHR_MERGE:          0
cpu0->cpu0_L1I PREFETCH     ACCESS:          0 HIT:          0 MISS:          0 MSHR_MERGE:          0
cpu0->cpu0_L1I WRITE        ACCESS:          0 HIT:          0 MISS:          0 MSHR_MERGE:          0
cpu0->cpu0_L1I TRANSLATION  ACCESS:          0 HIT:          0 MISS:          0 MSHR_MERGE:          0
cpu0->cpu0_L1I PREFETCH REQUESTED:          0 ISSUED:          0 USEFUL:          0 USELESS:          0 LATE:          0
cpu0->cpu0_L1I AVERAGE MISS LATENCY: - cycles
cpu0->cpu0_L1D TOTAL        ACCESS:   44275235 HIT:   37525891 MISS:    6749344 MSHR_MERGE:     226753
cpu0->cpu0_L1D LOAD         ACCESS:   22192743 HIT:   20439949 MISS:    1752794 MSHR_MERGE:     210506
cpu0->cpu0_L1D RFO          ACCESS:          0 HIT:          0 MISS:          0 MSHR_MERGE:          0
cpu0->cpu0_L1D PREFETCH     ACCESS:   19616624 HIT:   14620074 MISS:    4996550 MSHR_MERGE:      16247
cpu0->cpu0_L1D WRITE        ACCESS:    2465868 HIT:    2465868 MISS:          0 MSHR_MERGE:          0
cpu0->cpu0_L1D TRANSLATION  ACCESS:          0 HIT:          0 MISS:          0 MSHR_MERGE:          0
cpu0->cpu0_L1D PREFETCH REQUESTED:   84466322 ISSUED:   19616624 USEFUL:    1170798 USELESS:     410150 LATE:     150980
cpu0->cpu0_L1D AVERAGE MISS LATENCY: 139.9 cycles
cpu0->cpu0_ITLB TOTAL        ACCESS:   10768770 HIT:   10768770 MISS:          0 MSHR_MERGE:          0
cpu0->cpu0_ITLB LOAD         ACCESS:   10768770 HIT:   10768770 MISS:          0 MSHR_MERGE:          0
cpu0->cpu0_ITLB RFO          ACCESS:          0 HIT:          0 MISS:          0 MSHR_MERGE:          0
cpu0->cpu0_ITLB PREFETCH     ACCESS:          0 HIT:          0 MISS:          0 MSHR_MERGE:          0
cpu0->cpu0_ITLB WRITE        ACCESS:          0 HIT:          0 MISS:          0 MSHR_MERGE:          0
cpu0->cpu0_ITLB TRANSLATION  ACCESS:          0 HIT:          0 MISS:          0 MSHR_MERGE:          0
cpu0->cpu0_ITLB PREFETCH REQUESTED:          0 ISSUED:          0 USEFUL:          0 USELESS:          0 LATE:          0
cpu0->cpu0_ITLB AVERAGE MISS LATENCY: - cycles
cpu0->cpu0_DTLB TOTAL        ACCESS:   37254912 HIT:   37058878 MISS:     196034 MSHR_MERGE:      48771
cpu0->cpu0_DTLB LOAD         ACCESS:   37254912 HIT:   37058878 MISS:     196034 MSHR_MERGE:      48771
cpu0->cpu0_DTLB RFO          ACCESS:          0 HIT:          0 MISS:          0 MSHR_MERGE:          0
cpu0->cpu0_DTLB PREFETCH     ACCESS:          0 HIT:          0 MISS:          0 MSHR_MERGE:          0
cpu0->cpu0_DTLB WRITE        ACCESS:          0 HIT:          0 MISS:          0 MSHR_MERGE:          0
cpu0->cpu0_DTLB TRANSLATION  ACCESS:          0 HIT:          0 MISS:          0 MSHR_MERGE:          0
cpu0->cpu0_DTLB PREFETCH REQUESTED:          0 ISSUED:          0 USEFUL:          0 USELESS:          0 LATE:          0
cpu0->cpu0_DTLB AVERAGE MISS LATENCY: 5.001 cycles
cpu0->LLC TOTAL        ACCESS:    4848929 HIT:     171736 MISS:    4677193 MSHR_MERGE:     256845
cpu0->LLC LOAD         ACCESS:     716392 HIT:      42840 MISS:     673552 MSHR_MERGE:      18081
cpu0->LLC RFO          ACCESS:          0 HIT:          0 MISS:          0 MSHR_MERGE:          0
cpu0->LLC PREFETCH     ACCESS:    3953545 HIT:      91075 MISS:    3862470 MSHR_MERGE:     238764
cpu0->LLC WRITE        ACCESS:     178992 HIT:      37821 MISS:     141171 MSHR_MERGE:          0
cpu0->LLC TRANSLATION  ACCESS:          0 HIT:          0 MISS:          0 MSHR_MERGE:          0
cpu0->LLC PREFETCH REQUESTED:          0 ISSUED:          0 USEFUL:          0 USELESS:          0 LATE:          0
cpu0->LLC AVERAGE MISS LATENCY: 189.2 cycles

DRAM Statistics

Channel 0 RQ ROW_BUFFER_HIT:     755125
  ROW_BUFFER_MISS:    3524024
  AVG DBUS CONGESTED CYCLE: 4.3
Channel 0 WQ ROW_BUFFER_HIT:      17749
  ROW_BUFFER_MISS:     165027
  FULL:          0
Channel 0 REFRESHES ISSUED:       8300

[ROI Statistics]
[System Configuration]
num_cpus 1
cpu_freq 4000
fetch_width 6
decode_width 6
dispatch_width 6
execute_width 6
lq_width 2
sq_width 2
retire_width 6
scheduler_size 128
branch_mispredict_penalty 15
rob_size 352
lq_size 128
sq_size 72
ifetch_buffer_size 64
decode_buffer_size 32
dispatch_buffer_size 32
register_file_size 288
decode_latency 1
dispatch_latency 1
schedule_latency 1
execute_latency 1
page_size 4096
block_size 64
core_0_itlb_set 16
core_0_itlb_way 4
core_0_itlb_rq_size 16
core_0_itlb_wq_size 16
core_0_itlb_pq_size 0
core_0_itlb_mshr_size 8
core_0_itlb_hit_latency 1
core_0_itlb_fill_latency 1
core_0_itlb_max_tag_check 2
core_0_itlb_max_fill 2
core_0_dtlb_set 16
core_0_dtlb_way 4
core_0_dtlb_rq_size 16
core_0_dtlb_wq_size 16
core_0_dtlb_pq_size 0
core_0_dtlb_mshr_size 8
core_0_dtlb_hit_latency 1
core_0_dtlb_fill_latency 1
core_0_dtlb_max_tag_check 2
core_0_dtlb_max_fill 2
core_0_stlb_set 128
core_0_stlb_way 12
core_0_stlb_rq_size 32
core_0_stlb_wq_size 32
core_0_stlb_pq_size 0
core_0_stlb_mshr_size 16
core_0_stlb_hit_latency 4
core_0_stlb_fill_latency 4
core_0_stlb_max_tag_check 1
core_0_stlb_max_fill 1
core_0_l1i_set 64
core_0_l1i_way 8
core_0_l1i_rq_size 64
core_0_l1i_wq_size 64
core_0_l1i_pq_size 32
core_0_l1i_mshr_size 8
core_0_l1i_hit_latency 2
core_0_l1i_fill_latency 2
core_0_l1i_max_tag_check 2
core_0_l1i_max_fill 2
core_0_l1d_set 64
core_0_l1d_way 12
core_0_l1d_rq_size 64
core_0_l1d_wq_size 64
core_0_l1d_pq_size 8
core_0_l1d_mshr_size 16
core_0_l1d_hit_latency 2
core_0_l1d_fill_latency 3
core_0_l1d_max_tag_check 2
core_0_l1d_max_fill 2
core_0_l2c_set 1024
core_0_l2c_way 8
core_0_l2c_rq_size 32
core_0_l2c_wq_size 32
core_0_l2c_pq_size 16
core_0_l2c_mshr_size 32
core_0_l2c_hit_latency 5
core_0_l2c_fill_latency 5
core_0_l2c_max_tag_check 1
core_0_l2c_max_fill 1
llc_set 2048
llc_way 16
llc_rq_size 32
llc_wq_size 32
llc_pq_size 32
llc_mshr_size 64
llc_hit_latency 10
llc_fill_latency 10
llc_max_tag_check 1
llc_max_fill 1
dram_channels 1
dram_ranks 1
dram_bankgroups 8
dram_banks 4
dram_rows 65536
dram_columns 1024
dram_channel_width 8
dram_rq_size 64
dram_wq_size 64
dram_size 17179869184
core_0_itlb_prefetcher no
core_0_dtlb_prefetcher no
core_0_stlb_prefetcher no
core_0_l1i_prefetcher next_line
core_0_l1d_prefetcher vberti
core_0_l2c_prefetcher ip_stride
llc_prefetcher no
llc_replacement drrip

Core_0_instructions 100000002
Core_0_cycles 99597508
Core_0_IPC 1.00404
Core_0_branch_prediction_accuracy 99.0264
Core_0_branch_MPKI 1.78829
Core_0_average_ROB_occupancy_at_mispredict 106.003

Core_0_ITLB_total_access 10768770
Core_0_ITLB_total_hit 10768770
Core_0_ITLB_total_miss 0
Core_0_ITLB_total_MPKI 0
Core_0_ITLB_total_miss_rate 0
Core_0_ITLB_demand_access 10768770
Core_0_ITLB_demand_hit 10768770
Core_0_ITLB_demand_miss 0
Core_0_ITLB_demand_MPKI 0
Core_0_ITLB_demand_miss_rate 0
Core_0_ITLB_load_access 10768770
Core_0_ITLB_load_hit 10768770
Core_0_ITLB_load_miss 0
Core_0_ITLB_load_MPKI 0
Core_0_ITLB_load_miss_rate 0
Core_0_ITLB_rfo_access 0
Core_0_ITLB_rfo_hit 0
Core_0_ITLB_rfo_miss 0
Core_0_ITLB_rfo_MPKI 0
Core_0_ITLB_rfo_miss_rate 0
Core_0_ITLB_prefetch_access 0
Core_0_ITLB_prefetch_hit 0
Core_0_ITLB_prefetch_miss 0
Core_0_ITLB_prefetch_MPKI 0
Core_0_ITLB_prefetch_miss_rate 0
Core_0_ITLB_writeback_access 0
Core_0_ITLB_writeback_hit 0
Core_0_ITLB_writeback_miss 0
Core_0_ITLB_writeback_MPKI 0
Core_0_ITLB_writeback_miss_rate 0
Core_0_ITLB_prefetch_requested 0
Core_0_ITLB_prefetch_issued 0
Core_0_ITLB_prefetch_useful 0
Core_0_ITLB_prefetch_useless 0
Core_0_ITLB_prefetch_late 0
Core_0_ITLB_prefetch_accuracy 0
Core_0_ITLB_prefetch_coverage 0
Core_0_ITLB_total_eviction 0

Core_0_DTLB_total_access 37254912
Core_0_DTLB_total_hit 37058878
Core_0_DTLB_total_miss 196034
Core_0_DTLB_total_MPKI 1.96034
Core_0_DTLB_total_miss_rate 0.00526196
Core_0_DTLB_demand_access 37254912
Core_0_DTLB_demand_hit 37058878
Core_0_DTLB_demand_miss 196034
Core_0_DTLB_demand_MPKI 1.96034
Core_0_DTLB_demand_miss_rate 0.00526196
Core_0_DTLB_load_access 37254912
Core_0_DTLB_load_hit 37058878
Core_0_DTLB_load_miss 196034
Core_0_DTLB_load_MPKI 1.96034
Core_0_DTLB_load_miss_rate 0.00526196
Core_0_DTLB_rfo_access 0
Core_0_DTLB_rfo_hit 0
Core_0_DTLB_rfo_miss 0
Core_0_DTLB_rfo_MPKI 0
Core_0_DTLB_rfo_miss_rate 0
Core_0_DTLB_prefetch_access 0
Core_0_DTLB_prefetch_hit 0
Core_0_DTLB_prefetch_miss 0
Core_0_DTLB_prefetch_MPKI 0
Core_0_DTLB_prefetch_miss_rate 0
Core_0_DTLB_writeback_access 0
Core_0_DTLB_writeback_hit 0
Core_0_DTLB_writeback_miss 0
Core_0_DTLB_writeback_MPKI 0
Core_0_DTLB_writeback_miss_rate 0
Core_0_DTLB_prefetch_requested 0
Core_0_DTLB_prefetch_issued 0
Core_0_DTLB_prefetch_useful 0
Core_0_DTLB_prefetch_useless 0
Core_0_DTLB_prefetch_late 0
Core_0_DTLB_prefetch_accuracy 0
Core_0_DTLB_prefetch_coverage 0
Core_0_DTLB_total_eviction 147263

Core_0_STLB_total_access 147263
Core_0_STLB_total_hit 147263
Core_0_STLB_total_miss 0
Core_0_STLB_total_MPKI 0
Core_0_STLB_total_miss_rate 0
Core_0_STLB_demand_access 147263
Core_0_STLB_demand_hit 147263
Core_0_STLB_demand_miss 0
Core_0_STLB_demand_MPKI 0
Core_0_STLB_demand_miss_rate 0
Core_0_STLB_load_access 147263
Core_0_STLB_load_hit 147263
Core_0_STLB_load_miss 0
Core_0_STLB_load_MPKI 0
Core_0_STLB_load_miss_rate 0
Core_0_STLB_rfo_access 0
Core_0_STLB_rfo_hit 0
Core_0_STLB_rfo_miss 0
Core_0_STLB_rfo_MPKI 0
Core_0_STLB_rfo_miss_rate 0
Core_0_STLB_prefetch_access 0
Core_0_STLB_prefetch_hit 0
Core_0_STLB_prefetch_miss 0
Core_0_STLB_prefetch_MPKI 0
Core_0_STLB_prefetch_miss_rate 0
Core_0_STLB_writeback_access 0
Core_0_STLB_writeback_hit 0
Core_0_STLB_writeback_miss 0
Core_0_STLB_writeback_MPKI 0
Core_0_STLB_writeback_miss_rate 0
Core_0_STLB_prefetch_requested 0
Core_0_STLB_prefetch_issued 0
Core_0_STLB_prefetch_useful 0
Core_0_STLB_prefetch_useless 0
Core_0_STLB_prefetch_late 0
Core_0_STLB_prefetch_accuracy 0
Core_0_STLB_prefetch_coverage 0
Core_0_STLB_total_eviction 129055

Core_0_L1I_total_access 12699098
Core_0_L1I_total_hit 12699098
Core_0_L1I_total_miss 0
Core_0_L1I_total_MPKI 0
Core_0_L1I_total_miss_rate 0
Core_0_L1I_demand_access 12699098
Core_0_L1I_demand_hit 12699098
Core_0_L1I_demand_miss 0
Core_0_L1I_demand_MPKI 0
Core_0_L1I_demand_miss_rate 0
Core_0_L1I_load_access 12699098
Core_0_L1I_load_hit 12699098
Core_0_L1I_load_miss 0
Core_0_L1I_load_MPKI 0
Core_0_L1I_load_miss_rate 0
Core_0_L1I_rfo_access 0
Core_0_L1I_rfo_hit 0
Core_0_L1I_rfo_miss 0
Core_0_L1I_rfo_MPKI 0
Core_0_L1I_rfo_miss_rate 0
Core_0_L1I_prefetch_access 0
Core_0_L1I_prefetch_hit 0
Core_0_L1I_prefetch_miss 0
Core_0_L1I_prefetch_MPKI 0
Core_0_L1I_prefetch_miss_rate 0
Core_0_L1I_writeback_access 0
Core_0_L1I_writeback_hit 0
Core_0_L1I_writeback_miss 0
Core_0_L1I_writeback_MPKI 0
Core_0_L1I_writeback_miss_rate 0
Core_0_L1I_prefetch_requested 0
Core_0_L1I_prefetch_issued 0
Core_0_L1I_prefetch_useful 0
Core_0_L1I_prefetch_useless 0
Core_0_L1I_prefetch_late 0
Core_0_L1I_prefetch_accuracy 0
Core_0_L1I_prefetch_coverage 0
Core_0_L1I_total_eviction 0

Core_0_L1D_total_access 44275235
Core_0_L1D_total_hit 37525891
Core_0_L1D_total_miss 6749344
Core_0_L1D_total_MPKI 67.4934
Core_0_L1D_total_miss_rate 0.152441
Core_0_L1D_demand_access 22192743
Core_0_L1D_demand_hit 20439949
Core_0_L1D_demand_miss 1752794
Core_0_L1D_demand_MPKI 17.5279
Core_0_L1D_demand_miss_rate 0.0789805
Core_0_L1D_load_access 22192743
Core_0_L1D_load_hit 20439949
Core_0_L1D_load_miss 1752794
Core_0_L1D_load_MPKI 17.5279
Core_0_L1D_load_miss_rate 0.0789805
Core_0_L1D_rfo_access 0
Core_0_L1D_rfo_hit 0
Core_0_L1D_rfo_miss 0
Core_0_L1D_rfo_MPKI 0
Core_0_L1D_rfo_miss_rate 0
Core_0_L1D_prefetch_access 19616624
Core_0_L1D_prefetch_hit 14620074
Core_0_L1D_prefetch_miss 4996550
Core_0_L1D_prefetch_MPKI 49.9655
Core_0_L1D_prefetch_miss_rate 0.25471
Core_0_L1D_writeback_access 2465868
Core_0_L1D_writeback_hit 2465868
Core_0_L1D_writeback_miss 0
Core_0_L1D_writeback_MPKI 0
Core_0_L1D_writeback_miss_rate 0
Core_0_L1D_prefetch_requested 84466322
Core_0_L1D_prefetch_issued 19616624
Core_0_L1D_prefetch_useful 1170798
Core_0_L1D_prefetch_useless 410150
Core_0_L1D_prefetch_late 150980
Core_0_L1D_prefetch_accuracy 0.059684
Core_0_L1D_prefetch_coverage 0.400466
Core_0_L1D_total_eviction 3123320

Core_0_L2C_total_access 9094331
Core_0_L2C_total_hit 2027035
Core_0_L2C_total_miss 7067296
Core_0_L2C_total_MPKI 70.673
Core_0_L2C_total_miss_rate 0.77711
Core_0_L2C_demand_access 1542288
Core_0_L2C_demand_hit 546157
Core_0_L2C_demand_miss 996131
Core_0_L2C_demand_MPKI 9.96131
Core_0_L2C_demand_miss_rate 0.645879
Core_0_L2C_load_access 1542288
Core_0_L2C_load_hit 546157
Core_0_L2C_load_miss 996131
Core_0_L2C_load_MPKI 9.96131
Core_0_L2C_load_miss_rate 0.645879
Core_0_L2C_rfo_access 0
Core_0_L2C_rfo_hit 0
Core_0_L2C_rfo_miss 0
Core_0_L2C_rfo_MPKI 0
Core_0_L2C_rfo_miss_rate 0
Core_0_L2C_prefetch_access 7368697
Core_0_L2C_prefetch_hit 1297770
Core_0_L2C_prefetch_miss 6070927
Core_0_L2C_prefetch_MPKI 60.7093
Core_0_L2C_prefetch_miss_rate 0.823881
Core_0_L2C_writeback_access 183346
Core_0_L2C_writeback_hit 183108
Core_0_L2C_writeback_miss 238
Core_0_L2C_writeback_MPKI 0.00238
Core_0_L2C_writeback_miss_rate 0.00129809
Core_0_L2C_prefetch_requested 2405457
Core_0_L2C_prefetch_issued 2403103
Core_0_L2C_prefetch_useful 336557
Core_0_L2C_prefetch_useless 417813
Core_0_L2C_prefetch_late 121143
Core_0_L2C_prefetch_accuracy 0.140051
Core_0_L2C_prefetch_coverage 0.25254
Core_0_L2C_total_eviction 4243824

Core_0_LLC_total_access 4848929
Core_0_LLC_total_hit 171736
Core_0_LLC_total_miss 4677193
Core_0_LLC_total_MPKI 46.7719
Core_0_LLC_total_miss_rate 0.964583
Core_0_LLC_demand_access 716392
Core_0_LLC_demand_hit 42840
Core_0_LLC_demand_miss 673552
Core_0_LLC_demand_MPKI 6.73552
Core_0_LLC_demand_miss_rate 0.9402
Core_0_LLC_load_access 716392
Core_0_LLC_load_hit 42840
Core_0_LLC_load_miss 673552
Core_0_LLC_load_MPKI 6.73552
Core_0_LLC_load_miss_rate 0.9402
Core_0_LLC_rfo_access 0
Core_0_LLC_rfo_hit 0
Core_0_LLC_rfo_miss 0
Core_0_LLC_rfo_MPKI 0
Core_0_LLC_rfo_miss_rate 0
Core_0_LLC_prefetch_access 3953545
Core_0_LLC_prefetch_hit 91075
Core_0_LLC_prefetch_miss 3862470
Core_0_LLC_prefetch_MPKI 38.6247
Core_0_LLC_prefetch_miss_rate 0.976964
Core_0_LLC_writeback_access 178992
Core_0_LLC_writeback_hit 37821
Core_0_LLC_writeback_miss 141171
Core_0_LLC_writeback_MPKI 1.41171
Core_0_LLC_writeback_miss_rate 0.7887
Core_0_LLC_prefetch_requested 0
Core_0_LLC_prefetch_issued 0
Core_0_LLC_prefetch_useful 0
Core_0_LLC_prefetch_useless 0
Core_0_LLC_prefetch_late 0
Core_0_LLC_prefetch_accuracy 0
Core_0_LLC_prefetch_coverage 0
Core_0_LLC_total_eviction 4420342

[DRAM Statistics]
Channel_0_RQ_row_buffer_hit 755125
Channel_0_RQ_row_buffer_miss 3524024
Channel_0_WQ_row_buffer_hit 17749
Channel_0_WQ_row_buffer_miss 165027
Channel_0_WQ_full 0
Channel_0_dbus_congested 10253987
DRAM_total_RQ_row_buffer_hit 755125
DRAM_total_RQ_row_buffer_miss 3524024
DRAM_total_WQ_row_buffer_hit 17749
DRAM_total_WQ_row_buffer_miss 165027
DRAM_total_WQ_full 0
DRAM_total_dbus_congested 10253987
DRAM_avg_congested_cycle 4.29956

======STLB miss causes ========
Core_0_STLB_miss_cause_breakdown
Core_0_STLB_cause_Demand_Data_miss 0
Core_0_STLB_cause_Demand_Data_miss_rate 0
Core_0_STLB_cause_Demand_Instruction_miss 0
Core_0_STLB_cause_Demand_Instruction_miss_rate 0
Core_0_STLB_cause_L1D_Prefetch_miss 0
Core_0_STLB_cause_L1D_Prefetch_miss_rate 0
Core_0_STLB_cause_L1I_Prefetch_miss 0
Core_0_STLB_cause_L1I_Prefetch_miss_rate 0
Core_0_STLB_cause_Other_miss 0
Core_0_STLB_cause_Other_miss_rate 0
Core_0_STLB_Demand_miss 0
Core_0_STLB_Demand_miss_rate 0
Core_0_STLB_L1D_Prefetch_miss 0
Core_0_STLB_L1D_Prefetch_miss_rate 0
Core_0_STLB_Other_miss 0
Core_0_STLB_Other_miss_rate 0
BERTI TO_L1: 101344166 TO_L2: 24730873 TO_L2_BC_MSHR: 5733832
BERTI AVG_LAT: 131.247 NUM_TRACK_LATENCY: 4367092 NUM_CANT_TRACK_LATENCY: 504
BERTI CROSS_PAGE 19761562 NO_CROSS_PAGE: 106313477
BERTI FOUND_BERTI: 21070485 NO_FOUND_BERTI: 13705346
BERTI AVERAGE_ISSUED: 3.51322
