[VMEM] WARNING: physical memory size is smaller than virtual memory size.

*** ChampSim Multicore Out-of-Order Simulator ***
Warmup Instructions: 50000000
Simulation Instructions: 100000000
Number of CPUs: 1
Page size: 4096
STLB ideal mode: all
STLB ideal fill: on
Core 0: /data0/tzh/champsim_traces/QMM/compute_int_2_new.xz
VBerti Prefetcher
BERTI HASH ENTANGLING
BERTI IP MASK ffff
Off-chip DRAM Size: 16 GiB Channels: 1 Width: 64-bit Data Rate: 3205 MT/s
*** Reached end of trace: (0, "/data0/tzh/champsim_traces/QMM/compute_int_2_new.xz")
Warmup halting CPU 0 at instruction 50000005 cycle 10754347 for remainder of phase
Warmup finished CPU 0 instructions: 50000005 cycles: 10754347 cumulative IPC: 4.649 (Simulation time: 00 hr 03 min 02 sec)
Warmup complete CPU 0 instructions: 50000005 cycles: 10754347 cumulative IPC: 4.649 (Simulation time: 00 hr 03 min 02 sec)
*** Reached end of trace: (0, "/data0/tzh/champsim_traces/QMM/compute_int_2_new.xz")
*** Reached end of trace: (0, "/data0/tzh/champsim_traces/QMM/compute_int_2_new.xz")
*** Reached end of trace: (0, "/data0/tzh/champsim_traces/QMM/compute_int_2_new.xz")
Simulation finished CPU 0 instructions: 100000005 cycles: 690818266 cumulative IPC: 0.1448 (Simulation time: 00 hr 56 min 14 sec)
Simulation complete CPU 0 instructions: 100000005 cycles: 690818266 cumulative IPC: 0.1448 (Simulation time: 00 hr 56 min 14 sec)

ChampSim completed all CPUs

=== Simulation ===
CPU 0 runs /data0/tzh/champsim_traces/QMM/compute_int_2_new.xz

Region of Interest Statistics

CPU 0 cumulative IPC: 0.1448 instructions: 100000005 cycles: 690818266
CPU 0 Branch Prediction Accuracy: 94.27% MPKI: 11.89 Average ROB Occupancy at Mispredict: 60.78
Branch type MPKI
BRANCH_DIRECT_JUMP: 0
BRANCH_INDIRECT: 0
BRANCH_CONDITIONAL: 11.89
BRANCH_DIRECT_CALL: 0
BRANCH_INDIRECT_CALL: 0
BRANCH_RETURN: 0.00012

cpu0->cpu0_STLB TOTAL        ACCESS:    7421517 HIT:    7421517 MISS:          0 MSHR_MERGE:          0
cpu0->cpu0_STLB LOAD         ACCESS:    7421517 HIT:    7421517 MISS:          0 MSHR_MERGE:          0
cpu0->cpu0_STLB RFO          ACCESS:          0 HIT:          0 MISS:          0 MSHR_MERGE:          0
cpu0->cpu0_STLB PREFETCH     ACCESS:          0 HIT:          0 MISS:          0 MSHR_MERGE:          0
cpu0->cpu0_STLB WRITE        ACCESS:          0 HIT:          0 MISS:          0 MSHR_MERGE:          0
cpu0->cpu0_STLB TRANSLATION  ACCESS:          0 HIT:          0 MISS:          0 MSHR_MERGE:          0
cpu0->cpu0_STLB PREFETCH REQUESTED:          0 ISSUED:          0 USEFUL:          0 USELESS:          0 LATE:          0
cpu0->cpu0_STLB AVERAGE MISS LATENCY: - cycles
cpu0->cpu0_L2C TOTAL        ACCESS:   12545127 HIT:    5121713 MISS:    7423414 MSHR_MERGE:       1337
cpu0->cpu0_L2C LOAD         ACCESS:    9980394 HIT:    2694122 MISS:    7286272 MSHR_MERGE:         36
cpu0->cpu0_L2C RFO          ACCESS:     174943 HIT:      51128 MISS:     123815 MSHR_MERGE:          0
cpu0->cpu0_L2C PREFETCH     ACCESS:     147591 HIT:     134376 MISS:      13215 MSHR_MERGE:       1301
cpu0->cpu0_L2C WRITE        ACCESS:    2242199 HIT:    2242087 MISS:        112 MSHR_MERGE:          0
cpu0->cpu0_L2C TRANSLATION  ACCESS:          0 HIT:          0 MISS:          0 MSHR_MERGE:          0
cpu0->cpu0_L2C PREFETCH REQUESTED:       8864 ISSUED:       8864 USEFUL:       1061 USELESS:       1599 LATE:         24
cpu0->cpu0_L2C AVERAGE MISS LATENCY: 186.9 cycles
cpu0->cpu0_L1I TOTAL        ACCESS:    3121243 HIT:    3121111 MISS:        132 MSHR_MERGE:         46
cpu0->cpu0_L1I LOAD         ACCESS:    3121243 HIT:    3121111 MISS:        132 MSHR_MERGE:         46
cpu0->cpu0_L1I RFO          ACCESS:          0 HIT:          0 MISS:          0 MSHR_MERGE:          0
cpu0->cpu0_L1I PREFETCH     ACCESS:          0 HIT:          0 MISS:          0 MSHR_MERGE:          0
cpu0->cpu0_L1I WRITE        ACCESS:          0 HIT:          0 MISS:          0 MSHR_MERGE:          0
cpu0->cpu0_L1I TRANSLATION  ACCESS:          0 HIT:          0 MISS:          0 MSHR_MERGE:          0
cpu0->cpu0_L1I PREFETCH REQUESTED:          0 ISSUED:          0 USEFUL:          0 USELESS:          0 LATE:          0
cpu0->cpu0_L1I AVERAGE MISS LATENCY: 255 cycles
cpu0->cpu0_L1D TOTAL        ACCESS:   24757707 HIT:   11563589 MISS:   13194118 MSHR_MERGE:    2898473
cpu0->cpu0_L1D LOAD         ACCESS:   18985902 HIT:    6119911 MISS:   12865991 MSHR_MERGE:    2885651
cpu0->cpu0_L1D RFO          ACCESS:          0 HIT:          0 MISS:          0 MSHR_MERGE:          0
cpu0->cpu0_L1D PREFETCH     ACCESS:    2006309 HIT:    1864619 MISS:     141690 MSHR_MERGE:       1331
cpu0->cpu0_L1D WRITE        ACCESS:    3765496 HIT:    3579059 MISS:     186437 MSHR_MERGE:      11491
cpu0->cpu0_L1D TRANSLATION  ACCESS:          0 HIT:          0 MISS:          0 MSHR_MERGE:          0
cpu0->cpu0_L1D PREFETCH REQUESTED:    2158382 ISSUED:    2006309 USEFUL:      15343 USELESS:      13420 LATE:        327
cpu0->cpu0_L1D AVERAGE MISS LATENCY: 145.2 cycles
cpu0->cpu0_ITLB TOTAL        ACCESS:    2550804 HIT:    2550645 MISS:        159 MSHR_MERGE:         99
cpu0->cpu0_ITLB LOAD         ACCESS:    2550804 HIT:    2550645 MISS:        159 MSHR_MERGE:         99
cpu0->cpu0_ITLB RFO          ACCESS:          0 HIT:          0 MISS:          0 MSHR_MERGE:          0
cpu0->cpu0_ITLB PREFETCH     ACCESS:          0 HIT:          0 MISS:          0 MSHR_MERGE:          0
cpu0->cpu0_ITLB WRITE        ACCESS:          0 HIT:          0 MISS:          0 MSHR_MERGE:          0
cpu0->cpu0_ITLB TRANSLATION  ACCESS:          0 HIT:          0 MISS:          0 MSHR_MERGE:          0
cpu0->cpu0_ITLB PREFETCH REQUESTED:          0 ISSUED:          0 USEFUL:          0 USELESS:          0 LATE:          0
cpu0->cpu0_ITLB AVERAGE MISS LATENCY: 5 cycles
cpu0->cpu0_DTLB TOTAL        ACCESS:   23561230 HIT:   12805578 MISS:   10755652 MSHR_MERGE:    3334194
cpu0->cpu0_DTLB LOAD         ACCESS:   23561230 HIT:   12805578 MISS:   10755652 MSHR_MERGE:    3334194
cpu0->cpu0_DTLB RFO          ACCESS:          0 HIT:          0 MISS:          0 MSHR_MERGE:          0
cpu0->cpu0_DTLB PREFETCH     ACCESS:          0 HIT:          0 MISS:          0 MSHR_MERGE:          0
cpu0->cpu0_DTLB WRITE        ACCESS:          0 HIT:          0 MISS:          0 MSHR_MERGE:          0
cpu0->cpu0_DTLB TRANSLATION  ACCESS:          0 HIT:          0 MISS:          0 MSHR_MERGE:          0
cpu0->cpu0_DTLB PREFETCH REQUESTED:          0 ISSUED:          0 USEFUL:          0 USELESS:          0 LATE:          0
cpu0->cpu0_DTLB AVERAGE MISS LATENCY: 5.001 cycles
cpu0->LLC TOTAL        ACCESS:    9184402 HIT:    2594273 MISS:    6590129 MSHR_MERGE:          9
cpu0->LLC LOAD         ACCESS:    7286238 HIT:    1705327 MISS:    5580911 MSHR_MERGE:          0
cpu0->LLC RFO          ACCESS:     123815 HIT:      46300 MISS:      77515 MSHR_MERGE:          0
cpu0->LLC PREFETCH     ACCESS:      11914 HIT:       2575 MISS:       9339 MSHR_MERGE:          9
cpu0->LLC WRITE        ACCESS:    1762435 HIT:     840071 MISS:     922364 MSHR_MERGE:          0
cpu0->LLC TRANSLATION  ACCESS:          0 HIT:          0 MISS:          0 MSHR_MERGE:          0
cpu0->LLC PREFETCH REQUESTED:          0 ISSUED:          0 USEFUL:          0 USELESS:          0 LATE:          0
cpu0->LLC AVERAGE MISS LATENCY: 194 cycles

DRAM Statistics

Channel 0 RQ ROW_BUFFER_HIT:       8436
  ROW_BUFFER_MISS:    5657834
  AVG DBUS CONGESTED CYCLE: 9.728
Channel 0 WQ ROW_BUFFER_HIT:     368797
  ROW_BUFFER_MISS:     883621
  FULL:          0
Channel 0 REFRESHES ISSUED:      57568

[ROI Statistics]
[System Configuration]
num_cpus 1
cpu_freq 4000
fetch_width 6
decode_width 6
dispatch_width 6
execute_width 6
lq_width 2
sq_width 2
retire_width 6
scheduler_size 128
branch_mispredict_penalty 15
rob_size 352
lq_size 128
sq_size 72
ifetch_buffer_size 64
decode_buffer_size 32
dispatch_buffer_size 32
register_file_size 288
decode_latency 1
dispatch_latency 1
schedule_latency 1
execute_latency 1
page_size 4096
block_size 64
core_0_itlb_set 16
core_0_itlb_way 4
core_0_itlb_rq_size 16
core_0_itlb_wq_size 16
core_0_itlb_pq_size 0
core_0_itlb_mshr_size 8
core_0_itlb_hit_latency 1
core_0_itlb_fill_latency 1
core_0_itlb_max_tag_check 2
core_0_itlb_max_fill 2
core_0_dtlb_set 16
core_0_dtlb_way 4
core_0_dtlb_rq_size 16
core_0_dtlb_wq_size 16
core_0_dtlb_pq_size 0
core_0_dtlb_mshr_size 8
core_0_dtlb_hit_latency 1
core_0_dtlb_fill_latency 1
core_0_dtlb_max_tag_check 2
core_0_dtlb_max_fill 2
core_0_stlb_set 128
core_0_stlb_way 12
core_0_stlb_rq_size 32
core_0_stlb_wq_size 32
core_0_stlb_pq_size 0
core_0_stlb_mshr_size 16
core_0_stlb_hit_latency 4
core_0_stlb_fill_latency 4
core_0_stlb_max_tag_check 1
core_0_stlb_max_fill 1
core_0_l1i_set 64
core_0_l1i_way 8
core_0_l1i_rq_size 64
core_0_l1i_wq_size 64
core_0_l1i_pq_size 32
core_0_l1i_mshr_size 8
core_0_l1i_hit_latency 2
core_0_l1i_fill_latency 2
core_0_l1i_max_tag_check 2
core_0_l1i_max_fill 2
core_0_l1d_set 64
core_0_l1d_way 12
core_0_l1d_rq_size 64
core_0_l1d_wq_size 64
core_0_l1d_pq_size 8
core_0_l1d_mshr_size 16
core_0_l1d_hit_latency 2
core_0_l1d_fill_latency 3
core_0_l1d_max_tag_check 2
core_0_l1d_max_fill 2
core_0_l2c_set 1024
core_0_l2c_way 8
core_0_l2c_rq_size 32
core_0_l2c_wq_size 32
core_0_l2c_pq_size 16
core_0_l2c_mshr_size 32
core_0_l2c_hit_latency 5
core_0_l2c_fill_latency 5
core_0_l2c_max_tag_check 1
core_0_l2c_max_fill 1
llc_set 2048
llc_way 16
llc_rq_size 32
llc_wq_size 32
llc_pq_size 32
llc_mshr_size 64
llc_hit_latency 10
llc_fill_latency 10
llc_max_tag_check 1
llc_max_fill 1
dram_channels 1
dram_ranks 1
dram_bankgroups 8
dram_banks 4
dram_rows 65536
dram_columns 1024
dram_channel_width 8
dram_rq_size 64
dram_wq_size 64
dram_size 17179869184
core_0_itlb_prefetcher no
core_0_dtlb_prefetcher no
core_0_stlb_prefetcher no
core_0_l1i_prefetcher next_line
core_0_l1d_prefetcher vberti
core_0_l2c_prefetcher ip_stride
llc_prefetcher no
llc_replacement drrip

Core_0_instructions 100000005
Core_0_cycles 690818266
Core_0_IPC 0.144756
Core_0_branch_prediction_accuracy 94.2694
Core_0_branch_MPKI 11.891
Core_0_average_ROB_occupancy_at_mispredict 60.7793

Core_0_ITLB_total_access 2550804
Core_0_ITLB_total_hit 2550645
Core_0_ITLB_total_miss 159
Core_0_ITLB_total_MPKI 0.00159
Core_0_ITLB_total_miss_rate 6.23333e-05
Core_0_ITLB_demand_access 2550804
Core_0_ITLB_demand_hit 2550645
Core_0_ITLB_demand_miss 159
Core_0_ITLB_demand_MPKI 0.00159
Core_0_ITLB_demand_miss_rate 6.23333e-05
Core_0_ITLB_load_access 2550804
Core_0_ITLB_load_hit 2550645
Core_0_ITLB_load_miss 159
Core_0_ITLB_load_MPKI 0.00159
Core_0_ITLB_load_miss_rate 6.23333e-05
Core_0_ITLB_rfo_access 0
Core_0_ITLB_rfo_hit 0
Core_0_ITLB_rfo_miss 0
Core_0_ITLB_rfo_MPKI 0
Core_0_ITLB_rfo_miss_rate 0
Core_0_ITLB_prefetch_access 0
Core_0_ITLB_prefetch_hit 0
Core_0_ITLB_prefetch_miss 0
Core_0_ITLB_prefetch_MPKI 0
Core_0_ITLB_prefetch_miss_rate 0
Core_0_ITLB_writeback_access 0
Core_0_ITLB_writeback_hit 0
Core_0_ITLB_writeback_miss 0
Core_0_ITLB_writeback_MPKI 0
Core_0_ITLB_writeback_miss_rate 0
Core_0_ITLB_prefetch_requested 0
Core_0_ITLB_prefetch_issued 0
Core_0_ITLB_prefetch_useful 0
Core_0_ITLB_prefetch_useless 0
Core_0_ITLB_prefetch_late 0
Core_0_ITLB_prefetch_accuracy 0
Core_0_ITLB_prefetch_coverage 0
Core_0_ITLB_total_eviction 60

Core_0_DTLB_total_access 23561230
Core_0_DTLB_total_hit 12805578
Core_0_DTLB_total_miss 10755652
Core_0_DTLB_total_MPKI 107.557
Core_0_DTLB_total_miss_rate 0.456498
Core_0_DTLB_demand_access 23561230
Core_0_DTLB_demand_hit 12805578
Core_0_DTLB_demand_miss 10755652
Core_0_DTLB_demand_MPKI 107.557
Core_0_DTLB_demand_miss_rate 0.456498
Core_0_DTLB_load_access 23561230
Core_0_DTLB_load_hit 12805578
Core_0_DTLB_load_miss 10755652
Core_0_DTLB_load_MPKI 107.557
Core_0_DTLB_load_miss_rate 0.456498
Core_0_DTLB_rfo_access 0
Core_0_DTLB_rfo_hit 0
Core_0_DTLB_rfo_miss 0
Core_0_DTLB_rfo_MPKI 0
Core_0_DTLB_rfo_miss_rate 0
Core_0_DTLB_prefetch_access 0
Core_0_DTLB_prefetch_hit 0
Core_0_DTLB_prefetch_miss 0
Core_0_DTLB_prefetch_MPKI 0
Core_0_DTLB_prefetch_miss_rate 0
Core_0_DTLB_writeback_access 0
Core_0_DTLB_writeback_hit 0
Core_0_DTLB_writeback_miss 0
Core_0_DTLB_writeback_MPKI 0
Core_0_DTLB_writeback_miss_rate 0
Core_0_DTLB_prefetch_requested 0
Core_0_DTLB_prefetch_issued 0
Core_0_DTLB_prefetch_useful 0
Core_0_DTLB_prefetch_useless 0
Core_0_DTLB_prefetch_late 0
Core_0_DTLB_prefetch_accuracy 0
Core_0_DTLB_prefetch_coverage 0
Core_0_DTLB_total_eviction 7421457

Core_0_STLB_total_access 7421517
Core_0_STLB_total_hit 7421517
Core_0_STLB_total_miss 0
Core_0_STLB_total_MPKI 0
Core_0_STLB_total_miss_rate 0
Core_0_STLB_demand_access 7421517
Core_0_STLB_demand_hit 7421517
Core_0_STLB_demand_miss 0
Core_0_STLB_demand_MPKI 0
Core_0_STLB_demand_miss_rate 0
Core_0_STLB_load_access 7421517
Core_0_STLB_load_hit 7421517
Core_0_STLB_load_miss 0
Core_0_STLB_load_MPKI 0
Core_0_STLB_load_miss_rate 0
Core_0_STLB_rfo_access 0
Core_0_STLB_rfo_hit 0
Core_0_STLB_rfo_miss 0
Core_0_STLB_rfo_MPKI 0
Core_0_STLB_rfo_miss_rate 0
Core_0_STLB_prefetch_access 0
Core_0_STLB_prefetch_hit 0
Core_0_STLB_prefetch_miss 0
Core_0_STLB_prefetch_MPKI 0
Core_0_STLB_prefetch_miss_rate 0
Core_0_STLB_writeback_access 0
Core_0_STLB_writeback_hit 0
Core_0_STLB_writeback_miss 0
Core_0_STLB_writeback_MPKI 0
Core_0_STLB_writeback_miss_rate 0
Core_0_STLB_prefetch_requested 0
Core_0_STLB_prefetch_issued 0
Core_0_STLB_prefetch_useful 0
Core_0_STLB_prefetch_useless 0
Core_0_STLB_prefetch_late 0
Core_0_STLB_prefetch_accuracy 0
Core_0_STLB_prefetch_coverage 0
Core_0_STLB_total_eviction 945081

Core_0_L1I_total_access 3121243
Core_0_L1I_total_hit 3121111
Core_0_L1I_total_miss 132
Core_0_L1I_total_MPKI 0.00132
Core_0_L1I_total_miss_rate 4.22908e-05
Core_0_L1I_demand_access 3121243
Core_0_L1I_demand_hit 3121111
Core_0_L1I_demand_miss 132
Core_0_L1I_demand_MPKI 0.00132
Core_0_L1I_demand_miss_rate 4.22908e-05
Core_0_L1I_load_access 3121243
Core_0_L1I_load_hit 3121111
Core_0_L1I_load_miss 132
Core_0_L1I_load_MPKI 0.00132
Core_0_L1I_load_miss_rate 4.22908e-05
Core_0_L1I_rfo_access 0
Core_0_L1I_rfo_hit 0
Core_0_L1I_rfo_miss 0
Core_0_L1I_rfo_MPKI 0
Core_0_L1I_rfo_miss_rate 0
Core_0_L1I_prefetch_access 0
Core_0_L1I_prefetch_hit 0
Core_0_L1I_prefetch_miss 0
Core_0_L1I_prefetch_MPKI 0
Core_0_L1I_prefetch_miss_rate 0
Core_0_L1I_writeback_access 0
Core_0_L1I_writeback_hit 0
Core_0_L1I_writeback_miss 0
Core_0_L1I_writeback_MPKI 0
Core_0_L1I_writeback_miss_rate 0
Core_0_L1I_prefetch_requested 0
Core_0_L1I_prefetch_issued 0
Core_0_L1I_prefetch_useful 0
Core_0_L1I_prefetch_useless 0
Core_0_L1I_prefetch_late 0
Core_0_L1I_prefetch_accuracy 0
Core_0_L1I_prefetch_coverage 0
Core_0_L1I_total_eviction 86

Core_0_L1D_total_access 24757707
Core_0_L1D_total_hit 11563589
Core_0_L1D_total_miss 13194118
Core_0_L1D_total_MPKI 131.941
Core_0_L1D_total_miss_rate 0.53293
Core_0_L1D_demand_access 18985902
Core_0_L1D_demand_hit 6119911
Core_0_L1D_demand_miss 12865991
Core_0_L1D_demand_MPKI 128.66
Core_0_L1D_demand_miss_rate 0.67766
Core_0_L1D_load_access 18985902
Core_0_L1D_load_hit 6119911
Core_0_L1D_load_miss 12865991
Core_0_L1D_load_MPKI 128.66
Core_0_L1D_load_miss_rate 0.67766
Core_0_L1D_rfo_access 0
Core_0_L1D_rfo_hit 0
Core_0_L1D_rfo_miss 0
Core_0_L1D_rfo_MPKI 0
Core_0_L1D_rfo_miss_rate 0
Core_0_L1D_prefetch_access 2006309
Core_0_L1D_prefetch_hit 1864619
Core_0_L1D_prefetch_miss 141690
Core_0_L1D_prefetch_MPKI 1.4169
Core_0_L1D_prefetch_miss_rate 0.0706222
Core_0_L1D_writeback_access 3765496
Core_0_L1D_writeback_hit 3579059
Core_0_L1D_writeback_miss 186437
Core_0_L1D_writeback_MPKI 1.86437
Core_0_L1D_writeback_miss_rate 0.0495119
Core_0_L1D_prefetch_requested 2158382
Core_0_L1D_prefetch_issued 2006309
Core_0_L1D_prefetch_useful 15343
Core_0_L1D_prefetch_useless 13420
Core_0_L1D_prefetch_late 327
Core_0_L1D_prefetch_accuracy 0.00764738
Core_0_L1D_prefetch_coverage 0.0011911
Core_0_L1D_total_eviction 10184059

Core_0_L2C_total_access 12545127
Core_0_L2C_total_hit 5121713
Core_0_L2C_total_miss 7423414
Core_0_L2C_total_MPKI 74.2341
Core_0_L2C_total_miss_rate 0.591737
Core_0_L2C_demand_access 10155337
Core_0_L2C_demand_hit 2745250
Core_0_L2C_demand_miss 7410087
Core_0_L2C_demand_MPKI 74.1009
Core_0_L2C_demand_miss_rate 0.729674
Core_0_L2C_load_access 9980394
Core_0_L2C_load_hit 2694122
Core_0_L2C_load_miss 7286272
Core_0_L2C_load_MPKI 72.8627
Core_0_L2C_load_miss_rate 0.730059
Core_0_L2C_rfo_access 174943
Core_0_L2C_rfo_hit 51128
Core_0_L2C_rfo_miss 123815
Core_0_L2C_rfo_MPKI 1.23815
Core_0_L2C_rfo_miss_rate 0.707745
Core_0_L2C_prefetch_access 147591
Core_0_L2C_prefetch_hit 134376
Core_0_L2C_prefetch_miss 13215
Core_0_L2C_prefetch_MPKI 0.13215
Core_0_L2C_prefetch_miss_rate 0.089538
Core_0_L2C_writeback_access 2242199
Core_0_L2C_writeback_hit 2242087
Core_0_L2C_writeback_miss 112
Core_0_L2C_writeback_MPKI 0.00112
Core_0_L2C_writeback_miss_rate 4.9951e-05
Core_0_L2C_prefetch_requested 8864
Core_0_L2C_prefetch_issued 8864
Core_0_L2C_prefetch_useful 1061
Core_0_L2C_prefetch_useless 1599
Core_0_L2C_prefetch_late 24
Core_0_L2C_prefetch_accuracy 0.119698
Core_0_L2C_prefetch_coverage 0.000143163
Core_0_L2C_total_eviction 7422030

Core_0_LLC_total_access 9184402
Core_0_LLC_total_hit 2594273
Core_0_LLC_total_miss 6590129
Core_0_LLC_total_MPKI 65.9013
Core_0_LLC_total_miss_rate 0.717535
Core_0_LLC_demand_access 7410053
Core_0_LLC_demand_hit 1751627
Core_0_LLC_demand_miss 5658426
Core_0_LLC_demand_MPKI 56.5843
Core_0_LLC_demand_miss_rate 0.763615
Core_0_LLC_load_access 7286238
Core_0_LLC_load_hit 1705327
Core_0_LLC_load_miss 5580911
Core_0_LLC_load_MPKI 55.8091
Core_0_LLC_load_miss_rate 0.765952
Core_0_LLC_rfo_access 123815
Core_0_LLC_rfo_hit 46300
Core_0_LLC_rfo_miss 77515
Core_0_LLC_rfo_MPKI 0.77515
Core_0_LLC_rfo_miss_rate 0.626055
Core_0_LLC_prefetch_access 11914
Core_0_LLC_prefetch_hit 2575
Core_0_LLC_prefetch_miss 9339
Core_0_LLC_prefetch_MPKI 0.09339
Core_0_LLC_prefetch_miss_rate 0.783868
Core_0_LLC_writeback_access 1762435
Core_0_LLC_writeback_hit 840071
Core_0_LLC_writeback_miss 922364
Core_0_LLC_writeback_MPKI 9.22364
Core_0_LLC_writeback_miss_rate 0.523346
Core_0_LLC_prefetch_requested 0
Core_0_LLC_prefetch_issued 0
Core_0_LLC_prefetch_useful 0
Core_0_LLC_prefetch_useless 0
Core_0_LLC_prefetch_late 0
Core_0_LLC_prefetch_accuracy 0
Core_0_LLC_prefetch_coverage 0
Core_0_LLC_total_eviction 6590121

[DRAM Statistics]
Channel_0_RQ_row_buffer_hit 8436
Channel_0_RQ_row_buffer_miss 5657834
Channel_0_WQ_row_buffer_hit 368797
Channel_0_WQ_row_buffer_miss 883621
Channel_0_WQ_full 0
Channel_0_dbus_congested 18219315
DRAM_total_RQ_row_buffer_hit 8436
DRAM_total_RQ_row_buffer_miss 5657834
DRAM_total_WQ_row_buffer_hit 368797
DRAM_total_WQ_row_buffer_miss 883621
DRAM_total_WQ_full 0
DRAM_total_dbus_congested 18219315
DRAM_avg_congested_cycle 9.72831

======STLB miss causes ========
Core_0_STLB_miss_cause_breakdown
Core_0_STLB_cause_Demand_Data_miss 0
Core_0_STLB_cause_Demand_Data_miss_rate 0
Core_0_STLB_cause_Demand_Instruction_miss 0
Core_0_STLB_cause_Demand_Instruction_miss_rate 0
Core_0_STLB_cause_L1D_Prefetch_miss 0
Core_0_STLB_cause_L1D_Prefetch_miss_rate 0
Core_0_STLB_cause_L1I_Prefetch_miss 0
Core_0_STLB_cause_L1I_Prefetch_miss_rate 0
Core_0_STLB_cause_Other_miss 0
Core_0_STLB_cause_Other_miss_rate 0
Core_0_STLB_Demand_miss 0
Core_0_STLB_Demand_miss_rate 0
Core_0_STLB_L1D_Prefetch_miss 0
Core_0_STLB_L1D_Prefetch_miss_rate 0
Core_0_STLB_Other_miss 0
Core_0_STLB_Other_miss_rate 0
BERTI TO_L1: 1697593 TO_L2: 1157313 TO_L2_BC_MSHR: 182
BERTI AVG_LAT: 93.3862 NUM_TRACK_LATENCY: 15267960 NUM_CANT_TRACK_LATENCY: 0
BERTI CROSS_PAGE 10203 NO_CROSS_PAGE: 2844703
BERTI FOUND_BERTI: 24775874 NO_FOUND_BERTI: 7739557
BERTI AVERAGE_ISSUED: 1.57813
