[VMEM] WARNING: physical memory size is smaller than virtual memory size.

*** ChampSim Multicore Out-of-Order Simulator ***
Warmup Instructions: 50000000
Simulation Instructions: 100000000
Number of CPUs: 1
Page size: 4096
STLB ideal mode: all
STLB ideal fill: on
Core 0: /data0/tzh/champsim_traces/QMM/compute_fp_5_new.xz
VBerti Prefetcher
BERTI HASH ENTANGLING
BERTI IP MASK ffff
Off-chip DRAM Size: 16 GiB Channels: 1 Width: 64-bit Data Rate: 3205 MT/s
*** Reached end of trace: (0, "/data0/tzh/champsim_traces/QMM/compute_fp_5_new.xz")
[BTB] WARNING: target of return is a lower address than the corresponding call. This is usually a problem with your trace.
Warmup halting CPU 0 at instruction 50000002 cycle 10374610 for remainder of phase
Warmup finished CPU 0 instructions: 50000002 cycles: 10374610 cumulative IPC: 4.819 (Simulation time: 00 hr 02 min 15 sec)
Warmup complete CPU 0 instructions: 50000002 cycles: 10374610 cumulative IPC: 4.819 (Simulation time: 00 hr 02 min 15 sec)
*** Reached end of trace: (0, "/data0/tzh/champsim_traces/QMM/compute_fp_5_new.xz")
[BTB] WARNING: target of return is a lower address than the corresponding call. This is usually a problem with your trace.
*** Reached end of trace: (0, "/data0/tzh/champsim_traces/QMM/compute_fp_5_new.xz")
[BTB] WARNING: target of return is a lower address than the corresponding call. This is usually a problem with your trace.
*** Reached end of trace: (0, "/data0/tzh/champsim_traces/QMM/compute_fp_5_new.xz")
[BTB] WARNING: target of return is a lower address than the corresponding call. This is usually a problem with your trace.
Simulation finished CPU 0 instructions: 100000005 cycles: 105407668 cumulative IPC: 0.9487 (Simulation time: 00 hr 17 min 06 sec)
Simulation complete CPU 0 instructions: 100000005 cycles: 105407668 cumulative IPC: 0.9487 (Simulation time: 00 hr 17 min 06 sec)

ChampSim completed all CPUs

=== Simulation ===
CPU 0 runs /data0/tzh/champsim_traces/QMM/compute_fp_5_new.xz

Region of Interest Statistics

CPU 0 cumulative IPC: 0.9487 instructions: 100000005 cycles: 105407668
CPU 0 Branch Prediction Accuracy: 100% MPKI: 0.0003 Average ROB Occupancy at Mispredict: 327.8
Branch type MPKI
BRANCH_DIRECT_JUMP: 0
BRANCH_INDIRECT: 0
BRANCH_CONDITIONAL: 0.00027
BRANCH_DIRECT_CALL: 0
BRANCH_INDIRECT_CALL: 0
BRANCH_RETURN: 3e-05

cpu0->cpu0_STLB TOTAL        ACCESS:     982027 HIT:     982027 MISS:          0 MSHR_MERGE:          0
cpu0->cpu0_STLB LOAD         ACCESS:     982027 HIT:     982027 MISS:          0 MSHR_MERGE:          0
cpu0->cpu0_STLB RFO          ACCESS:          0 HIT:          0 MISS:          0 MSHR_MERGE:          0
cpu0->cpu0_STLB PREFETCH     ACCESS:          0 HIT:          0 MISS:          0 MSHR_MERGE:          0
cpu0->cpu0_STLB WRITE        ACCESS:          0 HIT:          0 MISS:          0 MSHR_MERGE:          0
cpu0->cpu0_STLB TRANSLATION  ACCESS:          0 HIT:          0 MISS:          0 MSHR_MERGE:          0
cpu0->cpu0_STLB PREFETCH REQUESTED:          0 ISSUED:          0 USEFUL:          0 USELESS:          0 LATE:          0
cpu0->cpu0_STLB AVERAGE MISS LATENCY: - cycles
cpu0->cpu0_L2C TOTAL        ACCESS:    7355726 HIT:    3057659 MISS:    4298067 MSHR_MERGE:     852556
cpu0->cpu0_L2C LOAD         ACCESS:    2399665 HIT:    1521528 MISS:     878137 MSHR_MERGE:      16281
cpu0->cpu0_L2C RFO          ACCESS:     164570 HIT:      36006 MISS:     128564 MSHR_MERGE:      32088
cpu0->cpu0_L2C PREFETCH     ACCESS:    4193473 HIT:     902123 MISS:    3291350 MSHR_MERGE:     804187
cpu0->cpu0_L2C WRITE        ACCESS:     598018 HIT:     598002 MISS:         16 MSHR_MERGE:          0
cpu0->cpu0_L2C TRANSLATION  ACCESS:          0 HIT:          0 MISS:          0 MSHR_MERGE:          0
cpu0->cpu0_L2C PREFETCH REQUESTED:     735011 ISSUED:     734942 USEFUL:     227885 USELESS:      51835 LATE:      16658
cpu0->cpu0_L2C AVERAGE MISS LATENCY: 305.3 cycles
cpu0->cpu0_L1I TOTAL        ACCESS:   14696369 HIT:   14696292 MISS:         77 MSHR_MERGE:         28
cpu0->cpu0_L1I LOAD         ACCESS:   14696369 HIT:   14696292 MISS:         77 MSHR_MERGE:         28
cpu0->cpu0_L1I RFO          ACCESS:          0 HIT:          0 MISS:          0 MSHR_MERGE:          0
cpu0->cpu0_L1I PREFETCH     ACCESS:          0 HIT:          0 MISS:          0 MSHR_MERGE:          0
cpu0->cpu0_L1I WRITE        ACCESS:          0 HIT:          0 MISS:          0 MSHR_MERGE:          0
cpu0->cpu0_L1I TRANSLATION  ACCESS:          0 HIT:          0 MISS:          0 MSHR_MERGE:          0
cpu0->cpu0_L1I PREFETCH REQUESTED:          0 ISSUED:          0 USEFUL:          0 USELESS:          0 LATE:          0
cpu0->cpu0_L1I AVERAGE MISS LATENCY: 242.9 cycles
cpu0->cpu0_L1D TOTAL        ACCESS:   22856592 HIT:   13685994 MISS:    9170598 MSHR_MERGE:    3051832
cpu0->cpu0_L1D LOAD         ACCESS:    9983815 HIT:    6080950 MISS:    3902865 MSHR_MERGE:    1503249
cpu0->cpu0_L1D RFO          ACCESS:          0 HIT:          0 MISS:          0 MSHR_MERGE:          0
cpu0->cpu0_L1D PREFETCH     ACCESS:    4939301 HIT:    1348932 MISS:    3590369 MSHR_MERGE:      35907
cpu0->cpu0_L1D WRITE        ACCESS:    7933476 HIT:    6256112 MISS:    1677364 MSHR_MERGE:    1512676
cpu0->cpu0_L1D TRANSLATION  ACCESS:          0 HIT:          0 MISS:          0 MSHR_MERGE:          0
cpu0->cpu0_L1D PREFETCH REQUESTED:   38551721 ISSUED:    4939297 USEFUL:    1598945 USELESS:      26884 LATE:      90703
cpu0->cpu0_L1D AVERAGE MISS LATENCY: 135.5 cycles
cpu0->cpu0_ITLB TOTAL        ACCESS:   13403460 HIT:   13403237 MISS:        223 MSHR_MERGE:        133
cpu0->cpu0_ITLB LOAD         ACCESS:   13403460 HIT:   13403237 MISS:        223 MSHR_MERGE:        133
cpu0->cpu0_ITLB RFO          ACCESS:          0 HIT:          0 MISS:          0 MSHR_MERGE:          0
cpu0->cpu0_ITLB PREFETCH     ACCESS:          0 HIT:          0 MISS:          0 MSHR_MERGE:          0
cpu0->cpu0_ITLB WRITE        ACCESS:          0 HIT:          0 MISS:          0 MSHR_MERGE:          0
cpu0->cpu0_ITLB TRANSLATION  ACCESS:          0 HIT:          0 MISS:          0 MSHR_MERGE:          0
cpu0->cpu0_ITLB PREFETCH REQUESTED:          0 ISSUED:          0 USEFUL:          0 USELESS:          0 LATE:          0
cpu0->cpu0_ITLB AVERAGE MISS LATENCY: 5.044 cycles
cpu0->cpu0_DTLB TOTAL        ACCESS:   20384837 HIT:   18767916 MISS:    1616921 MSHR_MERGE:     634984
cpu0->cpu0_DTLB LOAD         ACCESS:   20384837 HIT:   18767916 MISS:    1616921 MSHR_MERGE:     634984
cpu0->cpu0_DTLB RFO          ACCESS:          0 HIT:          0 MISS:          0 MSHR_MERGE:          0
cpu0->cpu0_DTLB PREFETCH     ACCESS:          0 HIT:          0 MISS:          0 MSHR_MERGE:          0
cpu0->cpu0_DTLB WRITE        ACCESS:          0 HIT:          0 MISS:          0 MSHR_MERGE:          0
cpu0->cpu0_DTLB TRANSLATION  ACCESS:          0 HIT:          0 MISS:          0 MSHR_MERGE:          0
cpu0->cpu0_DTLB PREFETCH REQUESTED:          0 ISSUED:          0 USEFUL:          0 USELESS:          0 LATE:          0
cpu0->cpu0_DTLB AVERAGE MISS LATENCY: 5.003 cycles
cpu0->LLC TOTAL        ACCESS:    4040590 HIT:     188614 MISS:    3851976 MSHR_MERGE:      86756
cpu0->LLC LOAD         ACCESS:     861856 HIT:      25632 MISS:     836224 MSHR_MERGE:       1494
cpu0->LLC RFO          ACCESS:      96476 HIT:       2498 MISS:      93978 MSHR_MERGE:       2417
cpu0->LLC PREFETCH     ACCESS:    2487060 HIT:      47845 MISS:    2439215 MSHR_MERGE:      82845
cpu0->LLC WRITE        ACCESS:     595198 HIT:     112639 MISS:     482559 MSHR_MERGE:          0
cpu0->LLC TRANSLATION  ACCESS:          0 HIT:          0 MISS:          0 MSHR_MERGE:          0
cpu0->LLC PREFETCH REQUESTED:          0 ISSUED:          0 USEFUL:          0 USELESS:          0 LATE:          0
cpu0->LLC AVERAGE MISS LATENCY: 197.1 cycles

DRAM Statistics

Channel 0 RQ ROW_BUFFER_HIT:     201442
  ROW_BUFFER_MISS:    3081196
  AVG DBUS CONGESTED CYCLE: 5.315
Channel 0 WQ ROW_BUFFER_HIT:      66368
  ROW_BUFFER_MISS:     535332
  FULL:        438
Channel 0 REFRESHES ISSUED:       8784

[ROI Statistics]
[System Configuration]
num_cpus 1
cpu_freq 4000
fetch_width 6
decode_width 6
dispatch_width 6
execute_width 6
lq_width 2
sq_width 2
retire_width 6
scheduler_size 128
branch_mispredict_penalty 15
rob_size 352
lq_size 128
sq_size 72
ifetch_buffer_size 64
decode_buffer_size 32
dispatch_buffer_size 32
register_file_size 288
decode_latency 1
dispatch_latency 1
schedule_latency 1
execute_latency 1
page_size 4096
block_size 64
core_0_itlb_set 16
core_0_itlb_way 4
core_0_itlb_rq_size 16
core_0_itlb_wq_size 16
core_0_itlb_pq_size 0
core_0_itlb_mshr_size 8
core_0_itlb_hit_latency 1
core_0_itlb_fill_latency 1
core_0_itlb_max_tag_check 2
core_0_itlb_max_fill 2
core_0_dtlb_set 16
core_0_dtlb_way 4
core_0_dtlb_rq_size 16
core_0_dtlb_wq_size 16
core_0_dtlb_pq_size 0
core_0_dtlb_mshr_size 8
core_0_dtlb_hit_latency 1
core_0_dtlb_fill_latency 1
core_0_dtlb_max_tag_check 2
core_0_dtlb_max_fill 2
core_0_stlb_set 128
core_0_stlb_way 12
core_0_stlb_rq_size 32
core_0_stlb_wq_size 32
core_0_stlb_pq_size 0
core_0_stlb_mshr_size 16
core_0_stlb_hit_latency 4
core_0_stlb_fill_latency 4
core_0_stlb_max_tag_check 1
core_0_stlb_max_fill 1
core_0_l1i_set 64
core_0_l1i_way 8
core_0_l1i_rq_size 64
core_0_l1i_wq_size 64
core_0_l1i_pq_size 32
core_0_l1i_mshr_size 8
core_0_l1i_hit_latency 2
core_0_l1i_fill_latency 2
core_0_l1i_max_tag_check 2
core_0_l1i_max_fill 2
core_0_l1d_set 64
core_0_l1d_way 12
core_0_l1d_rq_size 64
core_0_l1d_wq_size 64
core_0_l1d_pq_size 8
core_0_l1d_mshr_size 16
core_0_l1d_hit_latency 2
core_0_l1d_fill_latency 3
core_0_l1d_max_tag_check 2
core_0_l1d_max_fill 2
core_0_l2c_set 1024
core_0_l2c_way 8
core_0_l2c_rq_size 32
core_0_l2c_wq_size 32
core_0_l2c_pq_size 16
core_0_l2c_mshr_size 32
core_0_l2c_hit_latency 5
core_0_l2c_fill_latency 5
core_0_l2c_max_tag_check 1
core_0_l2c_max_fill 1
llc_set 2048
llc_way 16
llc_rq_size 32
llc_wq_size 32
llc_pq_size 32
llc_mshr_size 64
llc_hit_latency 10
llc_fill_latency 10
llc_max_tag_check 1
llc_max_fill 1
dram_channels 1
dram_ranks 1
dram_bankgroups 8
dram_banks 4
dram_rows 65536
dram_columns 1024
dram_channel_width 8
dram_rq_size 64
dram_wq_size 64
dram_size 17179869184
core_0_itlb_prefetcher no
core_0_dtlb_prefetcher no
core_0_stlb_prefetcher no
core_0_l1i_prefetcher next_line
core_0_l1d_prefetcher vberti
core_0_l2c_prefetcher ip_stride
llc_prefetcher no
llc_replacement drrip

Core_0_instructions 100000005
Core_0_cycles 105407668
Core_0_IPC 0.948698
Core_0_branch_prediction_accuracy 99.9991
Core_0_branch_MPKI 0.0003
Core_0_average_ROB_occupancy_at_mispredict 327.833

Core_0_ITLB_total_access 13403460
Core_0_ITLB_total_hit 13403237
Core_0_ITLB_total_miss 223
Core_0_ITLB_total_MPKI 0.00223
Core_0_ITLB_total_miss_rate 1.66375e-05
Core_0_ITLB_demand_access 13403460
Core_0_ITLB_demand_hit 13403237
Core_0_ITLB_demand_miss 223
Core_0_ITLB_demand_MPKI 0.00223
Core_0_ITLB_demand_miss_rate 1.66375e-05
Core_0_ITLB_load_access 13403460
Core_0_ITLB_load_hit 13403237
Core_0_ITLB_load_miss 223
Core_0_ITLB_load_MPKI 0.00223
Core_0_ITLB_load_miss_rate 1.66375e-05
Core_0_ITLB_rfo_access 0
Core_0_ITLB_rfo_hit 0
Core_0_ITLB_rfo_miss 0
Core_0_ITLB_rfo_MPKI 0
Core_0_ITLB_rfo_miss_rate 0
Core_0_ITLB_prefetch_access 0
Core_0_ITLB_prefetch_hit 0
Core_0_ITLB_prefetch_miss 0
Core_0_ITLB_prefetch_MPKI 0
Core_0_ITLB_prefetch_miss_rate 0
Core_0_ITLB_writeback_access 0
Core_0_ITLB_writeback_hit 0
Core_0_ITLB_writeback_miss 0
Core_0_ITLB_writeback_MPKI 0
Core_0_ITLB_writeback_miss_rate 0
Core_0_ITLB_prefetch_requested 0
Core_0_ITLB_prefetch_issued 0
Core_0_ITLB_prefetch_useful 0
Core_0_ITLB_prefetch_useless 0
Core_0_ITLB_prefetch_late 0
Core_0_ITLB_prefetch_accuracy 0
Core_0_ITLB_prefetch_coverage 0
Core_0_ITLB_total_eviction 90

Core_0_DTLB_total_access 20384837
Core_0_DTLB_total_hit 18767916
Core_0_DTLB_total_miss 1616921
Core_0_DTLB_total_MPKI 16.1692
Core_0_DTLB_total_miss_rate 0.0793198
Core_0_DTLB_demand_access 20384837
Core_0_DTLB_demand_hit 18767916
Core_0_DTLB_demand_miss 1616921
Core_0_DTLB_demand_MPKI 16.1692
Core_0_DTLB_demand_miss_rate 0.0793198
Core_0_DTLB_load_access 20384837
Core_0_DTLB_load_hit 18767916
Core_0_DTLB_load_miss 1616921
Core_0_DTLB_load_MPKI 16.1692
Core_0_DTLB_load_miss_rate 0.0793198
Core_0_DTLB_rfo_access 0
Core_0_DTLB_rfo_hit 0
Core_0_DTLB_rfo_miss 0
Core_0_DTLB_rfo_MPKI 0
Core_0_DTLB_rfo_miss_rate 0
Core_0_DTLB_prefetch_access 0
Core_0_DTLB_prefetch_hit 0
Core_0_DTLB_prefetch_miss 0
Core_0_DTLB_prefetch_MPKI 0
Core_0_DTLB_prefetch_miss_rate 0
Core_0_DTLB_writeback_access 0
Core_0_DTLB_writeback_hit 0
Core_0_DTLB_writeback_miss 0
Core_0_DTLB_writeback_MPKI 0
Core_0_DTLB_writeback_miss_rate 0
Core_0_DTLB_prefetch_requested 0
Core_0_DTLB_prefetch_issued 0
Core_0_DTLB_prefetch_useful 0
Core_0_DTLB_prefetch_useless 0
Core_0_DTLB_prefetch_late 0
Core_0_DTLB_prefetch_accuracy 0
Core_0_DTLB_prefetch_coverage 0
Core_0_DTLB_total_eviction 981937

Core_0_STLB_total_access 982027
Core_0_STLB_total_hit 982027
Core_0_STLB_total_miss 0
Core_0_STLB_total_MPKI 0
Core_0_STLB_total_miss_rate 0
Core_0_STLB_demand_access 982027
Core_0_STLB_demand_hit 982027
Core_0_STLB_demand_miss 0
Core_0_STLB_demand_MPKI 0
Core_0_STLB_demand_miss_rate 0
Core_0_STLB_load_access 982027
Core_0_STLB_load_hit 982027
Core_0_STLB_load_miss 0
Core_0_STLB_load_MPKI 0
Core_0_STLB_load_miss_rate 0
Core_0_STLB_rfo_access 0
Core_0_STLB_rfo_hit 0
Core_0_STLB_rfo_miss 0
Core_0_STLB_rfo_MPKI 0
Core_0_STLB_rfo_miss_rate 0
Core_0_STLB_prefetch_access 0
Core_0_STLB_prefetch_hit 0
Core_0_STLB_prefetch_miss 0
Core_0_STLB_prefetch_MPKI 0
Core_0_STLB_prefetch_miss_rate 0
Core_0_STLB_writeback_access 0
Core_0_STLB_writeback_hit 0
Core_0_STLB_writeback_miss 0
Core_0_STLB_writeback_MPKI 0
Core_0_STLB_writeback_miss_rate 0
Core_0_STLB_prefetch_requested 0
Core_0_STLB_prefetch_issued 0
Core_0_STLB_prefetch_useful 0
Core_0_STLB_prefetch_useless 0
Core_0_STLB_prefetch_late 0
Core_0_STLB_prefetch_accuracy 0
Core_0_STLB_prefetch_coverage 0
Core_0_STLB_total_eviction 275981

Core_0_L1I_total_access 14696369
Core_0_L1I_total_hit 14696292
Core_0_L1I_total_miss 77
Core_0_L1I_total_MPKI 0.00077
Core_0_L1I_total_miss_rate 5.23939e-06
Core_0_L1I_demand_access 14696369
Core_0_L1I_demand_hit 14696292
Core_0_L1I_demand_miss 77
Core_0_L1I_demand_MPKI 0.00077
Core_0_L1I_demand_miss_rate 5.23939e-06
Core_0_L1I_load_access 14696369
Core_0_L1I_load_hit 14696292
Core_0_L1I_load_miss 77
Core_0_L1I_load_MPKI 0.00077
Core_0_L1I_load_miss_rate 5.23939e-06
Core_0_L1I_rfo_access 0
Core_0_L1I_rfo_hit 0
Core_0_L1I_rfo_miss 0
Core_0_L1I_rfo_MPKI 0
Core_0_L1I_rfo_miss_rate 0
Core_0_L1I_prefetch_access 0
Core_0_L1I_prefetch_hit 0
Core_0_L1I_prefetch_miss 0
Core_0_L1I_prefetch_MPKI 0
Core_0_L1I_prefetch_miss_rate 0
Core_0_L1I_writeback_access 0
Core_0_L1I_writeback_hit 0
Core_0_L1I_writeback_miss 0
Core_0_L1I_writeback_MPKI 0
Core_0_L1I_writeback_miss_rate 0
Core_0_L1I_prefetch_requested 0
Core_0_L1I_prefetch_issued 0
Core_0_L1I_prefetch_useful 0
Core_0_L1I_prefetch_useless 0
Core_0_L1I_prefetch_late 0
Core_0_L1I_prefetch_accuracy 0
Core_0_L1I_prefetch_coverage 0
Core_0_L1I_total_eviction 49

Core_0_L1D_total_access 22856592
Core_0_L1D_total_hit 13685994
Core_0_L1D_total_miss 9170598
Core_0_L1D_total_MPKI 91.706
Core_0_L1D_total_miss_rate 0.401223
Core_0_L1D_demand_access 9983815
Core_0_L1D_demand_hit 6080950
Core_0_L1D_demand_miss 3902865
Core_0_L1D_demand_MPKI 39.0286
Core_0_L1D_demand_miss_rate 0.390919
Core_0_L1D_load_access 9983815
Core_0_L1D_load_hit 6080950
Core_0_L1D_load_miss 3902865
Core_0_L1D_load_MPKI 39.0286
Core_0_L1D_load_miss_rate 0.390919
Core_0_L1D_rfo_access 0
Core_0_L1D_rfo_hit 0
Core_0_L1D_rfo_miss 0
Core_0_L1D_rfo_MPKI 0
Core_0_L1D_rfo_miss_rate 0
Core_0_L1D_prefetch_access 4939301
Core_0_L1D_prefetch_hit 1348932
Core_0_L1D_prefetch_miss 3590369
Core_0_L1D_prefetch_MPKI 35.9037
Core_0_L1D_prefetch_miss_rate 0.726898
Core_0_L1D_writeback_access 7933476
Core_0_L1D_writeback_hit 6256112
Core_0_L1D_writeback_miss 1677364
Core_0_L1D_writeback_MPKI 16.7736
Core_0_L1D_writeback_miss_rate 0.211429
Core_0_L1D_prefetch_requested 38551721
Core_0_L1D_prefetch_issued 4939297
Core_0_L1D_prefetch_useful 1598945
Core_0_L1D_prefetch_useless 26884
Core_0_L1D_prefetch_late 90703
Core_0_L1D_prefetch_accuracy 0.323719
Core_0_L1D_prefetch_coverage 0.290622
Core_0_L1D_total_eviction 4190129

Core_0_L2C_total_access 7355726
Core_0_L2C_total_hit 3057659
Core_0_L2C_total_miss 4298067
Core_0_L2C_total_MPKI 42.9807
Core_0_L2C_total_miss_rate 0.584316
Core_0_L2C_demand_access 2564235
Core_0_L2C_demand_hit 1557534
Core_0_L2C_demand_miss 1006701
Core_0_L2C_demand_MPKI 10.067
Core_0_L2C_demand_miss_rate 0.392593
Core_0_L2C_load_access 2399665
Core_0_L2C_load_hit 1521528
Core_0_L2C_load_miss 878137
Core_0_L2C_load_MPKI 8.78137
Core_0_L2C_load_miss_rate 0.365941
Core_0_L2C_rfo_access 164570
Core_0_L2C_rfo_hit 36006
Core_0_L2C_rfo_miss 128564
Core_0_L2C_rfo_MPKI 1.28564
Core_0_L2C_rfo_miss_rate 0.781212
Core_0_L2C_prefetch_access 4193473
Core_0_L2C_prefetch_hit 902123
Core_0_L2C_prefetch_miss 3291350
Core_0_L2C_prefetch_MPKI 32.9135
Core_0_L2C_prefetch_miss_rate 0.784874
Core_0_L2C_writeback_access 598018
Core_0_L2C_writeback_hit 598002
Core_0_L2C_writeback_miss 16
Core_0_L2C_writeback_MPKI 0.00016
Core_0_L2C_writeback_miss_rate 2.6755e-05
Core_0_L2C_prefetch_requested 735011
Core_0_L2C_prefetch_issued 734942
Core_0_L2C_prefetch_useful 227885
Core_0_L2C_prefetch_useless 51835
Core_0_L2C_prefetch_late 16658
Core_0_L2C_prefetch_accuracy 0.310072
Core_0_L2C_prefetch_coverage 0.184584
Core_0_L2C_total_eviction 3309214

Core_0_LLC_total_access 4040590
Core_0_LLC_total_hit 188614
Core_0_LLC_total_miss 3851976
Core_0_LLC_total_MPKI 38.5198
Core_0_LLC_total_miss_rate 0.95332
Core_0_LLC_demand_access 958332
Core_0_LLC_demand_hit 28130
Core_0_LLC_demand_miss 930202
Core_0_LLC_demand_MPKI 9.30202
Core_0_LLC_demand_miss_rate 0.970647
Core_0_LLC_load_access 861856
Core_0_LLC_load_hit 25632
Core_0_LLC_load_miss 836224
Core_0_LLC_load_MPKI 8.36224
Core_0_LLC_load_miss_rate 0.97026
Core_0_LLC_rfo_access 96476
Core_0_LLC_rfo_hit 2498
Core_0_LLC_rfo_miss 93978
Core_0_LLC_rfo_MPKI 0.93978
Core_0_LLC_rfo_miss_rate 0.974108
Core_0_LLC_prefetch_access 2487060
Core_0_LLC_prefetch_hit 47845
Core_0_LLC_prefetch_miss 2439215
Core_0_LLC_prefetch_MPKI 24.3921
Core_0_LLC_prefetch_miss_rate 0.980762
Core_0_LLC_writeback_access 595198
Core_0_LLC_writeback_hit 112639
Core_0_LLC_writeback_miss 482559
Core_0_LLC_writeback_MPKI 4.82559
Core_0_LLC_writeback_miss_rate 0.810754
Core_0_LLC_prefetch_requested 0
Core_0_LLC_prefetch_issued 0
Core_0_LLC_prefetch_useful 0
Core_0_LLC_prefetch_useless 0
Core_0_LLC_prefetch_late 0
Core_0_LLC_prefetch_accuracy 0
Core_0_LLC_prefetch_coverage 0
Core_0_LLC_total_eviction 3765218

[DRAM Statistics]
Channel_0_RQ_row_buffer_hit 201442
Channel_0_RQ_row_buffer_miss 3081196
Channel_0_WQ_row_buffer_hit 66368
Channel_0_WQ_row_buffer_miss 535332
Channel_0_WQ_full 438
Channel_0_dbus_congested 9535605
DRAM_total_RQ_row_buffer_hit 201442
DRAM_total_RQ_row_buffer_miss 3081196
DRAM_total_WQ_row_buffer_hit 66368
DRAM_total_WQ_row_buffer_miss 535332
DRAM_total_WQ_full 438
DRAM_total_dbus_congested 9535605
DRAM_avg_congested_cycle 5.31541

======STLB miss causes ========
Core_0_STLB_miss_cause_breakdown
Core_0_STLB_cause_Demand_Data_miss 0
Core_0_STLB_cause_Demand_Data_miss_rate 0
Core_0_STLB_cause_Demand_Instruction_miss 0
Core_0_STLB_cause_Demand_Instruction_miss_rate 0
Core_0_STLB_cause_L1D_Prefetch_miss 0
Core_0_STLB_cause_L1D_Prefetch_miss_rate 0
Core_0_STLB_cause_L1I_Prefetch_miss 0
Core_0_STLB_cause_L1I_Prefetch_miss_rate 0
Core_0_STLB_cause_Other_miss 0
Core_0_STLB_cause_Other_miss_rate 0
Core_0_STLB_Demand_miss 0
Core_0_STLB_Demand_miss_rate 0
Core_0_STLB_L1D_Prefetch_miss 0
Core_0_STLB_L1D_Prefetch_miss_rate 0
Core_0_STLB_Other_miss 0
Core_0_STLB_Other_miss_rate 0
BERTI TO_L1: 38970154 TO_L2: 30469158 TO_L2_BC_MSHR: 13408070
BERTI AVG_LAT: 134.89 NUM_TRACK_LATENCY: 6204173 NUM_CANT_TRACK_LATENCY: 12
BERTI CROSS_PAGE 16839429 NO_CROSS_PAGE: 52599883
BERTI FOUND_BERTI: 22140090 NO_FOUND_BERTI: 11285594
BERTI AVERAGE_ISSUED: 1.40848
