[VMEM] WARNING: physical memory size is smaller than virtual memory size.

*** ChampSim Multicore Out-of-Order Simulator ***
Warmup Instructions: 50000000
Simulation Instructions: 100000000
Number of CPUs: 1
Page size: 4096
STLB ideal mode: all
STLB ideal fill: on
Core 0: /data0/tzh/champsim_traces/Ligra/ligra_PageRank.com-lj.ungraph.gcc_6.3.0_O3.drop_60750M.length_250M.champsimtrace.xz
VBerti Prefetcher
BERTI HASH ENTANGLING
BERTI IP MASK ffff
Off-chip DRAM Size: 16 GiB Channels: 1 Width: 64-bit Data Rate: 3205 MT/s
Warmup halting CPU 0 at instruction 50000005 cycle 10091269 for remainder of phase
Warmup finished CPU 0 instructions: 50000005 cycles: 10091269 cumulative IPC: 4.955 (Simulation time: 00 hr 02 min 43 sec)
Warmup complete CPU 0 instructions: 50000005 cycles: 10091269 cumulative IPC: 4.955 (Simulation time: 00 hr 02 min 43 sec)
Simulation finished CPU 0 instructions: 100000001 cycles: 116083497 cumulative IPC: 0.8614 (Simulation time: 00 hr 18 min 13 sec)
Simulation complete CPU 0 instructions: 100000001 cycles: 116083497 cumulative IPC: 0.8614 (Simulation time: 00 hr 18 min 13 sec)

ChampSim completed all CPUs

=== Simulation ===
CPU 0 runs /data0/tzh/champsim_traces/Ligra/ligra_PageRank.com-lj.ungraph.gcc_6.3.0_O3.drop_60750M.length_250M.champsimtrace.xz

Region of Interest Statistics

CPU 0 cumulative IPC: 0.8614 instructions: 100000001 cycles: 116083497
CPU 0 Branch Prediction Accuracy: 99.36% MPKI: 1.192 Average ROB Occupancy at Mispredict: 103.7
Branch type MPKI
BRANCH_DIRECT_JUMP: 0.00021
BRANCH_INDIRECT: 0
BRANCH_CONDITIONAL: 1.191
BRANCH_DIRECT_CALL: 6e-05
BRANCH_INDIRECT_CALL: 0
BRANCH_RETURN: 9e-05

cpu0->cpu0_STLB TOTAL        ACCESS:     491696 HIT:     491696 MISS:          0 MSHR_MERGE:          0
cpu0->cpu0_STLB LOAD         ACCESS:     491696 HIT:     491696 MISS:          0 MSHR_MERGE:          0
cpu0->cpu0_STLB RFO          ACCESS:          0 HIT:          0 MISS:          0 MSHR_MERGE:          0
cpu0->cpu0_STLB PREFETCH     ACCESS:          0 HIT:          0 MISS:          0 MSHR_MERGE:          0
cpu0->cpu0_STLB WRITE        ACCESS:          0 HIT:          0 MISS:          0 MSHR_MERGE:          0
cpu0->cpu0_STLB TRANSLATION  ACCESS:          0 HIT:          0 MISS:          0 MSHR_MERGE:          0
cpu0->cpu0_STLB PREFETCH REQUESTED:          0 ISSUED:          0 USEFUL:          0 USELESS:          0 LATE:          0
cpu0->cpu0_STLB AVERAGE MISS LATENCY: - cycles
cpu0->cpu0_L2C TOTAL        ACCESS:    9445298 HIT:    2291653 MISS:    7153645 MSHR_MERGE:    3756481
cpu0->cpu0_L2C LOAD         ACCESS:     935473 HIT:     167153 MISS:     768320 MSHR_MERGE:     129934
cpu0->cpu0_L2C RFO          ACCESS:      30425 HIT:       4383 MISS:      26042 MSHR_MERGE:      17471
cpu0->cpu0_L2C PREFETCH     ACCESS:    7251494 HIT:     892212 MISS:    6359282 MSHR_MERGE:    3609076
cpu0->cpu0_L2C WRITE        ACCESS:    1227906 HIT:    1227905 MISS:          1 MSHR_MERGE:          0
cpu0->cpu0_L2C TRANSLATION  ACCESS:          0 HIT:          0 MISS:          0 MSHR_MERGE:          0
cpu0->cpu0_L2C PREFETCH REQUESTED:    3875714 ISSUED:    3827012 USEFUL:     722686 USELESS:     339521 LATE:      93044
cpu0->cpu0_L2C AVERAGE MISS LATENCY: 303.3 cycles
cpu0->cpu0_L1I TOTAL        ACCESS:   14140656 HIT:   14140561 MISS:         95 MSHR_MERGE:         10
cpu0->cpu0_L1I LOAD         ACCESS:   14140656 HIT:   14140561 MISS:         95 MSHR_MERGE:         10
cpu0->cpu0_L1I RFO          ACCESS:          0 HIT:          0 MISS:          0 MSHR_MERGE:          0
cpu0->cpu0_L1I PREFETCH     ACCESS:          0 HIT:          0 MISS:          0 MSHR_MERGE:          0
cpu0->cpu0_L1I WRITE        ACCESS:          0 HIT:          0 MISS:          0 MSHR_MERGE:          0
cpu0->cpu0_L1I TRANSLATION  ACCESS:          0 HIT:          0 MISS:          0 MSHR_MERGE:          0
cpu0->cpu0_L1I PREFETCH REQUESTED:          0 ISSUED:          0 USEFUL:          0 USELESS:          0 LATE:          0
cpu0->cpu0_L1I AVERAGE MISS LATENCY: 251.6 cycles
cpu0->cpu0_L1D TOTAL        ACCESS:   54758648 HIT:   47241817 MISS:    7516831 MSHR_MERGE:    2977650
cpu0->cpu0_L1D LOAD         ACCESS:   14834575 HIT:   12245954 MISS:    2588621 MSHR_MERGE:    1653233
cpu0->cpu0_L1D RFO          ACCESS:          0 HIT:          0 MISS:          0 MSHR_MERGE:          0
cpu0->cpu0_L1D PREFETCH     ACCESS:   31923041 HIT:   28235304 MISS:    3687737 MSHR_MERGE:     114369
cpu0->cpu0_L1D WRITE        ACCESS:    8001032 HIT:    6760559 MISS:    1240473 MSHR_MERGE:    1210048
cpu0->cpu0_L1D TRANSLATION  ACCESS:          0 HIT:          0 MISS:          0 MSHR_MERGE:          0
cpu0->cpu0_L1D PREFETCH REQUESTED:  135565680 ISSUED:   31923042 USEFUL:    2000880 USELESS:       4907 LATE:     445277
cpu0->cpu0_L1D AVERAGE MISS LATENCY: 278.4 cycles
cpu0->cpu0_ITLB TOTAL        ACCESS:   12217136 HIT:   12217121 MISS:         15 MSHR_MERGE:          7
cpu0->cpu0_ITLB LOAD         ACCESS:   12217136 HIT:   12217121 MISS:         15 MSHR_MERGE:          7
cpu0->cpu0_ITLB RFO          ACCESS:          0 HIT:          0 MISS:          0 MSHR_MERGE:          0
cpu0->cpu0_ITLB PREFETCH     ACCESS:          0 HIT:          0 MISS:          0 MSHR_MERGE:          0
cpu0->cpu0_ITLB WRITE        ACCESS:          0 HIT:          0 MISS:          0 MSHR_MERGE:          0
cpu0->cpu0_ITLB TRANSLATION  ACCESS:          0 HIT:          0 MISS:          0 MSHR_MERGE:          0
cpu0->cpu0_ITLB PREFETCH REQUESTED:          0 ISSUED:          0 USEFUL:          0 USELESS:          0 LATE:          0
cpu0->cpu0_ITLB AVERAGE MISS LATENCY: 5 cycles
cpu0->cpu0_DTLB TOTAL        ACCESS:   36127429 HIT:   35605087 MISS:     522342 MSHR_MERGE:      30655
cpu0->cpu0_DTLB LOAD         ACCESS:   36127429 HIT:   35605087 MISS:     522342 MSHR_MERGE:      30655
cpu0->cpu0_DTLB RFO          ACCESS:          0 HIT:          0 MISS:          0 MSHR_MERGE:          0
cpu0->cpu0_DTLB PREFETCH     ACCESS:          0 HIT:          0 MISS:          0 MSHR_MERGE:          0
cpu0->cpu0_DTLB WRITE        ACCESS:          0 HIT:          0 MISS:          0 MSHR_MERGE:          0
cpu0->cpu0_DTLB TRANSLATION  ACCESS:          0 HIT:          0 MISS:          0 MSHR_MERGE:          0
cpu0->cpu0_DTLB PREFETCH REQUESTED:          0 ISSUED:          0 USEFUL:          0 USELESS:          0 LATE:          0
cpu0->cpu0_DTLB AVERAGE MISS LATENCY: 5.02 cycles
cpu0->LLC TOTAL        ACCESS:    4617857 HIT:    1084379 MISS:    3533478 MSHR_MERGE:     341279
cpu0->LLC LOAD         ACCESS:     638386 HIT:      73810 MISS:     564576 MSHR_MERGE:      11552
cpu0->LLC RFO          ACCESS:       8571 HIT:         39 MISS:       8532 MSHR_MERGE:        402
cpu0->LLC PREFETCH     ACCESS:    2749956 HIT:      83239 MISS:    2666717 MSHR_MERGE:     329325
cpu0->LLC WRITE        ACCESS:    1220944 HIT:     927291 MISS:     293653 MSHR_MERGE:          0
cpu0->LLC TRANSLATION  ACCESS:          0 HIT:          0 MISS:          0 MSHR_MERGE:          0
cpu0->LLC PREFETCH REQUESTED:          0 ISSUED:          0 USEFUL:          0 USELESS:          0 LATE:          0
cpu0->LLC AVERAGE MISS LATENCY: 202.9 cycles

DRAM Statistics

Channel 0 RQ ROW_BUFFER_HIT:     310779
  ROW_BUFFER_MISS:    2587756
  AVG DBUS CONGESTED CYCLE: 6.139
Channel 0 WQ ROW_BUFFER_HIT:     136685
  ROW_BUFFER_MISS:    1062557
  FULL:         42
Channel 0 REFRESHES ISSUED:       9674

[ROI Statistics]
[System Configuration]
num_cpus 1
cpu_freq 4000
fetch_width 6
decode_width 6
dispatch_width 6
execute_width 6
lq_width 2
sq_width 2
retire_width 6
scheduler_size 128
branch_mispredict_penalty 15
rob_size 352
lq_size 128
sq_size 72
ifetch_buffer_size 64
decode_buffer_size 32
dispatch_buffer_size 32
register_file_size 288
decode_latency 1
dispatch_latency 1
schedule_latency 1
execute_latency 1
page_size 4096
block_size 64
core_0_itlb_set 16
core_0_itlb_way 4
core_0_itlb_rq_size 16
core_0_itlb_wq_size 16
core_0_itlb_pq_size 0
core_0_itlb_mshr_size 8
core_0_itlb_hit_latency 1
core_0_itlb_fill_latency 1
core_0_itlb_max_tag_check 2
core_0_itlb_max_fill 2
core_0_dtlb_set 16
core_0_dtlb_way 4
core_0_dtlb_rq_size 16
core_0_dtlb_wq_size 16
core_0_dtlb_pq_size 0
core_0_dtlb_mshr_size 8
core_0_dtlb_hit_latency 1
core_0_dtlb_fill_latency 1
core_0_dtlb_max_tag_check 2
core_0_dtlb_max_fill 2
core_0_stlb_set 128
core_0_stlb_way 12
core_0_stlb_rq_size 32
core_0_stlb_wq_size 32
core_0_stlb_pq_size 0
core_0_stlb_mshr_size 16
core_0_stlb_hit_latency 4
core_0_stlb_fill_latency 4
core_0_stlb_max_tag_check 1
core_0_stlb_max_fill 1
core_0_l1i_set 64
core_0_l1i_way 8
core_0_l1i_rq_size 64
core_0_l1i_wq_size 64
core_0_l1i_pq_size 32
core_0_l1i_mshr_size 8
core_0_l1i_hit_latency 2
core_0_l1i_fill_latency 2
core_0_l1i_max_tag_check 2
core_0_l1i_max_fill 2
core_0_l1d_set 64
core_0_l1d_way 12
core_0_l1d_rq_size 64
core_0_l1d_wq_size 64
core_0_l1d_pq_size 8
core_0_l1d_mshr_size 16
core_0_l1d_hit_latency 2
core_0_l1d_fill_latency 3
core_0_l1d_max_tag_check 2
core_0_l1d_max_fill 2
core_0_l2c_set 1024
core_0_l2c_way 8
core_0_l2c_rq_size 32
core_0_l2c_wq_size 32
core_0_l2c_pq_size 16
core_0_l2c_mshr_size 32
core_0_l2c_hit_latency 5
core_0_l2c_fill_latency 5
core_0_l2c_max_tag_check 1
core_0_l2c_max_fill 1
llc_set 2048
llc_way 16
llc_rq_size 32
llc_wq_size 32
llc_pq_size 32
llc_mshr_size 64
llc_hit_latency 10
llc_fill_latency 10
llc_max_tag_check 1
llc_max_fill 1
dram_channels 1
dram_ranks 1
dram_bankgroups 8
dram_banks 4
dram_rows 65536
dram_columns 1024
dram_channel_width 8
dram_rq_size 64
dram_wq_size 64
dram_size 17179869184
core_0_itlb_prefetcher no
core_0_dtlb_prefetcher no
core_0_stlb_prefetcher no
core_0_l1i_prefetcher next_line
core_0_l1d_prefetcher vberti
core_0_l2c_prefetcher ip_stride
llc_prefetcher no
llc_replacement drrip

Core_0_instructions 100000001
Core_0_cycles 116083497
Core_0_IPC 0.861449
Core_0_branch_prediction_accuracy 99.361
Core_0_branch_MPKI 1.19164
Core_0_average_ROB_occupancy_at_mispredict 103.721

Core_0_ITLB_total_access 12217136
Core_0_ITLB_total_hit 12217121
Core_0_ITLB_total_miss 15
Core_0_ITLB_total_MPKI 0.00015
Core_0_ITLB_total_miss_rate 1.22778e-06
Core_0_ITLB_demand_access 12217136
Core_0_ITLB_demand_hit 12217121
Core_0_ITLB_demand_miss 15
Core_0_ITLB_demand_MPKI 0.00015
Core_0_ITLB_demand_miss_rate 1.22778e-06
Core_0_ITLB_load_access 12217136
Core_0_ITLB_load_hit 12217121
Core_0_ITLB_load_miss 15
Core_0_ITLB_load_MPKI 0.00015
Core_0_ITLB_load_miss_rate 1.22778e-06
Core_0_ITLB_rfo_access 0
Core_0_ITLB_rfo_hit 0
Core_0_ITLB_rfo_miss 0
Core_0_ITLB_rfo_MPKI 0
Core_0_ITLB_rfo_miss_rate 0
Core_0_ITLB_prefetch_access 0
Core_0_ITLB_prefetch_hit 0
Core_0_ITLB_prefetch_miss 0
Core_0_ITLB_prefetch_MPKI 0
Core_0_ITLB_prefetch_miss_rate 0
Core_0_ITLB_writeback_access 0
Core_0_ITLB_writeback_hit 0
Core_0_ITLB_writeback_miss 0
Core_0_ITLB_writeback_MPKI 0
Core_0_ITLB_writeback_miss_rate 0
Core_0_ITLB_prefetch_requested 0
Core_0_ITLB_prefetch_issued 0
Core_0_ITLB_prefetch_useful 0
Core_0_ITLB_prefetch_useless 0
Core_0_ITLB_prefetch_late 0
Core_0_ITLB_prefetch_accuracy 0
Core_0_ITLB_prefetch_coverage 0
Core_0_ITLB_total_eviction 0

Core_0_DTLB_total_access 36127429
Core_0_DTLB_total_hit 35605087
Core_0_DTLB_total_miss 522342
Core_0_DTLB_total_MPKI 5.22342
Core_0_DTLB_total_miss_rate 0.0144583
Core_0_DTLB_demand_access 36127429
Core_0_DTLB_demand_hit 35605087
Core_0_DTLB_demand_miss 522342
Core_0_DTLB_demand_MPKI 5.22342
Core_0_DTLB_demand_miss_rate 0.0144583
Core_0_DTLB_load_access 36127429
Core_0_DTLB_load_hit 35605087
Core_0_DTLB_load_miss 522342
Core_0_DTLB_load_MPKI 5.22342
Core_0_DTLB_load_miss_rate 0.0144583
Core_0_DTLB_rfo_access 0
Core_0_DTLB_rfo_hit 0
Core_0_DTLB_rfo_miss 0
Core_0_DTLB_rfo_MPKI 0
Core_0_DTLB_rfo_miss_rate 0
Core_0_DTLB_prefetch_access 0
Core_0_DTLB_prefetch_hit 0
Core_0_DTLB_prefetch_miss 0
Core_0_DTLB_prefetch_MPKI 0
Core_0_DTLB_prefetch_miss_rate 0
Core_0_DTLB_writeback_access 0
Core_0_DTLB_writeback_hit 0
Core_0_DTLB_writeback_miss 0
Core_0_DTLB_writeback_MPKI 0
Core_0_DTLB_writeback_miss_rate 0
Core_0_DTLB_prefetch_requested 0
Core_0_DTLB_prefetch_issued 0
Core_0_DTLB_prefetch_useful 0
Core_0_DTLB_prefetch_useless 0
Core_0_DTLB_prefetch_late 0
Core_0_DTLB_prefetch_accuracy 0
Core_0_DTLB_prefetch_coverage 0
Core_0_DTLB_total_eviction 491688

Core_0_STLB_total_access 491696
Core_0_STLB_total_hit 491696
Core_0_STLB_total_miss 0
Core_0_STLB_total_MPKI 0
Core_0_STLB_total_miss_rate 0
Core_0_STLB_demand_access 491696
Core_0_STLB_demand_hit 491696
Core_0_STLB_demand_miss 0
Core_0_STLB_demand_MPKI 0
Core_0_STLB_demand_miss_rate 0
Core_0_STLB_load_access 491696
Core_0_STLB_load_hit 491696
Core_0_STLB_load_miss 0
Core_0_STLB_load_MPKI 0
Core_0_STLB_load_miss_rate 0
Core_0_STLB_rfo_access 0
Core_0_STLB_rfo_hit 0
Core_0_STLB_rfo_miss 0
Core_0_STLB_rfo_MPKI 0
Core_0_STLB_rfo_miss_rate 0
Core_0_STLB_prefetch_access 0
Core_0_STLB_prefetch_hit 0
Core_0_STLB_prefetch_miss 0
Core_0_STLB_prefetch_MPKI 0
Core_0_STLB_prefetch_miss_rate 0
Core_0_STLB_writeback_access 0
Core_0_STLB_writeback_hit 0
Core_0_STLB_writeback_miss 0
Core_0_STLB_writeback_MPKI 0
Core_0_STLB_writeback_miss_rate 0
Core_0_STLB_prefetch_requested 0
Core_0_STLB_prefetch_issued 0
Core_0_STLB_prefetch_useful 0
Core_0_STLB_prefetch_useless 0
Core_0_STLB_prefetch_late 0
Core_0_STLB_prefetch_accuracy 0
Core_0_STLB_prefetch_coverage 0
Core_0_STLB_total_eviction 366896

Core_0_L1I_total_access 14140656
Core_0_L1I_total_hit 14140561
Core_0_L1I_total_miss 95
Core_0_L1I_total_MPKI 0.00095
Core_0_L1I_total_miss_rate 6.71822e-06
Core_0_L1I_demand_access 14140656
Core_0_L1I_demand_hit 14140561
Core_0_L1I_demand_miss 95
Core_0_L1I_demand_MPKI 0.00095
Core_0_L1I_demand_miss_rate 6.71822e-06
Core_0_L1I_load_access 14140656
Core_0_L1I_load_hit 14140561
Core_0_L1I_load_miss 95
Core_0_L1I_load_MPKI 0.00095
Core_0_L1I_load_miss_rate 6.71822e-06
Core_0_L1I_rfo_access 0
Core_0_L1I_rfo_hit 0
Core_0_L1I_rfo_miss 0
Core_0_L1I_rfo_MPKI 0
Core_0_L1I_rfo_miss_rate 0
Core_0_L1I_prefetch_access 0
Core_0_L1I_prefetch_hit 0
Core_0_L1I_prefetch_miss 0
Core_0_L1I_prefetch_MPKI 0
Core_0_L1I_prefetch_miss_rate 0
Core_0_L1I_writeback_access 0
Core_0_L1I_writeback_hit 0
Core_0_L1I_writeback_miss 0
Core_0_L1I_writeback_MPKI 0
Core_0_L1I_writeback_miss_rate 0
Core_0_L1I_prefetch_requested 0
Core_0_L1I_prefetch_issued 0
Core_0_L1I_prefetch_useful 0
Core_0_L1I_prefetch_useless 0
Core_0_L1I_prefetch_late 0
Core_0_L1I_prefetch_accuracy 0
Core_0_L1I_prefetch_coverage 0
Core_0_L1I_total_eviction 0

Core_0_L1D_total_access 54758648
Core_0_L1D_total_hit 47241817
Core_0_L1D_total_miss 7516831
Core_0_L1D_total_MPKI 75.1683
Core_0_L1D_total_miss_rate 0.137272
Core_0_L1D_demand_access 14834575
Core_0_L1D_demand_hit 12245954
Core_0_L1D_demand_miss 2588621
Core_0_L1D_demand_MPKI 25.8862
Core_0_L1D_demand_miss_rate 0.174499
Core_0_L1D_load_access 14834575
Core_0_L1D_load_hit 12245954
Core_0_L1D_load_miss 2588621
Core_0_L1D_load_MPKI 25.8862
Core_0_L1D_load_miss_rate 0.174499
Core_0_L1D_rfo_access 0
Core_0_L1D_rfo_hit 0
Core_0_L1D_rfo_miss 0
Core_0_L1D_rfo_MPKI 0
Core_0_L1D_rfo_miss_rate 0
Core_0_L1D_prefetch_access 31923041
Core_0_L1D_prefetch_hit 28235304
Core_0_L1D_prefetch_miss 3687737
Core_0_L1D_prefetch_MPKI 36.8774
Core_0_L1D_prefetch_miss_rate 0.11552
Core_0_L1D_writeback_access 8001032
Core_0_L1D_writeback_hit 6760559
Core_0_L1D_writeback_miss 1240473
Core_0_L1D_writeback_MPKI 12.4047
Core_0_L1D_writeback_miss_rate 0.155039
Core_0_L1D_prefetch_requested 135565680
Core_0_L1D_prefetch_issued 31923042
Core_0_L1D_prefetch_useful 2000880
Core_0_L1D_prefetch_useless 4907
Core_0_L1D_prefetch_late 445277
Core_0_L1D_prefetch_accuracy 0.0626782
Core_0_L1D_prefetch_coverage 0.435969
Core_0_L1D_total_eviction 2971586

Core_0_L2C_total_access 9445298
Core_0_L2C_total_hit 2291653
Core_0_L2C_total_miss 7153645
Core_0_L2C_total_MPKI 71.5364
Core_0_L2C_total_miss_rate 0.757376
Core_0_L2C_demand_access 965898
Core_0_L2C_demand_hit 171536
Core_0_L2C_demand_miss 794362
Core_0_L2C_demand_MPKI 7.94362
Core_0_L2C_demand_miss_rate 0.822408
Core_0_L2C_load_access 935473
Core_0_L2C_load_hit 167153
Core_0_L2C_load_miss 768320
Core_0_L2C_load_MPKI 7.6832
Core_0_L2C_load_miss_rate 0.821317
Core_0_L2C_rfo_access 30425
Core_0_L2C_rfo_hit 4383
Core_0_L2C_rfo_miss 26042
Core_0_L2C_rfo_MPKI 0.26042
Core_0_L2C_rfo_miss_rate 0.855941
Core_0_L2C_prefetch_access 7251494
Core_0_L2C_prefetch_hit 892212
Core_0_L2C_prefetch_miss 6359282
Core_0_L2C_prefetch_MPKI 63.5928
Core_0_L2C_prefetch_miss_rate 0.876962
Core_0_L2C_writeback_access 1227906
Core_0_L2C_writeback_hit 1227905
Core_0_L2C_writeback_miss 1
Core_0_L2C_writeback_MPKI 1e-05
Core_0_L2C_writeback_miss_rate 8.14395e-07
Core_0_L2C_prefetch_requested 3875714
Core_0_L2C_prefetch_issued 3827012
Core_0_L2C_prefetch_useful 722686
Core_0_L2C_prefetch_useless 339521
Core_0_L2C_prefetch_late 93044
Core_0_L2C_prefetch_accuracy 0.188838
Core_0_L2C_prefetch_coverage 0.476376
Core_0_L2C_total_eviction 2956073

Core_0_LLC_total_access 4617857
Core_0_LLC_total_hit 1084379
Core_0_LLC_total_miss 3533478
Core_0_LLC_total_MPKI 35.3348
Core_0_LLC_total_miss_rate 0.765177
Core_0_LLC_demand_access 646957
Core_0_LLC_demand_hit 73849
Core_0_LLC_demand_miss 573108
Core_0_LLC_demand_MPKI 5.73108
Core_0_LLC_demand_miss_rate 0.885852
Core_0_LLC_load_access 638386
Core_0_LLC_load_hit 73810
Core_0_LLC_load_miss 564576
Core_0_LLC_load_MPKI 5.64576
Core_0_LLC_load_miss_rate 0.88438
Core_0_LLC_rfo_access 8571
Core_0_LLC_rfo_hit 39
Core_0_LLC_rfo_miss 8532
Core_0_LLC_rfo_MPKI 0.08532
Core_0_LLC_rfo_miss_rate 0.99545
Core_0_LLC_prefetch_access 2749956
Core_0_LLC_prefetch_hit 83239
Core_0_LLC_prefetch_miss 2666717
Core_0_LLC_prefetch_MPKI 26.6672
Core_0_LLC_prefetch_miss_rate 0.969731
Core_0_LLC_writeback_access 1220944
Core_0_LLC_writeback_hit 927291
Core_0_LLC_writeback_miss 293653
Core_0_LLC_writeback_MPKI 2.93653
Core_0_LLC_writeback_miss_rate 0.240513
Core_0_LLC_prefetch_requested 0
Core_0_LLC_prefetch_issued 0
Core_0_LLC_prefetch_useful 0
Core_0_LLC_prefetch_useless 0
Core_0_LLC_prefetch_late 0
Core_0_LLC_prefetch_accuracy 0
Core_0_LLC_prefetch_coverage 0
Core_0_LLC_total_eviction 3192188

[DRAM Statistics]
Channel_0_RQ_row_buffer_hit 310779
Channel_0_RQ_row_buffer_miss 2587756
Channel_0_WQ_row_buffer_hit 136685
Channel_0_WQ_row_buffer_miss 1062557
Channel_0_WQ_full 42
Channel_0_dbus_congested 12762595
DRAM_total_RQ_row_buffer_hit 310779
DRAM_total_RQ_row_buffer_miss 2587756
DRAM_total_WQ_row_buffer_hit 136685
DRAM_total_WQ_row_buffer_miss 1062557
DRAM_total_WQ_full 42
DRAM_total_dbus_congested 12762595
DRAM_avg_congested_cycle 6.13877

======STLB miss causes ========
Core_0_STLB_miss_cause_breakdown
Core_0_STLB_cause_Demand_Data_miss 0
Core_0_STLB_cause_Demand_Data_miss_rate 0
Core_0_STLB_cause_Demand_Instruction_miss 0
Core_0_STLB_cause_Demand_Instruction_miss_rate 0
Core_0_STLB_cause_L1D_Prefetch_miss 0
Core_0_STLB_cause_L1D_Prefetch_miss_rate 0
Core_0_STLB_cause_L1I_Prefetch_miss 0
Core_0_STLB_cause_L1I_Prefetch_miss_rate 0
Core_0_STLB_cause_Other_miss 0
Core_0_STLB_cause_Other_miss_rate 0
Core_0_STLB_Demand_miss 0
Core_0_STLB_Demand_miss_rate 0
Core_0_STLB_L1D_Prefetch_miss 0
Core_0_STLB_L1D_Prefetch_miss_rate 0
Core_0_STLB_Other_miss 0
Core_0_STLB_Other_miss_rate 0
BERTI TO_L1: 107252845 TO_L2: 44420539 TO_L2_BC_MSHR: 20881838
BERTI AVG_LAT: 165.103 NUM_TRACK_LATENCY: 5923218 NUM_CANT_TRACK_LATENCY: 45
BERTI CROSS_PAGE 19158933 NO_CROSS_PAGE: 132514451
BERTI FOUND_BERTI: 24631029 NO_FOUND_BERTI: 11098184
BERTI AVERAGE_ISSUED: 4.19481
