[VMEM] WARNING: physical memory size is smaller than virtual memory size.

*** ChampSim Multicore Out-of-Order Simulator ***
Warmup Instructions: 50000000
Simulation Instructions: 100000000
Number of CPUs: 1
Page size: 4096
STLB ideal mode: all
STLB ideal fill: on
Core 0: /data0/tzh/champsim_traces/Ligra/ligra_BellmanFord.com-lj.ungraph.gcc_6.3.0_O3.drop_33750M.length_250M.champsimtrace.xz
VBerti Prefetcher
BERTI HASH ENTANGLING
BERTI IP MASK ffff
Off-chip DRAM Size: 16 GiB Channels: 1 Width: 64-bit Data Rate: 3205 MT/s
Warmup halting CPU 0 at instruction 50000005 cycle 10009763 for remainder of phase
Warmup finished CPU 0 instructions: 50000005 cycles: 10009763 cumulative IPC: 4.995 (Simulation time: 00 hr 02 min 09 sec)
Warmup complete CPU 0 instructions: 50000005 cycles: 10009763 cumulative IPC: 4.995 (Simulation time: 00 hr 02 min 09 sec)
Simulation finished CPU 0 instructions: 100000000 cycles: 240672327 cumulative IPC: 0.4155 (Simulation time: 00 hr 20 min 04 sec)
Simulation complete CPU 0 instructions: 100000000 cycles: 240672327 cumulative IPC: 0.4155 (Simulation time: 00 hr 20 min 04 sec)

ChampSim completed all CPUs

=== Simulation ===
CPU 0 runs /data0/tzh/champsim_traces/Ligra/ligra_BellmanFord.com-lj.ungraph.gcc_6.3.0_O3.drop_33750M.length_250M.champsimtrace.xz

Region of Interest Statistics

CPU 0 cumulative IPC: 0.4155 instructions: 100000000 cycles: 240672327
CPU 0 Branch Prediction Accuracy: 88.13% MPKI: 18.4 Average ROB Occupancy at Mispredict: 26.02
Branch type MPKI
BRANCH_DIRECT_JUMP: 1.331
BRANCH_INDIRECT: 0
BRANCH_CONDITIONAL: 17.07
BRANCH_DIRECT_CALL: 0
BRANCH_INDIRECT_CALL: 0
BRANCH_RETURN: 0

cpu0->cpu0_STLB TOTAL        ACCESS:    1615664 HIT:    1615664 MISS:          0 MSHR_MERGE:          0
cpu0->cpu0_STLB LOAD         ACCESS:    1615664 HIT:    1615664 MISS:          0 MSHR_MERGE:          0
cpu0->cpu0_STLB RFO          ACCESS:          0 HIT:          0 MISS:          0 MSHR_MERGE:          0
cpu0->cpu0_STLB PREFETCH     ACCESS:          0 HIT:          0 MISS:          0 MSHR_MERGE:          0
cpu0->cpu0_STLB WRITE        ACCESS:          0 HIT:          0 MISS:          0 MSHR_MERGE:          0
cpu0->cpu0_STLB TRANSLATION  ACCESS:          0 HIT:          0 MISS:          0 MSHR_MERGE:          0
cpu0->cpu0_STLB PREFETCH REQUESTED:          0 ISSUED:          0 USEFUL:          0 USELESS:          0 LATE:          0
cpu0->cpu0_STLB AVERAGE MISS LATENCY: - cycles
cpu0->cpu0_L2C TOTAL        ACCESS:    9374449 HIT:    4983317 MISS:    4391132 MSHR_MERGE:     851945
cpu0->cpu0_L2C LOAD         ACCESS:    2077680 HIT:     316910 MISS:    1760770 MSHR_MERGE:       8722
cpu0->cpu0_L2C RFO          ACCESS:     119819 HIT:       6939 MISS:     112880 MSHR_MERGE:          4
cpu0->cpu0_L2C PREFETCH     ACCESS:    6757545 HIT:    4240094 MISS:    2517451 MSHR_MERGE:     843219
cpu0->cpu0_L2C WRITE        ACCESS:     419405 HIT:     419374 MISS:         31 MSHR_MERGE:          0
cpu0->cpu0_L2C TRANSLATION  ACCESS:          0 HIT:          0 MISS:          0 MSHR_MERGE:          0
cpu0->cpu0_L2C PREFETCH REQUESTED:    1799740 ISSUED:    1799694 USEFUL:     408991 USELESS:     164046 LATE:       5279
cpu0->cpu0_L2C AVERAGE MISS LATENCY: 198.1 cycles
cpu0->cpu0_L1I TOTAL        ACCESS:    1149247 HIT:    1149247 MISS:          0 MSHR_MERGE:          0
cpu0->cpu0_L1I LOAD         ACCESS:    1149247 HIT:    1149247 MISS:          0 MSHR_MERGE:          0
cpu0->cpu0_L1I RFO          ACCESS:          0 HIT:          0 MISS:          0 MSHR_MERGE:          0
cpu0->cpu0_L1I PREFETCH     ACCESS:          0 HIT:          0 MISS:          0 MSHR_MERGE:          0
cpu0->cpu0_L1I WRITE        ACCESS:          0 HIT:          0 MISS:          0 MSHR_MERGE:          0
cpu0->cpu0_L1I TRANSLATION  ACCESS:          0 HIT:          0 MISS:          0 MSHR_MERGE:          0
cpu0->cpu0_L1I PREFETCH REQUESTED:          0 ISSUED:          0 USEFUL:          0 USELESS:          0 LATE:          0
cpu0->cpu0_L1I AVERAGE MISS LATENCY: - cycles
cpu0->cpu0_L1D TOTAL        ACCESS:   47868487 HIT:   40018117 MISS:    7850370 MSHR_MERGE:     635536
cpu0->cpu0_L1D LOAD         ACCESS:   23219731 HIT:   20557910 MISS:    2661821 MSHR_MERGE:     584138
cpu0->cpu0_L1D RFO          ACCESS:          0 HIT:          0 MISS:          0 MSHR_MERGE:          0
cpu0->cpu0_L1D PREFETCH     ACCESS:   23892285 HIT:   18855720 MISS:    5036565 MSHR_MERGE:      19233
cpu0->cpu0_L1D WRITE        ACCESS:     756471 HIT:     604487 MISS:     151984 MSHR_MERGE:      32165
cpu0->cpu0_L1D TRANSLATION  ACCESS:          0 HIT:          0 MISS:          0 MSHR_MERGE:          0
cpu0->cpu0_L1D PREFETCH REQUESTED:   75949011 ISSUED:   23892277 USEFUL:    1075977 USELESS:     272237 LATE:      14948
cpu0->cpu0_L1D AVERAGE MISS LATENCY: 177.3 cycles
cpu0->cpu0_ITLB TOTAL        ACCESS:    1149240 HIT:    1149240 MISS:          0 MSHR_MERGE:          0
cpu0->cpu0_ITLB LOAD         ACCESS:    1149240 HIT:    1149240 MISS:          0 MSHR_MERGE:          0
cpu0->cpu0_ITLB RFO          ACCESS:          0 HIT:          0 MISS:          0 MSHR_MERGE:          0
cpu0->cpu0_ITLB PREFETCH     ACCESS:          0 HIT:          0 MISS:          0 MSHR_MERGE:          0
cpu0->cpu0_ITLB WRITE        ACCESS:          0 HIT:          0 MISS:          0 MSHR_MERGE:          0
cpu0->cpu0_ITLB TRANSLATION  ACCESS:          0 HIT:          0 MISS:          0 MSHR_MERGE:          0
cpu0->cpu0_ITLB PREFETCH REQUESTED:          0 ISSUED:          0 USEFUL:          0 USELESS:          0 LATE:          0
cpu0->cpu0_ITLB AVERAGE MISS LATENCY: - cycles
cpu0->cpu0_DTLB TOTAL        ACCESS:   39400062 HIT:   37671096 MISS:    1728966 MSHR_MERGE:     113302
cpu0->cpu0_DTLB LOAD         ACCESS:   39400062 HIT:   37671096 MISS:    1728966 MSHR_MERGE:     113302
cpu0->cpu0_DTLB RFO          ACCESS:          0 HIT:          0 MISS:          0 MSHR_MERGE:          0
cpu0->cpu0_DTLB PREFETCH     ACCESS:          0 HIT:          0 MISS:          0 MSHR_MERGE:          0
cpu0->cpu0_DTLB WRITE        ACCESS:          0 HIT:          0 MISS:          0 MSHR_MERGE:          0
cpu0->cpu0_DTLB TRANSLATION  ACCESS:          0 HIT:          0 MISS:          0 MSHR_MERGE:          0
cpu0->cpu0_DTLB PREFETCH REQUESTED:          0 ISSUED:          0 USEFUL:          0 USELESS:          0 LATE:          0
cpu0->cpu0_DTLB AVERAGE MISS LATENCY: 5.004 cycles
cpu0->LLC TOTAL        ACCESS:    3941513 HIT:     463022 MISS:    3478491 MSHR_MERGE:      15626
cpu0->LLC LOAD         ACCESS:    1752048 HIT:     309627 MISS:    1442421 MSHR_MERGE:         97
cpu0->LLC RFO          ACCESS:     112876 HIT:      15002 MISS:      97874 MSHR_MERGE:          0
cpu0->LLC PREFETCH     ACCESS:    1674228 HIT:      32521 MISS:    1641707 MSHR_MERGE:      15529
cpu0->LLC WRITE        ACCESS:     402361 HIT:     105872 MISS:     296489 MSHR_MERGE:          0
cpu0->LLC TRANSLATION  ACCESS:          0 HIT:          0 MISS:          0 MSHR_MERGE:          0
cpu0->LLC PREFETCH REQUESTED:          0 ISSUED:          0 USEFUL:          0 USELESS:          0 LATE:          0
cpu0->LLC AVERAGE MISS LATENCY: 186.8 cycles

DRAM Statistics

Channel 0 RQ ROW_BUFFER_HIT:      54048
  ROW_BUFFER_MISS:    3112297
  AVG DBUS CONGESTED CYCLE: 12.47
Channel 0 WQ ROW_BUFFER_HIT:     107571
  ROW_BUFFER_MISS:     246044
  FULL:          0
Channel 0 REFRESHES ISSUED:      20056

[ROI Statistics]
[System Configuration]
num_cpus 1
cpu_freq 4000
fetch_width 6
decode_width 6
dispatch_width 6
execute_width 6
lq_width 2
sq_width 2
retire_width 6
scheduler_size 128
branch_mispredict_penalty 15
rob_size 352
lq_size 128
sq_size 72
ifetch_buffer_size 64
decode_buffer_size 32
dispatch_buffer_size 32
register_file_size 288
decode_latency 1
dispatch_latency 1
schedule_latency 1
execute_latency 1
page_size 4096
block_size 64
core_0_itlb_set 16
core_0_itlb_way 4
core_0_itlb_rq_size 16
core_0_itlb_wq_size 16
core_0_itlb_pq_size 0
core_0_itlb_mshr_size 8
core_0_itlb_hit_latency 1
core_0_itlb_fill_latency 1
core_0_itlb_max_tag_check 2
core_0_itlb_max_fill 2
core_0_dtlb_set 16
core_0_dtlb_way 4
core_0_dtlb_rq_size 16
core_0_dtlb_wq_size 16
core_0_dtlb_pq_size 0
core_0_dtlb_mshr_size 8
core_0_dtlb_hit_latency 1
core_0_dtlb_fill_latency 1
core_0_dtlb_max_tag_check 2
core_0_dtlb_max_fill 2
core_0_stlb_set 128
core_0_stlb_way 12
core_0_stlb_rq_size 32
core_0_stlb_wq_size 32
core_0_stlb_pq_size 0
core_0_stlb_mshr_size 16
core_0_stlb_hit_latency 4
core_0_stlb_fill_latency 4
core_0_stlb_max_tag_check 1
core_0_stlb_max_fill 1
core_0_l1i_set 64
core_0_l1i_way 8
core_0_l1i_rq_size 64
core_0_l1i_wq_size 64
core_0_l1i_pq_size 32
core_0_l1i_mshr_size 8
core_0_l1i_hit_latency 2
core_0_l1i_fill_latency 2
core_0_l1i_max_tag_check 2
core_0_l1i_max_fill 2
core_0_l1d_set 64
core_0_l1d_way 12
core_0_l1d_rq_size 64
core_0_l1d_wq_size 64
core_0_l1d_pq_size 8
core_0_l1d_mshr_size 16
core_0_l1d_hit_latency 2
core_0_l1d_fill_latency 3
core_0_l1d_max_tag_check 2
core_0_l1d_max_fill 2
core_0_l2c_set 1024
core_0_l2c_way 8
core_0_l2c_rq_size 32
core_0_l2c_wq_size 32
core_0_l2c_pq_size 16
core_0_l2c_mshr_size 32
core_0_l2c_hit_latency 5
core_0_l2c_fill_latency 5
core_0_l2c_max_tag_check 1
core_0_l2c_max_fill 1
llc_set 2048
llc_way 16
llc_rq_size 32
llc_wq_size 32
llc_pq_size 32
llc_mshr_size 64
llc_hit_latency 10
llc_fill_latency 10
llc_max_tag_check 1
llc_max_fill 1
dram_channels 1
dram_ranks 1
dram_bankgroups 8
dram_banks 4
dram_rows 65536
dram_columns 1024
dram_channel_width 8
dram_rq_size 64
dram_wq_size 64
dram_size 17179869184
core_0_itlb_prefetcher no
core_0_dtlb_prefetcher no
core_0_stlb_prefetcher no
core_0_l1i_prefetcher next_line
core_0_l1d_prefetcher vberti
core_0_l2c_prefetcher ip_stride
llc_prefetcher no
llc_replacement drrip

Core_0_instructions 100000000
Core_0_cycles 240672327
Core_0_IPC 0.415503
Core_0_branch_prediction_accuracy 88.1309
Core_0_branch_MPKI 18.4026
Core_0_average_ROB_occupancy_at_mispredict 26.0223

Core_0_ITLB_total_access 1149240
Core_0_ITLB_total_hit 1149240
Core_0_ITLB_total_miss 0
Core_0_ITLB_total_MPKI 0
Core_0_ITLB_total_miss_rate 0
Core_0_ITLB_demand_access 1149240
Core_0_ITLB_demand_hit 1149240
Core_0_ITLB_demand_miss 0
Core_0_ITLB_demand_MPKI 0
Core_0_ITLB_demand_miss_rate 0
Core_0_ITLB_load_access 1149240
Core_0_ITLB_load_hit 1149240
Core_0_ITLB_load_miss 0
Core_0_ITLB_load_MPKI 0
Core_0_ITLB_load_miss_rate 0
Core_0_ITLB_rfo_access 0
Core_0_ITLB_rfo_hit 0
Core_0_ITLB_rfo_miss 0
Core_0_ITLB_rfo_MPKI 0
Core_0_ITLB_rfo_miss_rate 0
Core_0_ITLB_prefetch_access 0
Core_0_ITLB_prefetch_hit 0
Core_0_ITLB_prefetch_miss 0
Core_0_ITLB_prefetch_MPKI 0
Core_0_ITLB_prefetch_miss_rate 0
Core_0_ITLB_writeback_access 0
Core_0_ITLB_writeback_hit 0
Core_0_ITLB_writeback_miss 0
Core_0_ITLB_writeback_MPKI 0
Core_0_ITLB_writeback_miss_rate 0
Core_0_ITLB_prefetch_requested 0
Core_0_ITLB_prefetch_issued 0
Core_0_ITLB_prefetch_useful 0
Core_0_ITLB_prefetch_useless 0
Core_0_ITLB_prefetch_late 0
Core_0_ITLB_prefetch_accuracy 0
Core_0_ITLB_prefetch_coverage 0
Core_0_ITLB_total_eviction 0

Core_0_DTLB_total_access 39400062
Core_0_DTLB_total_hit 37671096
Core_0_DTLB_total_miss 1728966
Core_0_DTLB_total_MPKI 17.2897
Core_0_DTLB_total_miss_rate 0.0438823
Core_0_DTLB_demand_access 39400062
Core_0_DTLB_demand_hit 37671096
Core_0_DTLB_demand_miss 1728966
Core_0_DTLB_demand_MPKI 17.2897
Core_0_DTLB_demand_miss_rate 0.0438823
Core_0_DTLB_load_access 39400062
Core_0_DTLB_load_hit 37671096
Core_0_DTLB_load_miss 1728966
Core_0_DTLB_load_MPKI 17.2897
Core_0_DTLB_load_miss_rate 0.0438823
Core_0_DTLB_rfo_access 0
Core_0_DTLB_rfo_hit 0
Core_0_DTLB_rfo_miss 0
Core_0_DTLB_rfo_MPKI 0
Core_0_DTLB_rfo_miss_rate 0
Core_0_DTLB_prefetch_access 0
Core_0_DTLB_prefetch_hit 0
Core_0_DTLB_prefetch_miss 0
Core_0_DTLB_prefetch_MPKI 0
Core_0_DTLB_prefetch_miss_rate 0
Core_0_DTLB_writeback_access 0
Core_0_DTLB_writeback_hit 0
Core_0_DTLB_writeback_miss 0
Core_0_DTLB_writeback_MPKI 0
Core_0_DTLB_writeback_miss_rate 0
Core_0_DTLB_prefetch_requested 0
Core_0_DTLB_prefetch_issued 0
Core_0_DTLB_prefetch_useful 0
Core_0_DTLB_prefetch_useless 0
Core_0_DTLB_prefetch_late 0
Core_0_DTLB_prefetch_accuracy 0
Core_0_DTLB_prefetch_coverage 0
Core_0_DTLB_total_eviction 1615664

Core_0_STLB_total_access 1615664
Core_0_STLB_total_hit 1615664
Core_0_STLB_total_miss 0
Core_0_STLB_total_MPKI 0
Core_0_STLB_total_miss_rate 0
Core_0_STLB_demand_access 1615664
Core_0_STLB_demand_hit 1615664
Core_0_STLB_demand_miss 0
Core_0_STLB_demand_MPKI 0
Core_0_STLB_demand_miss_rate 0
Core_0_STLB_load_access 1615664
Core_0_STLB_load_hit 1615664
Core_0_STLB_load_miss 0
Core_0_STLB_load_MPKI 0
Core_0_STLB_load_miss_rate 0
Core_0_STLB_rfo_access 0
Core_0_STLB_rfo_hit 0
Core_0_STLB_rfo_miss 0
Core_0_STLB_rfo_MPKI 0
Core_0_STLB_rfo_miss_rate 0
Core_0_STLB_prefetch_access 0
Core_0_STLB_prefetch_hit 0
Core_0_STLB_prefetch_miss 0
Core_0_STLB_prefetch_MPKI 0
Core_0_STLB_prefetch_miss_rate 0
Core_0_STLB_writeback_access 0
Core_0_STLB_writeback_hit 0
Core_0_STLB_writeback_miss 0
Core_0_STLB_writeback_MPKI 0
Core_0_STLB_writeback_miss_rate 0
Core_0_STLB_prefetch_requested 0
Core_0_STLB_prefetch_issued 0
Core_0_STLB_prefetch_useful 0
Core_0_STLB_prefetch_useless 0
Core_0_STLB_prefetch_late 0
Core_0_STLB_prefetch_accuracy 0
Core_0_STLB_prefetch_coverage 0
Core_0_STLB_total_eviction 616691

Core_0_L1I_total_access 1149247
Core_0_L1I_total_hit 1149247
Core_0_L1I_total_miss 0
Core_0_L1I_total_MPKI 0
Core_0_L1I_total_miss_rate 0
Core_0_L1I_demand_access 1149247
Core_0_L1I_demand_hit 1149247
Core_0_L1I_demand_miss 0
Core_0_L1I_demand_MPKI 0
Core_0_L1I_demand_miss_rate 0
Core_0_L1I_load_access 1149247
Core_0_L1I_load_hit 1149247
Core_0_L1I_load_miss 0
Core_0_L1I_load_MPKI 0
Core_0_L1I_load_miss_rate 0
Core_0_L1I_rfo_access 0
Core_0_L1I_rfo_hit 0
Core_0_L1I_rfo_miss 0
Core_0_L1I_rfo_MPKI 0
Core_0_L1I_rfo_miss_rate 0
Core_0_L1I_prefetch_access 0
Core_0_L1I_prefetch_hit 0
Core_0_L1I_prefetch_miss 0
Core_0_L1I_prefetch_MPKI 0
Core_0_L1I_prefetch_miss_rate 0
Core_0_L1I_writeback_access 0
Core_0_L1I_writeback_hit 0
Core_0_L1I_writeback_miss 0
Core_0_L1I_writeback_MPKI 0
Core_0_L1I_writeback_miss_rate 0
Core_0_L1I_prefetch_requested 0
Core_0_L1I_prefetch_issued 0
Core_0_L1I_prefetch_useful 0
Core_0_L1I_prefetch_useless 0
Core_0_L1I_prefetch_late 0
Core_0_L1I_prefetch_accuracy 0
Core_0_L1I_prefetch_coverage 0
Core_0_L1I_total_eviction 0

Core_0_L1D_total_access 47868487
Core_0_L1D_total_hit 40018117
Core_0_L1D_total_miss 7850370
Core_0_L1D_total_MPKI 78.5037
Core_0_L1D_total_miss_rate 0.163999
Core_0_L1D_demand_access 23219731
Core_0_L1D_demand_hit 20557910
Core_0_L1D_demand_miss 2661821
Core_0_L1D_demand_MPKI 26.6182
Core_0_L1D_demand_miss_rate 0.114636
Core_0_L1D_load_access 23219731
Core_0_L1D_load_hit 20557910
Core_0_L1D_load_miss 2661821
Core_0_L1D_load_MPKI 26.6182
Core_0_L1D_load_miss_rate 0.114636
Core_0_L1D_rfo_access 0
Core_0_L1D_rfo_hit 0
Core_0_L1D_rfo_miss 0
Core_0_L1D_rfo_MPKI 0
Core_0_L1D_rfo_miss_rate 0
Core_0_L1D_prefetch_access 23892285
Core_0_L1D_prefetch_hit 18855720
Core_0_L1D_prefetch_miss 5036565
Core_0_L1D_prefetch_MPKI 50.3657
Core_0_L1D_prefetch_miss_rate 0.210803
Core_0_L1D_writeback_access 756471
Core_0_L1D_writeback_hit 604487
Core_0_L1D_writeback_miss 151984
Core_0_L1D_writeback_MPKI 1.51984
Core_0_L1D_writeback_miss_rate 0.200912
Core_0_L1D_prefetch_requested 75949011
Core_0_L1D_prefetch_issued 23892277
Core_0_L1D_prefetch_useful 1075977
Core_0_L1D_prefetch_useless 272237
Core_0_L1D_prefetch_late 14948
Core_0_L1D_prefetch_accuracy 0.0450345
Core_0_L1D_prefetch_coverage 0.287864
Core_0_L1D_total_eviction 3545841

Core_0_L2C_total_access 9374449
Core_0_L2C_total_hit 4983317
Core_0_L2C_total_miss 4391132
Core_0_L2C_total_MPKI 43.9113
Core_0_L2C_total_miss_rate 0.468415
Core_0_L2C_demand_access 2197499
Core_0_L2C_demand_hit 323849
Core_0_L2C_demand_miss 1873650
Core_0_L2C_demand_MPKI 18.7365
Core_0_L2C_demand_miss_rate 0.852628
Core_0_L2C_load_access 2077680
Core_0_L2C_load_hit 316910
Core_0_L2C_load_miss 1760770
Core_0_L2C_load_MPKI 17.6077
Core_0_L2C_load_miss_rate 0.847469
Core_0_L2C_rfo_access 119819
Core_0_L2C_rfo_hit 6939
Core_0_L2C_rfo_miss 112880
Core_0_L2C_rfo_MPKI 1.1288
Core_0_L2C_rfo_miss_rate 0.942088
Core_0_L2C_prefetch_access 6757545
Core_0_L2C_prefetch_hit 4240094
Core_0_L2C_prefetch_miss 2517451
Core_0_L2C_prefetch_MPKI 25.1745
Core_0_L2C_prefetch_miss_rate 0.372539
Core_0_L2C_writeback_access 419405
Core_0_L2C_writeback_hit 419374
Core_0_L2C_writeback_miss 31
Core_0_L2C_writeback_MPKI 0.00031
Core_0_L2C_writeback_miss_rate 7.39142e-05
Core_0_L2C_prefetch_requested 1799740
Core_0_L2C_prefetch_issued 1799694
Core_0_L2C_prefetch_useful 408991
Core_0_L2C_prefetch_useless 164046
Core_0_L2C_prefetch_late 5279
Core_0_L2C_prefetch_accuracy 0.227256
Core_0_L2C_prefetch_coverage 0.179174
Core_0_L2C_total_eviction 3507810

Core_0_LLC_total_access 3941513
Core_0_LLC_total_hit 463022
Core_0_LLC_total_miss 3478491
Core_0_LLC_total_MPKI 34.7849
Core_0_LLC_total_miss_rate 0.882527
Core_0_LLC_demand_access 1864924
Core_0_LLC_demand_hit 324629
Core_0_LLC_demand_miss 1540295
Core_0_LLC_demand_MPKI 15.403
Core_0_LLC_demand_miss_rate 0.825929
Core_0_LLC_load_access 1752048
Core_0_LLC_load_hit 309627
Core_0_LLC_load_miss 1442421
Core_0_LLC_load_MPKI 14.4242
Core_0_LLC_load_miss_rate 0.823277
Core_0_LLC_rfo_access 112876
Core_0_LLC_rfo_hit 15002
Core_0_LLC_rfo_miss 97874
Core_0_LLC_rfo_MPKI 0.97874
Core_0_LLC_rfo_miss_rate 0.867093
Core_0_LLC_prefetch_access 1674228
Core_0_LLC_prefetch_hit 32521
Core_0_LLC_prefetch_miss 1641707
Core_0_LLC_prefetch_MPKI 16.4171
Core_0_LLC_prefetch_miss_rate 0.980576
Core_0_LLC_writeback_access 402361
Core_0_LLC_writeback_hit 105872
Core_0_LLC_writeback_miss 296489
Core_0_LLC_writeback_MPKI 2.96489
Core_0_LLC_writeback_miss_rate 0.736873
Core_0_LLC_prefetch_requested 0
Core_0_LLC_prefetch_issued 0
Core_0_LLC_prefetch_useful 0
Core_0_LLC_prefetch_useless 0
Core_0_LLC_prefetch_late 0
Core_0_LLC_prefetch_accuracy 0
Core_0_LLC_prefetch_coverage 0
Core_0_LLC_total_eviction 3462863

[DRAM Statistics]
Channel_0_RQ_row_buffer_hit 54048
Channel_0_RQ_row_buffer_miss 3112297
Channel_0_WQ_row_buffer_hit 107571
Channel_0_WQ_row_buffer_miss 246044
Channel_0_WQ_full 0
Channel_0_dbus_congested 8670650
DRAM_total_RQ_row_buffer_hit 54048
DRAM_total_RQ_row_buffer_miss 3112297
DRAM_total_WQ_row_buffer_hit 107571
DRAM_total_WQ_row_buffer_miss 246044
DRAM_total_WQ_full 0
DRAM_total_dbus_congested 8670650
DRAM_avg_congested_cycle 12.4711

======STLB miss causes ========
Core_0_STLB_miss_cause_breakdown
Core_0_STLB_cause_Demand_Data_miss 0
Core_0_STLB_cause_Demand_Data_miss_rate 0
Core_0_STLB_cause_Demand_Instruction_miss 0
Core_0_STLB_cause_Demand_Instruction_miss_rate 0
Core_0_STLB_cause_L1D_Prefetch_miss 0
Core_0_STLB_cause_L1D_Prefetch_miss_rate 0
Core_0_STLB_cause_L1I_Prefetch_miss 0
Core_0_STLB_cause_L1I_Prefetch_miss_rate 0
Core_0_STLB_cause_Other_miss 0
Core_0_STLB_cause_Other_miss_rate 0
Core_0_STLB_Demand_miss 0
Core_0_STLB_Demand_miss_rate 0
Core_0_STLB_L1D_Prefetch_miss 0
Core_0_STLB_L1D_Prefetch_miss_rate 0
Core_0_STLB_Other_miss 0
Core_0_STLB_Other_miss_rate 0
BERTI TO_L1: 48306621 TO_L2: 41633542 TO_L2_BC_MSHR: 188357
BERTI AVG_LAT: 111.54 NUM_TRACK_LATENCY: 5442745 NUM_CANT_TRACK_LATENCY: 17
BERTI CROSS_PAGE 10337852 NO_CROSS_PAGE: 79602311
BERTI FOUND_BERTI: 26292753 NO_FOUND_BERTI: 6900751
BERTI AVERAGE_ISSUED: 2.98528
