[VMEM] WARNING: physical memory size is smaller than virtual memory size.

*** ChampSim Multicore Out-of-Order Simulator ***
Warmup Instructions: 50000000
Simulation Instructions: 100000000
Number of CPUs: 1
Page size: 4096
STLB ideal mode: all
STLB ideal fill: on
Core 0: /data0/tzh/champsim_traces/Ligra/ligra_Components-Shortcut.com-lj.ungraph.gcc_6.3.0_O3.drop_22000M.length_250M.champsimtrace.xz
VBerti Prefetcher
BERTI HASH ENTANGLING
BERTI IP MASK ffff
Off-chip DRAM Size: 16 GiB Channels: 1 Width: 64-bit Data Rate: 3205 MT/s
Warmup halting CPU 0 at instruction 50000005 cycle 13193148 for remainder of phase
Warmup finished CPU 0 instructions: 50000005 cycles: 13193148 cumulative IPC: 3.79 (Simulation time: 00 hr 02 min 43 sec)
Warmup complete CPU 0 instructions: 50000005 cycles: 13193148 cumulative IPC: 3.79 (Simulation time: 00 hr 02 min 43 sec)
Simulation finished CPU 0 instructions: 100000003 cycles: 212907600 cumulative IPC: 0.4697 (Simulation time: 00 hr 21 min 47 sec)
Simulation complete CPU 0 instructions: 100000003 cycles: 212907600 cumulative IPC: 0.4697 (Simulation time: 00 hr 21 min 47 sec)

ChampSim completed all CPUs

=== Simulation ===
CPU 0 runs /data0/tzh/champsim_traces/Ligra/ligra_Components-Shortcut.com-lj.ungraph.gcc_6.3.0_O3.drop_22000M.length_250M.champsimtrace.xz

Region of Interest Statistics

CPU 0 cumulative IPC: 0.4697 instructions: 100000003 cycles: 212907600
CPU 0 Branch Prediction Accuracy: 97.13% MPKI: 7.534 Average ROB Occupancy at Mispredict: 92.29
Branch type MPKI
BRANCH_DIRECT_JUMP: 0
BRANCH_INDIRECT: 0
BRANCH_CONDITIONAL: 7.534
BRANCH_DIRECT_CALL: 0
BRANCH_INDIRECT_CALL: 0
BRANCH_RETURN: 0

cpu0->cpu0_STLB TOTAL        ACCESS:    7275118 HIT:    7275118 MISS:          0 MSHR_MERGE:          0
cpu0->cpu0_STLB LOAD         ACCESS:    7275118 HIT:    7275118 MISS:          0 MSHR_MERGE:          0
cpu0->cpu0_STLB RFO          ACCESS:          0 HIT:          0 MISS:          0 MSHR_MERGE:          0
cpu0->cpu0_STLB PREFETCH     ACCESS:          0 HIT:          0 MISS:          0 MSHR_MERGE:          0
cpu0->cpu0_STLB WRITE        ACCESS:          0 HIT:          0 MISS:          0 MSHR_MERGE:          0
cpu0->cpu0_STLB TRANSLATION  ACCESS:          0 HIT:          0 MISS:          0 MSHR_MERGE:          0
cpu0->cpu0_STLB PREFETCH REQUESTED:          0 ISSUED:          0 USEFUL:          0 USELESS:          0 LATE:          0
cpu0->cpu0_STLB AVERAGE MISS LATENCY: - cycles
cpu0->cpu0_L2C TOTAL        ACCESS:    9527929 HIT:    2748823 MISS:    6779106 MSHR_MERGE:     475148
cpu0->cpu0_L2C LOAD         ACCESS:    7402855 HIT:    2051519 MISS:    5351336 MSHR_MERGE:       1544
cpu0->cpu0_L2C RFO          ACCESS:          0 HIT:          0 MISS:          0 MSHR_MERGE:          0
cpu0->cpu0_L2C PREFETCH     ACCESS:    2077924 HIT:     650194 MISS:    1427730 MSHR_MERGE:     473604
cpu0->cpu0_L2C WRITE        ACCESS:      47150 HIT:      47110 MISS:         40 MSHR_MERGE:          0
cpu0->cpu0_L2C TRANSLATION  ACCESS:          0 HIT:          0 MISS:          0 MSHR_MERGE:          0
cpu0->cpu0_L2C PREFETCH REQUESTED:     891971 ISSUED:     891822 USEFUL:     279677 USELESS:     116537 LATE:       1430
cpu0->cpu0_L2C AVERAGE MISS LATENCY: 120.3 cycles
cpu0->cpu0_L1I TOTAL        ACCESS:     617981 HIT:     617981 MISS:          0 MSHR_MERGE:          0
cpu0->cpu0_L1I LOAD         ACCESS:     617981 HIT:     617981 MISS:          0 MSHR_MERGE:          0
cpu0->cpu0_L1I RFO          ACCESS:          0 HIT:          0 MISS:          0 MSHR_MERGE:          0
cpu0->cpu0_L1I PREFETCH     ACCESS:          0 HIT:          0 MISS:          0 MSHR_MERGE:          0
cpu0->cpu0_L1I WRITE        ACCESS:          0 HIT:          0 MISS:          0 MSHR_MERGE:          0
cpu0->cpu0_L1I TRANSLATION  ACCESS:          0 HIT:          0 MISS:          0 MSHR_MERGE:          0
cpu0->cpu0_L1I PREFETCH REQUESTED:          0 ISSUED:          0 USEFUL:          0 USELESS:          0 LATE:          0
cpu0->cpu0_L1I AVERAGE MISS LATENCY: - cycles
cpu0->cpu0_L1D TOTAL        ACCESS:   42071159 HIT:   33326180 MISS:    8744979 MSHR_MERGE:     152976
cpu0->cpu0_L1D LOAD         ACCESS:   25988585 HIT:   18433092 MISS:    7555493 MSHR_MERGE:     152637
cpu0->cpu0_L1D RFO          ACCESS:          0 HIT:          0 MISS:          0 MSHR_MERGE:          0
cpu0->cpu0_L1D PREFETCH     ACCESS:   15328170 HIT:   14138684 MISS:    1189486 MSHR_MERGE:        339
cpu0->cpu0_L1D WRITE        ACCESS:     754404 HIT:     754404 MISS:          0 MSHR_MERGE:          0
cpu0->cpu0_L1D TRANSLATION  ACCESS:          0 HIT:          0 MISS:          0 MSHR_MERGE:          0
cpu0->cpu0_L1D PREFETCH REQUESTED:   75303136 ISSUED:   15328163 USEFUL:     829629 USELESS:        751 LATE:       1043
cpu0->cpu0_L1D AVERAGE MISS LATENCY: 95.75 cycles
cpu0->cpu0_ITLB TOTAL        ACCESS:     447888 HIT:     447888 MISS:          0 MSHR_MERGE:          0
cpu0->cpu0_ITLB LOAD         ACCESS:     447888 HIT:     447888 MISS:          0 MSHR_MERGE:          0
cpu0->cpu0_ITLB RFO          ACCESS:          0 HIT:          0 MISS:          0 MSHR_MERGE:          0
cpu0->cpu0_ITLB PREFETCH     ACCESS:          0 HIT:          0 MISS:          0 MSHR_MERGE:          0
cpu0->cpu0_ITLB WRITE        ACCESS:          0 HIT:          0 MISS:          0 MSHR_MERGE:          0
cpu0->cpu0_ITLB TRANSLATION  ACCESS:          0 HIT:          0 MISS:          0 MSHR_MERGE:          0
cpu0->cpu0_ITLB PREFETCH REQUESTED:          0 ISSUED:          0 USEFUL:          0 USELESS:          0 LATE:          0
cpu0->cpu0_ITLB AVERAGE MISS LATENCY: - cycles
cpu0->cpu0_DTLB TOTAL        ACCESS:   38408404 HIT:   30677872 MISS:    7730532 MSHR_MERGE:     455414
cpu0->cpu0_DTLB LOAD         ACCESS:   38408404 HIT:   30677872 MISS:    7730532 MSHR_MERGE:     455414
cpu0->cpu0_DTLB RFO          ACCESS:          0 HIT:          0 MISS:          0 MSHR_MERGE:          0
cpu0->cpu0_DTLB PREFETCH     ACCESS:          0 HIT:          0 MISS:          0 MSHR_MERGE:          0
cpu0->cpu0_DTLB WRITE        ACCESS:          0 HIT:          0 MISS:          0 MSHR_MERGE:          0
cpu0->cpu0_DTLB TRANSLATION  ACCESS:          0 HIT:          0 MISS:          0 MSHR_MERGE:          0
cpu0->cpu0_DTLB PREFETCH REQUESTED:          0 ISSUED:          0 USEFUL:          0 USELESS:          0 LATE:          0
cpu0->cpu0_DTLB AVERAGE MISS LATENCY: 5.021 cycles
cpu0->LLC TOTAL        ACCESS:    6351046 HIT:    3005676 MISS:    3345370 MSHR_MERGE:      36776
cpu0->LLC LOAD         ACCESS:    5349792 HIT:    2946631 MISS:    2403161 MSHR_MERGE:        357
cpu0->LLC RFO          ACCESS:          0 HIT:          0 MISS:          0 MSHR_MERGE:          0
cpu0->LLC PREFETCH     ACCESS:     954125 HIT:      47808 MISS:     906317 MSHR_MERGE:      36419
cpu0->LLC WRITE        ACCESS:      47129 HIT:      11237 MISS:      35892 MSHR_MERGE:          0
cpu0->LLC TRANSLATION  ACCESS:          0 HIT:          0 MISS:          0 MSHR_MERGE:          0
cpu0->LLC PREFETCH REQUESTED:          0 ISSUED:          0 USEFUL:          0 USELESS:          0 LATE:          0
cpu0->LLC AVERAGE MISS LATENCY: 230.1 cycles

DRAM Statistics

Channel 0 RQ ROW_BUFFER_HIT:      10153
  ROW_BUFFER_MISS:    3262516
  AVG DBUS CONGESTED CYCLE: 7.339
Channel 0 WQ ROW_BUFFER_HIT:      11182
  ROW_BUFFER_MISS:      36410
  FULL:          0
Channel 0 REFRESHES ISSUED:      17742

[ROI Statistics]
[System Configuration]
num_cpus 1
cpu_freq 4000
fetch_width 6
decode_width 6
dispatch_width 6
execute_width 6
lq_width 2
sq_width 2
retire_width 6
scheduler_size 128
branch_mispredict_penalty 15
rob_size 352
lq_size 128
sq_size 72
ifetch_buffer_size 64
decode_buffer_size 32
dispatch_buffer_size 32
register_file_size 288
decode_latency 1
dispatch_latency 1
schedule_latency 1
execute_latency 1
page_size 4096
block_size 64
core_0_itlb_set 16
core_0_itlb_way 4
core_0_itlb_rq_size 16
core_0_itlb_wq_size 16
core_0_itlb_pq_size 0
core_0_itlb_mshr_size 8
core_0_itlb_hit_latency 1
core_0_itlb_fill_latency 1
core_0_itlb_max_tag_check 2
core_0_itlb_max_fill 2
core_0_dtlb_set 16
core_0_dtlb_way 4
core_0_dtlb_rq_size 16
core_0_dtlb_wq_size 16
core_0_dtlb_pq_size 0
core_0_dtlb_mshr_size 8
core_0_dtlb_hit_latency 1
core_0_dtlb_fill_latency 1
core_0_dtlb_max_tag_check 2
core_0_dtlb_max_fill 2
core_0_stlb_set 128
core_0_stlb_way 12
core_0_stlb_rq_size 32
core_0_stlb_wq_size 32
core_0_stlb_pq_size 0
core_0_stlb_mshr_size 16
core_0_stlb_hit_latency 4
core_0_stlb_fill_latency 4
core_0_stlb_max_tag_check 1
core_0_stlb_max_fill 1
core_0_l1i_set 64
core_0_l1i_way 8
core_0_l1i_rq_size 64
core_0_l1i_wq_size 64
core_0_l1i_pq_size 32
core_0_l1i_mshr_size 8
core_0_l1i_hit_latency 2
core_0_l1i_fill_latency 2
core_0_l1i_max_tag_check 2
core_0_l1i_max_fill 2
core_0_l1d_set 64
core_0_l1d_way 12
core_0_l1d_rq_size 64
core_0_l1d_wq_size 64
core_0_l1d_pq_size 8
core_0_l1d_mshr_size 16
core_0_l1d_hit_latency 2
core_0_l1d_fill_latency 3
core_0_l1d_max_tag_check 2
core_0_l1d_max_fill 2
core_0_l2c_set 1024
core_0_l2c_way 8
core_0_l2c_rq_size 32
core_0_l2c_wq_size 32
core_0_l2c_pq_size 16
core_0_l2c_mshr_size 32
core_0_l2c_hit_latency 5
core_0_l2c_fill_latency 5
core_0_l2c_max_tag_check 1
core_0_l2c_max_fill 1
llc_set 2048
llc_way 16
llc_rq_size 32
llc_wq_size 32
llc_pq_size 32
llc_mshr_size 64
llc_hit_latency 10
llc_fill_latency 10
llc_max_tag_check 1
llc_max_fill 1
dram_channels 1
dram_ranks 1
dram_bankgroups 8
dram_banks 4
dram_rows 65536
dram_columns 1024
dram_channel_width 8
dram_rq_size 64
dram_wq_size 64
dram_size 17179869184
core_0_itlb_prefetcher no
core_0_dtlb_prefetcher no
core_0_stlb_prefetcher no
core_0_l1i_prefetcher next_line
core_0_l1d_prefetcher vberti
core_0_l2c_prefetcher ip_stride
llc_prefetcher no
llc_replacement drrip

Core_0_instructions 100000003
Core_0_cycles 212907600
Core_0_IPC 0.469687
Core_0_branch_prediction_accuracy 97.1294
Core_0_branch_MPKI 7.53369
Core_0_average_ROB_occupancy_at_mispredict 92.2931

Core_0_ITLB_total_access 447888
Core_0_ITLB_total_hit 447888
Core_0_ITLB_total_miss 0
Core_0_ITLB_total_MPKI 0
Core_0_ITLB_total_miss_rate 0
Core_0_ITLB_demand_access 447888
Core_0_ITLB_demand_hit 447888
Core_0_ITLB_demand_miss 0
Core_0_ITLB_demand_MPKI 0
Core_0_ITLB_demand_miss_rate 0
Core_0_ITLB_load_access 447888
Core_0_ITLB_load_hit 447888
Core_0_ITLB_load_miss 0
Core_0_ITLB_load_MPKI 0
Core_0_ITLB_load_miss_rate 0
Core_0_ITLB_rfo_access 0
Core_0_ITLB_rfo_hit 0
Core_0_ITLB_rfo_miss 0
Core_0_ITLB_rfo_MPKI 0
Core_0_ITLB_rfo_miss_rate 0
Core_0_ITLB_prefetch_access 0
Core_0_ITLB_prefetch_hit 0
Core_0_ITLB_prefetch_miss 0
Core_0_ITLB_prefetch_MPKI 0
Core_0_ITLB_prefetch_miss_rate 0
Core_0_ITLB_writeback_access 0
Core_0_ITLB_writeback_hit 0
Core_0_ITLB_writeback_miss 0
Core_0_ITLB_writeback_MPKI 0
Core_0_ITLB_writeback_miss_rate 0
Core_0_ITLB_prefetch_requested 0
Core_0_ITLB_prefetch_issued 0
Core_0_ITLB_prefetch_useful 0
Core_0_ITLB_prefetch_useless 0
Core_0_ITLB_prefetch_late 0
Core_0_ITLB_prefetch_accuracy 0
Core_0_ITLB_prefetch_coverage 0
Core_0_ITLB_total_eviction 0

Core_0_DTLB_total_access 38408404
Core_0_DTLB_total_hit 30677872
Core_0_DTLB_total_miss 7730532
Core_0_DTLB_total_MPKI 77.3053
Core_0_DTLB_total_miss_rate 0.201272
Core_0_DTLB_demand_access 38408404
Core_0_DTLB_demand_hit 30677872
Core_0_DTLB_demand_miss 7730532
Core_0_DTLB_demand_MPKI 77.3053
Core_0_DTLB_demand_miss_rate 0.201272
Core_0_DTLB_load_access 38408404
Core_0_DTLB_load_hit 30677872
Core_0_DTLB_load_miss 7730532
Core_0_DTLB_load_MPKI 77.3053
Core_0_DTLB_load_miss_rate 0.201272
Core_0_DTLB_rfo_access 0
Core_0_DTLB_rfo_hit 0
Core_0_DTLB_rfo_miss 0
Core_0_DTLB_rfo_MPKI 0
Core_0_DTLB_rfo_miss_rate 0
Core_0_DTLB_prefetch_access 0
Core_0_DTLB_prefetch_hit 0
Core_0_DTLB_prefetch_miss 0
Core_0_DTLB_prefetch_MPKI 0
Core_0_DTLB_prefetch_miss_rate 0
Core_0_DTLB_writeback_access 0
Core_0_DTLB_writeback_hit 0
Core_0_DTLB_writeback_miss 0
Core_0_DTLB_writeback_MPKI 0
Core_0_DTLB_writeback_miss_rate 0
Core_0_DTLB_prefetch_requested 0
Core_0_DTLB_prefetch_issued 0
Core_0_DTLB_prefetch_useful 0
Core_0_DTLB_prefetch_useless 0
Core_0_DTLB_prefetch_late 0
Core_0_DTLB_prefetch_accuracy 0
Core_0_DTLB_prefetch_coverage 0
Core_0_DTLB_total_eviction 7275118

Core_0_STLB_total_access 7275118
Core_0_STLB_total_hit 7275118
Core_0_STLB_total_miss 0
Core_0_STLB_total_MPKI 0
Core_0_STLB_total_miss_rate 0
Core_0_STLB_demand_access 7275118
Core_0_STLB_demand_hit 7275118
Core_0_STLB_demand_miss 0
Core_0_STLB_demand_MPKI 0
Core_0_STLB_demand_miss_rate 0
Core_0_STLB_load_access 7275118
Core_0_STLB_load_hit 7275118
Core_0_STLB_load_miss 0
Core_0_STLB_load_MPKI 0
Core_0_STLB_load_miss_rate 0
Core_0_STLB_rfo_access 0
Core_0_STLB_rfo_hit 0
Core_0_STLB_rfo_miss 0
Core_0_STLB_rfo_MPKI 0
Core_0_STLB_rfo_miss_rate 0
Core_0_STLB_prefetch_access 0
Core_0_STLB_prefetch_hit 0
Core_0_STLB_prefetch_miss 0
Core_0_STLB_prefetch_MPKI 0
Core_0_STLB_prefetch_miss_rate 0
Core_0_STLB_writeback_access 0
Core_0_STLB_writeback_hit 0
Core_0_STLB_writeback_miss 0
Core_0_STLB_writeback_MPKI 0
Core_0_STLB_writeback_miss_rate 0
Core_0_STLB_prefetch_requested 0
Core_0_STLB_prefetch_issued 0
Core_0_STLB_prefetch_useful 0
Core_0_STLB_prefetch_useless 0
Core_0_STLB_prefetch_late 0
Core_0_STLB_prefetch_accuracy 0
Core_0_STLB_prefetch_coverage 0
Core_0_STLB_total_eviction 125916

Core_0_L1I_total_access 617981
Core_0_L1I_total_hit 617981
Core_0_L1I_total_miss 0
Core_0_L1I_total_MPKI 0
Core_0_L1I_total_miss_rate 0
Core_0_L1I_demand_access 617981
Core_0_L1I_demand_hit 617981
Core_0_L1I_demand_miss 0
Core_0_L1I_demand_MPKI 0
Core_0_L1I_demand_miss_rate 0
Core_0_L1I_load_access 617981
Core_0_L1I_load_hit 617981
Core_0_L1I_load_miss 0
Core_0_L1I_load_MPKI 0
Core_0_L1I_load_miss_rate 0
Core_0_L1I_rfo_access 0
Core_0_L1I_rfo_hit 0
Core_0_L1I_rfo_miss 0
Core_0_L1I_rfo_MPKI 0
Core_0_L1I_rfo_miss_rate 0
Core_0_L1I_prefetch_access 0
Core_0_L1I_prefetch_hit 0
Core_0_L1I_prefetch_miss 0
Core_0_L1I_prefetch_MPKI 0
Core_0_L1I_prefetch_miss_rate 0
Core_0_L1I_writeback_access 0
Core_0_L1I_writeback_hit 0
Core_0_L1I_writeback_miss 0
Core_0_L1I_writeback_MPKI 0
Core_0_L1I_writeback_miss_rate 0
Core_0_L1I_prefetch_requested 0
Core_0_L1I_prefetch_issued 0
Core_0_L1I_prefetch_useful 0
Core_0_L1I_prefetch_useless 0
Core_0_L1I_prefetch_late 0
Core_0_L1I_prefetch_accuracy 0
Core_0_L1I_prefetch_coverage 0
Core_0_L1I_total_eviction 0

Core_0_L1D_total_access 42071159
Core_0_L1D_total_hit 33326180
Core_0_L1D_total_miss 8744979
Core_0_L1D_total_MPKI 87.4498
Core_0_L1D_total_miss_rate 0.207862
Core_0_L1D_demand_access 25988585
Core_0_L1D_demand_hit 18433092
Core_0_L1D_demand_miss 7555493
Core_0_L1D_demand_MPKI 75.5549
Core_0_L1D_demand_miss_rate 0.290724
Core_0_L1D_load_access 25988585
Core_0_L1D_load_hit 18433092
Core_0_L1D_load_miss 7555493
Core_0_L1D_load_MPKI 75.5549
Core_0_L1D_load_miss_rate 0.290724
Core_0_L1D_rfo_access 0
Core_0_L1D_rfo_hit 0
Core_0_L1D_rfo_miss 0
Core_0_L1D_rfo_MPKI 0
Core_0_L1D_rfo_miss_rate 0
Core_0_L1D_prefetch_access 15328170
Core_0_L1D_prefetch_hit 14138684
Core_0_L1D_prefetch_miss 1189486
Core_0_L1D_prefetch_MPKI 11.8949
Core_0_L1D_prefetch_miss_rate 0.0776013
Core_0_L1D_writeback_access 754404
Core_0_L1D_writeback_hit 754404
Core_0_L1D_writeback_miss 0
Core_0_L1D_writeback_MPKI 0
Core_0_L1D_writeback_miss_rate 0
Core_0_L1D_prefetch_requested 75303136
Core_0_L1D_prefetch_issued 15328163
Core_0_L1D_prefetch_useful 829629
Core_0_L1D_prefetch_useless 751
Core_0_L1D_prefetch_late 1043
Core_0_L1D_prefetch_accuracy 0.0541245
Core_0_L1D_prefetch_coverage 0.0989406
Core_0_L1D_total_eviction 8233247

Core_0_L2C_total_access 9527929
Core_0_L2C_total_hit 2748823
Core_0_L2C_total_miss 6779106
Core_0_L2C_total_MPKI 67.7911
Core_0_L2C_total_miss_rate 0.711498
Core_0_L2C_demand_access 7402855
Core_0_L2C_demand_hit 2051519
Core_0_L2C_demand_miss 5351336
Core_0_L2C_demand_MPKI 53.5134
Core_0_L2C_demand_miss_rate 0.722875
Core_0_L2C_load_access 7402855
Core_0_L2C_load_hit 2051519
Core_0_L2C_load_miss 5351336
Core_0_L2C_load_MPKI 53.5134
Core_0_L2C_load_miss_rate 0.722875
Core_0_L2C_rfo_access 0
Core_0_L2C_rfo_hit 0
Core_0_L2C_rfo_miss 0
Core_0_L2C_rfo_MPKI 0
Core_0_L2C_rfo_miss_rate 0
Core_0_L2C_prefetch_access 2077924
Core_0_L2C_prefetch_hit 650194
Core_0_L2C_prefetch_miss 1427730
Core_0_L2C_prefetch_MPKI 14.2773
Core_0_L2C_prefetch_miss_rate 0.687094
Core_0_L2C_writeback_access 47150
Core_0_L2C_writeback_hit 47110
Core_0_L2C_writeback_miss 40
Core_0_L2C_writeback_MPKI 0.0004
Core_0_L2C_writeback_miss_rate 0.000848356
Core_0_L2C_prefetch_requested 891971
Core_0_L2C_prefetch_issued 891822
Core_0_L2C_prefetch_useful 279677
Core_0_L2C_prefetch_useless 116537
Core_0_L2C_prefetch_late 1430
Core_0_L2C_prefetch_accuracy 0.313602
Core_0_L2C_prefetch_coverage 0.0496673
Core_0_L2C_total_eviction 6235720

Core_0_LLC_total_access 6351046
Core_0_LLC_total_hit 3005676
Core_0_LLC_total_miss 3345370
Core_0_LLC_total_MPKI 33.4537
Core_0_LLC_total_miss_rate 0.526743
Core_0_LLC_demand_access 5349792
Core_0_LLC_demand_hit 2946631
Core_0_LLC_demand_miss 2403161
Core_0_LLC_demand_MPKI 24.0316
Core_0_LLC_demand_miss_rate 0.449206
Core_0_LLC_load_access 5349792
Core_0_LLC_load_hit 2946631
Core_0_LLC_load_miss 2403161
Core_0_LLC_load_MPKI 24.0316
Core_0_LLC_load_miss_rate 0.449206
Core_0_LLC_rfo_access 0
Core_0_LLC_rfo_hit 0
Core_0_LLC_rfo_miss 0
Core_0_LLC_rfo_MPKI 0
Core_0_LLC_rfo_miss_rate 0
Core_0_LLC_prefetch_access 954125
Core_0_LLC_prefetch_hit 47808
Core_0_LLC_prefetch_miss 906317
Core_0_LLC_prefetch_MPKI 9.06317
Core_0_LLC_prefetch_miss_rate 0.949893
Core_0_LLC_writeback_access 47129
Core_0_LLC_writeback_hit 11237
Core_0_LLC_writeback_miss 35892
Core_0_LLC_writeback_MPKI 0.35892
Core_0_LLC_writeback_miss_rate 0.761569
Core_0_LLC_prefetch_requested 0
Core_0_LLC_prefetch_issued 0
Core_0_LLC_prefetch_useful 0
Core_0_LLC_prefetch_useless 0
Core_0_LLC_prefetch_late 0
Core_0_LLC_prefetch_accuracy 0
Core_0_LLC_prefetch_coverage 0
Core_0_LLC_total_eviction 3308595

[DRAM Statistics]
Channel_0_RQ_row_buffer_hit 10153
Channel_0_RQ_row_buffer_miss 3262516
Channel_0_WQ_row_buffer_hit 11182
Channel_0_WQ_row_buffer_miss 36410
Channel_0_WQ_full 0
Channel_0_dbus_congested 6046221
DRAM_total_RQ_row_buffer_hit 10153
DRAM_total_RQ_row_buffer_miss 3262516
DRAM_total_WQ_row_buffer_hit 11182
DRAM_total_WQ_row_buffer_miss 36410
DRAM_total_WQ_full 0
DRAM_total_dbus_congested 6046221
DRAM_avg_congested_cycle 7.33875

======STLB miss causes ========
Core_0_STLB_miss_cause_breakdown
Core_0_STLB_cause_Demand_Data_miss 0
Core_0_STLB_cause_Demand_Data_miss_rate 0
Core_0_STLB_cause_Demand_Instruction_miss 0
Core_0_STLB_cause_Demand_Instruction_miss_rate 0
Core_0_STLB_cause_L1D_Prefetch_miss 0
Core_0_STLB_cause_L1D_Prefetch_miss_rate 0
Core_0_STLB_cause_L1I_Prefetch_miss 0
Core_0_STLB_cause_L1I_Prefetch_miss_rate 0
Core_0_STLB_cause_Other_miss 0
Core_0_STLB_cause_Other_miss_rate 0
Core_0_STLB_Demand_miss 0
Core_0_STLB_Demand_miss_rate 0
Core_0_STLB_L1D_Prefetch_miss 0
Core_0_STLB_L1D_Prefetch_miss_rate 0
Core_0_STLB_Other_miss 0
Core_0_STLB_Other_miss_rate 0
BERTI TO_L1: 90491046 TO_L2: 7946511 TO_L2_BC_MSHR: 2771198
BERTI AVG_LAT: 70.1103 NUM_TRACK_LATENCY: 12629660 NUM_CANT_TRACK_LATENCY: 9
BERTI CROSS_PAGE 12347139 NO_CROSS_PAGE: 86090418
BERTI FOUND_BERTI: 36395270 NO_FOUND_BERTI: 6943380
BERTI AVERAGE_ISSUED: 2.61693
