[VMEM] WARNING: physical memory size is smaller than virtual memory size.

*** ChampSim Multicore Out-of-Order Simulator ***
Warmup Instructions: 50000000
Simulation Instructions: 100000000
Number of CPUs: 1
Page size: 4096
STLB ideal mode: all
STLB ideal fill: on
Core 0: /data0/tzh/champsim_traces/PARSEC/parsec_2.1.canneal.simlarge.prebuilt.drop_500M.length_250M.champsimtrace.xz
VBerti Prefetcher
BERTI HASH ENTANGLING
BERTI IP MASK ffff
Off-chip DRAM Size: 16 GiB Channels: 1 Width: 64-bit Data Rate: 3205 MT/s
Warmup halting CPU 0 at instruction 50000004 cycle 10878845 for remainder of phase
Warmup finished CPU 0 instructions: 50000004 cycles: 10878845 cumulative IPC: 4.596 (Simulation time: 00 hr 02 min 17 sec)
Warmup complete CPU 0 instructions: 50000004 cycles: 10878845 cumulative IPC: 4.596 (Simulation time: 00 hr 02 min 17 sec)
Simulation finished CPU 0 instructions: 100000001 cycles: 147174902 cumulative IPC: 0.6795 (Simulation time: 00 hr 14 min 36 sec)
Simulation complete CPU 0 instructions: 100000001 cycles: 147174902 cumulative IPC: 0.6795 (Simulation time: 00 hr 14 min 36 sec)

ChampSim completed all CPUs

=== Simulation ===
CPU 0 runs /data0/tzh/champsim_traces/PARSEC/parsec_2.1.canneal.simlarge.prebuilt.drop_500M.length_250M.champsimtrace.xz

Region of Interest Statistics

CPU 0 cumulative IPC: 0.6795 instructions: 100000001 cycles: 147174902
CPU 0 Branch Prediction Accuracy: 95.88% MPKI: 8.145 Average ROB Occupancy at Mispredict: 72.53
Branch type MPKI
BRANCH_DIRECT_JUMP: 0
BRANCH_INDIRECT: 0.2084
BRANCH_CONDITIONAL: 7.774
BRANCH_DIRECT_CALL: 0.1622
BRANCH_INDIRECT_CALL: 8e-05
BRANCH_RETURN: 0

cpu0->cpu0_STLB TOTAL        ACCESS:     640993 HIT:     640993 MISS:          0 MSHR_MERGE:          0
cpu0->cpu0_STLB LOAD         ACCESS:     640993 HIT:     640993 MISS:          0 MSHR_MERGE:          0
cpu0->cpu0_STLB RFO          ACCESS:          0 HIT:          0 MISS:          0 MSHR_MERGE:          0
cpu0->cpu0_STLB PREFETCH     ACCESS:          0 HIT:          0 MISS:          0 MSHR_MERGE:          0
cpu0->cpu0_STLB WRITE        ACCESS:          0 HIT:          0 MISS:          0 MSHR_MERGE:          0
cpu0->cpu0_STLB TRANSLATION  ACCESS:          0 HIT:          0 MISS:          0 MSHR_MERGE:          0
cpu0->cpu0_STLB PREFETCH REQUESTED:          0 ISSUED:          0 USEFUL:          0 USELESS:          0 LATE:          0
cpu0->cpu0_STLB AVERAGE MISS LATENCY: - cycles
cpu0->cpu0_L2C TOTAL        ACCESS:    1401181 HIT:     658002 MISS:     743179 MSHR_MERGE:       8047
cpu0->cpu0_L2C LOAD         ACCESS:     975937 HIT:     336400 MISS:     639537 MSHR_MERGE:          0
cpu0->cpu0_L2C RFO          ACCESS:       5096 HIT:       3767 MISS:       1329 MSHR_MERGE:         11
cpu0->cpu0_L2C PREFETCH     ACCESS:     222092 HIT:     120179 MISS:     101913 MSHR_MERGE:       8036
cpu0->cpu0_L2C WRITE        ACCESS:     198056 HIT:     197656 MISS:        400 MSHR_MERGE:          0
cpu0->cpu0_L2C TRANSLATION  ACCESS:          0 HIT:          0 MISS:          0 MSHR_MERGE:          0
cpu0->cpu0_L2C PREFETCH REQUESTED:      49064 ISSUED:      49064 USEFUL:      27536 USELESS:       2110 LATE:          0
cpu0->cpu0_L2C AVERAGE MISS LATENCY: 137.2 cycles
cpu0->cpu0_L1I TOTAL        ACCESS:   10725756 HIT:   10704258 MISS:      21498 MSHR_MERGE:        571
cpu0->cpu0_L1I LOAD         ACCESS:   10725756 HIT:   10704258 MISS:      21498 MSHR_MERGE:        571
cpu0->cpu0_L1I RFO          ACCESS:          0 HIT:          0 MISS:          0 MSHR_MERGE:          0
cpu0->cpu0_L1I PREFETCH     ACCESS:          0 HIT:          0 MISS:          0 MSHR_MERGE:          0
cpu0->cpu0_L1I WRITE        ACCESS:          0 HIT:          0 MISS:          0 MSHR_MERGE:          0
cpu0->cpu0_L1I TRANSLATION  ACCESS:          0 HIT:          0 MISS:          0 MSHR_MERGE:          0
cpu0->cpu0_L1I PREFETCH REQUESTED:          0 ISSUED:          0 USEFUL:          0 USELESS:          0 LATE:          0
cpu0->cpu0_L1I AVERAGE MISS LATENCY: 7.448 cycles
cpu0->cpu0_L1D TOTAL        ACCESS:   30261400 HIT:   29079706 MISS:    1181694 MSHR_MERGE:      48558
cpu0->cpu0_L1D LOAD         ACCESS:   18977477 HIT:   17982054 MISS:     995423 MSHR_MERGE:      40411
cpu0->cpu0_L1D RFO          ACCESS:          0 HIT:          0 MISS:          0 MSHR_MERGE:          0
cpu0->cpu0_L1D PREFETCH     ACCESS:     452158 HIT:     279102 MISS:     173056 MSHR_MERGE:         28
cpu0->cpu0_L1D WRITE        ACCESS:   10831765 HIT:   10818550 MISS:      13215 MSHR_MERGE:       8119
cpu0->cpu0_L1D TRANSLATION  ACCESS:          0 HIT:          0 MISS:          0 MSHR_MERGE:          0
cpu0->cpu0_L1D PREFETCH REQUESTED:     452158 ISSUED:     452158 USEFUL:      66522 USELESS:        314 LATE:         64
cpu0->cpu0_L1D AVERAGE MISS LATENCY: 100.4 cycles
cpu0->cpu0_ITLB TOTAL        ACCESS:    9344398 HIT:    9344344 MISS:         54 MSHR_MERGE:          0
cpu0->cpu0_ITLB LOAD         ACCESS:    9344398 HIT:    9344344 MISS:         54 MSHR_MERGE:          0
cpu0->cpu0_ITLB RFO          ACCESS:          0 HIT:          0 MISS:          0 MSHR_MERGE:          0
cpu0->cpu0_ITLB PREFETCH     ACCESS:          0 HIT:          0 MISS:          0 MSHR_MERGE:          0
cpu0->cpu0_ITLB WRITE        ACCESS:          0 HIT:          0 MISS:          0 MSHR_MERGE:          0
cpu0->cpu0_ITLB TRANSLATION  ACCESS:          0 HIT:          0 MISS:          0 MSHR_MERGE:          0
cpu0->cpu0_ITLB PREFETCH REQUESTED:          0 ISSUED:          0 USEFUL:          0 USELESS:          0 LATE:          0
cpu0->cpu0_ITLB AVERAGE MISS LATENCY: 5 cycles
cpu0->cpu0_DTLB TOTAL        ACCESS:   28900553 HIT:   28135415 MISS:     765138 MSHR_MERGE:     124199
cpu0->cpu0_DTLB LOAD         ACCESS:   28900553 HIT:   28135415 MISS:     765138 MSHR_MERGE:     124199
cpu0->cpu0_DTLB RFO          ACCESS:          0 HIT:          0 MISS:          0 MSHR_MERGE:          0
cpu0->cpu0_DTLB PREFETCH     ACCESS:          0 HIT:          0 MISS:          0 MSHR_MERGE:          0
cpu0->cpu0_DTLB WRITE        ACCESS:          0 HIT:          0 MISS:          0 MSHR_MERGE:          0
cpu0->cpu0_DTLB TRANSLATION  ACCESS:          0 HIT:          0 MISS:          0 MSHR_MERGE:          0
cpu0->cpu0_DTLB PREFETCH REQUESTED:          0 ISSUED:          0 USEFUL:          0 USELESS:          0 LATE:          0
cpu0->cpu0_DTLB AVERAGE MISS LATENCY: 5 cycles
cpu0->LLC TOTAL        ACCESS:     927689 HIT:     393162 MISS:     534527 MSHR_MERGE:          0
cpu0->LLC LOAD         ACCESS:     639537 HIT:     218429 MISS:     421108 MSHR_MERGE:          0
cpu0->LLC RFO          ACCESS:       1318 HIT:        116 MISS:       1202 MSHR_MERGE:          0
cpu0->LLC PREFETCH     ACCESS:      93877 HIT:       3760 MISS:      90117 MSHR_MERGE:          0
cpu0->LLC WRITE        ACCESS:     192957 HIT:     170857 MISS:      22100 MSHR_MERGE:          0
cpu0->LLC TRANSLATION  ACCESS:          0 HIT:          0 MISS:          0 MSHR_MERGE:          0
cpu0->LLC PREFETCH REQUESTED:          0 ISSUED:          0 USEFUL:          0 USELESS:          0 LATE:          0
cpu0->LLC AVERAGE MISS LATENCY: 175.9 cycles

DRAM Statistics

Channel 0 RQ ROW_BUFFER_HIT:        185
  ROW_BUFFER_MISS:     512242
  AVG DBUS CONGESTED CYCLE: 21
Channel 0 WQ ROW_BUFFER_HIT:      71846
  ROW_BUFFER_MISS:     117855
  FULL:          0
Channel 0 REFRESHES ISSUED:      12265

[ROI Statistics]
[System Configuration]
num_cpus 1
cpu_freq 4000
fetch_width 6
decode_width 6
dispatch_width 6
execute_width 6
lq_width 2
sq_width 2
retire_width 6
scheduler_size 128
branch_mispredict_penalty 15
rob_size 352
lq_size 128
sq_size 72
ifetch_buffer_size 64
decode_buffer_size 32
dispatch_buffer_size 32
register_file_size 288
decode_latency 1
dispatch_latency 1
schedule_latency 1
execute_latency 1
page_size 4096
block_size 64
core_0_itlb_set 16
core_0_itlb_way 4
core_0_itlb_rq_size 16
core_0_itlb_wq_size 16
core_0_itlb_pq_size 0
core_0_itlb_mshr_size 8
core_0_itlb_hit_latency 1
core_0_itlb_fill_latency 1
core_0_itlb_max_tag_check 2
core_0_itlb_max_fill 2
core_0_dtlb_set 16
core_0_dtlb_way 4
core_0_dtlb_rq_size 16
core_0_dtlb_wq_size 16
core_0_dtlb_pq_size 0
core_0_dtlb_mshr_size 8
core_0_dtlb_hit_latency 1
core_0_dtlb_fill_latency 1
core_0_dtlb_max_tag_check 2
core_0_dtlb_max_fill 2
core_0_stlb_set 128
core_0_stlb_way 12
core_0_stlb_rq_size 32
core_0_stlb_wq_size 32
core_0_stlb_pq_size 0
core_0_stlb_mshr_size 16
core_0_stlb_hit_latency 4
core_0_stlb_fill_latency 4
core_0_stlb_max_tag_check 1
core_0_stlb_max_fill 1
core_0_l1i_set 64
core_0_l1i_way 8
core_0_l1i_rq_size 64
core_0_l1i_wq_size 64
core_0_l1i_pq_size 32
core_0_l1i_mshr_size 8
core_0_l1i_hit_latency 2
core_0_l1i_fill_latency 2
core_0_l1i_max_tag_check 2
core_0_l1i_max_fill 2
core_0_l1d_set 64
core_0_l1d_way 12
core_0_l1d_rq_size 64
core_0_l1d_wq_size 64
core_0_l1d_pq_size 8
core_0_l1d_mshr_size 16
core_0_l1d_hit_latency 2
core_0_l1d_fill_latency 3
core_0_l1d_max_tag_check 2
core_0_l1d_max_fill 2
core_0_l2c_set 1024
core_0_l2c_way 8
core_0_l2c_rq_size 32
core_0_l2c_wq_size 32
core_0_l2c_pq_size 16
core_0_l2c_mshr_size 32
core_0_l2c_hit_latency 5
core_0_l2c_fill_latency 5
core_0_l2c_max_tag_check 1
core_0_l2c_max_fill 1
llc_set 2048
llc_way 16
llc_rq_size 32
llc_wq_size 32
llc_pq_size 32
llc_mshr_size 64
llc_hit_latency 10
llc_fill_latency 10
llc_max_tag_check 1
llc_max_fill 1
dram_channels 1
dram_ranks 1
dram_bankgroups 8
dram_banks 4
dram_rows 65536
dram_columns 1024
dram_channel_width 8
dram_rq_size 64
dram_wq_size 64
dram_size 17179869184
core_0_itlb_prefetcher no
core_0_dtlb_prefetcher no
core_0_stlb_prefetcher no
core_0_l1i_prefetcher next_line
core_0_l1d_prefetcher vberti
core_0_l2c_prefetcher ip_stride
llc_prefetcher no
llc_replacement drrip

Core_0_instructions 100000001
Core_0_cycles 147174902
Core_0_IPC 0.679464
Core_0_branch_prediction_accuracy 95.885
Core_0_branch_MPKI 8.14483
Core_0_average_ROB_occupancy_at_mispredict 72.5337

Core_0_ITLB_total_access 9344398
Core_0_ITLB_total_hit 9344344
Core_0_ITLB_total_miss 54
Core_0_ITLB_total_MPKI 0.00054
Core_0_ITLB_total_miss_rate 5.77886e-06
Core_0_ITLB_demand_access 9344398
Core_0_ITLB_demand_hit 9344344
Core_0_ITLB_demand_miss 54
Core_0_ITLB_demand_MPKI 0.00054
Core_0_ITLB_demand_miss_rate 5.77886e-06
Core_0_ITLB_load_access 9344398
Core_0_ITLB_load_hit 9344344
Core_0_ITLB_load_miss 54
Core_0_ITLB_load_MPKI 0.00054
Core_0_ITLB_load_miss_rate 5.77886e-06
Core_0_ITLB_rfo_access 0
Core_0_ITLB_rfo_hit 0
Core_0_ITLB_rfo_miss 0
Core_0_ITLB_rfo_MPKI 0
Core_0_ITLB_rfo_miss_rate 0
Core_0_ITLB_prefetch_access 0
Core_0_ITLB_prefetch_hit 0
Core_0_ITLB_prefetch_miss 0
Core_0_ITLB_prefetch_MPKI 0
Core_0_ITLB_prefetch_miss_rate 0
Core_0_ITLB_writeback_access 0
Core_0_ITLB_writeback_hit 0
Core_0_ITLB_writeback_miss 0
Core_0_ITLB_writeback_MPKI 0
Core_0_ITLB_writeback_miss_rate 0
Core_0_ITLB_prefetch_requested 0
Core_0_ITLB_prefetch_issued 0
Core_0_ITLB_prefetch_useful 0
Core_0_ITLB_prefetch_useless 0
Core_0_ITLB_prefetch_late 0
Core_0_ITLB_prefetch_accuracy 0
Core_0_ITLB_prefetch_coverage 0
Core_0_ITLB_total_eviction 54

Core_0_DTLB_total_access 28900553
Core_0_DTLB_total_hit 28135415
Core_0_DTLB_total_miss 765138
Core_0_DTLB_total_MPKI 7.65138
Core_0_DTLB_total_miss_rate 0.0264749
Core_0_DTLB_demand_access 28900553
Core_0_DTLB_demand_hit 28135415
Core_0_DTLB_demand_miss 765138
Core_0_DTLB_demand_MPKI 7.65138
Core_0_DTLB_demand_miss_rate 0.0264749
Core_0_DTLB_load_access 28900553
Core_0_DTLB_load_hit 28135415
Core_0_DTLB_load_miss 765138
Core_0_DTLB_load_MPKI 7.65138
Core_0_DTLB_load_miss_rate 0.0264749
Core_0_DTLB_rfo_access 0
Core_0_DTLB_rfo_hit 0
Core_0_DTLB_rfo_miss 0
Core_0_DTLB_rfo_MPKI 0
Core_0_DTLB_rfo_miss_rate 0
Core_0_DTLB_prefetch_access 0
Core_0_DTLB_prefetch_hit 0
Core_0_DTLB_prefetch_miss 0
Core_0_DTLB_prefetch_MPKI 0
Core_0_DTLB_prefetch_miss_rate 0
Core_0_DTLB_writeback_access 0
Core_0_DTLB_writeback_hit 0
Core_0_DTLB_writeback_miss 0
Core_0_DTLB_writeback_MPKI 0
Core_0_DTLB_writeback_miss_rate 0
Core_0_DTLB_prefetch_requested 0
Core_0_DTLB_prefetch_issued 0
Core_0_DTLB_prefetch_useful 0
Core_0_DTLB_prefetch_useless 0
Core_0_DTLB_prefetch_late 0
Core_0_DTLB_prefetch_accuracy 0
Core_0_DTLB_prefetch_coverage 0
Core_0_DTLB_total_eviction 640939

Core_0_STLB_total_access 640993
Core_0_STLB_total_hit 640993
Core_0_STLB_total_miss 0
Core_0_STLB_total_MPKI 0
Core_0_STLB_total_miss_rate 0
Core_0_STLB_demand_access 640993
Core_0_STLB_demand_hit 640993
Core_0_STLB_demand_miss 0
Core_0_STLB_demand_MPKI 0
Core_0_STLB_demand_miss_rate 0
Core_0_STLB_load_access 640993
Core_0_STLB_load_hit 640993
Core_0_STLB_load_miss 0
Core_0_STLB_load_MPKI 0
Core_0_STLB_load_miss_rate 0
Core_0_STLB_rfo_access 0
Core_0_STLB_rfo_hit 0
Core_0_STLB_rfo_miss 0
Core_0_STLB_rfo_MPKI 0
Core_0_STLB_rfo_miss_rate 0
Core_0_STLB_prefetch_access 0
Core_0_STLB_prefetch_hit 0
Core_0_STLB_prefetch_miss 0
Core_0_STLB_prefetch_MPKI 0
Core_0_STLB_prefetch_miss_rate 0
Core_0_STLB_writeback_access 0
Core_0_STLB_writeback_hit 0
Core_0_STLB_writeback_miss 0
Core_0_STLB_writeback_MPKI 0
Core_0_STLB_writeback_miss_rate 0
Core_0_STLB_prefetch_requested 0
Core_0_STLB_prefetch_issued 0
Core_0_STLB_prefetch_useful 0
Core_0_STLB_prefetch_useless 0
Core_0_STLB_prefetch_late 0
Core_0_STLB_prefetch_accuracy 0
Core_0_STLB_prefetch_coverage 0
Core_0_STLB_total_eviction 164527

Core_0_L1I_total_access 10725756
Core_0_L1I_total_hit 10704258
Core_0_L1I_total_miss 21498
Core_0_L1I_total_MPKI 0.21498
Core_0_L1I_total_miss_rate 0.00200433
Core_0_L1I_demand_access 10725756
Core_0_L1I_demand_hit 10704258
Core_0_L1I_demand_miss 21498
Core_0_L1I_demand_MPKI 0.21498
Core_0_L1I_demand_miss_rate 0.00200433
Core_0_L1I_load_access 10725756
Core_0_L1I_load_hit 10704258
Core_0_L1I_load_miss 21498
Core_0_L1I_load_MPKI 0.21498
Core_0_L1I_load_miss_rate 0.00200433
Core_0_L1I_rfo_access 0
Core_0_L1I_rfo_hit 0
Core_0_L1I_rfo_miss 0
Core_0_L1I_rfo_MPKI 0
Core_0_L1I_rfo_miss_rate 0
Core_0_L1I_prefetch_access 0
Core_0_L1I_prefetch_hit 0
Core_0_L1I_prefetch_miss 0
Core_0_L1I_prefetch_MPKI 0
Core_0_L1I_prefetch_miss_rate 0
Core_0_L1I_writeback_access 0
Core_0_L1I_writeback_hit 0
Core_0_L1I_writeback_miss 0
Core_0_L1I_writeback_MPKI 0
Core_0_L1I_writeback_miss_rate 0
Core_0_L1I_prefetch_requested 0
Core_0_L1I_prefetch_issued 0
Core_0_L1I_prefetch_useful 0
Core_0_L1I_prefetch_useless 0
Core_0_L1I_prefetch_late 0
Core_0_L1I_prefetch_accuracy 0
Core_0_L1I_prefetch_coverage 0
Core_0_L1I_total_eviction 20927

Core_0_L1D_total_access 30261400
Core_0_L1D_total_hit 29079706
Core_0_L1D_total_miss 1181694
Core_0_L1D_total_MPKI 11.8169
Core_0_L1D_total_miss_rate 0.0390495
Core_0_L1D_demand_access 18977477
Core_0_L1D_demand_hit 17982054
Core_0_L1D_demand_miss 995423
Core_0_L1D_demand_MPKI 9.95423
Core_0_L1D_demand_miss_rate 0.0524529
Core_0_L1D_load_access 18977477
Core_0_L1D_load_hit 17982054
Core_0_L1D_load_miss 995423
Core_0_L1D_load_MPKI 9.95423
Core_0_L1D_load_miss_rate 0.0524529
Core_0_L1D_rfo_access 0
Core_0_L1D_rfo_hit 0
Core_0_L1D_rfo_miss 0
Core_0_L1D_rfo_MPKI 0
Core_0_L1D_rfo_miss_rate 0
Core_0_L1D_prefetch_access 452158
Core_0_L1D_prefetch_hit 279102
Core_0_L1D_prefetch_miss 173056
Core_0_L1D_prefetch_MPKI 1.73056
Core_0_L1D_prefetch_miss_rate 0.382733
Core_0_L1D_writeback_access 10831765
Core_0_L1D_writeback_hit 10818550
Core_0_L1D_writeback_miss 13215
Core_0_L1D_writeback_MPKI 0.13215
Core_0_L1D_writeback_miss_rate 0.00122002
Core_0_L1D_prefetch_requested 452158
Core_0_L1D_prefetch_issued 452158
Core_0_L1D_prefetch_useful 66522
Core_0_L1D_prefetch_useless 314
Core_0_L1D_prefetch_late 64
Core_0_L1D_prefetch_accuracy 0.147121
Core_0_L1D_prefetch_coverage 0.0626417
Core_0_L1D_total_eviction 1026945

Core_0_L2C_total_access 1401181
Core_0_L2C_total_hit 658002
Core_0_L2C_total_miss 743179
Core_0_L2C_total_MPKI 7.43179
Core_0_L2C_total_miss_rate 0.530395
Core_0_L2C_demand_access 981033
Core_0_L2C_demand_hit 340167
Core_0_L2C_demand_miss 640866
Core_0_L2C_demand_MPKI 6.40866
Core_0_L2C_demand_miss_rate 0.653256
Core_0_L2C_load_access 975937
Core_0_L2C_load_hit 336400
Core_0_L2C_load_miss 639537
Core_0_L2C_load_MPKI 6.39537
Core_0_L2C_load_miss_rate 0.655306
Core_0_L2C_rfo_access 5096
Core_0_L2C_rfo_hit 3767
Core_0_L2C_rfo_miss 1329
Core_0_L2C_rfo_MPKI 0.01329
Core_0_L2C_rfo_miss_rate 0.260793
Core_0_L2C_prefetch_access 222092
Core_0_L2C_prefetch_hit 120179
Core_0_L2C_prefetch_miss 101913
Core_0_L2C_prefetch_MPKI 1.01913
Core_0_L2C_prefetch_miss_rate 0.458877
Core_0_L2C_writeback_access 198056
Core_0_L2C_writeback_hit 197656
Core_0_L2C_writeback_miss 400
Core_0_L2C_writeback_MPKI 0.004
Core_0_L2C_writeback_miss_rate 0.00201963
Core_0_L2C_prefetch_requested 49064
Core_0_L2C_prefetch_issued 49064
Core_0_L2C_prefetch_useful 27536
Core_0_L2C_prefetch_useless 2110
Core_0_L2C_prefetch_late 0
Core_0_L2C_prefetch_accuracy 0.561226
Core_0_L2C_prefetch_coverage 0.0411968
Core_0_L2C_total_eviction 735132

Core_0_LLC_total_access 927689
Core_0_LLC_total_hit 393162
Core_0_LLC_total_miss 534527
Core_0_LLC_total_MPKI 5.34527
Core_0_LLC_total_miss_rate 0.576192
Core_0_LLC_demand_access 640855
Core_0_LLC_demand_hit 218545
Core_0_LLC_demand_miss 422310
Core_0_LLC_demand_MPKI 4.2231
Core_0_LLC_demand_miss_rate 0.658979
Core_0_LLC_load_access 639537
Core_0_LLC_load_hit 218429
Core_0_LLC_load_miss 421108
Core_0_LLC_load_MPKI 4.21108
Core_0_LLC_load_miss_rate 0.658458
Core_0_LLC_rfo_access 1318
Core_0_LLC_rfo_hit 116
Core_0_LLC_rfo_miss 1202
Core_0_LLC_rfo_MPKI 0.01202
Core_0_LLC_rfo_miss_rate 0.911988
Core_0_LLC_prefetch_access 93877
Core_0_LLC_prefetch_hit 3760
Core_0_LLC_prefetch_miss 90117
Core_0_LLC_prefetch_MPKI 0.90117
Core_0_LLC_prefetch_miss_rate 0.959948
Core_0_LLC_writeback_access 192957
Core_0_LLC_writeback_hit 170857
Core_0_LLC_writeback_miss 22100
Core_0_LLC_writeback_MPKI 0.221
Core_0_LLC_writeback_miss_rate 0.114533
Core_0_LLC_prefetch_requested 0
Core_0_LLC_prefetch_issued 0
Core_0_LLC_prefetch_useful 0
Core_0_LLC_prefetch_useless 0
Core_0_LLC_prefetch_late 0
Core_0_LLC_prefetch_accuracy 0
Core_0_LLC_prefetch_coverage 0
Core_0_LLC_total_eviction 534527

[DRAM Statistics]
Channel_0_RQ_row_buffer_hit 185
Channel_0_RQ_row_buffer_miss 512242
Channel_0_WQ_row_buffer_hit 71846
Channel_0_WQ_row_buffer_miss 117855
Channel_0_WQ_full 0
Channel_0_dbus_congested 2325685
DRAM_total_RQ_row_buffer_hit 185
DRAM_total_RQ_row_buffer_miss 512242
DRAM_total_WQ_row_buffer_hit 71846
DRAM_total_WQ_row_buffer_miss 117855
DRAM_total_WQ_full 0
DRAM_total_dbus_congested 2325685
DRAM_avg_congested_cycle 21.0029

======STLB miss causes ========
Core_0_STLB_miss_cause_breakdown
Core_0_STLB_cause_Demand_Data_miss 0
Core_0_STLB_cause_Demand_Data_miss_rate 0
Core_0_STLB_cause_Demand_Instruction_miss 0
Core_0_STLB_cause_Demand_Instruction_miss_rate 0
Core_0_STLB_cause_L1D_Prefetch_miss 0
Core_0_STLB_cause_L1D_Prefetch_miss_rate 0
Core_0_STLB_cause_L1I_Prefetch_miss 0
Core_0_STLB_cause_L1I_Prefetch_miss_rate 0
Core_0_STLB_cause_Other_miss 0
Core_0_STLB_cause_Other_miss_rate 0
Core_0_STLB_Demand_miss 0
Core_0_STLB_Demand_miss_rate 0
Core_0_STLB_L1D_Prefetch_miss 0
Core_0_STLB_L1D_Prefetch_miss_rate 0
Core_0_STLB_Other_miss 0
Core_0_STLB_Other_miss_rate 0
BERTI TO_L1: 270437 TO_L2: 348294 TO_L2_BC_MSHR: 0
BERTI AVG_LAT: 71.646 NUM_TRACK_LATENCY: 1522551 NUM_CANT_TRACK_LATENCY: 0
BERTI CROSS_PAGE 13236 NO_CROSS_PAGE: 605495
BERTI FOUND_BERTI: 7155483 NO_FOUND_BERTI: 33154146
BERTI AVERAGE_ISSUED: 1.5693
