[VMEM] WARNING: physical memory size is smaller than virtual memory size.

*** ChampSim Multicore Out-of-Order Simulator ***
Warmup Instructions: 50000000
Simulation Instructions: 100000000
Number of CPUs: 1
Page size: 4096
STLB ideal mode: all
STLB ideal fill: on
Core 0: /data2/zcq/champsim_traces_gap/pr.urand-2209B.champsimtrace.xz
VBerti Prefetcher
BERTI HASH ENTANGLING
BERTI IP MASK ffff
Off-chip DRAM Size: 16 GiB Channels: 1 Width: 64-bit Data Rate: 3205 MT/s
Warmup halting CPU 0 at instruction 50000004 cycle 11497822 for remainder of phase
Warmup finished CPU 0 instructions: 50000004 cycles: 11497822 cumulative IPC: 4.349 (Simulation time: 00 hr 03 min 42 sec)
Warmup complete CPU 0 instructions: 50000004 cycles: 11497822 cumulative IPC: 4.349 (Simulation time: 00 hr 03 min 42 sec)
Simulation CPU 0 warning: IPC 0.025148 < 0.05
Simulation CPU 0 warning: IPC 0.025057 < 0.05
Simulation CPU 0 warning: IPC 0.025055 < 0.05
Simulation CPU 0 warning: IPC 0.025069 < 0.05
Simulation CPU 0 warning: IPC 0.02508 < 0.05
Simulation CPU 0 warning: IPC 0.025013 < 0.05
Simulation CPU 0 warning: IPC 0.025036 < 0.05
Simulation CPU 0 warning: IPC 0.024927 < 0.05
Simulation CPU 0 warning: IPC 0.025022 < 0.05
Simulation CPU 0 warning: IPC 0.024999 < 0.05
Simulation CPU 0 warning: IPC 0.024961 < 0.05
Simulation CPU 0 warning: IPC 0.025013 < 0.05
Simulation CPU 0 warning: IPC 0.025006 < 0.05
Simulation CPU 0 warning: IPC 0.025019 < 0.05
Simulation CPU 0 warning: IPC 0.024956 < 0.05
Simulation CPU 0 warning: IPC 0.024828 < 0.05
Simulation CPU 0 warning: IPC 0.024779 < 0.05
Simulation CPU 0 warning: IPC 0.024678 < 0.05
Simulation CPU 0 warning: IPC 0.024235 < 0.05
Simulation CPU 0 warning: IPC 0.023818 < 0.05
Simulation CPU 0 warning: IPC 0.024195 < 0.05
Simulation CPU 0 warning: IPC 0.024548 < 0.05
Simulation CPU 0 warning: IPC 0.024876 < 0.05
Simulation CPU 0 warning: IPC 0.024972 < 0.05
Simulation CPU 0 warning: IPC 0.024891 < 0.05
Simulation CPU 0 warning: IPC 0.025062 < 0.05
Simulation CPU 0 warning: IPC 0.025023 < 0.05
Simulation CPU 0 warning: IPC 0.024914 < 0.05
Simulation CPU 0 warning: IPC 0.02505 < 0.05
Simulation CPU 0 warning: IPC 0.02494 < 0.05
Simulation CPU 0 warning: IPC 0.024974 < 0.05
Simulation CPU 0 warning: IPC 0.024989 < 0.05
Simulation CPU 0 warning: IPC 0.024991 < 0.05
Simulation CPU 0 warning: IPC 0.024977 < 0.05
Simulation CPU 0 warning: IPC 0.02495 < 0.05
Simulation CPU 0 warning: IPC 0.024132 < 0.05
Simulation CPU 0 warning: IPC 0.023726 < 0.05
Simulation CPU 0 warning: IPC 0.0237 < 0.05
Simulation CPU 0 warning: IPC 0.023763 < 0.05
Simulation CPU 0 warning: IPC 0.023878 < 0.05
Simulation CPU 0 warning: IPC 0.023828 < 0.05
Simulation CPU 0 warning: IPC 0.023864 < 0.05
Simulation CPU 0 warning: IPC 0.023795 < 0.05
Simulation CPU 0 warning: IPC 0.023799 < 0.05
Simulation CPU 0 warning: IPC 0.023929 < 0.05
Simulation CPU 0 warning: IPC 0.024185 < 0.05
Simulation CPU 0 warning: IPC 0.024186 < 0.05
Simulation CPU 0 warning: IPC 0.024498 < 0.05
Simulation CPU 0 warning: IPC 0.024852 < 0.05
Simulation CPU 0 warning: IPC 0.025034 < 0.05
Simulation CPU 0 warning: IPC 0.025005 < 0.05
Simulation CPU 0 warning: IPC 0.025039 < 0.05
Simulation CPU 0 warning: IPC 0.024971 < 0.05
Simulation CPU 0 warning: IPC 0.025001 < 0.05
Simulation CPU 0 warning: IPC 0.024977 < 0.05
Simulation CPU 0 warning: IPC 0.024997 < 0.05
Simulation CPU 0 warning: IPC 0.025025 < 0.05
Simulation CPU 0 warning: IPC 0.025006 < 0.05
Simulation CPU 0 warning: IPC 0.024995 < 0.05
Simulation CPU 0 warning: IPC 0.025001 < 0.05
Simulation CPU 0 warning: IPC 0.025019 < 0.05
Simulation CPU 0 warning: IPC 0.024957 < 0.05
Simulation CPU 0 warning: IPC 0.025028 < 0.05
Simulation CPU 0 warning: IPC 0.025027 < 0.05
Simulation CPU 0 warning: IPC 0.025017 < 0.05
Simulation CPU 0 warning: IPC 0.025003 < 0.05
Simulation CPU 0 warning: IPC 0.024976 < 0.05
Simulation CPU 0 warning: IPC 0.025041 < 0.05
Simulation CPU 0 warning: IPC 0.025061 < 0.05
Simulation CPU 0 warning: IPC 0.02506 < 0.05
Simulation CPU 0 warning: IPC 0.024966 < 0.05
Simulation CPU 0 warning: IPC 0.025019 < 0.05
Simulation CPU 0 warning: IPC 0.025026 < 0.05
Simulation CPU 0 warning: IPC 0.025035 < 0.05
Simulation CPU 0 warning: IPC 0.025124 < 0.05
Simulation CPU 0 warning: IPC 0.025011 < 0.05
Simulation CPU 0 warning: IPC 0.025029 < 0.05
Simulation CPU 0 warning: IPC 0.025129 < 0.05
Simulation CPU 0 warning: IPC 0.025199 < 0.05
Simulation CPU 0 warning: IPC 0.025281 < 0.05
Simulation CPU 0 warning: IPC 0.025212 < 0.05
Simulation CPU 0 warning: IPC 0.025181 < 0.05
Simulation CPU 0 warning: IPC 0.02524 < 0.05
Simulation CPU 0 warning: IPC 0.025217 < 0.05
Simulation CPU 0 warning: IPC 0.025236 < 0.05
Simulation CPU 0 warning: IPC 0.025234 < 0.05
Simulation CPU 0 warning: IPC 0.025264 < 0.05
Simulation CPU 0 warning: IPC 0.025254 < 0.05
Simulation CPU 0 warning: IPC 0.025171 < 0.05
Simulation CPU 0 warning: IPC 0.025227 < 0.05
Simulation CPU 0 warning: IPC 0.025178 < 0.05
Simulation CPU 0 warning: IPC 0.025112 < 0.05
Simulation CPU 0 warning: IPC 0.025138 < 0.05
Simulation CPU 0 warning: IPC 0.025065 < 0.05
Simulation CPU 0 warning: IPC 0.0251 < 0.05
Simulation CPU 0 warning: IPC 0.025093 < 0.05
Simulation CPU 0 warning: IPC 0.025141 < 0.05
Simulation CPU 0 warning: IPC 0.025075 < 0.05
Simulation CPU 0 warning: IPC 0.024997 < 0.05
Simulation CPU 0 warning: IPC 0.025027 < 0.05
Simulation CPU 0 warning: IPC 0.02502 < 0.05
Simulation CPU 0 warning: IPC 0.025042 < 0.05
Simulation CPU 0 warning: IPC 0.025005 < 0.05
Simulation CPU 0 warning: IPC 0.025042 < 0.05
Simulation CPU 0 warning: IPC 0.024997 < 0.05
Simulation CPU 0 warning: IPC 0.024959 < 0.05
Simulation CPU 0 warning: IPC 0.024959 < 0.05
Simulation CPU 0 warning: IPC 0.02502 < 0.05
Simulation CPU 0 warning: IPC 0.024993 < 0.05
Simulation CPU 0 warning: IPC 0.025024 < 0.05
Simulation CPU 0 warning: IPC 0.024936 < 0.05
Simulation CPU 0 warning: IPC 0.024892 < 0.05
Simulation CPU 0 warning: IPC 0.024952 < 0.05
Simulation CPU 0 warning: IPC 0.025002 < 0.05
Simulation CPU 0 warning: IPC 0.025048 < 0.05
Simulation CPU 0 warning: IPC 0.024918 < 0.05
Simulation CPU 0 warning: IPC 0.024981 < 0.05
Simulation CPU 0 warning: IPC 0.02496 < 0.05
Simulation CPU 0 warning: IPC 0.025057 < 0.05
Simulation CPU 0 warning: IPC 0.024973 < 0.05
Simulation CPU 0 warning: IPC 0.025035 < 0.05
Simulation CPU 0 warning: IPC 0.025015 < 0.05
Simulation CPU 0 warning: IPC 0.024998 < 0.05
Simulation CPU 0 warning: IPC 0.024992 < 0.05
Simulation CPU 0 warning: IPC 0.024871 < 0.05
Simulation CPU 0 warning: IPC 0.024807 < 0.05
Simulation CPU 0 warning: IPC 0.024968 < 0.05
Simulation CPU 0 warning: IPC 0.024507 < 0.05
Simulation CPU 0 warning: IPC 0.024271 < 0.05
Simulation CPU 0 warning: IPC 0.024754 < 0.05
Simulation CPU 0 warning: IPC 0.024873 < 0.05
Simulation CPU 0 warning: IPC 0.02506 < 0.05
Simulation CPU 0 warning: IPC 0.025089 < 0.05
Simulation CPU 0 warning: IPC 0.02489 < 0.05
Simulation CPU 0 warning: IPC 0.023609 < 0.05
Simulation CPU 0 warning: IPC 0.023985 < 0.05
Simulation CPU 0 warning: IPC 0.024012 < 0.05
Simulation CPU 0 warning: IPC 0.024151 < 0.05
Simulation CPU 0 warning: IPC 0.024126 < 0.05
Simulation CPU 0 warning: IPC 0.023796 < 0.05
Simulation CPU 0 warning: IPC 0.023973 < 0.05
Simulation CPU 0 warning: IPC 0.024676 < 0.05
Simulation CPU 0 warning: IPC 0.024692 < 0.05
Simulation CPU 0 warning: IPC 0.025056 < 0.05
Simulation CPU 0 warning: IPC 0.024966 < 0.05
Simulation CPU 0 warning: IPC 0.025052 < 0.05
Simulation CPU 0 warning: IPC 0.025015 < 0.05
Simulation CPU 0 warning: IPC 0.025006 < 0.05
Simulation CPU 0 warning: IPC 0.024997 < 0.05
Simulation CPU 0 warning: IPC 0.024985 < 0.05
Simulation CPU 0 warning: IPC 0.024858 < 0.05
Simulation CPU 0 warning: IPC 0.024981 < 0.05
Simulation CPU 0 warning: IPC 0.025015 < 0.05
Simulation CPU 0 warning: IPC 0.025075 < 0.05
Simulation CPU 0 warning: IPC 0.025082 < 0.05
Simulation CPU 0 warning: IPC 0.02497 < 0.05
Simulation CPU 0 warning: IPC 0.025151 < 0.05
Simulation CPU 0 warning: IPC 0.02521 < 0.05
Simulation CPU 0 warning: IPC 0.024528 < 0.05
Simulation CPU 0 warning: IPC 0.02391 < 0.05
Simulation CPU 0 warning: IPC 0.024808 < 0.05
Simulation CPU 0 warning: IPC 0.025237 < 0.05
Simulation CPU 0 warning: IPC 0.025297 < 0.05
Simulation CPU 0 warning: IPC 0.025136 < 0.05
Simulation CPU 0 warning: IPC 0.025269 < 0.05
Simulation CPU 0 warning: IPC 0.025241 < 0.05
Simulation CPU 0 warning: IPC 0.025212 < 0.05
Simulation CPU 0 warning: IPC 0.025148 < 0.05
Simulation CPU 0 warning: IPC 0.025214 < 0.05
Simulation CPU 0 warning: IPC 0.025201 < 0.05
Simulation CPU 0 warning: IPC 0.025211 < 0.05
Simulation CPU 0 warning: IPC 0.025205 < 0.05
Simulation CPU 0 warning: IPC 0.025143 < 0.05
Simulation CPU 0 warning: IPC 0.025221 < 0.05
Simulation CPU 0 warning: IPC 0.025128 < 0.05
Simulation CPU 0 warning: IPC 0.02521 < 0.05
Simulation CPU 0 warning: IPC 0.025058 < 0.05
Simulation CPU 0 warning: IPC 0.025011 < 0.05
Simulation CPU 0 warning: IPC 0.025043 < 0.05
Simulation CPU 0 warning: IPC 0.025053 < 0.05
Simulation CPU 0 warning: IPC 0.024009 < 0.05
Simulation CPU 0 warning: IPC 0.023741 < 0.05
Simulation CPU 0 warning: IPC 0.023767 < 0.05
Simulation CPU 0 warning: IPC 0.023716 < 0.05
Simulation CPU 0 warning: IPC 0.023627 < 0.05
Simulation CPU 0 warning: IPC 0.023615 < 0.05
Simulation CPU 0 warning: IPC 0.023824 < 0.05
Simulation CPU 0 warning: IPC 0.023842 < 0.05
Simulation CPU 0 warning: IPC 0.023711 < 0.05
Simulation CPU 0 warning: IPC 0.023675 < 0.05
Simulation CPU 0 warning: IPC 0.023686 < 0.05
Simulation CPU 0 warning: IPC 0.023739 < 0.05
Simulation CPU 0 warning: IPC 0.023697 < 0.05
Simulation CPU 0 warning: IPC 0.023717 < 0.05
Simulation CPU 0 warning: IPC 0.02387 < 0.05
Simulation CPU 0 warning: IPC 0.023899 < 0.05
Simulation CPU 0 warning: IPC 0.024042 < 0.05
Simulation CPU 0 warning: IPC 0.023977 < 0.05
Simulation CPU 0 warning: IPC 0.02436 < 0.05
Simulation CPU 0 warning: IPC 0.024961 < 0.05
Simulation CPU 0 warning: IPC 0.025014 < 0.05
Simulation CPU 0 warning: IPC 0.025005 < 0.05
Simulation CPU 0 warning: IPC 0.025069 < 0.05
Simulation CPU 0 warning: IPC 0.024951 < 0.05
Simulation CPU 0 warning: IPC 0.025065 < 0.05
Simulation CPU 0 warning: IPC 0.025021 < 0.05
Simulation CPU 0 warning: IPC 0.025011 < 0.05
Simulation CPU 0 warning: IPC 0.025021 < 0.05
Simulation CPU 0 warning: IPC 0.025042 < 0.05
Simulation CPU 0 warning: IPC 0.025012 < 0.05
Simulation CPU 0 warning: IPC 0.02507 < 0.05
Simulation CPU 0 warning: IPC 0.025047 < 0.05
Simulation CPU 0 warning: IPC 0.025019 < 0.05
Simulation CPU 0 warning: IPC 0.025019 < 0.05
Simulation CPU 0 warning: IPC 0.025057 < 0.05
Simulation CPU 0 warning: IPC 0.025038 < 0.05
Simulation CPU 0 warning: IPC 0.02501 < 0.05
Simulation CPU 0 warning: IPC 0.024977 < 0.05
Simulation CPU 0 warning: IPC 0.024972 < 0.05
Simulation CPU 0 warning: IPC 0.025013 < 0.05
Simulation CPU 0 warning: IPC 0.024964 < 0.05
Simulation CPU 0 warning: IPC 0.025042 < 0.05
Simulation CPU 0 warning: IPC 0.025023 < 0.05
Simulation CPU 0 warning: IPC 0.025064 < 0.05
Simulation CPU 0 warning: IPC 0.024989 < 0.05
Simulation CPU 0 warning: IPC 0.024929 < 0.05
Simulation CPU 0 warning: IPC 0.025027 < 0.05
Simulation CPU 0 warning: IPC 0.024929 < 0.05
Simulation CPU 0 warning: IPC 0.025036 < 0.05
Simulation CPU 0 warning: IPC 0.024999 < 0.05
Simulation CPU 0 warning: IPC 0.025015 < 0.05
Simulation CPU 0 warning: IPC 0.02499 < 0.05
Simulation CPU 0 warning: IPC 0.025047 < 0.05
Simulation CPU 0 warning: IPC 0.024997 < 0.05
Simulation CPU 0 warning: IPC 0.024959 < 0.05
Simulation CPU 0 warning: IPC 0.025035 < 0.05
Simulation CPU 0 warning: IPC 0.02505 < 0.05
Simulation CPU 0 warning: IPC 0.024997 < 0.05
Simulation CPU 0 warning: IPC 0.025038 < 0.05
Simulation CPU 0 warning: IPC 0.025039 < 0.05
Simulation CPU 0 warning: IPC 0.02499 < 0.05
Simulation CPU 0 warning: IPC 0.025052 < 0.05
Simulation CPU 0 warning: IPC 0.024994 < 0.05
Simulation CPU 0 warning: IPC 0.02514 < 0.05
Simulation CPU 0 warning: IPC 0.025215 < 0.05
Simulation CPU 0 warning: IPC 0.02523 < 0.05
Simulation CPU 0 warning: IPC 0.025266 < 0.05
Simulation CPU 0 warning: IPC 0.025183 < 0.05
Simulation CPU 0 warning: IPC 0.025223 < 0.05
Simulation CPU 0 warning: IPC 0.025162 < 0.05
Simulation CPU 0 warning: IPC 0.025229 < 0.05
Simulation CPU 0 warning: IPC 0.025263 < 0.05
Simulation CPU 0 warning: IPC 0.025166 < 0.05
Simulation CPU 0 warning: IPC 0.025166 < 0.05
Simulation CPU 0 warning: IPC 0.025174 < 0.05
Simulation CPU 0 warning: IPC 0.025186 < 0.05
Simulation CPU 0 warning: IPC 0.025118 < 0.05
Simulation CPU 0 warning: IPC 0.02513 < 0.05
Simulation CPU 0 warning: IPC 0.025178 < 0.05
Simulation CPU 0 warning: IPC 0.025066 < 0.05
Simulation CPU 0 warning: IPC 0.024997 < 0.05
Simulation CPU 0 warning: IPC 0.025041 < 0.05
Simulation CPU 0 warning: IPC 0.025083 < 0.05
Simulation CPU 0 warning: IPC 0.025038 < 0.05
Simulation CPU 0 warning: IPC 0.025013 < 0.05
Simulation CPU 0 warning: IPC 0.025072 < 0.05
Simulation CPU 0 warning: IPC 0.025047 < 0.05
Simulation CPU 0 warning: IPC 0.025087 < 0.05
Simulation CPU 0 warning: IPC 0.024993 < 0.05
Simulation CPU 0 warning: IPC 0.025043 < 0.05
Simulation CPU 0 warning: IPC 0.024498 < 0.05
Simulation CPU 0 warning: IPC 0.023819 < 0.05
Simulation CPU 0 warning: IPC 0.02365 < 0.05
Simulation CPU 0 warning: IPC 0.023839 < 0.05
Simulation CPU 0 warning: IPC 0.023869 < 0.05
Simulation CPU 0 warning: IPC 0.024243 < 0.05
Simulation CPU 0 warning: IPC 0.024493 < 0.05
Simulation CPU 0 warning: IPC 0.025003 < 0.05
Simulation CPU 0 warning: IPC 0.025007 < 0.05
Simulation CPU 0 warning: IPC 0.024979 < 0.05
Simulation CPU 0 warning: IPC 0.025024 < 0.05
Simulation CPU 0 warning: IPC 0.025025 < 0.05
Simulation CPU 0 warning: IPC 0.024983 < 0.05
Simulation CPU 0 warning: IPC 0.025008 < 0.05
Simulation CPU 0 warning: IPC 0.024948 < 0.05
Simulation CPU 0 warning: IPC 0.025041 < 0.05
Simulation CPU 0 warning: IPC 0.024959 < 0.05
Simulation CPU 0 warning: IPC 0.025023 < 0.05
Simulation CPU 0 warning: IPC 0.025125 < 0.05
Simulation CPU 0 warning: IPC 0.02458 < 0.05
Simulation CPU 0 warning: IPC 0.024867 < 0.05
Simulation CPU 0 warning: IPC 0.025177 < 0.05
Simulation CPU 0 warning: IPC 0.024488 < 0.05
Simulation CPU 0 warning: IPC 0.024068 < 0.05
Simulation CPU 0 warning: IPC 0.025138 < 0.05
Simulation CPU 0 warning: IPC 0.025219 < 0.05
Simulation CPU 0 warning: IPC 0.025216 < 0.05
Simulation CPU 0 warning: IPC 0.025214 < 0.05
Simulation CPU 0 warning: IPC 0.024261 < 0.05
Simulation CPU 0 warning: IPC 0.023642 < 0.05
Simulation CPU 0 warning: IPC 0.023665 < 0.05
Simulation CPU 0 warning: IPC 0.023773 < 0.05
Simulation CPU 0 warning: IPC 0.023817 < 0.05
Simulation CPU 0 warning: IPC 0.023872 < 0.05
Simulation CPU 0 warning: IPC 0.023824 < 0.05
Simulation CPU 0 warning: IPC 0.024155 < 0.05
Simulation CPU 0 warning: IPC 0.024272 < 0.05
Simulation CPU 0 warning: IPC 0.024481 < 0.05
Simulation CPU 0 warning: IPC 0.024931 < 0.05
Simulation CPU 0 warning: IPC 0.024989 < 0.05
Simulation CPU 0 warning: IPC 0.024958 < 0.05
Simulation CPU 0 warning: IPC 0.025079 < 0.05
Simulation CPU 0 warning: IPC 0.025208 < 0.05
Simulation CPU 0 warning: IPC 0.0253 < 0.05
Simulation CPU 0 warning: IPC 0.025166 < 0.05
Simulation CPU 0 warning: IPC 0.025232 < 0.05
Simulation CPU 0 warning: IPC 0.025185 < 0.05
Simulation CPU 0 warning: IPC 0.025183 < 0.05
Simulation CPU 0 warning: IPC 0.025217 < 0.05
Simulation CPU 0 warning: IPC 0.025271 < 0.05
Simulation CPU 0 warning: IPC 0.025176 < 0.05
Simulation CPU 0 warning: IPC 0.025222 < 0.05
Simulation CPU 0 warning: IPC 0.025213 < 0.05
Simulation CPU 0 warning: IPC 0.025287 < 0.05
Simulation CPU 0 warning: IPC 0.02516 < 0.05
Simulation CPU 0 warning: IPC 0.025127 < 0.05
Simulation CPU 0 warning: IPC 0.02507 < 0.05
Simulation CPU 0 warning: IPC 0.025182 < 0.05
Simulation CPU 0 warning: IPC 0.025058 < 0.05
Simulation CPU 0 warning: IPC 0.025127 < 0.05
Simulation CPU 0 warning: IPC 0.02512 < 0.05
Simulation CPU 0 warning: IPC 0.025096 < 0.05
Simulation CPU 0 warning: IPC 0.025036 < 0.05
Simulation CPU 0 warning: IPC 0.025053 < 0.05
Simulation CPU 0 warning: IPC 0.025029 < 0.05
Simulation CPU 0 warning: IPC 0.025019 < 0.05
Simulation CPU 0 warning: IPC 0.025009 < 0.05
Simulation CPU 0 warning: IPC 0.025022 < 0.05
Simulation CPU 0 warning: IPC 0.024988 < 0.05
Simulation CPU 0 warning: IPC 0.024982 < 0.05
Simulation CPU 0 warning: IPC 0.025039 < 0.05
Simulation CPU 0 warning: IPC 0.024914 < 0.05
Simulation CPU 0 warning: IPC 0.024942 < 0.05
Simulation CPU 0 warning: IPC 0.024968 < 0.05
Simulation CPU 0 warning: IPC 0.024961 < 0.05
Simulation CPU 0 warning: IPC 0.024987 < 0.05
Simulation CPU 0 warning: IPC 0.024986 < 0.05
Simulation CPU 0 warning: IPC 0.024668 < 0.05
Simulation CPU 0 warning: IPC 0.024913 < 0.05
Simulation CPU 0 warning: IPC 0.02496 < 0.05
Simulation CPU 0 warning: IPC 0.024905 < 0.05
Simulation CPU 0 warning: IPC 0.024953 < 0.05
Simulation CPU 0 warning: IPC 0.024968 < 0.05
Simulation CPU 0 warning: IPC 0.024907 < 0.05
Simulation CPU 0 warning: IPC 0.024994 < 0.05
Simulation CPU 0 warning: IPC 0.024991 < 0.05
Simulation CPU 0 warning: IPC 0.025022 < 0.05
Simulation CPU 0 warning: IPC 0.025026 < 0.05
Simulation CPU 0 warning: IPC 0.024907 < 0.05
Simulation CPU 0 warning: IPC 0.024917 < 0.05
Simulation CPU 0 warning: IPC 0.024493 < 0.05
Simulation CPU 0 warning: IPC 0.02381 < 0.05
Simulation CPU 0 warning: IPC 0.023576 < 0.05
Simulation CPU 0 warning: IPC 0.023562 < 0.05
Simulation CPU 0 warning: IPC 0.023594 < 0.05
Simulation CPU 0 warning: IPC 0.023421 < 0.05
Simulation CPU 0 warning: IPC 0.023528 < 0.05
Simulation CPU 0 warning: IPC 0.023512 < 0.05
Simulation CPU 0 warning: IPC 0.023506 < 0.05
Simulation CPU 0 warning: IPC 0.02376 < 0.05
Simulation CPU 0 warning: IPC 0.0241 < 0.05
Simulation CPU 0 warning: IPC 0.02523 < 0.05
Simulation CPU 0 warning: IPC 0.025229 < 0.05
Simulation CPU 0 warning: IPC 0.025257 < 0.05
Simulation CPU 0 warning: IPC 0.025202 < 0.05
Simulation CPU 0 warning: IPC 0.025142 < 0.05
Simulation CPU 0 warning: IPC 0.025288 < 0.05
Simulation CPU 0 warning: IPC 0.025205 < 0.05
Simulation CPU 0 warning: IPC 0.025166 < 0.05
Simulation CPU 0 warning: IPC 0.02526 < 0.05
Simulation CPU 0 warning: IPC 0.025238 < 0.05
Simulation CPU 0 warning: IPC 0.025201 < 0.05
Simulation CPU 0 warning: IPC 0.02521 < 0.05
Simulation CPU 0 warning: IPC 0.025235 < 0.05
Simulation CPU 0 warning: IPC 0.025204 < 0.05
Simulation CPU 0 warning: IPC 0.025153 < 0.05
Simulation CPU 0 warning: IPC 0.02507 < 0.05
Simulation CPU 0 warning: IPC 0.025079 < 0.05
Simulation CPU 0 warning: IPC 0.025123 < 0.05
Simulation CPU 0 warning: IPC 0.025135 < 0.05
Simulation CPU 0 warning: IPC 0.025099 < 0.05
Simulation CPU 0 warning: IPC 0.025068 < 0.05
Simulation CPU 0 warning: IPC 0.025043 < 0.05
Simulation CPU 0 warning: IPC 0.025022 < 0.05
Simulation CPU 0 warning: IPC 0.025071 < 0.05
Simulation CPU 0 warning: IPC 0.025018 < 0.05
Simulation CPU 0 warning: IPC 0.025025 < 0.05
Simulation CPU 0 warning: IPC 0.024969 < 0.05
Simulation CPU 0 warning: IPC 0.024906 < 0.05
Simulation CPU 0 warning: IPC 0.024989 < 0.05
Simulation CPU 0 warning: IPC 0.023879 < 0.05
Simulation CPU 0 warning: IPC 0.023582 < 0.05
Simulation finished CPU 0 instructions: 100000004 cycles: 4027643039 cumulative IPC: 0.02483 (Simulation time: 05 hr 18 min 40 sec)
Simulation complete CPU 0 instructions: 100000004 cycles: 4027643039 cumulative IPC: 0.02483 (Simulation time: 05 hr 18 min 40 sec)

ChampSim completed all CPUs

=== Simulation ===
CPU 0 runs /data2/zcq/champsim_traces_gap/pr.urand-2209B.champsimtrace.xz

Region of Interest Statistics

CPU 0 cumulative IPC: 0.02483 instructions: 100000004 cycles: 4027643039
CPU 0 Branch Prediction Accuracy: 97.02% MPKI: 5.683 Average ROB Occupancy at Mispredict: 346.1
Branch type MPKI
BRANCH_DIRECT_JUMP: 0
BRANCH_INDIRECT: 0
BRANCH_CONDITIONAL: 5.683
BRANCH_DIRECT_CALL: 0
BRANCH_INDIRECT_CALL: 0
BRANCH_RETURN: 0

cpu0->cpu0_STLB TOTAL        ACCESS:   18212793 HIT:   18212793 MISS:          0 MSHR_MERGE:          0
cpu0->cpu0_STLB LOAD         ACCESS:   18212793 HIT:   18212793 MISS:          0 MSHR_MERGE:          0
cpu0->cpu0_STLB RFO          ACCESS:          0 HIT:          0 MISS:          0 MSHR_MERGE:          0
cpu0->cpu0_STLB PREFETCH     ACCESS:          0 HIT:          0 MISS:          0 MSHR_MERGE:          0
cpu0->cpu0_STLB WRITE        ACCESS:          0 HIT:          0 MISS:          0 MSHR_MERGE:          0
cpu0->cpu0_STLB TRANSLATION  ACCESS:          0 HIT:          0 MISS:          0 MSHR_MERGE:          0
cpu0->cpu0_STLB PREFETCH REQUESTED:          0 ISSUED:          0 USEFUL:          0 USELESS:          0 LATE:          0
cpu0->cpu0_STLB AVERAGE MISS LATENCY: - cycles
cpu0->cpu0_L2C TOTAL        ACCESS:   21332473 HIT:    2217382 MISS:   19115091 MSHR_MERGE:       3609
cpu0->cpu0_L2C LOAD         ACCESS:   18047429 HIT:     156544 MISS:   17890885 MSHR_MERGE:          1
cpu0->cpu0_L2C RFO          ACCESS:      17484 HIT:      17456 MISS:         28 MSHR_MERGE:          0
cpu0->cpu0_L2C PREFETCH     ACCESS:    3206364 HIT:    1982187 MISS:    1224177 MSHR_MERGE:       3608
cpu0->cpu0_L2C WRITE        ACCESS:      61196 HIT:      61195 MISS:          1 MSHR_MERGE:          0
cpu0->cpu0_L2C TRANSLATION  ACCESS:          0 HIT:          0 MISS:          0 MSHR_MERGE:          0
cpu0->cpu0_L2C PREFETCH REQUESTED:    1065499 ISSUED:    1065499 USEFUL:     425682 USELESS:         86 LATE:          0
cpu0->cpu0_L2C AVERAGE MISS LATENCY: 200.9 cycles
cpu0->cpu0_L1I TOTAL        ACCESS:     350405 HIT:     350405 MISS:          0 MSHR_MERGE:          0
cpu0->cpu0_L1I LOAD         ACCESS:     350405 HIT:     350405 MISS:          0 MSHR_MERGE:          0
cpu0->cpu0_L1I RFO          ACCESS:          0 HIT:          0 MISS:          0 MSHR_MERGE:          0
cpu0->cpu0_L1I PREFETCH     ACCESS:          0 HIT:          0 MISS:          0 MSHR_MERGE:          0
cpu0->cpu0_L1I WRITE        ACCESS:          0 HIT:          0 MISS:          0 MSHR_MERGE:          0
cpu0->cpu0_L1I TRANSLATION  ACCESS:          0 HIT:          0 MISS:          0 MSHR_MERGE:          0
cpu0->cpu0_L1I PREFETCH REQUESTED:          0 ISSUED:          0 USEFUL:          0 USELESS:          0 LATE:          0
cpu0->cpu0_L1I AVERAGE MISS LATENCY: - cycles
cpu0->cpu0_L1D TOTAL        ACCESS:   59018808 HIT:   38650180 MISS:   20368628 MSHR_MERGE:     162851
cpu0->cpu0_L1D LOAD         ACCESS:   37599045 HIT:   19426463 MISS:   18172582 MSHR_MERGE:     125154
cpu0->cpu0_L1D RFO          ACCESS:          0 HIT:          0 MISS:          0 MSHR_MERGE:          0
cpu0->cpu0_L1D PREFETCH     ACCESS:   20781587 HIT:   18637993 MISS:    2143594 MSHR_MERGE:       2729
cpu0->cpu0_L1D WRITE        ACCESS:     638176 HIT:     585724 MISS:      52452 MSHR_MERGE:      34968
cpu0->cpu0_L1D TRANSLATION  ACCESS:          0 HIT:          0 MISS:          0 MSHR_MERGE:          0
cpu0->cpu0_L1D PREFETCH REQUESTED:   20830843 ISSUED:   20781581 USEFUL:    1148471 USELESS:      36681 LATE:       8670
cpu0->cpu0_L1D AVERAGE MISS LATENCY: 207.9 cycles
cpu0->cpu0_ITLB TOTAL        ACCESS:     350396 HIT:     350396 MISS:          0 MSHR_MERGE:          0
cpu0->cpu0_ITLB LOAD         ACCESS:     350396 HIT:     350396 MISS:          0 MSHR_MERGE:          0
cpu0->cpu0_ITLB RFO          ACCESS:          0 HIT:          0 MISS:          0 MSHR_MERGE:          0
cpu0->cpu0_ITLB PREFETCH     ACCESS:          0 HIT:          0 MISS:          0 MSHR_MERGE:          0
cpu0->cpu0_ITLB WRITE        ACCESS:          0 HIT:          0 MISS:          0 MSHR_MERGE:          0
cpu0->cpu0_ITLB TRANSLATION  ACCESS:          0 HIT:          0 MISS:          0 MSHR_MERGE:          0
cpu0->cpu0_ITLB PREFETCH REQUESTED:          0 ISSUED:          0 USEFUL:          0 USELESS:          0 LATE:          0
cpu0->cpu0_ITLB AVERAGE MISS LATENCY: - cycles
cpu0->cpu0_DTLB TOTAL        ACCESS:   56694683 HIT:   38416519 MISS:   18278164 MSHR_MERGE:      65372
cpu0->cpu0_DTLB LOAD         ACCESS:   56694683 HIT:   38416519 MISS:   18278164 MSHR_MERGE:      65372
cpu0->cpu0_DTLB RFO          ACCESS:          0 HIT:          0 MISS:          0 MSHR_MERGE:          0
cpu0->cpu0_DTLB PREFETCH     ACCESS:          0 HIT:          0 MISS:          0 MSHR_MERGE:          0
cpu0->cpu0_DTLB WRITE        ACCESS:          0 HIT:          0 MISS:          0 MSHR_MERGE:          0
cpu0->cpu0_DTLB TRANSLATION  ACCESS:          0 HIT:          0 MISS:          0 MSHR_MERGE:          0
cpu0->cpu0_DTLB PREFETCH REQUESTED:          0 ISSUED:          0 USEFUL:          0 USELESS:          0 LATE:          0
cpu0->cpu0_DTLB AVERAGE MISS LATENCY: 5 cycles
cpu0->LLC TOTAL        ACCESS:   19146498 HIT:      69849 MISS:   19076649 MSHR_MERGE:          4
cpu0->LLC LOAD         ACCESS:   17890884 HIT:      55025 MISS:   17835859 MSHR_MERGE:          1
cpu0->LLC RFO          ACCESS:         28 HIT:         28 MISS:          0 MSHR_MERGE:          0
cpu0->LLC PREFETCH     ACCESS:    1220569 HIT:          8 MISS:    1220561 MSHR_MERGE:          3
cpu0->LLC WRITE        ACCESS:      35017 HIT:      14788 MISS:      20229 MSHR_MERGE:          0
cpu0->LLC TRANSLATION  ACCESS:          0 HIT:          0 MISS:          0 MSHR_MERGE:          0
cpu0->LLC PREFETCH REQUESTED:          0 ISSUED:          0 USEFUL:          0 USELESS:          0 LATE:          0
cpu0->LLC AVERAGE MISS LATENCY: 185.3 cycles

DRAM Statistics

Channel 0 RQ ROW_BUFFER_HIT:        214
  ROW_BUFFER_MISS:   19056203
  AVG DBUS CONGESTED CYCLE: 5.346
Channel 0 WQ ROW_BUFFER_HIT:      14711
  ROW_BUFFER_MISS:      21023
  FULL:          0
Channel 0 REFRESHES ISSUED:     335637

[ROI Statistics]
[System Configuration]
num_cpus 1
cpu_freq 4000
fetch_width 6
decode_width 6
dispatch_width 6
execute_width 6
lq_width 2
sq_width 2
retire_width 6
scheduler_size 128
branch_mispredict_penalty 15
rob_size 352
lq_size 128
sq_size 72
ifetch_buffer_size 64
decode_buffer_size 32
dispatch_buffer_size 32
register_file_size 288
decode_latency 1
dispatch_latency 1
schedule_latency 1
execute_latency 1
page_size 4096
block_size 64
core_0_itlb_set 16
core_0_itlb_way 4
core_0_itlb_rq_size 16
core_0_itlb_wq_size 16
core_0_itlb_pq_size 0
core_0_itlb_mshr_size 8
core_0_itlb_hit_latency 1
core_0_itlb_fill_latency 1
core_0_itlb_max_tag_check 2
core_0_itlb_max_fill 2
core_0_dtlb_set 16
core_0_dtlb_way 4
core_0_dtlb_rq_size 16
core_0_dtlb_wq_size 16
core_0_dtlb_pq_size 0
core_0_dtlb_mshr_size 8
core_0_dtlb_hit_latency 1
core_0_dtlb_fill_latency 1
core_0_dtlb_max_tag_check 2
core_0_dtlb_max_fill 2
core_0_stlb_set 128
core_0_stlb_way 12
core_0_stlb_rq_size 32
core_0_stlb_wq_size 32
core_0_stlb_pq_size 0
core_0_stlb_mshr_size 16
core_0_stlb_hit_latency 4
core_0_stlb_fill_latency 4
core_0_stlb_max_tag_check 1
core_0_stlb_max_fill 1
core_0_l1i_set 64
core_0_l1i_way 8
core_0_l1i_rq_size 64
core_0_l1i_wq_size 64
core_0_l1i_pq_size 32
core_0_l1i_mshr_size 8
core_0_l1i_hit_latency 2
core_0_l1i_fill_latency 2
core_0_l1i_max_tag_check 2
core_0_l1i_max_fill 2
core_0_l1d_set 64
core_0_l1d_way 12
core_0_l1d_rq_size 64
core_0_l1d_wq_size 64
core_0_l1d_pq_size 8
core_0_l1d_mshr_size 16
core_0_l1d_hit_latency 2
core_0_l1d_fill_latency 3
core_0_l1d_max_tag_check 2
core_0_l1d_max_fill 2
core_0_l2c_set 1024
core_0_l2c_way 8
core_0_l2c_rq_size 32
core_0_l2c_wq_size 32
core_0_l2c_pq_size 16
core_0_l2c_mshr_size 32
core_0_l2c_hit_latency 5
core_0_l2c_fill_latency 5
core_0_l2c_max_tag_check 1
core_0_l2c_max_fill 1
llc_set 2048
llc_way 16
llc_rq_size 32
llc_wq_size 32
llc_pq_size 32
llc_mshr_size 64
llc_hit_latency 10
llc_fill_latency 10
llc_max_tag_check 1
llc_max_fill 1
dram_channels 1
dram_ranks 1
dram_bankgroups 8
dram_banks 4
dram_rows 65536
dram_columns 1024
dram_channel_width 8
dram_rq_size 64
dram_wq_size 64
dram_size 17179869184
core_0_itlb_prefetcher no
core_0_dtlb_prefetcher no
core_0_stlb_prefetcher no
core_0_l1i_prefetcher next_line
core_0_l1d_prefetcher vberti
core_0_l2c_prefetcher ip_stride
llc_prefetcher no
llc_replacement drrip

Core_0_instructions 100000004
Core_0_cycles 4027643039
Core_0_IPC 0.0248284
Core_0_branch_prediction_accuracy 97.0235
Core_0_branch_MPKI 5.68282
Core_0_average_ROB_occupancy_at_mispredict 346.086

Core_0_ITLB_total_access 350396
Core_0_ITLB_total_hit 350396
Core_0_ITLB_total_miss 0
Core_0_ITLB_total_MPKI 0
Core_0_ITLB_total_miss_rate 0
Core_0_ITLB_demand_access 350396
Core_0_ITLB_demand_hit 350396
Core_0_ITLB_demand_miss 0
Core_0_ITLB_demand_MPKI 0
Core_0_ITLB_demand_miss_rate 0
Core_0_ITLB_load_access 350396
Core_0_ITLB_load_hit 350396
Core_0_ITLB_load_miss 0
Core_0_ITLB_load_MPKI 0
Core_0_ITLB_load_miss_rate 0
Core_0_ITLB_rfo_access 0
Core_0_ITLB_rfo_hit 0
Core_0_ITLB_rfo_miss 0
Core_0_ITLB_rfo_MPKI 0
Core_0_ITLB_rfo_miss_rate 0
Core_0_ITLB_prefetch_access 0
Core_0_ITLB_prefetch_hit 0
Core_0_ITLB_prefetch_miss 0
Core_0_ITLB_prefetch_MPKI 0
Core_0_ITLB_prefetch_miss_rate 0
Core_0_ITLB_writeback_access 0
Core_0_ITLB_writeback_hit 0
Core_0_ITLB_writeback_miss 0
Core_0_ITLB_writeback_MPKI 0
Core_0_ITLB_writeback_miss_rate 0
Core_0_ITLB_prefetch_requested 0
Core_0_ITLB_prefetch_issued 0
Core_0_ITLB_prefetch_useful 0
Core_0_ITLB_prefetch_useless 0
Core_0_ITLB_prefetch_late 0
Core_0_ITLB_prefetch_accuracy 0
Core_0_ITLB_prefetch_coverage 0
Core_0_ITLB_total_eviction 0

Core_0_DTLB_total_access 56694683
Core_0_DTLB_total_hit 38416519
Core_0_DTLB_total_miss 18278164
Core_0_DTLB_total_MPKI 182.782
Core_0_DTLB_total_miss_rate 0.322396
Core_0_DTLB_demand_access 56694683
Core_0_DTLB_demand_hit 38416519
Core_0_DTLB_demand_miss 18278164
Core_0_DTLB_demand_MPKI 182.782
Core_0_DTLB_demand_miss_rate 0.322396
Core_0_DTLB_load_access 56694683
Core_0_DTLB_load_hit 38416519
Core_0_DTLB_load_miss 18278164
Core_0_DTLB_load_MPKI 182.782
Core_0_DTLB_load_miss_rate 0.322396
Core_0_DTLB_rfo_access 0
Core_0_DTLB_rfo_hit 0
Core_0_DTLB_rfo_miss 0
Core_0_DTLB_rfo_MPKI 0
Core_0_DTLB_rfo_miss_rate 0
Core_0_DTLB_prefetch_access 0
Core_0_DTLB_prefetch_hit 0
Core_0_DTLB_prefetch_miss 0
Core_0_DTLB_prefetch_MPKI 0
Core_0_DTLB_prefetch_miss_rate 0
Core_0_DTLB_writeback_access 0
Core_0_DTLB_writeback_hit 0
Core_0_DTLB_writeback_miss 0
Core_0_DTLB_writeback_MPKI 0
Core_0_DTLB_writeback_miss_rate 0
Core_0_DTLB_prefetch_requested 0
Core_0_DTLB_prefetch_issued 0
Core_0_DTLB_prefetch_useful 0
Core_0_DTLB_prefetch_useless 0
Core_0_DTLB_prefetch_late 0
Core_0_DTLB_prefetch_accuracy 0
Core_0_DTLB_prefetch_coverage 0
Core_0_DTLB_total_eviction 18212793

Core_0_STLB_total_access 18212793
Core_0_STLB_total_hit 18212793
Core_0_STLB_total_miss 0
Core_0_STLB_total_MPKI 0
Core_0_STLB_total_miss_rate 0
Core_0_STLB_demand_access 18212793
Core_0_STLB_demand_hit 18212793
Core_0_STLB_demand_miss 0
Core_0_STLB_demand_MPKI 0
Core_0_STLB_demand_miss_rate 0
Core_0_STLB_load_access 18212793
Core_0_STLB_load_hit 18212793
Core_0_STLB_load_miss 0
Core_0_STLB_load_MPKI 0
Core_0_STLB_load_miss_rate 0
Core_0_STLB_rfo_access 0
Core_0_STLB_rfo_hit 0
Core_0_STLB_rfo_miss 0
Core_0_STLB_rfo_MPKI 0
Core_0_STLB_rfo_miss_rate 0
Core_0_STLB_prefetch_access 0
Core_0_STLB_prefetch_hit 0
Core_0_STLB_prefetch_miss 0
Core_0_STLB_prefetch_MPKI 0
Core_0_STLB_prefetch_miss_rate 0
Core_0_STLB_writeback_access 0
Core_0_STLB_writeback_hit 0
Core_0_STLB_writeback_miss 0
Core_0_STLB_writeback_MPKI 0
Core_0_STLB_writeback_miss_rate 0
Core_0_STLB_prefetch_requested 0
Core_0_STLB_prefetch_issued 0
Core_0_STLB_prefetch_useful 0
Core_0_STLB_prefetch_useless 0
Core_0_STLB_prefetch_late 0
Core_0_STLB_prefetch_accuracy 0
Core_0_STLB_prefetch_coverage 0
Core_0_STLB_total_eviction 17744280

Core_0_L1I_total_access 350405
Core_0_L1I_total_hit 350405
Core_0_L1I_total_miss 0
Core_0_L1I_total_MPKI 0
Core_0_L1I_total_miss_rate 0
Core_0_L1I_demand_access 350405
Core_0_L1I_demand_hit 350405
Core_0_L1I_demand_miss 0
Core_0_L1I_demand_MPKI 0
Core_0_L1I_demand_miss_rate 0
Core_0_L1I_load_access 350405
Core_0_L1I_load_hit 350405
Core_0_L1I_load_miss 0
Core_0_L1I_load_MPKI 0
Core_0_L1I_load_miss_rate 0
Core_0_L1I_rfo_access 0
Core_0_L1I_rfo_hit 0
Core_0_L1I_rfo_miss 0
Core_0_L1I_rfo_MPKI 0
Core_0_L1I_rfo_miss_rate 0
Core_0_L1I_prefetch_access 0
Core_0_L1I_prefetch_hit 0
Core_0_L1I_prefetch_miss 0
Core_0_L1I_prefetch_MPKI 0
Core_0_L1I_prefetch_miss_rate 0
Core_0_L1I_writeback_access 0
Core_0_L1I_writeback_hit 0
Core_0_L1I_writeback_miss 0
Core_0_L1I_writeback_MPKI 0
Core_0_L1I_writeback_miss_rate 0
Core_0_L1I_prefetch_requested 0
Core_0_L1I_prefetch_issued 0
Core_0_L1I_prefetch_useful 0
Core_0_L1I_prefetch_useless 0
Core_0_L1I_prefetch_late 0
Core_0_L1I_prefetch_accuracy 0
Core_0_L1I_prefetch_coverage 0
Core_0_L1I_total_eviction 0

Core_0_L1D_total_access 59018808
Core_0_L1D_total_hit 38650180
Core_0_L1D_total_miss 20368628
Core_0_L1D_total_MPKI 203.686
Core_0_L1D_total_miss_rate 0.345121
Core_0_L1D_demand_access 37599045
Core_0_L1D_demand_hit 19426463
Core_0_L1D_demand_miss 18172582
Core_0_L1D_demand_MPKI 181.726
Core_0_L1D_demand_miss_rate 0.483326
Core_0_L1D_load_access 37599045
Core_0_L1D_load_hit 19426463
Core_0_L1D_load_miss 18172582
Core_0_L1D_load_MPKI 181.726
Core_0_L1D_load_miss_rate 0.483326
Core_0_L1D_rfo_access 0
Core_0_L1D_rfo_hit 0
Core_0_L1D_rfo_miss 0
Core_0_L1D_rfo_MPKI 0
Core_0_L1D_rfo_miss_rate 0
Core_0_L1D_prefetch_access 20781587
Core_0_L1D_prefetch_hit 18637993
Core_0_L1D_prefetch_miss 2143594
Core_0_L1D_prefetch_MPKI 21.4359
Core_0_L1D_prefetch_miss_rate 0.103149
Core_0_L1D_writeback_access 638176
Core_0_L1D_writeback_hit 585724
Core_0_L1D_writeback_miss 52452
Core_0_L1D_writeback_MPKI 0.52452
Core_0_L1D_writeback_miss_rate 0.0821905
Core_0_L1D_prefetch_requested 20830843
Core_0_L1D_prefetch_issued 20781581
Core_0_L1D_prefetch_useful 1148471
Core_0_L1D_prefetch_useless 36681
Core_0_L1D_prefetch_late 8670
Core_0_L1D_prefetch_accuracy 0.0552639
Core_0_L1D_prefetch_coverage 0.0594414
Core_0_L1D_total_eviction 19250073

Core_0_L2C_total_access 21332473
Core_0_L2C_total_hit 2217382
Core_0_L2C_total_miss 19115091
Core_0_L2C_total_MPKI 191.151
Core_0_L2C_total_miss_rate 0.896056
Core_0_L2C_demand_access 18064913
Core_0_L2C_demand_hit 174000
Core_0_L2C_demand_miss 17890913
Core_0_L2C_demand_MPKI 178.909
Core_0_L2C_demand_miss_rate 0.990368
Core_0_L2C_load_access 18047429
Core_0_L2C_load_hit 156544
Core_0_L2C_load_miss 17890885
Core_0_L2C_load_MPKI 178.909
Core_0_L2C_load_miss_rate 0.991326
Core_0_L2C_rfo_access 17484
Core_0_L2C_rfo_hit 17456
Core_0_L2C_rfo_miss 28
Core_0_L2C_rfo_MPKI 0.00028
Core_0_L2C_rfo_miss_rate 0.00160146
Core_0_L2C_prefetch_access 3206364
Core_0_L2C_prefetch_hit 1982187
Core_0_L2C_prefetch_miss 1224177
Core_0_L2C_prefetch_MPKI 12.2418
Core_0_L2C_prefetch_miss_rate 0.381796
Core_0_L2C_writeback_access 61196
Core_0_L2C_writeback_hit 61195
Core_0_L2C_writeback_miss 1
Core_0_L2C_writeback_MPKI 1e-05
Core_0_L2C_writeback_miss_rate 1.63409e-05
Core_0_L2C_prefetch_requested 1065499
Core_0_L2C_prefetch_issued 1065499
Core_0_L2C_prefetch_useful 425682
Core_0_L2C_prefetch_useless 86
Core_0_L2C_prefetch_late 0
Core_0_L2C_prefetch_accuracy 0.399514
Core_0_L2C_prefetch_coverage 0.0232402
Core_0_L2C_total_eviction 19111480

Core_0_LLC_total_access 19146498
Core_0_LLC_total_hit 69849
Core_0_LLC_total_miss 19076649
Core_0_LLC_total_MPKI 190.766
Core_0_LLC_total_miss_rate 0.996352
Core_0_LLC_demand_access 17890912
Core_0_LLC_demand_hit 55053
Core_0_LLC_demand_miss 17835859
Core_0_LLC_demand_MPKI 178.359
Core_0_LLC_demand_miss_rate 0.996923
Core_0_LLC_load_access 17890884
Core_0_LLC_load_hit 55025
Core_0_LLC_load_miss 17835859
Core_0_LLC_load_MPKI 178.359
Core_0_LLC_load_miss_rate 0.996924
Core_0_LLC_rfo_access 28
Core_0_LLC_rfo_hit 28
Core_0_LLC_rfo_miss 0
Core_0_LLC_rfo_MPKI 0
Core_0_LLC_rfo_miss_rate 0
Core_0_LLC_prefetch_access 1220569
Core_0_LLC_prefetch_hit 8
Core_0_LLC_prefetch_miss 1220561
Core_0_LLC_prefetch_MPKI 12.2056
Core_0_LLC_prefetch_miss_rate 0.999993
Core_0_LLC_writeback_access 35017
Core_0_LLC_writeback_hit 14788
Core_0_LLC_writeback_miss 20229
Core_0_LLC_writeback_MPKI 0.20229
Core_0_LLC_writeback_miss_rate 0.577691
Core_0_LLC_prefetch_requested 0
Core_0_LLC_prefetch_issued 0
Core_0_LLC_prefetch_useful 0
Core_0_LLC_prefetch_useless 0
Core_0_LLC_prefetch_late 0
Core_0_LLC_prefetch_accuracy 0
Core_0_LLC_prefetch_coverage 0
Core_0_LLC_total_eviction 19076648

[DRAM Statistics]
Channel_0_RQ_row_buffer_hit 214
Channel_0_RQ_row_buffer_miss 19056203
Channel_0_WQ_row_buffer_hit 14711
Channel_0_WQ_row_buffer_miss 21023
Channel_0_WQ_full 0
Channel_0_dbus_congested 25576091
DRAM_total_RQ_row_buffer_hit 214
DRAM_total_RQ_row_buffer_miss 19056203
DRAM_total_WQ_row_buffer_hit 14711
DRAM_total_WQ_row_buffer_miss 21023
DRAM_total_WQ_full 0
DRAM_total_dbus_congested 25576091
DRAM_avg_congested_cycle 5.34567

======STLB miss causes ========
Core_0_STLB_miss_cause_breakdown
Core_0_STLB_cause_Demand_Data_miss 0
Core_0_STLB_cause_Demand_Data_miss_rate 0
Core_0_STLB_cause_Demand_Instruction_miss 0
Core_0_STLB_cause_Demand_Instruction_miss_rate 0
Core_0_STLB_cause_L1D_Prefetch_miss 0
Core_0_STLB_cause_L1D_Prefetch_miss_rate 0
Core_0_STLB_cause_L1I_Prefetch_miss 0
Core_0_STLB_cause_L1I_Prefetch_miss_rate 0
Core_0_STLB_cause_Other_miss 0
Core_0_STLB_cause_Other_miss_rate 0
Core_0_STLB_Demand_miss 0
Core_0_STLB_Demand_miss_rate 0
Core_0_STLB_L1D_Prefetch_miss 0
Core_0_STLB_L1D_Prefetch_miss_rate 0
Core_0_STLB_Other_miss 0
Core_0_STLB_Other_miss_rate 0
BERTI TO_L1: 21278884 TO_L2: 2141978 TO_L2_BC_MSHR: 114
BERTI AVG_LAT: 129.331 NUM_TRACK_LATENCY: 28797244 NUM_CANT_TRACK_LATENCY: 0
BERTI CROSS_PAGE 877781 NO_CROSS_PAGE: 22543081
BERTI FOUND_BERTI: 45988270 NO_FOUND_BERTI: 2597755
BERTI AVERAGE_ISSUED: 1.18338
