[VMEM] WARNING: physical memory size is smaller than virtual memory size.

*** ChampSim Multicore Out-of-Order Simulator ***
Warmup Instructions: 50000000
Simulation Instructions: 100000000
Number of CPUs: 1
Page size: 4096
STLB ideal mode: all
STLB ideal fill: on
Core 0: /data0/tzh/champsim_traces/QMM/srv_64_new.xz
VBerti Prefetcher
BERTI HASH ENTANGLING
BERTI IP MASK ffff
Off-chip DRAM Size: 16 GiB Channels: 1 Width: 64-bit Data Rate: 3205 MT/s
[BTB] WARNING: target of return is a lower address than the corresponding call. This is usually a problem with your trace.
[BTB] WARNING: target of return is a lower address than the corresponding call. This is usually a problem with your trace.
[BTB] WARNING: target of return is a lower address than the corresponding call. This is usually a problem with your trace.
[BTB] WARNING: target of return is a lower address than the corresponding call. This is usually a problem with your trace.
[BTB] WARNING: target of return is a lower address than the corresponding call. This is usually a problem with your trace.
[BTB] WARNING: target of return is a lower address than the corresponding call. This is usually a problem with your trace.
[BTB] WARNING: target of return is a lower address than the corresponding call. This is usually a problem with your trace.
[BTB] WARNING: target of return is a lower address than the corresponding call. This is usually a problem with your trace.
[BTB] WARNING: target of return is a lower address than the corresponding call. This is usually a problem with your trace.
[BTB] WARNING: target of return is a lower address than the corresponding call. This is usually a problem with your trace.
*** Reached end of trace: (0, "/data0/tzh/champsim_traces/QMM/srv_64_new.xz")
Warmup halting CPU 0 at instruction 50000001 cycle 10232845 for remainder of phase
Warmup finished CPU 0 instructions: 50000001 cycles: 10232845 cumulative IPC: 4.886 (Simulation time: 00 hr 02 min 26 sec)
Warmup complete CPU 0 instructions: 50000001 cycles: 10232845 cumulative IPC: 4.886 (Simulation time: 00 hr 02 min 26 sec)
*** Reached end of trace: (0, "/data0/tzh/champsim_traces/QMM/srv_64_new.xz")
*** Reached end of trace: (0, "/data0/tzh/champsim_traces/QMM/srv_64_new.xz")
*** Reached end of trace: (0, "/data0/tzh/champsim_traces/QMM/srv_64_new.xz")
Simulation finished CPU 0 instructions: 100000005 cycles: 48470217 cumulative IPC: 2.063 (Simulation time: 00 hr 10 min 30 sec)
Simulation complete CPU 0 instructions: 100000005 cycles: 48470217 cumulative IPC: 2.063 (Simulation time: 00 hr 10 min 30 sec)

ChampSim completed all CPUs

=== Simulation ===
CPU 0 runs /data0/tzh/champsim_traces/QMM/srv_64_new.xz

Region of Interest Statistics

CPU 0 cumulative IPC: 2.063 instructions: 100000005 cycles: 48470217
CPU 0 Branch Prediction Accuracy: 98.84% MPKI: 2.088 Average ROB Occupancy at Mispredict: 154.8
Branch type MPKI
BRANCH_DIRECT_JUMP: 0.1303
BRANCH_INDIRECT: 0.1636
BRANCH_CONDITIONAL: 1.238
BRANCH_DIRECT_CALL: 0.2398
BRANCH_INDIRECT_CALL: 0.07531
BRANCH_RETURN: 0.241

cpu0->cpu0_STLB TOTAL        ACCESS:    1633737 HIT:    1633737 MISS:          0 MSHR_MERGE:          0
cpu0->cpu0_STLB LOAD         ACCESS:    1633737 HIT:    1633737 MISS:          0 MSHR_MERGE:          0
cpu0->cpu0_STLB RFO          ACCESS:          0 HIT:          0 MISS:          0 MSHR_MERGE:          0
cpu0->cpu0_STLB PREFETCH     ACCESS:          0 HIT:          0 MISS:          0 MSHR_MERGE:          0
cpu0->cpu0_STLB WRITE        ACCESS:          0 HIT:          0 MISS:          0 MSHR_MERGE:          0
cpu0->cpu0_STLB TRANSLATION  ACCESS:          0 HIT:          0 MISS:          0 MSHR_MERGE:          0
cpu0->cpu0_STLB PREFETCH REQUESTED:          0 ISSUED:          0 USEFUL:          0 USELESS:          0 LATE:          0
cpu0->cpu0_STLB AVERAGE MISS LATENCY: - cycles
cpu0->cpu0_L2C TOTAL        ACCESS:    4340754 HIT:    2945507 MISS:    1395247 MSHR_MERGE:        749
cpu0->cpu0_L2C LOAD         ACCESS:    3631072 HIT:    2335516 MISS:    1295556 MSHR_MERGE:         67
cpu0->cpu0_L2C RFO          ACCESS:     160529 HIT:      81488 MISS:      79041 MSHR_MERGE:          1
cpu0->cpu0_L2C PREFETCH     ACCESS:      37347 HIT:      19826 MISS:      17521 MSHR_MERGE:        681
cpu0->cpu0_L2C WRITE        ACCESS:     511806 HIT:     508677 MISS:       3129 MSHR_MERGE:          0
cpu0->cpu0_L2C TRANSLATION  ACCESS:          0 HIT:          0 MISS:          0 MSHR_MERGE:          0
cpu0->cpu0_L2C PREFETCH REQUESTED:      36161 ISSUED:      35969 USEFUL:      11139 USELESS:       5414 LATE:         63
cpu0->cpu0_L2C AVERAGE MISS LATENCY: 32.33 cycles
cpu0->cpu0_L1I TOTAL        ACCESS:   15847635 HIT:   11657589 MISS:    4190046 MSHR_MERGE:    1627370
cpu0->cpu0_L1I LOAD         ACCESS:   15847635 HIT:   11657589 MISS:    4190046 MSHR_MERGE:    1627370
cpu0->cpu0_L1I RFO          ACCESS:          0 HIT:          0 MISS:          0 MSHR_MERGE:          0
cpu0->cpu0_L1I PREFETCH     ACCESS:          0 HIT:          0 MISS:          0 MSHR_MERGE:          0
cpu0->cpu0_L1I WRITE        ACCESS:          0 HIT:          0 MISS:          0 MSHR_MERGE:          0
cpu0->cpu0_L1I TRANSLATION  ACCESS:          0 HIT:          0 MISS:          0 MSHR_MERGE:          0
cpu0->cpu0_L1I PREFETCH REQUESTED:          0 ISSUED:          0 USEFUL:          0 USELESS:          0 LATE:          0
cpu0->cpu0_L1I AVERAGE MISS LATENCY: 12.66 cycles
cpu0->cpu0_L1D TOTAL        ACCESS:   22708772 HIT:   20815061 MISS:    1893711 MSHR_MERGE:     663379
cpu0->cpu0_L1D LOAD         ACCESS:   12806399 HIT:   11357991 MISS:    1448408 MSHR_MERGE:     379994
cpu0->cpu0_L1D RFO          ACCESS:          0 HIT:          0 MISS:          0 MSHR_MERGE:          0
cpu0->cpu0_L1D PREFETCH     ACCESS:      20546 HIT:      19163 MISS:       1383 MSHR_MERGE:          4
cpu0->cpu0_L1D WRITE        ACCESS:    9881827 HIT:    9437907 MISS:     443920 MSHR_MERGE:     283381
cpu0->cpu0_L1D TRANSLATION  ACCESS:          0 HIT:          0 MISS:          0 MSHR_MERGE:          0
cpu0->cpu0_L1D PREFETCH REQUESTED:      26087 ISSUED:      20546 USEFUL:        155 USELESS:         33 LATE:          0
cpu0->cpu0_L1D AVERAGE MISS LATENCY: 34.41 cycles
cpu0->cpu0_ITLB TOTAL        ACCESS:   13486137 HIT:   12541543 MISS:     944594 MSHR_MERGE:     564441
cpu0->cpu0_ITLB LOAD         ACCESS:   13486137 HIT:   12541543 MISS:     944594 MSHR_MERGE:     564441
cpu0->cpu0_ITLB RFO          ACCESS:          0 HIT:          0 MISS:          0 MSHR_MERGE:          0
cpu0->cpu0_ITLB PREFETCH     ACCESS:          0 HIT:          0 MISS:          0 MSHR_MERGE:          0
cpu0->cpu0_ITLB WRITE        ACCESS:          0 HIT:          0 MISS:          0 MSHR_MERGE:          0
cpu0->cpu0_ITLB TRANSLATION  ACCESS:          0 HIT:          0 MISS:          0 MSHR_MERGE:          0
cpu0->cpu0_ITLB PREFETCH REQUESTED:          0 ISSUED:          0 USEFUL:          0 USELESS:          0 LATE:          0
cpu0->cpu0_ITLB AVERAGE MISS LATENCY: 5.031 cycles
cpu0->cpu0_DTLB TOTAL        ACCESS:   21313184 HIT:   19641918 MISS:    1671266 MSHR_MERGE:     417682
cpu0->cpu0_DTLB LOAD         ACCESS:   21313184 HIT:   19641918 MISS:    1671266 MSHR_MERGE:     417682
cpu0->cpu0_DTLB RFO          ACCESS:          0 HIT:          0 MISS:          0 MSHR_MERGE:          0
cpu0->cpu0_DTLB PREFETCH     ACCESS:          0 HIT:          0 MISS:          0 MSHR_MERGE:          0
cpu0->cpu0_DTLB WRITE        ACCESS:          0 HIT:          0 MISS:          0 MSHR_MERGE:          0
cpu0->cpu0_DTLB TRANSLATION  ACCESS:          0 HIT:          0 MISS:          0 MSHR_MERGE:          0
cpu0->cpu0_DTLB PREFETCH REQUESTED:          0 ISSUED:          0 USEFUL:          0 USELESS:          0 LATE:          0
cpu0->cpu0_DTLB AVERAGE MISS LATENCY: 5.007 cycles
cpu0->LLC TOTAL        ACCESS:    1647007 HIT:    1505420 MISS:     141587 MSHR_MERGE:          0
cpu0->LLC LOAD         ACCESS:    1295485 HIT:    1191021 MISS:     104464 MSHR_MERGE:          0
cpu0->LLC RFO          ACCESS:      79040 HIT:      57054 MISS:      21986 MSHR_MERGE:          0
cpu0->LLC PREFETCH     ACCESS:      16840 HIT:       6890 MISS:       9950 MSHR_MERGE:          0
cpu0->LLC WRITE        ACCESS:     255642 HIT:     250455 MISS:       5187 MSHR_MERGE:          0
cpu0->LLC TRANSLATION  ACCESS:          0 HIT:          0 MISS:          0 MSHR_MERGE:          0
cpu0->LLC PREFETCH REQUESTED:          0 ISSUED:          0 USEFUL:          0 USELESS:          0 LATE:          0
cpu0->LLC AVERAGE MISS LATENCY: 180.8 cycles

DRAM Statistics

Channel 0 RQ ROW_BUFFER_HIT:       5763
  ROW_BUFFER_MISS:     130632
  AVG DBUS CONGESTED CYCLE: 15.61
Channel 0 WQ ROW_BUFFER_HIT:      21658
  ROW_BUFFER_MISS:      81946
  FULL:          0
Channel 0 REFRESHES ISSUED:       4039

[ROI Statistics]
[System Configuration]
num_cpus 1
cpu_freq 4000
fetch_width 6
decode_width 6
dispatch_width 6
execute_width 6
lq_width 2
sq_width 2
retire_width 6
scheduler_size 128
branch_mispredict_penalty 15
rob_size 352
lq_size 128
sq_size 72
ifetch_buffer_size 64
decode_buffer_size 32
dispatch_buffer_size 32
register_file_size 288
decode_latency 1
dispatch_latency 1
schedule_latency 1
execute_latency 1
page_size 4096
block_size 64
core_0_itlb_set 16
core_0_itlb_way 4
core_0_itlb_rq_size 16
core_0_itlb_wq_size 16
core_0_itlb_pq_size 0
core_0_itlb_mshr_size 8
core_0_itlb_hit_latency 1
core_0_itlb_fill_latency 1
core_0_itlb_max_tag_check 2
core_0_itlb_max_fill 2
core_0_dtlb_set 16
core_0_dtlb_way 4
core_0_dtlb_rq_size 16
core_0_dtlb_wq_size 16
core_0_dtlb_pq_size 0
core_0_dtlb_mshr_size 8
core_0_dtlb_hit_latency 1
core_0_dtlb_fill_latency 1
core_0_dtlb_max_tag_check 2
core_0_dtlb_max_fill 2
core_0_stlb_set 128
core_0_stlb_way 12
core_0_stlb_rq_size 32
core_0_stlb_wq_size 32
core_0_stlb_pq_size 0
core_0_stlb_mshr_size 16
core_0_stlb_hit_latency 4
core_0_stlb_fill_latency 4
core_0_stlb_max_tag_check 1
core_0_stlb_max_fill 1
core_0_l1i_set 64
core_0_l1i_way 8
core_0_l1i_rq_size 64
core_0_l1i_wq_size 64
core_0_l1i_pq_size 32
core_0_l1i_mshr_size 8
core_0_l1i_hit_latency 2
core_0_l1i_fill_latency 2
core_0_l1i_max_tag_check 2
core_0_l1i_max_fill 2
core_0_l1d_set 64
core_0_l1d_way 12
core_0_l1d_rq_size 64
core_0_l1d_wq_size 64
core_0_l1d_pq_size 8
core_0_l1d_mshr_size 16
core_0_l1d_hit_latency 2
core_0_l1d_fill_latency 3
core_0_l1d_max_tag_check 2
core_0_l1d_max_fill 2
core_0_l2c_set 1024
core_0_l2c_way 8
core_0_l2c_rq_size 32
core_0_l2c_wq_size 32
core_0_l2c_pq_size 16
core_0_l2c_mshr_size 32
core_0_l2c_hit_latency 5
core_0_l2c_fill_latency 5
core_0_l2c_max_tag_check 1
core_0_l2c_max_fill 1
llc_set 2048
llc_way 16
llc_rq_size 32
llc_wq_size 32
llc_pq_size 32
llc_mshr_size 64
llc_hit_latency 10
llc_fill_latency 10
llc_max_tag_check 1
llc_max_fill 1
dram_channels 1
dram_ranks 1
dram_bankgroups 8
dram_banks 4
dram_rows 65536
dram_columns 1024
dram_channel_width 8
dram_rq_size 64
dram_wq_size 64
dram_size 17179869184
core_0_itlb_prefetcher no
core_0_dtlb_prefetcher no
core_0_stlb_prefetcher no
core_0_l1i_prefetcher next_line
core_0_l1d_prefetcher vberti
core_0_l2c_prefetcher ip_stride
llc_prefetcher no
llc_replacement drrip

Core_0_instructions 100000005
Core_0_cycles 48470217
Core_0_IPC 2.06312
Core_0_branch_prediction_accuracy 98.8358
Core_0_branch_MPKI 2.08849
Core_0_average_ROB_occupancy_at_mispredict 154.78

Core_0_ITLB_total_access 13486137
Core_0_ITLB_total_hit 12541543
Core_0_ITLB_total_miss 944594
Core_0_ITLB_total_MPKI 9.44594
Core_0_ITLB_total_miss_rate 0.0700419
Core_0_ITLB_demand_access 13486137
Core_0_ITLB_demand_hit 12541543
Core_0_ITLB_demand_miss 944594
Core_0_ITLB_demand_MPKI 9.44594
Core_0_ITLB_demand_miss_rate 0.0700419
Core_0_ITLB_load_access 13486137
Core_0_ITLB_load_hit 12541543
Core_0_ITLB_load_miss 944594
Core_0_ITLB_load_MPKI 9.44594
Core_0_ITLB_load_miss_rate 0.0700419
Core_0_ITLB_rfo_access 0
Core_0_ITLB_rfo_hit 0
Core_0_ITLB_rfo_miss 0
Core_0_ITLB_rfo_MPKI 0
Core_0_ITLB_rfo_miss_rate 0
Core_0_ITLB_prefetch_access 0
Core_0_ITLB_prefetch_hit 0
Core_0_ITLB_prefetch_miss 0
Core_0_ITLB_prefetch_MPKI 0
Core_0_ITLB_prefetch_miss_rate 0
Core_0_ITLB_writeback_access 0
Core_0_ITLB_writeback_hit 0
Core_0_ITLB_writeback_miss 0
Core_0_ITLB_writeback_MPKI 0
Core_0_ITLB_writeback_miss_rate 0
Core_0_ITLB_prefetch_requested 0
Core_0_ITLB_prefetch_issued 0
Core_0_ITLB_prefetch_useful 0
Core_0_ITLB_prefetch_useless 0
Core_0_ITLB_prefetch_late 0
Core_0_ITLB_prefetch_accuracy 0
Core_0_ITLB_prefetch_coverage 0
Core_0_ITLB_total_eviction 380153

Core_0_DTLB_total_access 21313184
Core_0_DTLB_total_hit 19641918
Core_0_DTLB_total_miss 1671266
Core_0_DTLB_total_MPKI 16.7127
Core_0_DTLB_total_miss_rate 0.0784147
Core_0_DTLB_demand_access 21313184
Core_0_DTLB_demand_hit 19641918
Core_0_DTLB_demand_miss 1671266
Core_0_DTLB_demand_MPKI 16.7127
Core_0_DTLB_demand_miss_rate 0.0784147
Core_0_DTLB_load_access 21313184
Core_0_DTLB_load_hit 19641918
Core_0_DTLB_load_miss 1671266
Core_0_DTLB_load_MPKI 16.7127
Core_0_DTLB_load_miss_rate 0.0784147
Core_0_DTLB_rfo_access 0
Core_0_DTLB_rfo_hit 0
Core_0_DTLB_rfo_miss 0
Core_0_DTLB_rfo_MPKI 0
Core_0_DTLB_rfo_miss_rate 0
Core_0_DTLB_prefetch_access 0
Core_0_DTLB_prefetch_hit 0
Core_0_DTLB_prefetch_miss 0
Core_0_DTLB_prefetch_MPKI 0
Core_0_DTLB_prefetch_miss_rate 0
Core_0_DTLB_writeback_access 0
Core_0_DTLB_writeback_hit 0
Core_0_DTLB_writeback_miss 0
Core_0_DTLB_writeback_MPKI 0
Core_0_DTLB_writeback_miss_rate 0
Core_0_DTLB_prefetch_requested 0
Core_0_DTLB_prefetch_issued 0
Core_0_DTLB_prefetch_useful 0
Core_0_DTLB_prefetch_useless 0
Core_0_DTLB_prefetch_late 0
Core_0_DTLB_prefetch_accuracy 0
Core_0_DTLB_prefetch_coverage 0
Core_0_DTLB_total_eviction 1253584

Core_0_STLB_total_access 1633737
Core_0_STLB_total_hit 1633737
Core_0_STLB_total_miss 0
Core_0_STLB_total_MPKI 0
Core_0_STLB_total_miss_rate 0
Core_0_STLB_demand_access 1633737
Core_0_STLB_demand_hit 1633737
Core_0_STLB_demand_miss 0
Core_0_STLB_demand_MPKI 0
Core_0_STLB_demand_miss_rate 0
Core_0_STLB_load_access 1633737
Core_0_STLB_load_hit 1633737
Core_0_STLB_load_miss 0
Core_0_STLB_load_MPKI 0
Core_0_STLB_load_miss_rate 0
Core_0_STLB_rfo_access 0
Core_0_STLB_rfo_hit 0
Core_0_STLB_rfo_miss 0
Core_0_STLB_rfo_MPKI 0
Core_0_STLB_rfo_miss_rate 0
Core_0_STLB_prefetch_access 0
Core_0_STLB_prefetch_hit 0
Core_0_STLB_prefetch_miss 0
Core_0_STLB_prefetch_MPKI 0
Core_0_STLB_prefetch_miss_rate 0
Core_0_STLB_writeback_access 0
Core_0_STLB_writeback_hit 0
Core_0_STLB_writeback_miss 0
Core_0_STLB_writeback_MPKI 0
Core_0_STLB_writeback_miss_rate 0
Core_0_STLB_prefetch_requested 0
Core_0_STLB_prefetch_issued 0
Core_0_STLB_prefetch_useful 0
Core_0_STLB_prefetch_useless 0
Core_0_STLB_prefetch_late 0
Core_0_STLB_prefetch_accuracy 0
Core_0_STLB_prefetch_coverage 0
Core_0_STLB_total_eviction 160247

Core_0_L1I_total_access 15847635
Core_0_L1I_total_hit 11657589
Core_0_L1I_total_miss 4190046
Core_0_L1I_total_MPKI 41.9005
Core_0_L1I_total_miss_rate 0.264396
Core_0_L1I_demand_access 15847635
Core_0_L1I_demand_hit 11657589
Core_0_L1I_demand_miss 4190046
Core_0_L1I_demand_MPKI 41.9005
Core_0_L1I_demand_miss_rate 0.264396
Core_0_L1I_load_access 15847635
Core_0_L1I_load_hit 11657589
Core_0_L1I_load_miss 4190046
Core_0_L1I_load_MPKI 41.9005
Core_0_L1I_load_miss_rate 0.264396
Core_0_L1I_rfo_access 0
Core_0_L1I_rfo_hit 0
Core_0_L1I_rfo_miss 0
Core_0_L1I_rfo_MPKI 0
Core_0_L1I_rfo_miss_rate 0
Core_0_L1I_prefetch_access 0
Core_0_L1I_prefetch_hit 0
Core_0_L1I_prefetch_miss 0
Core_0_L1I_prefetch_MPKI 0
Core_0_L1I_prefetch_miss_rate 0
Core_0_L1I_writeback_access 0
Core_0_L1I_writeback_hit 0
Core_0_L1I_writeback_miss 0
Core_0_L1I_writeback_MPKI 0
Core_0_L1I_writeback_miss_rate 0
Core_0_L1I_prefetch_requested 0
Core_0_L1I_prefetch_issued 0
Core_0_L1I_prefetch_useful 0
Core_0_L1I_prefetch_useless 0
Core_0_L1I_prefetch_late 0
Core_0_L1I_prefetch_accuracy 0
Core_0_L1I_prefetch_coverage 0
Core_0_L1I_total_eviction 2562674

Core_0_L1D_total_access 22708772
Core_0_L1D_total_hit 20815061
Core_0_L1D_total_miss 1893711
Core_0_L1D_total_MPKI 18.9371
Core_0_L1D_total_miss_rate 0.0833912
Core_0_L1D_demand_access 12806399
Core_0_L1D_demand_hit 11357991
Core_0_L1D_demand_miss 1448408
Core_0_L1D_demand_MPKI 14.4841
Core_0_L1D_demand_miss_rate 0.1131
Core_0_L1D_load_access 12806399
Core_0_L1D_load_hit 11357991
Core_0_L1D_load_miss 1448408
Core_0_L1D_load_MPKI 14.4841
Core_0_L1D_load_miss_rate 0.1131
Core_0_L1D_rfo_access 0
Core_0_L1D_rfo_hit 0
Core_0_L1D_rfo_miss 0
Core_0_L1D_rfo_MPKI 0
Core_0_L1D_rfo_miss_rate 0
Core_0_L1D_prefetch_access 20546
Core_0_L1D_prefetch_hit 19163
Core_0_L1D_prefetch_miss 1383
Core_0_L1D_prefetch_MPKI 0.01383
Core_0_L1D_prefetch_miss_rate 0.0673124
Core_0_L1D_writeback_access 9881827
Core_0_L1D_writeback_hit 9437907
Core_0_L1D_writeback_miss 443920
Core_0_L1D_writeback_MPKI 4.4392
Core_0_L1D_writeback_miss_rate 0.0449229
Core_0_L1D_prefetch_requested 26087
Core_0_L1D_prefetch_issued 20546
Core_0_L1D_prefetch_useful 155
Core_0_L1D_prefetch_useless 33
Core_0_L1D_prefetch_late 0
Core_0_L1D_prefetch_accuracy 0.00754405
Core_0_L1D_prefetch_coverage 0.000107003
Core_0_L1D_total_eviction 1229136

Core_0_L2C_total_access 4340754
Core_0_L2C_total_hit 2945507
Core_0_L2C_total_miss 1395247
Core_0_L2C_total_MPKI 13.9525
Core_0_L2C_total_miss_rate 0.32143
Core_0_L2C_demand_access 3791601
Core_0_L2C_demand_hit 2417004
Core_0_L2C_demand_miss 1374597
Core_0_L2C_demand_MPKI 13.746
Core_0_L2C_demand_miss_rate 0.362537
Core_0_L2C_load_access 3631072
Core_0_L2C_load_hit 2335516
Core_0_L2C_load_miss 1295556
Core_0_L2C_load_MPKI 12.9556
Core_0_L2C_load_miss_rate 0.356797
Core_0_L2C_rfo_access 160529
Core_0_L2C_rfo_hit 81488
Core_0_L2C_rfo_miss 79041
Core_0_L2C_rfo_MPKI 0.79041
Core_0_L2C_rfo_miss_rate 0.492378
Core_0_L2C_prefetch_access 37347
Core_0_L2C_prefetch_hit 19826
Core_0_L2C_prefetch_miss 17521
Core_0_L2C_prefetch_MPKI 0.17521
Core_0_L2C_prefetch_miss_rate 0.469141
Core_0_L2C_writeback_access 511806
Core_0_L2C_writeback_hit 508677
Core_0_L2C_writeback_miss 3129
Core_0_L2C_writeback_MPKI 0.03129
Core_0_L2C_writeback_miss_rate 0.00611364
Core_0_L2C_prefetch_requested 36161
Core_0_L2C_prefetch_issued 35969
Core_0_L2C_prefetch_useful 11139
Core_0_L2C_prefetch_useless 5414
Core_0_L2C_prefetch_late 63
Core_0_L2C_prefetch_accuracy 0.309683
Core_0_L2C_prefetch_coverage 0.00803833
Core_0_L2C_total_eviction 1394496

Core_0_LLC_total_access 1647007
Core_0_LLC_total_hit 1505420
Core_0_LLC_total_miss 141587
Core_0_LLC_total_MPKI 1.41587
Core_0_LLC_total_miss_rate 0.0859662
Core_0_LLC_demand_access 1374525
Core_0_LLC_demand_hit 1248075
Core_0_LLC_demand_miss 126450
Core_0_LLC_demand_MPKI 1.2645
Core_0_LLC_demand_miss_rate 0.0919954
Core_0_LLC_load_access 1295485
Core_0_LLC_load_hit 1191021
Core_0_LLC_load_miss 104464
Core_0_LLC_load_MPKI 1.04464
Core_0_LLC_load_miss_rate 0.080637
Core_0_LLC_rfo_access 79040
Core_0_LLC_rfo_hit 57054
Core_0_LLC_rfo_miss 21986
Core_0_LLC_rfo_MPKI 0.21986
Core_0_LLC_rfo_miss_rate 0.278163
Core_0_LLC_prefetch_access 16840
Core_0_LLC_prefetch_hit 6890
Core_0_LLC_prefetch_miss 9950
Core_0_LLC_prefetch_MPKI 0.0995
Core_0_LLC_prefetch_miss_rate 0.590855
Core_0_LLC_writeback_access 255642
Core_0_LLC_writeback_hit 250455
Core_0_LLC_writeback_miss 5187
Core_0_LLC_writeback_MPKI 0.05187
Core_0_LLC_writeback_miss_rate 0.0202901
Core_0_LLC_prefetch_requested 0
Core_0_LLC_prefetch_issued 0
Core_0_LLC_prefetch_useful 0
Core_0_LLC_prefetch_useless 0
Core_0_LLC_prefetch_late 0
Core_0_LLC_prefetch_accuracy 0
Core_0_LLC_prefetch_coverage 0
Core_0_LLC_total_eviction 141584

[DRAM Statistics]
Channel_0_RQ_row_buffer_hit 5763
Channel_0_RQ_row_buffer_miss 130632
Channel_0_WQ_row_buffer_hit 21658
Channel_0_WQ_row_buffer_miss 81946
Channel_0_WQ_full 0
Channel_0_dbus_congested 745907
DRAM_total_RQ_row_buffer_hit 5763
DRAM_total_RQ_row_buffer_miss 130632
DRAM_total_WQ_row_buffer_hit 21658
DRAM_total_WQ_row_buffer_miss 81946
DRAM_total_WQ_full 0
DRAM_total_dbus_congested 745907
DRAM_avg_congested_cycle 15.6125

======STLB miss causes ========
Core_0_STLB_miss_cause_breakdown
Core_0_STLB_cause_Demand_Data_miss 0
Core_0_STLB_cause_Demand_Data_miss_rate 0
Core_0_STLB_cause_Demand_Instruction_miss 0
Core_0_STLB_cause_Demand_Instruction_miss_rate 0
Core_0_STLB_cause_L1D_Prefetch_miss 0
Core_0_STLB_cause_L1D_Prefetch_miss_rate 0
Core_0_STLB_cause_L1I_Prefetch_miss 0
Core_0_STLB_cause_L1I_Prefetch_miss_rate 0
Core_0_STLB_cause_Other_miss 0
Core_0_STLB_cause_Other_miss_rate 0
Core_0_STLB_Demand_miss 0
Core_0_STLB_Demand_miss_rate 0
Core_0_STLB_L1D_Prefetch_miss 0
Core_0_STLB_L1D_Prefetch_miss_rate 0
Core_0_STLB_Other_miss 0
Core_0_STLB_Other_miss_rate 0
BERTI TO_L1: 99703 TO_L2: 88217 TO_L2_BC_MSHR: 0
BERTI AVG_LAT: 24.823 NUM_TRACK_LATENCY: 1843956 NUM_CANT_TRACK_LATENCY: 0
BERTI CROSS_PAGE 23882 NO_CROSS_PAGE: 164038
BERTI FOUND_BERTI: 963798 NO_FOUND_BERTI: 31401959
BERTI AVERAGE_ISSUED: 5.14426
