[VMEM] WARNING: physical memory size is smaller than virtual memory size.

*** ChampSim Multicore Out-of-Order Simulator ***
Warmup Instructions: 50000000
Simulation Instructions: 100000000
Number of CPUs: 1
Page size: 4096
STLB ideal mode: all
STLB ideal fill: on
Core 0: /data0/tzh/champsim_traces/QMM/srv_5_new.xz
VBerti Prefetcher
BERTI HASH ENTANGLING
BERTI IP MASK ffff
Off-chip DRAM Size: 16 GiB Channels: 1 Width: 64-bit Data Rate: 3205 MT/s
[BTB] WARNING: target of return is a lower address than the corresponding call. This is usually a problem with your trace.
[BTB] WARNING: target of return is a lower address than the corresponding call. This is usually a problem with your trace.
[BTB] WARNING: target of return is a lower address than the corresponding call. This is usually a problem with your trace.
[BTB] WARNING: target of return is a lower address than the corresponding call. This is usually a problem with your trace.
[BTB] WARNING: target of return is a lower address than the corresponding call. This is usually a problem with your trace.
[BTB] WARNING: target of return is a lower address than the corresponding call. This is usually a problem with your trace.
[BTB] WARNING: target of return is a lower address than the corresponding call. This is usually a problem with your trace.
[BTB] WARNING: target of return is a lower address than the corresponding call. This is usually a problem with your trace.
[BTB] WARNING: target of return is a lower address than the corresponding call. This is usually a problem with your trace.
[BTB] WARNING: target of return is a lower address than the corresponding call. This is usually a problem with your trace.
*** Reached end of trace: (0, "/data0/tzh/champsim_traces/QMM/srv_5_new.xz")
Warmup halting CPU 0 at instruction 50000002 cycle 10245909 for remainder of phase
Warmup finished CPU 0 instructions: 50000002 cycles: 10245909 cumulative IPC: 4.88 (Simulation time: 00 hr 02 min 28 sec)
Warmup complete CPU 0 instructions: 50000002 cycles: 10245909 cumulative IPC: 4.88 (Simulation time: 00 hr 02 min 28 sec)
*** Reached end of trace: (0, "/data0/tzh/champsim_traces/QMM/srv_5_new.xz")
*** Reached end of trace: (0, "/data0/tzh/champsim_traces/QMM/srv_5_new.xz")
*** Reached end of trace: (0, "/data0/tzh/champsim_traces/QMM/srv_5_new.xz")
Simulation finished CPU 0 instructions: 100000002 cycles: 48558204 cumulative IPC: 2.059 (Simulation time: 00 hr 10 min 29 sec)
Simulation complete CPU 0 instructions: 100000002 cycles: 48558204 cumulative IPC: 2.059 (Simulation time: 00 hr 10 min 29 sec)

ChampSim completed all CPUs

=== Simulation ===
CPU 0 runs /data0/tzh/champsim_traces/QMM/srv_5_new.xz

Region of Interest Statistics

CPU 0 cumulative IPC: 2.059 instructions: 100000002 cycles: 48558204
CPU 0 Branch Prediction Accuracy: 98.84% MPKI: 2.088 Average ROB Occupancy at Mispredict: 153.4
Branch type MPKI
BRANCH_DIRECT_JUMP: 0.1284
BRANCH_INDIRECT: 0.1745
BRANCH_CONDITIONAL: 1.232
BRANCH_DIRECT_CALL: 0.2364
BRANCH_INDIRECT_CALL: 0.07491
BRANCH_RETURN: 0.2416

cpu0->cpu0_STLB TOTAL        ACCESS:    1665345 HIT:    1665345 MISS:          0 MSHR_MERGE:          0
cpu0->cpu0_STLB LOAD         ACCESS:    1665345 HIT:    1665345 MISS:          0 MSHR_MERGE:          0
cpu0->cpu0_STLB RFO          ACCESS:          0 HIT:          0 MISS:          0 MSHR_MERGE:          0
cpu0->cpu0_STLB PREFETCH     ACCESS:          0 HIT:          0 MISS:          0 MSHR_MERGE:          0
cpu0->cpu0_STLB WRITE        ACCESS:          0 HIT:          0 MISS:          0 MSHR_MERGE:          0
cpu0->cpu0_STLB TRANSLATION  ACCESS:          0 HIT:          0 MISS:          0 MSHR_MERGE:          0
cpu0->cpu0_STLB PREFETCH REQUESTED:          0 ISSUED:          0 USEFUL:          0 USELESS:          0 LATE:          0
cpu0->cpu0_STLB AVERAGE MISS LATENCY: - cycles
cpu0->cpu0_L2C TOTAL        ACCESS:    4352511 HIT:    2936101 MISS:    1416410 MSHR_MERGE:       1092
cpu0->cpu0_L2C LOAD         ACCESS:    3644033 HIT:    2327789 MISS:    1316244 MSHR_MERGE:        121
cpu0->cpu0_L2C RFO          ACCESS:     160306 HIT:      81504 MISS:      78802 MSHR_MERGE:         14
cpu0->cpu0_L2C PREFETCH     ACCESS:      35407 HIT:      17448 MISS:      17959 MSHR_MERGE:        957
cpu0->cpu0_L2C WRITE        ACCESS:     512765 HIT:     509360 MISS:       3405 MSHR_MERGE:          0
cpu0->cpu0_L2C TRANSLATION  ACCESS:          0 HIT:          0 MISS:          0 MSHR_MERGE:          0
cpu0->cpu0_L2C PREFETCH REQUESTED:      35062 ISSUED:      34757 USEFUL:      10599 USELESS:       6066 LATE:        124
cpu0->cpu0_L2C AVERAGE MISS LATENCY: 31.7 cycles
cpu0->cpu0_L1I TOTAL        ACCESS:   15888215 HIT:   11683231 MISS:    4204984 MSHR_MERGE:    1630421
cpu0->cpu0_L1I LOAD         ACCESS:   15888215 HIT:   11683231 MISS:    4204984 MSHR_MERGE:    1630421
cpu0->cpu0_L1I RFO          ACCESS:          0 HIT:          0 MISS:          0 MSHR_MERGE:          0
cpu0->cpu0_L1I PREFETCH     ACCESS:          0 HIT:          0 MISS:          0 MSHR_MERGE:          0
cpu0->cpu0_L1I WRITE        ACCESS:          0 HIT:          0 MISS:          0 MSHR_MERGE:          0
cpu0->cpu0_L1I TRANSLATION  ACCESS:          0 HIT:          0 MISS:          0 MSHR_MERGE:          0
cpu0->cpu0_L1I PREFETCH REQUESTED:          0 ISSUED:          0 USEFUL:          0 USELESS:          0 LATE:          0
cpu0->cpu0_L1I AVERAGE MISS LATENCY: 12.8 cycles
cpu0->cpu0_L1D TOTAL        ACCESS:   22732571 HIT:   20841142 MISS:    1891429 MSHR_MERGE:     660963
cpu0->cpu0_L1D LOAD         ACCESS:   12805731 HIT:   11357809 MISS:    1447922 MSHR_MERGE:     378432
cpu0->cpu0_L1D RFO          ACCESS:          0 HIT:          0 MISS:          0 MSHR_MERGE:          0
cpu0->cpu0_L1D PREFETCH     ACCESS:      16954 HIT:      16271 MISS:        683 MSHR_MERGE:         30
cpu0->cpu0_L1D WRITE        ACCESS:    9909886 HIT:    9467062 MISS:     442824 MSHR_MERGE:     282501
cpu0->cpu0_L1D TRANSLATION  ACCESS:          0 HIT:          0 MISS:          0 MSHR_MERGE:          0
cpu0->cpu0_L1D PREFETCH REQUESTED:      24304 ISSUED:      16954 USEFUL:         39 USELESS:         44 LATE:          5
cpu0->cpu0_L1D AVERAGE MISS LATENCY: 33.87 cycles
cpu0->cpu0_ITLB TOTAL        ACCESS:   13523612 HIT:   12575064 MISS:     948548 MSHR_MERGE:     565251
cpu0->cpu0_ITLB LOAD         ACCESS:   13523612 HIT:   12575064 MISS:     948548 MSHR_MERGE:     565251
cpu0->cpu0_ITLB RFO          ACCESS:          0 HIT:          0 MISS:          0 MSHR_MERGE:          0
cpu0->cpu0_ITLB PREFETCH     ACCESS:          0 HIT:          0 MISS:          0 MSHR_MERGE:          0
cpu0->cpu0_ITLB WRITE        ACCESS:          0 HIT:          0 MISS:          0 MSHR_MERGE:          0
cpu0->cpu0_ITLB TRANSLATION  ACCESS:          0 HIT:          0 MISS:          0 MSHR_MERGE:          0
cpu0->cpu0_ITLB PREFETCH REQUESTED:          0 ISSUED:          0 USEFUL:          0 USELESS:          0 LATE:          0
cpu0->cpu0_ITLB AVERAGE MISS LATENCY: 5.03 cycles
cpu0->cpu0_DTLB TOTAL        ACCESS:   21347209 HIT:   19646576 MISS:    1700633 MSHR_MERGE:     418586
cpu0->cpu0_DTLB LOAD         ACCESS:   21347209 HIT:   19646576 MISS:    1700633 MSHR_MERGE:     418586
cpu0->cpu0_DTLB RFO          ACCESS:          0 HIT:          0 MISS:          0 MSHR_MERGE:          0
cpu0->cpu0_DTLB PREFETCH     ACCESS:          0 HIT:          0 MISS:          0 MSHR_MERGE:          0
cpu0->cpu0_DTLB WRITE        ACCESS:          0 HIT:          0 MISS:          0 MSHR_MERGE:          0
cpu0->cpu0_DTLB TRANSLATION  ACCESS:          0 HIT:          0 MISS:          0 MSHR_MERGE:          0
cpu0->cpu0_DTLB PREFETCH REQUESTED:          0 ISSUED:          0 USEFUL:          0 USELESS:          0 LATE:          0
cpu0->cpu0_DTLB AVERAGE MISS LATENCY: 5.009 cycles
cpu0->LLC TOTAL        ACCESS:    1669781 HIT:    1499524 MISS:     170257 MSHR_MERGE:          0
cpu0->LLC LOAD         ACCESS:    1316120 HIT:    1212389 MISS:     103731 MSHR_MERGE:          0
cpu0->LLC RFO          ACCESS:      78786 HIT:      57734 MISS:      21052 MSHR_MERGE:          0
cpu0->LLC PREFETCH     ACCESS:      17002 HIT:       7271 MISS:       9731 MSHR_MERGE:          0
cpu0->LLC WRITE        ACCESS:     257873 HIT:     222130 MISS:      35743 MSHR_MERGE:          0
cpu0->LLC TRANSLATION  ACCESS:          0 HIT:          0 MISS:          0 MSHR_MERGE:          0
cpu0->LLC PREFETCH REQUESTED:          0 ISSUED:          0 USEFUL:          0 USELESS:          0 LATE:          0
cpu0->LLC AVERAGE MISS LATENCY: 146.8 cycles

DRAM Statistics

Channel 0 RQ ROW_BUFFER_HIT:       6434
  ROW_BUFFER_MISS:     128076
  AVG DBUS CONGESTED CYCLE: 16.05
Channel 0 WQ ROW_BUFFER_HIT:      20007
  ROW_BUFFER_MISS:      76923
  FULL:          0
Channel 0 REFRESHES ISSUED:       4047

[ROI Statistics]
[System Configuration]
num_cpus 1
cpu_freq 4000
fetch_width 6
decode_width 6
dispatch_width 6
execute_width 6
lq_width 2
sq_width 2
retire_width 6
scheduler_size 128
branch_mispredict_penalty 15
rob_size 352
lq_size 128
sq_size 72
ifetch_buffer_size 64
decode_buffer_size 32
dispatch_buffer_size 32
register_file_size 288
decode_latency 1
dispatch_latency 1
schedule_latency 1
execute_latency 1
page_size 4096
block_size 64
core_0_itlb_set 16
core_0_itlb_way 4
core_0_itlb_rq_size 16
core_0_itlb_wq_size 16
core_0_itlb_pq_size 0
core_0_itlb_mshr_size 8
core_0_itlb_hit_latency 1
core_0_itlb_fill_latency 1
core_0_itlb_max_tag_check 2
core_0_itlb_max_fill 2
core_0_dtlb_set 16
core_0_dtlb_way 4
core_0_dtlb_rq_size 16
core_0_dtlb_wq_size 16
core_0_dtlb_pq_size 0
core_0_dtlb_mshr_size 8
core_0_dtlb_hit_latency 1
core_0_dtlb_fill_latency 1
core_0_dtlb_max_tag_check 2
core_0_dtlb_max_fill 2
core_0_stlb_set 128
core_0_stlb_way 12
core_0_stlb_rq_size 32
core_0_stlb_wq_size 32
core_0_stlb_pq_size 0
core_0_stlb_mshr_size 16
core_0_stlb_hit_latency 4
core_0_stlb_fill_latency 4
core_0_stlb_max_tag_check 1
core_0_stlb_max_fill 1
core_0_l1i_set 64
core_0_l1i_way 8
core_0_l1i_rq_size 64
core_0_l1i_wq_size 64
core_0_l1i_pq_size 32
core_0_l1i_mshr_size 8
core_0_l1i_hit_latency 2
core_0_l1i_fill_latency 2
core_0_l1i_max_tag_check 2
core_0_l1i_max_fill 2
core_0_l1d_set 64
core_0_l1d_way 12
core_0_l1d_rq_size 64
core_0_l1d_wq_size 64
core_0_l1d_pq_size 8
core_0_l1d_mshr_size 16
core_0_l1d_hit_latency 2
core_0_l1d_fill_latency 3
core_0_l1d_max_tag_check 2
core_0_l1d_max_fill 2
core_0_l2c_set 1024
core_0_l2c_way 8
core_0_l2c_rq_size 32
core_0_l2c_wq_size 32
core_0_l2c_pq_size 16
core_0_l2c_mshr_size 32
core_0_l2c_hit_latency 5
core_0_l2c_fill_latency 5
core_0_l2c_max_tag_check 1
core_0_l2c_max_fill 1
llc_set 2048
llc_way 16
llc_rq_size 32
llc_wq_size 32
llc_pq_size 32
llc_mshr_size 64
llc_hit_latency 10
llc_fill_latency 10
llc_max_tag_check 1
llc_max_fill 1
dram_channels 1
dram_ranks 1
dram_bankgroups 8
dram_banks 4
dram_rows 65536
dram_columns 1024
dram_channel_width 8
dram_rq_size 64
dram_wq_size 64
dram_size 17179869184
core_0_itlb_prefetcher no
core_0_dtlb_prefetcher no
core_0_stlb_prefetcher no
core_0_l1i_prefetcher next_line
core_0_l1d_prefetcher vberti
core_0_l2c_prefetcher ip_stride
llc_prefetcher no
llc_replacement drrip

Core_0_instructions 100000002
Core_0_cycles 48558204
Core_0_IPC 2.05938
Core_0_branch_prediction_accuracy 98.8369
Core_0_branch_MPKI 2.08804
Core_0_average_ROB_occupancy_at_mispredict 153.412

Core_0_ITLB_total_access 13523612
Core_0_ITLB_total_hit 12575064
Core_0_ITLB_total_miss 948548
Core_0_ITLB_total_MPKI 9.48548
Core_0_ITLB_total_miss_rate 0.0701401
Core_0_ITLB_demand_access 13523612
Core_0_ITLB_demand_hit 12575064
Core_0_ITLB_demand_miss 948548
Core_0_ITLB_demand_MPKI 9.48548
Core_0_ITLB_demand_miss_rate 0.0701401
Core_0_ITLB_load_access 13523612
Core_0_ITLB_load_hit 12575064
Core_0_ITLB_load_miss 948548
Core_0_ITLB_load_MPKI 9.48548
Core_0_ITLB_load_miss_rate 0.0701401
Core_0_ITLB_rfo_access 0
Core_0_ITLB_rfo_hit 0
Core_0_ITLB_rfo_miss 0
Core_0_ITLB_rfo_MPKI 0
Core_0_ITLB_rfo_miss_rate 0
Core_0_ITLB_prefetch_access 0
Core_0_ITLB_prefetch_hit 0
Core_0_ITLB_prefetch_miss 0
Core_0_ITLB_prefetch_MPKI 0
Core_0_ITLB_prefetch_miss_rate 0
Core_0_ITLB_writeback_access 0
Core_0_ITLB_writeback_hit 0
Core_0_ITLB_writeback_miss 0
Core_0_ITLB_writeback_MPKI 0
Core_0_ITLB_writeback_miss_rate 0
Core_0_ITLB_prefetch_requested 0
Core_0_ITLB_prefetch_issued 0
Core_0_ITLB_prefetch_useful 0
Core_0_ITLB_prefetch_useless 0
Core_0_ITLB_prefetch_late 0
Core_0_ITLB_prefetch_accuracy 0
Core_0_ITLB_prefetch_coverage 0
Core_0_ITLB_total_eviction 383297

Core_0_DTLB_total_access 21347209
Core_0_DTLB_total_hit 19646576
Core_0_DTLB_total_miss 1700633
Core_0_DTLB_total_MPKI 17.0063
Core_0_DTLB_total_miss_rate 0.0796654
Core_0_DTLB_demand_access 21347209
Core_0_DTLB_demand_hit 19646576
Core_0_DTLB_demand_miss 1700633
Core_0_DTLB_demand_MPKI 17.0063
Core_0_DTLB_demand_miss_rate 0.0796654
Core_0_DTLB_load_access 21347209
Core_0_DTLB_load_hit 19646576
Core_0_DTLB_load_miss 1700633
Core_0_DTLB_load_MPKI 17.0063
Core_0_DTLB_load_miss_rate 0.0796654
Core_0_DTLB_rfo_access 0
Core_0_DTLB_rfo_hit 0
Core_0_DTLB_rfo_miss 0
Core_0_DTLB_rfo_MPKI 0
Core_0_DTLB_rfo_miss_rate 0
Core_0_DTLB_prefetch_access 0
Core_0_DTLB_prefetch_hit 0
Core_0_DTLB_prefetch_miss 0
Core_0_DTLB_prefetch_MPKI 0
Core_0_DTLB_prefetch_miss_rate 0
Core_0_DTLB_writeback_access 0
Core_0_DTLB_writeback_hit 0
Core_0_DTLB_writeback_miss 0
Core_0_DTLB_writeback_MPKI 0
Core_0_DTLB_writeback_miss_rate 0
Core_0_DTLB_prefetch_requested 0
Core_0_DTLB_prefetch_issued 0
Core_0_DTLB_prefetch_useful 0
Core_0_DTLB_prefetch_useless 0
Core_0_DTLB_prefetch_late 0
Core_0_DTLB_prefetch_accuracy 0
Core_0_DTLB_prefetch_coverage 0
Core_0_DTLB_total_eviction 1282048

Core_0_STLB_total_access 1665345
Core_0_STLB_total_hit 1665345
Core_0_STLB_total_miss 0
Core_0_STLB_total_MPKI 0
Core_0_STLB_total_miss_rate 0
Core_0_STLB_demand_access 1665345
Core_0_STLB_demand_hit 1665345
Core_0_STLB_demand_miss 0
Core_0_STLB_demand_MPKI 0
Core_0_STLB_demand_miss_rate 0
Core_0_STLB_load_access 1665345
Core_0_STLB_load_hit 1665345
Core_0_STLB_load_miss 0
Core_0_STLB_load_MPKI 0
Core_0_STLB_load_miss_rate 0
Core_0_STLB_rfo_access 0
Core_0_STLB_rfo_hit 0
Core_0_STLB_rfo_miss 0
Core_0_STLB_rfo_MPKI 0
Core_0_STLB_rfo_miss_rate 0
Core_0_STLB_prefetch_access 0
Core_0_STLB_prefetch_hit 0
Core_0_STLB_prefetch_miss 0
Core_0_STLB_prefetch_MPKI 0
Core_0_STLB_prefetch_miss_rate 0
Core_0_STLB_writeback_access 0
Core_0_STLB_writeback_hit 0
Core_0_STLB_writeback_miss 0
Core_0_STLB_writeback_MPKI 0
Core_0_STLB_writeback_miss_rate 0
Core_0_STLB_prefetch_requested 0
Core_0_STLB_prefetch_issued 0
Core_0_STLB_prefetch_useful 0
Core_0_STLB_prefetch_useless 0
Core_0_STLB_prefetch_late 0
Core_0_STLB_prefetch_accuracy 0
Core_0_STLB_prefetch_coverage 0
Core_0_STLB_total_eviction 159860

Core_0_L1I_total_access 15888215
Core_0_L1I_total_hit 11683231
Core_0_L1I_total_miss 4204984
Core_0_L1I_total_MPKI 42.0498
Core_0_L1I_total_miss_rate 0.264661
Core_0_L1I_demand_access 15888215
Core_0_L1I_demand_hit 11683231
Core_0_L1I_demand_miss 4204984
Core_0_L1I_demand_MPKI 42.0498
Core_0_L1I_demand_miss_rate 0.264661
Core_0_L1I_load_access 15888215
Core_0_L1I_load_hit 11683231
Core_0_L1I_load_miss 4204984
Core_0_L1I_load_MPKI 42.0498
Core_0_L1I_load_miss_rate 0.264661
Core_0_L1I_rfo_access 0
Core_0_L1I_rfo_hit 0
Core_0_L1I_rfo_miss 0
Core_0_L1I_rfo_MPKI 0
Core_0_L1I_rfo_miss_rate 0
Core_0_L1I_prefetch_access 0
Core_0_L1I_prefetch_hit 0
Core_0_L1I_prefetch_miss 0
Core_0_L1I_prefetch_MPKI 0
Core_0_L1I_prefetch_miss_rate 0
Core_0_L1I_writeback_access 0
Core_0_L1I_writeback_hit 0
Core_0_L1I_writeback_miss 0
Core_0_L1I_writeback_MPKI 0
Core_0_L1I_writeback_miss_rate 0
Core_0_L1I_prefetch_requested 0
Core_0_L1I_prefetch_issued 0
Core_0_L1I_prefetch_useful 0
Core_0_L1I_prefetch_useless 0
Core_0_L1I_prefetch_late 0
Core_0_L1I_prefetch_accuracy 0
Core_0_L1I_prefetch_coverage 0
Core_0_L1I_total_eviction 2574563

Core_0_L1D_total_access 22732571
Core_0_L1D_total_hit 20841142
Core_0_L1D_total_miss 1891429
Core_0_L1D_total_MPKI 18.9143
Core_0_L1D_total_miss_rate 0.0832035
Core_0_L1D_demand_access 12805731
Core_0_L1D_demand_hit 11357809
Core_0_L1D_demand_miss 1447922
Core_0_L1D_demand_MPKI 14.4792
Core_0_L1D_demand_miss_rate 0.113068
Core_0_L1D_load_access 12805731
Core_0_L1D_load_hit 11357809
Core_0_L1D_load_miss 1447922
Core_0_L1D_load_MPKI 14.4792
Core_0_L1D_load_miss_rate 0.113068
Core_0_L1D_rfo_access 0
Core_0_L1D_rfo_hit 0
Core_0_L1D_rfo_miss 0
Core_0_L1D_rfo_MPKI 0
Core_0_L1D_rfo_miss_rate 0
Core_0_L1D_prefetch_access 16954
Core_0_L1D_prefetch_hit 16271
Core_0_L1D_prefetch_miss 683
Core_0_L1D_prefetch_MPKI 0.00683
Core_0_L1D_prefetch_miss_rate 0.0402855
Core_0_L1D_writeback_access 9909886
Core_0_L1D_writeback_hit 9467062
Core_0_L1D_writeback_miss 442824
Core_0_L1D_writeback_MPKI 4.42824
Core_0_L1D_writeback_miss_rate 0.0446851
Core_0_L1D_prefetch_requested 24304
Core_0_L1D_prefetch_issued 16954
Core_0_L1D_prefetch_useful 39
Core_0_L1D_prefetch_useless 44
Core_0_L1D_prefetch_late 5
Core_0_L1D_prefetch_accuracy 0.00230034
Core_0_L1D_prefetch_coverage 2.69344e-05
Core_0_L1D_total_eviction 1229896

Core_0_L2C_total_access 4352511
Core_0_L2C_total_hit 2936101
Core_0_L2C_total_miss 1416410
Core_0_L2C_total_MPKI 14.1641
Core_0_L2C_total_miss_rate 0.325424
Core_0_L2C_demand_access 3804339
Core_0_L2C_demand_hit 2409293
Core_0_L2C_demand_miss 1395046
Core_0_L2C_demand_MPKI 13.9505
Core_0_L2C_demand_miss_rate 0.366699
Core_0_L2C_load_access 3644033
Core_0_L2C_load_hit 2327789
Core_0_L2C_load_miss 1316244
Core_0_L2C_load_MPKI 13.1624
Core_0_L2C_load_miss_rate 0.361205
Core_0_L2C_rfo_access 160306
Core_0_L2C_rfo_hit 81504
Core_0_L2C_rfo_miss 78802
Core_0_L2C_rfo_MPKI 0.78802
Core_0_L2C_rfo_miss_rate 0.491572
Core_0_L2C_prefetch_access 35407
Core_0_L2C_prefetch_hit 17448
Core_0_L2C_prefetch_miss 17959
Core_0_L2C_prefetch_MPKI 0.17959
Core_0_L2C_prefetch_miss_rate 0.507216
Core_0_L2C_writeback_access 512765
Core_0_L2C_writeback_hit 509360
Core_0_L2C_writeback_miss 3405
Core_0_L2C_writeback_MPKI 0.03405
Core_0_L2C_writeback_miss_rate 0.00664047
Core_0_L2C_prefetch_requested 35062
Core_0_L2C_prefetch_issued 34757
Core_0_L2C_prefetch_useful 10599
Core_0_L2C_prefetch_useless 6066
Core_0_L2C_prefetch_late 124
Core_0_L2C_prefetch_accuracy 0.304946
Core_0_L2C_prefetch_coverage 0.00754031
Core_0_L2C_total_eviction 1415314

Core_0_LLC_total_access 1669781
Core_0_LLC_total_hit 1499524
Core_0_LLC_total_miss 170257
Core_0_LLC_total_MPKI 1.70257
Core_0_LLC_total_miss_rate 0.101964
Core_0_LLC_demand_access 1394906
Core_0_LLC_demand_hit 1270123
Core_0_LLC_demand_miss 124783
Core_0_LLC_demand_MPKI 1.24783
Core_0_LLC_demand_miss_rate 0.0894562
Core_0_LLC_load_access 1316120
Core_0_LLC_load_hit 1212389
Core_0_LLC_load_miss 103731
Core_0_LLC_load_MPKI 1.03731
Core_0_LLC_load_miss_rate 0.0788158
Core_0_LLC_rfo_access 78786
Core_0_LLC_rfo_hit 57734
Core_0_LLC_rfo_miss 21052
Core_0_LLC_rfo_MPKI 0.21052
Core_0_LLC_rfo_miss_rate 0.267205
Core_0_LLC_prefetch_access 17002
Core_0_LLC_prefetch_hit 7271
Core_0_LLC_prefetch_miss 9731
Core_0_LLC_prefetch_MPKI 0.09731
Core_0_LLC_prefetch_miss_rate 0.572344
Core_0_LLC_writeback_access 257873
Core_0_LLC_writeback_hit 222130
Core_0_LLC_writeback_miss 35743
Core_0_LLC_writeback_MPKI 0.35743
Core_0_LLC_writeback_miss_rate 0.138607
Core_0_LLC_prefetch_requested 0
Core_0_LLC_prefetch_issued 0
Core_0_LLC_prefetch_useful 0
Core_0_LLC_prefetch_useless 0
Core_0_LLC_prefetch_late 0
Core_0_LLC_prefetch_accuracy 0
Core_0_LLC_prefetch_coverage 0
Core_0_LLC_total_eviction 170257

[DRAM Statistics]
Channel_0_RQ_row_buffer_hit 6434
Channel_0_RQ_row_buffer_miss 128076
Channel_0_WQ_row_buffer_hit 20007
Channel_0_WQ_row_buffer_miss 76923
Channel_0_WQ_full 0
Channel_0_dbus_congested 719198
DRAM_total_RQ_row_buffer_hit 6434
DRAM_total_RQ_row_buffer_miss 128076
DRAM_total_WQ_row_buffer_hit 20007
DRAM_total_WQ_row_buffer_miss 76923
DRAM_total_WQ_full 0
DRAM_total_dbus_congested 719198
DRAM_avg_congested_cycle 16.0509

======STLB miss causes ========
Core_0_STLB_miss_cause_breakdown
Core_0_STLB_cause_Demand_Data_miss 0
Core_0_STLB_cause_Demand_Data_miss_rate 0
Core_0_STLB_cause_Demand_Instruction_miss 0
Core_0_STLB_cause_Demand_Instruction_miss_rate 0
Core_0_STLB_cause_L1D_Prefetch_miss 0
Core_0_STLB_cause_L1D_Prefetch_miss_rate 0
Core_0_STLB_cause_L1I_Prefetch_miss 0
Core_0_STLB_cause_L1I_Prefetch_miss_rate 0
Core_0_STLB_cause_Other_miss 0
Core_0_STLB_cause_Other_miss_rate 0
Core_0_STLB_Demand_miss 0
Core_0_STLB_Demand_miss_rate 0
Core_0_STLB_L1D_Prefetch_miss 0
Core_0_STLB_L1D_Prefetch_miss_rate 0
Core_0_STLB_Other_miss 0
Core_0_STLB_Other_miss_rate 0
BERTI TO_L1: 89737 TO_L2: 88015 TO_L2_BC_MSHR: 473
BERTI AVG_LAT: 24.5209 NUM_TRACK_LATENCY: 1844891 NUM_CANT_TRACK_LATENCY: 0
BERTI CROSS_PAGE 20041 NO_CROSS_PAGE: 157711
BERTI FOUND_BERTI: 971388 NO_FOUND_BERTI: 31407475
BERTI AVERAGE_ISSUED: 5.25391
