[VMEM] WARNING: physical memory size is smaller than virtual memory size.

*** ChampSim Multicore Out-of-Order Simulator ***
Warmup Instructions: 50000000
Simulation Instructions: 100000000
Number of CPUs: 1
Page size: 4096
STLB ideal mode: all
STLB ideal fill: on
Core 0: /data0/tzh/champsim_traces/QMM/srv_61_new.xz
VBerti Prefetcher
BERTI HASH ENTANGLING
BERTI IP MASK ffff
Off-chip DRAM Size: 16 GiB Channels: 1 Width: 64-bit Data Rate: 3205 MT/s
[BTB] WARNING: target of return is a lower address than the corresponding call. This is usually a problem with your trace.
[BTB] WARNING: target of return is a lower address than the corresponding call. This is usually a problem with your trace.
[BTB] WARNING: target of return is a lower address than the corresponding call. This is usually a problem with your trace.
[BTB] WARNING: target of return is a lower address than the corresponding call. This is usually a problem with your trace.
[BTB] WARNING: target of return is a lower address than the corresponding call. This is usually a problem with your trace.
[BTB] WARNING: target of return is a lower address than the corresponding call. This is usually a problem with your trace.
[BTB] WARNING: target of return is a lower address than the corresponding call. This is usually a problem with your trace.
[BTB] WARNING: target of return is a lower address than the corresponding call. This is usually a problem with your trace.
[BTB] WARNING: target of return is a lower address than the corresponding call. This is usually a problem with your trace.
[BTB] WARNING: target of return is a lower address than the corresponding call. This is usually a problem with your trace.
*** Reached end of trace: (0, "/data0/tzh/champsim_traces/QMM/srv_61_new.xz")
Warmup halting CPU 0 at instruction 50000001 cycle 10267708 for remainder of phase
Warmup finished CPU 0 instructions: 50000001 cycles: 10267708 cumulative IPC: 4.87 (Simulation time: 00 hr 02 min 27 sec)
Warmup complete CPU 0 instructions: 50000001 cycles: 10267708 cumulative IPC: 4.87 (Simulation time: 00 hr 02 min 27 sec)
*** Reached end of trace: (0, "/data0/tzh/champsim_traces/QMM/srv_61_new.xz")
*** Reached end of trace: (0, "/data0/tzh/champsim_traces/QMM/srv_61_new.xz")
*** Reached end of trace: (0, "/data0/tzh/champsim_traces/QMM/srv_61_new.xz")
Simulation finished CPU 0 instructions: 100000003 cycles: 57728123 cumulative IPC: 1.732 (Simulation time: 00 hr 10 min 34 sec)
Simulation complete CPU 0 instructions: 100000003 cycles: 57728123 cumulative IPC: 1.732 (Simulation time: 00 hr 10 min 34 sec)

ChampSim completed all CPUs

=== Simulation ===
CPU 0 runs /data0/tzh/champsim_traces/QMM/srv_61_new.xz

Region of Interest Statistics

CPU 0 cumulative IPC: 1.732 instructions: 100000003 cycles: 57728123
CPU 0 Branch Prediction Accuracy: 97.36% MPKI: 4.77 Average ROB Occupancy at Mispredict: 92.14
Branch type MPKI
BRANCH_DIRECT_JUMP: 0.4208
BRANCH_INDIRECT: 0.353
BRANCH_CONDITIONAL: 2.481
BRANCH_DIRECT_CALL: 0.7435
BRANCH_INDIRECT_CALL: 0.1828
BRANCH_RETURN: 0.589

cpu0->cpu0_STLB TOTAL        ACCESS:    1622357 HIT:    1622357 MISS:          0 MSHR_MERGE:          0
cpu0->cpu0_STLB LOAD         ACCESS:    1622357 HIT:    1622357 MISS:          0 MSHR_MERGE:          0
cpu0->cpu0_STLB RFO          ACCESS:          0 HIT:          0 MISS:          0 MSHR_MERGE:          0
cpu0->cpu0_STLB PREFETCH     ACCESS:          0 HIT:          0 MISS:          0 MSHR_MERGE:          0
cpu0->cpu0_STLB WRITE        ACCESS:          0 HIT:          0 MISS:          0 MSHR_MERGE:          0
cpu0->cpu0_STLB TRANSLATION  ACCESS:          0 HIT:          0 MISS:          0 MSHR_MERGE:          0
cpu0->cpu0_STLB PREFETCH REQUESTED:          0 ISSUED:          0 USEFUL:          0 USELESS:          0 LATE:          0
cpu0->cpu0_STLB AVERAGE MISS LATENCY: - cycles
cpu0->cpu0_L2C TOTAL        ACCESS:    4417952 HIT:    2525786 MISS:    1892166 MSHR_MERGE:       4206
cpu0->cpu0_L2C LOAD         ACCESS:    3685953 HIT:    1925167 MISS:    1760786 MSHR_MERGE:       1023
cpu0->cpu0_L2C RFO          ACCESS:     171263 HIT:      69337 MISS:     101926 MSHR_MERGE:          6
cpu0->cpu0_L2C PREFETCH     ACCESS:      55877 HIT:      29886 MISS:      25991 MSHR_MERGE:       3177
cpu0->cpu0_L2C WRITE        ACCESS:     504859 HIT:     501396 MISS:       3463 MSHR_MERGE:          0
cpu0->cpu0_L2C TRANSLATION  ACCESS:          0 HIT:          0 MISS:          0 MSHR_MERGE:          0
cpu0->cpu0_L2C PREFETCH REQUESTED:      75998 ISSUED:      46674 USEFUL:       8875 USELESS:       8940 LATE:        418
cpu0->cpu0_L2C AVERAGE MISS LATENCY: 26.77 cycles
cpu0->cpu0_L1I TOTAL        ACCESS:   15308941 HIT:   11191963 MISS:    4116978 MSHR_MERGE:    1516126
cpu0->cpu0_L1I LOAD         ACCESS:   15308941 HIT:   11191963 MISS:    4116978 MSHR_MERGE:    1516126
cpu0->cpu0_L1I RFO          ACCESS:          0 HIT:          0 MISS:          0 MSHR_MERGE:          0
cpu0->cpu0_L1I PREFETCH     ACCESS:          0 HIT:          0 MISS:          0 MSHR_MERGE:          0
cpu0->cpu0_L1I WRITE        ACCESS:          0 HIT:          0 MISS:          0 MSHR_MERGE:          0
cpu0->cpu0_L1I TRANSLATION  ACCESS:          0 HIT:          0 MISS:          0 MSHR_MERGE:          0
cpu0->cpu0_L1I PREFETCH REQUESTED:          0 ISSUED:          0 USEFUL:          0 USELESS:          0 LATE:          0
cpu0->cpu0_L1I AVERAGE MISS LATENCY: 14.61 cycles
cpu0->cpu0_L1D TOTAL        ACCESS:   23343138 HIT:   21405407 MISS:    1937731 MSHR_MERGE:     670566
cpu0->cpu0_L1D LOAD         ACCESS:   13289099 HIT:   11836299 MISS:    1452800 MSHR_MERGE:     367694
cpu0->cpu0_L1D RFO          ACCESS:          0 HIT:          0 MISS:          0 MSHR_MERGE:          0
cpu0->cpu0_L1D PREFETCH     ACCESS:      85724 HIT:      72833 MISS:      12891 MSHR_MERGE:       2102
cpu0->cpu0_L1D WRITE        ACCESS:    9968315 HIT:    9496275 MISS:     472040 MSHR_MERGE:     300770
cpu0->cpu0_L1D TRANSLATION  ACCESS:          0 HIT:          0 MISS:          0 MSHR_MERGE:          0
cpu0->cpu0_L1D PREFETCH REQUESTED:     219236 ISSUED:      85724 USEFUL:       3056 USELESS:       1128 LATE:       1046
cpu0->cpu0_L1D AVERAGE MISS LATENCY: 34.2 cycles
cpu0->cpu0_ITLB TOTAL        ACCESS:   12981338 HIT:   12044030 MISS:     937308 MSHR_MERGE:     547926
cpu0->cpu0_ITLB LOAD         ACCESS:   12981338 HIT:   12044030 MISS:     937308 MSHR_MERGE:     547926
cpu0->cpu0_ITLB RFO          ACCESS:          0 HIT:          0 MISS:          0 MSHR_MERGE:          0
cpu0->cpu0_ITLB PREFETCH     ACCESS:          0 HIT:          0 MISS:          0 MSHR_MERGE:          0
cpu0->cpu0_ITLB WRITE        ACCESS:          0 HIT:          0 MISS:          0 MSHR_MERGE:          0
cpu0->cpu0_ITLB TRANSLATION  ACCESS:          0 HIT:          0 MISS:          0 MSHR_MERGE:          0
cpu0->cpu0_ITLB PREFETCH REQUESTED:          0 ISSUED:          0 USEFUL:          0 USELESS:          0 LATE:          0
cpu0->cpu0_ITLB AVERAGE MISS LATENCY: 5.025 cycles
cpu0->cpu0_DTLB TOTAL        ACCESS:   21972405 HIT:   20338741 MISS:    1633664 MSHR_MERGE:     400689
cpu0->cpu0_DTLB LOAD         ACCESS:   21972405 HIT:   20338741 MISS:    1633664 MSHR_MERGE:     400689
cpu0->cpu0_DTLB RFO          ACCESS:          0 HIT:          0 MISS:          0 MSHR_MERGE:          0
cpu0->cpu0_DTLB PREFETCH     ACCESS:          0 HIT:          0 MISS:          0 MSHR_MERGE:          0
cpu0->cpu0_DTLB WRITE        ACCESS:          0 HIT:          0 MISS:          0 MSHR_MERGE:          0
cpu0->cpu0_DTLB TRANSLATION  ACCESS:          0 HIT:          0 MISS:          0 MSHR_MERGE:          0
cpu0->cpu0_DTLB PREFETCH REQUESTED:          0 ISSUED:          0 USEFUL:          0 USELESS:          0 LATE:          0
cpu0->cpu0_DTLB AVERAGE MISS LATENCY: 5.005 cycles
cpu0->LLC TOTAL        ACCESS:    2185661 HIT:    2056779 MISS:     128882 MSHR_MERGE:          0
cpu0->LLC LOAD         ACCESS:    1759763 HIT:    1661050 MISS:      98713 MSHR_MERGE:          0
cpu0->LLC RFO          ACCESS:     101920 HIT:      82050 MISS:      19870 MSHR_MERGE:          0
cpu0->LLC PREFETCH     ACCESS:      22814 HIT:      16263 MISS:       6551 MSHR_MERGE:          0
cpu0->LLC WRITE        ACCESS:     301164 HIT:     297416 MISS:       3748 MSHR_MERGE:          0
cpu0->LLC TRANSLATION  ACCESS:          0 HIT:          0 MISS:          0 MSHR_MERGE:          0
cpu0->LLC PREFETCH REQUESTED:          0 ISSUED:          0 USEFUL:          0 USELESS:          0 LATE:          0
cpu0->LLC AVERAGE MISS LATENCY: 179 cycles

DRAM Statistics

Channel 0 RQ ROW_BUFFER_HIT:       3880
  ROW_BUFFER_MISS:     121248
  AVG DBUS CONGESTED CYCLE: 15.91
Channel 0 WQ ROW_BUFFER_HIT:      19808
  ROW_BUFFER_MISS:      80910
  FULL:          0
Channel 0 REFRESHES ISSUED:       4811

[ROI Statistics]
[System Configuration]
num_cpus 1
cpu_freq 4000
fetch_width 6
decode_width 6
dispatch_width 6
execute_width 6
lq_width 2
sq_width 2
retire_width 6
scheduler_size 128
branch_mispredict_penalty 15
rob_size 352
lq_size 128
sq_size 72
ifetch_buffer_size 64
decode_buffer_size 32
dispatch_buffer_size 32
register_file_size 288
decode_latency 1
dispatch_latency 1
schedule_latency 1
execute_latency 1
page_size 4096
block_size 64
core_0_itlb_set 16
core_0_itlb_way 4
core_0_itlb_rq_size 16
core_0_itlb_wq_size 16
core_0_itlb_pq_size 0
core_0_itlb_mshr_size 8
core_0_itlb_hit_latency 1
core_0_itlb_fill_latency 1
core_0_itlb_max_tag_check 2
core_0_itlb_max_fill 2
core_0_dtlb_set 16
core_0_dtlb_way 4
core_0_dtlb_rq_size 16
core_0_dtlb_wq_size 16
core_0_dtlb_pq_size 0
core_0_dtlb_mshr_size 8
core_0_dtlb_hit_latency 1
core_0_dtlb_fill_latency 1
core_0_dtlb_max_tag_check 2
core_0_dtlb_max_fill 2
core_0_stlb_set 128
core_0_stlb_way 12
core_0_stlb_rq_size 32
core_0_stlb_wq_size 32
core_0_stlb_pq_size 0
core_0_stlb_mshr_size 16
core_0_stlb_hit_latency 4
core_0_stlb_fill_latency 4
core_0_stlb_max_tag_check 1
core_0_stlb_max_fill 1
core_0_l1i_set 64
core_0_l1i_way 8
core_0_l1i_rq_size 64
core_0_l1i_wq_size 64
core_0_l1i_pq_size 32
core_0_l1i_mshr_size 8
core_0_l1i_hit_latency 2
core_0_l1i_fill_latency 2
core_0_l1i_max_tag_check 2
core_0_l1i_max_fill 2
core_0_l1d_set 64
core_0_l1d_way 12
core_0_l1d_rq_size 64
core_0_l1d_wq_size 64
core_0_l1d_pq_size 8
core_0_l1d_mshr_size 16
core_0_l1d_hit_latency 2
core_0_l1d_fill_latency 3
core_0_l1d_max_tag_check 2
core_0_l1d_max_fill 2
core_0_l2c_set 1024
core_0_l2c_way 8
core_0_l2c_rq_size 32
core_0_l2c_wq_size 32
core_0_l2c_pq_size 16
core_0_l2c_mshr_size 32
core_0_l2c_hit_latency 5
core_0_l2c_fill_latency 5
core_0_l2c_max_tag_check 1
core_0_l2c_max_fill 1
llc_set 2048
llc_way 16
llc_rq_size 32
llc_wq_size 32
llc_pq_size 32
llc_mshr_size 64
llc_hit_latency 10
llc_fill_latency 10
llc_max_tag_check 1
llc_max_fill 1
dram_channels 1
dram_ranks 1
dram_bankgroups 8
dram_banks 4
dram_rows 65536
dram_columns 1024
dram_channel_width 8
dram_rq_size 64
dram_wq_size 64
dram_size 17179869184
core_0_itlb_prefetcher no
core_0_dtlb_prefetcher no
core_0_stlb_prefetcher no
core_0_l1i_prefetcher next_line
core_0_l1d_prefetcher vberti
core_0_l2c_prefetcher ip_stride
llc_prefetcher no
llc_replacement drrip

Core_0_instructions 100000003
Core_0_cycles 57728123
Core_0_IPC 1.73226
Core_0_branch_prediction_accuracy 97.3641
Core_0_branch_MPKI 4.77009
Core_0_average_ROB_occupancy_at_mispredict 92.1443

Core_0_ITLB_total_access 12981338
Core_0_ITLB_total_hit 12044030
Core_0_ITLB_total_miss 937308
Core_0_ITLB_total_MPKI 9.37308
Core_0_ITLB_total_miss_rate 0.0722043
Core_0_ITLB_demand_access 12981338
Core_0_ITLB_demand_hit 12044030
Core_0_ITLB_demand_miss 937308
Core_0_ITLB_demand_MPKI 9.37308
Core_0_ITLB_demand_miss_rate 0.0722043
Core_0_ITLB_load_access 12981338
Core_0_ITLB_load_hit 12044030
Core_0_ITLB_load_miss 937308
Core_0_ITLB_load_MPKI 9.37308
Core_0_ITLB_load_miss_rate 0.0722043
Core_0_ITLB_rfo_access 0
Core_0_ITLB_rfo_hit 0
Core_0_ITLB_rfo_miss 0
Core_0_ITLB_rfo_MPKI 0
Core_0_ITLB_rfo_miss_rate 0
Core_0_ITLB_prefetch_access 0
Core_0_ITLB_prefetch_hit 0
Core_0_ITLB_prefetch_miss 0
Core_0_ITLB_prefetch_MPKI 0
Core_0_ITLB_prefetch_miss_rate 0
Core_0_ITLB_writeback_access 0
Core_0_ITLB_writeback_hit 0
Core_0_ITLB_writeback_miss 0
Core_0_ITLB_writeback_MPKI 0
Core_0_ITLB_writeback_miss_rate 0
Core_0_ITLB_prefetch_requested 0
Core_0_ITLB_prefetch_issued 0
Core_0_ITLB_prefetch_useful 0
Core_0_ITLB_prefetch_useless 0
Core_0_ITLB_prefetch_late 0
Core_0_ITLB_prefetch_accuracy 0
Core_0_ITLB_prefetch_coverage 0
Core_0_ITLB_total_eviction 389382

Core_0_DTLB_total_access 21972405
Core_0_DTLB_total_hit 20338741
Core_0_DTLB_total_miss 1633664
Core_0_DTLB_total_MPKI 16.3366
Core_0_DTLB_total_miss_rate 0.0743507
Core_0_DTLB_demand_access 21972405
Core_0_DTLB_demand_hit 20338741
Core_0_DTLB_demand_miss 1633664
Core_0_DTLB_demand_MPKI 16.3366
Core_0_DTLB_demand_miss_rate 0.0743507
Core_0_DTLB_load_access 21972405
Core_0_DTLB_load_hit 20338741
Core_0_DTLB_load_miss 1633664
Core_0_DTLB_load_MPKI 16.3366
Core_0_DTLB_load_miss_rate 0.0743507
Core_0_DTLB_rfo_access 0
Core_0_DTLB_rfo_hit 0
Core_0_DTLB_rfo_miss 0
Core_0_DTLB_rfo_MPKI 0
Core_0_DTLB_rfo_miss_rate 0
Core_0_DTLB_prefetch_access 0
Core_0_DTLB_prefetch_hit 0
Core_0_DTLB_prefetch_miss 0
Core_0_DTLB_prefetch_MPKI 0
Core_0_DTLB_prefetch_miss_rate 0
Core_0_DTLB_writeback_access 0
Core_0_DTLB_writeback_hit 0
Core_0_DTLB_writeback_miss 0
Core_0_DTLB_writeback_MPKI 0
Core_0_DTLB_writeback_miss_rate 0
Core_0_DTLB_prefetch_requested 0
Core_0_DTLB_prefetch_issued 0
Core_0_DTLB_prefetch_useful 0
Core_0_DTLB_prefetch_useless 0
Core_0_DTLB_prefetch_late 0
Core_0_DTLB_prefetch_accuracy 0
Core_0_DTLB_prefetch_coverage 0
Core_0_DTLB_total_eviction 1232975

Core_0_STLB_total_access 1622357
Core_0_STLB_total_hit 1622357
Core_0_STLB_total_miss 0
Core_0_STLB_total_MPKI 0
Core_0_STLB_total_miss_rate 0
Core_0_STLB_demand_access 1622357
Core_0_STLB_demand_hit 1622357
Core_0_STLB_demand_miss 0
Core_0_STLB_demand_MPKI 0
Core_0_STLB_demand_miss_rate 0
Core_0_STLB_load_access 1622357
Core_0_STLB_load_hit 1622357
Core_0_STLB_load_miss 0
Core_0_STLB_load_MPKI 0
Core_0_STLB_load_miss_rate 0
Core_0_STLB_rfo_access 0
Core_0_STLB_rfo_hit 0
Core_0_STLB_rfo_miss 0
Core_0_STLB_rfo_MPKI 0
Core_0_STLB_rfo_miss_rate 0
Core_0_STLB_prefetch_access 0
Core_0_STLB_prefetch_hit 0
Core_0_STLB_prefetch_miss 0
Core_0_STLB_prefetch_MPKI 0
Core_0_STLB_prefetch_miss_rate 0
Core_0_STLB_writeback_access 0
Core_0_STLB_writeback_hit 0
Core_0_STLB_writeback_miss 0
Core_0_STLB_writeback_MPKI 0
Core_0_STLB_writeback_miss_rate 0
Core_0_STLB_prefetch_requested 0
Core_0_STLB_prefetch_issued 0
Core_0_STLB_prefetch_useful 0
Core_0_STLB_prefetch_useless 0
Core_0_STLB_prefetch_late 0
Core_0_STLB_prefetch_accuracy 0
Core_0_STLB_prefetch_coverage 0
Core_0_STLB_total_eviction 229041

Core_0_L1I_total_access 15308941
Core_0_L1I_total_hit 11191963
Core_0_L1I_total_miss 4116978
Core_0_L1I_total_MPKI 41.1698
Core_0_L1I_total_miss_rate 0.268926
Core_0_L1I_demand_access 15308941
Core_0_L1I_demand_hit 11191963
Core_0_L1I_demand_miss 4116978
Core_0_L1I_demand_MPKI 41.1698
Core_0_L1I_demand_miss_rate 0.268926
Core_0_L1I_load_access 15308941
Core_0_L1I_load_hit 11191963
Core_0_L1I_load_miss 4116978
Core_0_L1I_load_MPKI 41.1698
Core_0_L1I_load_miss_rate 0.268926
Core_0_L1I_rfo_access 0
Core_0_L1I_rfo_hit 0
Core_0_L1I_rfo_miss 0
Core_0_L1I_rfo_MPKI 0
Core_0_L1I_rfo_miss_rate 0
Core_0_L1I_prefetch_access 0
Core_0_L1I_prefetch_hit 0
Core_0_L1I_prefetch_miss 0
Core_0_L1I_prefetch_MPKI 0
Core_0_L1I_prefetch_miss_rate 0
Core_0_L1I_writeback_access 0
Core_0_L1I_writeback_hit 0
Core_0_L1I_writeback_miss 0
Core_0_L1I_writeback_MPKI 0
Core_0_L1I_writeback_miss_rate 0
Core_0_L1I_prefetch_requested 0
Core_0_L1I_prefetch_issued 0
Core_0_L1I_prefetch_useful 0
Core_0_L1I_prefetch_useless 0
Core_0_L1I_prefetch_late 0
Core_0_L1I_prefetch_accuracy 0
Core_0_L1I_prefetch_coverage 0
Core_0_L1I_total_eviction 2600852

Core_0_L1D_total_access 23343138
Core_0_L1D_total_hit 21405407
Core_0_L1D_total_miss 1937731
Core_0_L1D_total_MPKI 19.3773
Core_0_L1D_total_miss_rate 0.0830107
Core_0_L1D_demand_access 13289099
Core_0_L1D_demand_hit 11836299
Core_0_L1D_demand_miss 1452800
Core_0_L1D_demand_MPKI 14.528
Core_0_L1D_demand_miss_rate 0.109323
Core_0_L1D_load_access 13289099
Core_0_L1D_load_hit 11836299
Core_0_L1D_load_miss 1452800
Core_0_L1D_load_MPKI 14.528
Core_0_L1D_load_miss_rate 0.109323
Core_0_L1D_rfo_access 0
Core_0_L1D_rfo_hit 0
Core_0_L1D_rfo_miss 0
Core_0_L1D_rfo_MPKI 0
Core_0_L1D_rfo_miss_rate 0
Core_0_L1D_prefetch_access 85724
Core_0_L1D_prefetch_hit 72833
Core_0_L1D_prefetch_miss 12891
Core_0_L1D_prefetch_MPKI 0.12891
Core_0_L1D_prefetch_miss_rate 0.150378
Core_0_L1D_writeback_access 9968315
Core_0_L1D_writeback_hit 9496275
Core_0_L1D_writeback_miss 472040
Core_0_L1D_writeback_MPKI 4.7204
Core_0_L1D_writeback_miss_rate 0.047354
Core_0_L1D_prefetch_requested 219236
Core_0_L1D_prefetch_issued 85724
Core_0_L1D_prefetch_useful 3056
Core_0_L1D_prefetch_useless 1128
Core_0_L1D_prefetch_late 1046
Core_0_L1D_prefetch_accuracy 0.0356493
Core_0_L1D_prefetch_coverage 0.00209911
Core_0_L1D_total_eviction 1260560

Core_0_L2C_total_access 4417952
Core_0_L2C_total_hit 2525786
Core_0_L2C_total_miss 1892166
Core_0_L2C_total_MPKI 18.9217
Core_0_L2C_total_miss_rate 0.42829
Core_0_L2C_demand_access 3857216
Core_0_L2C_demand_hit 1994504
Core_0_L2C_demand_miss 1862712
Core_0_L2C_demand_MPKI 18.6271
Core_0_L2C_demand_miss_rate 0.482916
Core_0_L2C_load_access 3685953
Core_0_L2C_load_hit 1925167
Core_0_L2C_load_miss 1760786
Core_0_L2C_load_MPKI 17.6079
Core_0_L2C_load_miss_rate 0.477702
Core_0_L2C_rfo_access 171263
Core_0_L2C_rfo_hit 69337
Core_0_L2C_rfo_miss 101926
Core_0_L2C_rfo_MPKI 1.01926
Core_0_L2C_rfo_miss_rate 0.595143
Core_0_L2C_prefetch_access 55877
Core_0_L2C_prefetch_hit 29886
Core_0_L2C_prefetch_miss 25991
Core_0_L2C_prefetch_MPKI 0.25991
Core_0_L2C_prefetch_miss_rate 0.465147
Core_0_L2C_writeback_access 504859
Core_0_L2C_writeback_hit 501396
Core_0_L2C_writeback_miss 3463
Core_0_L2C_writeback_MPKI 0.03463
Core_0_L2C_writeback_miss_rate 0.00685934
Core_0_L2C_prefetch_requested 75998
Core_0_L2C_prefetch_issued 46674
Core_0_L2C_prefetch_useful 8875
Core_0_L2C_prefetch_useless 8940
Core_0_L2C_prefetch_late 418
Core_0_L2C_prefetch_accuracy 0.190149
Core_0_L2C_prefetch_coverage 0.00474196
Core_0_L2C_total_eviction 1887960

Core_0_LLC_total_access 2185661
Core_0_LLC_total_hit 2056779
Core_0_LLC_total_miss 128882
Core_0_LLC_total_MPKI 1.28882
Core_0_LLC_total_miss_rate 0.0589671
Core_0_LLC_demand_access 1861683
Core_0_LLC_demand_hit 1743100
Core_0_LLC_demand_miss 118583
Core_0_LLC_demand_MPKI 1.18583
Core_0_LLC_demand_miss_rate 0.0636967
Core_0_LLC_load_access 1759763
Core_0_LLC_load_hit 1661050
Core_0_LLC_load_miss 98713
Core_0_LLC_load_MPKI 0.98713
Core_0_LLC_load_miss_rate 0.0560945
Core_0_LLC_rfo_access 101920
Core_0_LLC_rfo_hit 82050
Core_0_LLC_rfo_miss 19870
Core_0_LLC_rfo_MPKI 0.1987
Core_0_LLC_rfo_miss_rate 0.194957
Core_0_LLC_prefetch_access 22814
Core_0_LLC_prefetch_hit 16263
Core_0_LLC_prefetch_miss 6551
Core_0_LLC_prefetch_MPKI 0.06551
Core_0_LLC_prefetch_miss_rate 0.287148
Core_0_LLC_writeback_access 301164
Core_0_LLC_writeback_hit 297416
Core_0_LLC_writeback_miss 3748
Core_0_LLC_writeback_MPKI 0.03748
Core_0_LLC_writeback_miss_rate 0.012445
Core_0_LLC_prefetch_requested 0
Core_0_LLC_prefetch_issued 0
Core_0_LLC_prefetch_useful 0
Core_0_LLC_prefetch_useless 0
Core_0_LLC_prefetch_late 0
Core_0_LLC_prefetch_accuracy 0
Core_0_LLC_prefetch_coverage 0
Core_0_LLC_total_eviction 128880

[DRAM Statistics]
Channel_0_RQ_row_buffer_hit 3880
Channel_0_RQ_row_buffer_miss 121248
Channel_0_WQ_row_buffer_hit 19808
Channel_0_WQ_row_buffer_miss 80910
Channel_0_WQ_full 0
Channel_0_dbus_congested 681026
DRAM_total_RQ_row_buffer_hit 3880
DRAM_total_RQ_row_buffer_miss 121248
DRAM_total_WQ_row_buffer_hit 19808
DRAM_total_WQ_row_buffer_miss 80910
DRAM_total_WQ_full 0
DRAM_total_dbus_congested 681026
DRAM_avg_congested_cycle 15.9054

======STLB miss causes ========
Core_0_STLB_miss_cause_breakdown
Core_0_STLB_cause_Demand_Data_miss 0
Core_0_STLB_cause_Demand_Data_miss_rate 0
Core_0_STLB_cause_Demand_Instruction_miss 0
Core_0_STLB_cause_Demand_Instruction_miss_rate 0
Core_0_STLB_cause_L1D_Prefetch_miss 0
Core_0_STLB_cause_L1D_Prefetch_miss_rate 0
Core_0_STLB_cause_L1I_Prefetch_miss 0
Core_0_STLB_cause_L1I_Prefetch_miss_rate 0
Core_0_STLB_cause_Other_miss 0
Core_0_STLB_cause_Other_miss_rate 0
Core_0_STLB_Demand_miss 0
Core_0_STLB_Demand_miss_rate 0
Core_0_STLB_L1D_Prefetch_miss 0
Core_0_STLB_L1D_Prefetch_miss_rate 0
Core_0_STLB_Other_miss 0
Core_0_STLB_Other_miss_rate 0
BERTI TO_L1: 387126 TO_L2: 245139 TO_L2_BC_MSHR: 14501
BERTI AVG_LAT: 24.7795 NUM_TRACK_LATENCY: 1889481 NUM_CANT_TRACK_LATENCY: 0
BERTI CROSS_PAGE 78170 NO_CROSS_PAGE: 554095
BERTI FOUND_BERTI: 1122630 NO_FOUND_BERTI: 31872829
BERTI AVERAGE_ISSUED: 3.4923
