[VMEM] WARNING: physical memory size is smaller than virtual memory size.

*** ChampSim Multicore Out-of-Order Simulator ***
Warmup Instructions: 50000000
Simulation Instructions: 100000000
Number of CPUs: 1
Page size: 4096
STLB ideal mode: all
STLB ideal fill: on
Core 0: /data2/zcq/champsim_traces_gap/sssp.urand-4819B.champsimtrace.xz
VBerti Prefetcher
BERTI HASH ENTANGLING
BERTI IP MASK ffff
Off-chip DRAM Size: 16 GiB Channels: 1 Width: 64-bit Data Rate: 3205 MT/s
Warmup halting CPU 0 at instruction 50000000 cycle 11967246 for remainder of phase
Warmup finished CPU 0 instructions: 50000000 cycles: 11967246 cumulative IPC: 4.178 (Simulation time: 00 hr 03 min 18 sec)
Warmup complete CPU 0 instructions: 50000000 cycles: 11967246 cumulative IPC: 4.178 (Simulation time: 00 hr 03 min 18 sec)
Simulation finished CPU 0 instructions: 100000001 cycles: 397712197 cumulative IPC: 0.2514 (Simulation time: 00 hr 41 min 10 sec)
Simulation complete CPU 0 instructions: 100000001 cycles: 397712197 cumulative IPC: 0.2514 (Simulation time: 00 hr 41 min 10 sec)

ChampSim completed all CPUs

=== Simulation ===
CPU 0 runs /data2/zcq/champsim_traces_gap/sssp.urand-4819B.champsimtrace.xz

Region of Interest Statistics

CPU 0 cumulative IPC: 0.2514 instructions: 100000001 cycles: 397712197
CPU 0 Branch Prediction Accuracy: 96.72% MPKI: 4.972 Average ROB Occupancy at Mispredict: 156.8
Branch type MPKI
BRANCH_DIRECT_JUMP: 0
BRANCH_INDIRECT: 0
BRANCH_CONDITIONAL: 4.972
BRANCH_DIRECT_CALL: 0
BRANCH_INDIRECT_CALL: 0
BRANCH_RETURN: 0

cpu0->cpu0_STLB TOTAL        ACCESS:    7625137 HIT:    7625137 MISS:          0 MSHR_MERGE:          0
cpu0->cpu0_STLB LOAD         ACCESS:    7625137 HIT:    7625137 MISS:          0 MSHR_MERGE:          0
cpu0->cpu0_STLB RFO          ACCESS:          0 HIT:          0 MISS:          0 MSHR_MERGE:          0
cpu0->cpu0_STLB PREFETCH     ACCESS:          0 HIT:          0 MISS:          0 MSHR_MERGE:          0
cpu0->cpu0_STLB WRITE        ACCESS:          0 HIT:          0 MISS:          0 MSHR_MERGE:          0
cpu0->cpu0_STLB TRANSLATION  ACCESS:          0 HIT:          0 MISS:          0 MSHR_MERGE:          0
cpu0->cpu0_STLB PREFETCH REQUESTED:          0 ISSUED:          0 USEFUL:          0 USELESS:          0 LATE:          0
cpu0->cpu0_STLB AVERAGE MISS LATENCY: - cycles
cpu0->cpu0_L2C TOTAL        ACCESS:   12755741 HIT:    2614301 MISS:   10141440 MSHR_MERGE:    1065039
cpu0->cpu0_L2C LOAD         ACCESS:    7634279 HIT:     105323 MISS:    7528956 MSHR_MERGE:       7559
cpu0->cpu0_L2C RFO          ACCESS:     145569 HIT:     117954 MISS:      27615 MSHR_MERGE:          0
cpu0->cpu0_L2C PREFETCH     ACCESS:    4546140 HIT:    1963780 MISS:    2582360 MSHR_MERGE:    1057480
cpu0->cpu0_L2C WRITE        ACCESS:     429753 HIT:     427244 MISS:       2509 MSHR_MERGE:          0
cpu0->cpu0_L2C TRANSLATION  ACCESS:          0 HIT:          0 MISS:          0 MSHR_MERGE:          0
cpu0->cpu0_L2C PREFETCH REQUESTED:    1048867 ISSUED:    1048861 USEFUL:     250842 USELESS:     297033 LATE:         86
cpu0->cpu0_L2C AVERAGE MISS LATENCY: 274.8 cycles
cpu0->cpu0_L1I TOTAL        ACCESS:     526830 HIT:     526830 MISS:          0 MSHR_MERGE:          0
cpu0->cpu0_L1I LOAD         ACCESS:     526830 HIT:     526830 MISS:          0 MSHR_MERGE:          0
cpu0->cpu0_L1I RFO          ACCESS:          0 HIT:          0 MISS:          0 MSHR_MERGE:          0
cpu0->cpu0_L1I PREFETCH     ACCESS:          0 HIT:          0 MISS:          0 MSHR_MERGE:          0
cpu0->cpu0_L1I WRITE        ACCESS:          0 HIT:          0 MISS:          0 MSHR_MERGE:          0
cpu0->cpu0_L1I TRANSLATION  ACCESS:          0 HIT:          0 MISS:          0 MSHR_MERGE:          0
cpu0->cpu0_L1I PREFETCH REQUESTED:          0 ISSUED:          0 USEFUL:          0 USELESS:          0 LATE:          0
cpu0->cpu0_L1I AVERAGE MISS LATENCY: - cycles
cpu0->cpu0_L1D TOTAL        ACCESS:   41369164 HIT:   26545157 MISS:   14824007 MSHR_MERGE:    3358336
cpu0->cpu0_L1D LOAD         ACCESS:   30288318 HIT:   19665238 MISS:   10623080 MSHR_MERGE:    2988799
cpu0->cpu0_L1D RFO          ACCESS:          0 HIT:          0 MISS:          0 MSHR_MERGE:          0
cpu0->cpu0_L1D PREFETCH     ACCESS:    9674576 HIT:    5622900 MISS:    4051676 MSHR_MERGE:     365859
cpu0->cpu0_L1D WRITE        ACCESS:    1406270 HIT:    1257019 MISS:     149251 MSHR_MERGE:       3678
cpu0->cpu0_L1D TRANSLATION  ACCESS:          0 HIT:          0 MISS:          0 MSHR_MERGE:          0
cpu0->cpu0_L1D PREFETCH REQUESTED:   12455938 ISSUED:    9674577 USEFUL:     488699 USELESS:     492729 LATE:      48045
cpu0->cpu0_L1D AVERAGE MISS LATENCY: 275.7 cycles
cpu0->cpu0_ITLB TOTAL        ACCESS:     518871 HIT:     518871 MISS:          0 MSHR_MERGE:          0
cpu0->cpu0_ITLB LOAD         ACCESS:     518871 HIT:     518871 MISS:          0 MSHR_MERGE:          0
cpu0->cpu0_ITLB RFO          ACCESS:          0 HIT:          0 MISS:          0 MSHR_MERGE:          0
cpu0->cpu0_ITLB PREFETCH     ACCESS:          0 HIT:          0 MISS:          0 MSHR_MERGE:          0
cpu0->cpu0_ITLB WRITE        ACCESS:          0 HIT:          0 MISS:          0 MSHR_MERGE:          0
cpu0->cpu0_ITLB TRANSLATION  ACCESS:          0 HIT:          0 MISS:          0 MSHR_MERGE:          0
cpu0->cpu0_ITLB PREFETCH REQUESTED:          0 ISSUED:          0 USEFUL:          0 USELESS:          0 LATE:          0
cpu0->cpu0_ITLB AVERAGE MISS LATENCY: - cycles
cpu0->cpu0_DTLB TOTAL        ACCESS:   37734549 HIT:   29198470 MISS:    8536079 MSHR_MERGE:     910941
cpu0->cpu0_DTLB LOAD         ACCESS:   37734549 HIT:   29198470 MISS:    8536079 MSHR_MERGE:     910941
cpu0->cpu0_DTLB RFO          ACCESS:          0 HIT:          0 MISS:          0 MSHR_MERGE:          0
cpu0->cpu0_DTLB PREFETCH     ACCESS:          0 HIT:          0 MISS:          0 MSHR_MERGE:          0
cpu0->cpu0_DTLB WRITE        ACCESS:          0 HIT:          0 MISS:          0 MSHR_MERGE:          0
cpu0->cpu0_DTLB TRANSLATION  ACCESS:          0 HIT:          0 MISS:          0 MSHR_MERGE:          0
cpu0->cpu0_DTLB PREFETCH REQUESTED:          0 ISSUED:          0 USEFUL:          0 USELESS:          0 LATE:          0
cpu0->cpu0_DTLB AVERAGE MISS LATENCY: 5.112 cycles
cpu0->LLC TOTAL        ACCESS:    9365274 HIT:     146819 MISS:    9218455 MSHR_MERGE:      18374
cpu0->LLC LOAD         ACCESS:    7521397 HIT:      19709 MISS:    7501688 MSHR_MERGE:          0
cpu0->LLC RFO          ACCESS:      27615 HIT:      10530 MISS:      17085 MSHR_MERGE:          0
cpu0->LLC PREFETCH     ACCESS:    1524879 HIT:      11806 MISS:    1513073 MSHR_MERGE:      18374
cpu0->LLC WRITE        ACCESS:     291383 HIT:     104774 MISS:     186609 MSHR_MERGE:          0
cpu0->LLC TRANSLATION  ACCESS:          0 HIT:          0 MISS:          0 MSHR_MERGE:          0
cpu0->LLC PREFETCH REQUESTED:          0 ISSUED:          0 USEFUL:          0 USELESS:          0 LATE:          0
cpu0->LLC AVERAGE MISS LATENCY: 253.9 cycles

DRAM Statistics

Channel 0 RQ ROW_BUFFER_HIT:       1035
  ROW_BUFFER_MISS:    9012364
  AVG DBUS CONGESTED CYCLE: 3.656
Channel 0 WQ ROW_BUFFER_HIT:      74948
  ROW_BUFFER_MISS:     198670
  FULL:          0
Channel 0 REFRESHES ISSUED:      33142

[ROI Statistics]
[System Configuration]
num_cpus 1
cpu_freq 4000
fetch_width 6
decode_width 6
dispatch_width 6
execute_width 6
lq_width 2
sq_width 2
retire_width 6
scheduler_size 128
branch_mispredict_penalty 15
rob_size 352
lq_size 128
sq_size 72
ifetch_buffer_size 64
decode_buffer_size 32
dispatch_buffer_size 32
register_file_size 288
decode_latency 1
dispatch_latency 1
schedule_latency 1
execute_latency 1
page_size 4096
block_size 64
core_0_itlb_set 16
core_0_itlb_way 4
core_0_itlb_rq_size 16
core_0_itlb_wq_size 16
core_0_itlb_pq_size 0
core_0_itlb_mshr_size 8
core_0_itlb_hit_latency 1
core_0_itlb_fill_latency 1
core_0_itlb_max_tag_check 2
core_0_itlb_max_fill 2
core_0_dtlb_set 16
core_0_dtlb_way 4
core_0_dtlb_rq_size 16
core_0_dtlb_wq_size 16
core_0_dtlb_pq_size 0
core_0_dtlb_mshr_size 8
core_0_dtlb_hit_latency 1
core_0_dtlb_fill_latency 1
core_0_dtlb_max_tag_check 2
core_0_dtlb_max_fill 2
core_0_stlb_set 128
core_0_stlb_way 12
core_0_stlb_rq_size 32
core_0_stlb_wq_size 32
core_0_stlb_pq_size 0
core_0_stlb_mshr_size 16
core_0_stlb_hit_latency 4
core_0_stlb_fill_latency 4
core_0_stlb_max_tag_check 1
core_0_stlb_max_fill 1
core_0_l1i_set 64
core_0_l1i_way 8
core_0_l1i_rq_size 64
core_0_l1i_wq_size 64
core_0_l1i_pq_size 32
core_0_l1i_mshr_size 8
core_0_l1i_hit_latency 2
core_0_l1i_fill_latency 2
core_0_l1i_max_tag_check 2
core_0_l1i_max_fill 2
core_0_l1d_set 64
core_0_l1d_way 12
core_0_l1d_rq_size 64
core_0_l1d_wq_size 64
core_0_l1d_pq_size 8
core_0_l1d_mshr_size 16
core_0_l1d_hit_latency 2
core_0_l1d_fill_latency 3
core_0_l1d_max_tag_check 2
core_0_l1d_max_fill 2
core_0_l2c_set 1024
core_0_l2c_way 8
core_0_l2c_rq_size 32
core_0_l2c_wq_size 32
core_0_l2c_pq_size 16
core_0_l2c_mshr_size 32
core_0_l2c_hit_latency 5
core_0_l2c_fill_latency 5
core_0_l2c_max_tag_check 1
core_0_l2c_max_fill 1
llc_set 2048
llc_way 16
llc_rq_size 32
llc_wq_size 32
llc_pq_size 32
llc_mshr_size 64
llc_hit_latency 10
llc_fill_latency 10
llc_max_tag_check 1
llc_max_fill 1
dram_channels 1
dram_ranks 1
dram_bankgroups 8
dram_banks 4
dram_rows 65536
dram_columns 1024
dram_channel_width 8
dram_rq_size 64
dram_wq_size 64
dram_size 17179869184
core_0_itlb_prefetcher no
core_0_dtlb_prefetcher no
core_0_stlb_prefetcher no
core_0_l1i_prefetcher next_line
core_0_l1d_prefetcher vberti
core_0_l2c_prefetcher ip_stride
llc_prefetcher no
llc_replacement drrip

Core_0_instructions 100000001
Core_0_cycles 397712197
Core_0_IPC 0.251438
Core_0_branch_prediction_accuracy 96.7226
Core_0_branch_MPKI 4.97203
Core_0_average_ROB_occupancy_at_mispredict 156.844

Core_0_ITLB_total_access 518871
Core_0_ITLB_total_hit 518871
Core_0_ITLB_total_miss 0
Core_0_ITLB_total_MPKI 0
Core_0_ITLB_total_miss_rate 0
Core_0_ITLB_demand_access 518871
Core_0_ITLB_demand_hit 518871
Core_0_ITLB_demand_miss 0
Core_0_ITLB_demand_MPKI 0
Core_0_ITLB_demand_miss_rate 0
Core_0_ITLB_load_access 518871
Core_0_ITLB_load_hit 518871
Core_0_ITLB_load_miss 0
Core_0_ITLB_load_MPKI 0
Core_0_ITLB_load_miss_rate 0
Core_0_ITLB_rfo_access 0
Core_0_ITLB_rfo_hit 0
Core_0_ITLB_rfo_miss 0
Core_0_ITLB_rfo_MPKI 0
Core_0_ITLB_rfo_miss_rate 0
Core_0_ITLB_prefetch_access 0
Core_0_ITLB_prefetch_hit 0
Core_0_ITLB_prefetch_miss 0
Core_0_ITLB_prefetch_MPKI 0
Core_0_ITLB_prefetch_miss_rate 0
Core_0_ITLB_writeback_access 0
Core_0_ITLB_writeback_hit 0
Core_0_ITLB_writeback_miss 0
Core_0_ITLB_writeback_MPKI 0
Core_0_ITLB_writeback_miss_rate 0
Core_0_ITLB_prefetch_requested 0
Core_0_ITLB_prefetch_issued 0
Core_0_ITLB_prefetch_useful 0
Core_0_ITLB_prefetch_useless 0
Core_0_ITLB_prefetch_late 0
Core_0_ITLB_prefetch_accuracy 0
Core_0_ITLB_prefetch_coverage 0
Core_0_ITLB_total_eviction 0

Core_0_DTLB_total_access 37734549
Core_0_DTLB_total_hit 29198470
Core_0_DTLB_total_miss 8536079
Core_0_DTLB_total_MPKI 85.3608
Core_0_DTLB_total_miss_rate 0.226214
Core_0_DTLB_demand_access 37734549
Core_0_DTLB_demand_hit 29198470
Core_0_DTLB_demand_miss 8536079
Core_0_DTLB_demand_MPKI 85.3608
Core_0_DTLB_demand_miss_rate 0.226214
Core_0_DTLB_load_access 37734549
Core_0_DTLB_load_hit 29198470
Core_0_DTLB_load_miss 8536079
Core_0_DTLB_load_MPKI 85.3608
Core_0_DTLB_load_miss_rate 0.226214
Core_0_DTLB_rfo_access 0
Core_0_DTLB_rfo_hit 0
Core_0_DTLB_rfo_miss 0
Core_0_DTLB_rfo_MPKI 0
Core_0_DTLB_rfo_miss_rate 0
Core_0_DTLB_prefetch_access 0
Core_0_DTLB_prefetch_hit 0
Core_0_DTLB_prefetch_miss 0
Core_0_DTLB_prefetch_MPKI 0
Core_0_DTLB_prefetch_miss_rate 0
Core_0_DTLB_writeback_access 0
Core_0_DTLB_writeback_hit 0
Core_0_DTLB_writeback_miss 0
Core_0_DTLB_writeback_MPKI 0
Core_0_DTLB_writeback_miss_rate 0
Core_0_DTLB_prefetch_requested 0
Core_0_DTLB_prefetch_issued 0
Core_0_DTLB_prefetch_useful 0
Core_0_DTLB_prefetch_useless 0
Core_0_DTLB_prefetch_late 0
Core_0_DTLB_prefetch_accuracy 0
Core_0_DTLB_prefetch_coverage 0
Core_0_DTLB_total_eviction 7625137

Core_0_STLB_total_access 7625137
Core_0_STLB_total_hit 7625137
Core_0_STLB_total_miss 0
Core_0_STLB_total_MPKI 0
Core_0_STLB_total_miss_rate 0
Core_0_STLB_demand_access 7625137
Core_0_STLB_demand_hit 7625137
Core_0_STLB_demand_miss 0
Core_0_STLB_demand_MPKI 0
Core_0_STLB_demand_miss_rate 0
Core_0_STLB_load_access 7625137
Core_0_STLB_load_hit 7625137
Core_0_STLB_load_miss 0
Core_0_STLB_load_MPKI 0
Core_0_STLB_load_miss_rate 0
Core_0_STLB_rfo_access 0
Core_0_STLB_rfo_hit 0
Core_0_STLB_rfo_miss 0
Core_0_STLB_rfo_MPKI 0
Core_0_STLB_rfo_miss_rate 0
Core_0_STLB_prefetch_access 0
Core_0_STLB_prefetch_hit 0
Core_0_STLB_prefetch_miss 0
Core_0_STLB_prefetch_MPKI 0
Core_0_STLB_prefetch_miss_rate 0
Core_0_STLB_writeback_access 0
Core_0_STLB_writeback_hit 0
Core_0_STLB_writeback_miss 0
Core_0_STLB_writeback_MPKI 0
Core_0_STLB_writeback_miss_rate 0
Core_0_STLB_prefetch_requested 0
Core_0_STLB_prefetch_issued 0
Core_0_STLB_prefetch_useful 0
Core_0_STLB_prefetch_useless 0
Core_0_STLB_prefetch_late 0
Core_0_STLB_prefetch_accuracy 0
Core_0_STLB_prefetch_coverage 0
Core_0_STLB_total_eviction 7255882

Core_0_L1I_total_access 526830
Core_0_L1I_total_hit 526830
Core_0_L1I_total_miss 0
Core_0_L1I_total_MPKI 0
Core_0_L1I_total_miss_rate 0
Core_0_L1I_demand_access 526830
Core_0_L1I_demand_hit 526830
Core_0_L1I_demand_miss 0
Core_0_L1I_demand_MPKI 0
Core_0_L1I_demand_miss_rate 0
Core_0_L1I_load_access 526830
Core_0_L1I_load_hit 526830
Core_0_L1I_load_miss 0
Core_0_L1I_load_MPKI 0
Core_0_L1I_load_miss_rate 0
Core_0_L1I_rfo_access 0
Core_0_L1I_rfo_hit 0
Core_0_L1I_rfo_miss 0
Core_0_L1I_rfo_MPKI 0
Core_0_L1I_rfo_miss_rate 0
Core_0_L1I_prefetch_access 0
Core_0_L1I_prefetch_hit 0
Core_0_L1I_prefetch_miss 0
Core_0_L1I_prefetch_MPKI 0
Core_0_L1I_prefetch_miss_rate 0
Core_0_L1I_writeback_access 0
Core_0_L1I_writeback_hit 0
Core_0_L1I_writeback_miss 0
Core_0_L1I_writeback_MPKI 0
Core_0_L1I_writeback_miss_rate 0
Core_0_L1I_prefetch_requested 0
Core_0_L1I_prefetch_issued 0
Core_0_L1I_prefetch_useful 0
Core_0_L1I_prefetch_useless 0
Core_0_L1I_prefetch_late 0
Core_0_L1I_prefetch_accuracy 0
Core_0_L1I_prefetch_coverage 0
Core_0_L1I_total_eviction 0

Core_0_L1D_total_access 41369164
Core_0_L1D_total_hit 26545157
Core_0_L1D_total_miss 14824007
Core_0_L1D_total_MPKI 148.24
Core_0_L1D_total_miss_rate 0.358335
Core_0_L1D_demand_access 30288318
Core_0_L1D_demand_hit 19665238
Core_0_L1D_demand_miss 10623080
Core_0_L1D_demand_MPKI 106.231
Core_0_L1D_demand_miss_rate 0.350732
Core_0_L1D_load_access 30288318
Core_0_L1D_load_hit 19665238
Core_0_L1D_load_miss 10623080
Core_0_L1D_load_MPKI 106.231
Core_0_L1D_load_miss_rate 0.350732
Core_0_L1D_rfo_access 0
Core_0_L1D_rfo_hit 0
Core_0_L1D_rfo_miss 0
Core_0_L1D_rfo_MPKI 0
Core_0_L1D_rfo_miss_rate 0
Core_0_L1D_prefetch_access 9674576
Core_0_L1D_prefetch_hit 5622900
Core_0_L1D_prefetch_miss 4051676
Core_0_L1D_prefetch_MPKI 40.5168
Core_0_L1D_prefetch_miss_rate 0.418796
Core_0_L1D_writeback_access 1406270
Core_0_L1D_writeback_hit 1257019
Core_0_L1D_writeback_miss 149251
Core_0_L1D_writeback_MPKI 1.49251
Core_0_L1D_writeback_miss_rate 0.106133
Core_0_L1D_prefetch_requested 12455938
Core_0_L1D_prefetch_issued 9674577
Core_0_L1D_prefetch_useful 488699
Core_0_L1D_prefetch_useless 492729
Core_0_L1D_prefetch_late 48045
Core_0_L1D_prefetch_accuracy 0.0505137
Core_0_L1D_prefetch_coverage 0.0439803
Core_0_L1D_total_eviction 8761319

Core_0_L2C_total_access 12755741
Core_0_L2C_total_hit 2614301
Core_0_L2C_total_miss 10141440
Core_0_L2C_total_MPKI 101.414
Core_0_L2C_total_miss_rate 0.795049
Core_0_L2C_demand_access 7779848
Core_0_L2C_demand_hit 223277
Core_0_L2C_demand_miss 7556571
Core_0_L2C_demand_MPKI 75.5657
Core_0_L2C_demand_miss_rate 0.971301
Core_0_L2C_load_access 7634279
Core_0_L2C_load_hit 105323
Core_0_L2C_load_miss 7528956
Core_0_L2C_load_MPKI 75.2896
Core_0_L2C_load_miss_rate 0.986204
Core_0_L2C_rfo_access 145569
Core_0_L2C_rfo_hit 117954
Core_0_L2C_rfo_miss 27615
Core_0_L2C_rfo_MPKI 0.27615
Core_0_L2C_rfo_miss_rate 0.189704
Core_0_L2C_prefetch_access 4546140
Core_0_L2C_prefetch_hit 1963780
Core_0_L2C_prefetch_miss 2582360
Core_0_L2C_prefetch_MPKI 25.8236
Core_0_L2C_prefetch_miss_rate 0.568034
Core_0_L2C_writeback_access 429753
Core_0_L2C_writeback_hit 427244
Core_0_L2C_writeback_miss 2509
Core_0_L2C_writeback_MPKI 0.02509
Core_0_L2C_writeback_miss_rate 0.00583824
Core_0_L2C_prefetch_requested 1048867
Core_0_L2C_prefetch_issued 1048861
Core_0_L2C_prefetch_useful 250842
Core_0_L2C_prefetch_useless 297033
Core_0_L2C_prefetch_late 86
Core_0_L2C_prefetch_accuracy 0.239157
Core_0_L2C_prefetch_coverage 0.0321287
Core_0_L2C_total_eviction 9020401

Core_0_LLC_total_access 9365274
Core_0_LLC_total_hit 146819
Core_0_LLC_total_miss 9218455
Core_0_LLC_total_MPKI 92.1845
Core_0_LLC_total_miss_rate 0.984323
Core_0_LLC_demand_access 7549012
Core_0_LLC_demand_hit 30239
Core_0_LLC_demand_miss 7518773
Core_0_LLC_demand_MPKI 75.1877
Core_0_LLC_demand_miss_rate 0.995994
Core_0_LLC_load_access 7521397
Core_0_LLC_load_hit 19709
Core_0_LLC_load_miss 7501688
Core_0_LLC_load_MPKI 75.0169
Core_0_LLC_load_miss_rate 0.99738
Core_0_LLC_rfo_access 27615
Core_0_LLC_rfo_hit 10530
Core_0_LLC_rfo_miss 17085
Core_0_LLC_rfo_MPKI 0.17085
Core_0_LLC_rfo_miss_rate 0.618685
Core_0_LLC_prefetch_access 1524879
Core_0_LLC_prefetch_hit 11806
Core_0_LLC_prefetch_miss 1513073
Core_0_LLC_prefetch_MPKI 15.1307
Core_0_LLC_prefetch_miss_rate 0.992258
Core_0_LLC_writeback_access 291383
Core_0_LLC_writeback_hit 104774
Core_0_LLC_writeback_miss 186609
Core_0_LLC_writeback_MPKI 1.86609
Core_0_LLC_writeback_miss_rate 0.640425
Core_0_LLC_prefetch_requested 0
Core_0_LLC_prefetch_issued 0
Core_0_LLC_prefetch_useful 0
Core_0_LLC_prefetch_useless 0
Core_0_LLC_prefetch_late 0
Core_0_LLC_prefetch_accuracy 0
Core_0_LLC_prefetch_coverage 0
Core_0_LLC_total_eviction 9200082

[DRAM Statistics]
Channel_0_RQ_row_buffer_hit 1035
Channel_0_RQ_row_buffer_miss 9012364
Channel_0_WQ_row_buffer_hit 74948
Channel_0_WQ_row_buffer_miss 198670
Channel_0_WQ_full 0
Channel_0_dbus_congested 19766255
DRAM_total_RQ_row_buffer_hit 1035
DRAM_total_RQ_row_buffer_miss 9012364
DRAM_total_WQ_row_buffer_hit 74948
DRAM_total_WQ_row_buffer_miss 198670
DRAM_total_WQ_full 0
DRAM_total_dbus_congested 19766255
DRAM_avg_congested_cycle 3.6564

======STLB miss causes ========
Core_0_STLB_miss_cause_breakdown
Core_0_STLB_cause_Demand_Data_miss 0
Core_0_STLB_cause_Demand_Data_miss_rate 0
Core_0_STLB_cause_Demand_Instruction_miss 0
Core_0_STLB_cause_Demand_Instruction_miss_rate 0
Core_0_STLB_cause_L1D_Prefetch_miss 0
Core_0_STLB_cause_L1D_Prefetch_miss_rate 0
Core_0_STLB_cause_L1I_Prefetch_miss 0
Core_0_STLB_cause_L1I_Prefetch_miss_rate 0
Core_0_STLB_cause_Other_miss 0
Core_0_STLB_cause_Other_miss_rate 0
Core_0_STLB_Demand_miss 0
Core_0_STLB_Demand_miss_rate 0
Core_0_STLB_L1D_Prefetch_miss 0
Core_0_STLB_L1D_Prefetch_miss_rate 0
Core_0_STLB_Other_miss 0
Core_0_STLB_Other_miss_rate 0
BERTI TO_L1: 5747252 TO_L2: 9893723 TO_L2_BC_MSHR: 757782
BERTI AVG_LAT: 184.228 NUM_TRACK_LATENCY: 12893906 NUM_CANT_TRACK_LATENCY: 0
BERTI CROSS_PAGE 632767 NO_CROSS_PAGE: 15008208
BERTI FOUND_BERTI: 73099888 NO_FOUND_BERTI: 19823715
BERTI AVERAGE_ISSUED: 2.32824
