[VMEM] WARNING: physical memory size is smaller than virtual memory size.

*** ChampSim Multicore Out-of-Order Simulator ***
Warmup Instructions: 50000000
Simulation Instructions: 100000000
Number of CPUs: 1
Page size: 4096
STLB ideal mode: all
STLB ideal fill: on
Core 0: /data2/zcq/champsim_traces_gap/tc.twitter-34B.champsimtrace.xz
VBerti Prefetcher
BERTI HASH ENTANGLING
BERTI IP MASK ffff
Off-chip DRAM Size: 16 GiB Channels: 1 Width: 64-bit Data Rate: 3205 MT/s
Warmup halting CPU 0 at instruction 50000000 cycle 11382083 for remainder of phase
Warmup finished CPU 0 instructions: 50000000 cycles: 11382083 cumulative IPC: 4.393 (Simulation time: 00 hr 02 min 04 sec)
Warmup complete CPU 0 instructions: 50000000 cycles: 11382083 cumulative IPC: 4.393 (Simulation time: 00 hr 02 min 04 sec)
Simulation finished CPU 0 instructions: 100000000 cycles: 167428169 cumulative IPC: 0.5973 (Simulation time: 00 hr 15 min 11 sec)
Simulation complete CPU 0 instructions: 100000000 cycles: 167428169 cumulative IPC: 0.5973 (Simulation time: 00 hr 15 min 11 sec)

ChampSim completed all CPUs

=== Simulation ===
CPU 0 runs /data2/zcq/champsim_traces_gap/tc.twitter-34B.champsimtrace.xz

Region of Interest Statistics

CPU 0 cumulative IPC: 0.5973 instructions: 100000000 cycles: 167428169
CPU 0 Branch Prediction Accuracy: 81.82% MPKI: 44.18 Average ROB Occupancy at Mispredict: 6.365
Branch type MPKI
BRANCH_DIRECT_JUMP: 0.00818
BRANCH_INDIRECT: 0
BRANCH_CONDITIONAL: 44.17
BRANCH_DIRECT_CALL: 2e-05
BRANCH_INDIRECT_CALL: 0
BRANCH_RETURN: 2e-05

cpu0->cpu0_STLB TOTAL        ACCESS:     460360 HIT:     460360 MISS:          0 MSHR_MERGE:          0
cpu0->cpu0_STLB LOAD         ACCESS:     460360 HIT:     460360 MISS:          0 MSHR_MERGE:          0
cpu0->cpu0_STLB RFO          ACCESS:          0 HIT:          0 MISS:          0 MSHR_MERGE:          0
cpu0->cpu0_STLB PREFETCH     ACCESS:          0 HIT:          0 MISS:          0 MSHR_MERGE:          0
cpu0->cpu0_STLB WRITE        ACCESS:          0 HIT:          0 MISS:          0 MSHR_MERGE:          0
cpu0->cpu0_STLB TRANSLATION  ACCESS:          0 HIT:          0 MISS:          0 MSHR_MERGE:          0
cpu0->cpu0_STLB PREFETCH REQUESTED:          0 ISSUED:          0 USEFUL:          0 USELESS:          0 LATE:          0
cpu0->cpu0_STLB AVERAGE MISS LATENCY: - cycles
cpu0->cpu0_L2C TOTAL        ACCESS:    4111290 HIT:    2680541 MISS:    1430749 MSHR_MERGE:     174512
cpu0->cpu0_L2C LOAD         ACCESS:     788496 HIT:      48392 MISS:     740104 MSHR_MERGE:       8722
cpu0->cpu0_L2C RFO          ACCESS:       7032 HIT:       4465 MISS:       2567 MSHR_MERGE:        549
cpu0->cpu0_L2C PREFETCH     ACCESS:    3048741 HIT:    2360689 MISS:     688052 MSHR_MERGE:     165241
cpu0->cpu0_L2C WRITE        ACCESS:     267021 HIT:     266995 MISS:         26 MSHR_MERGE:          0
cpu0->cpu0_L2C TRANSLATION  ACCESS:          0 HIT:          0 MISS:          0 MSHR_MERGE:          0
cpu0->cpu0_L2C PREFETCH REQUESTED:     868863 ISSUED:     865493 USEFUL:      88754 USELESS:      10763 LATE:        616
cpu0->cpu0_L2C AVERAGE MISS LATENCY: 314.7 cycles
cpu0->cpu0_L1I TOTAL        ACCESS:    1300945 HIT:    1300939 MISS:          6 MSHR_MERGE:          0
cpu0->cpu0_L1I LOAD         ACCESS:    1300945 HIT:    1300939 MISS:          6 MSHR_MERGE:          0
cpu0->cpu0_L1I RFO          ACCESS:          0 HIT:          0 MISS:          0 MSHR_MERGE:          0
cpu0->cpu0_L1I PREFETCH     ACCESS:          0 HIT:          0 MISS:          0 MSHR_MERGE:          0
cpu0->cpu0_L1I WRITE        ACCESS:          0 HIT:          0 MISS:          0 MSHR_MERGE:          0
cpu0->cpu0_L1I TRANSLATION  ACCESS:          0 HIT:          0 MISS:          0 MSHR_MERGE:          0
cpu0->cpu0_L1I PREFETCH REQUESTED:          0 ISSUED:          0 USEFUL:          0 USELESS:          0 LATE:          0
cpu0->cpu0_L1I AVERAGE MISS LATENCY: 177.5 cycles
cpu0->cpu0_L1D TOTAL        ACCESS:   66535597 HIT:   63416427 MISS:    3119170 MSHR_MERGE:      81408
cpu0->cpu0_L1D LOAD         ACCESS:   17047368 HIT:   16223194 MISS:     824174 MSHR_MERGE:      35684
cpu0->cpu0_L1D RFO          ACCESS:          0 HIT:          0 MISS:          0 MSHR_MERGE:          0
cpu0->cpu0_L1D PREFETCH     ACCESS:   40360506 HIT:   38101795 MISS:    2258711 MSHR_MERGE:      16488
cpu0->cpu0_L1D WRITE        ACCESS:    9127723 HIT:    9091438 MISS:      36285 MSHR_MERGE:      29236
cpu0->cpu0_L1D TRANSLATION  ACCESS:          0 HIT:          0 MISS:          0 MSHR_MERGE:          0
cpu0->cpu0_L1D PREFETCH REQUESTED:  153969805 ISSUED:   40360507 USEFUL:     298278 USELESS:      23530 LATE:       2361
cpu0->cpu0_L1D AVERAGE MISS LATENCY: 302.9 cycles
cpu0->cpu0_ITLB TOTAL        ACCESS:    1263109 HIT:    1263108 MISS:          1 MSHR_MERGE:          0
cpu0->cpu0_ITLB LOAD         ACCESS:    1263109 HIT:    1263108 MISS:          1 MSHR_MERGE:          0
cpu0->cpu0_ITLB RFO          ACCESS:          0 HIT:          0 MISS:          0 MSHR_MERGE:          0
cpu0->cpu0_ITLB PREFETCH     ACCESS:          0 HIT:          0 MISS:          0 MSHR_MERGE:          0
cpu0->cpu0_ITLB WRITE        ACCESS:          0 HIT:          0 MISS:          0 MSHR_MERGE:          0
cpu0->cpu0_ITLB TRANSLATION  ACCESS:          0 HIT:          0 MISS:          0 MSHR_MERGE:          0
cpu0->cpu0_ITLB PREFETCH REQUESTED:          0 ISSUED:          0 USEFUL:          0 USELESS:          0 LATE:          0
cpu0->cpu0_ITLB AVERAGE MISS LATENCY: 5 cycles
cpu0->cpu0_DTLB TOTAL        ACCESS:   48521599 HIT:   47980557 MISS:     541042 MSHR_MERGE:      80683
cpu0->cpu0_DTLB LOAD         ACCESS:   48521599 HIT:   47980557 MISS:     541042 MSHR_MERGE:      80683
cpu0->cpu0_DTLB RFO          ACCESS:          0 HIT:          0 MISS:          0 MSHR_MERGE:          0
cpu0->cpu0_DTLB PREFETCH     ACCESS:          0 HIT:          0 MISS:          0 MSHR_MERGE:          0
cpu0->cpu0_DTLB WRITE        ACCESS:          0 HIT:          0 MISS:          0 MSHR_MERGE:          0
cpu0->cpu0_DTLB TRANSLATION  ACCESS:          0 HIT:          0 MISS:          0 MSHR_MERGE:          0
cpu0->cpu0_DTLB PREFETCH REQUESTED:          0 ISSUED:          0 USEFUL:          0 USELESS:          0 LATE:          0
cpu0->cpu0_DTLB AVERAGE MISS LATENCY: 5.066 cycles
cpu0->LLC TOTAL        ACCESS:    1400993 HIT:     277154 MISS:    1123839 MSHR_MERGE:      35183
cpu0->LLC LOAD         ACCESS:     731382 HIT:      21879 MISS:     709503 MSHR_MERGE:       2194
cpu0->LLC RFO          ACCESS:       2018 HIT:        341 MISS:       1677 MSHR_MERGE:          0
cpu0->LLC PREFETCH     ACCESS:     522799 HIT:     132743 MISS:     390056 MSHR_MERGE:      32989
cpu0->LLC WRITE        ACCESS:     144794 HIT:     122191 MISS:      22603 MSHR_MERGE:          0
cpu0->LLC TRANSLATION  ACCESS:          0 HIT:          0 MISS:          0 MSHR_MERGE:          0
cpu0->LLC PREFETCH REQUESTED:          0 ISSUED:          0 USEFUL:          0 USELESS:          0 LATE:          0
cpu0->LLC AVERAGE MISS LATENCY: 299.9 cycles

DRAM Statistics

Channel 0 RQ ROW_BUFFER_HIT:      47598
  ROW_BUFFER_MISS:    1018449
  AVG DBUS CONGESTED CYCLE: 3.876
Channel 0 WQ ROW_BUFFER_HIT:       3291
  ROW_BUFFER_MISS:      71119
  FULL:          0
Channel 0 REFRESHES ISSUED:      13952

[ROI Statistics]
[System Configuration]
num_cpus 1
cpu_freq 4000
fetch_width 6
decode_width 6
dispatch_width 6
execute_width 6
lq_width 2
sq_width 2
retire_width 6
scheduler_size 128
branch_mispredict_penalty 15
rob_size 352
lq_size 128
sq_size 72
ifetch_buffer_size 64
decode_buffer_size 32
dispatch_buffer_size 32
register_file_size 288
decode_latency 1
dispatch_latency 1
schedule_latency 1
execute_latency 1
page_size 4096
block_size 64
core_0_itlb_set 16
core_0_itlb_way 4
core_0_itlb_rq_size 16
core_0_itlb_wq_size 16
core_0_itlb_pq_size 0
core_0_itlb_mshr_size 8
core_0_itlb_hit_latency 1
core_0_itlb_fill_latency 1
core_0_itlb_max_tag_check 2
core_0_itlb_max_fill 2
core_0_dtlb_set 16
core_0_dtlb_way 4
core_0_dtlb_rq_size 16
core_0_dtlb_wq_size 16
core_0_dtlb_pq_size 0
core_0_dtlb_mshr_size 8
core_0_dtlb_hit_latency 1
core_0_dtlb_fill_latency 1
core_0_dtlb_max_tag_check 2
core_0_dtlb_max_fill 2
core_0_stlb_set 128
core_0_stlb_way 12
core_0_stlb_rq_size 32
core_0_stlb_wq_size 32
core_0_stlb_pq_size 0
core_0_stlb_mshr_size 16
core_0_stlb_hit_latency 4
core_0_stlb_fill_latency 4
core_0_stlb_max_tag_check 1
core_0_stlb_max_fill 1
core_0_l1i_set 64
core_0_l1i_way 8
core_0_l1i_rq_size 64
core_0_l1i_wq_size 64
core_0_l1i_pq_size 32
core_0_l1i_mshr_size 8
core_0_l1i_hit_latency 2
core_0_l1i_fill_latency 2
core_0_l1i_max_tag_check 2
core_0_l1i_max_fill 2
core_0_l1d_set 64
core_0_l1d_way 12
core_0_l1d_rq_size 64
core_0_l1d_wq_size 64
core_0_l1d_pq_size 8
core_0_l1d_mshr_size 16
core_0_l1d_hit_latency 2
core_0_l1d_fill_latency 3
core_0_l1d_max_tag_check 2
core_0_l1d_max_fill 2
core_0_l2c_set 1024
core_0_l2c_way 8
core_0_l2c_rq_size 32
core_0_l2c_wq_size 32
core_0_l2c_pq_size 16
core_0_l2c_mshr_size 32
core_0_l2c_hit_latency 5
core_0_l2c_fill_latency 5
core_0_l2c_max_tag_check 1
core_0_l2c_max_fill 1
llc_set 2048
llc_way 16
llc_rq_size 32
llc_wq_size 32
llc_pq_size 32
llc_mshr_size 64
llc_hit_latency 10
llc_fill_latency 10
llc_max_tag_check 1
llc_max_fill 1
dram_channels 1
dram_ranks 1
dram_bankgroups 8
dram_banks 4
dram_rows 65536
dram_columns 1024
dram_channel_width 8
dram_rq_size 64
dram_wq_size 64
dram_size 17179869184
core_0_itlb_prefetcher no
core_0_dtlb_prefetcher no
core_0_stlb_prefetcher no
core_0_l1i_prefetcher next_line
core_0_l1d_prefetcher vberti
core_0_l2c_prefetcher ip_stride
llc_prefetcher no
llc_replacement drrip

Core_0_instructions 100000000
Core_0_cycles 167428169
Core_0_IPC 0.597271
Core_0_branch_prediction_accuracy 81.8171
Core_0_branch_MPKI 44.1768
Core_0_average_ROB_occupancy_at_mispredict 6.36463

Core_0_ITLB_total_access 1263109
Core_0_ITLB_total_hit 1263108
Core_0_ITLB_total_miss 1
Core_0_ITLB_total_MPKI 1e-05
Core_0_ITLB_total_miss_rate 7.91697e-07
Core_0_ITLB_demand_access 1263109
Core_0_ITLB_demand_hit 1263108
Core_0_ITLB_demand_miss 1
Core_0_ITLB_demand_MPKI 1e-05
Core_0_ITLB_demand_miss_rate 7.91697e-07
Core_0_ITLB_load_access 1263109
Core_0_ITLB_load_hit 1263108
Core_0_ITLB_load_miss 1
Core_0_ITLB_load_MPKI 1e-05
Core_0_ITLB_load_miss_rate 7.91697e-07
Core_0_ITLB_rfo_access 0
Core_0_ITLB_rfo_hit 0
Core_0_ITLB_rfo_miss 0
Core_0_ITLB_rfo_MPKI 0
Core_0_ITLB_rfo_miss_rate 0
Core_0_ITLB_prefetch_access 0
Core_0_ITLB_prefetch_hit 0
Core_0_ITLB_prefetch_miss 0
Core_0_ITLB_prefetch_MPKI 0
Core_0_ITLB_prefetch_miss_rate 0
Core_0_ITLB_writeback_access 0
Core_0_ITLB_writeback_hit 0
Core_0_ITLB_writeback_miss 0
Core_0_ITLB_writeback_MPKI 0
Core_0_ITLB_writeback_miss_rate 0
Core_0_ITLB_prefetch_requested 0
Core_0_ITLB_prefetch_issued 0
Core_0_ITLB_prefetch_useful 0
Core_0_ITLB_prefetch_useless 0
Core_0_ITLB_prefetch_late 0
Core_0_ITLB_prefetch_accuracy 0
Core_0_ITLB_prefetch_coverage 0
Core_0_ITLB_total_eviction 0

Core_0_DTLB_total_access 48521599
Core_0_DTLB_total_hit 47980557
Core_0_DTLB_total_miss 541042
Core_0_DTLB_total_MPKI 5.41042
Core_0_DTLB_total_miss_rate 0.0111505
Core_0_DTLB_demand_access 48521599
Core_0_DTLB_demand_hit 47980557
Core_0_DTLB_demand_miss 541042
Core_0_DTLB_demand_MPKI 5.41042
Core_0_DTLB_demand_miss_rate 0.0111505
Core_0_DTLB_load_access 48521599
Core_0_DTLB_load_hit 47980557
Core_0_DTLB_load_miss 541042
Core_0_DTLB_load_MPKI 5.41042
Core_0_DTLB_load_miss_rate 0.0111505
Core_0_DTLB_rfo_access 0
Core_0_DTLB_rfo_hit 0
Core_0_DTLB_rfo_miss 0
Core_0_DTLB_rfo_MPKI 0
Core_0_DTLB_rfo_miss_rate 0
Core_0_DTLB_prefetch_access 0
Core_0_DTLB_prefetch_hit 0
Core_0_DTLB_prefetch_miss 0
Core_0_DTLB_prefetch_MPKI 0
Core_0_DTLB_prefetch_miss_rate 0
Core_0_DTLB_writeback_access 0
Core_0_DTLB_writeback_hit 0
Core_0_DTLB_writeback_miss 0
Core_0_DTLB_writeback_MPKI 0
Core_0_DTLB_writeback_miss_rate 0
Core_0_DTLB_prefetch_requested 0
Core_0_DTLB_prefetch_issued 0
Core_0_DTLB_prefetch_useful 0
Core_0_DTLB_prefetch_useless 0
Core_0_DTLB_prefetch_late 0
Core_0_DTLB_prefetch_accuracy 0
Core_0_DTLB_prefetch_coverage 0
Core_0_DTLB_total_eviction 460359

Core_0_STLB_total_access 460360
Core_0_STLB_total_hit 460360
Core_0_STLB_total_miss 0
Core_0_STLB_total_MPKI 0
Core_0_STLB_total_miss_rate 0
Core_0_STLB_demand_access 460360
Core_0_STLB_demand_hit 460360
Core_0_STLB_demand_miss 0
Core_0_STLB_demand_MPKI 0
Core_0_STLB_demand_miss_rate 0
Core_0_STLB_load_access 460360
Core_0_STLB_load_hit 460360
Core_0_STLB_load_miss 0
Core_0_STLB_load_MPKI 0
Core_0_STLB_load_miss_rate 0
Core_0_STLB_rfo_access 0
Core_0_STLB_rfo_hit 0
Core_0_STLB_rfo_miss 0
Core_0_STLB_rfo_MPKI 0
Core_0_STLB_rfo_miss_rate 0
Core_0_STLB_prefetch_access 0
Core_0_STLB_prefetch_hit 0
Core_0_STLB_prefetch_miss 0
Core_0_STLB_prefetch_MPKI 0
Core_0_STLB_prefetch_miss_rate 0
Core_0_STLB_writeback_access 0
Core_0_STLB_writeback_hit 0
Core_0_STLB_writeback_miss 0
Core_0_STLB_writeback_MPKI 0
Core_0_STLB_writeback_miss_rate 0
Core_0_STLB_prefetch_requested 0
Core_0_STLB_prefetch_issued 0
Core_0_STLB_prefetch_useful 0
Core_0_STLB_prefetch_useless 0
Core_0_STLB_prefetch_late 0
Core_0_STLB_prefetch_accuracy 0
Core_0_STLB_prefetch_coverage 0
Core_0_STLB_total_eviction 441755

Core_0_L1I_total_access 1300945
Core_0_L1I_total_hit 1300939
Core_0_L1I_total_miss 6
Core_0_L1I_total_MPKI 6e-05
Core_0_L1I_total_miss_rate 4.61203e-06
Core_0_L1I_demand_access 1300945
Core_0_L1I_demand_hit 1300939
Core_0_L1I_demand_miss 6
Core_0_L1I_demand_MPKI 6e-05
Core_0_L1I_demand_miss_rate 4.61203e-06
Core_0_L1I_load_access 1300945
Core_0_L1I_load_hit 1300939
Core_0_L1I_load_miss 6
Core_0_L1I_load_MPKI 6e-05
Core_0_L1I_load_miss_rate 4.61203e-06
Core_0_L1I_rfo_access 0
Core_0_L1I_rfo_hit 0
Core_0_L1I_rfo_miss 0
Core_0_L1I_rfo_MPKI 0
Core_0_L1I_rfo_miss_rate 0
Core_0_L1I_prefetch_access 0
Core_0_L1I_prefetch_hit 0
Core_0_L1I_prefetch_miss 0
Core_0_L1I_prefetch_MPKI 0
Core_0_L1I_prefetch_miss_rate 0
Core_0_L1I_writeback_access 0
Core_0_L1I_writeback_hit 0
Core_0_L1I_writeback_miss 0
Core_0_L1I_writeback_MPKI 0
Core_0_L1I_writeback_miss_rate 0
Core_0_L1I_prefetch_requested 0
Core_0_L1I_prefetch_issued 0
Core_0_L1I_prefetch_useful 0
Core_0_L1I_prefetch_useless 0
Core_0_L1I_prefetch_late 0
Core_0_L1I_prefetch_accuracy 0
Core_0_L1I_prefetch_coverage 0
Core_0_L1I_total_eviction 0

Core_0_L1D_total_access 66535597
Core_0_L1D_total_hit 63416427
Core_0_L1D_total_miss 3119170
Core_0_L1D_total_MPKI 31.1917
Core_0_L1D_total_miss_rate 0.0468797
Core_0_L1D_demand_access 17047368
Core_0_L1D_demand_hit 16223194
Core_0_L1D_demand_miss 824174
Core_0_L1D_demand_MPKI 8.24174
Core_0_L1D_demand_miss_rate 0.0483461
Core_0_L1D_load_access 17047368
Core_0_L1D_load_hit 16223194
Core_0_L1D_load_miss 824174
Core_0_L1D_load_MPKI 8.24174
Core_0_L1D_load_miss_rate 0.0483461
Core_0_L1D_rfo_access 0
Core_0_L1D_rfo_hit 0
Core_0_L1D_rfo_miss 0
Core_0_L1D_rfo_MPKI 0
Core_0_L1D_rfo_miss_rate 0
Core_0_L1D_prefetch_access 40360506
Core_0_L1D_prefetch_hit 38101795
Core_0_L1D_prefetch_miss 2258711
Core_0_L1D_prefetch_MPKI 22.5871
Core_0_L1D_prefetch_miss_rate 0.0559634
Core_0_L1D_writeback_access 9127723
Core_0_L1D_writeback_hit 9091438
Core_0_L1D_writeback_miss 36285
Core_0_L1D_writeback_MPKI 0.36285
Core_0_L1D_writeback_miss_rate 0.00397525
Core_0_L1D_prefetch_requested 153969805
Core_0_L1D_prefetch_issued 40360507
Core_0_L1D_prefetch_useful 298278
Core_0_L1D_prefetch_useless 23530
Core_0_L1D_prefetch_late 2361
Core_0_L1D_prefetch_accuracy 0.00739034
Core_0_L1D_prefetch_coverage 0.265738
Core_0_L1D_total_eviction 1117353

Core_0_L2C_total_access 4111290
Core_0_L2C_total_hit 2680541
Core_0_L2C_total_miss 1430749
Core_0_L2C_total_MPKI 14.3075
Core_0_L2C_total_miss_rate 0.348005
Core_0_L2C_demand_access 795528
Core_0_L2C_demand_hit 52857
Core_0_L2C_demand_miss 742671
Core_0_L2C_demand_MPKI 7.42671
Core_0_L2C_demand_miss_rate 0.933557
Core_0_L2C_load_access 788496
Core_0_L2C_load_hit 48392
Core_0_L2C_load_miss 740104
Core_0_L2C_load_MPKI 7.40104
Core_0_L2C_load_miss_rate 0.938627
Core_0_L2C_rfo_access 7032
Core_0_L2C_rfo_hit 4465
Core_0_L2C_rfo_miss 2567
Core_0_L2C_rfo_MPKI 0.02567
Core_0_L2C_rfo_miss_rate 0.365046
Core_0_L2C_prefetch_access 3048741
Core_0_L2C_prefetch_hit 2360689
Core_0_L2C_prefetch_miss 688052
Core_0_L2C_prefetch_MPKI 6.88052
Core_0_L2C_prefetch_miss_rate 0.225684
Core_0_L2C_writeback_access 267021
Core_0_L2C_writeback_hit 266995
Core_0_L2C_writeback_miss 26
Core_0_L2C_writeback_MPKI 0.00026
Core_0_L2C_writeback_miss_rate 9.73706e-05
Core_0_L2C_prefetch_requested 868863
Core_0_L2C_prefetch_issued 865493
Core_0_L2C_prefetch_useful 88754
Core_0_L2C_prefetch_useless 10763
Core_0_L2C_prefetch_late 616
Core_0_L2C_prefetch_accuracy 0.102547
Core_0_L2C_prefetch_coverage 0.106749
Core_0_L2C_total_eviction 1151745

Core_0_LLC_total_access 1400993
Core_0_LLC_total_hit 277154
Core_0_LLC_total_miss 1123839
Core_0_LLC_total_MPKI 11.2384
Core_0_LLC_total_miss_rate 0.802173
Core_0_LLC_demand_access 733400
Core_0_LLC_demand_hit 22220
Core_0_LLC_demand_miss 711180
Core_0_LLC_demand_MPKI 7.1118
Core_0_LLC_demand_miss_rate 0.969703
Core_0_LLC_load_access 731382
Core_0_LLC_load_hit 21879
Core_0_LLC_load_miss 709503
Core_0_LLC_load_MPKI 7.09503
Core_0_LLC_load_miss_rate 0.970085
Core_0_LLC_rfo_access 2018
Core_0_LLC_rfo_hit 341
Core_0_LLC_rfo_miss 1677
Core_0_LLC_rfo_MPKI 0.01677
Core_0_LLC_rfo_miss_rate 0.831021
Core_0_LLC_prefetch_access 522799
Core_0_LLC_prefetch_hit 132743
Core_0_LLC_prefetch_miss 390056
Core_0_LLC_prefetch_MPKI 3.90056
Core_0_LLC_prefetch_miss_rate 0.746092
Core_0_LLC_writeback_access 144794
Core_0_LLC_writeback_hit 122191
Core_0_LLC_writeback_miss 22603
Core_0_LLC_writeback_MPKI 0.22603
Core_0_LLC_writeback_miss_rate 0.156105
Core_0_LLC_prefetch_requested 0
Core_0_LLC_prefetch_issued 0
Core_0_LLC_prefetch_useful 0
Core_0_LLC_prefetch_useless 0
Core_0_LLC_prefetch_late 0
Core_0_LLC_prefetch_accuracy 0
Core_0_LLC_prefetch_coverage 0
Core_0_LLC_total_eviction 1088656

[DRAM Statistics]
Channel_0_RQ_row_buffer_hit 47598
Channel_0_RQ_row_buffer_miss 1018449
Channel_0_WQ_row_buffer_hit 3291
Channel_0_WQ_row_buffer_miss 71119
Channel_0_WQ_full 0
Channel_0_dbus_congested 2415906
DRAM_total_RQ_row_buffer_hit 47598
DRAM_total_RQ_row_buffer_miss 1018449
DRAM_total_WQ_row_buffer_hit 3291
DRAM_total_WQ_row_buffer_miss 71119
DRAM_total_WQ_full 0
DRAM_total_dbus_congested 2415906
DRAM_avg_congested_cycle 3.87578

======STLB miss causes ========
Core_0_STLB_miss_cause_breakdown
Core_0_STLB_cause_Demand_Data_miss 0
Core_0_STLB_cause_Demand_Data_miss_rate 0
Core_0_STLB_cause_Demand_Instruction_miss 0
Core_0_STLB_cause_Demand_Instruction_miss_rate 0
Core_0_STLB_cause_L1D_Prefetch_miss 0
Core_0_STLB_cause_L1D_Prefetch_miss_rate 0
Core_0_STLB_cause_L1I_Prefetch_miss 0
Core_0_STLB_cause_L1I_Prefetch_miss_rate 0
Core_0_STLB_cause_Other_miss 0
Core_0_STLB_cause_Other_miss_rate 0
Core_0_STLB_Demand_miss 0
Core_0_STLB_Demand_miss_rate 0
Core_0_STLB_L1D_Prefetch_miss 0
Core_0_STLB_L1D_Prefetch_miss_rate 0
Core_0_STLB_Other_miss 0
Core_0_STLB_Other_miss_rate 0
BERTI TO_L1: 121717510 TO_L2: 67289169 TO_L2_BC_MSHR: 16296475
BERTI AVG_LAT: 182.922 NUM_TRACK_LATENCY: 1579386 NUM_CANT_TRACK_LATENCY: 2
BERTI CROSS_PAGE 28397134 NO_CROSS_PAGE: 160609545
BERTI FOUND_BERTI: 31809791 NO_FOUND_BERTI: 17977859
BERTI AVERAGE_ISSUED: 3.53631
