[VMEM] WARNING: physical memory size is smaller than virtual memory size.

*** ChampSim Multicore Out-of-Order Simulator ***
Warmup Instructions: 50000000
Simulation Instructions: 100000000
Number of CPUs: 1
Page size: 4096
STLB ideal mode: all
STLB ideal fill: on
Core 0: /data2/zcq/champsim_traces_gap/tc.urand-187B.champsimtrace.xz
VBerti Prefetcher
BERTI HASH ENTANGLING
BERTI IP MASK ffff
Off-chip DRAM Size: 16 GiB Channels: 1 Width: 64-bit Data Rate: 3205 MT/s
Warmup halting CPU 0 at instruction 50000003 cycle 10211316 for remainder of phase
Warmup finished CPU 0 instructions: 50000003 cycles: 10211316 cumulative IPC: 4.897 (Simulation time: 00 hr 01 min 48 sec)
Warmup complete CPU 0 instructions: 50000003 cycles: 10211316 cumulative IPC: 4.897 (Simulation time: 00 hr 01 min 48 sec)
Simulation finished CPU 0 instructions: 100000000 cycles: 439667134 cumulative IPC: 0.2274 (Simulation time: 00 hr 25 min 19 sec)
Simulation complete CPU 0 instructions: 100000000 cycles: 439667134 cumulative IPC: 0.2274 (Simulation time: 00 hr 25 min 19 sec)

ChampSim completed all CPUs

=== Simulation ===
CPU 0 runs /data2/zcq/champsim_traces_gap/tc.urand-187B.champsimtrace.xz

Region of Interest Statistics

CPU 0 cumulative IPC: 0.2274 instructions: 100000000 cycles: 439667134
CPU 0 Branch Prediction Accuracy: 76.73% MPKI: 55.83 Average ROB Occupancy at Mispredict: 5.682
Branch type MPKI
BRANCH_DIRECT_JUMP: 0
BRANCH_INDIRECT: 0
BRANCH_CONDITIONAL: 55.83
BRANCH_DIRECT_CALL: 0
BRANCH_INDIRECT_CALL: 0
BRANCH_RETURN: 0

cpu0->cpu0_STLB TOTAL        ACCESS:     948979 HIT:     948979 MISS:          0 MSHR_MERGE:          0
cpu0->cpu0_STLB LOAD         ACCESS:     948979 HIT:     948979 MISS:          0 MSHR_MERGE:          0
cpu0->cpu0_STLB RFO          ACCESS:          0 HIT:          0 MISS:          0 MSHR_MERGE:          0
cpu0->cpu0_STLB PREFETCH     ACCESS:          0 HIT:          0 MISS:          0 MSHR_MERGE:          0
cpu0->cpu0_STLB WRITE        ACCESS:          0 HIT:          0 MISS:          0 MSHR_MERGE:          0
cpu0->cpu0_STLB TRANSLATION  ACCESS:          0 HIT:          0 MISS:          0 MSHR_MERGE:          0
cpu0->cpu0_STLB PREFETCH REQUESTED:          0 ISSUED:          0 USEFUL:          0 USELESS:          0 LATE:          0
cpu0->cpu0_STLB AVERAGE MISS LATENCY: - cycles
cpu0->cpu0_L2C TOTAL        ACCESS:    4025100 HIT:    2129899 MISS:    1895201 MSHR_MERGE:     425413
cpu0->cpu0_L2C LOAD         ACCESS:    1340139 HIT:      51927 MISS:    1288212 MSHR_MERGE:      15781
cpu0->cpu0_L2C RFO          ACCESS:        296 HIT:        262 MISS:         34 MSHR_MERGE:          0
cpu0->cpu0_L2C PREFETCH     ACCESS:    2684073 HIT:    2077118 MISS:     606955 MSHR_MERGE:     409632
cpu0->cpu0_L2C WRITE        ACCESS:        592 HIT:        592 MISS:          0 MSHR_MERGE:          0
cpu0->cpu0_L2C TRANSLATION  ACCESS:          0 HIT:          0 MISS:          0 MSHR_MERGE:          0
cpu0->cpu0_L2C PREFETCH REQUESTED:     178666 ISSUED:     178666 USEFUL:       6187 USELESS:       2311 LATE:          0
cpu0->cpu0_L2C AVERAGE MISS LATENCY: 190.7 cycles
cpu0->cpu0_L1D TOTAL        ACCESS:   17118836 HIT:   12716830 MISS:    4402006 MSHR_MERGE:     547487
cpu0->cpu0_L1D LOAD         ACCESS:   12307045 HIT:   10448700 MISS:    1858345 MSHR_MERGE:     518206
cpu0->cpu0_L1D RFO          ACCESS:          0 HIT:          0 MISS:          0 MSHR_MERGE:          0
cpu0->cpu0_L1D PREFETCH     ACCESS:    4810311 HIT:    2267242 MISS:    2543069 MSHR_MERGE:      28985
cpu0->cpu0_L1D WRITE        ACCESS:       1480 HIT:        888 MISS:        592 MSHR_MERGE:        296
cpu0->cpu0_L1D TRANSLATION  ACCESS:          0 HIT:          0 MISS:          0 MSHR_MERGE:          0
cpu0->cpu0_L1D PREFETCH REQUESTED:    5529861 ISSUED:    4810308 USEFUL:      34937 USELESS:       2980 LATE:        245
cpu0->cpu0_L1D AVERAGE MISS LATENCY: 192.3 cycles
cpu0->cpu0_DTLB TOTAL        ACCESS:   15003929 HIT:   13709975 MISS:    1293954 MSHR_MERGE:     344975
cpu0->cpu0_DTLB LOAD         ACCESS:   15003929 HIT:   13709975 MISS:    1293954 MSHR_MERGE:     344975
cpu0->cpu0_DTLB RFO          ACCESS:          0 HIT:          0 MISS:          0 MSHR_MERGE:          0
cpu0->cpu0_DTLB PREFETCH     ACCESS:          0 HIT:          0 MISS:          0 MSHR_MERGE:          0
cpu0->cpu0_DTLB WRITE        ACCESS:          0 HIT:          0 MISS:          0 MSHR_MERGE:          0
cpu0->cpu0_DTLB TRANSLATION  ACCESS:          0 HIT:          0 MISS:          0 MSHR_MERGE:          0
cpu0->cpu0_DTLB PREFETCH REQUESTED:          0 ISSUED:          0 USEFUL:          0 USELESS:          0 LATE:          0
cpu0->cpu0_DTLB AVERAGE MISS LATENCY: 5 cycles
cpu0->LLC TOTAL        ACCESS:    1469848 HIT:        855 MISS:    1468993 MSHR_MERGE:          0
cpu0->LLC LOAD         ACCESS:    1272431 HIT:        694 MISS:    1271737 MSHR_MERGE:          0
cpu0->LLC RFO          ACCESS:         34 HIT:         34 MISS:          0 MSHR_MERGE:          0
cpu0->LLC PREFETCH     ACCESS:     197323 HIT:         74 MISS:     197249 MSHR_MERGE:          0
cpu0->LLC WRITE        ACCESS:         60 HIT:         53 MISS:          7 MSHR_MERGE:          0
cpu0->LLC TRANSLATION  ACCESS:          0 HIT:          0 MISS:          0 MSHR_MERGE:          0
cpu0->LLC PREFETCH REQUESTED:          0 ISSUED:          0 USEFUL:          0 USELESS:          0 LATE:          0
cpu0->LLC AVERAGE MISS LATENCY: 175.9 cycles

DRAM Statistics

Channel 0 RQ ROW_BUFFER_HIT:         15
  ROW_BUFFER_MISS:    1468971
  AVG DBUS CONGESTED CYCLE: 2.843
Channel 0 WQ ROW_BUFFER_HIT:          2
  ROW_BUFFER_MISS:          5
  FULL:          0
Channel 0 REFRESHES ISSUED:      36639

[ROI Statistics]
[System Configuration]
num_cpus 1
cpu_freq 4000
fetch_width 6
decode_width 6
dispatch_width 6
execute_width 6
lq_width 2
sq_width 2
retire_width 6
scheduler_size 128
branch_mispredict_penalty 15
rob_size 352
lq_size 128
sq_size 72
ifetch_buffer_size 64
decode_buffer_size 32
dispatch_buffer_size 32
register_file_size 288
decode_latency 1
dispatch_latency 1
schedule_latency 1
execute_latency 1
page_size 4096
block_size 64
core_0_itlb_set 16
core_0_itlb_way 4
core_0_itlb_rq_size 16
core_0_itlb_wq_size 16
core_0_itlb_pq_size 0
core_0_itlb_mshr_size 8
core_0_itlb_hit_latency 1
core_0_itlb_fill_latency 1
core_0_itlb_max_tag_check 2
core_0_itlb_max_fill 2
core_0_dtlb_set 16
core_0_dtlb_way 4
core_0_dtlb_rq_size 16
core_0_dtlb_wq_size 16
core_0_dtlb_pq_size 0
core_0_dtlb_mshr_size 8
core_0_dtlb_hit_latency 1
core_0_dtlb_fill_latency 1
core_0_dtlb_max_tag_check 2
core_0_dtlb_max_fill 2
core_0_stlb_set 128
core_0_stlb_way 12
core_0_stlb_rq_size 32
core_0_stlb_wq_size 32
core_0_stlb_pq_size 0
core_0_stlb_mshr_size 16
core_0_stlb_hit_latency 4
core_0_stlb_fill_latency 4
core_0_stlb_max_tag_check 1
core_0_stlb_max_fill 1
core_0_l1i_set 64
core_0_l1i_way 8
core_0_l1i_rq_size 64
core_0_l1i_wq_size 64
core_0_l1i_pq_size 32
core_0_l1i_mshr_size 8
core_0_l1i_hit_latency 2
core_0_l1i_fill_latency 2
core_0_l1i_max_tag_check 2
core_0_l1i_max_fill 2
core_0_l1d_set 64
core_0_l1d_way 12
core_0_l1d_rq_size 64
core_0_l1d_wq_size 64
core_0_l1d_pq_size 8
core_0_l1d_mshr_size 16
core_0_l1d_hit_latency 2
core_0_l1d_fill_latency 3
core_0_l1d_max_tag_check 2
core_0_l1d_max_fill 2
core_0_l2c_set 1024
core_0_l2c_way 8
core_0_l2c_rq_size 32
core_0_l2c_wq_size 32
core_0_l2c_pq_size 16
core_0_l2c_mshr_size 32
core_0_l2c_hit_latency 5
core_0_l2c_fill_latency 5
core_0_l2c_max_tag_check 1
core_0_l2c_max_fill 1
llc_set 2048
llc_way 16
llc_rq_size 32
llc_wq_size 32
llc_pq_size 32
llc_mshr_size 64
llc_hit_latency 10
llc_fill_latency 10
llc_max_tag_check 1
llc_max_fill 1
dram_channels 1
dram_ranks 1
dram_bankgroups 8
dram_banks 4
dram_rows 65536
dram_columns 1024
dram_channel_width 8
dram_rq_size 64
dram_wq_size 64
dram_size 17179869184
core_0_itlb_prefetcher no
core_0_dtlb_prefetcher no
core_0_stlb_prefetcher no
core_0_l1i_prefetcher next_line
core_0_l1d_prefetcher vberti
core_0_l2c_prefetcher ip_stride
llc_prefetcher no
llc_replacement drrip

Core_0_instructions 100000000
Core_0_cycles 439667134
Core_0_IPC 0.227445
Core_0_branch_prediction_accuracy 76.7281
Core_0_branch_MPKI 55.8252
Core_0_average_ROB_occupancy_at_mispredict 5.6818

Core_0_ITLB_total_access 0
Core_0_ITLB_total_hit 0
Core_0_ITLB_total_miss 0
Core_0_ITLB_total_MPKI 0
Core_0_ITLB_total_miss_rate 0
Core_0_ITLB_demand_access 0
Core_0_ITLB_demand_hit 0
Core_0_ITLB_demand_miss 0
Core_0_ITLB_demand_MPKI 0
Core_0_ITLB_demand_miss_rate 0
Core_0_ITLB_load_access 0
Core_0_ITLB_load_hit 0
Core_0_ITLB_load_miss 0
Core_0_ITLB_load_MPKI 0
Core_0_ITLB_load_miss_rate 0
Core_0_ITLB_rfo_access 0
Core_0_ITLB_rfo_hit 0
Core_0_ITLB_rfo_miss 0
Core_0_ITLB_rfo_MPKI 0
Core_0_ITLB_rfo_miss_rate 0
Core_0_ITLB_prefetch_access 0
Core_0_ITLB_prefetch_hit 0
Core_0_ITLB_prefetch_miss 0
Core_0_ITLB_prefetch_MPKI 0
Core_0_ITLB_prefetch_miss_rate 0
Core_0_ITLB_writeback_access 0
Core_0_ITLB_writeback_hit 0
Core_0_ITLB_writeback_miss 0
Core_0_ITLB_writeback_MPKI 0
Core_0_ITLB_writeback_miss_rate 0
Core_0_ITLB_prefetch_requested 0
Core_0_ITLB_prefetch_issued 0
Core_0_ITLB_prefetch_useful 0
Core_0_ITLB_prefetch_useless 0
Core_0_ITLB_prefetch_late 0
Core_0_ITLB_prefetch_accuracy 0
Core_0_ITLB_prefetch_coverage 0
Core_0_ITLB_total_eviction 0

Core_0_DTLB_total_access 15003929
Core_0_DTLB_total_hit 13709975
Core_0_DTLB_total_miss 1293954
Core_0_DTLB_total_MPKI 12.9395
Core_0_DTLB_total_miss_rate 0.086241
Core_0_DTLB_demand_access 15003929
Core_0_DTLB_demand_hit 13709975
Core_0_DTLB_demand_miss 1293954
Core_0_DTLB_demand_MPKI 12.9395
Core_0_DTLB_demand_miss_rate 0.086241
Core_0_DTLB_load_access 15003929
Core_0_DTLB_load_hit 13709975
Core_0_DTLB_load_miss 1293954
Core_0_DTLB_load_MPKI 12.9395
Core_0_DTLB_load_miss_rate 0.086241
Core_0_DTLB_rfo_access 0
Core_0_DTLB_rfo_hit 0
Core_0_DTLB_rfo_miss 0
Core_0_DTLB_rfo_MPKI 0
Core_0_DTLB_rfo_miss_rate 0
Core_0_DTLB_prefetch_access 0
Core_0_DTLB_prefetch_hit 0
Core_0_DTLB_prefetch_miss 0
Core_0_DTLB_prefetch_MPKI 0
Core_0_DTLB_prefetch_miss_rate 0
Core_0_DTLB_writeback_access 0
Core_0_DTLB_writeback_hit 0
Core_0_DTLB_writeback_miss 0
Core_0_DTLB_writeback_MPKI 0
Core_0_DTLB_writeback_miss_rate 0
Core_0_DTLB_prefetch_requested 0
Core_0_DTLB_prefetch_issued 0
Core_0_DTLB_prefetch_useful 0
Core_0_DTLB_prefetch_useless 0
Core_0_DTLB_prefetch_late 0
Core_0_DTLB_prefetch_accuracy 0
Core_0_DTLB_prefetch_coverage 0
Core_0_DTLB_total_eviction 948979

Core_0_STLB_total_access 948979
Core_0_STLB_total_hit 948979
Core_0_STLB_total_miss 0
Core_0_STLB_total_MPKI 0
Core_0_STLB_total_miss_rate 0
Core_0_STLB_demand_access 948979
Core_0_STLB_demand_hit 948979
Core_0_STLB_demand_miss 0
Core_0_STLB_demand_MPKI 0
Core_0_STLB_demand_miss_rate 0
Core_0_STLB_load_access 948979
Core_0_STLB_load_hit 948979
Core_0_STLB_load_miss 0
Core_0_STLB_load_MPKI 0
Core_0_STLB_load_miss_rate 0
Core_0_STLB_rfo_access 0
Core_0_STLB_rfo_hit 0
Core_0_STLB_rfo_miss 0
Core_0_STLB_rfo_MPKI 0
Core_0_STLB_rfo_miss_rate 0
Core_0_STLB_prefetch_access 0
Core_0_STLB_prefetch_hit 0
Core_0_STLB_prefetch_miss 0
Core_0_STLB_prefetch_MPKI 0
Core_0_STLB_prefetch_miss_rate 0
Core_0_STLB_writeback_access 0
Core_0_STLB_writeback_hit 0
Core_0_STLB_writeback_miss 0
Core_0_STLB_writeback_MPKI 0
Core_0_STLB_writeback_miss_rate 0
Core_0_STLB_prefetch_requested 0
Core_0_STLB_prefetch_issued 0
Core_0_STLB_prefetch_useful 0
Core_0_STLB_prefetch_useless 0
Core_0_STLB_prefetch_late 0
Core_0_STLB_prefetch_accuracy 0
Core_0_STLB_prefetch_coverage 0
Core_0_STLB_total_eviction 931001

Core_0_L1I_total_access 0
Core_0_L1I_total_hit 0
Core_0_L1I_total_miss 0
Core_0_L1I_total_MPKI 0
Core_0_L1I_total_miss_rate 0
Core_0_L1I_demand_access 0
Core_0_L1I_demand_hit 0
Core_0_L1I_demand_miss 0
Core_0_L1I_demand_MPKI 0
Core_0_L1I_demand_miss_rate 0
Core_0_L1I_load_access 0
Core_0_L1I_load_hit 0
Core_0_L1I_load_miss 0
Core_0_L1I_load_MPKI 0
Core_0_L1I_load_miss_rate 0
Core_0_L1I_rfo_access 0
Core_0_L1I_rfo_hit 0
Core_0_L1I_rfo_miss 0
Core_0_L1I_rfo_MPKI 0
Core_0_L1I_rfo_miss_rate 0
Core_0_L1I_prefetch_access 0
Core_0_L1I_prefetch_hit 0
Core_0_L1I_prefetch_miss 0
Core_0_L1I_prefetch_MPKI 0
Core_0_L1I_prefetch_miss_rate 0
Core_0_L1I_writeback_access 0
Core_0_L1I_writeback_hit 0
Core_0_L1I_writeback_miss 0
Core_0_L1I_writeback_MPKI 0
Core_0_L1I_writeback_miss_rate 0
Core_0_L1I_prefetch_requested 0
Core_0_L1I_prefetch_issued 0
Core_0_L1I_prefetch_useful 0
Core_0_L1I_prefetch_useless 0
Core_0_L1I_prefetch_late 0
Core_0_L1I_prefetch_accuracy 0
Core_0_L1I_prefetch_coverage 0
Core_0_L1I_total_eviction 0

Core_0_L1D_total_access 17118836
Core_0_L1D_total_hit 12716830
Core_0_L1D_total_miss 4402006
Core_0_L1D_total_MPKI 44.0201
Core_0_L1D_total_miss_rate 0.257144
Core_0_L1D_demand_access 12307045
Core_0_L1D_demand_hit 10448700
Core_0_L1D_demand_miss 1858345
Core_0_L1D_demand_MPKI 18.5834
Core_0_L1D_demand_miss_rate 0.150998
Core_0_L1D_load_access 12307045
Core_0_L1D_load_hit 10448700
Core_0_L1D_load_miss 1858345
Core_0_L1D_load_MPKI 18.5834
Core_0_L1D_load_miss_rate 0.150998
Core_0_L1D_rfo_access 0
Core_0_L1D_rfo_hit 0
Core_0_L1D_rfo_miss 0
Core_0_L1D_rfo_MPKI 0
Core_0_L1D_rfo_miss_rate 0
Core_0_L1D_prefetch_access 4810311
Core_0_L1D_prefetch_hit 2267242
Core_0_L1D_prefetch_miss 2543069
Core_0_L1D_prefetch_MPKI 25.4307
Core_0_L1D_prefetch_miss_rate 0.52867
Core_0_L1D_writeback_access 1480
Core_0_L1D_writeback_hit 888
Core_0_L1D_writeback_miss 592
Core_0_L1D_writeback_MPKI 0.00592
Core_0_L1D_writeback_miss_rate 0.4
Core_0_L1D_prefetch_requested 5529861
Core_0_L1D_prefetch_issued 4810308
Core_0_L1D_prefetch_useful 34937
Core_0_L1D_prefetch_useless 2980
Core_0_L1D_prefetch_late 245
Core_0_L1D_prefetch_accuracy 0.00726294
Core_0_L1D_prefetch_coverage 0.0184531
Core_0_L1D_total_eviction 1378358

Core_0_L2C_total_access 4025100
Core_0_L2C_total_hit 2129899
Core_0_L2C_total_miss 1895201
Core_0_L2C_total_MPKI 18.952
Core_0_L2C_total_miss_rate 0.470846
Core_0_L2C_demand_access 1340435
Core_0_L2C_demand_hit 52189
Core_0_L2C_demand_miss 1288246
Core_0_L2C_demand_MPKI 12.8825
Core_0_L2C_demand_miss_rate 0.961066
Core_0_L2C_load_access 1340139
Core_0_L2C_load_hit 51927
Core_0_L2C_load_miss 1288212
Core_0_L2C_load_MPKI 12.8821
Core_0_L2C_load_miss_rate 0.961253
Core_0_L2C_rfo_access 296
Core_0_L2C_rfo_hit 262
Core_0_L2C_rfo_miss 34
Core_0_L2C_rfo_MPKI 0.00034
Core_0_L2C_rfo_miss_rate 0.114865
Core_0_L2C_prefetch_access 2684073
Core_0_L2C_prefetch_hit 2077118
Core_0_L2C_prefetch_miss 606955
Core_0_L2C_prefetch_MPKI 6.06955
Core_0_L2C_prefetch_miss_rate 0.226132
Core_0_L2C_writeback_access 592
Core_0_L2C_writeback_hit 592
Core_0_L2C_writeback_miss 0
Core_0_L2C_writeback_MPKI 0
Core_0_L2C_writeback_miss_rate 0
Core_0_L2C_prefetch_requested 178666
Core_0_L2C_prefetch_issued 178666
Core_0_L2C_prefetch_useful 6187
Core_0_L2C_prefetch_useless 2311
Core_0_L2C_prefetch_late 0
Core_0_L2C_prefetch_accuracy 0.0346289
Core_0_L2C_prefetch_coverage 0.0047797
Core_0_L2C_total_eviction 1469789

Core_0_LLC_total_access 1469848
Core_0_LLC_total_hit 855
Core_0_LLC_total_miss 1468993
Core_0_LLC_total_MPKI 14.6899
Core_0_LLC_total_miss_rate 0.999418
Core_0_LLC_demand_access 1272465
Core_0_LLC_demand_hit 728
Core_0_LLC_demand_miss 1271737
Core_0_LLC_demand_MPKI 12.7174
Core_0_LLC_demand_miss_rate 0.999428
Core_0_LLC_load_access 1272431
Core_0_LLC_load_hit 694
Core_0_LLC_load_miss 1271737
Core_0_LLC_load_MPKI 12.7174
Core_0_LLC_load_miss_rate 0.999455
Core_0_LLC_rfo_access 34
Core_0_LLC_rfo_hit 34
Core_0_LLC_rfo_miss 0
Core_0_LLC_rfo_MPKI 0
Core_0_LLC_rfo_miss_rate 0
Core_0_LLC_prefetch_access 197323
Core_0_LLC_prefetch_hit 74
Core_0_LLC_prefetch_miss 197249
Core_0_LLC_prefetch_MPKI 1.97249
Core_0_LLC_prefetch_miss_rate 0.999625
Core_0_LLC_writeback_access 60
Core_0_LLC_writeback_hit 53
Core_0_LLC_writeback_miss 7
Core_0_LLC_writeback_MPKI 7e-05
Core_0_LLC_writeback_miss_rate 0.116667
Core_0_LLC_prefetch_requested 0
Core_0_LLC_prefetch_issued 0
Core_0_LLC_prefetch_useful 0
Core_0_LLC_prefetch_useless 0
Core_0_LLC_prefetch_late 0
Core_0_LLC_prefetch_accuracy 0
Core_0_LLC_prefetch_coverage 0
Core_0_LLC_total_eviction 1468994

[DRAM Statistics]
Channel_0_RQ_row_buffer_hit 15
Channel_0_RQ_row_buffer_miss 1468971
Channel_0_WQ_row_buffer_hit 2
Channel_0_WQ_row_buffer_miss 5
Channel_0_WQ_full 0
Channel_0_dbus_congested 282976
DRAM_total_RQ_row_buffer_hit 15
DRAM_total_RQ_row_buffer_miss 1468971
DRAM_total_WQ_row_buffer_hit 2
DRAM_total_WQ_row_buffer_miss 5
DRAM_total_WQ_full 0
DRAM_total_dbus_congested 282976
DRAM_avg_congested_cycle 2.84266

======STLB miss causes ========
Core_0_STLB_miss_cause_breakdown
Core_0_STLB_cause_Demand_Data_miss 0
Core_0_STLB_cause_Demand_Data_miss_rate 0
Core_0_STLB_cause_Demand_Instruction_miss 0
Core_0_STLB_cause_Demand_Instruction_miss_rate 0
Core_0_STLB_cause_L1D_Prefetch_miss 0
Core_0_STLB_cause_L1D_Prefetch_miss_rate 0
Core_0_STLB_cause_L1I_Prefetch_miss 0
Core_0_STLB_cause_L1I_Prefetch_miss_rate 0
Core_0_STLB_cause_Other_miss 0
Core_0_STLB_cause_Other_miss_rate 0
Core_0_STLB_Demand_miss 0
Core_0_STLB_Demand_miss_rate 0
Core_0_STLB_L1D_Prefetch_miss 0
Core_0_STLB_L1D_Prefetch_miss_rate 0
Core_0_STLB_Other_miss 0
Core_0_STLB_Other_miss_rate 0
BERTI TO_L1: 3489990 TO_L2: 6639843 TO_L2_BC_MSHR: 0
BERTI AVG_LAT: 127.885 NUM_TRACK_LATENCY: 2063447 NUM_CANT_TRACK_LATENCY: 0
BERTI CROSS_PAGE 1107724 NO_CROSS_PAGE: 9022109
BERTI FOUND_BERTI: 10675382 NO_FOUND_BERTI: 7521910
BERTI AVERAGE_ISSUED: 2.44044
