[VMEM] WARNING: physical memory size is smaller than virtual memory size.

*** ChampSim Multicore Out-of-Order Simulator ***
Warmup Instructions: 50000000
Simulation Instructions: 100000000
Number of CPUs: 1
Page size: 4096
STLB ideal mode: all
STLB ideal fill: on
Core 0: /data2/zcq/champsim_traces_gap/tc.urand-504B.champsimtrace.xz
VBerti Prefetcher
BERTI HASH ENTANGLING
BERTI IP MASK ffff
Off-chip DRAM Size: 16 GiB Channels: 1 Width: 64-bit Data Rate: 3205 MT/s
Warmup halting CPU 0 at instruction 50000002 cycle 10175371 for remainder of phase
Warmup finished CPU 0 instructions: 50000002 cycles: 10175371 cumulative IPC: 4.914 (Simulation time: 00 hr 01 min 46 sec)
Warmup complete CPU 0 instructions: 50000002 cycles: 10175371 cumulative IPC: 4.914 (Simulation time: 00 hr 01 min 46 sec)
Simulation finished CPU 0 instructions: 100000000 cycles: 490865819 cumulative IPC: 0.2037 (Simulation time: 00 hr 27 min 42 sec)
Simulation complete CPU 0 instructions: 100000000 cycles: 490865819 cumulative IPC: 0.2037 (Simulation time: 00 hr 27 min 42 sec)

ChampSim completed all CPUs

=== Simulation ===
CPU 0 runs /data2/zcq/champsim_traces_gap/tc.urand-504B.champsimtrace.xz

Region of Interest Statistics

CPU 0 cumulative IPC: 0.2037 instructions: 100000000 cycles: 490865819
CPU 0 Branch Prediction Accuracy: 77.05% MPKI: 54.92 Average ROB Occupancy at Mispredict: 5.79
Branch type MPKI
BRANCH_DIRECT_JUMP: 0
BRANCH_INDIRECT: 0
BRANCH_CONDITIONAL: 54.92
BRANCH_DIRECT_CALL: 0
BRANCH_INDIRECT_CALL: 0
BRANCH_RETURN: 0

cpu0->cpu0_STLB TOTAL        ACCESS:    1184226 HIT:    1184226 MISS:          0 MSHR_MERGE:          0
cpu0->cpu0_STLB LOAD         ACCESS:    1184226 HIT:    1184226 MISS:          0 MSHR_MERGE:          0
cpu0->cpu0_STLB RFO          ACCESS:          0 HIT:          0 MISS:          0 MSHR_MERGE:          0
cpu0->cpu0_STLB PREFETCH     ACCESS:          0 HIT:          0 MISS:          0 MSHR_MERGE:          0
cpu0->cpu0_STLB WRITE        ACCESS:          0 HIT:          0 MISS:          0 MSHR_MERGE:          0
cpu0->cpu0_STLB TRANSLATION  ACCESS:          0 HIT:          0 MISS:          0 MSHR_MERGE:          0
cpu0->cpu0_STLB PREFETCH REQUESTED:          0 ISSUED:          0 USEFUL:          0 USELESS:          0 LATE:          0
cpu0->cpu0_STLB AVERAGE MISS LATENCY: - cycles
cpu0->cpu0_L2C TOTAL        ACCESS:    4907864 HIT:    3081451 MISS:    1826413 MSHR_MERGE:     148339
cpu0->cpu0_L2C LOAD         ACCESS:    1594985 HIT:      34902 MISS:    1560083 MSHR_MERGE:       6074
cpu0->cpu0_L2C RFO          ACCESS:          0 HIT:          0 MISS:          0 MSHR_MERGE:          0
cpu0->cpu0_L2C PREFETCH     ACCESS:    3312405 HIT:    3046075 MISS:     266330 MSHR_MERGE:     142265
cpu0->cpu0_L2C WRITE        ACCESS:        474 HIT:        474 MISS:          0 MSHR_MERGE:          0
cpu0->cpu0_L2C TRANSLATION  ACCESS:          0 HIT:          0 MISS:          0 MSHR_MERGE:          0
cpu0->cpu0_L2C PREFETCH REQUESTED:     363187 ISSUED:     363187 USEFUL:      10350 USELESS:        515 LATE:          0
cpu0->cpu0_L2C AVERAGE MISS LATENCY: 191.9 cycles
cpu0->cpu0_L1I TOTAL        ACCESS:          3 HIT:          3 MISS:          0 MSHR_MERGE:          0
cpu0->cpu0_L1I LOAD         ACCESS:          3 HIT:          3 MISS:          0 MSHR_MERGE:          0
cpu0->cpu0_L1I RFO          ACCESS:          0 HIT:          0 MISS:          0 MSHR_MERGE:          0
cpu0->cpu0_L1I PREFETCH     ACCESS:          0 HIT:          0 MISS:          0 MSHR_MERGE:          0
cpu0->cpu0_L1I WRITE        ACCESS:          0 HIT:          0 MISS:          0 MSHR_MERGE:          0
cpu0->cpu0_L1I TRANSLATION  ACCESS:          0 HIT:          0 MISS:          0 MSHR_MERGE:          0
cpu0->cpu0_L1I PREFETCH REQUESTED:          0 ISSUED:          0 USEFUL:          0 USELESS:          0 LATE:          0
cpu0->cpu0_L1I AVERAGE MISS LATENCY: - cycles
cpu0->cpu0_L1D TOTAL        ACCESS:   16582558 HIT:   11437303 MISS:    5145255 MSHR_MERGE:     597347
cpu0->cpu0_L1D LOAD         ACCESS:   12376819 HIT:   10194649 MISS:    2182170 MSHR_MERGE:     587185
cpu0->cpu0_L1D RFO          ACCESS:          0 HIT:          0 MISS:          0 MSHR_MERGE:          0
cpu0->cpu0_L1D PREFETCH     ACCESS:    4203369 HIT:    1240284 MISS:    2963085 MSHR_MERGE:      10162
cpu0->cpu0_L1D WRITE        ACCESS:       2370 HIT:       2370 MISS:          0 MSHR_MERGE:          0
cpu0->cpu0_L1D TRANSLATION  ACCESS:          0 HIT:          0 MISS:          0 MSHR_MERGE:          0
cpu0->cpu0_L1D PREFETCH REQUESTED:    4507457 ISSUED:    4203363 USEFUL:      46016 USELESS:       3256 LATE:         20
cpu0->cpu0_L1D AVERAGE MISS LATENCY: 196.7 cycles
cpu0->cpu0_ITLB TOTAL        ACCESS:          2 HIT:          2 MISS:          0 MSHR_MERGE:          0
cpu0->cpu0_ITLB LOAD         ACCESS:          2 HIT:          2 MISS:          0 MSHR_MERGE:          0
cpu0->cpu0_ITLB RFO          ACCESS:          0 HIT:          0 MISS:          0 MSHR_MERGE:          0
cpu0->cpu0_ITLB PREFETCH     ACCESS:          0 HIT:          0 MISS:          0 MSHR_MERGE:          0
cpu0->cpu0_ITLB WRITE        ACCESS:          0 HIT:          0 MISS:          0 MSHR_MERGE:          0
cpu0->cpu0_ITLB TRANSLATION  ACCESS:          0 HIT:          0 MISS:          0 MSHR_MERGE:          0
cpu0->cpu0_ITLB PREFETCH REQUESTED:          0 ISSUED:          0 USEFUL:          0 USELESS:          0 LATE:          0
cpu0->cpu0_ITLB AVERAGE MISS LATENCY: - cycles
cpu0->cpu0_DTLB TOTAL        ACCESS:   14785254 HIT:   13168175 MISS:    1617079 MSHR_MERGE:     432853
cpu0->cpu0_DTLB LOAD         ACCESS:   14785254 HIT:   13168175 MISS:    1617079 MSHR_MERGE:     432853
cpu0->cpu0_DTLB RFO          ACCESS:          0 HIT:          0 MISS:          0 MSHR_MERGE:          0
cpu0->cpu0_DTLB PREFETCH     ACCESS:          0 HIT:          0 MISS:          0 MSHR_MERGE:          0
cpu0->cpu0_DTLB WRITE        ACCESS:          0 HIT:          0 MISS:          0 MSHR_MERGE:          0
cpu0->cpu0_DTLB TRANSLATION  ACCESS:          0 HIT:          0 MISS:          0 MSHR_MERGE:          0
cpu0->cpu0_DTLB PREFETCH REQUESTED:          0 ISSUED:          0 USEFUL:          0 USELESS:          0 LATE:          0
cpu0->cpu0_DTLB AVERAGE MISS LATENCY: 5 cycles
cpu0->LLC TOTAL        ACCESS:    1678083 HIT:       1014 MISS:    1677069 MSHR_MERGE:          0
cpu0->LLC LOAD         ACCESS:    1554009 HIT:        995 MISS:    1553014 MSHR_MERGE:          0
cpu0->LLC RFO          ACCESS:          0 HIT:          0 MISS:          0 MSHR_MERGE:          0
cpu0->LLC PREFETCH     ACCESS:     124065 HIT:         10 MISS:     124055 MSHR_MERGE:          0
cpu0->LLC WRITE        ACCESS:          9 HIT:          9 MISS:          0 MSHR_MERGE:          0
cpu0->LLC TRANSLATION  ACCESS:          0 HIT:          0 MISS:          0 MSHR_MERGE:          0
cpu0->LLC PREFETCH REQUESTED:          0 ISSUED:          0 USEFUL:          0 USELESS:          0 LATE:          0
cpu0->LLC AVERAGE MISS LATENCY: 176.3 cycles

DRAM Statistics

Channel 0 RQ ROW_BUFFER_HIT:         38
  ROW_BUFFER_MISS:    1677031
  AVG DBUS CONGESTED CYCLE: 2.892
Channel 0 WQ ROW_BUFFER_HIT:          0
  ROW_BUFFER_MISS:          0
  FULL:          0
Channel 0 REFRESHES ISSUED:      40906

[ROI Statistics]
[System Configuration]
num_cpus 1
cpu_freq 4000
fetch_width 6
decode_width 6
dispatch_width 6
execute_width 6
lq_width 2
sq_width 2
retire_width 6
scheduler_size 128
branch_mispredict_penalty 15
rob_size 352
lq_size 128
sq_size 72
ifetch_buffer_size 64
decode_buffer_size 32
dispatch_buffer_size 32
register_file_size 288
decode_latency 1
dispatch_latency 1
schedule_latency 1
execute_latency 1
page_size 4096
block_size 64
core_0_itlb_set 16
core_0_itlb_way 4
core_0_itlb_rq_size 16
core_0_itlb_wq_size 16
core_0_itlb_pq_size 0
core_0_itlb_mshr_size 8
core_0_itlb_hit_latency 1
core_0_itlb_fill_latency 1
core_0_itlb_max_tag_check 2
core_0_itlb_max_fill 2
core_0_dtlb_set 16
core_0_dtlb_way 4
core_0_dtlb_rq_size 16
core_0_dtlb_wq_size 16
core_0_dtlb_pq_size 0
core_0_dtlb_mshr_size 8
core_0_dtlb_hit_latency 1
core_0_dtlb_fill_latency 1
core_0_dtlb_max_tag_check 2
core_0_dtlb_max_fill 2
core_0_stlb_set 128
core_0_stlb_way 12
core_0_stlb_rq_size 32
core_0_stlb_wq_size 32
core_0_stlb_pq_size 0
core_0_stlb_mshr_size 16
core_0_stlb_hit_latency 4
core_0_stlb_fill_latency 4
core_0_stlb_max_tag_check 1
core_0_stlb_max_fill 1
core_0_l1i_set 64
core_0_l1i_way 8
core_0_l1i_rq_size 64
core_0_l1i_wq_size 64
core_0_l1i_pq_size 32
core_0_l1i_mshr_size 8
core_0_l1i_hit_latency 2
core_0_l1i_fill_latency 2
core_0_l1i_max_tag_check 2
core_0_l1i_max_fill 2
core_0_l1d_set 64
core_0_l1d_way 12
core_0_l1d_rq_size 64
core_0_l1d_wq_size 64
core_0_l1d_pq_size 8
core_0_l1d_mshr_size 16
core_0_l1d_hit_latency 2
core_0_l1d_fill_latency 3
core_0_l1d_max_tag_check 2
core_0_l1d_max_fill 2
core_0_l2c_set 1024
core_0_l2c_way 8
core_0_l2c_rq_size 32
core_0_l2c_wq_size 32
core_0_l2c_pq_size 16
core_0_l2c_mshr_size 32
core_0_l2c_hit_latency 5
core_0_l2c_fill_latency 5
core_0_l2c_max_tag_check 1
core_0_l2c_max_fill 1
llc_set 2048
llc_way 16
llc_rq_size 32
llc_wq_size 32
llc_pq_size 32
llc_mshr_size 64
llc_hit_latency 10
llc_fill_latency 10
llc_max_tag_check 1
llc_max_fill 1
dram_channels 1
dram_ranks 1
dram_bankgroups 8
dram_banks 4
dram_rows 65536
dram_columns 1024
dram_channel_width 8
dram_rq_size 64
dram_wq_size 64
dram_size 17179869184
core_0_itlb_prefetcher no
core_0_dtlb_prefetcher no
core_0_stlb_prefetcher no
core_0_l1i_prefetcher next_line
core_0_l1d_prefetcher vberti
core_0_l2c_prefetcher ip_stride
llc_prefetcher no
llc_replacement drrip

Core_0_instructions 100000000
Core_0_cycles 490865819
Core_0_IPC 0.203722
Core_0_branch_prediction_accuracy 77.0455
Core_0_branch_MPKI 54.9233
Core_0_average_ROB_occupancy_at_mispredict 5.78951

Core_0_ITLB_total_access 2
Core_0_ITLB_total_hit 2
Core_0_ITLB_total_miss 0
Core_0_ITLB_total_MPKI 0
Core_0_ITLB_total_miss_rate 0
Core_0_ITLB_demand_access 2
Core_0_ITLB_demand_hit 2
Core_0_ITLB_demand_miss 0
Core_0_ITLB_demand_MPKI 0
Core_0_ITLB_demand_miss_rate 0
Core_0_ITLB_load_access 2
Core_0_ITLB_load_hit 2
Core_0_ITLB_load_miss 0
Core_0_ITLB_load_MPKI 0
Core_0_ITLB_load_miss_rate 0
Core_0_ITLB_rfo_access 0
Core_0_ITLB_rfo_hit 0
Core_0_ITLB_rfo_miss 0
Core_0_ITLB_rfo_MPKI 0
Core_0_ITLB_rfo_miss_rate 0
Core_0_ITLB_prefetch_access 0
Core_0_ITLB_prefetch_hit 0
Core_0_ITLB_prefetch_miss 0
Core_0_ITLB_prefetch_MPKI 0
Core_0_ITLB_prefetch_miss_rate 0
Core_0_ITLB_writeback_access 0
Core_0_ITLB_writeback_hit 0
Core_0_ITLB_writeback_miss 0
Core_0_ITLB_writeback_MPKI 0
Core_0_ITLB_writeback_miss_rate 0
Core_0_ITLB_prefetch_requested 0
Core_0_ITLB_prefetch_issued 0
Core_0_ITLB_prefetch_useful 0
Core_0_ITLB_prefetch_useless 0
Core_0_ITLB_prefetch_late 0
Core_0_ITLB_prefetch_accuracy 0
Core_0_ITLB_prefetch_coverage 0
Core_0_ITLB_total_eviction 0

Core_0_DTLB_total_access 14785254
Core_0_DTLB_total_hit 13168175
Core_0_DTLB_total_miss 1617079
Core_0_DTLB_total_MPKI 16.1708
Core_0_DTLB_total_miss_rate 0.109371
Core_0_DTLB_demand_access 14785254
Core_0_DTLB_demand_hit 13168175
Core_0_DTLB_demand_miss 1617079
Core_0_DTLB_demand_MPKI 16.1708
Core_0_DTLB_demand_miss_rate 0.109371
Core_0_DTLB_load_access 14785254
Core_0_DTLB_load_hit 13168175
Core_0_DTLB_load_miss 1617079
Core_0_DTLB_load_MPKI 16.1708
Core_0_DTLB_load_miss_rate 0.109371
Core_0_DTLB_rfo_access 0
Core_0_DTLB_rfo_hit 0
Core_0_DTLB_rfo_miss 0
Core_0_DTLB_rfo_MPKI 0
Core_0_DTLB_rfo_miss_rate 0
Core_0_DTLB_prefetch_access 0
Core_0_DTLB_prefetch_hit 0
Core_0_DTLB_prefetch_miss 0
Core_0_DTLB_prefetch_MPKI 0
Core_0_DTLB_prefetch_miss_rate 0
Core_0_DTLB_writeback_access 0
Core_0_DTLB_writeback_hit 0
Core_0_DTLB_writeback_miss 0
Core_0_DTLB_writeback_MPKI 0
Core_0_DTLB_writeback_miss_rate 0
Core_0_DTLB_prefetch_requested 0
Core_0_DTLB_prefetch_issued 0
Core_0_DTLB_prefetch_useful 0
Core_0_DTLB_prefetch_useless 0
Core_0_DTLB_prefetch_late 0
Core_0_DTLB_prefetch_accuracy 0
Core_0_DTLB_prefetch_coverage 0
Core_0_DTLB_total_eviction 1184226

Core_0_STLB_total_access 1184226
Core_0_STLB_total_hit 1184226
Core_0_STLB_total_miss 0
Core_0_STLB_total_MPKI 0
Core_0_STLB_total_miss_rate 0
Core_0_STLB_demand_access 1184226
Core_0_STLB_demand_hit 1184226
Core_0_STLB_demand_miss 0
Core_0_STLB_demand_MPKI 0
Core_0_STLB_demand_miss_rate 0
Core_0_STLB_load_access 1184226
Core_0_STLB_load_hit 1184226
Core_0_STLB_load_miss 0
Core_0_STLB_load_MPKI 0
Core_0_STLB_load_miss_rate 0
Core_0_STLB_rfo_access 0
Core_0_STLB_rfo_hit 0
Core_0_STLB_rfo_miss 0
Core_0_STLB_rfo_MPKI 0
Core_0_STLB_rfo_miss_rate 0
Core_0_STLB_prefetch_access 0
Core_0_STLB_prefetch_hit 0
Core_0_STLB_prefetch_miss 0
Core_0_STLB_prefetch_MPKI 0
Core_0_STLB_prefetch_miss_rate 0
Core_0_STLB_writeback_access 0
Core_0_STLB_writeback_hit 0
Core_0_STLB_writeback_miss 0
Core_0_STLB_writeback_MPKI 0
Core_0_STLB_writeback_miss_rate 0
Core_0_STLB_prefetch_requested 0
Core_0_STLB_prefetch_issued 0
Core_0_STLB_prefetch_useful 0
Core_0_STLB_prefetch_useless 0
Core_0_STLB_prefetch_late 0
Core_0_STLB_prefetch_accuracy 0
Core_0_STLB_prefetch_coverage 0
Core_0_STLB_total_eviction 1164652

Core_0_L1I_total_access 3
Core_0_L1I_total_hit 3
Core_0_L1I_total_miss 0
Core_0_L1I_total_MPKI 0
Core_0_L1I_total_miss_rate 0
Core_0_L1I_demand_access 3
Core_0_L1I_demand_hit 3
Core_0_L1I_demand_miss 0
Core_0_L1I_demand_MPKI 0
Core_0_L1I_demand_miss_rate 0
Core_0_L1I_load_access 3
Core_0_L1I_load_hit 3
Core_0_L1I_load_miss 0
Core_0_L1I_load_MPKI 0
Core_0_L1I_load_miss_rate 0
Core_0_L1I_rfo_access 0
Core_0_L1I_rfo_hit 0
Core_0_L1I_rfo_miss 0
Core_0_L1I_rfo_MPKI 0
Core_0_L1I_rfo_miss_rate 0
Core_0_L1I_prefetch_access 0
Core_0_L1I_prefetch_hit 0
Core_0_L1I_prefetch_miss 0
Core_0_L1I_prefetch_MPKI 0
Core_0_L1I_prefetch_miss_rate 0
Core_0_L1I_writeback_access 0
Core_0_L1I_writeback_hit 0
Core_0_L1I_writeback_miss 0
Core_0_L1I_writeback_MPKI 0
Core_0_L1I_writeback_miss_rate 0
Core_0_L1I_prefetch_requested 0
Core_0_L1I_prefetch_issued 0
Core_0_L1I_prefetch_useful 0
Core_0_L1I_prefetch_useless 0
Core_0_L1I_prefetch_late 0
Core_0_L1I_prefetch_accuracy 0
Core_0_L1I_prefetch_coverage 0
Core_0_L1I_total_eviction 0

Core_0_L1D_total_access 16582558
Core_0_L1D_total_hit 11437303
Core_0_L1D_total_miss 5145255
Core_0_L1D_total_MPKI 51.4526
Core_0_L1D_total_miss_rate 0.310281
Core_0_L1D_demand_access 12376819
Core_0_L1D_demand_hit 10194649
Core_0_L1D_demand_miss 2182170
Core_0_L1D_demand_MPKI 21.8217
Core_0_L1D_demand_miss_rate 0.176311
Core_0_L1D_load_access 12376819
Core_0_L1D_load_hit 10194649
Core_0_L1D_load_miss 2182170
Core_0_L1D_load_MPKI 21.8217
Core_0_L1D_load_miss_rate 0.176311
Core_0_L1D_rfo_access 0
Core_0_L1D_rfo_hit 0
Core_0_L1D_rfo_miss 0
Core_0_L1D_rfo_MPKI 0
Core_0_L1D_rfo_miss_rate 0
Core_0_L1D_prefetch_access 4203369
Core_0_L1D_prefetch_hit 1240284
Core_0_L1D_prefetch_miss 2963085
Core_0_L1D_prefetch_MPKI 29.6308
Core_0_L1D_prefetch_miss_rate 0.704931
Core_0_L1D_writeback_access 2370
Core_0_L1D_writeback_hit 2370
Core_0_L1D_writeback_miss 0
Core_0_L1D_writeback_MPKI 0
Core_0_L1D_writeback_miss_rate 0
Core_0_L1D_prefetch_requested 4507457
Core_0_L1D_prefetch_issued 4203363
Core_0_L1D_prefetch_useful 46016
Core_0_L1D_prefetch_useless 3256
Core_0_L1D_prefetch_late 20
Core_0_L1D_prefetch_accuracy 0.0109474
Core_0_L1D_prefetch_coverage 0.0206518
Core_0_L1D_total_eviction 1644260

Core_0_L2C_total_access 4907864
Core_0_L2C_total_hit 3081451
Core_0_L2C_total_miss 1826413
Core_0_L2C_total_MPKI 18.2641
Core_0_L2C_total_miss_rate 0.37214
Core_0_L2C_demand_access 1594985
Core_0_L2C_demand_hit 34902
Core_0_L2C_demand_miss 1560083
Core_0_L2C_demand_MPKI 15.6008
Core_0_L2C_demand_miss_rate 0.978118
Core_0_L2C_load_access 1594985
Core_0_L2C_load_hit 34902
Core_0_L2C_load_miss 1560083
Core_0_L2C_load_MPKI 15.6008
Core_0_L2C_load_miss_rate 0.978118
Core_0_L2C_rfo_access 0
Core_0_L2C_rfo_hit 0
Core_0_L2C_rfo_miss 0
Core_0_L2C_rfo_MPKI 0
Core_0_L2C_rfo_miss_rate 0
Core_0_L2C_prefetch_access 3312405
Core_0_L2C_prefetch_hit 3046075
Core_0_L2C_prefetch_miss 266330
Core_0_L2C_prefetch_MPKI 2.6633
Core_0_L2C_prefetch_miss_rate 0.0804038
Core_0_L2C_writeback_access 474
Core_0_L2C_writeback_hit 474
Core_0_L2C_writeback_miss 0
Core_0_L2C_writeback_MPKI 0
Core_0_L2C_writeback_miss_rate 0
Core_0_L2C_prefetch_requested 363187
Core_0_L2C_prefetch_issued 363187
Core_0_L2C_prefetch_useful 10350
Core_0_L2C_prefetch_useless 515
Core_0_L2C_prefetch_late 0
Core_0_L2C_prefetch_accuracy 0.0284977
Core_0_L2C_prefetch_coverage 0.00659054
Core_0_L2C_total_eviction 1678074

Core_0_LLC_total_access 1678083
Core_0_LLC_total_hit 1014
Core_0_LLC_total_miss 1677069
Core_0_LLC_total_MPKI 16.7707
Core_0_LLC_total_miss_rate 0.999396
Core_0_LLC_demand_access 1554009
Core_0_LLC_demand_hit 995
Core_0_LLC_demand_miss 1553014
Core_0_LLC_demand_MPKI 15.5301
Core_0_LLC_demand_miss_rate 0.99936
Core_0_LLC_load_access 1554009
Core_0_LLC_load_hit 995
Core_0_LLC_load_miss 1553014
Core_0_LLC_load_MPKI 15.5301
Core_0_LLC_load_miss_rate 0.99936
Core_0_LLC_rfo_access 0
Core_0_LLC_rfo_hit 0
Core_0_LLC_rfo_miss 0
Core_0_LLC_rfo_MPKI 0
Core_0_LLC_rfo_miss_rate 0
Core_0_LLC_prefetch_access 124065
Core_0_LLC_prefetch_hit 10
Core_0_LLC_prefetch_miss 124055
Core_0_LLC_prefetch_MPKI 1.24055
Core_0_LLC_prefetch_miss_rate 0.999919
Core_0_LLC_writeback_access 9
Core_0_LLC_writeback_hit 9
Core_0_LLC_writeback_miss 0
Core_0_LLC_writeback_MPKI 0
Core_0_LLC_writeback_miss_rate 0
Core_0_LLC_prefetch_requested 0
Core_0_LLC_prefetch_issued 0
Core_0_LLC_prefetch_useful 0
Core_0_LLC_prefetch_useless 0
Core_0_LLC_prefetch_late 0
Core_0_LLC_prefetch_accuracy 0
Core_0_LLC_prefetch_coverage 0
Core_0_LLC_total_eviction 1677069

[DRAM Statistics]
Channel_0_RQ_row_buffer_hit 38
Channel_0_RQ_row_buffer_miss 1677031
Channel_0_WQ_row_buffer_hit 0
Channel_0_WQ_row_buffer_miss 0
Channel_0_WQ_full 0
Channel_0_dbus_congested 291949
DRAM_total_RQ_row_buffer_hit 38
DRAM_total_RQ_row_buffer_miss 1677031
DRAM_total_WQ_row_buffer_hit 0
DRAM_total_WQ_row_buffer_miss 0
DRAM_total_WQ_full 0
DRAM_total_dbus_congested 291949
DRAM_avg_congested_cycle 2.89151

======STLB miss causes ========
Core_0_STLB_miss_cause_breakdown
Core_0_STLB_cause_Demand_Data_miss 0
Core_0_STLB_cause_Demand_Data_miss_rate 0
Core_0_STLB_cause_Demand_Instruction_miss 0
Core_0_STLB_cause_Demand_Instruction_miss_rate 0
Core_0_STLB_cause_L1D_Prefetch_miss 0
Core_0_STLB_cause_L1D_Prefetch_miss_rate 0
Core_0_STLB_cause_L1I_Prefetch_miss 0
Core_0_STLB_cause_L1I_Prefetch_miss_rate 0
Core_0_STLB_cause_Other_miss 0
Core_0_STLB_cause_Other_miss_rate 0
Core_0_STLB_Demand_miss 0
Core_0_STLB_Demand_miss_rate 0
Core_0_STLB_L1D_Prefetch_miss 0
Core_0_STLB_L1D_Prefetch_miss_rate 0
Core_0_STLB_Other_miss 0
Core_0_STLB_Other_miss_rate 0
BERTI TO_L1: 2069373 TO_L2: 6754884 TO_L2_BC_MSHR: 0
BERTI AVG_LAT: 129.819 NUM_TRACK_LATENCY: 2462743 NUM_CANT_TRACK_LATENCY: 0
BERTI CROSS_PAGE 1303778 NO_CROSS_PAGE: 7520479
BERTI FOUND_BERTI: 18292838 NO_FOUND_BERTI: 63281
BERTI AVERAGE_ISSUED: 3.51234
