[VMEM] WARNING: physical memory size is smaller than virtual memory size.

*** ChampSim Multicore Out-of-Order Simulator ***
Warmup Instructions: 50000000
Simulation Instructions: 100000000
Number of CPUs: 1
Page size: 4096
STLB ideal mode: all
STLB ideal fill: on
Core 0: /data2/zcq/champsim_traces_xsbench/xs.XL100nuclide-185B.champsimtrace.xz
VBerti Prefetcher
BERTI HASH ENTANGLING
BERTI IP MASK ffff
Off-chip DRAM Size: 16 GiB Channels: 1 Width: 64-bit Data Rate: 3205 MT/s
Warmup halting CPU 0 at instruction 50000001 cycle 10507378 for remainder of phase
Warmup finished CPU 0 instructions: 50000001 cycles: 10507378 cumulative IPC: 4.759 (Simulation time: 00 hr 01 min 57 sec)
Warmup complete CPU 0 instructions: 50000001 cycles: 10507378 cumulative IPC: 4.759 (Simulation time: 00 hr 01 min 57 sec)
Simulation finished CPU 0 instructions: 100000001 cycles: 500700970 cumulative IPC: 0.1997 (Simulation time: 00 hr 30 min 42 sec)
Simulation complete CPU 0 instructions: 100000001 cycles: 500700970 cumulative IPC: 0.1997 (Simulation time: 00 hr 30 min 42 sec)

ChampSim completed all CPUs

=== Simulation ===
CPU 0 runs /data2/zcq/champsim_traces_xsbench/xs.XL100nuclide-185B.champsimtrace.xz

Region of Interest Statistics

CPU 0 cumulative IPC: 0.1997 instructions: 100000001 cycles: 500700970
CPU 0 Branch Prediction Accuracy: 87.1% MPKI: 21.56 Average ROB Occupancy at Mispredict: 26.48
Branch type MPKI
BRANCH_DIRECT_JUMP: 0
BRANCH_INDIRECT: 0
BRANCH_CONDITIONAL: 21.56
BRANCH_DIRECT_CALL: 0
BRANCH_INDIRECT_CALL: 0
BRANCH_RETURN: 0

cpu0->cpu0_STLB TOTAL        ACCESS:    3798791 HIT:    3798791 MISS:          0 MSHR_MERGE:          0
cpu0->cpu0_STLB LOAD         ACCESS:    3798791 HIT:    3798791 MISS:          0 MSHR_MERGE:          0
cpu0->cpu0_STLB RFO          ACCESS:          0 HIT:          0 MISS:          0 MSHR_MERGE:          0
cpu0->cpu0_STLB PREFETCH     ACCESS:          0 HIT:          0 MISS:          0 MSHR_MERGE:          0
cpu0->cpu0_STLB WRITE        ACCESS:          0 HIT:          0 MISS:          0 MSHR_MERGE:          0
cpu0->cpu0_STLB TRANSLATION  ACCESS:          0 HIT:          0 MISS:          0 MSHR_MERGE:          0
cpu0->cpu0_STLB PREFETCH REQUESTED:          0 ISSUED:          0 USEFUL:          0 USELESS:          0 LATE:          0
cpu0->cpu0_STLB AVERAGE MISS LATENCY: - cycles
cpu0->cpu0_L2C TOTAL        ACCESS:    7059509 HIT:    1489382 MISS:    5570127 MSHR_MERGE:       5776
cpu0->cpu0_L2C LOAD         ACCESS:    5828207 HIT:     482227 MISS:    5345980 MSHR_MERGE:        110
cpu0->cpu0_L2C RFO          ACCESS:      15326 HIT:      15042 MISS:        284 MSHR_MERGE:          0
cpu0->cpu0_L2C PREFETCH     ACCESS:    1198609 HIT:     974774 MISS:     223835 MSHR_MERGE:       5666
cpu0->cpu0_L2C WRITE        ACCESS:      17367 HIT:      17339 MISS:         28 MSHR_MERGE:          0
cpu0->cpu0_L2C TRANSLATION  ACCESS:          0 HIT:          0 MISS:          0 MSHR_MERGE:          0
cpu0->cpu0_L2C PREFETCH REQUESTED:     276073 ISSUED:     276073 USEFUL:       9112 USELESS:     161494 LATE:        110
cpu0->cpu0_L2C AVERAGE MISS LATENCY: 167.8 cycles
cpu0->cpu0_L1I TOTAL        ACCESS:      22024 HIT:      22024 MISS:          0 MSHR_MERGE:          0
cpu0->cpu0_L1I LOAD         ACCESS:      22024 HIT:      22024 MISS:          0 MSHR_MERGE:          0
cpu0->cpu0_L1I RFO          ACCESS:          0 HIT:          0 MISS:          0 MSHR_MERGE:          0
cpu0->cpu0_L1I PREFETCH     ACCESS:          0 HIT:          0 MISS:          0 MSHR_MERGE:          0
cpu0->cpu0_L1I WRITE        ACCESS:          0 HIT:          0 MISS:          0 MSHR_MERGE:          0
cpu0->cpu0_L1I TRANSLATION  ACCESS:          0 HIT:          0 MISS:          0 MSHR_MERGE:          0
cpu0->cpu0_L1I PREFETCH REQUESTED:          0 ISSUED:          0 USEFUL:          0 USELESS:          0 LATE:          0
cpu0->cpu0_L1I AVERAGE MISS LATENCY: - cycles
cpu0->cpu0_L1D TOTAL        ACCESS:   13842614 HIT:    6938010 MISS:    6904604 MSHR_MERGE:     138433
cpu0->cpu0_L1D LOAD         ACCESS:    9635713 HIT:    3701577 MISS:    5934136 MSHR_MERGE:     105929
cpu0->cpu0_L1D RFO          ACCESS:          0 HIT:          0 MISS:          0 MSHR_MERGE:          0
cpu0->cpu0_L1D PREFETCH     ACCESS:    2304492 HIT:    1381955 MISS:     922537 MSHR_MERGE:          1
cpu0->cpu0_L1D WRITE        ACCESS:    1902409 HIT:    1854478 MISS:      47931 MSHR_MERGE:      32503
cpu0->cpu0_L1D TRANSLATION  ACCESS:          0 HIT:          0 MISS:          0 MSHR_MERGE:          0
cpu0->cpu0_L1D PREFETCH REQUESTED:    2629645 ISSUED:    2304484 USEFUL:      44154 USELESS:      39908 LATE:          0
cpu0->cpu0_L1D AVERAGE MISS LATENCY: 162.5 cycles
cpu0->cpu0_ITLB TOTAL        ACCESS:      17896 HIT:      17896 MISS:          0 MSHR_MERGE:          0
cpu0->cpu0_ITLB LOAD         ACCESS:      17896 HIT:      17896 MISS:          0 MSHR_MERGE:          0
cpu0->cpu0_ITLB RFO          ACCESS:          0 HIT:          0 MISS:          0 MSHR_MERGE:          0
cpu0->cpu0_ITLB PREFETCH     ACCESS:          0 HIT:          0 MISS:          0 MSHR_MERGE:          0
cpu0->cpu0_ITLB WRITE        ACCESS:          0 HIT:          0 MISS:          0 MSHR_MERGE:          0
cpu0->cpu0_ITLB TRANSLATION  ACCESS:          0 HIT:          0 MISS:          0 MSHR_MERGE:          0
cpu0->cpu0_ITLB PREFETCH REQUESTED:          0 ISSUED:          0 USEFUL:          0 USELESS:          0 LATE:          0
cpu0->cpu0_ITLB AVERAGE MISS LATENCY: - cycles
cpu0->cpu0_DTLB TOTAL        ACCESS:   13170678 HIT:    9241634 MISS:    3929044 MSHR_MERGE:     130253
cpu0->cpu0_DTLB LOAD         ACCESS:   13170678 HIT:    9241634 MISS:    3929044 MSHR_MERGE:     130253
cpu0->cpu0_DTLB RFO          ACCESS:          0 HIT:          0 MISS:          0 MSHR_MERGE:          0
cpu0->cpu0_DTLB PREFETCH     ACCESS:          0 HIT:          0 MISS:          0 MSHR_MERGE:          0
cpu0->cpu0_DTLB WRITE        ACCESS:          0 HIT:          0 MISS:          0 MSHR_MERGE:          0
cpu0->cpu0_DTLB TRANSLATION  ACCESS:          0 HIT:          0 MISS:          0 MSHR_MERGE:          0
cpu0->cpu0_DTLB PREFETCH REQUESTED:          0 ISSUED:          0 USEFUL:          0 USELESS:          0 LATE:          0
cpu0->cpu0_DTLB AVERAGE MISS LATENCY: 5.004 cycles
cpu0->LLC TOTAL        ACCESS:    5565210 HIT:    1383638 MISS:    4181572 MSHR_MERGE:          0
cpu0->LLC LOAD         ACCESS:    5345870 HIT:    1330685 MISS:    4015185 MSHR_MERGE:          0
cpu0->LLC RFO          ACCESS:        284 HIT:        283 MISS:          1 MSHR_MERGE:          0
cpu0->LLC PREFETCH     ACCESS:     218169 HIT:      51797 MISS:     166372 MSHR_MERGE:          0
cpu0->LLC WRITE        ACCESS:        887 HIT:        873 MISS:         14 MSHR_MERGE:          0
cpu0->LLC TRANSLATION  ACCESS:          0 HIT:          0 MISS:          0 MSHR_MERGE:          0
cpu0->LLC PREFETCH REQUESTED:          0 ISSUED:          0 USEFUL:          0 USELESS:          0 LATE:          0
cpu0->LLC AVERAGE MISS LATENCY: 202.5 cycles

DRAM Statistics

Channel 0 RQ ROW_BUFFER_HIT:      57417
  ROW_BUFFER_MISS:    4124141
  AVG DBUS CONGESTED CYCLE: 2.958
Channel 0 WQ ROW_BUFFER_HIT:          2
  ROW_BUFFER_MISS:         12
  FULL:          0
Channel 0 REFRESHES ISSUED:      41725

[ROI Statistics]
[System Configuration]
num_cpus 1
cpu_freq 4000
fetch_width 6
decode_width 6
dispatch_width 6
execute_width 6
lq_width 2
sq_width 2
retire_width 6
scheduler_size 128
branch_mispredict_penalty 15
rob_size 352
lq_size 128
sq_size 72
ifetch_buffer_size 64
decode_buffer_size 32
dispatch_buffer_size 32
register_file_size 288
decode_latency 1
dispatch_latency 1
schedule_latency 1
execute_latency 1
page_size 4096
block_size 64
core_0_itlb_set 16
core_0_itlb_way 4
core_0_itlb_rq_size 16
core_0_itlb_wq_size 16
core_0_itlb_pq_size 0
core_0_itlb_mshr_size 8
core_0_itlb_hit_latency 1
core_0_itlb_fill_latency 1
core_0_itlb_max_tag_check 2
core_0_itlb_max_fill 2
core_0_dtlb_set 16
core_0_dtlb_way 4
core_0_dtlb_rq_size 16
core_0_dtlb_wq_size 16
core_0_dtlb_pq_size 0
core_0_dtlb_mshr_size 8
core_0_dtlb_hit_latency 1
core_0_dtlb_fill_latency 1
core_0_dtlb_max_tag_check 2
core_0_dtlb_max_fill 2
core_0_stlb_set 128
core_0_stlb_way 12
core_0_stlb_rq_size 32
core_0_stlb_wq_size 32
core_0_stlb_pq_size 0
core_0_stlb_mshr_size 16
core_0_stlb_hit_latency 4
core_0_stlb_fill_latency 4
core_0_stlb_max_tag_check 1
core_0_stlb_max_fill 1
core_0_l1i_set 64
core_0_l1i_way 8
core_0_l1i_rq_size 64
core_0_l1i_wq_size 64
core_0_l1i_pq_size 32
core_0_l1i_mshr_size 8
core_0_l1i_hit_latency 2
core_0_l1i_fill_latency 2
core_0_l1i_max_tag_check 2
core_0_l1i_max_fill 2
core_0_l1d_set 64
core_0_l1d_way 12
core_0_l1d_rq_size 64
core_0_l1d_wq_size 64
core_0_l1d_pq_size 8
core_0_l1d_mshr_size 16
core_0_l1d_hit_latency 2
core_0_l1d_fill_latency 3
core_0_l1d_max_tag_check 2
core_0_l1d_max_fill 2
core_0_l2c_set 1024
core_0_l2c_way 8
core_0_l2c_rq_size 32
core_0_l2c_wq_size 32
core_0_l2c_pq_size 16
core_0_l2c_mshr_size 32
core_0_l2c_hit_latency 5
core_0_l2c_fill_latency 5
core_0_l2c_max_tag_check 1
core_0_l2c_max_fill 1
llc_set 2048
llc_way 16
llc_rq_size 32
llc_wq_size 32
llc_pq_size 32
llc_mshr_size 64
llc_hit_latency 10
llc_fill_latency 10
llc_max_tag_check 1
llc_max_fill 1
dram_channels 1
dram_ranks 1
dram_bankgroups 8
dram_banks 4
dram_rows 65536
dram_columns 1024
dram_channel_width 8
dram_rq_size 64
dram_wq_size 64
dram_size 17179869184
core_0_itlb_prefetcher no
core_0_dtlb_prefetcher no
core_0_stlb_prefetcher no
core_0_l1i_prefetcher next_line
core_0_l1d_prefetcher vberti
core_0_l2c_prefetcher ip_stride
llc_prefetcher no
llc_replacement drrip

Core_0_instructions 100000001
Core_0_cycles 500700970
Core_0_IPC 0.19972
Core_0_branch_prediction_accuracy 87.1027
Core_0_branch_MPKI 21.5613
Core_0_average_ROB_occupancy_at_mispredict 26.4831

Core_0_ITLB_total_access 17896
Core_0_ITLB_total_hit 17896
Core_0_ITLB_total_miss 0
Core_0_ITLB_total_MPKI 0
Core_0_ITLB_total_miss_rate 0
Core_0_ITLB_demand_access 17896
Core_0_ITLB_demand_hit 17896
Core_0_ITLB_demand_miss 0
Core_0_ITLB_demand_MPKI 0
Core_0_ITLB_demand_miss_rate 0
Core_0_ITLB_load_access 17896
Core_0_ITLB_load_hit 17896
Core_0_ITLB_load_miss 0
Core_0_ITLB_load_MPKI 0
Core_0_ITLB_load_miss_rate 0
Core_0_ITLB_rfo_access 0
Core_0_ITLB_rfo_hit 0
Core_0_ITLB_rfo_miss 0
Core_0_ITLB_rfo_MPKI 0
Core_0_ITLB_rfo_miss_rate 0
Core_0_ITLB_prefetch_access 0
Core_0_ITLB_prefetch_hit 0
Core_0_ITLB_prefetch_miss 0
Core_0_ITLB_prefetch_MPKI 0
Core_0_ITLB_prefetch_miss_rate 0
Core_0_ITLB_writeback_access 0
Core_0_ITLB_writeback_hit 0
Core_0_ITLB_writeback_miss 0
Core_0_ITLB_writeback_MPKI 0
Core_0_ITLB_writeback_miss_rate 0
Core_0_ITLB_prefetch_requested 0
Core_0_ITLB_prefetch_issued 0
Core_0_ITLB_prefetch_useful 0
Core_0_ITLB_prefetch_useless 0
Core_0_ITLB_prefetch_late 0
Core_0_ITLB_prefetch_accuracy 0
Core_0_ITLB_prefetch_coverage 0
Core_0_ITLB_total_eviction 0

Core_0_DTLB_total_access 13170678
Core_0_DTLB_total_hit 9241634
Core_0_DTLB_total_miss 3929044
Core_0_DTLB_total_MPKI 39.2904
Core_0_DTLB_total_miss_rate 0.298318
Core_0_DTLB_demand_access 13170678
Core_0_DTLB_demand_hit 9241634
Core_0_DTLB_demand_miss 3929044
Core_0_DTLB_demand_MPKI 39.2904
Core_0_DTLB_demand_miss_rate 0.298318
Core_0_DTLB_load_access 13170678
Core_0_DTLB_load_hit 9241634
Core_0_DTLB_load_miss 3929044
Core_0_DTLB_load_MPKI 39.2904
Core_0_DTLB_load_miss_rate 0.298318
Core_0_DTLB_rfo_access 0
Core_0_DTLB_rfo_hit 0
Core_0_DTLB_rfo_miss 0
Core_0_DTLB_rfo_MPKI 0
Core_0_DTLB_rfo_miss_rate 0
Core_0_DTLB_prefetch_access 0
Core_0_DTLB_prefetch_hit 0
Core_0_DTLB_prefetch_miss 0
Core_0_DTLB_prefetch_MPKI 0
Core_0_DTLB_prefetch_miss_rate 0
Core_0_DTLB_writeback_access 0
Core_0_DTLB_writeback_hit 0
Core_0_DTLB_writeback_miss 0
Core_0_DTLB_writeback_MPKI 0
Core_0_DTLB_writeback_miss_rate 0
Core_0_DTLB_prefetch_requested 0
Core_0_DTLB_prefetch_issued 0
Core_0_DTLB_prefetch_useful 0
Core_0_DTLB_prefetch_useless 0
Core_0_DTLB_prefetch_late 0
Core_0_DTLB_prefetch_accuracy 0
Core_0_DTLB_prefetch_coverage 0
Core_0_DTLB_total_eviction 3798791

Core_0_STLB_total_access 3798791
Core_0_STLB_total_hit 3798791
Core_0_STLB_total_miss 0
Core_0_STLB_total_MPKI 0
Core_0_STLB_total_miss_rate 0
Core_0_STLB_demand_access 3798791
Core_0_STLB_demand_hit 3798791
Core_0_STLB_demand_miss 0
Core_0_STLB_demand_MPKI 0
Core_0_STLB_demand_miss_rate 0
Core_0_STLB_load_access 3798791
Core_0_STLB_load_hit 3798791
Core_0_STLB_load_miss 0
Core_0_STLB_load_MPKI 0
Core_0_STLB_load_miss_rate 0
Core_0_STLB_rfo_access 0
Core_0_STLB_rfo_hit 0
Core_0_STLB_rfo_miss 0
Core_0_STLB_rfo_MPKI 0
Core_0_STLB_rfo_miss_rate 0
Core_0_STLB_prefetch_access 0
Core_0_STLB_prefetch_hit 0
Core_0_STLB_prefetch_miss 0
Core_0_STLB_prefetch_MPKI 0
Core_0_STLB_prefetch_miss_rate 0
Core_0_STLB_writeback_access 0
Core_0_STLB_writeback_hit 0
Core_0_STLB_writeback_miss 0
Core_0_STLB_writeback_MPKI 0
Core_0_STLB_writeback_miss_rate 0
Core_0_STLB_prefetch_requested 0
Core_0_STLB_prefetch_issued 0
Core_0_STLB_prefetch_useful 0
Core_0_STLB_prefetch_useless 0
Core_0_STLB_prefetch_late 0
Core_0_STLB_prefetch_accuracy 0
Core_0_STLB_prefetch_coverage 0
Core_0_STLB_total_eviction 3650157

Core_0_L1I_total_access 22024
Core_0_L1I_total_hit 22024
Core_0_L1I_total_miss 0
Core_0_L1I_total_MPKI 0
Core_0_L1I_total_miss_rate 0
Core_0_L1I_demand_access 22024
Core_0_L1I_demand_hit 22024
Core_0_L1I_demand_miss 0
Core_0_L1I_demand_MPKI 0
Core_0_L1I_demand_miss_rate 0
Core_0_L1I_load_access 22024
Core_0_L1I_load_hit 22024
Core_0_L1I_load_miss 0
Core_0_L1I_load_MPKI 0
Core_0_L1I_load_miss_rate 0
Core_0_L1I_rfo_access 0
Core_0_L1I_rfo_hit 0
Core_0_L1I_rfo_miss 0
Core_0_L1I_rfo_MPKI 0
Core_0_L1I_rfo_miss_rate 0
Core_0_L1I_prefetch_access 0
Core_0_L1I_prefetch_hit 0
Core_0_L1I_prefetch_miss 0
Core_0_L1I_prefetch_MPKI 0
Core_0_L1I_prefetch_miss_rate 0
Core_0_L1I_writeback_access 0
Core_0_L1I_writeback_hit 0
Core_0_L1I_writeback_miss 0
Core_0_L1I_writeback_MPKI 0
Core_0_L1I_writeback_miss_rate 0
Core_0_L1I_prefetch_requested 0
Core_0_L1I_prefetch_issued 0
Core_0_L1I_prefetch_useful 0
Core_0_L1I_prefetch_useless 0
Core_0_L1I_prefetch_late 0
Core_0_L1I_prefetch_accuracy 0
Core_0_L1I_prefetch_coverage 0
Core_0_L1I_total_eviction 0

Core_0_L1D_total_access 13842614
Core_0_L1D_total_hit 6938010
Core_0_L1D_total_miss 6904604
Core_0_L1D_total_MPKI 69.046
Core_0_L1D_total_miss_rate 0.498793
Core_0_L1D_demand_access 9635713
Core_0_L1D_demand_hit 3701577
Core_0_L1D_demand_miss 5934136
Core_0_L1D_demand_MPKI 59.3414
Core_0_L1D_demand_miss_rate 0.615848
Core_0_L1D_load_access 9635713
Core_0_L1D_load_hit 3701577
Core_0_L1D_load_miss 5934136
Core_0_L1D_load_MPKI 59.3414
Core_0_L1D_load_miss_rate 0.615848
Core_0_L1D_rfo_access 0
Core_0_L1D_rfo_hit 0
Core_0_L1D_rfo_miss 0
Core_0_L1D_rfo_MPKI 0
Core_0_L1D_rfo_miss_rate 0
Core_0_L1D_prefetch_access 2304492
Core_0_L1D_prefetch_hit 1381955
Core_0_L1D_prefetch_miss 922537
Core_0_L1D_prefetch_MPKI 9.22537
Core_0_L1D_prefetch_miss_rate 0.400321
Core_0_L1D_writeback_access 1902409
Core_0_L1D_writeback_hit 1854478
Core_0_L1D_writeback_miss 47931
Core_0_L1D_writeback_MPKI 0.47931
Core_0_L1D_writeback_miss_rate 0.0251949
Core_0_L1D_prefetch_requested 2629645
Core_0_L1D_prefetch_issued 2304484
Core_0_L1D_prefetch_useful 44154
Core_0_L1D_prefetch_useless 39908
Core_0_L1D_prefetch_late 0
Core_0_L1D_prefetch_accuracy 0.01916
Core_0_L1D_prefetch_coverage 0.00738572
Core_0_L1D_total_eviction 5927717

Core_0_L2C_total_access 7059509
Core_0_L2C_total_hit 1489382
Core_0_L2C_total_miss 5570127
Core_0_L2C_total_MPKI 55.7013
Core_0_L2C_total_miss_rate 0.789025
Core_0_L2C_demand_access 5843533
Core_0_L2C_demand_hit 497269
Core_0_L2C_demand_miss 5346264
Core_0_L2C_demand_MPKI 53.4626
Core_0_L2C_demand_miss_rate 0.914903
Core_0_L2C_load_access 5828207
Core_0_L2C_load_hit 482227
Core_0_L2C_load_miss 5345980
Core_0_L2C_load_MPKI 53.4598
Core_0_L2C_load_miss_rate 0.91726
Core_0_L2C_rfo_access 15326
Core_0_L2C_rfo_hit 15042
Core_0_L2C_rfo_miss 284
Core_0_L2C_rfo_MPKI 0.00284
Core_0_L2C_rfo_miss_rate 0.0185306
Core_0_L2C_prefetch_access 1198609
Core_0_L2C_prefetch_hit 974774
Core_0_L2C_prefetch_miss 223835
Core_0_L2C_prefetch_MPKI 2.23835
Core_0_L2C_prefetch_miss_rate 0.186746
Core_0_L2C_writeback_access 17367
Core_0_L2C_writeback_hit 17339
Core_0_L2C_writeback_miss 28
Core_0_L2C_writeback_MPKI 0.00028
Core_0_L2C_writeback_miss_rate 0.00161225
Core_0_L2C_prefetch_requested 276073
Core_0_L2C_prefetch_issued 276073
Core_0_L2C_prefetch_useful 9112
Core_0_L2C_prefetch_useless 161494
Core_0_L2C_prefetch_late 110
Core_0_L2C_prefetch_accuracy 0.0330058
Core_0_L2C_prefetch_coverage 0.00170147
Core_0_L2C_total_eviction 5564349

Core_0_LLC_total_access 5565210
Core_0_LLC_total_hit 1383638
Core_0_LLC_total_miss 4181572
Core_0_LLC_total_MPKI 41.8157
Core_0_LLC_total_miss_rate 0.751377
Core_0_LLC_demand_access 5346154
Core_0_LLC_demand_hit 1330968
Core_0_LLC_demand_miss 4015186
Core_0_LLC_demand_MPKI 40.1519
Core_0_LLC_demand_miss_rate 0.751042
Core_0_LLC_load_access 5345870
Core_0_LLC_load_hit 1330685
Core_0_LLC_load_miss 4015185
Core_0_LLC_load_MPKI 40.1518
Core_0_LLC_load_miss_rate 0.751082
Core_0_LLC_rfo_access 284
Core_0_LLC_rfo_hit 283
Core_0_LLC_rfo_miss 1
Core_0_LLC_rfo_MPKI 1e-05
Core_0_LLC_rfo_miss_rate 0.00352113
Core_0_LLC_prefetch_access 218169
Core_0_LLC_prefetch_hit 51797
Core_0_LLC_prefetch_miss 166372
Core_0_LLC_prefetch_MPKI 1.66372
Core_0_LLC_prefetch_miss_rate 0.762583
Core_0_LLC_writeback_access 887
Core_0_LLC_writeback_hit 873
Core_0_LLC_writeback_miss 14
Core_0_LLC_writeback_MPKI 0.00014
Core_0_LLC_writeback_miss_rate 0.0157835
Core_0_LLC_prefetch_requested 0
Core_0_LLC_prefetch_issued 0
Core_0_LLC_prefetch_useful 0
Core_0_LLC_prefetch_useless 0
Core_0_LLC_prefetch_late 0
Core_0_LLC_prefetch_accuracy 0
Core_0_LLC_prefetch_coverage 0
Core_0_LLC_total_eviction 4181572

[DRAM Statistics]
Channel_0_RQ_row_buffer_hit 57417
Channel_0_RQ_row_buffer_miss 4124141
Channel_0_WQ_row_buffer_hit 2
Channel_0_WQ_row_buffer_miss 12
Channel_0_WQ_full 0
Channel_0_dbus_congested 5243073
DRAM_total_RQ_row_buffer_hit 57417
DRAM_total_RQ_row_buffer_miss 4124141
DRAM_total_WQ_row_buffer_hit 2
DRAM_total_WQ_row_buffer_miss 12
DRAM_total_WQ_full 0
DRAM_total_dbus_congested 5243073
DRAM_avg_congested_cycle 2.95785

======STLB miss causes ========
Core_0_STLB_miss_cause_breakdown
Core_0_STLB_cause_Demand_Data_miss 0
Core_0_STLB_cause_Demand_Data_miss_rate 0
Core_0_STLB_cause_Demand_Instruction_miss 0
Core_0_STLB_cause_Demand_Instruction_miss_rate 0
Core_0_STLB_cause_L1D_Prefetch_miss 0
Core_0_STLB_cause_L1D_Prefetch_miss_rate 0
Core_0_STLB_cause_L1I_Prefetch_miss 0
Core_0_STLB_cause_L1I_Prefetch_miss_rate 0
Core_0_STLB_cause_Other_miss 0
Core_0_STLB_cause_Other_miss_rate 0
Core_0_STLB_Demand_miss 0
Core_0_STLB_Demand_miss_rate 0
Core_0_STLB_L1D_Prefetch_miss 0
Core_0_STLB_L1D_Prefetch_miss_rate 0
Core_0_STLB_Other_miss 0
Core_0_STLB_Other_miss_rate 0
BERTI TO_L1: 2763275 TO_L2: 2061551 TO_L2_BC_MSHR: 0
BERTI AVG_LAT: 109.158 NUM_TRACK_LATENCY: 8877530 NUM_CANT_TRACK_LATENCY: 0
BERTI CROSS_PAGE 506167 NO_CROSS_PAGE: 4318659
BERTI FOUND_BERTI: 12486454 NO_FOUND_BERTI: 4765300
BERTI AVERAGE_ISSUED: 3.59875
