[VMEM] WARNING: physical memory size is smaller than virtual memory size.

*** ChampSim Multicore Out-of-Order Simulator ***
Warmup Instructions: 50000000
Simulation Instructions: 100000000
Number of CPUs: 1
Page size: 4096
STLB ideal mode: all
STLB ideal fill: on
Core 0: /data2/zcq/champsim_traces_xsbench/xs.XXL100nuclide-648B.champsimtrace.xz
VBerti Prefetcher
BERTI HASH ENTANGLING
BERTI IP MASK ffff
Off-chip DRAM Size: 16 GiB Channels: 1 Width: 64-bit Data Rate: 3205 MT/s
Warmup halting CPU 0 at instruction 50000005 cycle 10564102 for remainder of phase
Warmup finished CPU 0 instructions: 50000005 cycles: 10564102 cumulative IPC: 4.733 (Simulation time: 00 hr 02 min 02 sec)
Warmup complete CPU 0 instructions: 50000005 cycles: 10564102 cumulative IPC: 4.733 (Simulation time: 00 hr 02 min 02 sec)
Simulation finished CPU 0 instructions: 100000001 cycles: 512054604 cumulative IPC: 0.1953 (Simulation time: 00 hr 30 min 56 sec)
Simulation complete CPU 0 instructions: 100000001 cycles: 512054604 cumulative IPC: 0.1953 (Simulation time: 00 hr 30 min 56 sec)

ChampSim completed all CPUs

=== Simulation ===
CPU 0 runs /data2/zcq/champsim_traces_xsbench/xs.XXL100nuclide-648B.champsimtrace.xz

Region of Interest Statistics

CPU 0 cumulative IPC: 0.1953 instructions: 100000001 cycles: 512054604
CPU 0 Branch Prediction Accuracy: 87.26% MPKI: 21.49 Average ROB Occupancy at Mispredict: 26.44
Branch type MPKI
BRANCH_DIRECT_JUMP: 0
BRANCH_INDIRECT: 0
BRANCH_CONDITIONAL: 21.49
BRANCH_DIRECT_CALL: 0
BRANCH_INDIRECT_CALL: 0
BRANCH_RETURN: 0

cpu0->cpu0_STLB TOTAL        ACCESS:    3984202 HIT:    3984202 MISS:          0 MSHR_MERGE:          0
cpu0->cpu0_STLB LOAD         ACCESS:    3984202 HIT:    3984202 MISS:          0 MSHR_MERGE:          0
cpu0->cpu0_STLB RFO          ACCESS:          0 HIT:          0 MISS:          0 MSHR_MERGE:          0
cpu0->cpu0_STLB PREFETCH     ACCESS:          0 HIT:          0 MISS:          0 MSHR_MERGE:          0
cpu0->cpu0_STLB WRITE        ACCESS:          0 HIT:          0 MISS:          0 MSHR_MERGE:          0
cpu0->cpu0_STLB TRANSLATION  ACCESS:          0 HIT:          0 MISS:          0 MSHR_MERGE:          0
cpu0->cpu0_STLB PREFETCH REQUESTED:          0 ISSUED:          0 USEFUL:          0 USELESS:          0 LATE:          0
cpu0->cpu0_STLB AVERAGE MISS LATENCY: - cycles
cpu0->cpu0_L2C TOTAL        ACCESS:    7051159 HIT:    1321859 MISS:    5729300 MSHR_MERGE:       6680
cpu0->cpu0_L2C LOAD         ACCESS:    5937543 HIT:     406030 MISS:    5531513 MSHR_MERGE:          0
cpu0->cpu0_L2C RFO          ACCESS:      13798 HIT:      13602 MISS:        196 MSHR_MERGE:          0
cpu0->cpu0_L2C PREFETCH     ACCESS:    1083367 HIT:     885874 MISS:     197493 MSHR_MERGE:       6680
cpu0->cpu0_L2C WRITE        ACCESS:      16451 HIT:      16353 MISS:         98 MSHR_MERGE:          0
cpu0->cpu0_L2C TRANSLATION  ACCESS:          0 HIT:          0 MISS:          0 MSHR_MERGE:          0
cpu0->cpu0_L2C PREFETCH REQUESTED:     253476 ISSUED:     253476 USEFUL:       5357 USELESS:     134213 LATE:          0
cpu0->cpu0_L2C AVERAGE MISS LATENCY: 172.5 cycles
cpu0->cpu0_L1I TOTAL        ACCESS:      21471 HIT:      21471 MISS:          0 MSHR_MERGE:          0
cpu0->cpu0_L1I LOAD         ACCESS:      21471 HIT:      21471 MISS:          0 MSHR_MERGE:          0
cpu0->cpu0_L1I RFO          ACCESS:          0 HIT:          0 MISS:          0 MSHR_MERGE:          0
cpu0->cpu0_L1I PREFETCH     ACCESS:          0 HIT:          0 MISS:          0 MSHR_MERGE:          0
cpu0->cpu0_L1I WRITE        ACCESS:          0 HIT:          0 MISS:          0 MSHR_MERGE:          0
cpu0->cpu0_L1I TRANSLATION  ACCESS:          0 HIT:          0 MISS:          0 MSHR_MERGE:          0
cpu0->cpu0_L1I PREFETCH REQUESTED:          0 ISSUED:          0 USEFUL:          0 USELESS:          0 LATE:          0
cpu0->cpu0_L1I AVERAGE MISS LATENCY: - cycles
cpu0->cpu0_L1D TOTAL        ACCESS:   13560503 HIT:    6661294 MISS:    6899209 MSHR_MERGE:     117975
cpu0->cpu0_L1D LOAD         ACCESS:    9563000 HIT:    3528583 MISS:    6034417 MSHR_MERGE:      96874
cpu0->cpu0_L1D RFO          ACCESS:          0 HIT:          0 MISS:          0 MSHR_MERGE:          0
cpu0->cpu0_L1D PREFETCH     ACCESS:    2186699 HIT:    1356808 MISS:     829891 MSHR_MERGE:          0
cpu0->cpu0_L1D WRITE        ACCESS:    1810804 HIT:    1775903 MISS:      34901 MSHR_MERGE:      21101
cpu0->cpu0_L1D TRANSLATION  ACCESS:          0 HIT:          0 MISS:          0 MSHR_MERGE:          0
cpu0->cpu0_L1D PREFETCH REQUESTED:    2460571 ISSUED:    2186691 USEFUL:      42571 USELESS:      40209 LATE:          0
cpu0->cpu0_L1D AVERAGE MISS LATENCY: 169.3 cycles
cpu0->cpu0_ITLB TOTAL        ACCESS:      17395 HIT:      17395 MISS:          0 MSHR_MERGE:          0
cpu0->cpu0_ITLB LOAD         ACCESS:      17395 HIT:      17395 MISS:          0 MSHR_MERGE:          0
cpu0->cpu0_ITLB RFO          ACCESS:          0 HIT:          0 MISS:          0 MSHR_MERGE:          0
cpu0->cpu0_ITLB PREFETCH     ACCESS:          0 HIT:          0 MISS:          0 MSHR_MERGE:          0
cpu0->cpu0_ITLB WRITE        ACCESS:          0 HIT:          0 MISS:          0 MSHR_MERGE:          0
cpu0->cpu0_ITLB TRANSLATION  ACCESS:          0 HIT:          0 MISS:          0 MSHR_MERGE:          0
cpu0->cpu0_ITLB PREFETCH REQUESTED:          0 ISSUED:          0 USEFUL:          0 USELESS:          0 LATE:          0
cpu0->cpu0_ITLB AVERAGE MISS LATENCY: - cycles
cpu0->cpu0_DTLB TOTAL        ACCESS:   12926554 HIT:    8822756 MISS:    4103798 MSHR_MERGE:     119596
cpu0->cpu0_DTLB LOAD         ACCESS:   12926554 HIT:    8822756 MISS:    4103798 MSHR_MERGE:     119596
cpu0->cpu0_DTLB RFO          ACCESS:          0 HIT:          0 MISS:          0 MSHR_MERGE:          0
cpu0->cpu0_DTLB PREFETCH     ACCESS:          0 HIT:          0 MISS:          0 MSHR_MERGE:          0
cpu0->cpu0_DTLB WRITE        ACCESS:          0 HIT:          0 MISS:          0 MSHR_MERGE:          0
cpu0->cpu0_DTLB TRANSLATION  ACCESS:          0 HIT:          0 MISS:          0 MSHR_MERGE:          0
cpu0->cpu0_DTLB PREFETCH REQUESTED:          0 ISSUED:          0 USEFUL:          0 USELESS:          0 LATE:          0
cpu0->cpu0_DTLB AVERAGE MISS LATENCY: 5.004 cycles
cpu0->LLC TOTAL        ACCESS:    5723746 HIT:    1356479 MISS:    4367267 MSHR_MERGE:          0
cpu0->LLC LOAD         ACCESS:    5531513 HIT:    1299039 MISS:    4232474 MSHR_MERGE:          0
cpu0->LLC RFO          ACCESS:        196 HIT:        196 MISS:          0 MSHR_MERGE:          0
cpu0->LLC PREFETCH     ACCESS:     190813 HIT:      56049 MISS:     134764 MSHR_MERGE:          0
cpu0->LLC WRITE        ACCESS:       1224 HIT:       1195 MISS:         29 MSHR_MERGE:          0
cpu0->LLC TRANSLATION  ACCESS:          0 HIT:          0 MISS:          0 MSHR_MERGE:          0
cpu0->LLC PREFETCH REQUESTED:          0 ISSUED:          0 USEFUL:          0 USELESS:          0 LATE:          0
cpu0->LLC AVERAGE MISS LATENCY: 204.8 cycles

DRAM Statistics

Channel 0 RQ ROW_BUFFER_HIT:      29226
  ROW_BUFFER_MISS:    4338012
  AVG DBUS CONGESTED CYCLE: 2.969
Channel 0 WQ ROW_BUFFER_HIT:          3
  ROW_BUFFER_MISS:         25
  FULL:          0
Channel 0 REFRESHES ISSUED:      42671

[ROI Statistics]
[System Configuration]
num_cpus 1
cpu_freq 4000
fetch_width 6
decode_width 6
dispatch_width 6
execute_width 6
lq_width 2
sq_width 2
retire_width 6
scheduler_size 128
branch_mispredict_penalty 15
rob_size 352
lq_size 128
sq_size 72
ifetch_buffer_size 64
decode_buffer_size 32
dispatch_buffer_size 32
register_file_size 288
decode_latency 1
dispatch_latency 1
schedule_latency 1
execute_latency 1
page_size 4096
block_size 64
core_0_itlb_set 16
core_0_itlb_way 4
core_0_itlb_rq_size 16
core_0_itlb_wq_size 16
core_0_itlb_pq_size 0
core_0_itlb_mshr_size 8
core_0_itlb_hit_latency 1
core_0_itlb_fill_latency 1
core_0_itlb_max_tag_check 2
core_0_itlb_max_fill 2
core_0_dtlb_set 16
core_0_dtlb_way 4
core_0_dtlb_rq_size 16
core_0_dtlb_wq_size 16
core_0_dtlb_pq_size 0
core_0_dtlb_mshr_size 8
core_0_dtlb_hit_latency 1
core_0_dtlb_fill_latency 1
core_0_dtlb_max_tag_check 2
core_0_dtlb_max_fill 2
core_0_stlb_set 128
core_0_stlb_way 12
core_0_stlb_rq_size 32
core_0_stlb_wq_size 32
core_0_stlb_pq_size 0
core_0_stlb_mshr_size 16
core_0_stlb_hit_latency 4
core_0_stlb_fill_latency 4
core_0_stlb_max_tag_check 1
core_0_stlb_max_fill 1
core_0_l1i_set 64
core_0_l1i_way 8
core_0_l1i_rq_size 64
core_0_l1i_wq_size 64
core_0_l1i_pq_size 32
core_0_l1i_mshr_size 8
core_0_l1i_hit_latency 2
core_0_l1i_fill_latency 2
core_0_l1i_max_tag_check 2
core_0_l1i_max_fill 2
core_0_l1d_set 64
core_0_l1d_way 12
core_0_l1d_rq_size 64
core_0_l1d_wq_size 64
core_0_l1d_pq_size 8
core_0_l1d_mshr_size 16
core_0_l1d_hit_latency 2
core_0_l1d_fill_latency 3
core_0_l1d_max_tag_check 2
core_0_l1d_max_fill 2
core_0_l2c_set 1024
core_0_l2c_way 8
core_0_l2c_rq_size 32
core_0_l2c_wq_size 32
core_0_l2c_pq_size 16
core_0_l2c_mshr_size 32
core_0_l2c_hit_latency 5
core_0_l2c_fill_latency 5
core_0_l2c_max_tag_check 1
core_0_l2c_max_fill 1
llc_set 2048
llc_way 16
llc_rq_size 32
llc_wq_size 32
llc_pq_size 32
llc_mshr_size 64
llc_hit_latency 10
llc_fill_latency 10
llc_max_tag_check 1
llc_max_fill 1
dram_channels 1
dram_ranks 1
dram_bankgroups 8
dram_banks 4
dram_rows 65536
dram_columns 1024
dram_channel_width 8
dram_rq_size 64
dram_wq_size 64
dram_size 17179869184
core_0_itlb_prefetcher no
core_0_dtlb_prefetcher no
core_0_stlb_prefetcher no
core_0_l1i_prefetcher next_line
core_0_l1d_prefetcher vberti
core_0_l2c_prefetcher ip_stride
llc_prefetcher no
llc_replacement drrip

Core_0_instructions 100000001
Core_0_cycles 512054604
Core_0_IPC 0.195292
Core_0_branch_prediction_accuracy 87.2613
Core_0_branch_MPKI 21.4873
Core_0_average_ROB_occupancy_at_mispredict 26.4402

Core_0_ITLB_total_access 17395
Core_0_ITLB_total_hit 17395
Core_0_ITLB_total_miss 0
Core_0_ITLB_total_MPKI 0
Core_0_ITLB_total_miss_rate 0
Core_0_ITLB_demand_access 17395
Core_0_ITLB_demand_hit 17395
Core_0_ITLB_demand_miss 0
Core_0_ITLB_demand_MPKI 0
Core_0_ITLB_demand_miss_rate 0
Core_0_ITLB_load_access 17395
Core_0_ITLB_load_hit 17395
Core_0_ITLB_load_miss 0
Core_0_ITLB_load_MPKI 0
Core_0_ITLB_load_miss_rate 0
Core_0_ITLB_rfo_access 0
Core_0_ITLB_rfo_hit 0
Core_0_ITLB_rfo_miss 0
Core_0_ITLB_rfo_MPKI 0
Core_0_ITLB_rfo_miss_rate 0
Core_0_ITLB_prefetch_access 0
Core_0_ITLB_prefetch_hit 0
Core_0_ITLB_prefetch_miss 0
Core_0_ITLB_prefetch_MPKI 0
Core_0_ITLB_prefetch_miss_rate 0
Core_0_ITLB_writeback_access 0
Core_0_ITLB_writeback_hit 0
Core_0_ITLB_writeback_miss 0
Core_0_ITLB_writeback_MPKI 0
Core_0_ITLB_writeback_miss_rate 0
Core_0_ITLB_prefetch_requested 0
Core_0_ITLB_prefetch_issued 0
Core_0_ITLB_prefetch_useful 0
Core_0_ITLB_prefetch_useless 0
Core_0_ITLB_prefetch_late 0
Core_0_ITLB_prefetch_accuracy 0
Core_0_ITLB_prefetch_coverage 0
Core_0_ITLB_total_eviction 0

Core_0_DTLB_total_access 12926554
Core_0_DTLB_total_hit 8822756
Core_0_DTLB_total_miss 4103798
Core_0_DTLB_total_MPKI 41.038
Core_0_DTLB_total_miss_rate 0.31747
Core_0_DTLB_demand_access 12926554
Core_0_DTLB_demand_hit 8822756
Core_0_DTLB_demand_miss 4103798
Core_0_DTLB_demand_MPKI 41.038
Core_0_DTLB_demand_miss_rate 0.31747
Core_0_DTLB_load_access 12926554
Core_0_DTLB_load_hit 8822756
Core_0_DTLB_load_miss 4103798
Core_0_DTLB_load_MPKI 41.038
Core_0_DTLB_load_miss_rate 0.31747
Core_0_DTLB_rfo_access 0
Core_0_DTLB_rfo_hit 0
Core_0_DTLB_rfo_miss 0
Core_0_DTLB_rfo_MPKI 0
Core_0_DTLB_rfo_miss_rate 0
Core_0_DTLB_prefetch_access 0
Core_0_DTLB_prefetch_hit 0
Core_0_DTLB_prefetch_miss 0
Core_0_DTLB_prefetch_MPKI 0
Core_0_DTLB_prefetch_miss_rate 0
Core_0_DTLB_writeback_access 0
Core_0_DTLB_writeback_hit 0
Core_0_DTLB_writeback_miss 0
Core_0_DTLB_writeback_MPKI 0
Core_0_DTLB_writeback_miss_rate 0
Core_0_DTLB_prefetch_requested 0
Core_0_DTLB_prefetch_issued 0
Core_0_DTLB_prefetch_useful 0
Core_0_DTLB_prefetch_useless 0
Core_0_DTLB_prefetch_late 0
Core_0_DTLB_prefetch_accuracy 0
Core_0_DTLB_prefetch_coverage 0
Core_0_DTLB_total_eviction 3984202

Core_0_STLB_total_access 3984202
Core_0_STLB_total_hit 3984202
Core_0_STLB_total_miss 0
Core_0_STLB_total_MPKI 0
Core_0_STLB_total_miss_rate 0
Core_0_STLB_demand_access 3984202
Core_0_STLB_demand_hit 3984202
Core_0_STLB_demand_miss 0
Core_0_STLB_demand_MPKI 0
Core_0_STLB_demand_miss_rate 0
Core_0_STLB_load_access 3984202
Core_0_STLB_load_hit 3984202
Core_0_STLB_load_miss 0
Core_0_STLB_load_MPKI 0
Core_0_STLB_load_miss_rate 0
Core_0_STLB_rfo_access 0
Core_0_STLB_rfo_hit 0
Core_0_STLB_rfo_miss 0
Core_0_STLB_rfo_MPKI 0
Core_0_STLB_rfo_miss_rate 0
Core_0_STLB_prefetch_access 0
Core_0_STLB_prefetch_hit 0
Core_0_STLB_prefetch_miss 0
Core_0_STLB_prefetch_MPKI 0
Core_0_STLB_prefetch_miss_rate 0
Core_0_STLB_writeback_access 0
Core_0_STLB_writeback_hit 0
Core_0_STLB_writeback_miss 0
Core_0_STLB_writeback_MPKI 0
Core_0_STLB_writeback_miss_rate 0
Core_0_STLB_prefetch_requested 0
Core_0_STLB_prefetch_issued 0
Core_0_STLB_prefetch_useful 0
Core_0_STLB_prefetch_useless 0
Core_0_STLB_prefetch_late 0
Core_0_STLB_prefetch_accuracy 0
Core_0_STLB_prefetch_coverage 0
Core_0_STLB_total_eviction 3859450

Core_0_L1I_total_access 21471
Core_0_L1I_total_hit 21471
Core_0_L1I_total_miss 0
Core_0_L1I_total_MPKI 0
Core_0_L1I_total_miss_rate 0
Core_0_L1I_demand_access 21471
Core_0_L1I_demand_hit 21471
Core_0_L1I_demand_miss 0
Core_0_L1I_demand_MPKI 0
Core_0_L1I_demand_miss_rate 0
Core_0_L1I_load_access 21471
Core_0_L1I_load_hit 21471
Core_0_L1I_load_miss 0
Core_0_L1I_load_MPKI 0
Core_0_L1I_load_miss_rate 0
Core_0_L1I_rfo_access 0
Core_0_L1I_rfo_hit 0
Core_0_L1I_rfo_miss 0
Core_0_L1I_rfo_MPKI 0
Core_0_L1I_rfo_miss_rate 0
Core_0_L1I_prefetch_access 0
Core_0_L1I_prefetch_hit 0
Core_0_L1I_prefetch_miss 0
Core_0_L1I_prefetch_MPKI 0
Core_0_L1I_prefetch_miss_rate 0
Core_0_L1I_writeback_access 0
Core_0_L1I_writeback_hit 0
Core_0_L1I_writeback_miss 0
Core_0_L1I_writeback_MPKI 0
Core_0_L1I_writeback_miss_rate 0
Core_0_L1I_prefetch_requested 0
Core_0_L1I_prefetch_issued 0
Core_0_L1I_prefetch_useful 0
Core_0_L1I_prefetch_useless 0
Core_0_L1I_prefetch_late 0
Core_0_L1I_prefetch_accuracy 0
Core_0_L1I_prefetch_coverage 0
Core_0_L1I_total_eviction 0

Core_0_L1D_total_access 13560503
Core_0_L1D_total_hit 6661294
Core_0_L1D_total_miss 6899209
Core_0_L1D_total_MPKI 68.9921
Core_0_L1D_total_miss_rate 0.508772
Core_0_L1D_demand_access 9563000
Core_0_L1D_demand_hit 3528583
Core_0_L1D_demand_miss 6034417
Core_0_L1D_demand_MPKI 60.3442
Core_0_L1D_demand_miss_rate 0.631017
Core_0_L1D_load_access 9563000
Core_0_L1D_load_hit 3528583
Core_0_L1D_load_miss 6034417
Core_0_L1D_load_MPKI 60.3442
Core_0_L1D_load_miss_rate 0.631017
Core_0_L1D_rfo_access 0
Core_0_L1D_rfo_hit 0
Core_0_L1D_rfo_miss 0
Core_0_L1D_rfo_MPKI 0
Core_0_L1D_rfo_miss_rate 0
Core_0_L1D_prefetch_access 2186699
Core_0_L1D_prefetch_hit 1356808
Core_0_L1D_prefetch_miss 829891
Core_0_L1D_prefetch_MPKI 8.29891
Core_0_L1D_prefetch_miss_rate 0.379518
Core_0_L1D_writeback_access 1810804
Core_0_L1D_writeback_hit 1775903
Core_0_L1D_writeback_miss 34901
Core_0_L1D_writeback_MPKI 0.34901
Core_0_L1D_writeback_miss_rate 0.0192738
Core_0_L1D_prefetch_requested 2460571
Core_0_L1D_prefetch_issued 2186691
Core_0_L1D_prefetch_useful 42571
Core_0_L1D_prefetch_useless 40209
Core_0_L1D_prefetch_late 0
Core_0_L1D_prefetch_accuracy 0.0194682
Core_0_L1D_prefetch_coverage 0.00700528
Core_0_L1D_total_eviction 6034130

Core_0_L2C_total_access 7051159
Core_0_L2C_total_hit 1321859
Core_0_L2C_total_miss 5729300
Core_0_L2C_total_MPKI 57.293
Core_0_L2C_total_miss_rate 0.812533
Core_0_L2C_demand_access 5951341
Core_0_L2C_demand_hit 419632
Core_0_L2C_demand_miss 5531709
Core_0_L2C_demand_MPKI 55.3171
Core_0_L2C_demand_miss_rate 0.92949
Core_0_L2C_load_access 5937543
Core_0_L2C_load_hit 406030
Core_0_L2C_load_miss 5531513
Core_0_L2C_load_MPKI 55.3151
Core_0_L2C_load_miss_rate 0.931616
Core_0_L2C_rfo_access 13798
Core_0_L2C_rfo_hit 13602
Core_0_L2C_rfo_miss 196
Core_0_L2C_rfo_MPKI 0.00196
Core_0_L2C_rfo_miss_rate 0.014205
Core_0_L2C_prefetch_access 1083367
Core_0_L2C_prefetch_hit 885874
Core_0_L2C_prefetch_miss 197493
Core_0_L2C_prefetch_MPKI 1.97493
Core_0_L2C_prefetch_miss_rate 0.182296
Core_0_L2C_writeback_access 16451
Core_0_L2C_writeback_hit 16353
Core_0_L2C_writeback_miss 98
Core_0_L2C_writeback_MPKI 0.00098
Core_0_L2C_writeback_miss_rate 0.00595708
Core_0_L2C_prefetch_requested 253476
Core_0_L2C_prefetch_issued 253476
Core_0_L2C_prefetch_useful 5357
Core_0_L2C_prefetch_useless 134213
Core_0_L2C_prefetch_late 0
Core_0_L2C_prefetch_accuracy 0.0211342
Core_0_L2C_prefetch_coverage 0.00096748
Core_0_L2C_total_eviction 5722620

Core_0_LLC_total_access 5723746
Core_0_LLC_total_hit 1356479
Core_0_LLC_total_miss 4367267
Core_0_LLC_total_MPKI 43.6727
Core_0_LLC_total_miss_rate 0.763009
Core_0_LLC_demand_access 5531709
Core_0_LLC_demand_hit 1299235
Core_0_LLC_demand_miss 4232474
Core_0_LLC_demand_MPKI 42.3247
Core_0_LLC_demand_miss_rate 0.76513
Core_0_LLC_load_access 5531513
Core_0_LLC_load_hit 1299039
Core_0_LLC_load_miss 4232474
Core_0_LLC_load_MPKI 42.3247
Core_0_LLC_load_miss_rate 0.765157
Core_0_LLC_rfo_access 196
Core_0_LLC_rfo_hit 196
Core_0_LLC_rfo_miss 0
Core_0_LLC_rfo_MPKI 0
Core_0_LLC_rfo_miss_rate 0
Core_0_LLC_prefetch_access 190813
Core_0_LLC_prefetch_hit 56049
Core_0_LLC_prefetch_miss 134764
Core_0_LLC_prefetch_MPKI 1.34764
Core_0_LLC_prefetch_miss_rate 0.706262
Core_0_LLC_writeback_access 1224
Core_0_LLC_writeback_hit 1195
Core_0_LLC_writeback_miss 29
Core_0_LLC_writeback_MPKI 0.00029
Core_0_LLC_writeback_miss_rate 0.0236928
Core_0_LLC_prefetch_requested 0
Core_0_LLC_prefetch_issued 0
Core_0_LLC_prefetch_useful 0
Core_0_LLC_prefetch_useless 0
Core_0_LLC_prefetch_late 0
Core_0_LLC_prefetch_accuracy 0
Core_0_LLC_prefetch_coverage 0
Core_0_LLC_total_eviction 4367267

[DRAM Statistics]
Channel_0_RQ_row_buffer_hit 29226
Channel_0_RQ_row_buffer_miss 4338012
Channel_0_WQ_row_buffer_hit 3
Channel_0_WQ_row_buffer_miss 25
Channel_0_WQ_full 0
Channel_0_dbus_congested 5662882
DRAM_total_RQ_row_buffer_hit 29226
DRAM_total_RQ_row_buffer_miss 4338012
DRAM_total_WQ_row_buffer_hit 3
DRAM_total_WQ_row_buffer_miss 25
DRAM_total_WQ_full 0
DRAM_total_dbus_congested 5662882
DRAM_avg_congested_cycle 2.96894

======STLB miss causes ========
Core_0_STLB_miss_cause_breakdown
Core_0_STLB_cause_Demand_Data_miss 0
Core_0_STLB_cause_Demand_Data_miss_rate 0
Core_0_STLB_cause_Demand_Instruction_miss 0
Core_0_STLB_cause_Demand_Instruction_miss_rate 0
Core_0_STLB_cause_L1D_Prefetch_miss 0
Core_0_STLB_cause_L1D_Prefetch_miss_rate 0
Core_0_STLB_cause_L1I_Prefetch_miss 0
Core_0_STLB_cause_L1I_Prefetch_miss_rate 0
Core_0_STLB_cause_Other_miss 0
Core_0_STLB_cause_Other_miss_rate 0
Core_0_STLB_Demand_miss 0
Core_0_STLB_Demand_miss_rate 0
Core_0_STLB_L1D_Prefetch_miss 0
Core_0_STLB_L1D_Prefetch_miss_rate 0
Core_0_STLB_Other_miss 0
Core_0_STLB_Other_miss_rate 0
BERTI TO_L1: 2665748 TO_L2: 1888331 TO_L2_BC_MSHR: 0
BERTI AVG_LAT: 114.366 NUM_TRACK_LATENCY: 9030642 NUM_CANT_TRACK_LATENCY: 0
BERTI CROSS_PAGE 468824 NO_CROSS_PAGE: 4085255
BERTI FOUND_BERTI: 12246765 NO_FOUND_BERTI: 4768538
BERTI AVERAGE_ISSUED: 3.57188
