[VMEM] WARNING: physical memory size is smaller than virtual memory size.

*** ChampSim Multicore Out-of-Order Simulator ***
Warmup Instructions: 50000000
Simulation Instructions: 100000000
Number of CPUs: 1
Page size: 4096
STLB ideal mode: all
STLB ideal fill: on
Core 0: /data2/zcq/champsim_traces_xsbench/xs.XL100nuclide-296B.champsimtrace.xz
VBerti Prefetcher
BERTI HASH ENTANGLING
BERTI IP MASK ffff
Off-chip DRAM Size: 16 GiB Channels: 1 Width: 64-bit Data Rate: 3205 MT/s
Warmup halting CPU 0 at instruction 50000000 cycle 10505218 for remainder of phase
Warmup finished CPU 0 instructions: 50000000 cycles: 10505218 cumulative IPC: 4.76 (Simulation time: 00 hr 01 min 58 sec)
Warmup complete CPU 0 instructions: 50000000 cycles: 10505218 cumulative IPC: 4.76 (Simulation time: 00 hr 01 min 58 sec)
Simulation finished CPU 0 instructions: 100000001 cycles: 500318211 cumulative IPC: 0.1999 (Simulation time: 00 hr 30 min 09 sec)
Simulation complete CPU 0 instructions: 100000001 cycles: 500318211 cumulative IPC: 0.1999 (Simulation time: 00 hr 30 min 09 sec)

ChampSim completed all CPUs

=== Simulation ===
CPU 0 runs /data2/zcq/champsim_traces_xsbench/xs.XL100nuclide-296B.champsimtrace.xz

Region of Interest Statistics

CPU 0 cumulative IPC: 0.1999 instructions: 100000001 cycles: 500318211
CPU 0 Branch Prediction Accuracy: 87.19% MPKI: 21.42 Average ROB Occupancy at Mispredict: 26.62
Branch type MPKI
BRANCH_DIRECT_JUMP: 0
BRANCH_INDIRECT: 0
BRANCH_CONDITIONAL: 21.42
BRANCH_DIRECT_CALL: 0
BRANCH_INDIRECT_CALL: 0
BRANCH_RETURN: 0

cpu0->cpu0_STLB TOTAL        ACCESS:    3804126 HIT:    3804126 MISS:          0 MSHR_MERGE:          0
cpu0->cpu0_STLB LOAD         ACCESS:    3804126 HIT:    3804126 MISS:          0 MSHR_MERGE:          0
cpu0->cpu0_STLB RFO          ACCESS:          0 HIT:          0 MISS:          0 MSHR_MERGE:          0
cpu0->cpu0_STLB PREFETCH     ACCESS:          0 HIT:          0 MISS:          0 MSHR_MERGE:          0
cpu0->cpu0_STLB WRITE        ACCESS:          0 HIT:          0 MISS:          0 MSHR_MERGE:          0
cpu0->cpu0_STLB TRANSLATION  ACCESS:          0 HIT:          0 MISS:          0 MSHR_MERGE:          0
cpu0->cpu0_STLB PREFETCH REQUESTED:          0 ISSUED:          0 USEFUL:          0 USELESS:          0 LATE:          0
cpu0->cpu0_STLB AVERAGE MISS LATENCY: - cycles
cpu0->cpu0_L2C TOTAL        ACCESS:    7063625 HIT:    1447418 MISS:    5616207 MSHR_MERGE:       5900
cpu0->cpu0_L2C LOAD         ACCESS:    5844538 HIT:     454196 MISS:    5390342 MSHR_MERGE:        126
cpu0->cpu0_L2C RFO          ACCESS:      14243 HIT:      13625 MISS:        618 MSHR_MERGE:          0
cpu0->cpu0_L2C PREFETCH     ACCESS:    1187815 HIT:     962597 MISS:     225218 MSHR_MERGE:       5774
cpu0->cpu0_L2C WRITE        ACCESS:      17029 HIT:      17000 MISS:         29 MSHR_MERGE:          0
cpu0->cpu0_L2C TRANSLATION  ACCESS:          0 HIT:          0 MISS:          0 MSHR_MERGE:          0
cpu0->cpu0_L2C PREFETCH REQUESTED:     273353 ISSUED:     273353 USEFUL:       9248 USELESS:     161899 LATE:        126
cpu0->cpu0_L2C AVERAGE MISS LATENCY: 167.8 cycles
cpu0->cpu0_L1I TOTAL        ACCESS:      22672 HIT:      22672 MISS:          0 MSHR_MERGE:          0
cpu0->cpu0_L1I LOAD         ACCESS:      22672 HIT:      22672 MISS:          0 MSHR_MERGE:          0
cpu0->cpu0_L1I RFO          ACCESS:          0 HIT:          0 MISS:          0 MSHR_MERGE:          0
cpu0->cpu0_L1I PREFETCH     ACCESS:          0 HIT:          0 MISS:          0 MSHR_MERGE:          0
cpu0->cpu0_L1I WRITE        ACCESS:          0 HIT:          0 MISS:          0 MSHR_MERGE:          0
cpu0->cpu0_L1I TRANSLATION  ACCESS:          0 HIT:          0 MISS:          0 MSHR_MERGE:          0
cpu0->cpu0_L1I PREFETCH REQUESTED:          0 ISSUED:          0 USEFUL:          0 USELESS:          0 LATE:          0
cpu0->cpu0_L1I AVERAGE MISS LATENCY: - cycles
cpu0->cpu0_L1D TOTAL        ACCESS:   13836889 HIT:    6935987 MISS:    6900902 MSHR_MERGE:     127587
cpu0->cpu0_L1D LOAD         ACCESS:    9631806 HIT:    3682746 MISS:    5949060 MSHR_MERGE:     104522
cpu0->cpu0_L1D RFO          ACCESS:          0 HIT:          0 MISS:          0 MSHR_MERGE:          0
cpu0->cpu0_L1D PREFETCH     ACCESS:    2315067 HIT:    1400605 MISS:     914462 MSHR_MERGE:          0
cpu0->cpu0_L1D WRITE        ACCESS:    1890016 HIT:    1852636 MISS:      37380 MSHR_MERGE:      23065
cpu0->cpu0_L1D TRANSLATION  ACCESS:          0 HIT:          0 MISS:          0 MSHR_MERGE:          0
cpu0->cpu0_L1D PREFETCH REQUESTED:    2638326 ISSUED:    2315061 USEFUL:      45143 USELESS:      39423 LATE:          0
cpu0->cpu0_L1D AVERAGE MISS LATENCY: 163.3 cycles
cpu0->cpu0_ITLB TOTAL        ACCESS:      18369 HIT:      18369 MISS:          0 MSHR_MERGE:          0
cpu0->cpu0_ITLB LOAD         ACCESS:      18369 HIT:      18369 MISS:          0 MSHR_MERGE:          0
cpu0->cpu0_ITLB RFO          ACCESS:          0 HIT:          0 MISS:          0 MSHR_MERGE:          0
cpu0->cpu0_ITLB PREFETCH     ACCESS:          0 HIT:          0 MISS:          0 MSHR_MERGE:          0
cpu0->cpu0_ITLB WRITE        ACCESS:          0 HIT:          0 MISS:          0 MSHR_MERGE:          0
cpu0->cpu0_ITLB TRANSLATION  ACCESS:          0 HIT:          0 MISS:          0 MSHR_MERGE:          0
cpu0->cpu0_ITLB PREFETCH REQUESTED:          0 ISSUED:          0 USEFUL:          0 USELESS:          0 LATE:          0
cpu0->cpu0_ITLB AVERAGE MISS LATENCY: - cycles
cpu0->cpu0_DTLB TOTAL        ACCESS:   13168122 HIT:    9232296 MISS:    3935826 MSHR_MERGE:     131700
cpu0->cpu0_DTLB LOAD         ACCESS:   13168122 HIT:    9232296 MISS:    3935826 MSHR_MERGE:     131700
cpu0->cpu0_DTLB RFO          ACCESS:          0 HIT:          0 MISS:          0 MSHR_MERGE:          0
cpu0->cpu0_DTLB PREFETCH     ACCESS:          0 HIT:          0 MISS:          0 MSHR_MERGE:          0
cpu0->cpu0_DTLB WRITE        ACCESS:          0 HIT:          0 MISS:          0 MSHR_MERGE:          0
cpu0->cpu0_DTLB TRANSLATION  ACCESS:          0 HIT:          0 MISS:          0 MSHR_MERGE:          0
cpu0->cpu0_DTLB PREFETCH REQUESTED:          0 ISSUED:          0 USEFUL:          0 USELESS:          0 LATE:          0
cpu0->cpu0_DTLB AVERAGE MISS LATENCY: 5.004 cycles
cpu0->LLC TOTAL        ACCESS:    5612337 HIT:    1403951 MISS:    4208386 MSHR_MERGE:          0
cpu0->LLC LOAD         ACCESS:    5390216 HIT:    1348051 MISS:    4042165 MSHR_MERGE:          0
cpu0->LLC RFO          ACCESS:        618 HIT:        616 MISS:          2 MSHR_MERGE:          0
cpu0->LLC PREFETCH     ACCESS:     219444 HIT:      53232 MISS:     166212 MSHR_MERGE:          0
cpu0->LLC WRITE        ACCESS:       2059 HIT:       2052 MISS:          7 MSHR_MERGE:          0
cpu0->LLC TRANSLATION  ACCESS:          0 HIT:          0 MISS:          0 MSHR_MERGE:          0
cpu0->LLC PREFETCH REQUESTED:          0 ISSUED:          0 USEFUL:          0 USELESS:          0 LATE:          0
cpu0->LLC AVERAGE MISS LATENCY: 202.7 cycles

DRAM Statistics

Channel 0 RQ ROW_BUFFER_HIT:      57693
  ROW_BUFFER_MISS:    4150686
  AVG DBUS CONGESTED CYCLE: 2.957
Channel 0 WQ ROW_BUFFER_HIT:          0
  ROW_BUFFER_MISS:          8
  FULL:          0
Channel 0 REFRESHES ISSUED:      41693

[ROI Statistics]
[System Configuration]
num_cpus 1
cpu_freq 4000
fetch_width 6
decode_width 6
dispatch_width 6
execute_width 6
lq_width 2
sq_width 2
retire_width 6
scheduler_size 128
branch_mispredict_penalty 15
rob_size 352
lq_size 128
sq_size 72
ifetch_buffer_size 64
decode_buffer_size 32
dispatch_buffer_size 32
register_file_size 288
decode_latency 1
dispatch_latency 1
schedule_latency 1
execute_latency 1
page_size 4096
block_size 64
core_0_itlb_set 16
core_0_itlb_way 4
core_0_itlb_rq_size 16
core_0_itlb_wq_size 16
core_0_itlb_pq_size 0
core_0_itlb_mshr_size 8
core_0_itlb_hit_latency 1
core_0_itlb_fill_latency 1
core_0_itlb_max_tag_check 2
core_0_itlb_max_fill 2
core_0_dtlb_set 16
core_0_dtlb_way 4
core_0_dtlb_rq_size 16
core_0_dtlb_wq_size 16
core_0_dtlb_pq_size 0
core_0_dtlb_mshr_size 8
core_0_dtlb_hit_latency 1
core_0_dtlb_fill_latency 1
core_0_dtlb_max_tag_check 2
core_0_dtlb_max_fill 2
core_0_stlb_set 128
core_0_stlb_way 12
core_0_stlb_rq_size 32
core_0_stlb_wq_size 32
core_0_stlb_pq_size 0
core_0_stlb_mshr_size 16
core_0_stlb_hit_latency 4
core_0_stlb_fill_latency 4
core_0_stlb_max_tag_check 1
core_0_stlb_max_fill 1
core_0_l1i_set 64
core_0_l1i_way 8
core_0_l1i_rq_size 64
core_0_l1i_wq_size 64
core_0_l1i_pq_size 32
core_0_l1i_mshr_size 8
core_0_l1i_hit_latency 2
core_0_l1i_fill_latency 2
core_0_l1i_max_tag_check 2
core_0_l1i_max_fill 2
core_0_l1d_set 64
core_0_l1d_way 12
core_0_l1d_rq_size 64
core_0_l1d_wq_size 64
core_0_l1d_pq_size 8
core_0_l1d_mshr_size 16
core_0_l1d_hit_latency 2
core_0_l1d_fill_latency 3
core_0_l1d_max_tag_check 2
core_0_l1d_max_fill 2
core_0_l2c_set 1024
core_0_l2c_way 8
core_0_l2c_rq_size 32
core_0_l2c_wq_size 32
core_0_l2c_pq_size 16
core_0_l2c_mshr_size 32
core_0_l2c_hit_latency 5
core_0_l2c_fill_latency 5
core_0_l2c_max_tag_check 1
core_0_l2c_max_fill 1
llc_set 2048
llc_way 16
llc_rq_size 32
llc_wq_size 32
llc_pq_size 32
llc_mshr_size 64
llc_hit_latency 10
llc_fill_latency 10
llc_max_tag_check 1
llc_max_fill 1
dram_channels 1
dram_ranks 1
dram_bankgroups 8
dram_banks 4
dram_rows 65536
dram_columns 1024
dram_channel_width 8
dram_rq_size 64
dram_wq_size 64
dram_size 17179869184
core_0_itlb_prefetcher no
core_0_dtlb_prefetcher no
core_0_stlb_prefetcher no
core_0_l1i_prefetcher next_line
core_0_l1d_prefetcher vberti
core_0_l2c_prefetcher ip_stride
llc_prefetcher no
llc_replacement drrip

Core_0_instructions 100000001
Core_0_cycles 500318211
Core_0_IPC 0.199873
Core_0_branch_prediction_accuracy 87.1874
Core_0_branch_MPKI 21.4169
Core_0_average_ROB_occupancy_at_mispredict 26.6156

Core_0_ITLB_total_access 18369
Core_0_ITLB_total_hit 18369
Core_0_ITLB_total_miss 0
Core_0_ITLB_total_MPKI 0
Core_0_ITLB_total_miss_rate 0
Core_0_ITLB_demand_access 18369
Core_0_ITLB_demand_hit 18369
Core_0_ITLB_demand_miss 0
Core_0_ITLB_demand_MPKI 0
Core_0_ITLB_demand_miss_rate 0
Core_0_ITLB_load_access 18369
Core_0_ITLB_load_hit 18369
Core_0_ITLB_load_miss 0
Core_0_ITLB_load_MPKI 0
Core_0_ITLB_load_miss_rate 0
Core_0_ITLB_rfo_access 0
Core_0_ITLB_rfo_hit 0
Core_0_ITLB_rfo_miss 0
Core_0_ITLB_rfo_MPKI 0
Core_0_ITLB_rfo_miss_rate 0
Core_0_ITLB_prefetch_access 0
Core_0_ITLB_prefetch_hit 0
Core_0_ITLB_prefetch_miss 0
Core_0_ITLB_prefetch_MPKI 0
Core_0_ITLB_prefetch_miss_rate 0
Core_0_ITLB_writeback_access 0
Core_0_ITLB_writeback_hit 0
Core_0_ITLB_writeback_miss 0
Core_0_ITLB_writeback_MPKI 0
Core_0_ITLB_writeback_miss_rate 0
Core_0_ITLB_prefetch_requested 0
Core_0_ITLB_prefetch_issued 0
Core_0_ITLB_prefetch_useful 0
Core_0_ITLB_prefetch_useless 0
Core_0_ITLB_prefetch_late 0
Core_0_ITLB_prefetch_accuracy 0
Core_0_ITLB_prefetch_coverage 0
Core_0_ITLB_total_eviction 0

Core_0_DTLB_total_access 13168122
Core_0_DTLB_total_hit 9232296
Core_0_DTLB_total_miss 3935826
Core_0_DTLB_total_MPKI 39.3583
Core_0_DTLB_total_miss_rate 0.29889
Core_0_DTLB_demand_access 13168122
Core_0_DTLB_demand_hit 9232296
Core_0_DTLB_demand_miss 3935826
Core_0_DTLB_demand_MPKI 39.3583
Core_0_DTLB_demand_miss_rate 0.29889
Core_0_DTLB_load_access 13168122
Core_0_DTLB_load_hit 9232296
Core_0_DTLB_load_miss 3935826
Core_0_DTLB_load_MPKI 39.3583
Core_0_DTLB_load_miss_rate 0.29889
Core_0_DTLB_rfo_access 0
Core_0_DTLB_rfo_hit 0
Core_0_DTLB_rfo_miss 0
Core_0_DTLB_rfo_MPKI 0
Core_0_DTLB_rfo_miss_rate 0
Core_0_DTLB_prefetch_access 0
Core_0_DTLB_prefetch_hit 0
Core_0_DTLB_prefetch_miss 0
Core_0_DTLB_prefetch_MPKI 0
Core_0_DTLB_prefetch_miss_rate 0
Core_0_DTLB_writeback_access 0
Core_0_DTLB_writeback_hit 0
Core_0_DTLB_writeback_miss 0
Core_0_DTLB_writeback_MPKI 0
Core_0_DTLB_writeback_miss_rate 0
Core_0_DTLB_prefetch_requested 0
Core_0_DTLB_prefetch_issued 0
Core_0_DTLB_prefetch_useful 0
Core_0_DTLB_prefetch_useless 0
Core_0_DTLB_prefetch_late 0
Core_0_DTLB_prefetch_accuracy 0
Core_0_DTLB_prefetch_coverage 0
Core_0_DTLB_total_eviction 3804126

Core_0_STLB_total_access 3804126
Core_0_STLB_total_hit 3804126
Core_0_STLB_total_miss 0
Core_0_STLB_total_MPKI 0
Core_0_STLB_total_miss_rate 0
Core_0_STLB_demand_access 3804126
Core_0_STLB_demand_hit 3804126
Core_0_STLB_demand_miss 0
Core_0_STLB_demand_MPKI 0
Core_0_STLB_demand_miss_rate 0
Core_0_STLB_load_access 3804126
Core_0_STLB_load_hit 3804126
Core_0_STLB_load_miss 0
Core_0_STLB_load_MPKI 0
Core_0_STLB_load_miss_rate 0
Core_0_STLB_rfo_access 0
Core_0_STLB_rfo_hit 0
Core_0_STLB_rfo_miss 0
Core_0_STLB_rfo_MPKI 0
Core_0_STLB_rfo_miss_rate 0
Core_0_STLB_prefetch_access 0
Core_0_STLB_prefetch_hit 0
Core_0_STLB_prefetch_miss 0
Core_0_STLB_prefetch_MPKI 0
Core_0_STLB_prefetch_miss_rate 0
Core_0_STLB_writeback_access 0
Core_0_STLB_writeback_hit 0
Core_0_STLB_writeback_miss 0
Core_0_STLB_writeback_MPKI 0
Core_0_STLB_writeback_miss_rate 0
Core_0_STLB_prefetch_requested 0
Core_0_STLB_prefetch_issued 0
Core_0_STLB_prefetch_useful 0
Core_0_STLB_prefetch_useless 0
Core_0_STLB_prefetch_late 0
Core_0_STLB_prefetch_accuracy 0
Core_0_STLB_prefetch_coverage 0
Core_0_STLB_total_eviction 3677137

Core_0_L1I_total_access 22672
Core_0_L1I_total_hit 22672
Core_0_L1I_total_miss 0
Core_0_L1I_total_MPKI 0
Core_0_L1I_total_miss_rate 0
Core_0_L1I_demand_access 22672
Core_0_L1I_demand_hit 22672
Core_0_L1I_demand_miss 0
Core_0_L1I_demand_MPKI 0
Core_0_L1I_demand_miss_rate 0
Core_0_L1I_load_access 22672
Core_0_L1I_load_hit 22672
Core_0_L1I_load_miss 0
Core_0_L1I_load_MPKI 0
Core_0_L1I_load_miss_rate 0
Core_0_L1I_rfo_access 0
Core_0_L1I_rfo_hit 0
Core_0_L1I_rfo_miss 0
Core_0_L1I_rfo_MPKI 0
Core_0_L1I_rfo_miss_rate 0
Core_0_L1I_prefetch_access 0
Core_0_L1I_prefetch_hit 0
Core_0_L1I_prefetch_miss 0
Core_0_L1I_prefetch_MPKI 0
Core_0_L1I_prefetch_miss_rate 0
Core_0_L1I_writeback_access 0
Core_0_L1I_writeback_hit 0
Core_0_L1I_writeback_miss 0
Core_0_L1I_writeback_MPKI 0
Core_0_L1I_writeback_miss_rate 0
Core_0_L1I_prefetch_requested 0
Core_0_L1I_prefetch_issued 0
Core_0_L1I_prefetch_useful 0
Core_0_L1I_prefetch_useless 0
Core_0_L1I_prefetch_late 0
Core_0_L1I_prefetch_accuracy 0
Core_0_L1I_prefetch_coverage 0
Core_0_L1I_total_eviction 0

Core_0_L1D_total_access 13836889
Core_0_L1D_total_hit 6935987
Core_0_L1D_total_miss 6900902
Core_0_L1D_total_MPKI 69.009
Core_0_L1D_total_miss_rate 0.498732
Core_0_L1D_demand_access 9631806
Core_0_L1D_demand_hit 3682746
Core_0_L1D_demand_miss 5949060
Core_0_L1D_demand_MPKI 59.4906
Core_0_L1D_demand_miss_rate 0.617647
Core_0_L1D_load_access 9631806
Core_0_L1D_load_hit 3682746
Core_0_L1D_load_miss 5949060
Core_0_L1D_load_MPKI 59.4906
Core_0_L1D_load_miss_rate 0.617647
Core_0_L1D_rfo_access 0
Core_0_L1D_rfo_hit 0
Core_0_L1D_rfo_miss 0
Core_0_L1D_rfo_MPKI 0
Core_0_L1D_rfo_miss_rate 0
Core_0_L1D_prefetch_access 2315067
Core_0_L1D_prefetch_hit 1400605
Core_0_L1D_prefetch_miss 914462
Core_0_L1D_prefetch_MPKI 9.14462
Core_0_L1D_prefetch_miss_rate 0.395005
Core_0_L1D_writeback_access 1890016
Core_0_L1D_writeback_hit 1852636
Core_0_L1D_writeback_miss 37380
Core_0_L1D_writeback_MPKI 0.3738
Core_0_L1D_writeback_miss_rate 0.0197776
Core_0_L1D_prefetch_requested 2638326
Core_0_L1D_prefetch_issued 2315061
Core_0_L1D_prefetch_useful 45143
Core_0_L1D_prefetch_useless 39423
Core_0_L1D_prefetch_late 0
Core_0_L1D_prefetch_accuracy 0.0194997
Core_0_L1D_prefetch_coverage 0.00753111
Core_0_L1D_total_eviction 5943437

Core_0_L2C_total_access 7063625
Core_0_L2C_total_hit 1447418
Core_0_L2C_total_miss 5616207
Core_0_L2C_total_MPKI 56.1621
Core_0_L2C_total_miss_rate 0.795088
Core_0_L2C_demand_access 5858781
Core_0_L2C_demand_hit 467821
Core_0_L2C_demand_miss 5390960
Core_0_L2C_demand_MPKI 53.9096
Core_0_L2C_demand_miss_rate 0.92015
Core_0_L2C_load_access 5844538
Core_0_L2C_load_hit 454196
Core_0_L2C_load_miss 5390342
Core_0_L2C_load_MPKI 53.9034
Core_0_L2C_load_miss_rate 0.922287
Core_0_L2C_rfo_access 14243
Core_0_L2C_rfo_hit 13625
Core_0_L2C_rfo_miss 618
Core_0_L2C_rfo_MPKI 0.00618
Core_0_L2C_rfo_miss_rate 0.0433897
Core_0_L2C_prefetch_access 1187815
Core_0_L2C_prefetch_hit 962597
Core_0_L2C_prefetch_miss 225218
Core_0_L2C_prefetch_MPKI 2.25218
Core_0_L2C_prefetch_miss_rate 0.189607
Core_0_L2C_writeback_access 17029
Core_0_L2C_writeback_hit 17000
Core_0_L2C_writeback_miss 29
Core_0_L2C_writeback_MPKI 0.00029
Core_0_L2C_writeback_miss_rate 0.00170298
Core_0_L2C_prefetch_requested 273353
Core_0_L2C_prefetch_issued 273353
Core_0_L2C_prefetch_useful 9248
Core_0_L2C_prefetch_useless 161899
Core_0_L2C_prefetch_late 126
Core_0_L2C_prefetch_accuracy 0.0338317
Core_0_L2C_prefetch_coverage 0.00171253
Core_0_L2C_total_eviction 5610306

Core_0_LLC_total_access 5612337
Core_0_LLC_total_hit 1403951
Core_0_LLC_total_miss 4208386
Core_0_LLC_total_MPKI 42.0839
Core_0_LLC_total_miss_rate 0.749846
Core_0_LLC_demand_access 5390834
Core_0_LLC_demand_hit 1348667
Core_0_LLC_demand_miss 4042167
Core_0_LLC_demand_MPKI 40.4217
Core_0_LLC_demand_miss_rate 0.749822
Core_0_LLC_load_access 5390216
Core_0_LLC_load_hit 1348051
Core_0_LLC_load_miss 4042165
Core_0_LLC_load_MPKI 40.4216
Core_0_LLC_load_miss_rate 0.749908
Core_0_LLC_rfo_access 618
Core_0_LLC_rfo_hit 616
Core_0_LLC_rfo_miss 2
Core_0_LLC_rfo_MPKI 2e-05
Core_0_LLC_rfo_miss_rate 0.00323625
Core_0_LLC_prefetch_access 219444
Core_0_LLC_prefetch_hit 53232
Core_0_LLC_prefetch_miss 166212
Core_0_LLC_prefetch_MPKI 1.66212
Core_0_LLC_prefetch_miss_rate 0.757423
Core_0_LLC_writeback_access 2059
Core_0_LLC_writeback_hit 2052
Core_0_LLC_writeback_miss 7
Core_0_LLC_writeback_MPKI 7e-05
Core_0_LLC_writeback_miss_rate 0.00339971
Core_0_LLC_prefetch_requested 0
Core_0_LLC_prefetch_issued 0
Core_0_LLC_prefetch_useful 0
Core_0_LLC_prefetch_useless 0
Core_0_LLC_prefetch_late 0
Core_0_LLC_prefetch_accuracy 0
Core_0_LLC_prefetch_coverage 0
Core_0_LLC_total_eviction 4208386

[DRAM Statistics]
Channel_0_RQ_row_buffer_hit 57693
Channel_0_RQ_row_buffer_miss 4150686
Channel_0_WQ_row_buffer_hit 0
Channel_0_WQ_row_buffer_miss 8
Channel_0_WQ_full 0
Channel_0_dbus_congested 5307385
DRAM_total_RQ_row_buffer_hit 57693
DRAM_total_RQ_row_buffer_miss 4150686
DRAM_total_WQ_row_buffer_hit 0
DRAM_total_WQ_row_buffer_miss 8
DRAM_total_WQ_full 0
DRAM_total_dbus_congested 5307385
DRAM_avg_congested_cycle 2.95743

======STLB miss causes ========
Core_0_STLB_miss_cause_breakdown
Core_0_STLB_cause_Demand_Data_miss 0
Core_0_STLB_cause_Demand_Data_miss_rate 0
Core_0_STLB_cause_Demand_Instruction_miss 0
Core_0_STLB_cause_Demand_Instruction_miss_rate 0
Core_0_STLB_cause_L1D_Prefetch_miss 0
Core_0_STLB_cause_L1D_Prefetch_miss_rate 0
Core_0_STLB_cause_L1I_Prefetch_miss 0
Core_0_STLB_cause_L1I_Prefetch_miss_rate 0
Core_0_STLB_cause_Other_miss 0
Core_0_STLB_cause_Other_miss_rate 0
Core_0_STLB_Demand_miss 0
Core_0_STLB_Demand_miss_rate 0
Core_0_STLB_L1D_Prefetch_miss 0
Core_0_STLB_L1D_Prefetch_miss_rate 0
Core_0_STLB_Other_miss 0
Core_0_STLB_Other_miss_rate 0
BERTI TO_L1: 2810167 TO_L2: 2072291 TO_L2_BC_MSHR: 3
BERTI AVG_LAT: 109.886 NUM_TRACK_LATENCY: 8892269 NUM_CANT_TRACK_LATENCY: 0
BERTI CROSS_PAGE 515419 NO_CROSS_PAGE: 4367039
BERTI FOUND_BERTI: 12169896 NO_FOUND_BERTI: 5063079
BERTI AVERAGE_ISSUED: 3.62124
