[VMEM] WARNING: physical memory size is smaller than virtual memory size.

*** ChampSim Multicore Out-of-Order Simulator ***
Warmup Instructions: 50000000
Simulation Instructions: 100000000
Number of CPUs: 1
Page size: 4096
STLB ideal mode: all
STLB ideal fill: on
Core 0: /data2/zcq/champsim_traces_xsbench/xs.XXL64hash-24B.champsimtrace.xz
VBerti Prefetcher
BERTI HASH ENTANGLING
BERTI IP MASK ffff
Off-chip DRAM Size: 16 GiB Channels: 1 Width: 64-bit Data Rate: 3205 MT/s
Warmup halting CPU 0 at instruction 50000002 cycle 12351744 for remainder of phase
Warmup finished CPU 0 instructions: 50000002 cycles: 12351744 cumulative IPC: 4.048 (Simulation time: 00 hr 02 min 31 sec)
Warmup complete CPU 0 instructions: 50000002 cycles: 12351744 cumulative IPC: 4.048 (Simulation time: 00 hr 02 min 31 sec)
Simulation finished CPU 0 instructions: 100000000 cycles: 291981998 cumulative IPC: 0.3425 (Simulation time: 00 hr 27 min 39 sec)
Simulation complete CPU 0 instructions: 100000000 cycles: 291981998 cumulative IPC: 0.3425 (Simulation time: 00 hr 27 min 39 sec)

ChampSim completed all CPUs

=== Simulation ===
CPU 0 runs /data2/zcq/champsim_traces_xsbench/xs.XXL64hash-24B.champsimtrace.xz

Region of Interest Statistics

CPU 0 cumulative IPC: 0.3425 instructions: 100000000 cycles: 291981998
CPU 0 Branch Prediction Accuracy: 93.33% MPKI: 15.86 Average ROB Occupancy at Mispredict: 43.53
Branch type MPKI
BRANCH_DIRECT_JUMP: 0.00013
BRANCH_INDIRECT: 0
BRANCH_CONDITIONAL: 15.86
BRANCH_DIRECT_CALL: 8e-05
BRANCH_INDIRECT_CALL: 0
BRANCH_RETURN: 0.00053

cpu0->cpu0_STLB TOTAL        ACCESS:    1578365 HIT:    1578365 MISS:          0 MSHR_MERGE:          0
cpu0->cpu0_STLB LOAD         ACCESS:    1578365 HIT:    1578365 MISS:          0 MSHR_MERGE:          0
cpu0->cpu0_STLB RFO          ACCESS:          0 HIT:          0 MISS:          0 MSHR_MERGE:          0
cpu0->cpu0_STLB PREFETCH     ACCESS:          0 HIT:          0 MISS:          0 MSHR_MERGE:          0
cpu0->cpu0_STLB WRITE        ACCESS:          0 HIT:          0 MISS:          0 MSHR_MERGE:          0
cpu0->cpu0_STLB TRANSLATION  ACCESS:          0 HIT:          0 MISS:          0 MSHR_MERGE:          0
cpu0->cpu0_STLB PREFETCH REQUESTED:          0 ISSUED:          0 USEFUL:          0 USELESS:          0 LATE:          0
cpu0->cpu0_STLB AVERAGE MISS LATENCY: - cycles
cpu0->cpu0_L2C TOTAL        ACCESS:    8211079 HIT:    5511090 MISS:    2699989 MSHR_MERGE:     271887
cpu0->cpu0_L2C LOAD         ACCESS:    2390774 HIT:     496386 MISS:    1894388 MSHR_MERGE:      45353
cpu0->cpu0_L2C RFO          ACCESS:     125539 HIT:      39839 MISS:      85700 MSHR_MERGE:       6154
cpu0->cpu0_L2C PREFETCH     ACCESS:    4082974 HIT:    3363102 MISS:     719872 MSHR_MERGE:     220380
cpu0->cpu0_L2C WRITE        ACCESS:    1611792 HIT:    1611763 MISS:         29 MSHR_MERGE:          0
cpu0->cpu0_L2C TRANSLATION  ACCESS:          0 HIT:          0 MISS:          0 MSHR_MERGE:          0
cpu0->cpu0_L2C PREFETCH REQUESTED:    1069205 ISSUED:    1043195 USEFUL:     154125 USELESS:       6754 LATE:      42052
cpu0->cpu0_L2C AVERAGE MISS LATENCY: 243.6 cycles
cpu0->cpu0_L1I TOTAL        ACCESS:    2626870 HIT:    2626812 MISS:         58 MSHR_MERGE:          8
cpu0->cpu0_L1I LOAD         ACCESS:    2626870 HIT:    2626812 MISS:         58 MSHR_MERGE:          8
cpu0->cpu0_L1I RFO          ACCESS:          0 HIT:          0 MISS:          0 MSHR_MERGE:          0
cpu0->cpu0_L1I PREFETCH     ACCESS:          0 HIT:          0 MISS:          0 MSHR_MERGE:          0
cpu0->cpu0_L1I WRITE        ACCESS:          0 HIT:          0 MISS:          0 MSHR_MERGE:          0
cpu0->cpu0_L1I TRANSLATION  ACCESS:          0 HIT:          0 MISS:          0 MSHR_MERGE:          0
cpu0->cpu0_L1I PREFETCH REQUESTED:          0 ISSUED:          0 USEFUL:          0 USELESS:          0 LATE:          0
cpu0->cpu0_L1I AVERAGE MISS LATENCY: 211.3 cycles
cpu0->cpu0_L1D TOTAL        ACCESS:   53921890 HIT:   46558139 MISS:    7363751 MSHR_MERGE:    1784200
cpu0->cpu0_L1D LOAD         ACCESS:   17470742 HIT:   14111334 MISS:    3359408 MSHR_MERGE:     968684
cpu0->cpu0_L1D RFO          ACCESS:          0 HIT:          0 MISS:          0 MSHR_MERGE:          0
cpu0->cpu0_L1D PREFETCH     ACCESS:   22734964 HIT:   19595674 MISS:    3139290 MSHR_MERGE:      76058
cpu0->cpu0_L1D WRITE        ACCESS:   13716184 HIT:   12851131 MISS:     865053 MSHR_MERGE:     739458
cpu0->cpu0_L1D TRANSLATION  ACCESS:          0 HIT:          0 MISS:          0 MSHR_MERGE:          0
cpu0->cpu0_L1D PREFETCH REQUESTED:  125730455 ISSUED:   22734964 USEFUL:     454068 USELESS:       7548 LATE:      20441
cpu0->cpu0_L1D AVERAGE MISS LATENCY: 200.8 cycles
cpu0->cpu0_ITLB TOTAL        ACCESS:    2256304 HIT:    2256296 MISS:          8 MSHR_MERGE:          1
cpu0->cpu0_ITLB LOAD         ACCESS:    2256304 HIT:    2256296 MISS:          8 MSHR_MERGE:          1
cpu0->cpu0_ITLB RFO          ACCESS:          0 HIT:          0 MISS:          0 MSHR_MERGE:          0
cpu0->cpu0_ITLB PREFETCH     ACCESS:          0 HIT:          0 MISS:          0 MSHR_MERGE:          0
cpu0->cpu0_ITLB WRITE        ACCESS:          0 HIT:          0 MISS:          0 MSHR_MERGE:          0
cpu0->cpu0_ITLB TRANSLATION  ACCESS:          0 HIT:          0 MISS:          0 MSHR_MERGE:          0
cpu0->cpu0_ITLB PREFETCH REQUESTED:          0 ISSUED:          0 USEFUL:          0 USELESS:          0 LATE:          0
cpu0->cpu0_ITLB AVERAGE MISS LATENCY: 5 cycles
cpu0->cpu0_DTLB TOTAL        ACCESS:   44830330 HIT:   42236118 MISS:    2594212 MSHR_MERGE:    1015854
cpu0->cpu0_DTLB LOAD         ACCESS:   44830330 HIT:   42236118 MISS:    2594212 MSHR_MERGE:    1015854
cpu0->cpu0_DTLB RFO          ACCESS:          0 HIT:          0 MISS:          0 MSHR_MERGE:          0
cpu0->cpu0_DTLB PREFETCH     ACCESS:          0 HIT:          0 MISS:          0 MSHR_MERGE:          0
cpu0->cpu0_DTLB WRITE        ACCESS:          0 HIT:          0 MISS:          0 MSHR_MERGE:          0
cpu0->cpu0_DTLB TRANSLATION  ACCESS:          0 HIT:          0 MISS:          0 MSHR_MERGE:          0
cpu0->cpu0_DTLB PREFETCH REQUESTED:          0 ISSUED:          0 USEFUL:          0 USELESS:          0 LATE:          0
cpu0->cpu0_DTLB AVERAGE MISS LATENCY: 5.002 cycles
cpu0->LLC TOTAL        ACCESS:    3912848 HIT:     779181 MISS:    3133667 MSHR_MERGE:      46242
cpu0->LLC LOAD         ACCESS:    1849035 HIT:     272319 MISS:    1576716 MSHR_MERGE:       8671
cpu0->LLC RFO          ACCESS:      79546 HIT:      11799 MISS:      67747 MSHR_MERGE:        372
cpu0->LLC PREFETCH     ACCESS:     499477 HIT:      98788 MISS:     400689 MSHR_MERGE:      37199
cpu0->LLC WRITE        ACCESS:    1484790 HIT:     396275 MISS:    1088515 MSHR_MERGE:          0
cpu0->LLC TRANSLATION  ACCESS:          0 HIT:          0 MISS:          0 MSHR_MERGE:          0
cpu0->LLC PREFETCH REQUESTED:          0 ISSUED:          0 USEFUL:          0 USELESS:          0 LATE:          0
cpu0->LLC AVERAGE MISS LATENCY: 163.3 cycles

DRAM Statistics

Channel 0 RQ ROW_BUFFER_HIT:      39212
  ROW_BUFFER_MISS:    1959348
  AVG DBUS CONGESTED CYCLE: 6.001
Channel 0 WQ ROW_BUFFER_HIT:     385969
  ROW_BUFFER_MISS:     944567
  FULL:        909
Channel 0 REFRESHES ISSUED:      24332

[ROI Statistics]
[System Configuration]
num_cpus 1
cpu_freq 4000
fetch_width 6
decode_width 6
dispatch_width 6
execute_width 6
lq_width 2
sq_width 2
retire_width 6
scheduler_size 128
branch_mispredict_penalty 15
rob_size 352
lq_size 128
sq_size 72
ifetch_buffer_size 64
decode_buffer_size 32
dispatch_buffer_size 32
register_file_size 288
decode_latency 1
dispatch_latency 1
schedule_latency 1
execute_latency 1
page_size 4096
block_size 64
core_0_itlb_set 16
core_0_itlb_way 4
core_0_itlb_rq_size 16
core_0_itlb_wq_size 16
core_0_itlb_pq_size 0
core_0_itlb_mshr_size 8
core_0_itlb_hit_latency 1
core_0_itlb_fill_latency 1
core_0_itlb_max_tag_check 2
core_0_itlb_max_fill 2
core_0_dtlb_set 16
core_0_dtlb_way 4
core_0_dtlb_rq_size 16
core_0_dtlb_wq_size 16
core_0_dtlb_pq_size 0
core_0_dtlb_mshr_size 8
core_0_dtlb_hit_latency 1
core_0_dtlb_fill_latency 1
core_0_dtlb_max_tag_check 2
core_0_dtlb_max_fill 2
core_0_stlb_set 128
core_0_stlb_way 12
core_0_stlb_rq_size 32
core_0_stlb_wq_size 32
core_0_stlb_pq_size 0
core_0_stlb_mshr_size 16
core_0_stlb_hit_latency 4
core_0_stlb_fill_latency 4
core_0_stlb_max_tag_check 1
core_0_stlb_max_fill 1
core_0_l1i_set 64
core_0_l1i_way 8
core_0_l1i_rq_size 64
core_0_l1i_wq_size 64
core_0_l1i_pq_size 32
core_0_l1i_mshr_size 8
core_0_l1i_hit_latency 2
core_0_l1i_fill_latency 2
core_0_l1i_max_tag_check 2
core_0_l1i_max_fill 2
core_0_l1d_set 64
core_0_l1d_way 12
core_0_l1d_rq_size 64
core_0_l1d_wq_size 64
core_0_l1d_pq_size 8
core_0_l1d_mshr_size 16
core_0_l1d_hit_latency 2
core_0_l1d_fill_latency 3
core_0_l1d_max_tag_check 2
core_0_l1d_max_fill 2
core_0_l2c_set 1024
core_0_l2c_way 8
core_0_l2c_rq_size 32
core_0_l2c_wq_size 32
core_0_l2c_pq_size 16
core_0_l2c_mshr_size 32
core_0_l2c_hit_latency 5
core_0_l2c_fill_latency 5
core_0_l2c_max_tag_check 1
core_0_l2c_max_fill 1
llc_set 2048
llc_way 16
llc_rq_size 32
llc_wq_size 32
llc_pq_size 32
llc_mshr_size 64
llc_hit_latency 10
llc_fill_latency 10
llc_max_tag_check 1
llc_max_fill 1
dram_channels 1
dram_ranks 1
dram_bankgroups 8
dram_banks 4
dram_rows 65536
dram_columns 1024
dram_channel_width 8
dram_rq_size 64
dram_wq_size 64
dram_size 17179869184
core_0_itlb_prefetcher no
core_0_dtlb_prefetcher no
core_0_stlb_prefetcher no
core_0_l1i_prefetcher next_line
core_0_l1d_prefetcher vberti
core_0_l2c_prefetcher ip_stride
llc_prefetcher no
llc_replacement drrip

Core_0_instructions 100000000
Core_0_cycles 291981998
Core_0_IPC 0.342487
Core_0_branch_prediction_accuracy 93.3252
Core_0_branch_MPKI 15.8618
Core_0_average_ROB_occupancy_at_mispredict 43.5266

Core_0_ITLB_total_access 2256304
Core_0_ITLB_total_hit 2256296
Core_0_ITLB_total_miss 8
Core_0_ITLB_total_MPKI 8e-05
Core_0_ITLB_total_miss_rate 3.54562e-06
Core_0_ITLB_demand_access 2256304
Core_0_ITLB_demand_hit 2256296
Core_0_ITLB_demand_miss 8
Core_0_ITLB_demand_MPKI 8e-05
Core_0_ITLB_demand_miss_rate 3.54562e-06
Core_0_ITLB_load_access 2256304
Core_0_ITLB_load_hit 2256296
Core_0_ITLB_load_miss 8
Core_0_ITLB_load_MPKI 8e-05
Core_0_ITLB_load_miss_rate 3.54562e-06
Core_0_ITLB_rfo_access 0
Core_0_ITLB_rfo_hit 0
Core_0_ITLB_rfo_miss 0
Core_0_ITLB_rfo_MPKI 0
Core_0_ITLB_rfo_miss_rate 0
Core_0_ITLB_prefetch_access 0
Core_0_ITLB_prefetch_hit 0
Core_0_ITLB_prefetch_miss 0
Core_0_ITLB_prefetch_MPKI 0
Core_0_ITLB_prefetch_miss_rate 0
Core_0_ITLB_writeback_access 0
Core_0_ITLB_writeback_hit 0
Core_0_ITLB_writeback_miss 0
Core_0_ITLB_writeback_MPKI 0
Core_0_ITLB_writeback_miss_rate 0
Core_0_ITLB_prefetch_requested 0
Core_0_ITLB_prefetch_issued 0
Core_0_ITLB_prefetch_useful 0
Core_0_ITLB_prefetch_useless 0
Core_0_ITLB_prefetch_late 0
Core_0_ITLB_prefetch_accuracy 0
Core_0_ITLB_prefetch_coverage 0
Core_0_ITLB_total_eviction 0

Core_0_DTLB_total_access 44830330
Core_0_DTLB_total_hit 42236118
Core_0_DTLB_total_miss 2594212
Core_0_DTLB_total_MPKI 25.9421
Core_0_DTLB_total_miss_rate 0.0578673
Core_0_DTLB_demand_access 44830330
Core_0_DTLB_demand_hit 42236118
Core_0_DTLB_demand_miss 2594212
Core_0_DTLB_demand_MPKI 25.9421
Core_0_DTLB_demand_miss_rate 0.0578673
Core_0_DTLB_load_access 44830330
Core_0_DTLB_load_hit 42236118
Core_0_DTLB_load_miss 2594212
Core_0_DTLB_load_MPKI 25.9421
Core_0_DTLB_load_miss_rate 0.0578673
Core_0_DTLB_rfo_access 0
Core_0_DTLB_rfo_hit 0
Core_0_DTLB_rfo_miss 0
Core_0_DTLB_rfo_MPKI 0
Core_0_DTLB_rfo_miss_rate 0
Core_0_DTLB_prefetch_access 0
Core_0_DTLB_prefetch_hit 0
Core_0_DTLB_prefetch_miss 0
Core_0_DTLB_prefetch_MPKI 0
Core_0_DTLB_prefetch_miss_rate 0
Core_0_DTLB_writeback_access 0
Core_0_DTLB_writeback_hit 0
Core_0_DTLB_writeback_miss 0
Core_0_DTLB_writeback_MPKI 0
Core_0_DTLB_writeback_miss_rate 0
Core_0_DTLB_prefetch_requested 0
Core_0_DTLB_prefetch_issued 0
Core_0_DTLB_prefetch_useful 0
Core_0_DTLB_prefetch_useless 0
Core_0_DTLB_prefetch_late 0
Core_0_DTLB_prefetch_accuracy 0
Core_0_DTLB_prefetch_coverage 0
Core_0_DTLB_total_eviction 1578358

Core_0_STLB_total_access 1578365
Core_0_STLB_total_hit 1578365
Core_0_STLB_total_miss 0
Core_0_STLB_total_MPKI 0
Core_0_STLB_total_miss_rate 0
Core_0_STLB_demand_access 1578365
Core_0_STLB_demand_hit 1578365
Core_0_STLB_demand_miss 0
Core_0_STLB_demand_MPKI 0
Core_0_STLB_demand_miss_rate 0
Core_0_STLB_load_access 1578365
Core_0_STLB_load_hit 1578365
Core_0_STLB_load_miss 0
Core_0_STLB_load_MPKI 0
Core_0_STLB_load_miss_rate 0
Core_0_STLB_rfo_access 0
Core_0_STLB_rfo_hit 0
Core_0_STLB_rfo_miss 0
Core_0_STLB_rfo_MPKI 0
Core_0_STLB_rfo_miss_rate 0
Core_0_STLB_prefetch_access 0
Core_0_STLB_prefetch_hit 0
Core_0_STLB_prefetch_miss 0
Core_0_STLB_prefetch_MPKI 0
Core_0_STLB_prefetch_miss_rate 0
Core_0_STLB_writeback_access 0
Core_0_STLB_writeback_hit 0
Core_0_STLB_writeback_miss 0
Core_0_STLB_writeback_MPKI 0
Core_0_STLB_writeback_miss_rate 0
Core_0_STLB_prefetch_requested 0
Core_0_STLB_prefetch_issued 0
Core_0_STLB_prefetch_useful 0
Core_0_STLB_prefetch_useless 0
Core_0_STLB_prefetch_late 0
Core_0_STLB_prefetch_accuracy 0
Core_0_STLB_prefetch_coverage 0
Core_0_STLB_total_eviction 857649

Core_0_L1I_total_access 2626870
Core_0_L1I_total_hit 2626812
Core_0_L1I_total_miss 58
Core_0_L1I_total_MPKI 0.00058
Core_0_L1I_total_miss_rate 2.20795e-05
Core_0_L1I_demand_access 2626870
Core_0_L1I_demand_hit 2626812
Core_0_L1I_demand_miss 58
Core_0_L1I_demand_MPKI 0.00058
Core_0_L1I_demand_miss_rate 2.20795e-05
Core_0_L1I_load_access 2626870
Core_0_L1I_load_hit 2626812
Core_0_L1I_load_miss 58
Core_0_L1I_load_MPKI 0.00058
Core_0_L1I_load_miss_rate 2.20795e-05
Core_0_L1I_rfo_access 0
Core_0_L1I_rfo_hit 0
Core_0_L1I_rfo_miss 0
Core_0_L1I_rfo_MPKI 0
Core_0_L1I_rfo_miss_rate 0
Core_0_L1I_prefetch_access 0
Core_0_L1I_prefetch_hit 0
Core_0_L1I_prefetch_miss 0
Core_0_L1I_prefetch_MPKI 0
Core_0_L1I_prefetch_miss_rate 0
Core_0_L1I_writeback_access 0
Core_0_L1I_writeback_hit 0
Core_0_L1I_writeback_miss 0
Core_0_L1I_writeback_MPKI 0
Core_0_L1I_writeback_miss_rate 0
Core_0_L1I_prefetch_requested 0
Core_0_L1I_prefetch_issued 0
Core_0_L1I_prefetch_useful 0
Core_0_L1I_prefetch_useless 0
Core_0_L1I_prefetch_late 0
Core_0_L1I_prefetch_accuracy 0
Core_0_L1I_prefetch_coverage 0
Core_0_L1I_total_eviction 0

Core_0_L1D_total_access 53921890
Core_0_L1D_total_hit 46558139
Core_0_L1D_total_miss 7363751
Core_0_L1D_total_MPKI 73.6375
Core_0_L1D_total_miss_rate 0.136563
Core_0_L1D_demand_access 17470742
Core_0_L1D_demand_hit 14111334
Core_0_L1D_demand_miss 3359408
Core_0_L1D_demand_MPKI 33.5941
Core_0_L1D_demand_miss_rate 0.192288
Core_0_L1D_load_access 17470742
Core_0_L1D_load_hit 14111334
Core_0_L1D_load_miss 3359408
Core_0_L1D_load_MPKI 33.5941
Core_0_L1D_load_miss_rate 0.192288
Core_0_L1D_rfo_access 0
Core_0_L1D_rfo_hit 0
Core_0_L1D_rfo_miss 0
Core_0_L1D_rfo_MPKI 0
Core_0_L1D_rfo_miss_rate 0
Core_0_L1D_prefetch_access 22734964
Core_0_L1D_prefetch_hit 19595674
Core_0_L1D_prefetch_miss 3139290
Core_0_L1D_prefetch_MPKI 31.3929
Core_0_L1D_prefetch_miss_rate 0.138082
Core_0_L1D_writeback_access 13716184
Core_0_L1D_writeback_hit 12851131
Core_0_L1D_writeback_miss 865053
Core_0_L1D_writeback_MPKI 8.65053
Core_0_L1D_writeback_miss_rate 0.0630681
Core_0_L1D_prefetch_requested 125730455
Core_0_L1D_prefetch_issued 22734964
Core_0_L1D_prefetch_useful 454068
Core_0_L1D_prefetch_useless 7548
Core_0_L1D_prefetch_late 20441
Core_0_L1D_prefetch_accuracy 0.0199722
Core_0_L1D_prefetch_coverage 0.119069
Core_0_L1D_total_eviction 2977943

Core_0_L2C_total_access 8211079
Core_0_L2C_total_hit 5511090
Core_0_L2C_total_miss 2699989
Core_0_L2C_total_MPKI 26.9999
Core_0_L2C_total_miss_rate 0.328823
Core_0_L2C_demand_access 2516313
Core_0_L2C_demand_hit 536225
Core_0_L2C_demand_miss 1980088
Core_0_L2C_demand_MPKI 19.8009
Core_0_L2C_demand_miss_rate 0.786901
Core_0_L2C_load_access 2390774
Core_0_L2C_load_hit 496386
Core_0_L2C_load_miss 1894388
Core_0_L2C_load_MPKI 18.9439
Core_0_L2C_load_miss_rate 0.792374
Core_0_L2C_rfo_access 125539
Core_0_L2C_rfo_hit 39839
Core_0_L2C_rfo_miss 85700
Core_0_L2C_rfo_MPKI 0.857
Core_0_L2C_rfo_miss_rate 0.682656
Core_0_L2C_prefetch_access 4082974
Core_0_L2C_prefetch_hit 3363102
Core_0_L2C_prefetch_miss 719872
Core_0_L2C_prefetch_MPKI 7.19872
Core_0_L2C_prefetch_miss_rate 0.176311
Core_0_L2C_writeback_access 1611792
Core_0_L2C_writeback_hit 1611763
Core_0_L2C_writeback_miss 29
Core_0_L2C_writeback_MPKI 0.00029
Core_0_L2C_writeback_miss_rate 1.79924e-05
Core_0_L2C_prefetch_requested 1069205
Core_0_L2C_prefetch_issued 1043195
Core_0_L2C_prefetch_useful 154125
Core_0_L2C_prefetch_useless 6754
Core_0_L2C_prefetch_late 42052
Core_0_L2C_prefetch_accuracy 0.147743
Core_0_L2C_prefetch_coverage 0.0722163
Core_0_L2C_total_eviction 2368440

Core_0_LLC_total_access 3912848
Core_0_LLC_total_hit 779181
Core_0_LLC_total_miss 3133667
Core_0_LLC_total_MPKI 31.3367
Core_0_LLC_total_miss_rate 0.800866
Core_0_LLC_demand_access 1928581
Core_0_LLC_demand_hit 284118
Core_0_LLC_demand_miss 1644463
Core_0_LLC_demand_MPKI 16.4446
Core_0_LLC_demand_miss_rate 0.85268
Core_0_LLC_load_access 1849035
Core_0_LLC_load_hit 272319
Core_0_LLC_load_miss 1576716
Core_0_LLC_load_MPKI 15.7672
Core_0_LLC_load_miss_rate 0.852724
Core_0_LLC_rfo_access 79546
Core_0_LLC_rfo_hit 11799
Core_0_LLC_rfo_miss 67747
Core_0_LLC_rfo_MPKI 0.67747
Core_0_LLC_rfo_miss_rate 0.851671
Core_0_LLC_prefetch_access 499477
Core_0_LLC_prefetch_hit 98788
Core_0_LLC_prefetch_miss 400689
Core_0_LLC_prefetch_MPKI 4.00689
Core_0_LLC_prefetch_miss_rate 0.802217
Core_0_LLC_writeback_access 1484790
Core_0_LLC_writeback_hit 396275
Core_0_LLC_writeback_miss 1088515
Core_0_LLC_writeback_MPKI 10.8851
Core_0_LLC_writeback_miss_rate 0.73311
Core_0_LLC_prefetch_requested 0
Core_0_LLC_prefetch_issued 0
Core_0_LLC_prefetch_useful 0
Core_0_LLC_prefetch_useless 0
Core_0_LLC_prefetch_late 0
Core_0_LLC_prefetch_accuracy 0
Core_0_LLC_prefetch_coverage 0
Core_0_LLC_total_eviction 3087425

[DRAM Statistics]
Channel_0_RQ_row_buffer_hit 39212
Channel_0_RQ_row_buffer_miss 1959348
Channel_0_WQ_row_buffer_hit 385969
Channel_0_WQ_row_buffer_miss 944567
Channel_0_WQ_full 909
Channel_0_dbus_congested 11419211
DRAM_total_RQ_row_buffer_hit 39212
DRAM_total_RQ_row_buffer_miss 1959348
DRAM_total_WQ_row_buffer_hit 385969
DRAM_total_WQ_row_buffer_miss 944567
DRAM_total_WQ_full 909
DRAM_total_dbus_congested 11419211
DRAM_avg_congested_cycle 6.00057

======STLB miss causes ========
Core_0_STLB_miss_cause_breakdown
Core_0_STLB_cause_Demand_Data_miss 0
Core_0_STLB_cause_Demand_Data_miss_rate 0
Core_0_STLB_cause_Demand_Instruction_miss 0
Core_0_STLB_cause_Demand_Instruction_miss_rate 0
Core_0_STLB_cause_L1D_Prefetch_miss 0
Core_0_STLB_cause_L1D_Prefetch_miss_rate 0
Core_0_STLB_cause_L1I_Prefetch_miss 0
Core_0_STLB_cause_L1I_Prefetch_miss_rate 0
Core_0_STLB_cause_Other_miss 0
Core_0_STLB_cause_Other_miss_rate 0
Core_0_STLB_Demand_miss 0
Core_0_STLB_Demand_miss_rate 0
Core_0_STLB_L1D_Prefetch_miss 0
Core_0_STLB_L1D_Prefetch_miss_rate 0
Core_0_STLB_Other_miss 0
Core_0_STLB_Other_miss_rate 0
BERTI TO_L1: 72161636 TO_L2: 102336249 TO_L2_BC_MSHR: 31322963
BERTI AVG_LAT: 125.588 NUM_TRACK_LATENCY: 4628315 NUM_CANT_TRACK_LATENCY: 69
BERTI CROSS_PAGE 21266358 NO_CROSS_PAGE: 153231527
BERTI FOUND_BERTI: 30903984 NO_FOUND_BERTI: 15411834
BERTI AVERAGE_ISSUED: 2.82934
