[VMEM] WARNING: physical memory size is smaller than virtual memory size.

*** ChampSim Multicore Out-of-Order Simulator ***
Warmup Instructions: 20000000
Simulation Instructions: 50000000
Number of CPUs: 1
Page size: 4096
STLB ideal mode: all
STLB ideal fill: on
Core 0: /data0/tzh/champsim_traces/QMM/compute_int_37_new.xz
 L1D Berti prefetcher
Off-chip DRAM Size: 16 GiB Channels: 1 Width: 64-bit Data Rate: 3205 MT/s
Warmup halting CPU 0 at instruction 20000005 cycle 4000036 for remainder of phase
Warmup finished CPU 0 instructions: 20000005 cycles: 4000036 cumulative IPC: 5 (Simulation time: 00 hr 01 min 00 sec)
Warmup complete CPU 0 instructions: 20000005 cycles: 4000036 cumulative IPC: 5 (Simulation time: 00 hr 01 min 00 sec)
*** Reached end of trace: (0, "/data0/tzh/champsim_traces/QMM/compute_int_37_new.xz")
*** Reached end of trace: (0, "/data0/tzh/champsim_traces/QMM/compute_int_37_new.xz")
Simulation finished CPU 0 instructions: 50000003 cycles: 127572814 cumulative IPC: 0.3919 (Simulation time: 00 hr 16 min 26 sec)
Simulation complete CPU 0 instructions: 50000003 cycles: 127572814 cumulative IPC: 0.3919 (Simulation time: 00 hr 16 min 26 sec)

ChampSim completed all CPUs

=== Simulation ===
CPU 0 runs /data0/tzh/champsim_traces/QMM/compute_int_37_new.xz

Region of Interest Statistics

CPU 0 cumulative IPC: 0.3919 instructions: 50000003 cycles: 127572814
CPU 0 Branch Prediction Accuracy: 99.87% MPKI: 0.2508 Average ROB Occupancy at Mispredict: 119.3
Branch type MPKI
BRANCH_DIRECT_JUMP: 0.00072
BRANCH_INDIRECT: 0
BRANCH_CONDITIONAL: 0.2448
BRANCH_DIRECT_CALL: 0.0024
BRANCH_INDIRECT_CALL: 0.00062
BRANCH_RETURN: 0.00232

cpu0->cpu0_STLB TOTAL        ACCESS:    1499265 HIT:    1499265 MISS:          0 MSHR_MERGE:          0
cpu0->cpu0_STLB LOAD         ACCESS:    1499265 HIT:    1499265 MISS:          0 MSHR_MERGE:          0
cpu0->cpu0_STLB RFO          ACCESS:          0 HIT:          0 MISS:          0 MSHR_MERGE:          0
cpu0->cpu0_STLB PREFETCH     ACCESS:          0 HIT:          0 MISS:          0 MSHR_MERGE:          0
cpu0->cpu0_STLB WRITE        ACCESS:          0 HIT:          0 MISS:          0 MSHR_MERGE:          0
cpu0->cpu0_STLB TRANSLATION  ACCESS:          0 HIT:          0 MISS:          0 MSHR_MERGE:          0
cpu0->cpu0_STLB PREFETCH REQUESTED:          0 ISSUED:          0 USEFUL:          0 USELESS:          0 LATE:          0
cpu0->cpu0_STLB AVERAGE MISS LATENCY: - cycles
cpu0->cpu0_L2C TOTAL        ACCESS:   11365497 HIT:    1828528 MISS:    9536969 MSHR_MERGE:     820720
cpu0->cpu0_L2C LOAD         ACCESS:    5309776 HIT:     481251 MISS:    4828525 MSHR_MERGE:     378274
cpu0->cpu0_L2C RFO          ACCESS:     205999 HIT:      58685 MISS:     147314 MSHR_MERGE:          0
cpu0->cpu0_L2C PREFETCH     ACCESS:    4783917 HIT:     222791 MISS:    4561126 MSHR_MERGE:     442446
cpu0->cpu0_L2C WRITE        ACCESS:    1065805 HIT:    1065801 MISS:          4 MSHR_MERGE:          0
cpu0->cpu0_L2C TRANSLATION  ACCESS:          0 HIT:          0 MISS:          0 MSHR_MERGE:          0
cpu0->cpu0_L2C PREFETCH REQUESTED:    4181768 ISSUED:    4181768 USEFUL:     409987 USELESS:     138542 LATE:     378274
cpu0->cpu0_L2C AVERAGE MISS LATENCY: 249.2 cycles
cpu0->cpu0_L1I TOTAL        ACCESS:   10989682 HIT:   10988880 MISS:        802 MSHR_MERGE:        220
cpu0->cpu0_L1I LOAD         ACCESS:   10989682 HIT:   10988880 MISS:        802 MSHR_MERGE:        220
cpu0->cpu0_L1I RFO          ACCESS:          0 HIT:          0 MISS:          0 MSHR_MERGE:          0
cpu0->cpu0_L1I PREFETCH     ACCESS:          0 HIT:          0 MISS:          0 MSHR_MERGE:          0
cpu0->cpu0_L1I WRITE        ACCESS:          0 HIT:          0 MISS:          0 MSHR_MERGE:          0
cpu0->cpu0_L1I TRANSLATION  ACCESS:          0 HIT:          0 MISS:          0 MSHR_MERGE:          0
cpu0->cpu0_L1I PREFETCH REQUESTED:          0 ISSUED:          0 USEFUL:          0 USELESS:          0 LATE:          0
cpu0->cpu0_L1I AVERAGE MISS LATENCY: 237.3 cycles
cpu0->cpu0_L1D TOTAL        ACCESS:   12606370 HIT:    5609036 MISS:    6997334 MSHR_MERGE:     879991
cpu0->cpu0_L1D LOAD         ACCESS:   10427544 HIT:    4438679 MISS:    5988865 MSHR_MERGE:     679671
cpu0->cpu0_L1D RFO          ACCESS:          0 HIT:          0 MISS:          0 MSHR_MERGE:          0
cpu0->cpu0_L1D PREFETCH     ACCESS:     758501 HIT:     127322 MISS:     631179 MSHR_MERGE:      29030
cpu0->cpu0_L1D WRITE        ACCESS:    1420325 HIT:    1043035 MISS:     377290 MSHR_MERGE:     171290
cpu0->cpu0_L1D TRANSLATION  ACCESS:          0 HIT:          0 MISS:          0 MSHR_MERGE:          0
cpu0->cpu0_L1D PREFETCH REQUESTED:    3558292 ISSUED:     758499 USEFUL:     218357 USELESS:     383735 LATE:      53673
cpu0->cpu0_L1D AVERAGE MISS LATENCY: 233.3 cycles
cpu0->cpu0_ITLB TOTAL        ACCESS:    9659115 HIT:    9658853 MISS:        262 MSHR_MERGE:        144
cpu0->cpu0_ITLB LOAD         ACCESS:    9659115 HIT:    9658853 MISS:        262 MSHR_MERGE:        144
cpu0->cpu0_ITLB RFO          ACCESS:          0 HIT:          0 MISS:          0 MSHR_MERGE:          0
cpu0->cpu0_ITLB PREFETCH     ACCESS:          0 HIT:          0 MISS:          0 MSHR_MERGE:          0
cpu0->cpu0_ITLB WRITE        ACCESS:          0 HIT:          0 MISS:          0 MSHR_MERGE:          0
cpu0->cpu0_ITLB TRANSLATION  ACCESS:          0 HIT:          0 MISS:          0 MSHR_MERGE:          0
cpu0->cpu0_ITLB PREFETCH REQUESTED:          0 ISSUED:          0 USEFUL:          0 USELESS:          0 LATE:          0
cpu0->cpu0_ITLB AVERAGE MISS LATENCY: 5 cycles
cpu0->cpu0_DTLB TOTAL        ACCESS:   12243501 HIT:    9807170 MISS:    2436331 MSHR_MERGE:     937184
cpu0->cpu0_DTLB LOAD         ACCESS:   12243501 HIT:    9807170 MISS:    2436331 MSHR_MERGE:     937184
cpu0->cpu0_DTLB RFO          ACCESS:          0 HIT:          0 MISS:          0 MSHR_MERGE:          0
cpu0->cpu0_DTLB PREFETCH     ACCESS:          0 HIT:          0 MISS:          0 MSHR_MERGE:          0
cpu0->cpu0_DTLB WRITE        ACCESS:          0 HIT:          0 MISS:          0 MSHR_MERGE:          0
cpu0->cpu0_DTLB TRANSLATION  ACCESS:          0 HIT:          0 MISS:          0 MSHR_MERGE:          0
cpu0->cpu0_DTLB PREFETCH REQUESTED:          0 ISSUED:          0 USEFUL:          0 USELESS:          0 LATE:          0
cpu0->cpu0_DTLB AVERAGE MISS LATENCY: 5.002 cycles
cpu0->LLC TOTAL        ACCESS:    9737206 HIT:    1347374 MISS:    8389832 MSHR_MERGE:    2932033
cpu0->LLC LOAD         ACCESS:    4450251 HIT:     256916 MISS:    4193335 MSHR_MERGE:    1977035
cpu0->LLC RFO          ACCESS:     147313 HIT:      71078 MISS:      76235 MSHR_MERGE:          0
cpu0->LLC PREFETCH     ACCESS:    4118679 HIT:     170148 MISS:    3948531 MSHR_MERGE:     954998
cpu0->LLC WRITE        ACCESS:    1020963 HIT:     849232 MISS:     171731 MSHR_MERGE:          0
cpu0->LLC TRANSLATION  ACCESS:          0 HIT:          0 MISS:          0 MSHR_MERGE:          0
cpu0->LLC PREFETCH REQUESTED:          0 ISSUED:          0 USEFUL:          0 USELESS:          0 LATE:          0
cpu0->LLC AVERAGE MISS LATENCY: 247.8 cycles

DRAM Statistics

Channel 0 RQ ROW_BUFFER_HIT:    1678754
  ROW_BUFFER_MISS:    3607302
  AVG DBUS CONGESTED CYCLE: 4.809
Channel 0 WQ ROW_BUFFER_HIT:     155085
  ROW_BUFFER_MISS:     861019
  FULL:          0
Channel 0 REFRESHES ISSUED:      10631

[ROI Statistics]
[System Configuration]
num_cpus 1
cpu_freq 4000
fetch_width 6
decode_width 6
dispatch_width 6
execute_width 6
lq_width 2
sq_width 2
retire_width 6
scheduler_size 128
branch_mispredict_penalty 15
rob_size 352
lq_size 128
sq_size 72
ifetch_buffer_size 64
decode_buffer_size 32
dispatch_buffer_size 32
register_file_size 288
decode_latency 1
dispatch_latency 1
schedule_latency 1
execute_latency 1
page_size 4096
block_size 64
core_0_itlb_set 16
core_0_itlb_way 4
core_0_itlb_rq_size 16
core_0_itlb_wq_size 16
core_0_itlb_pq_size 0
core_0_itlb_mshr_size 8
core_0_itlb_hit_latency 1
core_0_itlb_fill_latency 1
core_0_itlb_max_tag_check 2
core_0_itlb_max_fill 2
core_0_dtlb_set 16
core_0_dtlb_way 4
core_0_dtlb_rq_size 16
core_0_dtlb_wq_size 16
core_0_dtlb_pq_size 0
core_0_dtlb_mshr_size 8
core_0_dtlb_hit_latency 1
core_0_dtlb_fill_latency 1
core_0_dtlb_max_tag_check 2
core_0_dtlb_max_fill 2
core_0_stlb_set 128
core_0_stlb_way 12
core_0_stlb_rq_size 32
core_0_stlb_wq_size 32
core_0_stlb_pq_size 0
core_0_stlb_mshr_size 16
core_0_stlb_hit_latency 4
core_0_stlb_fill_latency 4
core_0_stlb_max_tag_check 1
core_0_stlb_max_fill 1
core_0_l1i_set 64
core_0_l1i_way 8
core_0_l1i_rq_size 64
core_0_l1i_wq_size 64
core_0_l1i_pq_size 32
core_0_l1i_mshr_size 8
core_0_l1i_hit_latency 2
core_0_l1i_fill_latency 2
core_0_l1i_max_tag_check 2
core_0_l1i_max_fill 2
core_0_l1d_set 64
core_0_l1d_way 12
core_0_l1d_rq_size 64
core_0_l1d_wq_size 64
core_0_l1d_pq_size 8
core_0_l1d_mshr_size 16
core_0_l1d_hit_latency 2
core_0_l1d_fill_latency 3
core_0_l1d_max_tag_check 2
core_0_l1d_max_fill 2
core_0_l2c_set 1024
core_0_l2c_way 8
core_0_l2c_rq_size 32
core_0_l2c_wq_size 32
core_0_l2c_pq_size 16
core_0_l2c_mshr_size 32
core_0_l2c_hit_latency 5
core_0_l2c_fill_latency 5
core_0_l2c_max_tag_check 1
core_0_l2c_max_fill 1
llc_set 2048
llc_way 16
llc_rq_size 32
llc_wq_size 32
llc_pq_size 32
llc_mshr_size 64
llc_hit_latency 10
llc_fill_latency 10
llc_max_tag_check 1
llc_max_fill 1
dram_channels 1
dram_ranks 1
dram_bankgroups 8
dram_banks 4
dram_rows 65536
dram_columns 1024
dram_channel_width 8
dram_rq_size 64
dram_wq_size 64
dram_size 17179869184
core_0_itlb_prefetcher no
core_0_dtlb_prefetcher no
core_0_stlb_prefetcher no
core_0_l1i_prefetcher next_line
core_0_l1d_prefetcher berti
core_0_l2c_prefetcher ip_stride
llc_prefetcher no
llc_replacement drrip

Core_0_instructions 50000003
Core_0_cycles 127572814
Core_0_IPC 0.391933
Core_0_branch_prediction_accuracy 99.8672
Core_0_branch_MPKI 0.25084
Core_0_average_ROB_occupancy_at_mispredict 119.266

Core_0_ITLB_total_access 9659115
Core_0_ITLB_total_hit 9658853
Core_0_ITLB_total_miss 262
Core_0_ITLB_total_MPKI 0.00524
Core_0_ITLB_total_miss_rate 2.71246e-05
Core_0_ITLB_demand_access 9659115
Core_0_ITLB_demand_hit 9658853
Core_0_ITLB_demand_miss 262
Core_0_ITLB_demand_MPKI 0.00524
Core_0_ITLB_demand_miss_rate 2.71246e-05
Core_0_ITLB_load_access 9659115
Core_0_ITLB_load_hit 9658853
Core_0_ITLB_load_miss 262
Core_0_ITLB_load_MPKI 0.00524
Core_0_ITLB_load_miss_rate 2.71246e-05
Core_0_ITLB_rfo_access 0
Core_0_ITLB_rfo_hit 0
Core_0_ITLB_rfo_miss 0
Core_0_ITLB_rfo_MPKI 0
Core_0_ITLB_rfo_miss_rate 0
Core_0_ITLB_prefetch_access 0
Core_0_ITLB_prefetch_hit 0
Core_0_ITLB_prefetch_miss 0
Core_0_ITLB_prefetch_MPKI 0
Core_0_ITLB_prefetch_miss_rate 0
Core_0_ITLB_writeback_access 0
Core_0_ITLB_writeback_hit 0
Core_0_ITLB_writeback_miss 0
Core_0_ITLB_writeback_MPKI 0
Core_0_ITLB_writeback_miss_rate 0
Core_0_ITLB_prefetch_requested 0
Core_0_ITLB_prefetch_issued 0
Core_0_ITLB_prefetch_useful 0
Core_0_ITLB_prefetch_useless 0
Core_0_ITLB_prefetch_late 0
Core_0_ITLB_prefetch_accuracy 0
Core_0_ITLB_prefetch_coverage 0
Core_0_ITLB_total_eviction 0

Core_0_DTLB_total_access 12243501
Core_0_DTLB_total_hit 9807170
Core_0_DTLB_total_miss 2436331
Core_0_DTLB_total_MPKI 48.7266
Core_0_DTLB_total_miss_rate 0.19899
Core_0_DTLB_demand_access 12243501
Core_0_DTLB_demand_hit 9807170
Core_0_DTLB_demand_miss 2436331
Core_0_DTLB_demand_MPKI 48.7266
Core_0_DTLB_demand_miss_rate 0.19899
Core_0_DTLB_load_access 12243501
Core_0_DTLB_load_hit 9807170
Core_0_DTLB_load_miss 2436331
Core_0_DTLB_load_MPKI 48.7266
Core_0_DTLB_load_miss_rate 0.19899
Core_0_DTLB_rfo_access 0
Core_0_DTLB_rfo_hit 0
Core_0_DTLB_rfo_miss 0
Core_0_DTLB_rfo_MPKI 0
Core_0_DTLB_rfo_miss_rate 0
Core_0_DTLB_prefetch_access 0
Core_0_DTLB_prefetch_hit 0
Core_0_DTLB_prefetch_miss 0
Core_0_DTLB_prefetch_MPKI 0
Core_0_DTLB_prefetch_miss_rate 0
Core_0_DTLB_writeback_access 0
Core_0_DTLB_writeback_hit 0
Core_0_DTLB_writeback_miss 0
Core_0_DTLB_writeback_MPKI 0
Core_0_DTLB_writeback_miss_rate 0
Core_0_DTLB_prefetch_requested 0
Core_0_DTLB_prefetch_issued 0
Core_0_DTLB_prefetch_useful 0
Core_0_DTLB_prefetch_useless 0
Core_0_DTLB_prefetch_late 0
Core_0_DTLB_prefetch_accuracy 0
Core_0_DTLB_prefetch_coverage 0
Core_0_DTLB_total_eviction 0

Core_0_STLB_total_access 1499265
Core_0_STLB_total_hit 1499265
Core_0_STLB_total_miss 0
Core_0_STLB_total_MPKI 0
Core_0_STLB_total_miss_rate 0
Core_0_STLB_demand_access 1499265
Core_0_STLB_demand_hit 1499265
Core_0_STLB_demand_miss 0
Core_0_STLB_demand_MPKI 0
Core_0_STLB_demand_miss_rate 0
Core_0_STLB_load_access 1499265
Core_0_STLB_load_hit 1499265
Core_0_STLB_load_miss 0
Core_0_STLB_load_MPKI 0
Core_0_STLB_load_miss_rate 0
Core_0_STLB_rfo_access 0
Core_0_STLB_rfo_hit 0
Core_0_STLB_rfo_miss 0
Core_0_STLB_rfo_MPKI 0
Core_0_STLB_rfo_miss_rate 0
Core_0_STLB_prefetch_access 0
Core_0_STLB_prefetch_hit 0
Core_0_STLB_prefetch_miss 0
Core_0_STLB_prefetch_MPKI 0
Core_0_STLB_prefetch_miss_rate 0
Core_0_STLB_writeback_access 0
Core_0_STLB_writeback_hit 0
Core_0_STLB_writeback_miss 0
Core_0_STLB_writeback_MPKI 0
Core_0_STLB_writeback_miss_rate 0
Core_0_STLB_prefetch_requested 0
Core_0_STLB_prefetch_issued 0
Core_0_STLB_prefetch_useful 0
Core_0_STLB_prefetch_useless 0
Core_0_STLB_prefetch_late 0
Core_0_STLB_prefetch_accuracy 0
Core_0_STLB_prefetch_coverage 0
Core_0_STLB_total_eviction 0

Core_0_L1I_total_access 10989682
Core_0_L1I_total_hit 10988880
Core_0_L1I_total_miss 802
Core_0_L1I_total_MPKI 0.01604
Core_0_L1I_total_miss_rate 7.29775e-05
Core_0_L1I_demand_access 10989682
Core_0_L1I_demand_hit 10988880
Core_0_L1I_demand_miss 802
Core_0_L1I_demand_MPKI 0.01604
Core_0_L1I_demand_miss_rate 7.29775e-05
Core_0_L1I_load_access 10989682
Core_0_L1I_load_hit 10988880
Core_0_L1I_load_miss 802
Core_0_L1I_load_MPKI 0.01604
Core_0_L1I_load_miss_rate 7.29775e-05
Core_0_L1I_rfo_access 0
Core_0_L1I_rfo_hit 0
Core_0_L1I_rfo_miss 0
Core_0_L1I_rfo_MPKI 0
Core_0_L1I_rfo_miss_rate 0
Core_0_L1I_prefetch_access 0
Core_0_L1I_prefetch_hit 0
Core_0_L1I_prefetch_miss 0
Core_0_L1I_prefetch_MPKI 0
Core_0_L1I_prefetch_miss_rate 0
Core_0_L1I_writeback_access 0
Core_0_L1I_writeback_hit 0
Core_0_L1I_writeback_miss 0
Core_0_L1I_writeback_MPKI 0
Core_0_L1I_writeback_miss_rate 0
Core_0_L1I_prefetch_requested 0
Core_0_L1I_prefetch_issued 0
Core_0_L1I_prefetch_useful 0
Core_0_L1I_prefetch_useless 0
Core_0_L1I_prefetch_late 0
Core_0_L1I_prefetch_accuracy 0
Core_0_L1I_prefetch_coverage 0
Core_0_L1I_total_eviction 0

Core_0_L1D_total_access 12606370
Core_0_L1D_total_hit 5609036
Core_0_L1D_total_miss 6997334
Core_0_L1D_total_MPKI 139.947
Core_0_L1D_total_miss_rate 0.555063
Core_0_L1D_demand_access 10427544
Core_0_L1D_demand_hit 4438679
Core_0_L1D_demand_miss 5988865
Core_0_L1D_demand_MPKI 119.777
Core_0_L1D_demand_miss_rate 0.574331
Core_0_L1D_load_access 10427544
Core_0_L1D_load_hit 4438679
Core_0_L1D_load_miss 5988865
Core_0_L1D_load_MPKI 119.777
Core_0_L1D_load_miss_rate 0.574331
Core_0_L1D_rfo_access 0
Core_0_L1D_rfo_hit 0
Core_0_L1D_rfo_miss 0
Core_0_L1D_rfo_MPKI 0
Core_0_L1D_rfo_miss_rate 0
Core_0_L1D_prefetch_access 758501
Core_0_L1D_prefetch_hit 127322
Core_0_L1D_prefetch_miss 631179
Core_0_L1D_prefetch_MPKI 12.6236
Core_0_L1D_prefetch_miss_rate 0.83214
Core_0_L1D_writeback_access 1420325
Core_0_L1D_writeback_hit 1043035
Core_0_L1D_writeback_miss 377290
Core_0_L1D_writeback_MPKI 7.5458
Core_0_L1D_writeback_miss_rate 0.265636
Core_0_L1D_prefetch_requested 3558292
Core_0_L1D_prefetch_issued 758499
Core_0_L1D_prefetch_useful 218357
Core_0_L1D_prefetch_useless 383735
Core_0_L1D_prefetch_late 53673
Core_0_L1D_prefetch_accuracy 0.28788
Core_0_L1D_prefetch_coverage 0.0351779
Core_0_L1D_total_eviction 0

Core_0_L2C_total_access 11365497
Core_0_L2C_total_hit 1828528
Core_0_L2C_total_miss 9536969
Core_0_L2C_total_MPKI 190.739
Core_0_L2C_total_miss_rate 0.839116
Core_0_L2C_demand_access 5515775
Core_0_L2C_demand_hit 539936
Core_0_L2C_demand_miss 4975839
Core_0_L2C_demand_MPKI 99.5168
Core_0_L2C_demand_miss_rate 0.902111
Core_0_L2C_load_access 5309776
Core_0_L2C_load_hit 481251
Core_0_L2C_load_miss 4828525
Core_0_L2C_load_MPKI 96.5705
Core_0_L2C_load_miss_rate 0.909365
Core_0_L2C_rfo_access 205999
Core_0_L2C_rfo_hit 58685
Core_0_L2C_rfo_miss 147314
Core_0_L2C_rfo_MPKI 2.94628
Core_0_L2C_rfo_miss_rate 0.71512
Core_0_L2C_prefetch_access 4783917
Core_0_L2C_prefetch_hit 222791
Core_0_L2C_prefetch_miss 4561126
Core_0_L2C_prefetch_MPKI 91.2225
Core_0_L2C_prefetch_miss_rate 0.953429
Core_0_L2C_writeback_access 1065805
Core_0_L2C_writeback_hit 1065801
Core_0_L2C_writeback_miss 4
Core_0_L2C_writeback_MPKI 8e-05
Core_0_L2C_writeback_miss_rate 3.75303e-06
Core_0_L2C_prefetch_requested 4181768
Core_0_L2C_prefetch_issued 4181768
Core_0_L2C_prefetch_useful 409987
Core_0_L2C_prefetch_useless 138542
Core_0_L2C_prefetch_late 378274
Core_0_L2C_prefetch_accuracy 0.0980415
Core_0_L2C_prefetch_coverage 0.0761233
Core_0_L2C_total_eviction 0

Core_0_LLC_total_access 9737206
Core_0_LLC_total_hit 1347374
Core_0_LLC_total_miss 8389832
Core_0_LLC_total_MPKI 167.797
Core_0_LLC_total_miss_rate 0.861626
Core_0_LLC_demand_access 4597564
Core_0_LLC_demand_hit 327994
Core_0_LLC_demand_miss 4269570
Core_0_LLC_demand_MPKI 85.3914
Core_0_LLC_demand_miss_rate 0.928659
Core_0_LLC_load_access 4450251
Core_0_LLC_load_hit 256916
Core_0_LLC_load_miss 4193335
Core_0_LLC_load_MPKI 83.8667
Core_0_LLC_load_miss_rate 0.942269
Core_0_LLC_rfo_access 147313
Core_0_LLC_rfo_hit 71078
Core_0_LLC_rfo_miss 76235
Core_0_LLC_rfo_MPKI 1.5247
Core_0_LLC_rfo_miss_rate 0.517504
Core_0_LLC_prefetch_access 4118679
Core_0_LLC_prefetch_hit 170148
Core_0_LLC_prefetch_miss 3948531
Core_0_LLC_prefetch_MPKI 78.9706
Core_0_LLC_prefetch_miss_rate 0.958689
Core_0_LLC_writeback_access 1020963
Core_0_LLC_writeback_hit 849232
Core_0_LLC_writeback_miss 171731
Core_0_LLC_writeback_MPKI 3.43462
Core_0_LLC_writeback_miss_rate 0.168205
Core_0_LLC_prefetch_requested 0
Core_0_LLC_prefetch_issued 0
Core_0_LLC_prefetch_useful 0
Core_0_LLC_prefetch_useless 0
Core_0_LLC_prefetch_late 0
Core_0_LLC_prefetch_accuracy 0
Core_0_LLC_prefetch_coverage 0
Core_0_LLC_total_eviction 0

[DRAM Statistics]
Channel_0_RQ_row_buffer_hit 1678754
Channel_0_RQ_row_buffer_miss 3607302
Channel_0_WQ_row_buffer_hit 155085
Channel_0_WQ_row_buffer_miss 861019
Channel_0_WQ_full 0
Channel_0_dbus_congested 18173616
DRAM_total_RQ_row_buffer_hit 1678754
DRAM_total_RQ_row_buffer_miss 3607302
DRAM_total_WQ_row_buffer_hit 155085
DRAM_total_WQ_row_buffer_miss 861019
DRAM_total_WQ_full 0
DRAM_total_dbus_congested 18173616
DRAM_avg_congested_cycle 4.80948

======STLB miss causes ========
Core_0_STLB_miss_cause_breakdown
Core_0_STLB_cause_Demand_Data_miss 0
Core_0_STLB_cause_Demand_Data_miss_rate 0
Core_0_STLB_cause_Demand_Instruction_miss 0
Core_0_STLB_cause_Demand_Instruction_miss_rate 0
Core_0_STLB_cause_L1D_Prefetch_miss 0
Core_0_STLB_cause_L1D_Prefetch_miss_rate 0
Core_0_STLB_cause_L1I_Prefetch_miss 0
Core_0_STLB_cause_L1I_Prefetch_miss_rate 0
Core_0_STLB_cause_Other_miss 0
Core_0_STLB_cause_Other_miss_rate 0
Core_0_STLB_Demand_miss 0
Core_0_STLB_Demand_miss_rate 0
Core_0_STLB_L1D_Prefetch_miss 0
Core_0_STLB_L1D_Prefetch_miss_rate 0
Core_0_STLB_Other_miss 0
Core_0_STLB_Other_miss_rate 0
