[VMEM] WARNING: physical memory size is smaller than virtual memory size.

*** ChampSim Multicore Out-of-Order Simulator ***
Warmup Instructions: 20000000
Simulation Instructions: 50000000
Number of CPUs: 1
Page size: 4096
STLB ideal mode: all
STLB ideal fill: on
Core 0: /data0/tzh/champsim_traces/QMM/compute_int_38_new.xz
 L1D Berti prefetcher
Off-chip DRAM Size: 16 GiB Channels: 1 Width: 64-bit Data Rate: 3205 MT/s
Warmup halting CPU 0 at instruction 20000001 cycle 4575292 for remainder of phase
Warmup finished CPU 0 instructions: 20000001 cycles: 4575292 cumulative IPC: 4.371 (Simulation time: 00 hr 01 min 09 sec)
Warmup complete CPU 0 instructions: 20000001 cycles: 4575292 cumulative IPC: 4.371 (Simulation time: 00 hr 01 min 09 sec)
*** Reached end of trace: (0, "/data0/tzh/champsim_traces/QMM/compute_int_38_new.xz")
*** Reached end of trace: (0, "/data0/tzh/champsim_traces/QMM/compute_int_38_new.xz")
Simulation finished CPU 0 instructions: 50000000 cycles: 68074980 cumulative IPC: 0.7345 (Simulation time: 00 hr 08 min 38 sec)
Simulation complete CPU 0 instructions: 50000000 cycles: 68074980 cumulative IPC: 0.7345 (Simulation time: 00 hr 08 min 38 sec)

ChampSim completed all CPUs

=== Simulation ===
CPU 0 runs /data0/tzh/champsim_traces/QMM/compute_int_38_new.xz

Region of Interest Statistics

CPU 0 cumulative IPC: 0.7345 instructions: 50000000 cycles: 68074980
CPU 0 Branch Prediction Accuracy: 97.94% MPKI: 4.136 Average ROB Occupancy at Mispredict: 95.5
Branch type MPKI
BRANCH_DIRECT_JUMP: 0.00016
BRANCH_INDIRECT: 0.1165
BRANCH_CONDITIONAL: 3.858
BRANCH_DIRECT_CALL: 0.0004
BRANCH_INDIRECT_CALL: 0.1608
BRANCH_RETURN: 0.00018

cpu0->cpu0_STLB TOTAL        ACCESS:    1014248 HIT:    1014248 MISS:          0 MSHR_MERGE:          0
cpu0->cpu0_STLB LOAD         ACCESS:    1014248 HIT:    1014248 MISS:          0 MSHR_MERGE:          0
cpu0->cpu0_STLB RFO          ACCESS:          0 HIT:          0 MISS:          0 MSHR_MERGE:          0
cpu0->cpu0_STLB PREFETCH     ACCESS:          0 HIT:          0 MISS:          0 MSHR_MERGE:          0
cpu0->cpu0_STLB WRITE        ACCESS:          0 HIT:          0 MISS:          0 MSHR_MERGE:          0
cpu0->cpu0_STLB TRANSLATION  ACCESS:          0 HIT:          0 MISS:          0 MSHR_MERGE:          0
cpu0->cpu0_STLB PREFETCH REQUESTED:          0 ISSUED:          0 USEFUL:          0 USELESS:          0 LATE:          0
cpu0->cpu0_STLB AVERAGE MISS LATENCY: - cycles
cpu0->cpu0_L2C TOTAL        ACCESS:    1769658 HIT:     874993 MISS:     894665 MSHR_MERGE:      10661
cpu0->cpu0_L2C LOAD         ACCESS:     765528 HIT:     264196 MISS:     501332 MSHR_MERGE:        700
cpu0->cpu0_L2C RFO          ACCESS:     132450 HIT:      41562 MISS:      90888 MSHR_MERGE:          0
cpu0->cpu0_L2C PREFETCH     ACCESS:     374755 HIT:      73047 MISS:     301708 MSHR_MERGE:       9961
cpu0->cpu0_L2C WRITE        ACCESS:     496925 HIT:     496188 MISS:        737 MSHR_MERGE:          0
cpu0->cpu0_L2C TRANSLATION  ACCESS:          0 HIT:          0 MISS:          0 MSHR_MERGE:          0
cpu0->cpu0_L2C PREFETCH REQUESTED:      34014 ISSUED:      34014 USEFUL:       8399 USELESS:      12270 LATE:        700
cpu0->cpu0_L2C AVERAGE MISS LATENCY: 164.1 cycles
cpu0->cpu0_L1I TOTAL        ACCESS:    7762130 HIT:    7742342 MISS:      19788 MSHR_MERGE:       5727
cpu0->cpu0_L1I LOAD         ACCESS:    7762130 HIT:    7742342 MISS:      19788 MSHR_MERGE:       5727
cpu0->cpu0_L1I RFO          ACCESS:          0 HIT:          0 MISS:          0 MSHR_MERGE:          0
cpu0->cpu0_L1I PREFETCH     ACCESS:          0 HIT:          0 MISS:          0 MSHR_MERGE:          0
cpu0->cpu0_L1I WRITE        ACCESS:          0 HIT:          0 MISS:          0 MSHR_MERGE:          0
cpu0->cpu0_L1I TRANSLATION  ACCESS:          0 HIT:          0 MISS:          0 MSHR_MERGE:          0
cpu0->cpu0_L1I PREFETCH REQUESTED:          0 ISSUED:          0 USEFUL:          0 USELESS:          0 LATE:          0
cpu0->cpu0_L1I AVERAGE MISS LATENCY: 29.25 cycles
cpu0->cpu0_L1D TOTAL        ACCESS:   15276411 HIT:   13559313 MISS:    1717098 MSHR_MERGE:     492412
cpu0->cpu0_L1D LOAD         ACCESS:    8233519 HIT:    7214963 MISS:    1018556 MSHR_MERGE:     267083
cpu0->cpu0_L1D RFO          ACCESS:          0 HIT:          0 MISS:          0 MSHR_MERGE:          0
cpu0->cpu0_L1D PREFETCH     ACCESS:     908871 HIT:     552231 MISS:     356640 MSHR_MERGE:      15898
cpu0->cpu0_L1D WRITE        ACCESS:    6134021 HIT:    5792119 MISS:     341902 MSHR_MERGE:     209431
cpu0->cpu0_L1D TRANSLATION  ACCESS:          0 HIT:          0 MISS:          0 MSHR_MERGE:          0
cpu0->cpu0_L1D PREFETCH REQUESTED:     937245 ISSUED:     908867 USEFUL:     104444 USELESS:     236225 LATE:      20821
cpu0->cpu0_L1D AVERAGE MISS LATENCY: 118.2 cycles
cpu0->cpu0_ITLB TOTAL        ACCESS:    6670549 HIT:    6628292 MISS:      42257 MSHR_MERGE:      25209
cpu0->cpu0_ITLB LOAD         ACCESS:    6670549 HIT:    6628292 MISS:      42257 MSHR_MERGE:      25209
cpu0->cpu0_ITLB RFO          ACCESS:          0 HIT:          0 MISS:          0 MSHR_MERGE:          0
cpu0->cpu0_ITLB PREFETCH     ACCESS:          0 HIT:          0 MISS:          0 MSHR_MERGE:          0
cpu0->cpu0_ITLB WRITE        ACCESS:          0 HIT:          0 MISS:          0 MSHR_MERGE:          0
cpu0->cpu0_ITLB TRANSLATION  ACCESS:          0 HIT:          0 MISS:          0 MSHR_MERGE:          0
cpu0->cpu0_ITLB PREFETCH REQUESTED:          0 ISSUED:          0 USEFUL:          0 USELESS:          0 LATE:          0
cpu0->cpu0_ITLB AVERAGE MISS LATENCY: 5.022 cycles
cpu0->cpu0_DTLB TOTAL        ACCESS:   14374548 HIT:   13111165 MISS:    1263383 MSHR_MERGE:     266183
cpu0->cpu0_DTLB LOAD         ACCESS:   14374548 HIT:   13111165 MISS:    1263383 MSHR_MERGE:     266183
cpu0->cpu0_DTLB RFO          ACCESS:          0 HIT:          0 MISS:          0 MSHR_MERGE:          0
cpu0->cpu0_DTLB PREFETCH     ACCESS:          0 HIT:          0 MISS:          0 MSHR_MERGE:          0
cpu0->cpu0_DTLB WRITE        ACCESS:          0 HIT:          0 MISS:          0 MSHR_MERGE:          0
cpu0->cpu0_DTLB TRANSLATION  ACCESS:          0 HIT:          0 MISS:          0 MSHR_MERGE:          0
cpu0->cpu0_DTLB PREFETCH REQUESTED:          0 ISSUED:          0 USEFUL:          0 USELESS:          0 LATE:          0
cpu0->cpu0_DTLB AVERAGE MISS LATENCY: 5.004 cycles
cpu0->LLC TOTAL        ACCESS:    1228925 HIT:     521030 MISS:     707895 MSHR_MERGE:          4
cpu0->LLC LOAD         ACCESS:     500632 HIT:     130642 MISS:     369990 MSHR_MERGE:          0
cpu0->LLC RFO          ACCESS:      90888 HIT:      37545 MISS:      53343 MSHR_MERGE:          0
cpu0->LLC PREFETCH     ACCESS:     291747 HIT:      33343 MISS:     258404 MSHR_MERGE:          4
cpu0->LLC WRITE        ACCESS:     345658 HIT:     319500 MISS:      26158 MSHR_MERGE:          0
cpu0->LLC TRANSLATION  ACCESS:          0 HIT:          0 MISS:          0 MSHR_MERGE:          0
cpu0->LLC PREFETCH REQUESTED:          0 ISSUED:          0 USEFUL:          0 USELESS:          0 LATE:          0
cpu0->LLC AVERAGE MISS LATENCY: 196.2 cycles

DRAM Statistics

Channel 0 RQ ROW_BUFFER_HIT:       7187
  ROW_BUFFER_MISS:     674471
  AVG DBUS CONGESTED CYCLE: 11.47
Channel 0 WQ ROW_BUFFER_HIT:      68067
  ROW_BUFFER_MISS:     173352
  FULL:          0
Channel 0 REFRESHES ISSUED:       5673

[ROI Statistics]
[System Configuration]
num_cpus 1
cpu_freq 4000
fetch_width 6
decode_width 6
dispatch_width 6
execute_width 6
lq_width 2
sq_width 2
retire_width 6
scheduler_size 128
branch_mispredict_penalty 15
rob_size 352
lq_size 128
sq_size 72
ifetch_buffer_size 64
decode_buffer_size 32
dispatch_buffer_size 32
register_file_size 288
decode_latency 1
dispatch_latency 1
schedule_latency 1
execute_latency 1
page_size 4096
block_size 64
core_0_itlb_set 16
core_0_itlb_way 4
core_0_itlb_rq_size 16
core_0_itlb_wq_size 16
core_0_itlb_pq_size 0
core_0_itlb_mshr_size 8
core_0_itlb_hit_latency 1
core_0_itlb_fill_latency 1
core_0_itlb_max_tag_check 2
core_0_itlb_max_fill 2
core_0_dtlb_set 16
core_0_dtlb_way 4
core_0_dtlb_rq_size 16
core_0_dtlb_wq_size 16
core_0_dtlb_pq_size 0
core_0_dtlb_mshr_size 8
core_0_dtlb_hit_latency 1
core_0_dtlb_fill_latency 1
core_0_dtlb_max_tag_check 2
core_0_dtlb_max_fill 2
core_0_stlb_set 128
core_0_stlb_way 12
core_0_stlb_rq_size 32
core_0_stlb_wq_size 32
core_0_stlb_pq_size 0
core_0_stlb_mshr_size 16
core_0_stlb_hit_latency 4
core_0_stlb_fill_latency 4
core_0_stlb_max_tag_check 1
core_0_stlb_max_fill 1
core_0_l1i_set 64
core_0_l1i_way 8
core_0_l1i_rq_size 64
core_0_l1i_wq_size 64
core_0_l1i_pq_size 32
core_0_l1i_mshr_size 8
core_0_l1i_hit_latency 2
core_0_l1i_fill_latency 2
core_0_l1i_max_tag_check 2
core_0_l1i_max_fill 2
core_0_l1d_set 64
core_0_l1d_way 12
core_0_l1d_rq_size 64
core_0_l1d_wq_size 64
core_0_l1d_pq_size 8
core_0_l1d_mshr_size 16
core_0_l1d_hit_latency 2
core_0_l1d_fill_latency 3
core_0_l1d_max_tag_check 2
core_0_l1d_max_fill 2
core_0_l2c_set 1024
core_0_l2c_way 8
core_0_l2c_rq_size 32
core_0_l2c_wq_size 32
core_0_l2c_pq_size 16
core_0_l2c_mshr_size 32
core_0_l2c_hit_latency 5
core_0_l2c_fill_latency 5
core_0_l2c_max_tag_check 1
core_0_l2c_max_fill 1
llc_set 2048
llc_way 16
llc_rq_size 32
llc_wq_size 32
llc_pq_size 32
llc_mshr_size 64
llc_hit_latency 10
llc_fill_latency 10
llc_max_tag_check 1
llc_max_fill 1
dram_channels 1
dram_ranks 1
dram_bankgroups 8
dram_banks 4
dram_rows 65536
dram_columns 1024
dram_channel_width 8
dram_rq_size 64
dram_wq_size 64
dram_size 17179869184
core_0_itlb_prefetcher no
core_0_dtlb_prefetcher no
core_0_stlb_prefetcher no
core_0_l1i_prefetcher next_line
core_0_l1d_prefetcher berti
core_0_l2c_prefetcher ip_stride
llc_prefetcher no
llc_replacement drrip

Core_0_instructions 50000000
Core_0_cycles 68074980
Core_0_IPC 0.734484
Core_0_branch_prediction_accuracy 97.9436
Core_0_branch_MPKI 4.13588
Core_0_average_ROB_occupancy_at_mispredict 95.4981

Core_0_ITLB_total_access 6670549
Core_0_ITLB_total_hit 6628292
Core_0_ITLB_total_miss 42257
Core_0_ITLB_total_MPKI 0.84514
Core_0_ITLB_total_miss_rate 0.00633486
Core_0_ITLB_demand_access 6670549
Core_0_ITLB_demand_hit 6628292
Core_0_ITLB_demand_miss 42257
Core_0_ITLB_demand_MPKI 0.84514
Core_0_ITLB_demand_miss_rate 0.00633486
Core_0_ITLB_load_access 6670549
Core_0_ITLB_load_hit 6628292
Core_0_ITLB_load_miss 42257
Core_0_ITLB_load_MPKI 0.84514
Core_0_ITLB_load_miss_rate 0.00633486
Core_0_ITLB_rfo_access 0
Core_0_ITLB_rfo_hit 0
Core_0_ITLB_rfo_miss 0
Core_0_ITLB_rfo_MPKI 0
Core_0_ITLB_rfo_miss_rate 0
Core_0_ITLB_prefetch_access 0
Core_0_ITLB_prefetch_hit 0
Core_0_ITLB_prefetch_miss 0
Core_0_ITLB_prefetch_MPKI 0
Core_0_ITLB_prefetch_miss_rate 0
Core_0_ITLB_writeback_access 0
Core_0_ITLB_writeback_hit 0
Core_0_ITLB_writeback_miss 0
Core_0_ITLB_writeback_MPKI 0
Core_0_ITLB_writeback_miss_rate 0
Core_0_ITLB_prefetch_requested 0
Core_0_ITLB_prefetch_issued 0
Core_0_ITLB_prefetch_useful 0
Core_0_ITLB_prefetch_useless 0
Core_0_ITLB_prefetch_late 0
Core_0_ITLB_prefetch_accuracy 0
Core_0_ITLB_prefetch_coverage 0
Core_0_ITLB_total_eviction 0

Core_0_DTLB_total_access 14374548
Core_0_DTLB_total_hit 13111165
Core_0_DTLB_total_miss 1263383
Core_0_DTLB_total_MPKI 25.2677
Core_0_DTLB_total_miss_rate 0.0878903
Core_0_DTLB_demand_access 14374548
Core_0_DTLB_demand_hit 13111165
Core_0_DTLB_demand_miss 1263383
Core_0_DTLB_demand_MPKI 25.2677
Core_0_DTLB_demand_miss_rate 0.0878903
Core_0_DTLB_load_access 14374548
Core_0_DTLB_load_hit 13111165
Core_0_DTLB_load_miss 1263383
Core_0_DTLB_load_MPKI 25.2677
Core_0_DTLB_load_miss_rate 0.0878903
Core_0_DTLB_rfo_access 0
Core_0_DTLB_rfo_hit 0
Core_0_DTLB_rfo_miss 0
Core_0_DTLB_rfo_MPKI 0
Core_0_DTLB_rfo_miss_rate 0
Core_0_DTLB_prefetch_access 0
Core_0_DTLB_prefetch_hit 0
Core_0_DTLB_prefetch_miss 0
Core_0_DTLB_prefetch_MPKI 0
Core_0_DTLB_prefetch_miss_rate 0
Core_0_DTLB_writeback_access 0
Core_0_DTLB_writeback_hit 0
Core_0_DTLB_writeback_miss 0
Core_0_DTLB_writeback_MPKI 0
Core_0_DTLB_writeback_miss_rate 0
Core_0_DTLB_prefetch_requested 0
Core_0_DTLB_prefetch_issued 0
Core_0_DTLB_prefetch_useful 0
Core_0_DTLB_prefetch_useless 0
Core_0_DTLB_prefetch_late 0
Core_0_DTLB_prefetch_accuracy 0
Core_0_DTLB_prefetch_coverage 0
Core_0_DTLB_total_eviction 0

Core_0_STLB_total_access 1014248
Core_0_STLB_total_hit 1014248
Core_0_STLB_total_miss 0
Core_0_STLB_total_MPKI 0
Core_0_STLB_total_miss_rate 0
Core_0_STLB_demand_access 1014248
Core_0_STLB_demand_hit 1014248
Core_0_STLB_demand_miss 0
Core_0_STLB_demand_MPKI 0
Core_0_STLB_demand_miss_rate 0
Core_0_STLB_load_access 1014248
Core_0_STLB_load_hit 1014248
Core_0_STLB_load_miss 0
Core_0_STLB_load_MPKI 0
Core_0_STLB_load_miss_rate 0
Core_0_STLB_rfo_access 0
Core_0_STLB_rfo_hit 0
Core_0_STLB_rfo_miss 0
Core_0_STLB_rfo_MPKI 0
Core_0_STLB_rfo_miss_rate 0
Core_0_STLB_prefetch_access 0
Core_0_STLB_prefetch_hit 0
Core_0_STLB_prefetch_miss 0
Core_0_STLB_prefetch_MPKI 0
Core_0_STLB_prefetch_miss_rate 0
Core_0_STLB_writeback_access 0
Core_0_STLB_writeback_hit 0
Core_0_STLB_writeback_miss 0
Core_0_STLB_writeback_MPKI 0
Core_0_STLB_writeback_miss_rate 0
Core_0_STLB_prefetch_requested 0
Core_0_STLB_prefetch_issued 0
Core_0_STLB_prefetch_useful 0
Core_0_STLB_prefetch_useless 0
Core_0_STLB_prefetch_late 0
Core_0_STLB_prefetch_accuracy 0
Core_0_STLB_prefetch_coverage 0
Core_0_STLB_total_eviction 0

Core_0_L1I_total_access 7762130
Core_0_L1I_total_hit 7742342
Core_0_L1I_total_miss 19788
Core_0_L1I_total_MPKI 0.39576
Core_0_L1I_total_miss_rate 0.0025493
Core_0_L1I_demand_access 7762130
Core_0_L1I_demand_hit 7742342
Core_0_L1I_demand_miss 19788
Core_0_L1I_demand_MPKI 0.39576
Core_0_L1I_demand_miss_rate 0.0025493
Core_0_L1I_load_access 7762130
Core_0_L1I_load_hit 7742342
Core_0_L1I_load_miss 19788
Core_0_L1I_load_MPKI 0.39576
Core_0_L1I_load_miss_rate 0.0025493
Core_0_L1I_rfo_access 0
Core_0_L1I_rfo_hit 0
Core_0_L1I_rfo_miss 0
Core_0_L1I_rfo_MPKI 0
Core_0_L1I_rfo_miss_rate 0
Core_0_L1I_prefetch_access 0
Core_0_L1I_prefetch_hit 0
Core_0_L1I_prefetch_miss 0
Core_0_L1I_prefetch_MPKI 0
Core_0_L1I_prefetch_miss_rate 0
Core_0_L1I_writeback_access 0
Core_0_L1I_writeback_hit 0
Core_0_L1I_writeback_miss 0
Core_0_L1I_writeback_MPKI 0
Core_0_L1I_writeback_miss_rate 0
Core_0_L1I_prefetch_requested 0
Core_0_L1I_prefetch_issued 0
Core_0_L1I_prefetch_useful 0
Core_0_L1I_prefetch_useless 0
Core_0_L1I_prefetch_late 0
Core_0_L1I_prefetch_accuracy 0
Core_0_L1I_prefetch_coverage 0
Core_0_L1I_total_eviction 0

Core_0_L1D_total_access 15276411
Core_0_L1D_total_hit 13559313
Core_0_L1D_total_miss 1717098
Core_0_L1D_total_MPKI 34.342
Core_0_L1D_total_miss_rate 0.112402
Core_0_L1D_demand_access 8233519
Core_0_L1D_demand_hit 7214963
Core_0_L1D_demand_miss 1018556
Core_0_L1D_demand_MPKI 20.3711
Core_0_L1D_demand_miss_rate 0.123708
Core_0_L1D_load_access 8233519
Core_0_L1D_load_hit 7214963
Core_0_L1D_load_miss 1018556
Core_0_L1D_load_MPKI 20.3711
Core_0_L1D_load_miss_rate 0.123708
Core_0_L1D_rfo_access 0
Core_0_L1D_rfo_hit 0
Core_0_L1D_rfo_miss 0
Core_0_L1D_rfo_MPKI 0
Core_0_L1D_rfo_miss_rate 0
Core_0_L1D_prefetch_access 908871
Core_0_L1D_prefetch_hit 552231
Core_0_L1D_prefetch_miss 356640
Core_0_L1D_prefetch_MPKI 7.1328
Core_0_L1D_prefetch_miss_rate 0.392399
Core_0_L1D_writeback_access 6134021
Core_0_L1D_writeback_hit 5792119
Core_0_L1D_writeback_miss 341902
Core_0_L1D_writeback_MPKI 6.83804
Core_0_L1D_writeback_miss_rate 0.0557386
Core_0_L1D_prefetch_requested 937245
Core_0_L1D_prefetch_issued 908867
Core_0_L1D_prefetch_useful 104444
Core_0_L1D_prefetch_useless 236225
Core_0_L1D_prefetch_late 20821
Core_0_L1D_prefetch_accuracy 0.114917
Core_0_L1D_prefetch_coverage 0.0930045
Core_0_L1D_total_eviction 0

Core_0_L2C_total_access 1769658
Core_0_L2C_total_hit 874993
Core_0_L2C_total_miss 894665
Core_0_L2C_total_MPKI 17.8933
Core_0_L2C_total_miss_rate 0.505558
Core_0_L2C_demand_access 897978
Core_0_L2C_demand_hit 305758
Core_0_L2C_demand_miss 592220
Core_0_L2C_demand_MPKI 11.8444
Core_0_L2C_demand_miss_rate 0.659504
Core_0_L2C_load_access 765528
Core_0_L2C_load_hit 264196
Core_0_L2C_load_miss 501332
Core_0_L2C_load_MPKI 10.0266
Core_0_L2C_load_miss_rate 0.654884
Core_0_L2C_rfo_access 132450
Core_0_L2C_rfo_hit 41562
Core_0_L2C_rfo_miss 90888
Core_0_L2C_rfo_MPKI 1.81776
Core_0_L2C_rfo_miss_rate 0.686206
Core_0_L2C_prefetch_access 374755
Core_0_L2C_prefetch_hit 73047
Core_0_L2C_prefetch_miss 301708
Core_0_L2C_prefetch_MPKI 6.03416
Core_0_L2C_prefetch_miss_rate 0.805081
Core_0_L2C_writeback_access 496925
Core_0_L2C_writeback_hit 496188
Core_0_L2C_writeback_miss 737
Core_0_L2C_writeback_MPKI 0.01474
Core_0_L2C_writeback_miss_rate 0.00148312
Core_0_L2C_prefetch_requested 34014
Core_0_L2C_prefetch_issued 34014
Core_0_L2C_prefetch_useful 8399
Core_0_L2C_prefetch_useless 12270
Core_0_L2C_prefetch_late 700
Core_0_L2C_prefetch_accuracy 0.246928
Core_0_L2C_prefetch_coverage 0.0139839
Core_0_L2C_total_eviction 0

Core_0_LLC_total_access 1228925
Core_0_LLC_total_hit 521030
Core_0_LLC_total_miss 707895
Core_0_LLC_total_MPKI 14.1579
Core_0_LLC_total_miss_rate 0.576028
Core_0_LLC_demand_access 591520
Core_0_LLC_demand_hit 168187
Core_0_LLC_demand_miss 423333
Core_0_LLC_demand_MPKI 8.46666
Core_0_LLC_demand_miss_rate 0.71567
Core_0_LLC_load_access 500632
Core_0_LLC_load_hit 130642
Core_0_LLC_load_miss 369990
Core_0_LLC_load_MPKI 7.3998
Core_0_LLC_load_miss_rate 0.739046
Core_0_LLC_rfo_access 90888
Core_0_LLC_rfo_hit 37545
Core_0_LLC_rfo_miss 53343
Core_0_LLC_rfo_MPKI 1.06686
Core_0_LLC_rfo_miss_rate 0.586909
Core_0_LLC_prefetch_access 291747
Core_0_LLC_prefetch_hit 33343
Core_0_LLC_prefetch_miss 258404
Core_0_LLC_prefetch_MPKI 5.16808
Core_0_LLC_prefetch_miss_rate 0.885713
Core_0_LLC_writeback_access 345658
Core_0_LLC_writeback_hit 319500
Core_0_LLC_writeback_miss 26158
Core_0_LLC_writeback_MPKI 0.52316
Core_0_LLC_writeback_miss_rate 0.075676
Core_0_LLC_prefetch_requested 0
Core_0_LLC_prefetch_issued 0
Core_0_LLC_prefetch_useful 0
Core_0_LLC_prefetch_useless 0
Core_0_LLC_prefetch_late 0
Core_0_LLC_prefetch_accuracy 0
Core_0_LLC_prefetch_coverage 0
Core_0_LLC_total_eviction 0

[DRAM Statistics]
Channel_0_RQ_row_buffer_hit 7187
Channel_0_RQ_row_buffer_miss 674471
Channel_0_WQ_row_buffer_hit 68067
Channel_0_WQ_row_buffer_miss 173352
Channel_0_WQ_full 0
Channel_0_dbus_congested 2391386
DRAM_total_RQ_row_buffer_hit 7187
DRAM_total_RQ_row_buffer_miss 674471
DRAM_total_WQ_row_buffer_hit 68067
DRAM_total_WQ_row_buffer_miss 173352
DRAM_total_WQ_full 0
DRAM_total_dbus_congested 2391386
DRAM_avg_congested_cycle 11.4664

======STLB miss causes ========
Core_0_STLB_miss_cause_breakdown
Core_0_STLB_cause_Demand_Data_miss 0
Core_0_STLB_cause_Demand_Data_miss_rate 0
Core_0_STLB_cause_Demand_Instruction_miss 0
Core_0_STLB_cause_Demand_Instruction_miss_rate 0
Core_0_STLB_cause_L1D_Prefetch_miss 0
Core_0_STLB_cause_L1D_Prefetch_miss_rate 0
Core_0_STLB_cause_L1I_Prefetch_miss 0
Core_0_STLB_cause_L1I_Prefetch_miss_rate 0
Core_0_STLB_cause_Other_miss 0
Core_0_STLB_cause_Other_miss_rate 0
Core_0_STLB_Demand_miss 0
Core_0_STLB_Demand_miss_rate 0
Core_0_STLB_L1D_Prefetch_miss 0
Core_0_STLB_L1D_Prefetch_miss_rate 0
Core_0_STLB_Other_miss 0
Core_0_STLB_Other_miss_rate 0
