[VMEM] WARNING: physical memory size is smaller than virtual memory size.

*** ChampSim Multicore Out-of-Order Simulator ***
Warmup Instructions: 20000000
Simulation Instructions: 50000000
Number of CPUs: 1
Page size: 4096
STLB ideal mode: all
STLB ideal fill: on
Core 0: /data0/tzh/champsim_traces/QMM/srv_7_new.xz
 L1D Berti prefetcher
Off-chip DRAM Size: 16 GiB Channels: 1 Width: 64-bit Data Rate: 3205 MT/s
[BTB] WARNING: target of return is a lower address than the corresponding call. This is usually a problem with your trace.
[BTB] WARNING: target of return is a lower address than the corresponding call. This is usually a problem with your trace.
[BTB] WARNING: target of return is a lower address than the corresponding call. This is usually a problem with your trace.
[BTB] WARNING: target of return is a lower address than the corresponding call. This is usually a problem with your trace.
[BTB] WARNING: target of return is a lower address than the corresponding call. This is usually a problem with your trace.
[BTB] WARNING: target of return is a lower address than the corresponding call. This is usually a problem with your trace.
[BTB] WARNING: target of return is a lower address than the corresponding call. This is usually a problem with your trace.
[BTB] WARNING: target of return is a lower address than the corresponding call. This is usually a problem with your trace.
[BTB] WARNING: target of return is a lower address than the corresponding call. This is usually a problem with your trace.
[BTB] WARNING: target of return is a lower address than the corresponding call. This is usually a problem with your trace.
Warmup halting CPU 0 at instruction 20000002 cycle 4123507 for remainder of phase
Warmup finished CPU 0 instructions: 20000002 cycles: 4123507 cumulative IPC: 4.85 (Simulation time: 00 hr 01 min 06 sec)
Warmup complete CPU 0 instructions: 20000002 cycles: 4123507 cumulative IPC: 4.85 (Simulation time: 00 hr 01 min 06 sec)
*** Reached end of trace: (0, "/data0/tzh/champsim_traces/QMM/srv_7_new.xz")
*** Reached end of trace: (0, "/data0/tzh/champsim_traces/QMM/srv_7_new.xz")
Simulation finished CPU 0 instructions: 50000003 cycles: 27639998 cumulative IPC: 1.809 (Simulation time: 00 hr 05 min 09 sec)
Simulation complete CPU 0 instructions: 50000003 cycles: 27639998 cumulative IPC: 1.809 (Simulation time: 00 hr 05 min 09 sec)

ChampSim completed all CPUs

=== Simulation ===
CPU 0 runs /data0/tzh/champsim_traces/QMM/srv_7_new.xz

Region of Interest Statistics

CPU 0 cumulative IPC: 1.809 instructions: 50000003 cycles: 27639998
CPU 0 Branch Prediction Accuracy: 98.01% MPKI: 3.582 Average ROB Occupancy at Mispredict: 92.14
Branch type MPKI
BRANCH_DIRECT_JUMP: 0.2888
BRANCH_INDIRECT: 0.2025
BRANCH_CONDITIONAL: 2.041
BRANCH_DIRECT_CALL: 0.5089
BRANCH_INDIRECT_CALL: 0.1103
BRANCH_RETURN: 0.4312

cpu0->cpu0_STLB TOTAL        ACCESS:     796282 HIT:     796282 MISS:          0 MSHR_MERGE:          0
cpu0->cpu0_STLB LOAD         ACCESS:     796282 HIT:     796282 MISS:          0 MSHR_MERGE:          0
cpu0->cpu0_STLB RFO          ACCESS:          0 HIT:          0 MISS:          0 MSHR_MERGE:          0
cpu0->cpu0_STLB PREFETCH     ACCESS:          0 HIT:          0 MISS:          0 MSHR_MERGE:          0
cpu0->cpu0_STLB WRITE        ACCESS:          0 HIT:          0 MISS:          0 MSHR_MERGE:          0
cpu0->cpu0_STLB TRANSLATION  ACCESS:          0 HIT:          0 MISS:          0 MSHR_MERGE:          0
cpu0->cpu0_STLB PREFETCH REQUESTED:          0 ISSUED:          0 USEFUL:          0 USELESS:          0 LATE:          0
cpu0->cpu0_STLB AVERAGE MISS LATENCY: - cycles
cpu0->cpu0_L2C TOTAL        ACCESS:    2387844 HIT:    1390294 MISS:     997550 MSHR_MERGE:      14904
cpu0->cpu0_L2C LOAD         ACCESS:    1747606 HIT:     984831 MISS:     762775 MSHR_MERGE:        100
cpu0->cpu0_L2C RFO          ACCESS:      81794 HIT:      35631 MISS:      46163 MSHR_MERGE:         41
cpu0->cpu0_L2C PREFETCH     ACCESS:     292067 HIT:     104614 MISS:     187453 MSHR_MERGE:      14763
cpu0->cpu0_L2C WRITE        ACCESS:     266377 HIT:     265218 MISS:       1159 MSHR_MERGE:          0
cpu0->cpu0_L2C TRANSLATION  ACCESS:          0 HIT:          0 MISS:          0 MSHR_MERGE:          0
cpu0->cpu0_L2C PREFETCH REQUESTED:      47096 ISSUED:      47076 USEFUL:      16116 USELESS:       7214 LATE:        141
cpu0->cpu0_L2C AVERAGE MISS LATENCY: 27.86 cycles
cpu0->cpu0_L1I TOTAL        ACCESS:    7790966 HIT:    5754645 MISS:    2036321 MSHR_MERGE:     761375
cpu0->cpu0_L1I LOAD         ACCESS:    7790966 HIT:    5754645 MISS:    2036321 MSHR_MERGE:     761375
cpu0->cpu0_L1I RFO          ACCESS:          0 HIT:          0 MISS:          0 MSHR_MERGE:          0
cpu0->cpu0_L1I PREFETCH     ACCESS:          0 HIT:          0 MISS:          0 MSHR_MERGE:          0
cpu0->cpu0_L1I WRITE        ACCESS:          0 HIT:          0 MISS:          0 MSHR_MERGE:          0
cpu0->cpu0_L1I TRANSLATION  ACCESS:          0 HIT:          0 MISS:          0 MSHR_MERGE:          0
cpu0->cpu0_L1I PREFETCH REQUESTED:          0 ISSUED:          0 USEFUL:          0 USELESS:          0 LATE:          0
cpu0->cpu0_L1I AVERAGE MISS LATENCY: 15.25 cycles
cpu0->cpu0_L1D TOTAL        ACCESS:   11949571 HIT:   10837589 MISS:    1111982 MSHR_MERGE:     312520
cpu0->cpu0_L1D LOAD         ACCESS:    6531805 HIT:    5893732 MISS:     638073 MSHR_MERGE:     165401
cpu0->cpu0_L1D RFO          ACCESS:          0 HIT:          0 MISS:          0 MSHR_MERGE:          0
cpu0->cpu0_L1D PREFETCH     ACCESS:     417131 HIT:     156275 MISS:     260856 MSHR_MERGE:      15863
cpu0->cpu0_L1D WRITE        ACCESS:    5000635 HIT:    4787582 MISS:     213053 MSHR_MERGE:     131256
cpu0->cpu0_L1D TRANSLATION  ACCESS:          0 HIT:          0 MISS:          0 MSHR_MERGE:          0
cpu0->cpu0_L1D PREFETCH REQUESTED:     419555 ISSUED:     417125 USEFUL:      98275 USELESS:     146680 LATE:       9190
cpu0->cpu0_L1D AVERAGE MISS LATENCY: 32.35 cycles
cpu0->cpu0_ITLB TOTAL        ACCESS:    6627083 HIT:    6159569 MISS:     467514 MSHR_MERGE:     273073
cpu0->cpu0_ITLB LOAD         ACCESS:    6627083 HIT:    6159569 MISS:     467514 MSHR_MERGE:     273073
cpu0->cpu0_ITLB RFO          ACCESS:          0 HIT:          0 MISS:          0 MSHR_MERGE:          0
cpu0->cpu0_ITLB PREFETCH     ACCESS:          0 HIT:          0 MISS:          0 MSHR_MERGE:          0
cpu0->cpu0_ITLB WRITE        ACCESS:          0 HIT:          0 MISS:          0 MSHR_MERGE:          0
cpu0->cpu0_ITLB TRANSLATION  ACCESS:          0 HIT:          0 MISS:          0 MSHR_MERGE:          0
cpu0->cpu0_ITLB PREFETCH REQUESTED:          0 ISSUED:          0 USEFUL:          0 USELESS:          0 LATE:          0
cpu0->cpu0_ITLB AVERAGE MISS LATENCY: 5.03 cycles
cpu0->cpu0_DTLB TOTAL        ACCESS:   11190117 HIT:   10391193 MISS:     798924 MSHR_MERGE:     197083
cpu0->cpu0_DTLB LOAD         ACCESS:   11190117 HIT:   10391193 MISS:     798924 MSHR_MERGE:     197083
cpu0->cpu0_DTLB RFO          ACCESS:          0 HIT:          0 MISS:          0 MSHR_MERGE:          0
cpu0->cpu0_DTLB PREFETCH     ACCESS:          0 HIT:          0 MISS:          0 MSHR_MERGE:          0
cpu0->cpu0_DTLB WRITE        ACCESS:          0 HIT:          0 MISS:          0 MSHR_MERGE:          0
cpu0->cpu0_DTLB TRANSLATION  ACCESS:          0 HIT:          0 MISS:          0 MSHR_MERGE:          0
cpu0->cpu0_DTLB PREFETCH REQUESTED:          0 ISSUED:          0 USEFUL:          0 USELESS:          0 LATE:          0
cpu0->cpu0_DTLB AVERAGE MISS LATENCY: 5.007 cycles
cpu0->LLC TOTAL        ACCESS:    1132976 HIT:    1014185 MISS:     118791 MSHR_MERGE:          2
cpu0->LLC LOAD         ACCESS:     762670 HIT:     723880 MISS:      38790 MSHR_MERGE:          0
cpu0->LLC RFO          ACCESS:      46122 HIT:      34724 MISS:      11398 MSHR_MERGE:          0
cpu0->LLC PREFETCH     ACCESS:     172690 HIT:     107362 MISS:      65328 MSHR_MERGE:          2
cpu0->LLC WRITE        ACCESS:     151494 HIT:     148219 MISS:       3275 MSHR_MERGE:          0
cpu0->LLC TRANSLATION  ACCESS:          0 HIT:          0 MISS:          0 MSHR_MERGE:          0
cpu0->LLC PREFETCH REQUESTED:          0 ISSUED:          0 USEFUL:          0 USELESS:          0 LATE:          0
cpu0->LLC AVERAGE MISS LATENCY: 194.4 cycles

DRAM Statistics

Channel 0 RQ ROW_BUFFER_HIT:       3874
  ROW_BUFFER_MISS:     111630
  AVG DBUS CONGESTED CYCLE: 14.11
Channel 0 WQ ROW_BUFFER_HIT:      12191
  ROW_BUFFER_MISS:      46802
  FULL:          0
Channel 0 REFRESHES ISSUED:       2303

[ROI Statistics]
[System Configuration]
num_cpus 1
cpu_freq 4000
fetch_width 6
decode_width 6
dispatch_width 6
execute_width 6
lq_width 2
sq_width 2
retire_width 6
scheduler_size 128
branch_mispredict_penalty 15
rob_size 352
lq_size 128
sq_size 72
ifetch_buffer_size 64
decode_buffer_size 32
dispatch_buffer_size 32
register_file_size 288
decode_latency 1
dispatch_latency 1
schedule_latency 1
execute_latency 1
page_size 4096
block_size 64
core_0_itlb_set 16
core_0_itlb_way 4
core_0_itlb_rq_size 16
core_0_itlb_wq_size 16
core_0_itlb_pq_size 0
core_0_itlb_mshr_size 8
core_0_itlb_hit_latency 1
core_0_itlb_fill_latency 1
core_0_itlb_max_tag_check 2
core_0_itlb_max_fill 2
core_0_dtlb_set 16
core_0_dtlb_way 4
core_0_dtlb_rq_size 16
core_0_dtlb_wq_size 16
core_0_dtlb_pq_size 0
core_0_dtlb_mshr_size 8
core_0_dtlb_hit_latency 1
core_0_dtlb_fill_latency 1
core_0_dtlb_max_tag_check 2
core_0_dtlb_max_fill 2
core_0_stlb_set 128
core_0_stlb_way 12
core_0_stlb_rq_size 32
core_0_stlb_wq_size 32
core_0_stlb_pq_size 0
core_0_stlb_mshr_size 16
core_0_stlb_hit_latency 4
core_0_stlb_fill_latency 4
core_0_stlb_max_tag_check 1
core_0_stlb_max_fill 1
core_0_l1i_set 64
core_0_l1i_way 8
core_0_l1i_rq_size 64
core_0_l1i_wq_size 64
core_0_l1i_pq_size 32
core_0_l1i_mshr_size 8
core_0_l1i_hit_latency 2
core_0_l1i_fill_latency 2
core_0_l1i_max_tag_check 2
core_0_l1i_max_fill 2
core_0_l1d_set 64
core_0_l1d_way 12
core_0_l1d_rq_size 64
core_0_l1d_wq_size 64
core_0_l1d_pq_size 8
core_0_l1d_mshr_size 16
core_0_l1d_hit_latency 2
core_0_l1d_fill_latency 3
core_0_l1d_max_tag_check 2
core_0_l1d_max_fill 2
core_0_l2c_set 1024
core_0_l2c_way 8
core_0_l2c_rq_size 32
core_0_l2c_wq_size 32
core_0_l2c_pq_size 16
core_0_l2c_mshr_size 32
core_0_l2c_hit_latency 5
core_0_l2c_fill_latency 5
core_0_l2c_max_tag_check 1
core_0_l2c_max_fill 1
llc_set 2048
llc_way 16
llc_rq_size 32
llc_wq_size 32
llc_pq_size 32
llc_mshr_size 64
llc_hit_latency 10
llc_fill_latency 10
llc_max_tag_check 1
llc_max_fill 1
dram_channels 1
dram_ranks 1
dram_bankgroups 8
dram_banks 4
dram_rows 65536
dram_columns 1024
dram_channel_width 8
dram_rq_size 64
dram_wq_size 64
dram_size 17179869184
core_0_itlb_prefetcher no
core_0_dtlb_prefetcher no
core_0_stlb_prefetcher no
core_0_l1i_prefetcher next_line
core_0_l1d_prefetcher berti
core_0_l2c_prefetcher ip_stride
llc_prefetcher no
llc_replacement drrip

Core_0_instructions 50000003
Core_0_cycles 27639998
Core_0_IPC 1.80897
Core_0_branch_prediction_accuracy 98.007
Core_0_branch_MPKI 3.58232
Core_0_average_ROB_occupancy_at_mispredict 92.1378

Core_0_ITLB_total_access 6627083
Core_0_ITLB_total_hit 6159569
Core_0_ITLB_total_miss 467514
Core_0_ITLB_total_MPKI 9.35028
Core_0_ITLB_total_miss_rate 0.070546
Core_0_ITLB_demand_access 6627083
Core_0_ITLB_demand_hit 6159569
Core_0_ITLB_demand_miss 467514
Core_0_ITLB_demand_MPKI 9.35028
Core_0_ITLB_demand_miss_rate 0.070546
Core_0_ITLB_load_access 6627083
Core_0_ITLB_load_hit 6159569
Core_0_ITLB_load_miss 467514
Core_0_ITLB_load_MPKI 9.35028
Core_0_ITLB_load_miss_rate 0.070546
Core_0_ITLB_rfo_access 0
Core_0_ITLB_rfo_hit 0
Core_0_ITLB_rfo_miss 0
Core_0_ITLB_rfo_MPKI 0
Core_0_ITLB_rfo_miss_rate 0
Core_0_ITLB_prefetch_access 0
Core_0_ITLB_prefetch_hit 0
Core_0_ITLB_prefetch_miss 0
Core_0_ITLB_prefetch_MPKI 0
Core_0_ITLB_prefetch_miss_rate 0
Core_0_ITLB_writeback_access 0
Core_0_ITLB_writeback_hit 0
Core_0_ITLB_writeback_miss 0
Core_0_ITLB_writeback_MPKI 0
Core_0_ITLB_writeback_miss_rate 0
Core_0_ITLB_prefetch_requested 0
Core_0_ITLB_prefetch_issued 0
Core_0_ITLB_prefetch_useful 0
Core_0_ITLB_prefetch_useless 0
Core_0_ITLB_prefetch_late 0
Core_0_ITLB_prefetch_accuracy 0
Core_0_ITLB_prefetch_coverage 0
Core_0_ITLB_total_eviction 0

Core_0_DTLB_total_access 11190117
Core_0_DTLB_total_hit 10391193
Core_0_DTLB_total_miss 798924
Core_0_DTLB_total_MPKI 15.9785
Core_0_DTLB_total_miss_rate 0.0713955
Core_0_DTLB_demand_access 11190117
Core_0_DTLB_demand_hit 10391193
Core_0_DTLB_demand_miss 798924
Core_0_DTLB_demand_MPKI 15.9785
Core_0_DTLB_demand_miss_rate 0.0713955
Core_0_DTLB_load_access 11190117
Core_0_DTLB_load_hit 10391193
Core_0_DTLB_load_miss 798924
Core_0_DTLB_load_MPKI 15.9785
Core_0_DTLB_load_miss_rate 0.0713955
Core_0_DTLB_rfo_access 0
Core_0_DTLB_rfo_hit 0
Core_0_DTLB_rfo_miss 0
Core_0_DTLB_rfo_MPKI 0
Core_0_DTLB_rfo_miss_rate 0
Core_0_DTLB_prefetch_access 0
Core_0_DTLB_prefetch_hit 0
Core_0_DTLB_prefetch_miss 0
Core_0_DTLB_prefetch_MPKI 0
Core_0_DTLB_prefetch_miss_rate 0
Core_0_DTLB_writeback_access 0
Core_0_DTLB_writeback_hit 0
Core_0_DTLB_writeback_miss 0
Core_0_DTLB_writeback_MPKI 0
Core_0_DTLB_writeback_miss_rate 0
Core_0_DTLB_prefetch_requested 0
Core_0_DTLB_prefetch_issued 0
Core_0_DTLB_prefetch_useful 0
Core_0_DTLB_prefetch_useless 0
Core_0_DTLB_prefetch_late 0
Core_0_DTLB_prefetch_accuracy 0
Core_0_DTLB_prefetch_coverage 0
Core_0_DTLB_total_eviction 0

Core_0_STLB_total_access 796282
Core_0_STLB_total_hit 796282
Core_0_STLB_total_miss 0
Core_0_STLB_total_MPKI 0
Core_0_STLB_total_miss_rate 0
Core_0_STLB_demand_access 796282
Core_0_STLB_demand_hit 796282
Core_0_STLB_demand_miss 0
Core_0_STLB_demand_MPKI 0
Core_0_STLB_demand_miss_rate 0
Core_0_STLB_load_access 796282
Core_0_STLB_load_hit 796282
Core_0_STLB_load_miss 0
Core_0_STLB_load_MPKI 0
Core_0_STLB_load_miss_rate 0
Core_0_STLB_rfo_access 0
Core_0_STLB_rfo_hit 0
Core_0_STLB_rfo_miss 0
Core_0_STLB_rfo_MPKI 0
Core_0_STLB_rfo_miss_rate 0
Core_0_STLB_prefetch_access 0
Core_0_STLB_prefetch_hit 0
Core_0_STLB_prefetch_miss 0
Core_0_STLB_prefetch_MPKI 0
Core_0_STLB_prefetch_miss_rate 0
Core_0_STLB_writeback_access 0
Core_0_STLB_writeback_hit 0
Core_0_STLB_writeback_miss 0
Core_0_STLB_writeback_MPKI 0
Core_0_STLB_writeback_miss_rate 0
Core_0_STLB_prefetch_requested 0
Core_0_STLB_prefetch_issued 0
Core_0_STLB_prefetch_useful 0
Core_0_STLB_prefetch_useless 0
Core_0_STLB_prefetch_late 0
Core_0_STLB_prefetch_accuracy 0
Core_0_STLB_prefetch_coverage 0
Core_0_STLB_total_eviction 0

Core_0_L1I_total_access 7790966
Core_0_L1I_total_hit 5754645
Core_0_L1I_total_miss 2036321
Core_0_L1I_total_MPKI 40.7264
Core_0_L1I_total_miss_rate 0.26137
Core_0_L1I_demand_access 7790966
Core_0_L1I_demand_hit 5754645
Core_0_L1I_demand_miss 2036321
Core_0_L1I_demand_MPKI 40.7264
Core_0_L1I_demand_miss_rate 0.26137
Core_0_L1I_load_access 7790966
Core_0_L1I_load_hit 5754645
Core_0_L1I_load_miss 2036321
Core_0_L1I_load_MPKI 40.7264
Core_0_L1I_load_miss_rate 0.26137
Core_0_L1I_rfo_access 0
Core_0_L1I_rfo_hit 0
Core_0_L1I_rfo_miss 0
Core_0_L1I_rfo_MPKI 0
Core_0_L1I_rfo_miss_rate 0
Core_0_L1I_prefetch_access 0
Core_0_L1I_prefetch_hit 0
Core_0_L1I_prefetch_miss 0
Core_0_L1I_prefetch_MPKI 0
Core_0_L1I_prefetch_miss_rate 0
Core_0_L1I_writeback_access 0
Core_0_L1I_writeback_hit 0
Core_0_L1I_writeback_miss 0
Core_0_L1I_writeback_MPKI 0
Core_0_L1I_writeback_miss_rate 0
Core_0_L1I_prefetch_requested 0
Core_0_L1I_prefetch_issued 0
Core_0_L1I_prefetch_useful 0
Core_0_L1I_prefetch_useless 0
Core_0_L1I_prefetch_late 0
Core_0_L1I_prefetch_accuracy 0
Core_0_L1I_prefetch_coverage 0
Core_0_L1I_total_eviction 0

Core_0_L1D_total_access 11949571
Core_0_L1D_total_hit 10837589
Core_0_L1D_total_miss 1111982
Core_0_L1D_total_MPKI 22.2396
Core_0_L1D_total_miss_rate 0.0930562
Core_0_L1D_demand_access 6531805
Core_0_L1D_demand_hit 5893732
Core_0_L1D_demand_miss 638073
Core_0_L1D_demand_MPKI 12.7615
Core_0_L1D_demand_miss_rate 0.0976871
Core_0_L1D_load_access 6531805
Core_0_L1D_load_hit 5893732
Core_0_L1D_load_miss 638073
Core_0_L1D_load_MPKI 12.7615
Core_0_L1D_load_miss_rate 0.0976871
Core_0_L1D_rfo_access 0
Core_0_L1D_rfo_hit 0
Core_0_L1D_rfo_miss 0
Core_0_L1D_rfo_MPKI 0
Core_0_L1D_rfo_miss_rate 0
Core_0_L1D_prefetch_access 417131
Core_0_L1D_prefetch_hit 156275
Core_0_L1D_prefetch_miss 260856
Core_0_L1D_prefetch_MPKI 5.21712
Core_0_L1D_prefetch_miss_rate 0.625358
Core_0_L1D_writeback_access 5000635
Core_0_L1D_writeback_hit 4787582
Core_0_L1D_writeback_miss 213053
Core_0_L1D_writeback_MPKI 4.26106
Core_0_L1D_writeback_miss_rate 0.0426052
Core_0_L1D_prefetch_requested 419555
Core_0_L1D_prefetch_issued 417125
Core_0_L1D_prefetch_useful 98275
Core_0_L1D_prefetch_useless 146680
Core_0_L1D_prefetch_late 9190
Core_0_L1D_prefetch_accuracy 0.235601
Core_0_L1D_prefetch_coverage 0.133463
Core_0_L1D_total_eviction 0

Core_0_L2C_total_access 2387844
Core_0_L2C_total_hit 1390294
Core_0_L2C_total_miss 997550
Core_0_L2C_total_MPKI 19.951
Core_0_L2C_total_miss_rate 0.417762
Core_0_L2C_demand_access 1829400
Core_0_L2C_demand_hit 1020462
Core_0_L2C_demand_miss 808938
Core_0_L2C_demand_MPKI 16.1788
Core_0_L2C_demand_miss_rate 0.442188
Core_0_L2C_load_access 1747606
Core_0_L2C_load_hit 984831
Core_0_L2C_load_miss 762775
Core_0_L2C_load_MPKI 15.2555
Core_0_L2C_load_miss_rate 0.436469
Core_0_L2C_rfo_access 81794
Core_0_L2C_rfo_hit 35631
Core_0_L2C_rfo_miss 46163
Core_0_L2C_rfo_MPKI 0.92326
Core_0_L2C_rfo_miss_rate 0.564381
Core_0_L2C_prefetch_access 292067
Core_0_L2C_prefetch_hit 104614
Core_0_L2C_prefetch_miss 187453
Core_0_L2C_prefetch_MPKI 3.74906
Core_0_L2C_prefetch_miss_rate 0.641815
Core_0_L2C_writeback_access 266377
Core_0_L2C_writeback_hit 265218
Core_0_L2C_writeback_miss 1159
Core_0_L2C_writeback_MPKI 0.02318
Core_0_L2C_writeback_miss_rate 0.00435098
Core_0_L2C_prefetch_requested 47096
Core_0_L2C_prefetch_issued 47076
Core_0_L2C_prefetch_useful 16116
Core_0_L2C_prefetch_useless 7214
Core_0_L2C_prefetch_late 141
Core_0_L2C_prefetch_accuracy 0.34234
Core_0_L2C_prefetch_coverage 0.0195333
Core_0_L2C_total_eviction 0

Core_0_LLC_total_access 1132976
Core_0_LLC_total_hit 1014185
Core_0_LLC_total_miss 118791
Core_0_LLC_total_MPKI 2.37582
Core_0_LLC_total_miss_rate 0.104849
Core_0_LLC_demand_access 808792
Core_0_LLC_demand_hit 758604
Core_0_LLC_demand_miss 50188
Core_0_LLC_demand_MPKI 1.00376
Core_0_LLC_demand_miss_rate 0.062053
Core_0_LLC_load_access 762670
Core_0_LLC_load_hit 723880
Core_0_LLC_load_miss 38790
Core_0_LLC_load_MPKI 0.7758
Core_0_LLC_load_miss_rate 0.0508608
Core_0_LLC_rfo_access 46122
Core_0_LLC_rfo_hit 34724
Core_0_LLC_rfo_miss 11398
Core_0_LLC_rfo_MPKI 0.22796
Core_0_LLC_rfo_miss_rate 0.247127
Core_0_LLC_prefetch_access 172690
Core_0_LLC_prefetch_hit 107362
Core_0_LLC_prefetch_miss 65328
Core_0_LLC_prefetch_MPKI 1.30656
Core_0_LLC_prefetch_miss_rate 0.378296
Core_0_LLC_writeback_access 151494
Core_0_LLC_writeback_hit 148219
Core_0_LLC_writeback_miss 3275
Core_0_LLC_writeback_MPKI 0.0655
Core_0_LLC_writeback_miss_rate 0.021618
Core_0_LLC_prefetch_requested 0
Core_0_LLC_prefetch_issued 0
Core_0_LLC_prefetch_useful 0
Core_0_LLC_prefetch_useless 0
Core_0_LLC_prefetch_late 0
Core_0_LLC_prefetch_accuracy 0
Core_0_LLC_prefetch_coverage 0
Core_0_LLC_total_eviction 0

[DRAM Statistics]
Channel_0_RQ_row_buffer_hit 3874
Channel_0_RQ_row_buffer_miss 111630
Channel_0_WQ_row_buffer_hit 12191
Channel_0_WQ_row_buffer_miss 46802
Channel_0_WQ_full 0
Channel_0_dbus_congested 465124
DRAM_total_RQ_row_buffer_hit 3874
DRAM_total_RQ_row_buffer_miss 111630
DRAM_total_WQ_row_buffer_hit 12191
DRAM_total_WQ_row_buffer_miss 46802
DRAM_total_WQ_full 0
DRAM_total_dbus_congested 465124
DRAM_avg_congested_cycle 14.1083

======STLB miss causes ========
Core_0_STLB_miss_cause_breakdown
Core_0_STLB_cause_Demand_Data_miss 0
Core_0_STLB_cause_Demand_Data_miss_rate 0
Core_0_STLB_cause_Demand_Instruction_miss 0
Core_0_STLB_cause_Demand_Instruction_miss_rate 0
Core_0_STLB_cause_L1D_Prefetch_miss 0
Core_0_STLB_cause_L1D_Prefetch_miss_rate 0
Core_0_STLB_cause_L1I_Prefetch_miss 0
Core_0_STLB_cause_L1I_Prefetch_miss_rate 0
Core_0_STLB_cause_Other_miss 0
Core_0_STLB_cause_Other_miss_rate 0
Core_0_STLB_Demand_miss 0
Core_0_STLB_Demand_miss_rate 0
Core_0_STLB_L1D_Prefetch_miss 0
Core_0_STLB_L1D_Prefetch_miss_rate 0
Core_0_STLB_Other_miss 0
Core_0_STLB_Other_miss_rate 0
