[VMEM] WARNING: physical memory size is smaller than virtual memory size.

*** ChampSim Multicore Out-of-Order Simulator ***
Warmup Instructions: 20000000
Simulation Instructions: 50000000
Number of CPUs: 1
Page size: 4096
STLB ideal mode: all
STLB ideal fill: on
Core 0: /data2/zcq/champsim_traces_xsbench/xs.XL100nuclide-185B.champsimtrace.xz
 L1D Berti prefetcher
Off-chip DRAM Size: 16 GiB Channels: 1 Width: 64-bit Data Rate: 3205 MT/s
Warmup halting CPU 0 at instruction 20000000 cycle 4210294 for remainder of phase
Warmup finished CPU 0 instructions: 20000000 cycles: 4210294 cumulative IPC: 4.75 (Simulation time: 00 hr 00 min 50 sec)
Warmup complete CPU 0 instructions: 20000000 cycles: 4210294 cumulative IPC: 4.75 (Simulation time: 00 hr 00 min 50 sec)
Simulation finished CPU 0 instructions: 50000000 cycles: 258577728 cumulative IPC: 0.1934 (Simulation time: 00 hr 15 min 12 sec)
Simulation complete CPU 0 instructions: 50000000 cycles: 258577728 cumulative IPC: 0.1934 (Simulation time: 00 hr 15 min 12 sec)

ChampSim completed all CPUs

=== Simulation ===
CPU 0 runs /data2/zcq/champsim_traces_xsbench/xs.XL100nuclide-185B.champsimtrace.xz

Region of Interest Statistics

CPU 0 cumulative IPC: 0.1934 instructions: 50000000 cycles: 258577728
CPU 0 Branch Prediction Accuracy: 87.1% MPKI: 21.54 Average ROB Occupancy at Mispredict: 26.23
Branch type MPKI
BRANCH_DIRECT_JUMP: 4e-05
BRANCH_INDIRECT: 0
BRANCH_CONDITIONAL: 21.54
BRANCH_DIRECT_CALL: 0
BRANCH_INDIRECT_CALL: 0
BRANCH_RETURN: 0

cpu0->cpu0_STLB TOTAL        ACCESS:    1970278 HIT:    1970278 MISS:          0 MSHR_MERGE:          0
cpu0->cpu0_STLB LOAD         ACCESS:    1970278 HIT:    1970278 MISS:          0 MSHR_MERGE:          0
cpu0->cpu0_STLB RFO          ACCESS:          0 HIT:          0 MISS:          0 MSHR_MERGE:          0
cpu0->cpu0_STLB PREFETCH     ACCESS:          0 HIT:          0 MISS:          0 MSHR_MERGE:          0
cpu0->cpu0_STLB WRITE        ACCESS:          0 HIT:          0 MISS:          0 MSHR_MERGE:          0
cpu0->cpu0_STLB TRANSLATION  ACCESS:          0 HIT:          0 MISS:          0 MSHR_MERGE:          0
cpu0->cpu0_STLB PREFETCH REQUESTED:          0 ISSUED:          0 USEFUL:          0 USELESS:          0 LATE:          0
cpu0->cpu0_STLB AVERAGE MISS LATENCY: - cycles
cpu0->cpu0_L2C TOTAL        ACCESS:    3459380 HIT:     276266 MISS:    3183114 MSHR_MERGE:       2973
cpu0->cpu0_L2C LOAD         ACCESS:    2916104 HIT:     201212 MISS:    2714892 MSHR_MERGE:         52
cpu0->cpu0_L2C RFO          ACCESS:       8423 HIT:       8172 MISS:        251 MSHR_MERGE:          0
cpu0->cpu0_L2C PREFETCH     ACCESS:     525441 HIT:      57492 MISS:     467949 MSHR_MERGE:       2921
cpu0->cpu0_L2C WRITE        ACCESS:       9412 HIT:       9390 MISS:         22 MSHR_MERGE:          0
cpu0->cpu0_L2C TRANSLATION  ACCESS:          0 HIT:          0 MISS:          0 MSHR_MERGE:          0
cpu0->cpu0_L2C PREFETCH REQUESTED:     143367 ISSUED:     143367 USEFUL:       6945 USELESS:      86794 LATE:         52
cpu0->cpu0_L2C AVERAGE MISS LATENCY: 177.5 cycles
cpu0->cpu0_L1I TOTAL        ACCESS:      10993 HIT:      10992 MISS:          1 MSHR_MERGE:          0
cpu0->cpu0_L1I LOAD         ACCESS:      10993 HIT:      10992 MISS:          1 MSHR_MERGE:          0
cpu0->cpu0_L1I RFO          ACCESS:          0 HIT:          0 MISS:          0 MSHR_MERGE:          0
cpu0->cpu0_L1I PREFETCH     ACCESS:          0 HIT:          0 MISS:          0 MSHR_MERGE:          0
cpu0->cpu0_L1I WRITE        ACCESS:          0 HIT:          0 MISS:          0 MSHR_MERGE:          0
cpu0->cpu0_L1I TRANSLATION  ACCESS:          0 HIT:          0 MISS:          0 MSHR_MERGE:          0
cpu0->cpu0_L1I PREFETCH REQUESTED:          0 ISSUED:          0 USEFUL:          0 USELESS:          0 LATE:          0
cpu0->cpu0_L1I AVERAGE MISS LATENCY: 166 cycles
cpu0->cpu0_L1D TOTAL        ACCESS:    6175873 HIT:    2793891 MISS:    3381982 MSHR_MERGE:      75362
cpu0->cpu0_L1D LOAD         ACCESS:    4817709 HIT:    1847669 MISS:    2970040 MSHR_MERGE:      53937
cpu0->cpu0_L1D RFO          ACCESS:          0 HIT:          0 MISS:          0 MSHR_MERGE:          0
cpu0->cpu0_L1D PREFETCH     ACCESS:     407519 HIT:      21647 MISS:     385872 MSHR_MERGE:       3798
cpu0->cpu0_L1D WRITE        ACCESS:     950645 HIT:     924575 MISS:      26070 MSHR_MERGE:      17627
cpu0->cpu0_L1D TRANSLATION  ACCESS:          0 HIT:          0 MISS:          0 MSHR_MERGE:          0
cpu0->cpu0_L1D PREFETCH REQUESTED:     407519 ISSUED:     407519 USEFUL:      23342 USELESS:     358713 LATE:       1597
cpu0->cpu0_L1D AVERAGE MISS LATENCY: 173.8 cycles
cpu0->cpu0_ITLB TOTAL        ACCESS:       8907 HIT:       8907 MISS:          0 MSHR_MERGE:          0
cpu0->cpu0_ITLB LOAD         ACCESS:       8907 HIT:       8907 MISS:          0 MSHR_MERGE:          0
cpu0->cpu0_ITLB RFO          ACCESS:          0 HIT:          0 MISS:          0 MSHR_MERGE:          0
cpu0->cpu0_ITLB PREFETCH     ACCESS:          0 HIT:          0 MISS:          0 MSHR_MERGE:          0
cpu0->cpu0_ITLB WRITE        ACCESS:          0 HIT:          0 MISS:          0 MSHR_MERGE:          0
cpu0->cpu0_ITLB TRANSLATION  ACCESS:          0 HIT:          0 MISS:          0 MSHR_MERGE:          0
cpu0->cpu0_ITLB PREFETCH REQUESTED:          0 ISSUED:          0 USEFUL:          0 USELESS:          0 LATE:          0
cpu0->cpu0_ITLB AVERAGE MISS LATENCY: - cycles
cpu0->cpu0_DTLB TOTAL        ACCESS:    6106599 HIT:    4071226 MISS:    2035373 MSHR_MERGE:      65096
cpu0->cpu0_DTLB LOAD         ACCESS:    6106599 HIT:    4071226 MISS:    2035373 MSHR_MERGE:      65096
cpu0->cpu0_DTLB RFO          ACCESS:          0 HIT:          0 MISS:          0 MSHR_MERGE:          0
cpu0->cpu0_DTLB PREFETCH     ACCESS:          0 HIT:          0 MISS:          0 MSHR_MERGE:          0
cpu0->cpu0_DTLB WRITE        ACCESS:          0 HIT:          0 MISS:          0 MSHR_MERGE:          0
cpu0->cpu0_DTLB TRANSLATION  ACCESS:          0 HIT:          0 MISS:          0 MSHR_MERGE:          0
cpu0->cpu0_DTLB PREFETCH REQUESTED:          0 ISSUED:          0 USEFUL:          0 USELESS:          0 LATE:          0
cpu0->cpu0_DTLB AVERAGE MISS LATENCY: 5.013 cycles
cpu0->LLC TOTAL        ACCESS:    3180762 HIT:     654135 MISS:    2526627 MSHR_MERGE:          0
cpu0->LLC LOAD         ACCESS:    2714840 HIT:     629338 MISS:    2085502 MSHR_MERGE:          0
cpu0->LLC RFO          ACCESS:        251 HIT:        251 MISS:          0 MSHR_MERGE:          0
cpu0->LLC PREFETCH     ACCESS:     465028 HIT:      23911 MISS:     441117 MSHR_MERGE:          0
cpu0->LLC WRITE        ACCESS:        643 HIT:        635 MISS:          8 MSHR_MERGE:          0
cpu0->LLC TRANSLATION  ACCESS:          0 HIT:          0 MISS:          0 MSHR_MERGE:          0
cpu0->LLC PREFETCH REQUESTED:          0 ISSUED:          0 USEFUL:          0 USELESS:          0 LATE:          0
cpu0->LLC AVERAGE MISS LATENCY: 210.6 cycles

DRAM Statistics

Channel 0 RQ ROW_BUFFER_HIT:      38126
  ROW_BUFFER_MISS:    2488494
  AVG DBUS CONGESTED CYCLE: 2.983
Channel 0 WQ ROW_BUFFER_HIT:          1
  ROW_BUFFER_MISS:          6
  FULL:          0
Channel 0 REFRESHES ISSUED:      21549

[ROI Statistics]
[System Configuration]
num_cpus 1
cpu_freq 4000
fetch_width 6
decode_width 6
dispatch_width 6
execute_width 6
lq_width 2
sq_width 2
retire_width 6
scheduler_size 128
branch_mispredict_penalty 15
rob_size 352
lq_size 128
sq_size 72
ifetch_buffer_size 64
decode_buffer_size 32
dispatch_buffer_size 32
register_file_size 288
decode_latency 1
dispatch_latency 1
schedule_latency 1
execute_latency 1
page_size 4096
block_size 64
core_0_itlb_set 16
core_0_itlb_way 4
core_0_itlb_rq_size 16
core_0_itlb_wq_size 16
core_0_itlb_pq_size 0
core_0_itlb_mshr_size 8
core_0_itlb_hit_latency 1
core_0_itlb_fill_latency 1
core_0_itlb_max_tag_check 2
core_0_itlb_max_fill 2
core_0_dtlb_set 16
core_0_dtlb_way 4
core_0_dtlb_rq_size 16
core_0_dtlb_wq_size 16
core_0_dtlb_pq_size 0
core_0_dtlb_mshr_size 8
core_0_dtlb_hit_latency 1
core_0_dtlb_fill_latency 1
core_0_dtlb_max_tag_check 2
core_0_dtlb_max_fill 2
core_0_stlb_set 128
core_0_stlb_way 12
core_0_stlb_rq_size 32
core_0_stlb_wq_size 32
core_0_stlb_pq_size 0
core_0_stlb_mshr_size 16
core_0_stlb_hit_latency 4
core_0_stlb_fill_latency 4
core_0_stlb_max_tag_check 1
core_0_stlb_max_fill 1
core_0_l1i_set 64
core_0_l1i_way 8
core_0_l1i_rq_size 64
core_0_l1i_wq_size 64
core_0_l1i_pq_size 32
core_0_l1i_mshr_size 8
core_0_l1i_hit_latency 2
core_0_l1i_fill_latency 2
core_0_l1i_max_tag_check 2
core_0_l1i_max_fill 2
core_0_l1d_set 64
core_0_l1d_way 12
core_0_l1d_rq_size 64
core_0_l1d_wq_size 64
core_0_l1d_pq_size 8
core_0_l1d_mshr_size 16
core_0_l1d_hit_latency 2
core_0_l1d_fill_latency 3
core_0_l1d_max_tag_check 2
core_0_l1d_max_fill 2
core_0_l2c_set 1024
core_0_l2c_way 8
core_0_l2c_rq_size 32
core_0_l2c_wq_size 32
core_0_l2c_pq_size 16
core_0_l2c_mshr_size 32
core_0_l2c_hit_latency 5
core_0_l2c_fill_latency 5
core_0_l2c_max_tag_check 1
core_0_l2c_max_fill 1
llc_set 2048
llc_way 16
llc_rq_size 32
llc_wq_size 32
llc_pq_size 32
llc_mshr_size 64
llc_hit_latency 10
llc_fill_latency 10
llc_max_tag_check 1
llc_max_fill 1
dram_channels 1
dram_ranks 1
dram_bankgroups 8
dram_banks 4
dram_rows 65536
dram_columns 1024
dram_channel_width 8
dram_rq_size 64
dram_wq_size 64
dram_size 17179869184
core_0_itlb_prefetcher no
core_0_dtlb_prefetcher no
core_0_stlb_prefetcher no
core_0_l1i_prefetcher next_line
core_0_l1d_prefetcher berti
core_0_l2c_prefetcher ip_stride
llc_prefetcher no
llc_replacement drrip

Core_0_instructions 50000000
Core_0_cycles 258577728
Core_0_IPC 0.193365
Core_0_branch_prediction_accuracy 87.1005
Core_0_branch_MPKI 21.5433
Core_0_average_ROB_occupancy_at_mispredict 26.2313

Core_0_ITLB_total_access 8907
Core_0_ITLB_total_hit 8907
Core_0_ITLB_total_miss 0
Core_0_ITLB_total_MPKI 0
Core_0_ITLB_total_miss_rate 0
Core_0_ITLB_demand_access 8907
Core_0_ITLB_demand_hit 8907
Core_0_ITLB_demand_miss 0
Core_0_ITLB_demand_MPKI 0
Core_0_ITLB_demand_miss_rate 0
Core_0_ITLB_load_access 8907
Core_0_ITLB_load_hit 8907
Core_0_ITLB_load_miss 0
Core_0_ITLB_load_MPKI 0
Core_0_ITLB_load_miss_rate 0
Core_0_ITLB_rfo_access 0
Core_0_ITLB_rfo_hit 0
Core_0_ITLB_rfo_miss 0
Core_0_ITLB_rfo_MPKI 0
Core_0_ITLB_rfo_miss_rate 0
Core_0_ITLB_prefetch_access 0
Core_0_ITLB_prefetch_hit 0
Core_0_ITLB_prefetch_miss 0
Core_0_ITLB_prefetch_MPKI 0
Core_0_ITLB_prefetch_miss_rate 0
Core_0_ITLB_writeback_access 0
Core_0_ITLB_writeback_hit 0
Core_0_ITLB_writeback_miss 0
Core_0_ITLB_writeback_MPKI 0
Core_0_ITLB_writeback_miss_rate 0
Core_0_ITLB_prefetch_requested 0
Core_0_ITLB_prefetch_issued 0
Core_0_ITLB_prefetch_useful 0
Core_0_ITLB_prefetch_useless 0
Core_0_ITLB_prefetch_late 0
Core_0_ITLB_prefetch_accuracy 0
Core_0_ITLB_prefetch_coverage 0
Core_0_ITLB_total_eviction 0

Core_0_DTLB_total_access 6106599
Core_0_DTLB_total_hit 4071226
Core_0_DTLB_total_miss 2035373
Core_0_DTLB_total_MPKI 40.7075
Core_0_DTLB_total_miss_rate 0.333307
Core_0_DTLB_demand_access 6106599
Core_0_DTLB_demand_hit 4071226
Core_0_DTLB_demand_miss 2035373
Core_0_DTLB_demand_MPKI 40.7075
Core_0_DTLB_demand_miss_rate 0.333307
Core_0_DTLB_load_access 6106599
Core_0_DTLB_load_hit 4071226
Core_0_DTLB_load_miss 2035373
Core_0_DTLB_load_MPKI 40.7075
Core_0_DTLB_load_miss_rate 0.333307
Core_0_DTLB_rfo_access 0
Core_0_DTLB_rfo_hit 0
Core_0_DTLB_rfo_miss 0
Core_0_DTLB_rfo_MPKI 0
Core_0_DTLB_rfo_miss_rate 0
Core_0_DTLB_prefetch_access 0
Core_0_DTLB_prefetch_hit 0
Core_0_DTLB_prefetch_miss 0
Core_0_DTLB_prefetch_MPKI 0
Core_0_DTLB_prefetch_miss_rate 0
Core_0_DTLB_writeback_access 0
Core_0_DTLB_writeback_hit 0
Core_0_DTLB_writeback_miss 0
Core_0_DTLB_writeback_MPKI 0
Core_0_DTLB_writeback_miss_rate 0
Core_0_DTLB_prefetch_requested 0
Core_0_DTLB_prefetch_issued 0
Core_0_DTLB_prefetch_useful 0
Core_0_DTLB_prefetch_useless 0
Core_0_DTLB_prefetch_late 0
Core_0_DTLB_prefetch_accuracy 0
Core_0_DTLB_prefetch_coverage 0
Core_0_DTLB_total_eviction 1970278

Core_0_STLB_total_access 1970278
Core_0_STLB_total_hit 1970278
Core_0_STLB_total_miss 0
Core_0_STLB_total_MPKI 0
Core_0_STLB_total_miss_rate 0
Core_0_STLB_demand_access 1970278
Core_0_STLB_demand_hit 1970278
Core_0_STLB_demand_miss 0
Core_0_STLB_demand_MPKI 0
Core_0_STLB_demand_miss_rate 0
Core_0_STLB_load_access 1970278
Core_0_STLB_load_hit 1970278
Core_0_STLB_load_miss 0
Core_0_STLB_load_MPKI 0
Core_0_STLB_load_miss_rate 0
Core_0_STLB_rfo_access 0
Core_0_STLB_rfo_hit 0
Core_0_STLB_rfo_miss 0
Core_0_STLB_rfo_MPKI 0
Core_0_STLB_rfo_miss_rate 0
Core_0_STLB_prefetch_access 0
Core_0_STLB_prefetch_hit 0
Core_0_STLB_prefetch_miss 0
Core_0_STLB_prefetch_MPKI 0
Core_0_STLB_prefetch_miss_rate 0
Core_0_STLB_writeback_access 0
Core_0_STLB_writeback_hit 0
Core_0_STLB_writeback_miss 0
Core_0_STLB_writeback_MPKI 0
Core_0_STLB_writeback_miss_rate 0
Core_0_STLB_prefetch_requested 0
Core_0_STLB_prefetch_issued 0
Core_0_STLB_prefetch_useful 0
Core_0_STLB_prefetch_useless 0
Core_0_STLB_prefetch_late 0
Core_0_STLB_prefetch_accuracy 0
Core_0_STLB_prefetch_coverage 0
Core_0_STLB_total_eviction 1897934

Core_0_L1I_total_access 10993
Core_0_L1I_total_hit 10992
Core_0_L1I_total_miss 1
Core_0_L1I_total_MPKI 2e-05
Core_0_L1I_total_miss_rate 9.0967e-05
Core_0_L1I_demand_access 10993
Core_0_L1I_demand_hit 10992
Core_0_L1I_demand_miss 1
Core_0_L1I_demand_MPKI 2e-05
Core_0_L1I_demand_miss_rate 9.0967e-05
Core_0_L1I_load_access 10993
Core_0_L1I_load_hit 10992
Core_0_L1I_load_miss 1
Core_0_L1I_load_MPKI 2e-05
Core_0_L1I_load_miss_rate 9.0967e-05
Core_0_L1I_rfo_access 0
Core_0_L1I_rfo_hit 0
Core_0_L1I_rfo_miss 0
Core_0_L1I_rfo_MPKI 0
Core_0_L1I_rfo_miss_rate 0
Core_0_L1I_prefetch_access 0
Core_0_L1I_prefetch_hit 0
Core_0_L1I_prefetch_miss 0
Core_0_L1I_prefetch_MPKI 0
Core_0_L1I_prefetch_miss_rate 0
Core_0_L1I_writeback_access 0
Core_0_L1I_writeback_hit 0
Core_0_L1I_writeback_miss 0
Core_0_L1I_writeback_MPKI 0
Core_0_L1I_writeback_miss_rate 0
Core_0_L1I_prefetch_requested 0
Core_0_L1I_prefetch_issued 0
Core_0_L1I_prefetch_useful 0
Core_0_L1I_prefetch_useless 0
Core_0_L1I_prefetch_late 0
Core_0_L1I_prefetch_accuracy 0
Core_0_L1I_prefetch_coverage 0
Core_0_L1I_total_eviction 0

Core_0_L1D_total_access 6175873
Core_0_L1D_total_hit 2793891
Core_0_L1D_total_miss 3381982
Core_0_L1D_total_MPKI 67.6396
Core_0_L1D_total_miss_rate 0.547612
Core_0_L1D_demand_access 4817709
Core_0_L1D_demand_hit 1847669
Core_0_L1D_demand_miss 2970040
Core_0_L1D_demand_MPKI 59.4008
Core_0_L1D_demand_miss_rate 0.616484
Core_0_L1D_load_access 4817709
Core_0_L1D_load_hit 1847669
Core_0_L1D_load_miss 2970040
Core_0_L1D_load_MPKI 59.4008
Core_0_L1D_load_miss_rate 0.616484
Core_0_L1D_rfo_access 0
Core_0_L1D_rfo_hit 0
Core_0_L1D_rfo_miss 0
Core_0_L1D_rfo_MPKI 0
Core_0_L1D_rfo_miss_rate 0
Core_0_L1D_prefetch_access 407519
Core_0_L1D_prefetch_hit 21647
Core_0_L1D_prefetch_miss 385872
Core_0_L1D_prefetch_MPKI 7.71744
Core_0_L1D_prefetch_miss_rate 0.946881
Core_0_L1D_writeback_access 950645
Core_0_L1D_writeback_hit 924575
Core_0_L1D_writeback_miss 26070
Core_0_L1D_writeback_MPKI 0.5214
Core_0_L1D_writeback_miss_rate 0.0274235
Core_0_L1D_prefetch_requested 407519
Core_0_L1D_prefetch_issued 407519
Core_0_L1D_prefetch_useful 23342
Core_0_L1D_prefetch_useless 358713
Core_0_L1D_prefetch_late 1597
Core_0_L1D_prefetch_accuracy 0.0572783
Core_0_L1D_prefetch_coverage 0.00779787
Core_0_L1D_total_eviction 3306621

Core_0_L2C_total_access 3459380
Core_0_L2C_total_hit 276266
Core_0_L2C_total_miss 3183114
Core_0_L2C_total_MPKI 63.6623
Core_0_L2C_total_miss_rate 0.92014
Core_0_L2C_demand_access 2924527
Core_0_L2C_demand_hit 209384
Core_0_L2C_demand_miss 2715143
Core_0_L2C_demand_MPKI 54.3029
Core_0_L2C_demand_miss_rate 0.928404
Core_0_L2C_load_access 2916104
Core_0_L2C_load_hit 201212
Core_0_L2C_load_miss 2714892
Core_0_L2C_load_MPKI 54.2978
Core_0_L2C_load_miss_rate 0.931
Core_0_L2C_rfo_access 8423
Core_0_L2C_rfo_hit 8172
Core_0_L2C_rfo_miss 251
Core_0_L2C_rfo_MPKI 0.00502
Core_0_L2C_rfo_miss_rate 0.0297994
Core_0_L2C_prefetch_access 525441
Core_0_L2C_prefetch_hit 57492
Core_0_L2C_prefetch_miss 467949
Core_0_L2C_prefetch_MPKI 9.35898
Core_0_L2C_prefetch_miss_rate 0.890583
Core_0_L2C_writeback_access 9412
Core_0_L2C_writeback_hit 9390
Core_0_L2C_writeback_miss 22
Core_0_L2C_writeback_MPKI 0.00044
Core_0_L2C_writeback_miss_rate 0.00233744
Core_0_L2C_prefetch_requested 143367
Core_0_L2C_prefetch_issued 143367
Core_0_L2C_prefetch_useful 6945
Core_0_L2C_prefetch_useless 86794
Core_0_L2C_prefetch_late 52
Core_0_L2C_prefetch_accuracy 0.0484421
Core_0_L2C_prefetch_coverage 0.00255135
Core_0_L2C_total_eviction 3180052

Core_0_LLC_total_access 3180762
Core_0_LLC_total_hit 654135
Core_0_LLC_total_miss 2526627
Core_0_LLC_total_MPKI 50.5325
Core_0_LLC_total_miss_rate 0.794346
Core_0_LLC_demand_access 2715091
Core_0_LLC_demand_hit 629589
Core_0_LLC_demand_miss 2085502
Core_0_LLC_demand_MPKI 41.71
Core_0_LLC_demand_miss_rate 0.768115
Core_0_LLC_load_access 2714840
Core_0_LLC_load_hit 629338
Core_0_LLC_load_miss 2085502
Core_0_LLC_load_MPKI 41.71
Core_0_LLC_load_miss_rate 0.768186
Core_0_LLC_rfo_access 251
Core_0_LLC_rfo_hit 251
Core_0_LLC_rfo_miss 0
Core_0_LLC_rfo_MPKI 0
Core_0_LLC_rfo_miss_rate 0
Core_0_LLC_prefetch_access 465028
Core_0_LLC_prefetch_hit 23911
Core_0_LLC_prefetch_miss 441117
Core_0_LLC_prefetch_MPKI 8.82234
Core_0_LLC_prefetch_miss_rate 0.948582
Core_0_LLC_writeback_access 643
Core_0_LLC_writeback_hit 635
Core_0_LLC_writeback_miss 8
Core_0_LLC_writeback_MPKI 0.00016
Core_0_LLC_writeback_miss_rate 0.0124417
Core_0_LLC_prefetch_requested 0
Core_0_LLC_prefetch_issued 0
Core_0_LLC_prefetch_useful 0
Core_0_LLC_prefetch_useless 0
Core_0_LLC_prefetch_late 0
Core_0_LLC_prefetch_accuracy 0
Core_0_LLC_prefetch_coverage 0
Core_0_LLC_total_eviction 2526628

[DRAM Statistics]
Channel_0_RQ_row_buffer_hit 38126
Channel_0_RQ_row_buffer_miss 2488494
Channel_0_WQ_row_buffer_hit 1
Channel_0_WQ_row_buffer_miss 6
Channel_0_WQ_full 0
Channel_0_dbus_congested 3603678
DRAM_total_RQ_row_buffer_hit 38126
DRAM_total_RQ_row_buffer_miss 2488494
DRAM_total_WQ_row_buffer_hit 1
DRAM_total_WQ_row_buffer_miss 6
DRAM_total_WQ_full 0
DRAM_total_dbus_congested 3603678
DRAM_avg_congested_cycle 2.98251

======STLB miss causes ========
Core_0_STLB_miss_cause_breakdown
Core_0_STLB_cause_Demand_Data_miss 0
Core_0_STLB_cause_Demand_Data_miss_rate 0
Core_0_STLB_cause_Demand_Instruction_miss 0
Core_0_STLB_cause_Demand_Instruction_miss_rate 0
Core_0_STLB_cause_L1D_Prefetch_miss 0
Core_0_STLB_cause_L1D_Prefetch_miss_rate 0
Core_0_STLB_cause_L1I_Prefetch_miss 0
Core_0_STLB_cause_L1I_Prefetch_miss_rate 0
Core_0_STLB_cause_Other_miss 0
Core_0_STLB_cause_Other_miss_rate 0
Core_0_STLB_Demand_miss 0
Core_0_STLB_Demand_miss_rate 0
Core_0_STLB_L1D_Prefetch_miss 0
Core_0_STLB_L1D_Prefetch_miss_rate 0
Core_0_STLB_Other_miss 0
Core_0_STLB_Other_miss_rate 0
