[VMEM] WARNING: physical memory size is smaller than virtual memory size.

*** ChampSim Multicore Out-of-Order Simulator ***
Warmup Instructions: 20000000
Simulation Instructions: 50000000
Number of CPUs: 1
Page size: 4096
STLB ideal mode: demand
Core 0: /data0/tzh/champsim_traces/SPEC06/403.gcc-17B.champsimtrace.xz
 L1D Berti prefetcher
Off-chip DRAM Size: 4 GiB Channels: 1 Width: 64-bit Data Rate: 3205 MT/s
Warmup halting CPU 0 at instruction 20000004 cycle 4488865 for remainder of phase
Warmup finished CPU 0 instructions: 20000004 cycles: 4488865 cumulative IPC: 4.455 (Simulation time: 00 hr 00 min 56 sec)
Warmup complete CPU 0 instructions: 20000004 cycles: 4488865 cumulative IPC: 4.455 (Simulation time: 00 hr 00 min 56 sec)
Simulation finished CPU 0 instructions: 50000000 cycles: 78257608 cumulative IPC: 0.6389 (Simulation time: 00 hr 09 min 39 sec)
Simulation complete CPU 0 instructions: 50000000 cycles: 78257608 cumulative IPC: 0.6389 (Simulation time: 00 hr 09 min 39 sec)

ChampSim completed all CPUs

=== Simulation ===
CPU 0 runs /data0/tzh/champsim_traces/SPEC06/403.gcc-17B.champsimtrace.xz

Region of Interest Statistics

CPU 0 cumulative IPC: 0.6389 instructions: 50000000 cycles: 78257608
CPU 0 Branch Prediction Accuracy: 95.57% MPKI: 9.606 Average ROB Occupancy at Mispredict: 60.79
Branch type MPKI
BRANCH_DIRECT_JUMP: 0.07566
BRANCH_INDIRECT: 0.5459
BRANCH_CONDITIONAL: 8.94
BRANCH_DIRECT_CALL: 0.0364
BRANCH_INDIRECT_CALL: 0.00216
BRANCH_RETURN: 0.00592

cpu0->cpu0_STLB TOTAL        ACCESS:     721358 HIT:     715447 MISS:       5911 MSHR_MERGE:          0
cpu0->cpu0_STLB LOAD         ACCESS:     721358 HIT:     715447 MISS:       5911 MSHR_MERGE:          0
cpu0->cpu0_STLB RFO          ACCESS:          0 HIT:          0 MISS:          0 MSHR_MERGE:          0
cpu0->cpu0_STLB PREFETCH     ACCESS:          0 HIT:          0 MISS:          0 MSHR_MERGE:          0
cpu0->cpu0_STLB WRITE        ACCESS:          0 HIT:          0 MISS:          0 MSHR_MERGE:          0
cpu0->cpu0_STLB TRANSLATION  ACCESS:          0 HIT:          0 MISS:          0 MSHR_MERGE:          0
cpu0->cpu0_STLB PREFETCH REQUESTED:          0 ISSUED:          0 USEFUL:          0 USELESS:          0 LATE:          0
cpu0->cpu0_STLB AVERAGE MISS LATENCY: 191.2 cycles
cpu0->cpu0_L2C TOTAL        ACCESS:    4264994 HIT:    2510448 MISS:    1754546 MSHR_MERGE:      84497
cpu0->cpu0_L2C LOAD         ACCESS:     650018 HIT:     487375 MISS:     162643 MSHR_MERGE:       4079
cpu0->cpu0_L2C RFO          ACCESS:     941724 HIT:      11704 MISS:     930020 MSHR_MERGE:       1393
cpu0->cpu0_L2C PREFETCH     ACCESS:    1670850 HIT:    1013234 MISS:     657616 MSHR_MERGE:      79025
cpu0->cpu0_L2C WRITE        ACCESS:     997723 HIT:     997339 MISS:        384 MSHR_MERGE:          0
cpu0->cpu0_L2C TRANSLATION  ACCESS:       4679 HIT:        796 MISS:       3883 MSHR_MERGE:          0
cpu0->cpu0_L2C PREFETCH REQUESTED:    1405632 ISSUED:    1347268 USEFUL:     213526 USELESS:     271844 LATE:       5472
cpu0->cpu0_L2C AVERAGE MISS LATENCY: 570.5 cycles
cpu0->cpu0_L1I TOTAL        ACCESS:    3608153 HIT:    3607664 MISS:        489 MSHR_MERGE:         57
cpu0->cpu0_L1I LOAD         ACCESS:    3608153 HIT:    3607664 MISS:        489 MSHR_MERGE:         57
cpu0->cpu0_L1I RFO          ACCESS:          0 HIT:          0 MISS:          0 MSHR_MERGE:          0
cpu0->cpu0_L1I PREFETCH     ACCESS:          0 HIT:          0 MISS:          0 MSHR_MERGE:          0
cpu0->cpu0_L1I WRITE        ACCESS:          0 HIT:          0 MISS:          0 MSHR_MERGE:          0
cpu0->cpu0_L1I TRANSLATION  ACCESS:          0 HIT:          0 MISS:          0 MSHR_MERGE:          0
cpu0->cpu0_L1I PREFETCH REQUESTED:          0 ISSUED:          0 USEFUL:          0 USELESS:          0 LATE:          0
cpu0->cpu0_L1I AVERAGE MISS LATENCY: 235 cycles
cpu0->cpu0_L1D TOTAL        ACCESS:   19483172 HIT:   10879848 MISS:    8603324 MSHR_MERGE:    6683730
cpu0->cpu0_L1D LOAD         ACCESS:    6997675 HIT:    6176716 MISS:     820959 MSHR_MERGE:     171371
cpu0->cpu0_L1D RFO          ACCESS:          0 HIT:          0 MISS:          0 MSHR_MERGE:          0
cpu0->cpu0_L1D PREFETCH     ACCESS:     507423 HIT:     169437 MISS:     337986 MSHR_MERGE:      14391
cpu0->cpu0_L1D WRITE        ACCESS:   11966147 HIT:    4526467 MISS:    7439680 MSHR_MERGE:    6497948
cpu0->cpu0_L1D TRANSLATION  ACCESS:      11927 HIT:       7228 MISS:       4699 MSHR_MERGE:         20
cpu0->cpu0_L1D PREFETCH REQUESTED:     507494 ISSUED:     507415 USEFUL:     143805 USELESS:     179811 LATE:      18484
cpu0->cpu0_L1D AVERAGE MISS LATENCY: 397.1 cycles
cpu0->cpu0_ITLB TOTAL        ACCESS:    3550193 HIT:    3550148 MISS:         45 MSHR_MERGE:         12
cpu0->cpu0_ITLB LOAD         ACCESS:    3550193 HIT:    3550148 MISS:         45 MSHR_MERGE:         12
cpu0->cpu0_ITLB RFO          ACCESS:          0 HIT:          0 MISS:          0 MSHR_MERGE:          0
cpu0->cpu0_ITLB PREFETCH     ACCESS:          0 HIT:          0 MISS:          0 MSHR_MERGE:          0
cpu0->cpu0_ITLB WRITE        ACCESS:          0 HIT:          0 MISS:          0 MSHR_MERGE:          0
cpu0->cpu0_ITLB TRANSLATION  ACCESS:          0 HIT:          0 MISS:          0 MSHR_MERGE:          0
cpu0->cpu0_ITLB PREFETCH REQUESTED:          0 ISSUED:          0 USEFUL:          0 USELESS:          0 LATE:          0
cpu0->cpu0_ITLB AVERAGE MISS LATENCY: 5 cycles
cpu0->cpu0_DTLB TOTAL        ACCESS:   18802585 HIT:   17908873 MISS:     893712 MSHR_MERGE:     172387
cpu0->cpu0_DTLB LOAD         ACCESS:   18802585 HIT:   17908873 MISS:     893712 MSHR_MERGE:     172387
cpu0->cpu0_DTLB RFO          ACCESS:          0 HIT:          0 MISS:          0 MSHR_MERGE:          0
cpu0->cpu0_DTLB PREFETCH     ACCESS:          0 HIT:          0 MISS:          0 MSHR_MERGE:          0
cpu0->cpu0_DTLB WRITE        ACCESS:          0 HIT:          0 MISS:          0 MSHR_MERGE:          0
cpu0->cpu0_DTLB TRANSLATION  ACCESS:          0 HIT:          0 MISS:          0 MSHR_MERGE:          0
cpu0->cpu0_DTLB PREFETCH REQUESTED:          0 ISSUED:          0 USEFUL:          0 USELESS:          0 LATE:          0
cpu0->cpu0_DTLB AVERAGE MISS LATENCY: 6.58 cycles
cpu0->LLC TOTAL        ACCESS:    2654870 HIT:     352456 MISS:    2302414 MSHR_MERGE:          0
cpu0->LLC LOAD         ACCESS:     158563 HIT:      53184 MISS:     105379 MSHR_MERGE:          0
cpu0->LLC RFO          ACCESS:     928627 HIT:        583 MISS:     928044 MSHR_MERGE:          0
cpu0->LLC PREFETCH     ACCESS:     578591 HIT:     116894 MISS:     461697 MSHR_MERGE:          0
cpu0->LLC WRITE        ACCESS:     985206 HIT:     181423 MISS:     803783 MSHR_MERGE:          0
cpu0->LLC TRANSLATION  ACCESS:       3883 HIT:        372 MISS:       3511 MSHR_MERGE:          0
cpu0->LLC PREFETCH REQUESTED:          0 ISSUED:          0 USEFUL:          0 USELESS:          0 LATE:          0
cpu0->LLC AVERAGE MISS LATENCY: 333.4 cycles

DRAM Statistics

Channel 0 RQ ROW_BUFFER_HIT:     140049
  ROW_BUFFER_MISS:    1358579
  AVG DBUS CONGESTED CYCLE: 7.338
Channel 0 WQ ROW_BUFFER_HIT:      86977
  ROW_BUFFER_MISS:     889847
  FULL:          0
Channel 0 REFRESHES ISSUED:       6521

[ROI Statistics]
[System Configuration]
num_cpus 1
cpu_freq 4000
fetch_width 6
decode_width 6
dispatch_width 6
execute_width 6
lq_width 2
sq_width 2
retire_width 6
scheduler_size 160
branch_mispredict_penalty 1
rob_size 352
lq_size 240
sq_size 112
ifetch_buffer_size 64
decode_buffer_size 32
dispatch_buffer_size 32
register_file_size 288
decode_latency 1
dispatch_latency 1
schedule_latency 0
execute_latency 0
page_size 4096
block_size 64
core_0_itlb_set 16
core_0_itlb_way 4
core_0_itlb_rq_size 16
core_0_itlb_wq_size 16
core_0_itlb_pq_size 0
core_0_itlb_mshr_size 8
core_0_itlb_hit_latency 1
core_0_itlb_fill_latency 1
core_0_itlb_max_tag_check 2
core_0_itlb_max_fill 2
core_0_dtlb_set 16
core_0_dtlb_way 4
core_0_dtlb_rq_size 16
core_0_dtlb_wq_size 16
core_0_dtlb_pq_size 0
core_0_dtlb_mshr_size 8
core_0_dtlb_hit_latency 1
core_0_dtlb_fill_latency 1
core_0_dtlb_max_tag_check 2
core_0_dtlb_max_fill 2
core_0_stlb_set 128
core_0_stlb_way 12
core_0_stlb_rq_size 32
core_0_stlb_wq_size 32
core_0_stlb_pq_size 0
core_0_stlb_mshr_size 16
core_0_stlb_hit_latency 4
core_0_stlb_fill_latency 4
core_0_stlb_max_tag_check 1
core_0_stlb_max_fill 1
core_0_l1i_set 64
core_0_l1i_way 8
core_0_l1i_rq_size 64
core_0_l1i_wq_size 64
core_0_l1i_pq_size 32
core_0_l1i_mshr_size 8
core_0_l1i_hit_latency 2
core_0_l1i_fill_latency 2
core_0_l1i_max_tag_check 2
core_0_l1i_max_fill 2
core_0_l1d_set 64
core_0_l1d_way 12
core_0_l1d_rq_size 64
core_0_l1d_wq_size 64
core_0_l1d_pq_size 8
core_0_l1d_mshr_size 16
core_0_l1d_hit_latency 2
core_0_l1d_fill_latency 3
core_0_l1d_max_tag_check 2
core_0_l1d_max_fill 2
core_0_l2c_set 1024
core_0_l2c_way 8
core_0_l2c_rq_size 32
core_0_l2c_wq_size 32
core_0_l2c_pq_size 16
core_0_l2c_mshr_size 32
core_0_l2c_hit_latency 5
core_0_l2c_fill_latency 5
core_0_l2c_max_tag_check 1
core_0_l2c_max_fill 1
llc_set 2048
llc_way 16
llc_rq_size 32
llc_wq_size 32
llc_pq_size 32
llc_mshr_size 64
llc_hit_latency 10
llc_fill_latency 10
llc_max_tag_check 1
llc_max_fill 1
dram_channels 1
dram_ranks 1
dram_bankgroups 8
dram_banks 4
dram_rows 16384
dram_columns 1024
dram_channel_width 8
dram_rq_size 64
dram_wq_size 64
dram_size 4294967296
core_0_itlb_prefetcher no
core_0_dtlb_prefetcher no
core_0_stlb_prefetcher no
core_0_l1i_prefetcher next_line
core_0_l1d_prefetcher berti
core_0_l2c_prefetcher pythia
llc_prefetcher no
llc_replacement drrip

Core_0_instructions 50000000
Core_0_cycles 78257608
Core_0_IPC 0.638916
Core_0_branch_prediction_accuracy 95.5692
Core_0_branch_MPKI 9.60642
Core_0_average_ROB_occupancy_at_mispredict 60.7938

Core_0_ITLB_total_access 3550193
Core_0_ITLB_total_hit 3550148
Core_0_ITLB_total_miss 45
Core_0_ITLB_total_MPKI 0.0009
Core_0_ITLB_total_miss_rate 1.26754e-05
Core_0_ITLB_demand_access 3550193
Core_0_ITLB_demand_hit 3550148
Core_0_ITLB_demand_miss 45
Core_0_ITLB_demand_MPKI 0.0009
Core_0_ITLB_demand_miss_rate 1.26754e-05
Core_0_ITLB_load_access 3550193
Core_0_ITLB_load_hit 3550148
Core_0_ITLB_load_miss 45
Core_0_ITLB_load_MPKI 0.0009
Core_0_ITLB_load_miss_rate 1.26754e-05
Core_0_ITLB_rfo_access 0
Core_0_ITLB_rfo_hit 0
Core_0_ITLB_rfo_miss 0
Core_0_ITLB_rfo_MPKI 0
Core_0_ITLB_rfo_miss_rate 0
Core_0_ITLB_prefetch_access 0
Core_0_ITLB_prefetch_hit 0
Core_0_ITLB_prefetch_miss 0
Core_0_ITLB_prefetch_MPKI 0
Core_0_ITLB_prefetch_miss_rate 0
Core_0_ITLB_writeback_access 0
Core_0_ITLB_writeback_hit 0
Core_0_ITLB_writeback_miss 0
Core_0_ITLB_writeback_MPKI 0
Core_0_ITLB_writeback_miss_rate 0
Core_0_ITLB_prefetch_requested 0
Core_0_ITLB_prefetch_issued 0
Core_0_ITLB_prefetch_useful 0
Core_0_ITLB_prefetch_useless 0
Core_0_ITLB_prefetch_late 0
Core_0_ITLB_prefetch_accuracy 0
Core_0_ITLB_prefetch_coverage 0

Core_0_DTLB_total_access 18802585
Core_0_DTLB_total_hit 17908873
Core_0_DTLB_total_miss 893712
Core_0_DTLB_total_MPKI 17.8742
Core_0_DTLB_total_miss_rate 0.0475313
Core_0_DTLB_demand_access 18802585
Core_0_DTLB_demand_hit 17908873
Core_0_DTLB_demand_miss 893712
Core_0_DTLB_demand_MPKI 17.8742
Core_0_DTLB_demand_miss_rate 0.0475313
Core_0_DTLB_load_access 18802585
Core_0_DTLB_load_hit 17908873
Core_0_DTLB_load_miss 893712
Core_0_DTLB_load_MPKI 17.8742
Core_0_DTLB_load_miss_rate 0.0475313
Core_0_DTLB_rfo_access 0
Core_0_DTLB_rfo_hit 0
Core_0_DTLB_rfo_miss 0
Core_0_DTLB_rfo_MPKI 0
Core_0_DTLB_rfo_miss_rate 0
Core_0_DTLB_prefetch_access 0
Core_0_DTLB_prefetch_hit 0
Core_0_DTLB_prefetch_miss 0
Core_0_DTLB_prefetch_MPKI 0
Core_0_DTLB_prefetch_miss_rate 0
Core_0_DTLB_writeback_access 0
Core_0_DTLB_writeback_hit 0
Core_0_DTLB_writeback_miss 0
Core_0_DTLB_writeback_MPKI 0
Core_0_DTLB_writeback_miss_rate 0
Core_0_DTLB_prefetch_requested 0
Core_0_DTLB_prefetch_issued 0
Core_0_DTLB_prefetch_useful 0
Core_0_DTLB_prefetch_useless 0
Core_0_DTLB_prefetch_late 0
Core_0_DTLB_prefetch_accuracy 0
Core_0_DTLB_prefetch_coverage 0

Core_0_STLB_total_access 721358
Core_0_STLB_total_hit 715447
Core_0_STLB_total_miss 5911
Core_0_STLB_total_MPKI 0.11822
Core_0_STLB_total_miss_rate 0.00819427
Core_0_STLB_demand_access 721358
Core_0_STLB_demand_hit 715447
Core_0_STLB_demand_miss 5911
Core_0_STLB_demand_MPKI 0.11822
Core_0_STLB_demand_miss_rate 0.00819427
Core_0_STLB_load_access 721358
Core_0_STLB_load_hit 715447
Core_0_STLB_load_miss 5911
Core_0_STLB_load_MPKI 0.11822
Core_0_STLB_load_miss_rate 0.00819427
Core_0_STLB_rfo_access 0
Core_0_STLB_rfo_hit 0
Core_0_STLB_rfo_miss 0
Core_0_STLB_rfo_MPKI 0
Core_0_STLB_rfo_miss_rate 0
Core_0_STLB_prefetch_access 0
Core_0_STLB_prefetch_hit 0
Core_0_STLB_prefetch_miss 0
Core_0_STLB_prefetch_MPKI 0
Core_0_STLB_prefetch_miss_rate 0
Core_0_STLB_writeback_access 0
Core_0_STLB_writeback_hit 0
Core_0_STLB_writeback_miss 0
Core_0_STLB_writeback_MPKI 0
Core_0_STLB_writeback_miss_rate 0
Core_0_STLB_prefetch_requested 0
Core_0_STLB_prefetch_issued 0
Core_0_STLB_prefetch_useful 0
Core_0_STLB_prefetch_useless 0
Core_0_STLB_prefetch_late 0
Core_0_STLB_prefetch_accuracy 0
Core_0_STLB_prefetch_coverage 0

Core_0_L1I_total_access 3608153
Core_0_L1I_total_hit 3607664
Core_0_L1I_total_miss 489
Core_0_L1I_total_MPKI 0.00978
Core_0_L1I_total_miss_rate 0.000135526
Core_0_L1I_demand_access 3608153
Core_0_L1I_demand_hit 3607664
Core_0_L1I_demand_miss 489
Core_0_L1I_demand_MPKI 0.00978
Core_0_L1I_demand_miss_rate 0.000135526
Core_0_L1I_load_access 3608153
Core_0_L1I_load_hit 3607664
Core_0_L1I_load_miss 489
Core_0_L1I_load_MPKI 0.00978
Core_0_L1I_load_miss_rate 0.000135526
Core_0_L1I_rfo_access 0
Core_0_L1I_rfo_hit 0
Core_0_L1I_rfo_miss 0
Core_0_L1I_rfo_MPKI 0
Core_0_L1I_rfo_miss_rate 0
Core_0_L1I_prefetch_access 0
Core_0_L1I_prefetch_hit 0
Core_0_L1I_prefetch_miss 0
Core_0_L1I_prefetch_MPKI 0
Core_0_L1I_prefetch_miss_rate 0
Core_0_L1I_writeback_access 0
Core_0_L1I_writeback_hit 0
Core_0_L1I_writeback_miss 0
Core_0_L1I_writeback_MPKI 0
Core_0_L1I_writeback_miss_rate 0
Core_0_L1I_prefetch_requested 0
Core_0_L1I_prefetch_issued 0
Core_0_L1I_prefetch_useful 0
Core_0_L1I_prefetch_useless 0
Core_0_L1I_prefetch_late 0
Core_0_L1I_prefetch_accuracy 0
Core_0_L1I_prefetch_coverage 0

Core_0_L1D_total_access 19471245
Core_0_L1D_total_hit 10872620
Core_0_L1D_total_miss 8598625
Core_0_L1D_total_MPKI 171.972
Core_0_L1D_total_miss_rate 0.441606
Core_0_L1D_demand_access 6997675
Core_0_L1D_demand_hit 6176716
Core_0_L1D_demand_miss 820959
Core_0_L1D_demand_MPKI 16.4192
Core_0_L1D_demand_miss_rate 0.117319
Core_0_L1D_load_access 6997675
Core_0_L1D_load_hit 6176716
Core_0_L1D_load_miss 820959
Core_0_L1D_load_MPKI 16.4192
Core_0_L1D_load_miss_rate 0.117319
Core_0_L1D_rfo_access 0
Core_0_L1D_rfo_hit 0
Core_0_L1D_rfo_miss 0
Core_0_L1D_rfo_MPKI 0
Core_0_L1D_rfo_miss_rate 0
Core_0_L1D_prefetch_access 507423
Core_0_L1D_prefetch_hit 169437
Core_0_L1D_prefetch_miss 337986
Core_0_L1D_prefetch_MPKI 6.75972
Core_0_L1D_prefetch_miss_rate 0.666083
Core_0_L1D_writeback_access 11966147
Core_0_L1D_writeback_hit 4526467
Core_0_L1D_writeback_miss 7439680
Core_0_L1D_writeback_MPKI 148.794
Core_0_L1D_writeback_miss_rate 0.621727
Core_0_L1D_prefetch_requested 507494
Core_0_L1D_prefetch_issued 507415
Core_0_L1D_prefetch_useful 143805
Core_0_L1D_prefetch_useless 179811
Core_0_L1D_prefetch_late 18484
Core_0_L1D_prefetch_accuracy 0.283407
Core_0_L1D_prefetch_coverage 0.149057

Core_0_L2C_total_access 4260315
Core_0_L2C_total_hit 2509652
Core_0_L2C_total_miss 1750663
Core_0_L2C_total_MPKI 35.0133
Core_0_L2C_total_miss_rate 0.410923
Core_0_L2C_demand_access 1591742
Core_0_L2C_demand_hit 499079
Core_0_L2C_demand_miss 1092663
Core_0_L2C_demand_MPKI 21.8533
Core_0_L2C_demand_miss_rate 0.686457
Core_0_L2C_load_access 650018
Core_0_L2C_load_hit 487375
Core_0_L2C_load_miss 162643
Core_0_L2C_load_MPKI 3.25286
Core_0_L2C_load_miss_rate 0.250213
Core_0_L2C_rfo_access 941724
Core_0_L2C_rfo_hit 11704
Core_0_L2C_rfo_miss 930020
Core_0_L2C_rfo_MPKI 18.6004
Core_0_L2C_rfo_miss_rate 0.987572
Core_0_L2C_prefetch_access 1670850
Core_0_L2C_prefetch_hit 1013234
Core_0_L2C_prefetch_miss 657616
Core_0_L2C_prefetch_MPKI 13.1523
Core_0_L2C_prefetch_miss_rate 0.393582
Core_0_L2C_writeback_access 997723
Core_0_L2C_writeback_hit 997339
Core_0_L2C_writeback_miss 384
Core_0_L2C_writeback_MPKI 0.00768
Core_0_L2C_writeback_miss_rate 0.000384876
Core_0_L2C_prefetch_requested 1405632
Core_0_L2C_prefetch_issued 1347268
Core_0_L2C_prefetch_useful 213526
Core_0_L2C_prefetch_useless 271844
Core_0_L2C_prefetch_late 5472
Core_0_L2C_prefetch_accuracy 0.158488
Core_0_L2C_prefetch_coverage 0.163473

Core_0_LLC_total_access 2650987
Core_0_LLC_total_hit 352084
Core_0_LLC_total_miss 2298903
Core_0_LLC_total_MPKI 45.9781
Core_0_LLC_total_miss_rate 0.867188
Core_0_LLC_demand_access 1087190
Core_0_LLC_demand_hit 53767
Core_0_LLC_demand_miss 1033423
Core_0_LLC_demand_MPKI 20.6685
Core_0_LLC_demand_miss_rate 0.950545
Core_0_LLC_load_access 158563
Core_0_LLC_load_hit 53184
Core_0_LLC_load_miss 105379
Core_0_LLC_load_MPKI 2.10758
Core_0_LLC_load_miss_rate 0.664588
Core_0_LLC_rfo_access 928627
Core_0_LLC_rfo_hit 583
Core_0_LLC_rfo_miss 928044
Core_0_LLC_rfo_MPKI 18.5609
Core_0_LLC_rfo_miss_rate 0.999372
Core_0_LLC_prefetch_access 578591
Core_0_LLC_prefetch_hit 116894
Core_0_LLC_prefetch_miss 461697
Core_0_LLC_prefetch_MPKI 9.23394
Core_0_LLC_prefetch_miss_rate 0.797968
Core_0_LLC_writeback_access 985206
Core_0_LLC_writeback_hit 181423
Core_0_LLC_writeback_miss 803783
Core_0_LLC_writeback_MPKI 16.0757
Core_0_LLC_writeback_miss_rate 0.815853
Core_0_LLC_prefetch_requested 0
Core_0_LLC_prefetch_issued 0
Core_0_LLC_prefetch_useful 0
Core_0_LLC_prefetch_useless 0
Core_0_LLC_prefetch_late 0
Core_0_LLC_prefetch_accuracy 0
Core_0_LLC_prefetch_coverage 0

[DRAM Statistics]
Channel_0_RQ_row_buffer_hit 140049
Channel_0_RQ_row_buffer_miss 1358579
Channel_0_WQ_row_buffer_hit 86977
Channel_0_WQ_row_buffer_miss 889847
Channel_0_WQ_full 0
Channel_0_dbus_congested 8544785
DRAM_total_RQ_row_buffer_hit 140049
DRAM_total_RQ_row_buffer_miss 1358579
DRAM_total_WQ_row_buffer_hit 86977
DRAM_total_WQ_row_buffer_miss 889847
DRAM_total_WQ_full 0
DRAM_total_dbus_congested 8544785
DRAM_avg_congested_cycle 7.33751

======STLB miss causes ========
Core_0_STLB_miss_cause_breakdown
Core_0_STLB_cause_Demand_Data_miss 0
Core_0_STLB_cause_Demand_Data_miss_rate 0
Core_0_STLB_cause_Demand_Instruction_miss 0
Core_0_STLB_cause_Demand_Instruction_miss_rate 0
Core_0_STLB_cause_L1D_Prefetch_miss 5911
Core_0_STLB_cause_L1D_Prefetch_miss_rate 0.00819427
Core_0_STLB_cause_L1I_Prefetch_miss 0
Core_0_STLB_cause_L1I_Prefetch_miss_rate 0
Core_0_STLB_cause_Other_miss 0
Core_0_STLB_cause_Other_miss_rate 0
Core_0_STLB_Demand_miss 0
Core_0_STLB_Demand_miss_rate 0
Core_0_STLB_L1D_Prefetch_miss 5911
Core_0_STLB_L1D_Prefetch_miss_rate 0.00819427
Core_0_STLB_Other_miss 0
Core_0_STLB_Other_miss_rate 0
