[VMEM] WARNING: physical memory size is smaller than virtual memory size.

*** ChampSim Multicore Out-of-Order Simulator ***
Warmup Instructions: 20000000
Simulation Instructions: 50000000
Number of CPUs: 1
Page size: 4096
STLB ideal mode: demand
Core 0: /data0/tzh/champsim_traces/SPEC06/429.mcf-22B.champsimtrace.xz
 L1D Berti prefetcher
Off-chip DRAM Size: 4 GiB Channels: 1 Width: 64-bit Data Rate: 3205 MT/s
Warmup halting CPU 0 at instruction 20000001 cycle 5906278 for remainder of phase
Warmup finished CPU 0 instructions: 20000001 cycles: 5906278 cumulative IPC: 3.386 (Simulation time: 00 hr 01 min 30 sec)
Warmup complete CPU 0 instructions: 20000001 cycles: 5906278 cumulative IPC: 3.386 (Simulation time: 00 hr 01 min 30 sec)
Simulation finished CPU 0 instructions: 50000001 cycles: 56974940 cumulative IPC: 0.8776 (Simulation time: 00 hr 09 min 32 sec)
Simulation complete CPU 0 instructions: 50000001 cycles: 56974940 cumulative IPC: 0.8776 (Simulation time: 00 hr 09 min 32 sec)

ChampSim completed all CPUs

=== Simulation ===
CPU 0 runs /data0/tzh/champsim_traces/SPEC06/429.mcf-22B.champsimtrace.xz

Region of Interest Statistics

CPU 0 cumulative IPC: 0.8776 instructions: 50000001 cycles: 56974940
CPU 0 Branch Prediction Accuracy: 97.97% MPKI: 1.749 Average ROB Occupancy at Mispredict: 194.8
Branch type MPKI
BRANCH_DIRECT_JUMP: 0
BRANCH_INDIRECT: 0
BRANCH_CONDITIONAL: 1.749
BRANCH_DIRECT_CALL: 0
BRANCH_INDIRECT_CALL: 0
BRANCH_RETURN: 0

cpu0->cpu0_STLB TOTAL        ACCESS:     251904 HIT:     234825 MISS:      17079 MSHR_MERGE:          0
cpu0->cpu0_STLB LOAD         ACCESS:     251904 HIT:     234825 MISS:      17079 MSHR_MERGE:          0
cpu0->cpu0_STLB RFO          ACCESS:          0 HIT:          0 MISS:          0 MSHR_MERGE:          0
cpu0->cpu0_STLB PREFETCH     ACCESS:          0 HIT:          0 MISS:          0 MSHR_MERGE:          0
cpu0->cpu0_STLB WRITE        ACCESS:          0 HIT:          0 MISS:          0 MSHR_MERGE:          0
cpu0->cpu0_STLB TRANSLATION  ACCESS:          0 HIT:          0 MISS:          0 MSHR_MERGE:          0
cpu0->cpu0_STLB PREFETCH REQUESTED:          0 ISSUED:          0 USEFUL:          0 USELESS:          0 LATE:          0
cpu0->cpu0_STLB AVERAGE MISS LATENCY: 471.3 cycles
cpu0->cpu0_L2C TOTAL        ACCESS:    5121975 HIT:    2532233 MISS:    2589742 MSHR_MERGE:     852857
cpu0->cpu0_L2C LOAD         ACCESS:     833885 HIT:     138026 MISS:     695859 MSHR_MERGE:     119120
cpu0->cpu0_L2C RFO          ACCESS:       2201 HIT:       2191 MISS:         10 MSHR_MERGE:          0
cpu0->cpu0_L2C PREFETCH     ACCESS:    3583493 HIT:    1701031 MISS:    1882462 MSHR_MERGE:     733737
cpu0->cpu0_L2C WRITE        ACCESS:     688100 HIT:     687590 MISS:        510 MSHR_MERGE:          0
cpu0->cpu0_L2C TRANSLATION  ACCESS:      14296 HIT:       3395 MISS:      10901 MSHR_MERGE:          0
cpu0->cpu0_L2C PREFETCH REQUESTED:    3229085 ISSUED:    2945346 USEFUL:     539979 USELESS:     368229 LATE:     119120
cpu0->cpu0_L2C AVERAGE MISS LATENCY: 404.9 cycles
cpu0->cpu0_L1I TOTAL        ACCESS:    5417479 HIT:    5417479 MISS:          0 MSHR_MERGE:          0
cpu0->cpu0_L1I LOAD         ACCESS:    5417479 HIT:    5417479 MISS:          0 MSHR_MERGE:          0
cpu0->cpu0_L1I RFO          ACCESS:          0 HIT:          0 MISS:          0 MSHR_MERGE:          0
cpu0->cpu0_L1I PREFETCH     ACCESS:          0 HIT:          0 MISS:          0 MSHR_MERGE:          0
cpu0->cpu0_L1I WRITE        ACCESS:          0 HIT:          0 MISS:          0 MSHR_MERGE:          0
cpu0->cpu0_L1I TRANSLATION  ACCESS:          0 HIT:          0 MISS:          0 MSHR_MERGE:          0
cpu0->cpu0_L1I PREFETCH REQUESTED:          0 ISSUED:          0 USEFUL:          0 USELESS:          0 LATE:          0
cpu0->cpu0_L1I AVERAGE MISS LATENCY: - cycles
cpu0->cpu0_L1D TOTAL        ACCESS:   16097416 HIT:   14346906 MISS:    1750510 MSHR_MERGE:     261965
cpu0->cpu0_L1D LOAD         ACCESS:    6547845 HIT:    5481409 MISS:    1066436 MSHR_MERGE:     232540
cpu0->cpu0_L1D RFO          ACCESS:          0 HIT:          0 MISS:          0 MSHR_MERGE:          0
cpu0->cpu0_L1D PREFETCH     ACCESS:     894924 HIT:     233539 MISS:     661385 MSHR_MERGE:      23237
cpu0->cpu0_L1D WRITE        ACCESS:    8618538 HIT:    8610145 MISS:       8393 MSHR_MERGE:       6188
cpu0->cpu0_L1D TRANSLATION  ACCESS:      36109 HIT:      21813 MISS:      14296 MSHR_MERGE:          0
cpu0->cpu0_L1D PREFETCH REQUESTED:     948374 ISSUED:     894918 USEFUL:     409476 USELESS:     228588 LATE:      23114
cpu0->cpu0_L1D AVERAGE MISS LATENCY: 340.3 cycles
cpu0->cpu0_ITLB TOTAL        ACCESS:    4449274 HIT:    4449274 MISS:          0 MSHR_MERGE:          0
cpu0->cpu0_ITLB LOAD         ACCESS:    4449274 HIT:    4449274 MISS:          0 MSHR_MERGE:          0
cpu0->cpu0_ITLB RFO          ACCESS:          0 HIT:          0 MISS:          0 MSHR_MERGE:          0
cpu0->cpu0_ITLB PREFETCH     ACCESS:          0 HIT:          0 MISS:          0 MSHR_MERGE:          0
cpu0->cpu0_ITLB WRITE        ACCESS:          0 HIT:          0 MISS:          0 MSHR_MERGE:          0
cpu0->cpu0_ITLB TRANSLATION  ACCESS:          0 HIT:          0 MISS:          0 MSHR_MERGE:          0
cpu0->cpu0_ITLB PREFETCH REQUESTED:          0 ISSUED:          0 USEFUL:          0 USELESS:          0 LATE:          0
cpu0->cpu0_ITLB AVERAGE MISS LATENCY: - cycles
cpu0->cpu0_DTLB TOTAL        ACCESS:   14492928 HIT:   14059438 MISS:     433490 MSHR_MERGE:     181586
cpu0->cpu0_DTLB LOAD         ACCESS:   14492928 HIT:   14059438 MISS:     433490 MSHR_MERGE:     181586
cpu0->cpu0_DTLB RFO          ACCESS:          0 HIT:          0 MISS:          0 MSHR_MERGE:          0
cpu0->cpu0_DTLB PREFETCH     ACCESS:          0 HIT:          0 MISS:          0 MSHR_MERGE:          0
cpu0->cpu0_DTLB WRITE        ACCESS:          0 HIT:          0 MISS:          0 MSHR_MERGE:          0
cpu0->cpu0_DTLB TRANSLATION  ACCESS:          0 HIT:          0 MISS:          0 MSHR_MERGE:          0
cpu0->cpu0_DTLB PREFETCH REQUESTED:          0 ISSUED:          0 USEFUL:          0 USELESS:          0 LATE:          0
cpu0->cpu0_DTLB AVERAGE MISS LATENCY: 37.03 cycles
cpu0->LLC TOTAL        ACCESS:    2398236 HIT:     187140 MISS:    2211096 MSHR_MERGE:          0
cpu0->LLC LOAD         ACCESS:     576739 HIT:      24961 MISS:     551778 MSHR_MERGE:          0
cpu0->LLC RFO          ACCESS:         10 HIT:          2 MISS:          8 MSHR_MERGE:          0
cpu0->LLC PREFETCH     ACCESS:    1148725 HIT:      33489 MISS:    1115236 MSHR_MERGE:          0
cpu0->LLC WRITE        ACCESS:     661861 HIT:     128539 MISS:     533322 MSHR_MERGE:          0
cpu0->LLC TRANSLATION  ACCESS:      10901 HIT:        149 MISS:      10752 MSHR_MERGE:          0
cpu0->LLC PREFETCH REQUESTED:          0 ISSUED:          0 USEFUL:          0 USELESS:          0 LATE:          0
cpu0->LLC AVERAGE MISS LATENCY: 212.7 cycles

DRAM Statistics

Channel 0 RQ ROW_BUFFER_HIT:      54622
  ROW_BUFFER_MISS:    1623101
  AVG DBUS CONGESTED CYCLE: 5.832
Channel 0 WQ ROW_BUFFER_HIT:      74565
  ROW_BUFFER_MISS:     554911
  FULL:         63
Channel 0 REFRESHES ISSUED:       4748

[ROI Statistics]
[System Configuration]
num_cpus 1
cpu_freq 4000
fetch_width 6
decode_width 6
dispatch_width 6
execute_width 6
lq_width 2
sq_width 2
retire_width 6
scheduler_size 160
branch_mispredict_penalty 1
rob_size 352
lq_size 240
sq_size 112
ifetch_buffer_size 64
decode_buffer_size 32
dispatch_buffer_size 32
register_file_size 288
decode_latency 1
dispatch_latency 1
schedule_latency 0
execute_latency 0
page_size 4096
block_size 64
core_0_itlb_set 16
core_0_itlb_way 4
core_0_itlb_rq_size 16
core_0_itlb_wq_size 16
core_0_itlb_pq_size 0
core_0_itlb_mshr_size 8
core_0_itlb_hit_latency 1
core_0_itlb_fill_latency 1
core_0_itlb_max_tag_check 2
core_0_itlb_max_fill 2
core_0_dtlb_set 16
core_0_dtlb_way 4
core_0_dtlb_rq_size 16
core_0_dtlb_wq_size 16
core_0_dtlb_pq_size 0
core_0_dtlb_mshr_size 8
core_0_dtlb_hit_latency 1
core_0_dtlb_fill_latency 1
core_0_dtlb_max_tag_check 2
core_0_dtlb_max_fill 2
core_0_stlb_set 128
core_0_stlb_way 12
core_0_stlb_rq_size 32
core_0_stlb_wq_size 32
core_0_stlb_pq_size 0
core_0_stlb_mshr_size 16
core_0_stlb_hit_latency 4
core_0_stlb_fill_latency 4
core_0_stlb_max_tag_check 1
core_0_stlb_max_fill 1
core_0_l1i_set 64
core_0_l1i_way 8
core_0_l1i_rq_size 64
core_0_l1i_wq_size 64
core_0_l1i_pq_size 32
core_0_l1i_mshr_size 8
core_0_l1i_hit_latency 2
core_0_l1i_fill_latency 2
core_0_l1i_max_tag_check 2
core_0_l1i_max_fill 2
core_0_l1d_set 64
core_0_l1d_way 12
core_0_l1d_rq_size 64
core_0_l1d_wq_size 64
core_0_l1d_pq_size 8
core_0_l1d_mshr_size 16
core_0_l1d_hit_latency 2
core_0_l1d_fill_latency 3
core_0_l1d_max_tag_check 2
core_0_l1d_max_fill 2
core_0_l2c_set 1024
core_0_l2c_way 8
core_0_l2c_rq_size 32
core_0_l2c_wq_size 32
core_0_l2c_pq_size 16
core_0_l2c_mshr_size 32
core_0_l2c_hit_latency 5
core_0_l2c_fill_latency 5
core_0_l2c_max_tag_check 1
core_0_l2c_max_fill 1
llc_set 2048
llc_way 16
llc_rq_size 32
llc_wq_size 32
llc_pq_size 32
llc_mshr_size 64
llc_hit_latency 10
llc_fill_latency 10
llc_max_tag_check 1
llc_max_fill 1
dram_channels 1
dram_ranks 1
dram_bankgroups 8
dram_banks 4
dram_rows 16384
dram_columns 1024
dram_channel_width 8
dram_rq_size 64
dram_wq_size 64
dram_size 4294967296
core_0_itlb_prefetcher no
core_0_dtlb_prefetcher no
core_0_stlb_prefetcher no
core_0_l1i_prefetcher next_line
core_0_l1d_prefetcher berti
core_0_l2c_prefetcher pythia
llc_prefetcher no
llc_replacement drrip

Core_0_instructions 50000001
Core_0_cycles 56974940
Core_0_IPC 0.877579
Core_0_branch_prediction_accuracy 97.9736
Core_0_branch_MPKI 1.74904
Core_0_average_ROB_occupancy_at_mispredict 194.806

Core_0_ITLB_total_access 4449274
Core_0_ITLB_total_hit 4449274
Core_0_ITLB_total_miss 0
Core_0_ITLB_total_MPKI 0
Core_0_ITLB_total_miss_rate 0
Core_0_ITLB_demand_access 4449274
Core_0_ITLB_demand_hit 4449274
Core_0_ITLB_demand_miss 0
Core_0_ITLB_demand_MPKI 0
Core_0_ITLB_demand_miss_rate 0
Core_0_ITLB_load_access 4449274
Core_0_ITLB_load_hit 4449274
Core_0_ITLB_load_miss 0
Core_0_ITLB_load_MPKI 0
Core_0_ITLB_load_miss_rate 0
Core_0_ITLB_rfo_access 0
Core_0_ITLB_rfo_hit 0
Core_0_ITLB_rfo_miss 0
Core_0_ITLB_rfo_MPKI 0
Core_0_ITLB_rfo_miss_rate 0
Core_0_ITLB_prefetch_access 0
Core_0_ITLB_prefetch_hit 0
Core_0_ITLB_prefetch_miss 0
Core_0_ITLB_prefetch_MPKI 0
Core_0_ITLB_prefetch_miss_rate 0
Core_0_ITLB_writeback_access 0
Core_0_ITLB_writeback_hit 0
Core_0_ITLB_writeback_miss 0
Core_0_ITLB_writeback_MPKI 0
Core_0_ITLB_writeback_miss_rate 0
Core_0_ITLB_prefetch_requested 0
Core_0_ITLB_prefetch_issued 0
Core_0_ITLB_prefetch_useful 0
Core_0_ITLB_prefetch_useless 0
Core_0_ITLB_prefetch_late 0
Core_0_ITLB_prefetch_accuracy 0
Core_0_ITLB_prefetch_coverage 0

Core_0_DTLB_total_access 14492928
Core_0_DTLB_total_hit 14059438
Core_0_DTLB_total_miss 433490
Core_0_DTLB_total_MPKI 8.6698
Core_0_DTLB_total_miss_rate 0.0299105
Core_0_DTLB_demand_access 14492928
Core_0_DTLB_demand_hit 14059438
Core_0_DTLB_demand_miss 433490
Core_0_DTLB_demand_MPKI 8.6698
Core_0_DTLB_demand_miss_rate 0.0299105
Core_0_DTLB_load_access 14492928
Core_0_DTLB_load_hit 14059438
Core_0_DTLB_load_miss 433490
Core_0_DTLB_load_MPKI 8.6698
Core_0_DTLB_load_miss_rate 0.0299105
Core_0_DTLB_rfo_access 0
Core_0_DTLB_rfo_hit 0
Core_0_DTLB_rfo_miss 0
Core_0_DTLB_rfo_MPKI 0
Core_0_DTLB_rfo_miss_rate 0
Core_0_DTLB_prefetch_access 0
Core_0_DTLB_prefetch_hit 0
Core_0_DTLB_prefetch_miss 0
Core_0_DTLB_prefetch_MPKI 0
Core_0_DTLB_prefetch_miss_rate 0
Core_0_DTLB_writeback_access 0
Core_0_DTLB_writeback_hit 0
Core_0_DTLB_writeback_miss 0
Core_0_DTLB_writeback_MPKI 0
Core_0_DTLB_writeback_miss_rate 0
Core_0_DTLB_prefetch_requested 0
Core_0_DTLB_prefetch_issued 0
Core_0_DTLB_prefetch_useful 0
Core_0_DTLB_prefetch_useless 0
Core_0_DTLB_prefetch_late 0
Core_0_DTLB_prefetch_accuracy 0
Core_0_DTLB_prefetch_coverage 0

Core_0_STLB_total_access 251904
Core_0_STLB_total_hit 234825
Core_0_STLB_total_miss 17079
Core_0_STLB_total_MPKI 0.34158
Core_0_STLB_total_miss_rate 0.0677996
Core_0_STLB_demand_access 251904
Core_0_STLB_demand_hit 234825
Core_0_STLB_demand_miss 17079
Core_0_STLB_demand_MPKI 0.34158
Core_0_STLB_demand_miss_rate 0.0677996
Core_0_STLB_load_access 251904
Core_0_STLB_load_hit 234825
Core_0_STLB_load_miss 17079
Core_0_STLB_load_MPKI 0.34158
Core_0_STLB_load_miss_rate 0.0677996
Core_0_STLB_rfo_access 0
Core_0_STLB_rfo_hit 0
Core_0_STLB_rfo_miss 0
Core_0_STLB_rfo_MPKI 0
Core_0_STLB_rfo_miss_rate 0
Core_0_STLB_prefetch_access 0
Core_0_STLB_prefetch_hit 0
Core_0_STLB_prefetch_miss 0
Core_0_STLB_prefetch_MPKI 0
Core_0_STLB_prefetch_miss_rate 0
Core_0_STLB_writeback_access 0
Core_0_STLB_writeback_hit 0
Core_0_STLB_writeback_miss 0
Core_0_STLB_writeback_MPKI 0
Core_0_STLB_writeback_miss_rate 0
Core_0_STLB_prefetch_requested 0
Core_0_STLB_prefetch_issued 0
Core_0_STLB_prefetch_useful 0
Core_0_STLB_prefetch_useless 0
Core_0_STLB_prefetch_late 0
Core_0_STLB_prefetch_accuracy 0
Core_0_STLB_prefetch_coverage 0

Core_0_L1I_total_access 5417479
Core_0_L1I_total_hit 5417479
Core_0_L1I_total_miss 0
Core_0_L1I_total_MPKI 0
Core_0_L1I_total_miss_rate 0
Core_0_L1I_demand_access 5417479
Core_0_L1I_demand_hit 5417479
Core_0_L1I_demand_miss 0
Core_0_L1I_demand_MPKI 0
Core_0_L1I_demand_miss_rate 0
Core_0_L1I_load_access 5417479
Core_0_L1I_load_hit 5417479
Core_0_L1I_load_miss 0
Core_0_L1I_load_MPKI 0
Core_0_L1I_load_miss_rate 0
Core_0_L1I_rfo_access 0
Core_0_L1I_rfo_hit 0
Core_0_L1I_rfo_miss 0
Core_0_L1I_rfo_MPKI 0
Core_0_L1I_rfo_miss_rate 0
Core_0_L1I_prefetch_access 0
Core_0_L1I_prefetch_hit 0
Core_0_L1I_prefetch_miss 0
Core_0_L1I_prefetch_MPKI 0
Core_0_L1I_prefetch_miss_rate 0
Core_0_L1I_writeback_access 0
Core_0_L1I_writeback_hit 0
Core_0_L1I_writeback_miss 0
Core_0_L1I_writeback_MPKI 0
Core_0_L1I_writeback_miss_rate 0
Core_0_L1I_prefetch_requested 0
Core_0_L1I_prefetch_issued 0
Core_0_L1I_prefetch_useful 0
Core_0_L1I_prefetch_useless 0
Core_0_L1I_prefetch_late 0
Core_0_L1I_prefetch_accuracy 0
Core_0_L1I_prefetch_coverage 0

Core_0_L1D_total_access 16061307
Core_0_L1D_total_hit 14325093
Core_0_L1D_total_miss 1736214
Core_0_L1D_total_MPKI 34.7243
Core_0_L1D_total_miss_rate 0.108099
Core_0_L1D_demand_access 6547845
Core_0_L1D_demand_hit 5481409
Core_0_L1D_demand_miss 1066436
Core_0_L1D_demand_MPKI 21.3287
Core_0_L1D_demand_miss_rate 0.162868
Core_0_L1D_load_access 6547845
Core_0_L1D_load_hit 5481409
Core_0_L1D_load_miss 1066436
Core_0_L1D_load_MPKI 21.3287
Core_0_L1D_load_miss_rate 0.162868
Core_0_L1D_rfo_access 0
Core_0_L1D_rfo_hit 0
Core_0_L1D_rfo_miss 0
Core_0_L1D_rfo_MPKI 0
Core_0_L1D_rfo_miss_rate 0
Core_0_L1D_prefetch_access 894924
Core_0_L1D_prefetch_hit 233539
Core_0_L1D_prefetch_miss 661385
Core_0_L1D_prefetch_MPKI 13.2277
Core_0_L1D_prefetch_miss_rate 0.73904
Core_0_L1D_writeback_access 8618538
Core_0_L1D_writeback_hit 8610145
Core_0_L1D_writeback_miss 8393
Core_0_L1D_writeback_MPKI 0.16786
Core_0_L1D_writeback_miss_rate 0.000973831
Core_0_L1D_prefetch_requested 948374
Core_0_L1D_prefetch_issued 894918
Core_0_L1D_prefetch_useful 409476
Core_0_L1D_prefetch_useless 228588
Core_0_L1D_prefetch_late 23114
Core_0_L1D_prefetch_accuracy 0.457557
Core_0_L1D_prefetch_coverage 0.277439

Core_0_L2C_total_access 5107679
Core_0_L2C_total_hit 2528838
Core_0_L2C_total_miss 2578841
Core_0_L2C_total_MPKI 51.5768
Core_0_L2C_total_miss_rate 0.504895
Core_0_L2C_demand_access 836086
Core_0_L2C_demand_hit 140217
Core_0_L2C_demand_miss 695869
Core_0_L2C_demand_MPKI 13.9174
Core_0_L2C_demand_miss_rate 0.832294
Core_0_L2C_load_access 833885
Core_0_L2C_load_hit 138026
Core_0_L2C_load_miss 695859
Core_0_L2C_load_MPKI 13.9172
Core_0_L2C_load_miss_rate 0.834478
Core_0_L2C_rfo_access 2201
Core_0_L2C_rfo_hit 2191
Core_0_L2C_rfo_miss 10
Core_0_L2C_rfo_MPKI 0.0002
Core_0_L2C_rfo_miss_rate 0.00454339
Core_0_L2C_prefetch_access 3583493
Core_0_L2C_prefetch_hit 1701031
Core_0_L2C_prefetch_miss 1882462
Core_0_L2C_prefetch_MPKI 37.6492
Core_0_L2C_prefetch_miss_rate 0.525315
Core_0_L2C_writeback_access 688100
Core_0_L2C_writeback_hit 687590
Core_0_L2C_writeback_miss 510
Core_0_L2C_writeback_MPKI 0.0102
Core_0_L2C_writeback_miss_rate 0.000741171
Core_0_L2C_prefetch_requested 3229085
Core_0_L2C_prefetch_issued 2945346
Core_0_L2C_prefetch_useful 539979
Core_0_L2C_prefetch_useless 368229
Core_0_L2C_prefetch_late 119120
Core_0_L2C_prefetch_accuracy 0.183333
Core_0_L2C_prefetch_coverage 0.43693

Core_0_LLC_total_access 2387335
Core_0_LLC_total_hit 186991
Core_0_LLC_total_miss 2200344
Core_0_LLC_total_MPKI 44.0069
Core_0_LLC_total_miss_rate 0.921674
Core_0_LLC_demand_access 576749
Core_0_LLC_demand_hit 24963
Core_0_LLC_demand_miss 551786
Core_0_LLC_demand_MPKI 11.0357
Core_0_LLC_demand_miss_rate 0.956718
Core_0_LLC_load_access 576739
Core_0_LLC_load_hit 24961
Core_0_LLC_load_miss 551778
Core_0_LLC_load_MPKI 11.0356
Core_0_LLC_load_miss_rate 0.95672
Core_0_LLC_rfo_access 10
Core_0_LLC_rfo_hit 2
Core_0_LLC_rfo_miss 8
Core_0_LLC_rfo_MPKI 0.00016
Core_0_LLC_rfo_miss_rate 0.8
Core_0_LLC_prefetch_access 1148725
Core_0_LLC_prefetch_hit 33489
Core_0_LLC_prefetch_miss 1115236
Core_0_LLC_prefetch_MPKI 22.3047
Core_0_LLC_prefetch_miss_rate 0.970847
Core_0_LLC_writeback_access 661861
Core_0_LLC_writeback_hit 128539
Core_0_LLC_writeback_miss 533322
Core_0_LLC_writeback_MPKI 10.6664
Core_0_LLC_writeback_miss_rate 0.805792
Core_0_LLC_prefetch_requested 0
Core_0_LLC_prefetch_issued 0
Core_0_LLC_prefetch_useful 0
Core_0_LLC_prefetch_useless 0
Core_0_LLC_prefetch_late 0
Core_0_LLC_prefetch_accuracy 0
Core_0_LLC_prefetch_coverage 0

[DRAM Statistics]
Channel_0_RQ_row_buffer_hit 54622
Channel_0_RQ_row_buffer_miss 1623101
Channel_0_WQ_row_buffer_hit 74565
Channel_0_WQ_row_buffer_miss 554911
Channel_0_WQ_full 63
Channel_0_dbus_congested 7028266
DRAM_total_RQ_row_buffer_hit 54622
DRAM_total_RQ_row_buffer_miss 1623101
DRAM_total_WQ_row_buffer_hit 74565
DRAM_total_WQ_row_buffer_miss 554911
DRAM_total_WQ_full 63
DRAM_total_dbus_congested 7028266
DRAM_avg_congested_cycle 5.83212

======STLB miss causes ========
Core_0_STLB_miss_cause_breakdown
Core_0_STLB_cause_Demand_Data_miss 0
Core_0_STLB_cause_Demand_Data_miss_rate 0
Core_0_STLB_cause_Demand_Instruction_miss 0
Core_0_STLB_cause_Demand_Instruction_miss_rate 0
Core_0_STLB_cause_L1D_Prefetch_miss 17079
Core_0_STLB_cause_L1D_Prefetch_miss_rate 0.0677996
Core_0_STLB_cause_L1I_Prefetch_miss 0
Core_0_STLB_cause_L1I_Prefetch_miss_rate 0
Core_0_STLB_cause_Other_miss 0
Core_0_STLB_cause_Other_miss_rate 0
Core_0_STLB_Demand_miss 0
Core_0_STLB_Demand_miss_rate 0
Core_0_STLB_L1D_Prefetch_miss 17079
Core_0_STLB_L1D_Prefetch_miss_rate 0.0677996
Core_0_STLB_Other_miss 0
Core_0_STLB_Other_miss_rate 0
