[VMEM] WARNING: physical memory size is smaller than virtual memory size.

*** ChampSim Multicore Out-of-Order Simulator ***
Warmup Instructions: 20000000
Simulation Instructions: 50000000
Number of CPUs: 1
Page size: 4096
STLB ideal mode: demand
Core 0: /data0/tzh/champsim_traces/SPEC06/453.povray-252B.champsimtrace.xz
 L1D Berti prefetcher
Off-chip DRAM Size: 4 GiB Channels: 1 Width: 64-bit Data Rate: 3205 MT/s
Warmup halting CPU 0 at instruction 20000001 cycle 4308869 for remainder of phase
Warmup finished CPU 0 instructions: 20000001 cycles: 4308869 cumulative IPC: 4.642 (Simulation time: 00 hr 01 min 01 sec)
Warmup complete CPU 0 instructions: 20000001 cycles: 4308869 cumulative IPC: 4.642 (Simulation time: 00 hr 01 min 01 sec)
Simulation finished CPU 0 instructions: 50000002 cycles: 26659875 cumulative IPC: 1.875 (Simulation time: 00 hr 04 min 47 sec)
Simulation complete CPU 0 instructions: 50000002 cycles: 26659875 cumulative IPC: 1.875 (Simulation time: 00 hr 04 min 47 sec)

ChampSim completed all CPUs

=== Simulation ===
CPU 0 runs /data0/tzh/champsim_traces/SPEC06/453.povray-252B.champsimtrace.xz

Region of Interest Statistics

CPU 0 cumulative IPC: 1.875 instructions: 50000002 cycles: 26659875
CPU 0 Branch Prediction Accuracy: 93.86% MPKI: 9.155 Average ROB Occupancy at Mispredict: 55.95
Branch type MPKI
BRANCH_DIRECT_JUMP: 0.00014
BRANCH_INDIRECT: 0.02776
BRANCH_CONDITIONAL: 7.732
BRANCH_DIRECT_CALL: 2e-05
BRANCH_INDIRECT_CALL: 0.6035
BRANCH_RETURN: 0.7919

cpu0->cpu0_STLB TOTAL        ACCESS:     133960 HIT:     133937 MISS:         23 MSHR_MERGE:          0
cpu0->cpu0_STLB LOAD         ACCESS:     133960 HIT:     133937 MISS:         23 MSHR_MERGE:          0
cpu0->cpu0_STLB RFO          ACCESS:          0 HIT:          0 MISS:          0 MSHR_MERGE:          0
cpu0->cpu0_STLB PREFETCH     ACCESS:          0 HIT:          0 MISS:          0 MSHR_MERGE:          0
cpu0->cpu0_STLB WRITE        ACCESS:          0 HIT:          0 MISS:          0 MSHR_MERGE:          0
cpu0->cpu0_STLB TRANSLATION  ACCESS:          0 HIT:          0 MISS:          0 MSHR_MERGE:          0
cpu0->cpu0_STLB PREFETCH REQUESTED:          0 ISSUED:          0 USEFUL:          0 USELESS:          0 LATE:          0
cpu0->cpu0_STLB AVERAGE MISS LATENCY: 133.3 cycles
cpu0->cpu0_L2C TOTAL        ACCESS:    1550057 HIT:    1548212 MISS:       1845 MSHR_MERGE:        247
cpu0->cpu0_L2C LOAD         ACCESS:     270298 HIT:     270247 MISS:         51 MSHR_MERGE:          2
cpu0->cpu0_L2C RFO          ACCESS:      56170 HIT:      56158 MISS:         12 MSHR_MERGE:          0
cpu0->cpu0_L2C PREFETCH     ACCESS:    1141180 HIT:    1139405 MISS:       1775 MSHR_MERGE:        245
cpu0->cpu0_L2C WRITE        ACCESS:      82386 HIT:      82386 MISS:          0 MSHR_MERGE:          0
cpu0->cpu0_L2C TRANSLATION  ACCESS:         23 HIT:         16 MISS:          7 MSHR_MERGE:          0
cpu0->cpu0_L2C PREFETCH REQUESTED:     874781 ISSUED:     868112 USEFUL:       1061 USELESS:        230 LATE:          2
cpu0->cpu0_L2C AVERAGE MISS LATENCY: 133 cycles
cpu0->cpu0_L1I TOTAL        ACCESS:     880237 HIT:     879658 MISS:        579 MSHR_MERGE:        177
cpu0->cpu0_L1I LOAD         ACCESS:     880237 HIT:     879658 MISS:        579 MSHR_MERGE:        177
cpu0->cpu0_L1I RFO          ACCESS:          0 HIT:          0 MISS:          0 MSHR_MERGE:          0
cpu0->cpu0_L1I PREFETCH     ACCESS:          0 HIT:          0 MISS:          0 MSHR_MERGE:          0
cpu0->cpu0_L1I WRITE        ACCESS:          0 HIT:          0 MISS:          0 MSHR_MERGE:          0
cpu0->cpu0_L1I TRANSLATION  ACCESS:          0 HIT:          0 MISS:          0 MSHR_MERGE:          0
cpu0->cpu0_L1I PREFETCH REQUESTED:          0 ISSUED:          0 USEFUL:          0 USELESS:          0 LATE:          0
cpu0->cpu0_L1I AVERAGE MISS LATENCY: 21.76 cycles
cpu0->cpu0_L1D TOTAL        ACCESS:   16866741 HIT:   16019455 MISS:     847286 MSHR_MERGE:     248040
cpu0->cpu0_L1D LOAD         ACCESS:    9176239 HIT:    8765542 MISS:     410697 MSHR_MERGE:     140793
cpu0->cpu0_L1D RFO          ACCESS:          0 HIT:          0 MISS:          0 MSHR_MERGE:          0
cpu0->cpu0_L1D PREFETCH     ACCESS:     815695 HIT:     509936 MISS:     305759 MSHR_MERGE:      32669
cpu0->cpu0_L1D WRITE        ACCESS:    6874761 HIT:    6743954 MISS:     130807 MSHR_MERGE:      74578
cpu0->cpu0_L1D TRANSLATION  ACCESS:         46 HIT:         23 MISS:         23 MSHR_MERGE:          0
cpu0->cpu0_L1D PREFETCH REQUESTED:     830105 ISSUED:     815688 USEFUL:     169644 USELESS:     103391 LATE:      16975
cpu0->cpu0_L1D AVERAGE MISS LATENCY: 7.862 cycles
cpu0->cpu0_ITLB TOTAL        ACCESS:     738767 HIT:     738734 MISS:         33 MSHR_MERGE:         20
cpu0->cpu0_ITLB LOAD         ACCESS:     738767 HIT:     738734 MISS:         33 MSHR_MERGE:         20
cpu0->cpu0_ITLB RFO          ACCESS:          0 HIT:          0 MISS:          0 MSHR_MERGE:          0
cpu0->cpu0_ITLB PREFETCH     ACCESS:          0 HIT:          0 MISS:          0 MSHR_MERGE:          0
cpu0->cpu0_ITLB WRITE        ACCESS:          0 HIT:          0 MISS:          0 MSHR_MERGE:          0
cpu0->cpu0_ITLB TRANSLATION  ACCESS:          0 HIT:          0 MISS:          0 MSHR_MERGE:          0
cpu0->cpu0_ITLB PREFETCH REQUESTED:          0 ISSUED:          0 USEFUL:          0 USELESS:          0 LATE:          0
cpu0->cpu0_ITLB AVERAGE MISS LATENCY: 5 cycles
cpu0->cpu0_DTLB TOTAL        ACCESS:   15457693 HIT:   15219231 MISS:     238462 MSHR_MERGE:     104515
cpu0->cpu0_DTLB LOAD         ACCESS:   15457693 HIT:   15219231 MISS:     238462 MSHR_MERGE:     104515
cpu0->cpu0_DTLB RFO          ACCESS:          0 HIT:          0 MISS:          0 MSHR_MERGE:          0
cpu0->cpu0_DTLB PREFETCH     ACCESS:          0 HIT:          0 MISS:          0 MSHR_MERGE:          0
cpu0->cpu0_DTLB WRITE        ACCESS:          0 HIT:          0 MISS:          0 MSHR_MERGE:          0
cpu0->cpu0_DTLB TRANSLATION  ACCESS:          0 HIT:          0 MISS:          0 MSHR_MERGE:          0
cpu0->cpu0_DTLB PREFETCH REQUESTED:          0 ISSUED:          0 USEFUL:          0 USELESS:          0 LATE:          0
cpu0->cpu0_DTLB AVERAGE MISS LATENCY: 5.024 cycles
cpu0->LLC TOTAL        ACCESS:       1610 HIT:        211 MISS:       1399 MSHR_MERGE:          0
cpu0->LLC LOAD         ACCESS:         49 HIT:         12 MISS:         37 MSHR_MERGE:          0
cpu0->LLC RFO          ACCESS:         12 HIT:          1 MISS:         11 MSHR_MERGE:          0
cpu0->LLC PREFETCH     ACCESS:       1530 HIT:        184 MISS:       1346 MSHR_MERGE:          0
cpu0->LLC WRITE        ACCESS:         12 HIT:         12 MISS:          0 MSHR_MERGE:          0
cpu0->LLC TRANSLATION  ACCESS:          7 HIT:          2 MISS:          5 MSHR_MERGE:          0
cpu0->LLC PREFETCH REQUESTED:          0 ISSUED:          0 USEFUL:          0 USELESS:          0 LATE:          0
cpu0->LLC AVERAGE MISS LATENCY: 152.7 cycles

DRAM Statistics

Channel 0 RQ ROW_BUFFER_HIT:          0
  ROW_BUFFER_MISS:       1399
  AVG DBUS CONGESTED CYCLE: 2.711
Channel 0 WQ ROW_BUFFER_HIT:          0
  ROW_BUFFER_MISS:          0
  FULL:          0
Channel 0 REFRESHES ISSUED:       2221

[ROI Statistics]
[System Configuration]
num_cpus 1
cpu_freq 4000
fetch_width 6
decode_width 6
dispatch_width 6
execute_width 6
lq_width 2
sq_width 2
retire_width 6
scheduler_size 160
branch_mispredict_penalty 1
rob_size 352
lq_size 240
sq_size 112
ifetch_buffer_size 64
decode_buffer_size 32
dispatch_buffer_size 32
register_file_size 288
decode_latency 1
dispatch_latency 1
schedule_latency 0
execute_latency 0
page_size 4096
block_size 64
core_0_itlb_set 16
core_0_itlb_way 4
core_0_itlb_rq_size 16
core_0_itlb_wq_size 16
core_0_itlb_pq_size 0
core_0_itlb_mshr_size 8
core_0_itlb_hit_latency 1
core_0_itlb_fill_latency 1
core_0_itlb_max_tag_check 2
core_0_itlb_max_fill 2
core_0_dtlb_set 16
core_0_dtlb_way 4
core_0_dtlb_rq_size 16
core_0_dtlb_wq_size 16
core_0_dtlb_pq_size 0
core_0_dtlb_mshr_size 8
core_0_dtlb_hit_latency 1
core_0_dtlb_fill_latency 1
core_0_dtlb_max_tag_check 2
core_0_dtlb_max_fill 2
core_0_stlb_set 128
core_0_stlb_way 12
core_0_stlb_rq_size 32
core_0_stlb_wq_size 32
core_0_stlb_pq_size 0
core_0_stlb_mshr_size 16
core_0_stlb_hit_latency 4
core_0_stlb_fill_latency 4
core_0_stlb_max_tag_check 1
core_0_stlb_max_fill 1
core_0_l1i_set 64
core_0_l1i_way 8
core_0_l1i_rq_size 64
core_0_l1i_wq_size 64
core_0_l1i_pq_size 32
core_0_l1i_mshr_size 8
core_0_l1i_hit_latency 2
core_0_l1i_fill_latency 2
core_0_l1i_max_tag_check 2
core_0_l1i_max_fill 2
core_0_l1d_set 64
core_0_l1d_way 12
core_0_l1d_rq_size 64
core_0_l1d_wq_size 64
core_0_l1d_pq_size 8
core_0_l1d_mshr_size 16
core_0_l1d_hit_latency 2
core_0_l1d_fill_latency 3
core_0_l1d_max_tag_check 2
core_0_l1d_max_fill 2
core_0_l2c_set 1024
core_0_l2c_way 8
core_0_l2c_rq_size 32
core_0_l2c_wq_size 32
core_0_l2c_pq_size 16
core_0_l2c_mshr_size 32
core_0_l2c_hit_latency 5
core_0_l2c_fill_latency 5
core_0_l2c_max_tag_check 1
core_0_l2c_max_fill 1
llc_set 2048
llc_way 16
llc_rq_size 32
llc_wq_size 32
llc_pq_size 32
llc_mshr_size 64
llc_hit_latency 10
llc_fill_latency 10
llc_max_tag_check 1
llc_max_fill 1
dram_channels 1
dram_ranks 1
dram_bankgroups 8
dram_banks 4
dram_rows 16384
dram_columns 1024
dram_channel_width 8
dram_rq_size 64
dram_wq_size 64
dram_size 4294967296
core_0_itlb_prefetcher no
core_0_dtlb_prefetcher no
core_0_stlb_prefetcher no
core_0_l1i_prefetcher next_line
core_0_l1d_prefetcher berti
core_0_l2c_prefetcher pythia
llc_prefetcher no
llc_replacement drrip

Core_0_instructions 50000002
Core_0_cycles 26659875
Core_0_IPC 1.87548
Core_0_branch_prediction_accuracy 93.8599
Core_0_branch_MPKI 9.1553
Core_0_average_ROB_occupancy_at_mispredict 55.9503

Core_0_ITLB_total_access 738767
Core_0_ITLB_total_hit 738734
Core_0_ITLB_total_miss 33
Core_0_ITLB_total_MPKI 0.00066
Core_0_ITLB_total_miss_rate 4.4669e-05
Core_0_ITLB_demand_access 738767
Core_0_ITLB_demand_hit 738734
Core_0_ITLB_demand_miss 33
Core_0_ITLB_demand_MPKI 0.00066
Core_0_ITLB_demand_miss_rate 4.4669e-05
Core_0_ITLB_load_access 738767
Core_0_ITLB_load_hit 738734
Core_0_ITLB_load_miss 33
Core_0_ITLB_load_MPKI 0.00066
Core_0_ITLB_load_miss_rate 4.4669e-05
Core_0_ITLB_rfo_access 0
Core_0_ITLB_rfo_hit 0
Core_0_ITLB_rfo_miss 0
Core_0_ITLB_rfo_MPKI 0
Core_0_ITLB_rfo_miss_rate 0
Core_0_ITLB_prefetch_access 0
Core_0_ITLB_prefetch_hit 0
Core_0_ITLB_prefetch_miss 0
Core_0_ITLB_prefetch_MPKI 0
Core_0_ITLB_prefetch_miss_rate 0
Core_0_ITLB_writeback_access 0
Core_0_ITLB_writeback_hit 0
Core_0_ITLB_writeback_miss 0
Core_0_ITLB_writeback_MPKI 0
Core_0_ITLB_writeback_miss_rate 0
Core_0_ITLB_prefetch_requested 0
Core_0_ITLB_prefetch_issued 0
Core_0_ITLB_prefetch_useful 0
Core_0_ITLB_prefetch_useless 0
Core_0_ITLB_prefetch_late 0
Core_0_ITLB_prefetch_accuracy 0
Core_0_ITLB_prefetch_coverage 0

Core_0_DTLB_total_access 15457693
Core_0_DTLB_total_hit 15219231
Core_0_DTLB_total_miss 238462
Core_0_DTLB_total_MPKI 4.76924
Core_0_DTLB_total_miss_rate 0.0154268
Core_0_DTLB_demand_access 15457693
Core_0_DTLB_demand_hit 15219231
Core_0_DTLB_demand_miss 238462
Core_0_DTLB_demand_MPKI 4.76924
Core_0_DTLB_demand_miss_rate 0.0154268
Core_0_DTLB_load_access 15457693
Core_0_DTLB_load_hit 15219231
Core_0_DTLB_load_miss 238462
Core_0_DTLB_load_MPKI 4.76924
Core_0_DTLB_load_miss_rate 0.0154268
Core_0_DTLB_rfo_access 0
Core_0_DTLB_rfo_hit 0
Core_0_DTLB_rfo_miss 0
Core_0_DTLB_rfo_MPKI 0
Core_0_DTLB_rfo_miss_rate 0
Core_0_DTLB_prefetch_access 0
Core_0_DTLB_prefetch_hit 0
Core_0_DTLB_prefetch_miss 0
Core_0_DTLB_prefetch_MPKI 0
Core_0_DTLB_prefetch_miss_rate 0
Core_0_DTLB_writeback_access 0
Core_0_DTLB_writeback_hit 0
Core_0_DTLB_writeback_miss 0
Core_0_DTLB_writeback_MPKI 0
Core_0_DTLB_writeback_miss_rate 0
Core_0_DTLB_prefetch_requested 0
Core_0_DTLB_prefetch_issued 0
Core_0_DTLB_prefetch_useful 0
Core_0_DTLB_prefetch_useless 0
Core_0_DTLB_prefetch_late 0
Core_0_DTLB_prefetch_accuracy 0
Core_0_DTLB_prefetch_coverage 0

Core_0_STLB_total_access 133960
Core_0_STLB_total_hit 133937
Core_0_STLB_total_miss 23
Core_0_STLB_total_MPKI 0.00046
Core_0_STLB_total_miss_rate 0.000171693
Core_0_STLB_demand_access 133960
Core_0_STLB_demand_hit 133937
Core_0_STLB_demand_miss 23
Core_0_STLB_demand_MPKI 0.00046
Core_0_STLB_demand_miss_rate 0.000171693
Core_0_STLB_load_access 133960
Core_0_STLB_load_hit 133937
Core_0_STLB_load_miss 23
Core_0_STLB_load_MPKI 0.00046
Core_0_STLB_load_miss_rate 0.000171693
Core_0_STLB_rfo_access 0
Core_0_STLB_rfo_hit 0
Core_0_STLB_rfo_miss 0
Core_0_STLB_rfo_MPKI 0
Core_0_STLB_rfo_miss_rate 0
Core_0_STLB_prefetch_access 0
Core_0_STLB_prefetch_hit 0
Core_0_STLB_prefetch_miss 0
Core_0_STLB_prefetch_MPKI 0
Core_0_STLB_prefetch_miss_rate 0
Core_0_STLB_writeback_access 0
Core_0_STLB_writeback_hit 0
Core_0_STLB_writeback_miss 0
Core_0_STLB_writeback_MPKI 0
Core_0_STLB_writeback_miss_rate 0
Core_0_STLB_prefetch_requested 0
Core_0_STLB_prefetch_issued 0
Core_0_STLB_prefetch_useful 0
Core_0_STLB_prefetch_useless 0
Core_0_STLB_prefetch_late 0
Core_0_STLB_prefetch_accuracy 0
Core_0_STLB_prefetch_coverage 0

Core_0_L1I_total_access 880237
Core_0_L1I_total_hit 879658
Core_0_L1I_total_miss 579
Core_0_L1I_total_MPKI 0.01158
Core_0_L1I_total_miss_rate 0.000657777
Core_0_L1I_demand_access 880237
Core_0_L1I_demand_hit 879658
Core_0_L1I_demand_miss 579
Core_0_L1I_demand_MPKI 0.01158
Core_0_L1I_demand_miss_rate 0.000657777
Core_0_L1I_load_access 880237
Core_0_L1I_load_hit 879658
Core_0_L1I_load_miss 579
Core_0_L1I_load_MPKI 0.01158
Core_0_L1I_load_miss_rate 0.000657777
Core_0_L1I_rfo_access 0
Core_0_L1I_rfo_hit 0
Core_0_L1I_rfo_miss 0
Core_0_L1I_rfo_MPKI 0
Core_0_L1I_rfo_miss_rate 0
Core_0_L1I_prefetch_access 0
Core_0_L1I_prefetch_hit 0
Core_0_L1I_prefetch_miss 0
Core_0_L1I_prefetch_MPKI 0
Core_0_L1I_prefetch_miss_rate 0
Core_0_L1I_writeback_access 0
Core_0_L1I_writeback_hit 0
Core_0_L1I_writeback_miss 0
Core_0_L1I_writeback_MPKI 0
Core_0_L1I_writeback_miss_rate 0
Core_0_L1I_prefetch_requested 0
Core_0_L1I_prefetch_issued 0
Core_0_L1I_prefetch_useful 0
Core_0_L1I_prefetch_useless 0
Core_0_L1I_prefetch_late 0
Core_0_L1I_prefetch_accuracy 0
Core_0_L1I_prefetch_coverage 0

Core_0_L1D_total_access 16866695
Core_0_L1D_total_hit 16019432
Core_0_L1D_total_miss 847263
Core_0_L1D_total_MPKI 16.9453
Core_0_L1D_total_miss_rate 0.0502329
Core_0_L1D_demand_access 9176239
Core_0_L1D_demand_hit 8765542
Core_0_L1D_demand_miss 410697
Core_0_L1D_demand_MPKI 8.21394
Core_0_L1D_demand_miss_rate 0.0447566
Core_0_L1D_load_access 9176239
Core_0_L1D_load_hit 8765542
Core_0_L1D_load_miss 410697
Core_0_L1D_load_MPKI 8.21394
Core_0_L1D_load_miss_rate 0.0447566
Core_0_L1D_rfo_access 0
Core_0_L1D_rfo_hit 0
Core_0_L1D_rfo_miss 0
Core_0_L1D_rfo_MPKI 0
Core_0_L1D_rfo_miss_rate 0
Core_0_L1D_prefetch_access 815695
Core_0_L1D_prefetch_hit 509936
Core_0_L1D_prefetch_miss 305759
Core_0_L1D_prefetch_MPKI 6.11518
Core_0_L1D_prefetch_miss_rate 0.374845
Core_0_L1D_writeback_access 6874761
Core_0_L1D_writeback_hit 6743954
Core_0_L1D_writeback_miss 130807
Core_0_L1D_writeback_MPKI 2.61614
Core_0_L1D_writeback_miss_rate 0.0190271
Core_0_L1D_prefetch_requested 830105
Core_0_L1D_prefetch_issued 815688
Core_0_L1D_prefetch_useful 169644
Core_0_L1D_prefetch_useless 103391
Core_0_L1D_prefetch_late 16975
Core_0_L1D_prefetch_accuracy 0.207977
Core_0_L1D_prefetch_coverage 0.292318

Core_0_L2C_total_access 1550034
Core_0_L2C_total_hit 1548196
Core_0_L2C_total_miss 1838
Core_0_L2C_total_MPKI 0.03676
Core_0_L2C_total_miss_rate 0.00118578
Core_0_L2C_demand_access 326468
Core_0_L2C_demand_hit 326405
Core_0_L2C_demand_miss 63
Core_0_L2C_demand_MPKI 0.00126
Core_0_L2C_demand_miss_rate 0.000192975
Core_0_L2C_load_access 270298
Core_0_L2C_load_hit 270247
Core_0_L2C_load_miss 51
Core_0_L2C_load_MPKI 0.00102
Core_0_L2C_load_miss_rate 0.000188681
Core_0_L2C_rfo_access 56170
Core_0_L2C_rfo_hit 56158
Core_0_L2C_rfo_miss 12
Core_0_L2C_rfo_MPKI 0.00024
Core_0_L2C_rfo_miss_rate 0.000213637
Core_0_L2C_prefetch_access 1141180
Core_0_L2C_prefetch_hit 1139405
Core_0_L2C_prefetch_miss 1775
Core_0_L2C_prefetch_MPKI 0.0355
Core_0_L2C_prefetch_miss_rate 0.00155541
Core_0_L2C_writeback_access 82386
Core_0_L2C_writeback_hit 82386
Core_0_L2C_writeback_miss 0
Core_0_L2C_writeback_MPKI 0
Core_0_L2C_writeback_miss_rate 0
Core_0_L2C_prefetch_requested 874781
Core_0_L2C_prefetch_issued 868112
Core_0_L2C_prefetch_useful 1061
Core_0_L2C_prefetch_useless 230
Core_0_L2C_prefetch_late 2
Core_0_L2C_prefetch_accuracy 0.00122219
Core_0_L2C_prefetch_coverage 0.94395

Core_0_LLC_total_access 1603
Core_0_LLC_total_hit 209
Core_0_LLC_total_miss 1394
Core_0_LLC_total_MPKI 0.02788
Core_0_LLC_total_miss_rate 0.869619
Core_0_LLC_demand_access 61
Core_0_LLC_demand_hit 13
Core_0_LLC_demand_miss 48
Core_0_LLC_demand_MPKI 0.00096
Core_0_LLC_demand_miss_rate 0.786885
Core_0_LLC_load_access 49
Core_0_LLC_load_hit 12
Core_0_LLC_load_miss 37
Core_0_LLC_load_MPKI 0.00074
Core_0_LLC_load_miss_rate 0.755102
Core_0_LLC_rfo_access 12
Core_0_LLC_rfo_hit 1
Core_0_LLC_rfo_miss 11
Core_0_LLC_rfo_MPKI 0.00022
Core_0_LLC_rfo_miss_rate 0.916667
Core_0_LLC_prefetch_access 1530
Core_0_LLC_prefetch_hit 184
Core_0_LLC_prefetch_miss 1346
Core_0_LLC_prefetch_MPKI 0.02692
Core_0_LLC_prefetch_miss_rate 0.879739
Core_0_LLC_writeback_access 12
Core_0_LLC_writeback_hit 12
Core_0_LLC_writeback_miss 0
Core_0_LLC_writeback_MPKI 0
Core_0_LLC_writeback_miss_rate 0
Core_0_LLC_prefetch_requested 0
Core_0_LLC_prefetch_issued 0
Core_0_LLC_prefetch_useful 0
Core_0_LLC_prefetch_useless 0
Core_0_LLC_prefetch_late 0
Core_0_LLC_prefetch_accuracy 0
Core_0_LLC_prefetch_coverage 0

[DRAM Statistics]
Channel_0_RQ_row_buffer_hit 0
Channel_0_RQ_row_buffer_miss 1399
Channel_0_WQ_row_buffer_hit 0
Channel_0_WQ_row_buffer_miss 0
Channel_0_WQ_full 0
Channel_0_dbus_congested 843
DRAM_total_RQ_row_buffer_hit 0
DRAM_total_RQ_row_buffer_miss 1399
DRAM_total_WQ_row_buffer_hit 0
DRAM_total_WQ_row_buffer_miss 0
DRAM_total_WQ_full 0
DRAM_total_dbus_congested 843
DRAM_avg_congested_cycle 2.71056

======STLB miss causes ========
Core_0_STLB_miss_cause_breakdown
Core_0_STLB_cause_Demand_Data_miss 0
Core_0_STLB_cause_Demand_Data_miss_rate 0
Core_0_STLB_cause_Demand_Instruction_miss 0
Core_0_STLB_cause_Demand_Instruction_miss_rate 0
Core_0_STLB_cause_L1D_Prefetch_miss 23
Core_0_STLB_cause_L1D_Prefetch_miss_rate 0.000171693
Core_0_STLB_cause_L1I_Prefetch_miss 0
Core_0_STLB_cause_L1I_Prefetch_miss_rate 0
Core_0_STLB_cause_Other_miss 0
Core_0_STLB_cause_Other_miss_rate 0
Core_0_STLB_Demand_miss 0
Core_0_STLB_Demand_miss_rate 0
Core_0_STLB_L1D_Prefetch_miss 23
Core_0_STLB_L1D_Prefetch_miss_rate 0.000171693
Core_0_STLB_Other_miss 0
Core_0_STLB_Other_miss_rate 0
