[VMEM] WARNING: physical memory size is smaller than virtual memory size.

*** ChampSim Multicore Out-of-Order Simulator ***
Warmup Instructions: 20000000
Simulation Instructions: 50000000
Number of CPUs: 1
Page size: 4096
STLB ideal mode: demand
Core 0: /data0/tzh/champsim_traces/SPEC06/454.calculix-460B.champsimtrace.xz
 L1D Berti prefetcher
Off-chip DRAM Size: 4 GiB Channels: 1 Width: 64-bit Data Rate: 3205 MT/s
Warmup halting CPU 0 at instruction 20000005 cycle 4006124 for remainder of phase
Warmup finished CPU 0 instructions: 20000005 cycles: 4006124 cumulative IPC: 4.992 (Simulation time: 00 hr 00 min 45 sec)
Warmup complete CPU 0 instructions: 20000005 cycles: 4006124 cumulative IPC: 4.992 (Simulation time: 00 hr 00 min 45 sec)
Simulation finished CPU 0 instructions: 50000002 cycles: 11884140 cumulative IPC: 4.207 (Simulation time: 00 hr 03 min 02 sec)
Simulation complete CPU 0 instructions: 50000002 cycles: 11884140 cumulative IPC: 4.207 (Simulation time: 00 hr 03 min 02 sec)

ChampSim completed all CPUs

=== Simulation ===
CPU 0 runs /data0/tzh/champsim_traces/SPEC06/454.calculix-460B.champsimtrace.xz

Region of Interest Statistics

CPU 0 cumulative IPC: 4.207 instructions: 50000002 cycles: 11884140
CPU 0 Branch Prediction Accuracy: 98.79% MPKI: 0.7022 Average ROB Occupancy at Mispredict: 112.7
Branch type MPKI
BRANCH_DIRECT_JUMP: 0.00096
BRANCH_INDIRECT: 0
BRANCH_CONDITIONAL: 0.6996
BRANCH_DIRECT_CALL: 0.00084
BRANCH_INDIRECT_CALL: 0
BRANCH_RETURN: 0.0008

cpu0->cpu0_STLB TOTAL        ACCESS:       7939 HIT:       7838 MISS:        101 MSHR_MERGE:          0
cpu0->cpu0_STLB LOAD         ACCESS:       7939 HIT:       7838 MISS:        101 MSHR_MERGE:          0
cpu0->cpu0_STLB RFO          ACCESS:          0 HIT:          0 MISS:          0 MSHR_MERGE:          0
cpu0->cpu0_STLB PREFETCH     ACCESS:          0 HIT:          0 MISS:          0 MSHR_MERGE:          0
cpu0->cpu0_STLB WRITE        ACCESS:          0 HIT:          0 MISS:          0 MSHR_MERGE:          0
cpu0->cpu0_STLB TRANSLATION  ACCESS:          0 HIT:          0 MISS:          0 MSHR_MERGE:          0
cpu0->cpu0_STLB PREFETCH REQUESTED:          0 ISSUED:          0 USEFUL:          0 USELESS:          0 LATE:          0
cpu0->cpu0_STLB AVERAGE MISS LATENCY: 277.2 cycles
cpu0->cpu0_L2C TOTAL        ACCESS:    3991963 HIT:    3593274 MISS:     398689 MSHR_MERGE:     193208
cpu0->cpu0_L2C LOAD         ACCESS:     110154 HIT:      93089 MISS:      17065 MSHR_MERGE:       6116
cpu0->cpu0_L2C RFO          ACCESS:       1230 HIT:       1057 MISS:        173 MSHR_MERGE:          0
cpu0->cpu0_L2C PREFETCH     ACCESS:    3708180 HIT:    3328419 MISS:     379761 MSHR_MERGE:     187092
cpu0->cpu0_L2C WRITE        ACCESS:     172300 HIT:     170695 MISS:       1605 MSHR_MERGE:          0
cpu0->cpu0_L2C TRANSLATION  ACCESS:         99 HIT:         14 MISS:         85 MSHR_MERGE:          0
cpu0->cpu0_L2C PREFETCH REQUESTED:    3331048 ISSUED:    3181879 USEFUL:     162749 USELESS:      15327 LATE:       6116
cpu0->cpu0_L2C AVERAGE MISS LATENCY: 86.36 cycles
cpu0->cpu0_L1I TOTAL        ACCESS:    4764915 HIT:    4764763 MISS:        152 MSHR_MERGE:         11
cpu0->cpu0_L1I LOAD         ACCESS:    4764915 HIT:    4764763 MISS:        152 MSHR_MERGE:         11
cpu0->cpu0_L1I RFO          ACCESS:          0 HIT:          0 MISS:          0 MSHR_MERGE:          0
cpu0->cpu0_L1I PREFETCH     ACCESS:          0 HIT:          0 MISS:          0 MSHR_MERGE:          0
cpu0->cpu0_L1I WRITE        ACCESS:          0 HIT:          0 MISS:          0 MSHR_MERGE:          0
cpu0->cpu0_L1I TRANSLATION  ACCESS:          0 HIT:          0 MISS:          0 MSHR_MERGE:          0
cpu0->cpu0_L1I PREFETCH REQUESTED:          0 ISSUED:          0 USEFUL:          0 USELESS:          0 LATE:          0
cpu0->cpu0_L1I AVERAGE MISS LATENCY: 212.4 cycles
cpu0->cpu0_L1D TOTAL        ACCESS:    9973950 HIT:    9201182 MISS:     772768 MSHR_MERGE:     135113
cpu0->cpu0_L1D LOAD         ACCESS:    7643188 HIT:    7416797 MISS:     226391 MSHR_MERGE:     116378
cpu0->cpu0_L1D RFO          ACCESS:          0 HIT:          0 MISS:          0 MSHR_MERGE:          0
cpu0->cpu0_L1D PREFETCH     ACCESS:     580720 HIT:      38005 MISS:     542715 MSHR_MERGE:      16409
cpu0->cpu0_L1D WRITE        ACCESS:    1749836 HIT:    1746274 MISS:       3562 MSHR_MERGE:       2325
cpu0->cpu0_L1D TRANSLATION  ACCESS:        206 HIT:        106 MISS:        100 MSHR_MERGE:          1
cpu0->cpu0_L1D PREFETCH REQUESTED:     587498 ISSUED:     580714 USEFUL:     515192 USELESS:      11114 LATE:      17193
cpu0->cpu0_L1D AVERAGE MISS LATENCY: 24.28 cycles
cpu0->cpu0_ITLB TOTAL        ACCESS:    3889430 HIT:    3889411 MISS:         19 MSHR_MERGE:          5
cpu0->cpu0_ITLB LOAD         ACCESS:    3889430 HIT:    3889411 MISS:         19 MSHR_MERGE:          5
cpu0->cpu0_ITLB RFO          ACCESS:          0 HIT:          0 MISS:          0 MSHR_MERGE:          0
cpu0->cpu0_ITLB PREFETCH     ACCESS:          0 HIT:          0 MISS:          0 MSHR_MERGE:          0
cpu0->cpu0_ITLB WRITE        ACCESS:          0 HIT:          0 MISS:          0 MSHR_MERGE:          0
cpu0->cpu0_ITLB TRANSLATION  ACCESS:          0 HIT:          0 MISS:          0 MSHR_MERGE:          0
cpu0->cpu0_ITLB PREFETCH REQUESTED:          0 ISSUED:          0 USEFUL:          0 USELESS:          0 LATE:          0
cpu0->cpu0_ITLB AVERAGE MISS LATENCY: 5 cycles
cpu0->cpu0_DTLB TOTAL        ACCESS:    9093538 HIT:    9081270 MISS:      12268 MSHR_MERGE:       4343
cpu0->cpu0_DTLB LOAD         ACCESS:    9093538 HIT:    9081270 MISS:      12268 MSHR_MERGE:       4343
cpu0->cpu0_DTLB RFO          ACCESS:          0 HIT:          0 MISS:          0 MSHR_MERGE:          0
cpu0->cpu0_DTLB PREFETCH     ACCESS:          0 HIT:          0 MISS:          0 MSHR_MERGE:          0
cpu0->cpu0_DTLB WRITE        ACCESS:          0 HIT:          0 MISS:          0 MSHR_MERGE:          0
cpu0->cpu0_DTLB TRANSLATION  ACCESS:          0 HIT:          0 MISS:          0 MSHR_MERGE:          0
cpu0->cpu0_DTLB PREFETCH REQUESTED:          0 ISSUED:          0 USEFUL:          0 USELESS:          0 LATE:          0
cpu0->cpu0_DTLB AVERAGE MISS LATENCY: 8.546 cycles
cpu0->LLC TOTAL        ACCESS:     311255 HIT:     257776 MISS:      53479 MSHR_MERGE:          0
cpu0->LLC LOAD         ACCESS:      10949 HIT:       6636 MISS:       4313 MSHR_MERGE:          0
cpu0->LLC RFO          ACCESS:        173 HIT:        168 MISS:          5 MSHR_MERGE:          0
cpu0->LLC PREFETCH     ACCESS:     192668 HIT:     143780 MISS:      48888 MSHR_MERGE:          0
cpu0->LLC WRITE        ACCESS:     107380 HIT:     107169 MISS:        211 MSHR_MERGE:          0
cpu0->LLC TRANSLATION  ACCESS:         85 HIT:         23 MISS:         62 MSHR_MERGE:          0
cpu0->LLC PREFETCH REQUESTED:          0 ISSUED:          0 USEFUL:          0 USELESS:          0 LATE:          0
cpu0->LLC AVERAGE MISS LATENCY: 182.9 cycles

DRAM Statistics

Channel 0 RQ ROW_BUFFER_HIT:      10732
  ROW_BUFFER_MISS:      42509
  AVG DBUS CONGESTED CYCLE: 8.285
Channel 0 WQ ROW_BUFFER_HIT:       1098
  ROW_BUFFER_MISS:       4059
  FULL:          0
Channel 0 REFRESHES ISSUED:        991

[ROI Statistics]
[System Configuration]
num_cpus 1
cpu_freq 4000
fetch_width 6
decode_width 6
dispatch_width 6
execute_width 6
lq_width 2
sq_width 2
retire_width 6
scheduler_size 160
branch_mispredict_penalty 1
rob_size 352
lq_size 240
sq_size 112
ifetch_buffer_size 64
decode_buffer_size 32
dispatch_buffer_size 32
register_file_size 288
decode_latency 1
dispatch_latency 1
schedule_latency 0
execute_latency 0
page_size 4096
block_size 64
core_0_itlb_set 16
core_0_itlb_way 4
core_0_itlb_rq_size 16
core_0_itlb_wq_size 16
core_0_itlb_pq_size 0
core_0_itlb_mshr_size 8
core_0_itlb_hit_latency 1
core_0_itlb_fill_latency 1
core_0_itlb_max_tag_check 2
core_0_itlb_max_fill 2
core_0_dtlb_set 16
core_0_dtlb_way 4
core_0_dtlb_rq_size 16
core_0_dtlb_wq_size 16
core_0_dtlb_pq_size 0
core_0_dtlb_mshr_size 8
core_0_dtlb_hit_latency 1
core_0_dtlb_fill_latency 1
core_0_dtlb_max_tag_check 2
core_0_dtlb_max_fill 2
core_0_stlb_set 128
core_0_stlb_way 12
core_0_stlb_rq_size 32
core_0_stlb_wq_size 32
core_0_stlb_pq_size 0
core_0_stlb_mshr_size 16
core_0_stlb_hit_latency 4
core_0_stlb_fill_latency 4
core_0_stlb_max_tag_check 1
core_0_stlb_max_fill 1
core_0_l1i_set 64
core_0_l1i_way 8
core_0_l1i_rq_size 64
core_0_l1i_wq_size 64
core_0_l1i_pq_size 32
core_0_l1i_mshr_size 8
core_0_l1i_hit_latency 2
core_0_l1i_fill_latency 2
core_0_l1i_max_tag_check 2
core_0_l1i_max_fill 2
core_0_l1d_set 64
core_0_l1d_way 12
core_0_l1d_rq_size 64
core_0_l1d_wq_size 64
core_0_l1d_pq_size 8
core_0_l1d_mshr_size 16
core_0_l1d_hit_latency 2
core_0_l1d_fill_latency 3
core_0_l1d_max_tag_check 2
core_0_l1d_max_fill 2
core_0_l2c_set 1024
core_0_l2c_way 8
core_0_l2c_rq_size 32
core_0_l2c_wq_size 32
core_0_l2c_pq_size 16
core_0_l2c_mshr_size 32
core_0_l2c_hit_latency 5
core_0_l2c_fill_latency 5
core_0_l2c_max_tag_check 1
core_0_l2c_max_fill 1
llc_set 2048
llc_way 16
llc_rq_size 32
llc_wq_size 32
llc_pq_size 32
llc_mshr_size 64
llc_hit_latency 10
llc_fill_latency 10
llc_max_tag_check 1
llc_max_fill 1
dram_channels 1
dram_ranks 1
dram_bankgroups 8
dram_banks 4
dram_rows 16384
dram_columns 1024
dram_channel_width 8
dram_rq_size 64
dram_wq_size 64
dram_size 4294967296
core_0_itlb_prefetcher no
core_0_dtlb_prefetcher no
core_0_stlb_prefetcher no
core_0_l1i_prefetcher next_line
core_0_l1d_prefetcher berti
core_0_l2c_prefetcher pythia
llc_prefetcher no
llc_replacement drrip

Core_0_instructions 50000002
Core_0_cycles 11884140
Core_0_IPC 4.20729
Core_0_branch_prediction_accuracy 98.7872
Core_0_branch_MPKI 0.70216
Core_0_average_ROB_occupancy_at_mispredict 112.681

Core_0_ITLB_total_access 3889430
Core_0_ITLB_total_hit 3889411
Core_0_ITLB_total_miss 19
Core_0_ITLB_total_MPKI 0.00038
Core_0_ITLB_total_miss_rate 4.88503e-06
Core_0_ITLB_demand_access 3889430
Core_0_ITLB_demand_hit 3889411
Core_0_ITLB_demand_miss 19
Core_0_ITLB_demand_MPKI 0.00038
Core_0_ITLB_demand_miss_rate 4.88503e-06
Core_0_ITLB_load_access 3889430
Core_0_ITLB_load_hit 3889411
Core_0_ITLB_load_miss 19
Core_0_ITLB_load_MPKI 0.00038
Core_0_ITLB_load_miss_rate 4.88503e-06
Core_0_ITLB_rfo_access 0
Core_0_ITLB_rfo_hit 0
Core_0_ITLB_rfo_miss 0
Core_0_ITLB_rfo_MPKI 0
Core_0_ITLB_rfo_miss_rate 0
Core_0_ITLB_prefetch_access 0
Core_0_ITLB_prefetch_hit 0
Core_0_ITLB_prefetch_miss 0
Core_0_ITLB_prefetch_MPKI 0
Core_0_ITLB_prefetch_miss_rate 0
Core_0_ITLB_writeback_access 0
Core_0_ITLB_writeback_hit 0
Core_0_ITLB_writeback_miss 0
Core_0_ITLB_writeback_MPKI 0
Core_0_ITLB_writeback_miss_rate 0
Core_0_ITLB_prefetch_requested 0
Core_0_ITLB_prefetch_issued 0
Core_0_ITLB_prefetch_useful 0
Core_0_ITLB_prefetch_useless 0
Core_0_ITLB_prefetch_late 0
Core_0_ITLB_prefetch_accuracy 0
Core_0_ITLB_prefetch_coverage 0

Core_0_DTLB_total_access 9093538
Core_0_DTLB_total_hit 9081270
Core_0_DTLB_total_miss 12268
Core_0_DTLB_total_MPKI 0.24536
Core_0_DTLB_total_miss_rate 0.00134909
Core_0_DTLB_demand_access 9093538
Core_0_DTLB_demand_hit 9081270
Core_0_DTLB_demand_miss 12268
Core_0_DTLB_demand_MPKI 0.24536
Core_0_DTLB_demand_miss_rate 0.00134909
Core_0_DTLB_load_access 9093538
Core_0_DTLB_load_hit 9081270
Core_0_DTLB_load_miss 12268
Core_0_DTLB_load_MPKI 0.24536
Core_0_DTLB_load_miss_rate 0.00134909
Core_0_DTLB_rfo_access 0
Core_0_DTLB_rfo_hit 0
Core_0_DTLB_rfo_miss 0
Core_0_DTLB_rfo_MPKI 0
Core_0_DTLB_rfo_miss_rate 0
Core_0_DTLB_prefetch_access 0
Core_0_DTLB_prefetch_hit 0
Core_0_DTLB_prefetch_miss 0
Core_0_DTLB_prefetch_MPKI 0
Core_0_DTLB_prefetch_miss_rate 0
Core_0_DTLB_writeback_access 0
Core_0_DTLB_writeback_hit 0
Core_0_DTLB_writeback_miss 0
Core_0_DTLB_writeback_MPKI 0
Core_0_DTLB_writeback_miss_rate 0
Core_0_DTLB_prefetch_requested 0
Core_0_DTLB_prefetch_issued 0
Core_0_DTLB_prefetch_useful 0
Core_0_DTLB_prefetch_useless 0
Core_0_DTLB_prefetch_late 0
Core_0_DTLB_prefetch_accuracy 0
Core_0_DTLB_prefetch_coverage 0

Core_0_STLB_total_access 7939
Core_0_STLB_total_hit 7838
Core_0_STLB_total_miss 101
Core_0_STLB_total_MPKI 0.00202
Core_0_STLB_total_miss_rate 0.012722
Core_0_STLB_demand_access 7939
Core_0_STLB_demand_hit 7838
Core_0_STLB_demand_miss 101
Core_0_STLB_demand_MPKI 0.00202
Core_0_STLB_demand_miss_rate 0.012722
Core_0_STLB_load_access 7939
Core_0_STLB_load_hit 7838
Core_0_STLB_load_miss 101
Core_0_STLB_load_MPKI 0.00202
Core_0_STLB_load_miss_rate 0.012722
Core_0_STLB_rfo_access 0
Core_0_STLB_rfo_hit 0
Core_0_STLB_rfo_miss 0
Core_0_STLB_rfo_MPKI 0
Core_0_STLB_rfo_miss_rate 0
Core_0_STLB_prefetch_access 0
Core_0_STLB_prefetch_hit 0
Core_0_STLB_prefetch_miss 0
Core_0_STLB_prefetch_MPKI 0
Core_0_STLB_prefetch_miss_rate 0
Core_0_STLB_writeback_access 0
Core_0_STLB_writeback_hit 0
Core_0_STLB_writeback_miss 0
Core_0_STLB_writeback_MPKI 0
Core_0_STLB_writeback_miss_rate 0
Core_0_STLB_prefetch_requested 0
Core_0_STLB_prefetch_issued 0
Core_0_STLB_prefetch_useful 0
Core_0_STLB_prefetch_useless 0
Core_0_STLB_prefetch_late 0
Core_0_STLB_prefetch_accuracy 0
Core_0_STLB_prefetch_coverage 0

Core_0_L1I_total_access 4764915
Core_0_L1I_total_hit 4764763
Core_0_L1I_total_miss 152
Core_0_L1I_total_MPKI 0.00304
Core_0_L1I_total_miss_rate 3.18998e-05
Core_0_L1I_demand_access 4764915
Core_0_L1I_demand_hit 4764763
Core_0_L1I_demand_miss 152
Core_0_L1I_demand_MPKI 0.00304
Core_0_L1I_demand_miss_rate 3.18998e-05
Core_0_L1I_load_access 4764915
Core_0_L1I_load_hit 4764763
Core_0_L1I_load_miss 152
Core_0_L1I_load_MPKI 0.00304
Core_0_L1I_load_miss_rate 3.18998e-05
Core_0_L1I_rfo_access 0
Core_0_L1I_rfo_hit 0
Core_0_L1I_rfo_miss 0
Core_0_L1I_rfo_MPKI 0
Core_0_L1I_rfo_miss_rate 0
Core_0_L1I_prefetch_access 0
Core_0_L1I_prefetch_hit 0
Core_0_L1I_prefetch_miss 0
Core_0_L1I_prefetch_MPKI 0
Core_0_L1I_prefetch_miss_rate 0
Core_0_L1I_writeback_access 0
Core_0_L1I_writeback_hit 0
Core_0_L1I_writeback_miss 0
Core_0_L1I_writeback_MPKI 0
Core_0_L1I_writeback_miss_rate 0
Core_0_L1I_prefetch_requested 0
Core_0_L1I_prefetch_issued 0
Core_0_L1I_prefetch_useful 0
Core_0_L1I_prefetch_useless 0
Core_0_L1I_prefetch_late 0
Core_0_L1I_prefetch_accuracy 0
Core_0_L1I_prefetch_coverage 0

Core_0_L1D_total_access 9973744
Core_0_L1D_total_hit 9201076
Core_0_L1D_total_miss 772668
Core_0_L1D_total_MPKI 15.4534
Core_0_L1D_total_miss_rate 0.0774702
Core_0_L1D_demand_access 7643188
Core_0_L1D_demand_hit 7416797
Core_0_L1D_demand_miss 226391
Core_0_L1D_demand_MPKI 4.52782
Core_0_L1D_demand_miss_rate 0.02962
Core_0_L1D_load_access 7643188
Core_0_L1D_load_hit 7416797
Core_0_L1D_load_miss 226391
Core_0_L1D_load_MPKI 4.52782
Core_0_L1D_load_miss_rate 0.02962
Core_0_L1D_rfo_access 0
Core_0_L1D_rfo_hit 0
Core_0_L1D_rfo_miss 0
Core_0_L1D_rfo_MPKI 0
Core_0_L1D_rfo_miss_rate 0
Core_0_L1D_prefetch_access 580720
Core_0_L1D_prefetch_hit 38005
Core_0_L1D_prefetch_miss 542715
Core_0_L1D_prefetch_MPKI 10.8543
Core_0_L1D_prefetch_miss_rate 0.934555
Core_0_L1D_writeback_access 1749836
Core_0_L1D_writeback_hit 1746274
Core_0_L1D_writeback_miss 3562
Core_0_L1D_writeback_MPKI 0.07124
Core_0_L1D_writeback_miss_rate 0.00203562
Core_0_L1D_prefetch_requested 587498
Core_0_L1D_prefetch_issued 580714
Core_0_L1D_prefetch_useful 515192
Core_0_L1D_prefetch_useless 11114
Core_0_L1D_prefetch_late 17193
Core_0_L1D_prefetch_accuracy 0.88717
Core_0_L1D_prefetch_coverage 0.694719

Core_0_L2C_total_access 3991864
Core_0_L2C_total_hit 3593260
Core_0_L2C_total_miss 398604
Core_0_L2C_total_MPKI 7.97208
Core_0_L2C_total_miss_rate 0.0998541
Core_0_L2C_demand_access 111384
Core_0_L2C_demand_hit 94146
Core_0_L2C_demand_miss 17238
Core_0_L2C_demand_MPKI 0.34476
Core_0_L2C_demand_miss_rate 0.154762
Core_0_L2C_load_access 110154
Core_0_L2C_load_hit 93089
Core_0_L2C_load_miss 17065
Core_0_L2C_load_MPKI 0.3413
Core_0_L2C_load_miss_rate 0.154919
Core_0_L2C_rfo_access 1230
Core_0_L2C_rfo_hit 1057
Core_0_L2C_rfo_miss 173
Core_0_L2C_rfo_MPKI 0.00346
Core_0_L2C_rfo_miss_rate 0.14065
Core_0_L2C_prefetch_access 3708180
Core_0_L2C_prefetch_hit 3328419
Core_0_L2C_prefetch_miss 379761
Core_0_L2C_prefetch_MPKI 7.59522
Core_0_L2C_prefetch_miss_rate 0.102412
Core_0_L2C_writeback_access 172300
Core_0_L2C_writeback_hit 170695
Core_0_L2C_writeback_miss 1605
Core_0_L2C_writeback_MPKI 0.0321
Core_0_L2C_writeback_miss_rate 0.00931515
Core_0_L2C_prefetch_requested 3331048
Core_0_L2C_prefetch_issued 3181879
Core_0_L2C_prefetch_useful 162749
Core_0_L2C_prefetch_useless 15327
Core_0_L2C_prefetch_late 6116
Core_0_L2C_prefetch_accuracy 0.0511487
Core_0_L2C_prefetch_coverage 0.904226

Core_0_LLC_total_access 311170
Core_0_LLC_total_hit 257753
Core_0_LLC_total_miss 53417
Core_0_LLC_total_MPKI 1.06834
Core_0_LLC_total_miss_rate 0.171665
Core_0_LLC_demand_access 11122
Core_0_LLC_demand_hit 6804
Core_0_LLC_demand_miss 4318
Core_0_LLC_demand_MPKI 0.08636
Core_0_LLC_demand_miss_rate 0.38824
Core_0_LLC_load_access 10949
Core_0_LLC_load_hit 6636
Core_0_LLC_load_miss 4313
Core_0_LLC_load_MPKI 0.08626
Core_0_LLC_load_miss_rate 0.393917
Core_0_LLC_rfo_access 173
Core_0_LLC_rfo_hit 168
Core_0_LLC_rfo_miss 5
Core_0_LLC_rfo_MPKI 0.0001
Core_0_LLC_rfo_miss_rate 0.0289017
Core_0_LLC_prefetch_access 192668
Core_0_LLC_prefetch_hit 143780
Core_0_LLC_prefetch_miss 48888
Core_0_LLC_prefetch_MPKI 0.97776
Core_0_LLC_prefetch_miss_rate 0.253742
Core_0_LLC_writeback_access 107380
Core_0_LLC_writeback_hit 107169
Core_0_LLC_writeback_miss 211
Core_0_LLC_writeback_MPKI 0.00422
Core_0_LLC_writeback_miss_rate 0.00196498
Core_0_LLC_prefetch_requested 0
Core_0_LLC_prefetch_issued 0
Core_0_LLC_prefetch_useful 0
Core_0_LLC_prefetch_useless 0
Core_0_LLC_prefetch_late 0
Core_0_LLC_prefetch_accuracy 0
Core_0_LLC_prefetch_coverage 0

[DRAM Statistics]
Channel_0_RQ_row_buffer_hit 10732
Channel_0_RQ_row_buffer_miss 42509
Channel_0_WQ_row_buffer_hit 1098
Channel_0_WQ_row_buffer_miss 4059
Channel_0_WQ_full 0
Channel_0_dbus_congested 138425
DRAM_total_RQ_row_buffer_hit 10732
DRAM_total_RQ_row_buffer_miss 42509
DRAM_total_WQ_row_buffer_hit 1098
DRAM_total_WQ_row_buffer_miss 4059
DRAM_total_WQ_full 0
DRAM_total_dbus_congested 138425
DRAM_avg_congested_cycle 8.28544

======STLB miss causes ========
Core_0_STLB_miss_cause_breakdown
Core_0_STLB_cause_Demand_Data_miss 0
Core_0_STLB_cause_Demand_Data_miss_rate 0
Core_0_STLB_cause_Demand_Instruction_miss 0
Core_0_STLB_cause_Demand_Instruction_miss_rate 0
Core_0_STLB_cause_L1D_Prefetch_miss 101
Core_0_STLB_cause_L1D_Prefetch_miss_rate 0.012722
Core_0_STLB_cause_L1I_Prefetch_miss 0
Core_0_STLB_cause_L1I_Prefetch_miss_rate 0
Core_0_STLB_cause_Other_miss 0
Core_0_STLB_cause_Other_miss_rate 0
Core_0_STLB_Demand_miss 0
Core_0_STLB_Demand_miss_rate 0
Core_0_STLB_L1D_Prefetch_miss 101
Core_0_STLB_L1D_Prefetch_miss_rate 0.012722
Core_0_STLB_Other_miss 0
Core_0_STLB_Other_miss_rate 0
