[VMEM] WARNING: physical memory size is smaller than virtual memory size.

*** ChampSim Multicore Out-of-Order Simulator ***
Warmup Instructions: 20000000
Simulation Instructions: 50000000
Number of CPUs: 1
Page size: 4096
STLB ideal mode: demand
Core 0: /data0/tzh/champsim_traces/SPEC06/464.h264ref-57B.champsimtrace.xz
 L1D Berti prefetcher
Off-chip DRAM Size: 4 GiB Channels: 1 Width: 64-bit Data Rate: 3205 MT/s
Warmup halting CPU 0 at instruction 20000002 cycle 4676818 for remainder of phase
Warmup finished CPU 0 instructions: 20000002 cycles: 4676818 cumulative IPC: 4.276 (Simulation time: 00 hr 01 min 04 sec)
Warmup complete CPU 0 instructions: 20000002 cycles: 4676818 cumulative IPC: 4.276 (Simulation time: 00 hr 01 min 04 sec)
Simulation finished CPU 0 instructions: 50000005 cycles: 19397675 cumulative IPC: 2.578 (Simulation time: 00 hr 04 min 17 sec)
Simulation complete CPU 0 instructions: 50000005 cycles: 19397675 cumulative IPC: 2.578 (Simulation time: 00 hr 04 min 17 sec)

ChampSim completed all CPUs

=== Simulation ===
CPU 0 runs /data0/tzh/champsim_traces/SPEC06/464.h264ref-57B.champsimtrace.xz

Region of Interest Statistics

CPU 0 cumulative IPC: 2.578 instructions: 50000005 cycles: 19397675
CPU 0 Branch Prediction Accuracy: 95.26% MPKI: 4.488 Average ROB Occupancy at Mispredict: 129.9
Branch type MPKI
BRANCH_DIRECT_JUMP: 0.024
BRANCH_INDIRECT: 0.00376
BRANCH_CONDITIONAL: 4.439
BRANCH_DIRECT_CALL: 0.01514
BRANCH_INDIRECT_CALL: 0.00148
BRANCH_RETURN: 0.0042

cpu0->cpu0_STLB TOTAL        ACCESS:      17825 HIT:      17301 MISS:        524 MSHR_MERGE:          0
cpu0->cpu0_STLB LOAD         ACCESS:      17825 HIT:      17301 MISS:        524 MSHR_MERGE:          0
cpu0->cpu0_STLB RFO          ACCESS:          0 HIT:          0 MISS:          0 MSHR_MERGE:          0
cpu0->cpu0_STLB PREFETCH     ACCESS:          0 HIT:          0 MISS:          0 MSHR_MERGE:          0
cpu0->cpu0_STLB WRITE        ACCESS:          0 HIT:          0 MISS:          0 MSHR_MERGE:          0
cpu0->cpu0_STLB TRANSLATION  ACCESS:          0 HIT:          0 MISS:          0 MSHR_MERGE:          0
cpu0->cpu0_STLB PREFETCH REQUESTED:          0 ISSUED:          0 USEFUL:          0 USELESS:          0 LATE:          0
cpu0->cpu0_STLB AVERAGE MISS LATENCY: 186.4 cycles
cpu0->cpu0_L2C TOTAL        ACCESS:     641675 HIT:     475618 MISS:     166057 MSHR_MERGE:      51335
cpu0->cpu0_L2C LOAD         ACCESS:      38704 HIT:      27917 MISS:      10787 MSHR_MERGE:        648
cpu0->cpu0_L2C RFO          ACCESS:      34030 HIT:       4302 MISS:      29728 MSHR_MERGE:         92
cpu0->cpu0_L2C PREFETCH     ACCESS:     532462 HIT:     407415 MISS:     125047 MSHR_MERGE:      50595
cpu0->cpu0_L2C WRITE        ACCESS:      36021 HIT:      35938 MISS:         83 MSHR_MERGE:          0
cpu0->cpu0_L2C TRANSLATION  ACCESS:        458 HIT:         46 MISS:        412 MSHR_MERGE:          0
cpu0->cpu0_L2C PREFETCH REQUESTED:     456105 ISSUED:     450633 USEFUL:      42484 USELESS:      24101 LATE:        740
cpu0->cpu0_L2C AVERAGE MISS LATENCY: 96.24 cycles
cpu0->cpu0_L1I TOTAL        ACCESS:    1343363 HIT:    1339993 MISS:       3370 MSHR_MERGE:       1307
cpu0->cpu0_L1I LOAD         ACCESS:    1343363 HIT:    1339993 MISS:       3370 MSHR_MERGE:       1307
cpu0->cpu0_L1I RFO          ACCESS:          0 HIT:          0 MISS:          0 MSHR_MERGE:          0
cpu0->cpu0_L1I PREFETCH     ACCESS:          0 HIT:          0 MISS:          0 MSHR_MERGE:          0
cpu0->cpu0_L1I WRITE        ACCESS:          0 HIT:          0 MISS:          0 MSHR_MERGE:          0
cpu0->cpu0_L1I TRANSLATION  ACCESS:          0 HIT:          0 MISS:          0 MSHR_MERGE:          0
cpu0->cpu0_L1I PREFETCH REQUESTED:          0 ISSUED:          0 USEFUL:          0 USELESS:          0 LATE:          0
cpu0->cpu0_L1I AVERAGE MISS LATENCY: 177.2 cycles
cpu0->cpu0_L1D TOTAL        ACCESS:   14812241 HIT:   14368149 MISS:     444092 MSHR_MERGE:     291132
cpu0->cpu0_L1D LOAD         ACCESS:   10717123 HIT:   10634625 MISS:      82498 MSHR_MERGE:      45857
cpu0->cpu0_L1D RFO          ACCESS:          0 HIT:          0 MISS:          0 MSHR_MERGE:          0
cpu0->cpu0_L1D PREFETCH     ACCESS:     140368 HIT:      56793 MISS:      83575 MSHR_MERGE:       1746
cpu0->cpu0_L1D WRITE        ACCESS:    3953703 HIT:    3676146 MISS:     277557 MSHR_MERGE:     243525
cpu0->cpu0_L1D TRANSLATION  ACCESS:       1047 HIT:        585 MISS:        462 MSHR_MERGE:          4
cpu0->cpu0_L1D PREFETCH REQUESTED:     148369 ISSUED:     140368 USEFUL:      68765 USELESS:      12981 LATE:       2572
cpu0->cpu0_L1D AVERAGE MISS LATENCY: 58.96 cycles
cpu0->cpu0_ITLB TOTAL        ACCESS:    1254738 HIT:    1254672 MISS:         66 MSHR_MERGE:         37
cpu0->cpu0_ITLB LOAD         ACCESS:    1254738 HIT:    1254672 MISS:         66 MSHR_MERGE:         37
cpu0->cpu0_ITLB RFO          ACCESS:          0 HIT:          0 MISS:          0 MSHR_MERGE:          0
cpu0->cpu0_ITLB PREFETCH     ACCESS:          0 HIT:          0 MISS:          0 MSHR_MERGE:          0
cpu0->cpu0_ITLB WRITE        ACCESS:          0 HIT:          0 MISS:          0 MSHR_MERGE:          0
cpu0->cpu0_ITLB TRANSLATION  ACCESS:          0 HIT:          0 MISS:          0 MSHR_MERGE:          0
cpu0->cpu0_ITLB PREFETCH REQUESTED:          0 ISSUED:          0 USEFUL:          0 USELESS:          0 LATE:          0
cpu0->cpu0_ITLB AVERAGE MISS LATENCY: 5 cycles
cpu0->cpu0_DTLB TOTAL        ACCESS:   14098796 HIT:   14070987 MISS:      27809 MSHR_MERGE:      10013
cpu0->cpu0_DTLB LOAD         ACCESS:   14098796 HIT:   14070987 MISS:      27809 MSHR_MERGE:      10013
cpu0->cpu0_DTLB RFO          ACCESS:          0 HIT:          0 MISS:          0 MSHR_MERGE:          0
cpu0->cpu0_DTLB PREFETCH     ACCESS:          0 HIT:          0 MISS:          0 MSHR_MERGE:          0
cpu0->cpu0_DTLB WRITE        ACCESS:          0 HIT:          0 MISS:          0 MSHR_MERGE:          0
cpu0->cpu0_DTLB TRANSLATION  ACCESS:          0 HIT:          0 MISS:          0 MSHR_MERGE:          0
cpu0->cpu0_DTLB PREFETCH REQUESTED:          0 ISSUED:          0 USEFUL:          0 USELESS:          0 LATE:          0
cpu0->cpu0_DTLB AVERAGE MISS LATENCY: 10.52 cycles
cpu0->LLC TOTAL        ACCESS:     145892 HIT:      85187 MISS:      60705 MSHR_MERGE:          0
cpu0->LLC LOAD         ACCESS:      10139 HIT:       5505 MISS:       4634 MSHR_MERGE:          0
cpu0->LLC RFO          ACCESS:      29636 HIT:      17259 MISS:      12377 MSHR_MERGE:          0
cpu0->LLC PREFETCH     ACCESS:      74452 HIT:      40893 MISS:      33559 MSHR_MERGE:          0
cpu0->LLC WRITE        ACCESS:      31253 HIT:      21429 MISS:       9824 MSHR_MERGE:          0
cpu0->LLC TRANSLATION  ACCESS:        412 HIT:        101 MISS:        311 MSHR_MERGE:          0
cpu0->LLC PREFETCH REQUESTED:          0 ISSUED:          0 USEFUL:          0 USELESS:          0 LATE:          0
cpu0->LLC AVERAGE MISS LATENCY: 123 cycles

DRAM Statistics

Channel 0 RQ ROW_BUFFER_HIT:       4302
  ROW_BUFFER_MISS:      46578
  AVG DBUS CONGESTED CYCLE: 10.32
Channel 0 WQ ROW_BUFFER_HIT:       1320
  ROW_BUFFER_MISS:       9129
  FULL:         15
Channel 0 REFRESHES ISSUED:       1617

[ROI Statistics]
[System Configuration]
num_cpus 1
cpu_freq 4000
fetch_width 6
decode_width 6
dispatch_width 6
execute_width 6
lq_width 2
sq_width 2
retire_width 6
scheduler_size 160
branch_mispredict_penalty 1
rob_size 352
lq_size 240
sq_size 112
ifetch_buffer_size 64
decode_buffer_size 32
dispatch_buffer_size 32
register_file_size 288
decode_latency 1
dispatch_latency 1
schedule_latency 0
execute_latency 0
page_size 4096
block_size 64
core_0_itlb_set 16
core_0_itlb_way 4
core_0_itlb_rq_size 16
core_0_itlb_wq_size 16
core_0_itlb_pq_size 0
core_0_itlb_mshr_size 8
core_0_itlb_hit_latency 1
core_0_itlb_fill_latency 1
core_0_itlb_max_tag_check 2
core_0_itlb_max_fill 2
core_0_dtlb_set 16
core_0_dtlb_way 4
core_0_dtlb_rq_size 16
core_0_dtlb_wq_size 16
core_0_dtlb_pq_size 0
core_0_dtlb_mshr_size 8
core_0_dtlb_hit_latency 1
core_0_dtlb_fill_latency 1
core_0_dtlb_max_tag_check 2
core_0_dtlb_max_fill 2
core_0_stlb_set 128
core_0_stlb_way 12
core_0_stlb_rq_size 32
core_0_stlb_wq_size 32
core_0_stlb_pq_size 0
core_0_stlb_mshr_size 16
core_0_stlb_hit_latency 4
core_0_stlb_fill_latency 4
core_0_stlb_max_tag_check 1
core_0_stlb_max_fill 1
core_0_l1i_set 64
core_0_l1i_way 8
core_0_l1i_rq_size 64
core_0_l1i_wq_size 64
core_0_l1i_pq_size 32
core_0_l1i_mshr_size 8
core_0_l1i_hit_latency 2
core_0_l1i_fill_latency 2
core_0_l1i_max_tag_check 2
core_0_l1i_max_fill 2
core_0_l1d_set 64
core_0_l1d_way 12
core_0_l1d_rq_size 64
core_0_l1d_wq_size 64
core_0_l1d_pq_size 8
core_0_l1d_mshr_size 16
core_0_l1d_hit_latency 2
core_0_l1d_fill_latency 3
core_0_l1d_max_tag_check 2
core_0_l1d_max_fill 2
core_0_l2c_set 1024
core_0_l2c_way 8
core_0_l2c_rq_size 32
core_0_l2c_wq_size 32
core_0_l2c_pq_size 16
core_0_l2c_mshr_size 32
core_0_l2c_hit_latency 5
core_0_l2c_fill_latency 5
core_0_l2c_max_tag_check 1
core_0_l2c_max_fill 1
llc_set 2048
llc_way 16
llc_rq_size 32
llc_wq_size 32
llc_pq_size 32
llc_mshr_size 64
llc_hit_latency 10
llc_fill_latency 10
llc_max_tag_check 1
llc_max_fill 1
dram_channels 1
dram_ranks 1
dram_bankgroups 8
dram_banks 4
dram_rows 16384
dram_columns 1024
dram_channel_width 8
dram_rq_size 64
dram_wq_size 64
dram_size 4294967296
core_0_itlb_prefetcher no
core_0_dtlb_prefetcher no
core_0_stlb_prefetcher no
core_0_l1i_prefetcher next_line
core_0_l1d_prefetcher berti
core_0_l2c_prefetcher pythia
llc_prefetcher no
llc_replacement drrip

Core_0_instructions 50000005
Core_0_cycles 19397675
Core_0_IPC 2.57763
Core_0_branch_prediction_accuracy 95.2601
Core_0_branch_MPKI 4.48782
Core_0_average_ROB_occupancy_at_mispredict 129.911

Core_0_ITLB_total_access 1254738
Core_0_ITLB_total_hit 1254672
Core_0_ITLB_total_miss 66
Core_0_ITLB_total_MPKI 0.00132
Core_0_ITLB_total_miss_rate 5.26006e-05
Core_0_ITLB_demand_access 1254738
Core_0_ITLB_demand_hit 1254672
Core_0_ITLB_demand_miss 66
Core_0_ITLB_demand_MPKI 0.00132
Core_0_ITLB_demand_miss_rate 5.26006e-05
Core_0_ITLB_load_access 1254738
Core_0_ITLB_load_hit 1254672
Core_0_ITLB_load_miss 66
Core_0_ITLB_load_MPKI 0.00132
Core_0_ITLB_load_miss_rate 5.26006e-05
Core_0_ITLB_rfo_access 0
Core_0_ITLB_rfo_hit 0
Core_0_ITLB_rfo_miss 0
Core_0_ITLB_rfo_MPKI 0
Core_0_ITLB_rfo_miss_rate 0
Core_0_ITLB_prefetch_access 0
Core_0_ITLB_prefetch_hit 0
Core_0_ITLB_prefetch_miss 0
Core_0_ITLB_prefetch_MPKI 0
Core_0_ITLB_prefetch_miss_rate 0
Core_0_ITLB_writeback_access 0
Core_0_ITLB_writeback_hit 0
Core_0_ITLB_writeback_miss 0
Core_0_ITLB_writeback_MPKI 0
Core_0_ITLB_writeback_miss_rate 0
Core_0_ITLB_prefetch_requested 0
Core_0_ITLB_prefetch_issued 0
Core_0_ITLB_prefetch_useful 0
Core_0_ITLB_prefetch_useless 0
Core_0_ITLB_prefetch_late 0
Core_0_ITLB_prefetch_accuracy 0
Core_0_ITLB_prefetch_coverage 0

Core_0_DTLB_total_access 14098796
Core_0_DTLB_total_hit 14070987
Core_0_DTLB_total_miss 27809
Core_0_DTLB_total_MPKI 0.55618
Core_0_DTLB_total_miss_rate 0.00197244
Core_0_DTLB_demand_access 14098796
Core_0_DTLB_demand_hit 14070987
Core_0_DTLB_demand_miss 27809
Core_0_DTLB_demand_MPKI 0.55618
Core_0_DTLB_demand_miss_rate 0.00197244
Core_0_DTLB_load_access 14098796
Core_0_DTLB_load_hit 14070987
Core_0_DTLB_load_miss 27809
Core_0_DTLB_load_MPKI 0.55618
Core_0_DTLB_load_miss_rate 0.00197244
Core_0_DTLB_rfo_access 0
Core_0_DTLB_rfo_hit 0
Core_0_DTLB_rfo_miss 0
Core_0_DTLB_rfo_MPKI 0
Core_0_DTLB_rfo_miss_rate 0
Core_0_DTLB_prefetch_access 0
Core_0_DTLB_prefetch_hit 0
Core_0_DTLB_prefetch_miss 0
Core_0_DTLB_prefetch_MPKI 0
Core_0_DTLB_prefetch_miss_rate 0
Core_0_DTLB_writeback_access 0
Core_0_DTLB_writeback_hit 0
Core_0_DTLB_writeback_miss 0
Core_0_DTLB_writeback_MPKI 0
Core_0_DTLB_writeback_miss_rate 0
Core_0_DTLB_prefetch_requested 0
Core_0_DTLB_prefetch_issued 0
Core_0_DTLB_prefetch_useful 0
Core_0_DTLB_prefetch_useless 0
Core_0_DTLB_prefetch_late 0
Core_0_DTLB_prefetch_accuracy 0
Core_0_DTLB_prefetch_coverage 0

Core_0_STLB_total_access 17825
Core_0_STLB_total_hit 17301
Core_0_STLB_total_miss 524
Core_0_STLB_total_MPKI 0.01048
Core_0_STLB_total_miss_rate 0.0293969
Core_0_STLB_demand_access 17825
Core_0_STLB_demand_hit 17301
Core_0_STLB_demand_miss 524
Core_0_STLB_demand_MPKI 0.01048
Core_0_STLB_demand_miss_rate 0.0293969
Core_0_STLB_load_access 17825
Core_0_STLB_load_hit 17301
Core_0_STLB_load_miss 524
Core_0_STLB_load_MPKI 0.01048
Core_0_STLB_load_miss_rate 0.0293969
Core_0_STLB_rfo_access 0
Core_0_STLB_rfo_hit 0
Core_0_STLB_rfo_miss 0
Core_0_STLB_rfo_MPKI 0
Core_0_STLB_rfo_miss_rate 0
Core_0_STLB_prefetch_access 0
Core_0_STLB_prefetch_hit 0
Core_0_STLB_prefetch_miss 0
Core_0_STLB_prefetch_MPKI 0
Core_0_STLB_prefetch_miss_rate 0
Core_0_STLB_writeback_access 0
Core_0_STLB_writeback_hit 0
Core_0_STLB_writeback_miss 0
Core_0_STLB_writeback_MPKI 0
Core_0_STLB_writeback_miss_rate 0
Core_0_STLB_prefetch_requested 0
Core_0_STLB_prefetch_issued 0
Core_0_STLB_prefetch_useful 0
Core_0_STLB_prefetch_useless 0
Core_0_STLB_prefetch_late 0
Core_0_STLB_prefetch_accuracy 0
Core_0_STLB_prefetch_coverage 0

Core_0_L1I_total_access 1343363
Core_0_L1I_total_hit 1339993
Core_0_L1I_total_miss 3370
Core_0_L1I_total_MPKI 0.0674
Core_0_L1I_total_miss_rate 0.00250863
Core_0_L1I_demand_access 1343363
Core_0_L1I_demand_hit 1339993
Core_0_L1I_demand_miss 3370
Core_0_L1I_demand_MPKI 0.0674
Core_0_L1I_demand_miss_rate 0.00250863
Core_0_L1I_load_access 1343363
Core_0_L1I_load_hit 1339993
Core_0_L1I_load_miss 3370
Core_0_L1I_load_MPKI 0.0674
Core_0_L1I_load_miss_rate 0.00250863
Core_0_L1I_rfo_access 0
Core_0_L1I_rfo_hit 0
Core_0_L1I_rfo_miss 0
Core_0_L1I_rfo_MPKI 0
Core_0_L1I_rfo_miss_rate 0
Core_0_L1I_prefetch_access 0
Core_0_L1I_prefetch_hit 0
Core_0_L1I_prefetch_miss 0
Core_0_L1I_prefetch_MPKI 0
Core_0_L1I_prefetch_miss_rate 0
Core_0_L1I_writeback_access 0
Core_0_L1I_writeback_hit 0
Core_0_L1I_writeback_miss 0
Core_0_L1I_writeback_MPKI 0
Core_0_L1I_writeback_miss_rate 0
Core_0_L1I_prefetch_requested 0
Core_0_L1I_prefetch_issued 0
Core_0_L1I_prefetch_useful 0
Core_0_L1I_prefetch_useless 0
Core_0_L1I_prefetch_late 0
Core_0_L1I_prefetch_accuracy 0
Core_0_L1I_prefetch_coverage 0

Core_0_L1D_total_access 14811194
Core_0_L1D_total_hit 14367564
Core_0_L1D_total_miss 443630
Core_0_L1D_total_MPKI 8.8726
Core_0_L1D_total_miss_rate 0.0299523
Core_0_L1D_demand_access 10717123
Core_0_L1D_demand_hit 10634625
Core_0_L1D_demand_miss 82498
Core_0_L1D_demand_MPKI 1.64996
Core_0_L1D_demand_miss_rate 0.00769777
Core_0_L1D_load_access 10717123
Core_0_L1D_load_hit 10634625
Core_0_L1D_load_miss 82498
Core_0_L1D_load_MPKI 1.64996
Core_0_L1D_load_miss_rate 0.00769777
Core_0_L1D_rfo_access 0
Core_0_L1D_rfo_hit 0
Core_0_L1D_rfo_miss 0
Core_0_L1D_rfo_MPKI 0
Core_0_L1D_rfo_miss_rate 0
Core_0_L1D_prefetch_access 140368
Core_0_L1D_prefetch_hit 56793
Core_0_L1D_prefetch_miss 83575
Core_0_L1D_prefetch_MPKI 1.6715
Core_0_L1D_prefetch_miss_rate 0.595399
Core_0_L1D_writeback_access 3953703
Core_0_L1D_writeback_hit 3676146
Core_0_L1D_writeback_miss 277557
Core_0_L1D_writeback_MPKI 5.55114
Core_0_L1D_writeback_miss_rate 0.0702018
Core_0_L1D_prefetch_requested 148369
Core_0_L1D_prefetch_issued 140368
Core_0_L1D_prefetch_useful 68765
Core_0_L1D_prefetch_useless 12981
Core_0_L1D_prefetch_late 2572
Core_0_L1D_prefetch_accuracy 0.489891
Core_0_L1D_prefetch_coverage 0.454606

Core_0_L2C_total_access 641217
Core_0_L2C_total_hit 475572
Core_0_L2C_total_miss 165645
Core_0_L2C_total_MPKI 3.3129
Core_0_L2C_total_miss_rate 0.258329
Core_0_L2C_demand_access 72734
Core_0_L2C_demand_hit 32219
Core_0_L2C_demand_miss 40515
Core_0_L2C_demand_MPKI 0.8103
Core_0_L2C_demand_miss_rate 0.55703
Core_0_L2C_load_access 38704
Core_0_L2C_load_hit 27917
Core_0_L2C_load_miss 10787
Core_0_L2C_load_MPKI 0.21574
Core_0_L2C_load_miss_rate 0.278705
Core_0_L2C_rfo_access 34030
Core_0_L2C_rfo_hit 4302
Core_0_L2C_rfo_miss 29728
Core_0_L2C_rfo_MPKI 0.59456
Core_0_L2C_rfo_miss_rate 0.873582
Core_0_L2C_prefetch_access 532462
Core_0_L2C_prefetch_hit 407415
Core_0_L2C_prefetch_miss 125047
Core_0_L2C_prefetch_MPKI 2.50094
Core_0_L2C_prefetch_miss_rate 0.234847
Core_0_L2C_writeback_access 36021
Core_0_L2C_writeback_hit 35938
Core_0_L2C_writeback_miss 83
Core_0_L2C_writeback_MPKI 0.00166
Core_0_L2C_writeback_miss_rate 0.00230421
Core_0_L2C_prefetch_requested 456105
Core_0_L2C_prefetch_issued 450633
Core_0_L2C_prefetch_useful 42484
Core_0_L2C_prefetch_useless 24101
Core_0_L2C_prefetch_late 740
Core_0_L2C_prefetch_accuracy 0.0942763
Core_0_L2C_prefetch_coverage 0.511862

Core_0_LLC_total_access 145480
Core_0_LLC_total_hit 85086
Core_0_LLC_total_miss 60394
Core_0_LLC_total_MPKI 1.20788
Core_0_LLC_total_miss_rate 0.415136
Core_0_LLC_demand_access 39775
Core_0_LLC_demand_hit 22764
Core_0_LLC_demand_miss 17011
Core_0_LLC_demand_MPKI 0.34022
Core_0_LLC_demand_miss_rate 0.427681
Core_0_LLC_load_access 10139
Core_0_LLC_load_hit 5505
Core_0_LLC_load_miss 4634
Core_0_LLC_load_MPKI 0.09268
Core_0_LLC_load_miss_rate 0.457047
Core_0_LLC_rfo_access 29636
Core_0_LLC_rfo_hit 17259
Core_0_LLC_rfo_miss 12377
Core_0_LLC_rfo_MPKI 0.24754
Core_0_LLC_rfo_miss_rate 0.417634
Core_0_LLC_prefetch_access 74452
Core_0_LLC_prefetch_hit 40893
Core_0_LLC_prefetch_miss 33559
Core_0_LLC_prefetch_MPKI 0.67118
Core_0_LLC_prefetch_miss_rate 0.450747
Core_0_LLC_writeback_access 31253
Core_0_LLC_writeback_hit 21429
Core_0_LLC_writeback_miss 9824
Core_0_LLC_writeback_MPKI 0.19648
Core_0_LLC_writeback_miss_rate 0.314338
Core_0_LLC_prefetch_requested 0
Core_0_LLC_prefetch_issued 0
Core_0_LLC_prefetch_useful 0
Core_0_LLC_prefetch_useless 0
Core_0_LLC_prefetch_late 0
Core_0_LLC_prefetch_accuracy 0
Core_0_LLC_prefetch_coverage 0

[DRAM Statistics]
Channel_0_RQ_row_buffer_hit 4302
Channel_0_RQ_row_buffer_miss 46578
Channel_0_WQ_row_buffer_hit 1320
Channel_0_WQ_row_buffer_miss 9129
Channel_0_WQ_full 15
Channel_0_dbus_congested 102399
DRAM_total_RQ_row_buffer_hit 4302
DRAM_total_RQ_row_buffer_miss 46578
DRAM_total_WQ_row_buffer_hit 1320
DRAM_total_WQ_row_buffer_miss 9129
DRAM_total_WQ_full 15
DRAM_total_dbus_congested 102399
DRAM_avg_congested_cycle 10.3226

======STLB miss causes ========
Core_0_STLB_miss_cause_breakdown
Core_0_STLB_cause_Demand_Data_miss 0
Core_0_STLB_cause_Demand_Data_miss_rate 0
Core_0_STLB_cause_Demand_Instruction_miss 0
Core_0_STLB_cause_Demand_Instruction_miss_rate 0
Core_0_STLB_cause_L1D_Prefetch_miss 524
Core_0_STLB_cause_L1D_Prefetch_miss_rate 0.0293969
Core_0_STLB_cause_L1I_Prefetch_miss 0
Core_0_STLB_cause_L1I_Prefetch_miss_rate 0
Core_0_STLB_cause_Other_miss 0
Core_0_STLB_cause_Other_miss_rate 0
Core_0_STLB_Demand_miss 0
Core_0_STLB_Demand_miss_rate 0
Core_0_STLB_L1D_Prefetch_miss 524
Core_0_STLB_L1D_Prefetch_miss_rate 0.0293969
Core_0_STLB_Other_miss 0
Core_0_STLB_Other_miss_rate 0
