[VMEM] WARNING: physical memory size is smaller than virtual memory size.

*** ChampSim Multicore Out-of-Order Simulator ***
Warmup Instructions: 20000000
Simulation Instructions: 50000000
Number of CPUs: 1
Page size: 4096
STLB ideal mode: demand
Core 0: /data0/tzh/champsim_traces/SPEC06/464.h264ref-30B.champsimtrace.xz
 L1D Berti prefetcher
Off-chip DRAM Size: 4 GiB Channels: 1 Width: 64-bit Data Rate: 3205 MT/s
Warmup halting CPU 0 at instruction 20000000 cycle 5261237 for remainder of phase
Warmup finished CPU 0 instructions: 20000000 cycles: 5261237 cumulative IPC: 3.801 (Simulation time: 00 hr 01 min 06 sec)
Warmup complete CPU 0 instructions: 20000000 cycles: 5261237 cumulative IPC: 3.801 (Simulation time: 00 hr 01 min 06 sec)
Simulation finished CPU 0 instructions: 50000001 cycles: 17577124 cumulative IPC: 2.845 (Simulation time: 00 hr 03 min 49 sec)
Simulation complete CPU 0 instructions: 50000001 cycles: 17577124 cumulative IPC: 2.845 (Simulation time: 00 hr 03 min 49 sec)

ChampSim completed all CPUs

=== Simulation ===
CPU 0 runs /data0/tzh/champsim_traces/SPEC06/464.h264ref-30B.champsimtrace.xz

Region of Interest Statistics

CPU 0 cumulative IPC: 2.845 instructions: 50000001 cycles: 17577124
CPU 0 Branch Prediction Accuracy: 95.43% MPKI: 4.873 Average ROB Occupancy at Mispredict: 126.2
Branch type MPKI
BRANCH_DIRECT_JUMP: 0.016
BRANCH_INDIRECT: 0.00152
BRANCH_CONDITIONAL: 4.737
BRANCH_DIRECT_CALL: 0.1126
BRANCH_INDIRECT_CALL: 0.00154
BRANCH_RETURN: 0.0047

cpu0->cpu0_STLB TOTAL        ACCESS:      13206 HIT:      12769 MISS:        437 MSHR_MERGE:          0
cpu0->cpu0_STLB LOAD         ACCESS:      13206 HIT:      12769 MISS:        437 MSHR_MERGE:          0
cpu0->cpu0_STLB RFO          ACCESS:          0 HIT:          0 MISS:          0 MSHR_MERGE:          0
cpu0->cpu0_STLB PREFETCH     ACCESS:          0 HIT:          0 MISS:          0 MSHR_MERGE:          0
cpu0->cpu0_STLB WRITE        ACCESS:          0 HIT:          0 MISS:          0 MSHR_MERGE:          0
cpu0->cpu0_STLB TRANSLATION  ACCESS:          0 HIT:          0 MISS:          0 MSHR_MERGE:          0
cpu0->cpu0_STLB PREFETCH REQUESTED:          0 ISSUED:          0 USEFUL:          0 USELESS:          0 LATE:          0
cpu0->cpu0_STLB AVERAGE MISS LATENCY: 147.1 cycles
cpu0->cpu0_L2C TOTAL        ACCESS:     490786 HIT:     377097 MISS:     113689 MSHR_MERGE:      30872
cpu0->cpu0_L2C LOAD         ACCESS:      29062 HIT:      22440 MISS:       6622 MSHR_MERGE:        484
cpu0->cpu0_L2C RFO          ACCESS:      29882 HIT:       2923 MISS:      26959 MSHR_MERGE:         97
cpu0->cpu0_L2C PREFETCH     ACCESS:     400568 HIT:     320827 MISS:      79741 MSHR_MERGE:      30291
cpu0->cpu0_L2C WRITE        ACCESS:      30898 HIT:      30850 MISS:         48 MSHR_MERGE:          0
cpu0->cpu0_L2C TRANSLATION  ACCESS:        376 HIT:         57 MISS:        319 MSHR_MERGE:          0
cpu0->cpu0_L2C PREFETCH REQUESTED:     343750 ISSUED:     339413 USEFUL:      30640 USELESS:      14745 LATE:        581
cpu0->cpu0_L2C AVERAGE MISS LATENCY: 87.36 cycles
cpu0->cpu0_L1I TOTAL        ACCESS:     891071 HIT:     888937 MISS:       2134 MSHR_MERGE:        682
cpu0->cpu0_L1I LOAD         ACCESS:     891071 HIT:     888937 MISS:       2134 MSHR_MERGE:        682
cpu0->cpu0_L1I RFO          ACCESS:          0 HIT:          0 MISS:          0 MSHR_MERGE:          0
cpu0->cpu0_L1I PREFETCH     ACCESS:          0 HIT:          0 MISS:          0 MSHR_MERGE:          0
cpu0->cpu0_L1I WRITE        ACCESS:          0 HIT:          0 MISS:          0 MSHR_MERGE:          0
cpu0->cpu0_L1I TRANSLATION  ACCESS:          0 HIT:          0 MISS:          0 MSHR_MERGE:          0
cpu0->cpu0_L1I PREFETCH REQUESTED:          0 ISSUED:          0 USEFUL:          0 USELESS:          0 LATE:          0
cpu0->cpu0_L1I AVERAGE MISS LATENCY: 190.1 cycles
cpu0->cpu0_L1D TOTAL        ACCESS:   13662854 HIT:   13295751 MISS:     367103 MSHR_MERGE:     248079
cpu0->cpu0_L1D LOAD         ACCESS:    9500178 HIT:    9440473 MISS:      59705 MSHR_MERGE:      32095
cpu0->cpu0_L1D RFO          ACCESS:          0 HIT:          0 MISS:          0 MSHR_MERGE:          0
cpu0->cpu0_L1D PREFETCH     ACCESS:     102710 HIT:      39911 MISS:      62799 MSHR_MERGE:       1644
cpu0->cpu0_L1D WRITE        ACCESS:    4059093 HIT:    3814875 MISS:     244218 MSHR_MERGE:     214335
cpu0->cpu0_L1D TRANSLATION  ACCESS:        873 HIT:        492 MISS:        381 MSHR_MERGE:          5
cpu0->cpu0_L1D PREFETCH REQUESTED:     107894 ISSUED:     102710 USEFUL:      53785 USELESS:       7394 LATE:       1938
cpu0->cpu0_L1D AVERAGE MISS LATENCY: 55.23 cycles
cpu0->cpu0_ITLB TOTAL        ACCESS:     833169 HIT:     833068 MISS:        101 MSHR_MERGE:         54
cpu0->cpu0_ITLB LOAD         ACCESS:     833169 HIT:     833068 MISS:        101 MSHR_MERGE:         54
cpu0->cpu0_ITLB RFO          ACCESS:          0 HIT:          0 MISS:          0 MSHR_MERGE:          0
cpu0->cpu0_ITLB PREFETCH     ACCESS:          0 HIT:          0 MISS:          0 MSHR_MERGE:          0
cpu0->cpu0_ITLB WRITE        ACCESS:          0 HIT:          0 MISS:          0 MSHR_MERGE:          0
cpu0->cpu0_ITLB TRANSLATION  ACCESS:          0 HIT:          0 MISS:          0 MSHR_MERGE:          0
cpu0->cpu0_ITLB PREFETCH REQUESTED:          0 ISSUED:          0 USEFUL:          0 USELESS:          0 LATE:          0
cpu0->cpu0_ITLB AVERAGE MISS LATENCY: 5.021 cycles
cpu0->cpu0_DTLB TOTAL        ACCESS:   13057606 HIT:   13036852 MISS:      20754 MSHR_MERGE:       7595
cpu0->cpu0_DTLB LOAD         ACCESS:   13057606 HIT:   13036852 MISS:      20754 MSHR_MERGE:       7595
cpu0->cpu0_DTLB RFO          ACCESS:          0 HIT:          0 MISS:          0 MSHR_MERGE:          0
cpu0->cpu0_DTLB PREFETCH     ACCESS:          0 HIT:          0 MISS:          0 MSHR_MERGE:          0
cpu0->cpu0_DTLB WRITE        ACCESS:          0 HIT:          0 MISS:          0 MSHR_MERGE:          0
cpu0->cpu0_DTLB TRANSLATION  ACCESS:          0 HIT:          0 MISS:          0 MSHR_MERGE:          0
cpu0->cpu0_DTLB PREFETCH REQUESTED:          0 ISSUED:          0 USEFUL:          0 USELESS:          0 LATE:          0
cpu0->cpu0_DTLB AVERAGE MISS LATENCY: 9.918 cycles
cpu0->LLC TOTAL        ACCESS:     111003 HIT:      68659 MISS:      42344 MSHR_MERGE:          0
cpu0->LLC LOAD         ACCESS:       6138 HIT:       2952 MISS:       3186 MSHR_MERGE:          0
cpu0->LLC RFO          ACCESS:      26862 HIT:      16677 MISS:      10185 MSHR_MERGE:          0
cpu0->LLC PREFETCH     ACCESS:      49450 HIT:      29656 MISS:      19794 MSHR_MERGE:          0
cpu0->LLC WRITE        ACCESS:      28234 HIT:      19289 MISS:       8945 MSHR_MERGE:          0
cpu0->LLC TRANSLATION  ACCESS:        319 HIT:         85 MISS:        234 MSHR_MERGE:          0
cpu0->LLC PREFETCH REQUESTED:          0 ISSUED:          0 USEFUL:          0 USELESS:          0 LATE:          0
cpu0->LLC AVERAGE MISS LATENCY: 110 cycles

DRAM Statistics

Channel 0 RQ ROW_BUFFER_HIT:       2416
  ROW_BUFFER_MISS:      30981
  AVG DBUS CONGESTED CYCLE: 10.45
Channel 0 WQ ROW_BUFFER_HIT:       1589
  ROW_BUFFER_MISS:      10403
  FULL:          0
Channel 0 REFRESHES ISSUED:       1465

[ROI Statistics]
[System Configuration]
num_cpus 1
cpu_freq 4000
fetch_width 6
decode_width 6
dispatch_width 6
execute_width 6
lq_width 2
sq_width 2
retire_width 6
scheduler_size 160
branch_mispredict_penalty 1
rob_size 352
lq_size 240
sq_size 112
ifetch_buffer_size 64
decode_buffer_size 32
dispatch_buffer_size 32
register_file_size 288
decode_latency 1
dispatch_latency 1
schedule_latency 0
execute_latency 0
page_size 4096
block_size 64
core_0_itlb_set 16
core_0_itlb_way 4
core_0_itlb_rq_size 16
core_0_itlb_wq_size 16
core_0_itlb_pq_size 0
core_0_itlb_mshr_size 8
core_0_itlb_hit_latency 1
core_0_itlb_fill_latency 1
core_0_itlb_max_tag_check 2
core_0_itlb_max_fill 2
core_0_dtlb_set 16
core_0_dtlb_way 4
core_0_dtlb_rq_size 16
core_0_dtlb_wq_size 16
core_0_dtlb_pq_size 0
core_0_dtlb_mshr_size 8
core_0_dtlb_hit_latency 1
core_0_dtlb_fill_latency 1
core_0_dtlb_max_tag_check 2
core_0_dtlb_max_fill 2
core_0_stlb_set 128
core_0_stlb_way 12
core_0_stlb_rq_size 32
core_0_stlb_wq_size 32
core_0_stlb_pq_size 0
core_0_stlb_mshr_size 16
core_0_stlb_hit_latency 4
core_0_stlb_fill_latency 4
core_0_stlb_max_tag_check 1
core_0_stlb_max_fill 1
core_0_l1i_set 64
core_0_l1i_way 8
core_0_l1i_rq_size 64
core_0_l1i_wq_size 64
core_0_l1i_pq_size 32
core_0_l1i_mshr_size 8
core_0_l1i_hit_latency 2
core_0_l1i_fill_latency 2
core_0_l1i_max_tag_check 2
core_0_l1i_max_fill 2
core_0_l1d_set 64
core_0_l1d_way 12
core_0_l1d_rq_size 64
core_0_l1d_wq_size 64
core_0_l1d_pq_size 8
core_0_l1d_mshr_size 16
core_0_l1d_hit_latency 2
core_0_l1d_fill_latency 3
core_0_l1d_max_tag_check 2
core_0_l1d_max_fill 2
core_0_l2c_set 1024
core_0_l2c_way 8
core_0_l2c_rq_size 32
core_0_l2c_wq_size 32
core_0_l2c_pq_size 16
core_0_l2c_mshr_size 32
core_0_l2c_hit_latency 5
core_0_l2c_fill_latency 5
core_0_l2c_max_tag_check 1
core_0_l2c_max_fill 1
llc_set 2048
llc_way 16
llc_rq_size 32
llc_wq_size 32
llc_pq_size 32
llc_mshr_size 64
llc_hit_latency 10
llc_fill_latency 10
llc_max_tag_check 1
llc_max_fill 1
dram_channels 1
dram_ranks 1
dram_bankgroups 8
dram_banks 4
dram_rows 16384
dram_columns 1024
dram_channel_width 8
dram_rq_size 64
dram_wq_size 64
dram_size 4294967296
core_0_itlb_prefetcher no
core_0_dtlb_prefetcher no
core_0_stlb_prefetcher no
core_0_l1i_prefetcher next_line
core_0_l1d_prefetcher berti
core_0_l2c_prefetcher pythia
llc_prefetcher no
llc_replacement drrip

Core_0_instructions 50000001
Core_0_cycles 17577124
Core_0_IPC 2.84461
Core_0_branch_prediction_accuracy 95.4328
Core_0_branch_MPKI 4.87284
Core_0_average_ROB_occupancy_at_mispredict 126.205

Core_0_ITLB_total_access 833169
Core_0_ITLB_total_hit 833068
Core_0_ITLB_total_miss 101
Core_0_ITLB_total_MPKI 0.00202
Core_0_ITLB_total_miss_rate 0.000121224
Core_0_ITLB_demand_access 833169
Core_0_ITLB_demand_hit 833068
Core_0_ITLB_demand_miss 101
Core_0_ITLB_demand_MPKI 0.00202
Core_0_ITLB_demand_miss_rate 0.000121224
Core_0_ITLB_load_access 833169
Core_0_ITLB_load_hit 833068
Core_0_ITLB_load_miss 101
Core_0_ITLB_load_MPKI 0.00202
Core_0_ITLB_load_miss_rate 0.000121224
Core_0_ITLB_rfo_access 0
Core_0_ITLB_rfo_hit 0
Core_0_ITLB_rfo_miss 0
Core_0_ITLB_rfo_MPKI 0
Core_0_ITLB_rfo_miss_rate 0
Core_0_ITLB_prefetch_access 0
Core_0_ITLB_prefetch_hit 0
Core_0_ITLB_prefetch_miss 0
Core_0_ITLB_prefetch_MPKI 0
Core_0_ITLB_prefetch_miss_rate 0
Core_0_ITLB_writeback_access 0
Core_0_ITLB_writeback_hit 0
Core_0_ITLB_writeback_miss 0
Core_0_ITLB_writeback_MPKI 0
Core_0_ITLB_writeback_miss_rate 0
Core_0_ITLB_prefetch_requested 0
Core_0_ITLB_prefetch_issued 0
Core_0_ITLB_prefetch_useful 0
Core_0_ITLB_prefetch_useless 0
Core_0_ITLB_prefetch_late 0
Core_0_ITLB_prefetch_accuracy 0
Core_0_ITLB_prefetch_coverage 0

Core_0_DTLB_total_access 13057606
Core_0_DTLB_total_hit 13036852
Core_0_DTLB_total_miss 20754
Core_0_DTLB_total_MPKI 0.41508
Core_0_DTLB_total_miss_rate 0.00158942
Core_0_DTLB_demand_access 13057606
Core_0_DTLB_demand_hit 13036852
Core_0_DTLB_demand_miss 20754
Core_0_DTLB_demand_MPKI 0.41508
Core_0_DTLB_demand_miss_rate 0.00158942
Core_0_DTLB_load_access 13057606
Core_0_DTLB_load_hit 13036852
Core_0_DTLB_load_miss 20754
Core_0_DTLB_load_MPKI 0.41508
Core_0_DTLB_load_miss_rate 0.00158942
Core_0_DTLB_rfo_access 0
Core_0_DTLB_rfo_hit 0
Core_0_DTLB_rfo_miss 0
Core_0_DTLB_rfo_MPKI 0
Core_0_DTLB_rfo_miss_rate 0
Core_0_DTLB_prefetch_access 0
Core_0_DTLB_prefetch_hit 0
Core_0_DTLB_prefetch_miss 0
Core_0_DTLB_prefetch_MPKI 0
Core_0_DTLB_prefetch_miss_rate 0
Core_0_DTLB_writeback_access 0
Core_0_DTLB_writeback_hit 0
Core_0_DTLB_writeback_miss 0
Core_0_DTLB_writeback_MPKI 0
Core_0_DTLB_writeback_miss_rate 0
Core_0_DTLB_prefetch_requested 0
Core_0_DTLB_prefetch_issued 0
Core_0_DTLB_prefetch_useful 0
Core_0_DTLB_prefetch_useless 0
Core_0_DTLB_prefetch_late 0
Core_0_DTLB_prefetch_accuracy 0
Core_0_DTLB_prefetch_coverage 0

Core_0_STLB_total_access 13206
Core_0_STLB_total_hit 12769
Core_0_STLB_total_miss 437
Core_0_STLB_total_MPKI 0.00874
Core_0_STLB_total_miss_rate 0.033091
Core_0_STLB_demand_access 13206
Core_0_STLB_demand_hit 12769
Core_0_STLB_demand_miss 437
Core_0_STLB_demand_MPKI 0.00874
Core_0_STLB_demand_miss_rate 0.033091
Core_0_STLB_load_access 13206
Core_0_STLB_load_hit 12769
Core_0_STLB_load_miss 437
Core_0_STLB_load_MPKI 0.00874
Core_0_STLB_load_miss_rate 0.033091
Core_0_STLB_rfo_access 0
Core_0_STLB_rfo_hit 0
Core_0_STLB_rfo_miss 0
Core_0_STLB_rfo_MPKI 0
Core_0_STLB_rfo_miss_rate 0
Core_0_STLB_prefetch_access 0
Core_0_STLB_prefetch_hit 0
Core_0_STLB_prefetch_miss 0
Core_0_STLB_prefetch_MPKI 0
Core_0_STLB_prefetch_miss_rate 0
Core_0_STLB_writeback_access 0
Core_0_STLB_writeback_hit 0
Core_0_STLB_writeback_miss 0
Core_0_STLB_writeback_MPKI 0
Core_0_STLB_writeback_miss_rate 0
Core_0_STLB_prefetch_requested 0
Core_0_STLB_prefetch_issued 0
Core_0_STLB_prefetch_useful 0
Core_0_STLB_prefetch_useless 0
Core_0_STLB_prefetch_late 0
Core_0_STLB_prefetch_accuracy 0
Core_0_STLB_prefetch_coverage 0

Core_0_L1I_total_access 891071
Core_0_L1I_total_hit 888937
Core_0_L1I_total_miss 2134
Core_0_L1I_total_MPKI 0.04268
Core_0_L1I_total_miss_rate 0.00239487
Core_0_L1I_demand_access 891071
Core_0_L1I_demand_hit 888937
Core_0_L1I_demand_miss 2134
Core_0_L1I_demand_MPKI 0.04268
Core_0_L1I_demand_miss_rate 0.00239487
Core_0_L1I_load_access 891071
Core_0_L1I_load_hit 888937
Core_0_L1I_load_miss 2134
Core_0_L1I_load_MPKI 0.04268
Core_0_L1I_load_miss_rate 0.00239487
Core_0_L1I_rfo_access 0
Core_0_L1I_rfo_hit 0
Core_0_L1I_rfo_miss 0
Core_0_L1I_rfo_MPKI 0
Core_0_L1I_rfo_miss_rate 0
Core_0_L1I_prefetch_access 0
Core_0_L1I_prefetch_hit 0
Core_0_L1I_prefetch_miss 0
Core_0_L1I_prefetch_MPKI 0
Core_0_L1I_prefetch_miss_rate 0
Core_0_L1I_writeback_access 0
Core_0_L1I_writeback_hit 0
Core_0_L1I_writeback_miss 0
Core_0_L1I_writeback_MPKI 0
Core_0_L1I_writeback_miss_rate 0
Core_0_L1I_prefetch_requested 0
Core_0_L1I_prefetch_issued 0
Core_0_L1I_prefetch_useful 0
Core_0_L1I_prefetch_useless 0
Core_0_L1I_prefetch_late 0
Core_0_L1I_prefetch_accuracy 0
Core_0_L1I_prefetch_coverage 0

Core_0_L1D_total_access 13661981
Core_0_L1D_total_hit 13295259
Core_0_L1D_total_miss 366722
Core_0_L1D_total_MPKI 7.33444
Core_0_L1D_total_miss_rate 0.0268425
Core_0_L1D_demand_access 9500178
Core_0_L1D_demand_hit 9440473
Core_0_L1D_demand_miss 59705
Core_0_L1D_demand_MPKI 1.1941
Core_0_L1D_demand_miss_rate 0.00628462
Core_0_L1D_load_access 9500178
Core_0_L1D_load_hit 9440473
Core_0_L1D_load_miss 59705
Core_0_L1D_load_MPKI 1.1941
Core_0_L1D_load_miss_rate 0.00628462
Core_0_L1D_rfo_access 0
Core_0_L1D_rfo_hit 0
Core_0_L1D_rfo_miss 0
Core_0_L1D_rfo_MPKI 0
Core_0_L1D_rfo_miss_rate 0
Core_0_L1D_prefetch_access 102710
Core_0_L1D_prefetch_hit 39911
Core_0_L1D_prefetch_miss 62799
Core_0_L1D_prefetch_MPKI 1.25598
Core_0_L1D_prefetch_miss_rate 0.611421
Core_0_L1D_writeback_access 4059093
Core_0_L1D_writeback_hit 3814875
Core_0_L1D_writeback_miss 244218
Core_0_L1D_writeback_MPKI 4.88436
Core_0_L1D_writeback_miss_rate 0.0601657
Core_0_L1D_prefetch_requested 107894
Core_0_L1D_prefetch_issued 102710
Core_0_L1D_prefetch_useful 53785
Core_0_L1D_prefetch_useless 7394
Core_0_L1D_prefetch_late 1938
Core_0_L1D_prefetch_accuracy 0.523659
Core_0_L1D_prefetch_coverage 0.473918

Core_0_L2C_total_access 490410
Core_0_L2C_total_hit 377040
Core_0_L2C_total_miss 113370
Core_0_L2C_total_MPKI 2.2674
Core_0_L2C_total_miss_rate 0.231174
Core_0_L2C_demand_access 58944
Core_0_L2C_demand_hit 25363
Core_0_L2C_demand_miss 33581
Core_0_L2C_demand_MPKI 0.67162
Core_0_L2C_demand_miss_rate 0.56971
Core_0_L2C_load_access 29062
Core_0_L2C_load_hit 22440
Core_0_L2C_load_miss 6622
Core_0_L2C_load_MPKI 0.13244
Core_0_L2C_load_miss_rate 0.227858
Core_0_L2C_rfo_access 29882
Core_0_L2C_rfo_hit 2923
Core_0_L2C_rfo_miss 26959
Core_0_L2C_rfo_MPKI 0.53918
Core_0_L2C_rfo_miss_rate 0.902182
Core_0_L2C_prefetch_access 400568
Core_0_L2C_prefetch_hit 320827
Core_0_L2C_prefetch_miss 79741
Core_0_L2C_prefetch_MPKI 1.59482
Core_0_L2C_prefetch_miss_rate 0.19907
Core_0_L2C_writeback_access 30898
Core_0_L2C_writeback_hit 30850
Core_0_L2C_writeback_miss 48
Core_0_L2C_writeback_MPKI 0.00096
Core_0_L2C_writeback_miss_rate 0.0015535
Core_0_L2C_prefetch_requested 343750
Core_0_L2C_prefetch_issued 339413
Core_0_L2C_prefetch_useful 30640
Core_0_L2C_prefetch_useless 14745
Core_0_L2C_prefetch_late 581
Core_0_L2C_prefetch_accuracy 0.0902735
Core_0_L2C_prefetch_coverage 0.477103

Core_0_LLC_total_access 110684
Core_0_LLC_total_hit 68574
Core_0_LLC_total_miss 42110
Core_0_LLC_total_MPKI 0.8422
Core_0_LLC_total_miss_rate 0.380452
Core_0_LLC_demand_access 33000
Core_0_LLC_demand_hit 19629
Core_0_LLC_demand_miss 13371
Core_0_LLC_demand_MPKI 0.26742
Core_0_LLC_demand_miss_rate 0.405182
Core_0_LLC_load_access 6138
Core_0_LLC_load_hit 2952
Core_0_LLC_load_miss 3186
Core_0_LLC_load_MPKI 0.06372
Core_0_LLC_load_miss_rate 0.519062
Core_0_LLC_rfo_access 26862
Core_0_LLC_rfo_hit 16677
Core_0_LLC_rfo_miss 10185
Core_0_LLC_rfo_MPKI 0.2037
Core_0_LLC_rfo_miss_rate 0.37916
Core_0_LLC_prefetch_access 49450
Core_0_LLC_prefetch_hit 29656
Core_0_LLC_prefetch_miss 19794
Core_0_LLC_prefetch_MPKI 0.39588
Core_0_LLC_prefetch_miss_rate 0.400283
Core_0_LLC_writeback_access 28234
Core_0_LLC_writeback_hit 19289
Core_0_LLC_writeback_miss 8945
Core_0_LLC_writeback_MPKI 0.1789
Core_0_LLC_writeback_miss_rate 0.316817
Core_0_LLC_prefetch_requested 0
Core_0_LLC_prefetch_issued 0
Core_0_LLC_prefetch_useful 0
Core_0_LLC_prefetch_useless 0
Core_0_LLC_prefetch_late 0
Core_0_LLC_prefetch_accuracy 0
Core_0_LLC_prefetch_coverage 0

[DRAM Statistics]
Channel_0_RQ_row_buffer_hit 2416
Channel_0_RQ_row_buffer_miss 30981
Channel_0_WQ_row_buffer_hit 1589
Channel_0_WQ_row_buffer_miss 10403
Channel_0_WQ_full 0
Channel_0_dbus_congested 83665
DRAM_total_RQ_row_buffer_hit 2416
DRAM_total_RQ_row_buffer_miss 30981
DRAM_total_WQ_row_buffer_hit 1589
DRAM_total_WQ_row_buffer_miss 10403
DRAM_total_WQ_full 0
DRAM_total_dbus_congested 83665
DRAM_avg_congested_cycle 10.4529

======STLB miss causes ========
Core_0_STLB_miss_cause_breakdown
Core_0_STLB_cause_Demand_Data_miss 0
Core_0_STLB_cause_Demand_Data_miss_rate 0
Core_0_STLB_cause_Demand_Instruction_miss 0
Core_0_STLB_cause_Demand_Instruction_miss_rate 0
Core_0_STLB_cause_L1D_Prefetch_miss 437
Core_0_STLB_cause_L1D_Prefetch_miss_rate 0.033091
Core_0_STLB_cause_L1I_Prefetch_miss 0
Core_0_STLB_cause_L1I_Prefetch_miss_rate 0
Core_0_STLB_cause_Other_miss 0
Core_0_STLB_cause_Other_miss_rate 0
Core_0_STLB_Demand_miss 0
Core_0_STLB_Demand_miss_rate 0
Core_0_STLB_L1D_Prefetch_miss 437
Core_0_STLB_L1D_Prefetch_miss_rate 0.033091
Core_0_STLB_Other_miss 0
Core_0_STLB_Other_miss_rate 0
