[VMEM] WARNING: physical memory size is smaller than virtual memory size.

*** ChampSim Multicore Out-of-Order Simulator ***
Warmup Instructions: 20000000
Simulation Instructions: 50000000
Number of CPUs: 1
Page size: 4096
STLB ideal mode: demand
Core 0: /data0/tzh/champsim_traces/SPEC17/605.mcf_s-472B.champsimtrace.xz
 L1D Berti prefetcher
Off-chip DRAM Size: 4 GiB Channels: 1 Width: 64-bit Data Rate: 3205 MT/s
Warmup halting CPU 0 at instruction 20000002 cycle 7027327 for remainder of phase
Warmup finished CPU 0 instructions: 20000002 cycles: 7027327 cumulative IPC: 2.846 (Simulation time: 00 hr 01 min 33 sec)
Warmup complete CPU 0 instructions: 20000002 cycles: 7027327 cumulative IPC: 2.846 (Simulation time: 00 hr 01 min 33 sec)
Simulation finished CPU 0 instructions: 50000002 cycles: 70629740 cumulative IPC: 0.7079 (Simulation time: 00 hr 11 min 04 sec)
Simulation complete CPU 0 instructions: 50000002 cycles: 70629740 cumulative IPC: 0.7079 (Simulation time: 00 hr 11 min 04 sec)

ChampSim completed all CPUs

=== Simulation ===
CPU 0 runs /data0/tzh/champsim_traces/SPEC17/605.mcf_s-472B.champsimtrace.xz

Region of Interest Statistics

CPU 0 cumulative IPC: 0.7079 instructions: 50000002 cycles: 70629740
CPU 0 Branch Prediction Accuracy: 98.57% MPKI: 1.649 Average ROB Occupancy at Mispredict: 219.8
Branch type MPKI
BRANCH_DIRECT_JUMP: 0
BRANCH_INDIRECT: 0
BRANCH_CONDITIONAL: 1.649
BRANCH_DIRECT_CALL: 0
BRANCH_INDIRECT_CALL: 0
BRANCH_RETURN: 0

cpu0->cpu0_STLB TOTAL        ACCESS:     137712 HIT:     130743 MISS:       6969 MSHR_MERGE:          0
cpu0->cpu0_STLB LOAD         ACCESS:     137712 HIT:     130743 MISS:       6969 MSHR_MERGE:          0
cpu0->cpu0_STLB RFO          ACCESS:          0 HIT:          0 MISS:          0 MSHR_MERGE:          0
cpu0->cpu0_STLB PREFETCH     ACCESS:          0 HIT:          0 MISS:          0 MSHR_MERGE:          0
cpu0->cpu0_STLB WRITE        ACCESS:          0 HIT:          0 MISS:          0 MSHR_MERGE:          0
cpu0->cpu0_STLB TRANSLATION  ACCESS:          0 HIT:          0 MISS:          0 MSHR_MERGE:          0
cpu0->cpu0_STLB PREFETCH REQUESTED:          0 ISSUED:          0 USEFUL:          0 USELESS:          0 LATE:          0
cpu0->cpu0_STLB AVERAGE MISS LATENCY: 256.6 cycles
cpu0->cpu0_L2C TOTAL        ACCESS:   10333034 HIT:    4290716 MISS:    6042318 MSHR_MERGE:    2266708
cpu0->cpu0_L2C LOAD         ACCESS:     960022 HIT:     411054 MISS:     548968 MSHR_MERGE:     165321
cpu0->cpu0_L2C RFO          ACCESS:     122548 HIT:      12669 MISS:     109879 MSHR_MERGE:        995
cpu0->cpu0_L2C PREFETCH     ACCESS:    8963485 HIT:    3585655 MISS:    5377830 MSHR_MERGE:    2100392
cpu0->cpu0_L2C WRITE        ACCESS:     282090 HIT:     280394 MISS:       1696 MSHR_MERGE:          0
cpu0->cpu0_L2C TRANSLATION  ACCESS:       4889 HIT:        944 MISS:       3945 MSHR_MERGE:          0
cpu0->cpu0_L2C PREFETCH REQUESTED:   10122924 ISSUED:    7167826 USEFUL:    1358020 USELESS:    1309581 LATE:     166316
cpu0->cpu0_L2C AVERAGE MISS LATENCY: 232.4 cycles
cpu0->cpu0_L1I TOTAL        ACCESS:    7684513 HIT:    7684513 MISS:          0 MSHR_MERGE:          0
cpu0->cpu0_L1I LOAD         ACCESS:    7684513 HIT:    7684513 MISS:          0 MSHR_MERGE:          0
cpu0->cpu0_L1I RFO          ACCESS:          0 HIT:          0 MISS:          0 MSHR_MERGE:          0
cpu0->cpu0_L1I PREFETCH     ACCESS:          0 HIT:          0 MISS:          0 MSHR_MERGE:          0
cpu0->cpu0_L1I WRITE        ACCESS:          0 HIT:          0 MISS:          0 MSHR_MERGE:          0
cpu0->cpu0_L1I TRANSLATION  ACCESS:          0 HIT:          0 MISS:          0 MSHR_MERGE:          0
cpu0->cpu0_L1I PREFETCH REQUESTED:          0 ISSUED:          0 USEFUL:          0 USELESS:          0 LATE:          0
cpu0->cpu0_L1I AVERAGE MISS LATENCY: - cycles
cpu0->cpu0_L1D TOTAL        ACCESS:   27278932 HIT:   23370045 MISS:    3908887 MSHR_MERGE:    1025781
cpu0->cpu0_L1D LOAD         ACCESS:   13067337 HIT:   11605819 MISS:    1461518 MSHR_MERGE:     501495
cpu0->cpu0_L1D RFO          ACCESS:          0 HIT:          0 MISS:          0 MSHR_MERGE:          0
cpu0->cpu0_L1D PREFETCH     ACCESS:    2107110 HIT:     211524 MISS:    1895586 MSHR_MERGE:      99945
cpu0->cpu0_L1D WRITE        ACCESS:   12090524 HIT:   11543631 MISS:     546893 MSHR_MERGE:     424340
cpu0->cpu0_L1D TRANSLATION  ACCESS:      13961 HIT:       9071 MISS:       4890 MSHR_MERGE:          1
cpu0->cpu0_L1D PREFETCH REQUESTED:    2126801 ISSUED:    2107102 USEFUL:    1468785 USELESS:     326746 LATE:     377428
cpu0->cpu0_L1D AVERAGE MISS LATENCY: 162.9 cycles
cpu0->cpu0_ITLB TOTAL        ACCESS:    6357155 HIT:    6357155 MISS:          0 MSHR_MERGE:          0
cpu0->cpu0_ITLB LOAD         ACCESS:    6357155 HIT:    6357155 MISS:          0 MSHR_MERGE:          0
cpu0->cpu0_ITLB RFO          ACCESS:          0 HIT:          0 MISS:          0 MSHR_MERGE:          0
cpu0->cpu0_ITLB PREFETCH     ACCESS:          0 HIT:          0 MISS:          0 MSHR_MERGE:          0
cpu0->cpu0_ITLB WRITE        ACCESS:          0 HIT:          0 MISS:          0 MSHR_MERGE:          0
cpu0->cpu0_ITLB TRANSLATION  ACCESS:          0 HIT:          0 MISS:          0 MSHR_MERGE:          0
cpu0->cpu0_ITLB PREFETCH REQUESTED:          0 ISSUED:          0 USEFUL:          0 USELESS:          0 LATE:          0
cpu0->cpu0_ITLB AVERAGE MISS LATENCY: - cycles
cpu0->cpu0_DTLB TOTAL        ACCESS:   25041071 HIT:   24856570 MISS:     184501 MSHR_MERGE:      46789
cpu0->cpu0_DTLB LOAD         ACCESS:   25041071 HIT:   24856570 MISS:     184501 MSHR_MERGE:      46789
cpu0->cpu0_DTLB RFO          ACCESS:          0 HIT:          0 MISS:          0 MSHR_MERGE:          0
cpu0->cpu0_DTLB PREFETCH     ACCESS:          0 HIT:          0 MISS:          0 MSHR_MERGE:          0
cpu0->cpu0_DTLB WRITE        ACCESS:          0 HIT:          0 MISS:          0 MSHR_MERGE:          0
cpu0->cpu0_DTLB TRANSLATION  ACCESS:          0 HIT:          0 MISS:          0 MSHR_MERGE:          0
cpu0->cpu0_DTLB PREFETCH REQUESTED:          0 ISSUED:          0 USEFUL:          0 USELESS:          0 LATE:          0
cpu0->cpu0_DTLB AVERAGE MISS LATENCY: 18.04 cycles
cpu0->LLC TOTAL        ACCESS:    4019470 HIT:     733637 MISS:    3285833 MSHR_MERGE:          0
cpu0->LLC LOAD         ACCESS:     383647 HIT:      95874 MISS:     287773 MSHR_MERGE:          0
cpu0->LLC RFO          ACCESS:     108884 HIT:        147 MISS:     108737 MSHR_MERGE:          0
cpu0->LLC PREFETCH     ACCESS:    3277438 HIT:     595546 MISS:    2681892 MSHR_MERGE:          0
cpu0->LLC WRITE        ACCESS:     245556 HIT:      42006 MISS:     203550 MSHR_MERGE:          0
cpu0->LLC TRANSLATION  ACCESS:       3945 HIT:         64 MISS:       3881 MSHR_MERGE:          0
cpu0->LLC PREFETCH REQUESTED:          0 ISSUED:          0 USEFUL:          0 USELESS:          0 LATE:          0
cpu0->LLC AVERAGE MISS LATENCY: 195.2 cycles

DRAM Statistics

Channel 0 RQ ROW_BUFFER_HIT:     382872
  ROW_BUFFER_MISS:    2699377
  AVG DBUS CONGESTED CYCLE: 4.215
Channel 0 WQ ROW_BUFFER_HIT:      29515
  ROW_BUFFER_MISS:     212338
  FULL:          0
Channel 0 REFRESHES ISSUED:       5886

[ROI Statistics]
[System Configuration]
num_cpus 1
cpu_freq 4000
fetch_width 6
decode_width 6
dispatch_width 6
execute_width 6
lq_width 2
sq_width 2
retire_width 6
scheduler_size 160
branch_mispredict_penalty 1
rob_size 352
lq_size 240
sq_size 112
ifetch_buffer_size 64
decode_buffer_size 32
dispatch_buffer_size 32
register_file_size 288
decode_latency 1
dispatch_latency 1
schedule_latency 0
execute_latency 0
page_size 4096
block_size 64
core_0_itlb_set 16
core_0_itlb_way 4
core_0_itlb_rq_size 16
core_0_itlb_wq_size 16
core_0_itlb_pq_size 0
core_0_itlb_mshr_size 8
core_0_itlb_hit_latency 1
core_0_itlb_fill_latency 1
core_0_itlb_max_tag_check 2
core_0_itlb_max_fill 2
core_0_dtlb_set 16
core_0_dtlb_way 4
core_0_dtlb_rq_size 16
core_0_dtlb_wq_size 16
core_0_dtlb_pq_size 0
core_0_dtlb_mshr_size 8
core_0_dtlb_hit_latency 1
core_0_dtlb_fill_latency 1
core_0_dtlb_max_tag_check 2
core_0_dtlb_max_fill 2
core_0_stlb_set 128
core_0_stlb_way 12
core_0_stlb_rq_size 32
core_0_stlb_wq_size 32
core_0_stlb_pq_size 0
core_0_stlb_mshr_size 16
core_0_stlb_hit_latency 4
core_0_stlb_fill_latency 4
core_0_stlb_max_tag_check 1
core_0_stlb_max_fill 1
core_0_l1i_set 64
core_0_l1i_way 8
core_0_l1i_rq_size 64
core_0_l1i_wq_size 64
core_0_l1i_pq_size 32
core_0_l1i_mshr_size 8
core_0_l1i_hit_latency 2
core_0_l1i_fill_latency 2
core_0_l1i_max_tag_check 2
core_0_l1i_max_fill 2
core_0_l1d_set 64
core_0_l1d_way 12
core_0_l1d_rq_size 64
core_0_l1d_wq_size 64
core_0_l1d_pq_size 8
core_0_l1d_mshr_size 16
core_0_l1d_hit_latency 2
core_0_l1d_fill_latency 3
core_0_l1d_max_tag_check 2
core_0_l1d_max_fill 2
core_0_l2c_set 1024
core_0_l2c_way 8
core_0_l2c_rq_size 32
core_0_l2c_wq_size 32
core_0_l2c_pq_size 16
core_0_l2c_mshr_size 32
core_0_l2c_hit_latency 5
core_0_l2c_fill_latency 5
core_0_l2c_max_tag_check 1
core_0_l2c_max_fill 1
llc_set 2048
llc_way 16
llc_rq_size 32
llc_wq_size 32
llc_pq_size 32
llc_mshr_size 64
llc_hit_latency 10
llc_fill_latency 10
llc_max_tag_check 1
llc_max_fill 1
dram_channels 1
dram_ranks 1
dram_bankgroups 8
dram_banks 4
dram_rows 16384
dram_columns 1024
dram_channel_width 8
dram_rq_size 64
dram_wq_size 64
dram_size 4294967296
core_0_itlb_prefetcher no
core_0_dtlb_prefetcher no
core_0_stlb_prefetcher no
core_0_l1i_prefetcher next_line
core_0_l1d_prefetcher berti
core_0_l2c_prefetcher pythia
llc_prefetcher no
llc_replacement drrip

Core_0_instructions 50000002
Core_0_cycles 70629740
Core_0_IPC 0.707917
Core_0_branch_prediction_accuracy 98.5658
Core_0_branch_MPKI 1.649
Core_0_average_ROB_occupancy_at_mispredict 219.782

Core_0_ITLB_total_access 6357155
Core_0_ITLB_total_hit 6357155
Core_0_ITLB_total_miss 0
Core_0_ITLB_total_MPKI 0
Core_0_ITLB_total_miss_rate 0
Core_0_ITLB_demand_access 6357155
Core_0_ITLB_demand_hit 6357155
Core_0_ITLB_demand_miss 0
Core_0_ITLB_demand_MPKI 0
Core_0_ITLB_demand_miss_rate 0
Core_0_ITLB_load_access 6357155
Core_0_ITLB_load_hit 6357155
Core_0_ITLB_load_miss 0
Core_0_ITLB_load_MPKI 0
Core_0_ITLB_load_miss_rate 0
Core_0_ITLB_rfo_access 0
Core_0_ITLB_rfo_hit 0
Core_0_ITLB_rfo_miss 0
Core_0_ITLB_rfo_MPKI 0
Core_0_ITLB_rfo_miss_rate 0
Core_0_ITLB_prefetch_access 0
Core_0_ITLB_prefetch_hit 0
Core_0_ITLB_prefetch_miss 0
Core_0_ITLB_prefetch_MPKI 0
Core_0_ITLB_prefetch_miss_rate 0
Core_0_ITLB_writeback_access 0
Core_0_ITLB_writeback_hit 0
Core_0_ITLB_writeback_miss 0
Core_0_ITLB_writeback_MPKI 0
Core_0_ITLB_writeback_miss_rate 0
Core_0_ITLB_prefetch_requested 0
Core_0_ITLB_prefetch_issued 0
Core_0_ITLB_prefetch_useful 0
Core_0_ITLB_prefetch_useless 0
Core_0_ITLB_prefetch_late 0
Core_0_ITLB_prefetch_accuracy 0
Core_0_ITLB_prefetch_coverage 0

Core_0_DTLB_total_access 25041071
Core_0_DTLB_total_hit 24856570
Core_0_DTLB_total_miss 184501
Core_0_DTLB_total_MPKI 3.69002
Core_0_DTLB_total_miss_rate 0.00736794
Core_0_DTLB_demand_access 25041071
Core_0_DTLB_demand_hit 24856570
Core_0_DTLB_demand_miss 184501
Core_0_DTLB_demand_MPKI 3.69002
Core_0_DTLB_demand_miss_rate 0.00736794
Core_0_DTLB_load_access 25041071
Core_0_DTLB_load_hit 24856570
Core_0_DTLB_load_miss 184501
Core_0_DTLB_load_MPKI 3.69002
Core_0_DTLB_load_miss_rate 0.00736794
Core_0_DTLB_rfo_access 0
Core_0_DTLB_rfo_hit 0
Core_0_DTLB_rfo_miss 0
Core_0_DTLB_rfo_MPKI 0
Core_0_DTLB_rfo_miss_rate 0
Core_0_DTLB_prefetch_access 0
Core_0_DTLB_prefetch_hit 0
Core_0_DTLB_prefetch_miss 0
Core_0_DTLB_prefetch_MPKI 0
Core_0_DTLB_prefetch_miss_rate 0
Core_0_DTLB_writeback_access 0
Core_0_DTLB_writeback_hit 0
Core_0_DTLB_writeback_miss 0
Core_0_DTLB_writeback_MPKI 0
Core_0_DTLB_writeback_miss_rate 0
Core_0_DTLB_prefetch_requested 0
Core_0_DTLB_prefetch_issued 0
Core_0_DTLB_prefetch_useful 0
Core_0_DTLB_prefetch_useless 0
Core_0_DTLB_prefetch_late 0
Core_0_DTLB_prefetch_accuracy 0
Core_0_DTLB_prefetch_coverage 0

Core_0_STLB_total_access 137712
Core_0_STLB_total_hit 130743
Core_0_STLB_total_miss 6969
Core_0_STLB_total_MPKI 0.13938
Core_0_STLB_total_miss_rate 0.0506056
Core_0_STLB_demand_access 137712
Core_0_STLB_demand_hit 130743
Core_0_STLB_demand_miss 6969
Core_0_STLB_demand_MPKI 0.13938
Core_0_STLB_demand_miss_rate 0.0506056
Core_0_STLB_load_access 137712
Core_0_STLB_load_hit 130743
Core_0_STLB_load_miss 6969
Core_0_STLB_load_MPKI 0.13938
Core_0_STLB_load_miss_rate 0.0506056
Core_0_STLB_rfo_access 0
Core_0_STLB_rfo_hit 0
Core_0_STLB_rfo_miss 0
Core_0_STLB_rfo_MPKI 0
Core_0_STLB_rfo_miss_rate 0
Core_0_STLB_prefetch_access 0
Core_0_STLB_prefetch_hit 0
Core_0_STLB_prefetch_miss 0
Core_0_STLB_prefetch_MPKI 0
Core_0_STLB_prefetch_miss_rate 0
Core_0_STLB_writeback_access 0
Core_0_STLB_writeback_hit 0
Core_0_STLB_writeback_miss 0
Core_0_STLB_writeback_MPKI 0
Core_0_STLB_writeback_miss_rate 0
Core_0_STLB_prefetch_requested 0
Core_0_STLB_prefetch_issued 0
Core_0_STLB_prefetch_useful 0
Core_0_STLB_prefetch_useless 0
Core_0_STLB_prefetch_late 0
Core_0_STLB_prefetch_accuracy 0
Core_0_STLB_prefetch_coverage 0

Core_0_L1I_total_access 7684513
Core_0_L1I_total_hit 7684513
Core_0_L1I_total_miss 0
Core_0_L1I_total_MPKI 0
Core_0_L1I_total_miss_rate 0
Core_0_L1I_demand_access 7684513
Core_0_L1I_demand_hit 7684513
Core_0_L1I_demand_miss 0
Core_0_L1I_demand_MPKI 0
Core_0_L1I_demand_miss_rate 0
Core_0_L1I_load_access 7684513
Core_0_L1I_load_hit 7684513
Core_0_L1I_load_miss 0
Core_0_L1I_load_MPKI 0
Core_0_L1I_load_miss_rate 0
Core_0_L1I_rfo_access 0
Core_0_L1I_rfo_hit 0
Core_0_L1I_rfo_miss 0
Core_0_L1I_rfo_MPKI 0
Core_0_L1I_rfo_miss_rate 0
Core_0_L1I_prefetch_access 0
Core_0_L1I_prefetch_hit 0
Core_0_L1I_prefetch_miss 0
Core_0_L1I_prefetch_MPKI 0
Core_0_L1I_prefetch_miss_rate 0
Core_0_L1I_writeback_access 0
Core_0_L1I_writeback_hit 0
Core_0_L1I_writeback_miss 0
Core_0_L1I_writeback_MPKI 0
Core_0_L1I_writeback_miss_rate 0
Core_0_L1I_prefetch_requested 0
Core_0_L1I_prefetch_issued 0
Core_0_L1I_prefetch_useful 0
Core_0_L1I_prefetch_useless 0
Core_0_L1I_prefetch_late 0
Core_0_L1I_prefetch_accuracy 0
Core_0_L1I_prefetch_coverage 0

Core_0_L1D_total_access 27264971
Core_0_L1D_total_hit 23360974
Core_0_L1D_total_miss 3903997
Core_0_L1D_total_MPKI 78.0799
Core_0_L1D_total_miss_rate 0.143187
Core_0_L1D_demand_access 13067337
Core_0_L1D_demand_hit 11605819
Core_0_L1D_demand_miss 1461518
Core_0_L1D_demand_MPKI 29.2304
Core_0_L1D_demand_miss_rate 0.111845
Core_0_L1D_load_access 13067337
Core_0_L1D_load_hit 11605819
Core_0_L1D_load_miss 1461518
Core_0_L1D_load_MPKI 29.2304
Core_0_L1D_load_miss_rate 0.111845
Core_0_L1D_rfo_access 0
Core_0_L1D_rfo_hit 0
Core_0_L1D_rfo_miss 0
Core_0_L1D_rfo_MPKI 0
Core_0_L1D_rfo_miss_rate 0
Core_0_L1D_prefetch_access 2107110
Core_0_L1D_prefetch_hit 211524
Core_0_L1D_prefetch_miss 1895586
Core_0_L1D_prefetch_MPKI 37.9117
Core_0_L1D_prefetch_miss_rate 0.899614
Core_0_L1D_writeback_access 12090524
Core_0_L1D_writeback_hit 11543631
Core_0_L1D_writeback_miss 546893
Core_0_L1D_writeback_MPKI 10.9379
Core_0_L1D_writeback_miss_rate 0.0452332
Core_0_L1D_prefetch_requested 2126801
Core_0_L1D_prefetch_issued 2107102
Core_0_L1D_prefetch_useful 1468785
Core_0_L1D_prefetch_useless 326746
Core_0_L1D_prefetch_late 377428
Core_0_L1D_prefetch_accuracy 0.697064
Core_0_L1D_prefetch_coverage 0.50124

Core_0_L2C_total_access 10328145
Core_0_L2C_total_hit 4289772
Core_0_L2C_total_miss 6038373
Core_0_L2C_total_MPKI 120.767
Core_0_L2C_total_miss_rate 0.584652
Core_0_L2C_demand_access 1082570
Core_0_L2C_demand_hit 423723
Core_0_L2C_demand_miss 658847
Core_0_L2C_demand_MPKI 13.1769
Core_0_L2C_demand_miss_rate 0.608595
Core_0_L2C_load_access 960022
Core_0_L2C_load_hit 411054
Core_0_L2C_load_miss 548968
Core_0_L2C_load_MPKI 10.9794
Core_0_L2C_load_miss_rate 0.571829
Core_0_L2C_rfo_access 122548
Core_0_L2C_rfo_hit 12669
Core_0_L2C_rfo_miss 109879
Core_0_L2C_rfo_MPKI 2.19758
Core_0_L2C_rfo_miss_rate 0.89662
Core_0_L2C_prefetch_access 8963485
Core_0_L2C_prefetch_hit 3585655
Core_0_L2C_prefetch_miss 5377830
Core_0_L2C_prefetch_MPKI 107.557
Core_0_L2C_prefetch_miss_rate 0.599971
Core_0_L2C_writeback_access 282090
Core_0_L2C_writeback_hit 280394
Core_0_L2C_writeback_miss 1696
Core_0_L2C_writeback_MPKI 0.03392
Core_0_L2C_writeback_miss_rate 0.00601227
Core_0_L2C_prefetch_requested 10122924
Core_0_L2C_prefetch_issued 7167826
Core_0_L2C_prefetch_useful 1358020
Core_0_L2C_prefetch_useless 1309581
Core_0_L2C_prefetch_late 166316
Core_0_L2C_prefetch_accuracy 0.189461
Core_0_L2C_prefetch_coverage 0.673331

Core_0_LLC_total_access 4015525
Core_0_LLC_total_hit 733573
Core_0_LLC_total_miss 3281952
Core_0_LLC_total_MPKI 65.639
Core_0_LLC_total_miss_rate 0.817316
Core_0_LLC_demand_access 492531
Core_0_LLC_demand_hit 96021
Core_0_LLC_demand_miss 396510
Core_0_LLC_demand_MPKI 7.9302
Core_0_LLC_demand_miss_rate 0.805046
Core_0_LLC_load_access 383647
Core_0_LLC_load_hit 95874
Core_0_LLC_load_miss 287773
Core_0_LLC_load_MPKI 5.75546
Core_0_LLC_load_miss_rate 0.750098
Core_0_LLC_rfo_access 108884
Core_0_LLC_rfo_hit 147
Core_0_LLC_rfo_miss 108737
Core_0_LLC_rfo_MPKI 2.17474
Core_0_LLC_rfo_miss_rate 0.99865
Core_0_LLC_prefetch_access 3277438
Core_0_LLC_prefetch_hit 595546
Core_0_LLC_prefetch_miss 2681892
Core_0_LLC_prefetch_MPKI 53.6378
Core_0_LLC_prefetch_miss_rate 0.818289
Core_0_LLC_writeback_access 245556
Core_0_LLC_writeback_hit 42006
Core_0_LLC_writeback_miss 203550
Core_0_LLC_writeback_MPKI 4.071
Core_0_LLC_writeback_miss_rate 0.828935
Core_0_LLC_prefetch_requested 0
Core_0_LLC_prefetch_issued 0
Core_0_LLC_prefetch_useful 0
Core_0_LLC_prefetch_useless 0
Core_0_LLC_prefetch_late 0
Core_0_LLC_prefetch_accuracy 0
Core_0_LLC_prefetch_coverage 0

[DRAM Statistics]
Channel_0_RQ_row_buffer_hit 382872
Channel_0_RQ_row_buffer_miss 2699377
Channel_0_WQ_row_buffer_hit 29515
Channel_0_WQ_row_buffer_miss 212338
Channel_0_WQ_full 0
Channel_0_dbus_congested 9080754
DRAM_total_RQ_row_buffer_hit 382872
DRAM_total_RQ_row_buffer_miss 2699377
DRAM_total_WQ_row_buffer_hit 29515
DRAM_total_WQ_row_buffer_miss 212338
DRAM_total_WQ_full 0
DRAM_total_dbus_congested 9080754
DRAM_avg_congested_cycle 4.21466

======STLB miss causes ========
Core_0_STLB_miss_cause_breakdown
Core_0_STLB_cause_Demand_Data_miss 0
Core_0_STLB_cause_Demand_Data_miss_rate 0
Core_0_STLB_cause_Demand_Instruction_miss 0
Core_0_STLB_cause_Demand_Instruction_miss_rate 0
Core_0_STLB_cause_L1D_Prefetch_miss 6969
Core_0_STLB_cause_L1D_Prefetch_miss_rate 0.0506056
Core_0_STLB_cause_L1I_Prefetch_miss 0
Core_0_STLB_cause_L1I_Prefetch_miss_rate 0
Core_0_STLB_cause_Other_miss 0
Core_0_STLB_cause_Other_miss_rate 0
Core_0_STLB_Demand_miss 0
Core_0_STLB_Demand_miss_rate 0
Core_0_STLB_L1D_Prefetch_miss 6969
Core_0_STLB_L1D_Prefetch_miss_rate 0.0506056
Core_0_STLB_Other_miss 0
Core_0_STLB_Other_miss_rate 0
