[VMEM] WARNING: physical memory size is smaller than virtual memory size.

*** ChampSim Multicore Out-of-Order Simulator ***
Warmup Instructions: 20000000
Simulation Instructions: 50000000
Number of CPUs: 1
Page size: 4096
STLB ideal mode: demand
Core 0: /data0/tzh/champsim_traces/SPEC17/619.lbm_s-3766B.champsimtrace.xz
 L1D Berti prefetcher
Off-chip DRAM Size: 4 GiB Channels: 1 Width: 64-bit Data Rate: 3205 MT/s
Warmup halting CPU 0 at instruction 20000005 cycle 4011196 for remainder of phase
Warmup finished CPU 0 instructions: 20000005 cycles: 4011196 cumulative IPC: 4.986 (Simulation time: 00 hr 00 min 53 sec)
Warmup complete CPU 0 instructions: 20000005 cycles: 4011196 cumulative IPC: 4.986 (Simulation time: 00 hr 00 min 53 sec)
Simulation finished CPU 0 instructions: 50000002 cycles: 41285976 cumulative IPC: 1.211 (Simulation time: 00 hr 08 min 30 sec)
Simulation complete CPU 0 instructions: 50000002 cycles: 41285976 cumulative IPC: 1.211 (Simulation time: 00 hr 08 min 30 sec)

ChampSim completed all CPUs

=== Simulation ===
CPU 0 runs /data0/tzh/champsim_traces/SPEC17/619.lbm_s-3766B.champsimtrace.xz

Region of Interest Statistics

CPU 0 cumulative IPC: 1.211 instructions: 50000002 cycles: 41285976
CPU 0 Branch Prediction Accuracy: 99.76% MPKI: 0.02548 Average ROB Occupancy at Mispredict: 194.3
Branch type MPKI
BRANCH_DIRECT_JUMP: 0
BRANCH_INDIRECT: 0
BRANCH_CONDITIONAL: 0.02548
BRANCH_DIRECT_CALL: 0
BRANCH_INDIRECT_CALL: 0
BRANCH_RETURN: 0

cpu0->cpu0_STLB TOTAL        ACCESS:      31120 HIT:      31117 MISS:          3 MSHR_MERGE:          0
cpu0->cpu0_STLB LOAD         ACCESS:      31120 HIT:      31117 MISS:          3 MSHR_MERGE:          0
cpu0->cpu0_STLB RFO          ACCESS:          0 HIT:          0 MISS:          0 MSHR_MERGE:          0
cpu0->cpu0_STLB PREFETCH     ACCESS:          0 HIT:          0 MISS:          0 MSHR_MERGE:          0
cpu0->cpu0_STLB WRITE        ACCESS:          0 HIT:          0 MISS:          0 MSHR_MERGE:          0
cpu0->cpu0_STLB TRANSLATION  ACCESS:          0 HIT:          0 MISS:          0 MSHR_MERGE:          0
cpu0->cpu0_STLB PREFETCH REQUESTED:          0 ISSUED:          0 USEFUL:          0 USELESS:          0 LATE:          0
cpu0->cpu0_STLB AVERAGE MISS LATENCY: 2038 cycles
cpu0->cpu0_L2C TOTAL        ACCESS:    4648788 HIT:    2803729 MISS:    1845059 MSHR_MERGE:     741577
cpu0->cpu0_L2C LOAD         ACCESS:      26345 HIT:      12886 MISS:      13459 MSHR_MERGE:       3448
cpu0->cpu0_L2C RFO          ACCESS:    1525010 HIT:     691518 MISS:     833492 MSHR_MERGE:          0
cpu0->cpu0_L2C PREFETCH     ACCESS:    1571929 HIT:     573829 MISS:     998100 MSHR_MERGE:     738129
cpu0->cpu0_L2C WRITE        ACCESS:    1525500 HIT:    1525496 MISS:          4 MSHR_MERGE:          0
cpu0->cpu0_L2C TRANSLATION  ACCESS:          4 HIT:          0 MISS:          4 MSHR_MERGE:          0
cpu0->cpu0_L2C PREFETCH REQUESTED:    1333958 ISSUED:    1328239 USEFUL:     188003 USELESS:      59944 LATE:       3448
cpu0->cpu0_L2C AVERAGE MISS LATENCY: 646.8 cycles
cpu0->cpu0_L1I TOTAL        ACCESS:    8600784 HIT:    8600784 MISS:          0 MSHR_MERGE:          0
cpu0->cpu0_L1I LOAD         ACCESS:    8600784 HIT:    8600784 MISS:          0 MSHR_MERGE:          0
cpu0->cpu0_L1I RFO          ACCESS:          0 HIT:          0 MISS:          0 MSHR_MERGE:          0
cpu0->cpu0_L1I PREFETCH     ACCESS:          0 HIT:          0 MISS:          0 MSHR_MERGE:          0
cpu0->cpu0_L1I WRITE        ACCESS:          0 HIT:          0 MISS:          0 MSHR_MERGE:          0
cpu0->cpu0_L1I TRANSLATION  ACCESS:          0 HIT:          0 MISS:          0 MSHR_MERGE:          0
cpu0->cpu0_L1I PREFETCH REQUESTED:          0 ISSUED:          0 USEFUL:          0 USELESS:          0 LATE:          0
cpu0->cpu0_L1I AVERAGE MISS LATENCY: - cycles
cpu0->cpu0_L1D TOTAL        ACCESS:    9683612 HIT:    7766844 MISS:    1916768 MSHR_MERGE:     121231
cpu0->cpu0_L1D LOAD         ACCESS:    2072574 HIT:    2017938 MISS:      54636 MSHR_MERGE:      28291
cpu0->cpu0_L1D RFO          ACCESS:          0 HIT:          0 MISS:          0 MSHR_MERGE:          0
cpu0->cpu0_L1D PREFETCH     ACCESS:     253274 HIT:       6179 MISS:     247095 MSHR_MERGE:       3416
cpu0->cpu0_L1D WRITE        ACCESS:    7357757 HIT:    5742725 MISS:    1615032 MSHR_MERGE:      89523
cpu0->cpu0_L1D TRANSLATION  ACCESS:          7 HIT:          2 MISS:          5 MSHR_MERGE:          1
cpu0->cpu0_L1D PREFETCH REQUESTED:     256004 ISSUED:     253274 USEFUL:     243622 USELESS:         55 LATE:      16034
cpu0->cpu0_L1D AVERAGE MISS LATENCY: 363 cycles
cpu0->cpu0_ITLB TOTAL        ACCESS:    6135425 HIT:    6135425 MISS:          0 MSHR_MERGE:          0
cpu0->cpu0_ITLB LOAD         ACCESS:    6135425 HIT:    6135425 MISS:          0 MSHR_MERGE:          0
cpu0->cpu0_ITLB RFO          ACCESS:          0 HIT:          0 MISS:          0 MSHR_MERGE:          0
cpu0->cpu0_ITLB PREFETCH     ACCESS:          0 HIT:          0 MISS:          0 MSHR_MERGE:          0
cpu0->cpu0_ITLB WRITE        ACCESS:          0 HIT:          0 MISS:          0 MSHR_MERGE:          0
cpu0->cpu0_ITLB TRANSLATION  ACCESS:          0 HIT:          0 MISS:          0 MSHR_MERGE:          0
cpu0->cpu0_ITLB PREFETCH REQUESTED:          0 ISSUED:          0 USEFUL:          0 USELESS:          0 LATE:          0
cpu0->cpu0_ITLB AVERAGE MISS LATENCY: - cycles
cpu0->cpu0_DTLB TOTAL        ACCESS:    8941969 HIT:    8910802 MISS:      31167 MSHR_MERGE:         47
cpu0->cpu0_DTLB LOAD         ACCESS:    8941969 HIT:    8910802 MISS:      31167 MSHR_MERGE:         47
cpu0->cpu0_DTLB RFO          ACCESS:          0 HIT:          0 MISS:          0 MSHR_MERGE:          0
cpu0->cpu0_DTLB PREFETCH     ACCESS:          0 HIT:          0 MISS:          0 MSHR_MERGE:          0
cpu0->cpu0_DTLB WRITE        ACCESS:          0 HIT:          0 MISS:          0 MSHR_MERGE:          0
cpu0->cpu0_DTLB TRANSLATION  ACCESS:          0 HIT:          0 MISS:          0 MSHR_MERGE:          0
cpu0->cpu0_DTLB PREFETCH REQUESTED:          0 ISSUED:          0 USEFUL:          0 USELESS:          0 LATE:          0
cpu0->cpu0_DTLB AVERAGE MISS LATENCY: 5.215 cycles
cpu0->LLC TOTAL        ACCESS:    1937103 HIT:     729758 MISS:    1207345 MSHR_MERGE:          0
cpu0->LLC LOAD         ACCESS:      10011 HIT:          0 MISS:      10011 MSHR_MERGE:          0
cpu0->LLC RFO          ACCESS:     833490 HIT:      23608 MISS:     809882 MSHR_MERGE:          0
cpu0->LLC PREFETCH     ACCESS:     259971 HIT:          0 MISS:     259971 MSHR_MERGE:          0
cpu0->LLC WRITE        ACCESS:     833627 HIT:     706150 MISS:     127477 MSHR_MERGE:          0
cpu0->LLC TRANSLATION  ACCESS:          4 HIT:          0 MISS:          4 MSHR_MERGE:          0
cpu0->LLC PREFETCH REQUESTED:          0 ISSUED:          0 USEFUL:          0 USELESS:          0 LATE:          0
cpu0->LLC AVERAGE MISS LATENCY: 563.5 cycles

DRAM Statistics

Channel 0 RQ ROW_BUFFER_HIT:      95173
  ROW_BUFFER_MISS:     984678
  AVG DBUS CONGESTED CYCLE: 7.852
Channel 0 WQ ROW_BUFFER_HIT:     100090
  ROW_BUFFER_MISS:     710820
  FULL:          0
Channel 0 REFRESHES ISSUED:       3440

[ROI Statistics]
[System Configuration]
num_cpus 1
cpu_freq 4000
fetch_width 6
decode_width 6
dispatch_width 6
execute_width 6
lq_width 2
sq_width 2
retire_width 6
scheduler_size 160
branch_mispredict_penalty 1
rob_size 352
lq_size 240
sq_size 112
ifetch_buffer_size 64
decode_buffer_size 32
dispatch_buffer_size 32
register_file_size 288
decode_latency 1
dispatch_latency 1
schedule_latency 0
execute_latency 0
page_size 4096
block_size 64
core_0_itlb_set 16
core_0_itlb_way 4
core_0_itlb_rq_size 16
core_0_itlb_wq_size 16
core_0_itlb_pq_size 0
core_0_itlb_mshr_size 8
core_0_itlb_hit_latency 1
core_0_itlb_fill_latency 1
core_0_itlb_max_tag_check 2
core_0_itlb_max_fill 2
core_0_dtlb_set 16
core_0_dtlb_way 4
core_0_dtlb_rq_size 16
core_0_dtlb_wq_size 16
core_0_dtlb_pq_size 0
core_0_dtlb_mshr_size 8
core_0_dtlb_hit_latency 1
core_0_dtlb_fill_latency 1
core_0_dtlb_max_tag_check 2
core_0_dtlb_max_fill 2
core_0_stlb_set 128
core_0_stlb_way 12
core_0_stlb_rq_size 32
core_0_stlb_wq_size 32
core_0_stlb_pq_size 0
core_0_stlb_mshr_size 16
core_0_stlb_hit_latency 4
core_0_stlb_fill_latency 4
core_0_stlb_max_tag_check 1
core_0_stlb_max_fill 1
core_0_l1i_set 64
core_0_l1i_way 8
core_0_l1i_rq_size 64
core_0_l1i_wq_size 64
core_0_l1i_pq_size 32
core_0_l1i_mshr_size 8
core_0_l1i_hit_latency 2
core_0_l1i_fill_latency 2
core_0_l1i_max_tag_check 2
core_0_l1i_max_fill 2
core_0_l1d_set 64
core_0_l1d_way 12
core_0_l1d_rq_size 64
core_0_l1d_wq_size 64
core_0_l1d_pq_size 8
core_0_l1d_mshr_size 16
core_0_l1d_hit_latency 2
core_0_l1d_fill_latency 3
core_0_l1d_max_tag_check 2
core_0_l1d_max_fill 2
core_0_l2c_set 1024
core_0_l2c_way 8
core_0_l2c_rq_size 32
core_0_l2c_wq_size 32
core_0_l2c_pq_size 16
core_0_l2c_mshr_size 32
core_0_l2c_hit_latency 5
core_0_l2c_fill_latency 5
core_0_l2c_max_tag_check 1
core_0_l2c_max_fill 1
llc_set 2048
llc_way 16
llc_rq_size 32
llc_wq_size 32
llc_pq_size 32
llc_mshr_size 64
llc_hit_latency 10
llc_fill_latency 10
llc_max_tag_check 1
llc_max_fill 1
dram_channels 1
dram_ranks 1
dram_bankgroups 8
dram_banks 4
dram_rows 16384
dram_columns 1024
dram_channel_width 8
dram_rq_size 64
dram_wq_size 64
dram_size 4294967296
core_0_itlb_prefetcher no
core_0_dtlb_prefetcher no
core_0_stlb_prefetcher no
core_0_l1i_prefetcher next_line
core_0_l1d_prefetcher berti
core_0_l2c_prefetcher pythia
llc_prefetcher no
llc_replacement drrip

Core_0_instructions 50000002
Core_0_cycles 41285976
Core_0_IPC 1.21107
Core_0_branch_prediction_accuracy 99.762
Core_0_branch_MPKI 0.02548
Core_0_average_ROB_occupancy_at_mispredict 194.283

Core_0_ITLB_total_access 6135425
Core_0_ITLB_total_hit 6135425
Core_0_ITLB_total_miss 0
Core_0_ITLB_total_MPKI 0
Core_0_ITLB_total_miss_rate 0
Core_0_ITLB_demand_access 6135425
Core_0_ITLB_demand_hit 6135425
Core_0_ITLB_demand_miss 0
Core_0_ITLB_demand_MPKI 0
Core_0_ITLB_demand_miss_rate 0
Core_0_ITLB_load_access 6135425
Core_0_ITLB_load_hit 6135425
Core_0_ITLB_load_miss 0
Core_0_ITLB_load_MPKI 0
Core_0_ITLB_load_miss_rate 0
Core_0_ITLB_rfo_access 0
Core_0_ITLB_rfo_hit 0
Core_0_ITLB_rfo_miss 0
Core_0_ITLB_rfo_MPKI 0
Core_0_ITLB_rfo_miss_rate 0
Core_0_ITLB_prefetch_access 0
Core_0_ITLB_prefetch_hit 0
Core_0_ITLB_prefetch_miss 0
Core_0_ITLB_prefetch_MPKI 0
Core_0_ITLB_prefetch_miss_rate 0
Core_0_ITLB_writeback_access 0
Core_0_ITLB_writeback_hit 0
Core_0_ITLB_writeback_miss 0
Core_0_ITLB_writeback_MPKI 0
Core_0_ITLB_writeback_miss_rate 0
Core_0_ITLB_prefetch_requested 0
Core_0_ITLB_prefetch_issued 0
Core_0_ITLB_prefetch_useful 0
Core_0_ITLB_prefetch_useless 0
Core_0_ITLB_prefetch_late 0
Core_0_ITLB_prefetch_accuracy 0
Core_0_ITLB_prefetch_coverage 0

Core_0_DTLB_total_access 8941969
Core_0_DTLB_total_hit 8910802
Core_0_DTLB_total_miss 31167
Core_0_DTLB_total_MPKI 0.62334
Core_0_DTLB_total_miss_rate 0.00348547
Core_0_DTLB_demand_access 8941969
Core_0_DTLB_demand_hit 8910802
Core_0_DTLB_demand_miss 31167
Core_0_DTLB_demand_MPKI 0.62334
Core_0_DTLB_demand_miss_rate 0.00348547
Core_0_DTLB_load_access 8941969
Core_0_DTLB_load_hit 8910802
Core_0_DTLB_load_miss 31167
Core_0_DTLB_load_MPKI 0.62334
Core_0_DTLB_load_miss_rate 0.00348547
Core_0_DTLB_rfo_access 0
Core_0_DTLB_rfo_hit 0
Core_0_DTLB_rfo_miss 0
Core_0_DTLB_rfo_MPKI 0
Core_0_DTLB_rfo_miss_rate 0
Core_0_DTLB_prefetch_access 0
Core_0_DTLB_prefetch_hit 0
Core_0_DTLB_prefetch_miss 0
Core_0_DTLB_prefetch_MPKI 0
Core_0_DTLB_prefetch_miss_rate 0
Core_0_DTLB_writeback_access 0
Core_0_DTLB_writeback_hit 0
Core_0_DTLB_writeback_miss 0
Core_0_DTLB_writeback_MPKI 0
Core_0_DTLB_writeback_miss_rate 0
Core_0_DTLB_prefetch_requested 0
Core_0_DTLB_prefetch_issued 0
Core_0_DTLB_prefetch_useful 0
Core_0_DTLB_prefetch_useless 0
Core_0_DTLB_prefetch_late 0
Core_0_DTLB_prefetch_accuracy 0
Core_0_DTLB_prefetch_coverage 0

Core_0_STLB_total_access 31120
Core_0_STLB_total_hit 31117
Core_0_STLB_total_miss 3
Core_0_STLB_total_MPKI 6e-05
Core_0_STLB_total_miss_rate 9.6401e-05
Core_0_STLB_demand_access 31120
Core_0_STLB_demand_hit 31117
Core_0_STLB_demand_miss 3
Core_0_STLB_demand_MPKI 6e-05
Core_0_STLB_demand_miss_rate 9.6401e-05
Core_0_STLB_load_access 31120
Core_0_STLB_load_hit 31117
Core_0_STLB_load_miss 3
Core_0_STLB_load_MPKI 6e-05
Core_0_STLB_load_miss_rate 9.6401e-05
Core_0_STLB_rfo_access 0
Core_0_STLB_rfo_hit 0
Core_0_STLB_rfo_miss 0
Core_0_STLB_rfo_MPKI 0
Core_0_STLB_rfo_miss_rate 0
Core_0_STLB_prefetch_access 0
Core_0_STLB_prefetch_hit 0
Core_0_STLB_prefetch_miss 0
Core_0_STLB_prefetch_MPKI 0
Core_0_STLB_prefetch_miss_rate 0
Core_0_STLB_writeback_access 0
Core_0_STLB_writeback_hit 0
Core_0_STLB_writeback_miss 0
Core_0_STLB_writeback_MPKI 0
Core_0_STLB_writeback_miss_rate 0
Core_0_STLB_prefetch_requested 0
Core_0_STLB_prefetch_issued 0
Core_0_STLB_prefetch_useful 0
Core_0_STLB_prefetch_useless 0
Core_0_STLB_prefetch_late 0
Core_0_STLB_prefetch_accuracy 0
Core_0_STLB_prefetch_coverage 0

Core_0_L1I_total_access 8600784
Core_0_L1I_total_hit 8600784
Core_0_L1I_total_miss 0
Core_0_L1I_total_MPKI 0
Core_0_L1I_total_miss_rate 0
Core_0_L1I_demand_access 8600784
Core_0_L1I_demand_hit 8600784
Core_0_L1I_demand_miss 0
Core_0_L1I_demand_MPKI 0
Core_0_L1I_demand_miss_rate 0
Core_0_L1I_load_access 8600784
Core_0_L1I_load_hit 8600784
Core_0_L1I_load_miss 0
Core_0_L1I_load_MPKI 0
Core_0_L1I_load_miss_rate 0
Core_0_L1I_rfo_access 0
Core_0_L1I_rfo_hit 0
Core_0_L1I_rfo_miss 0
Core_0_L1I_rfo_MPKI 0
Core_0_L1I_rfo_miss_rate 0
Core_0_L1I_prefetch_access 0
Core_0_L1I_prefetch_hit 0
Core_0_L1I_prefetch_miss 0
Core_0_L1I_prefetch_MPKI 0
Core_0_L1I_prefetch_miss_rate 0
Core_0_L1I_writeback_access 0
Core_0_L1I_writeback_hit 0
Core_0_L1I_writeback_miss 0
Core_0_L1I_writeback_MPKI 0
Core_0_L1I_writeback_miss_rate 0
Core_0_L1I_prefetch_requested 0
Core_0_L1I_prefetch_issued 0
Core_0_L1I_prefetch_useful 0
Core_0_L1I_prefetch_useless 0
Core_0_L1I_prefetch_late 0
Core_0_L1I_prefetch_accuracy 0
Core_0_L1I_prefetch_coverage 0

Core_0_L1D_total_access 9683605
Core_0_L1D_total_hit 7766842
Core_0_L1D_total_miss 1916763
Core_0_L1D_total_MPKI 38.3353
Core_0_L1D_total_miss_rate 0.197939
Core_0_L1D_demand_access 2072574
Core_0_L1D_demand_hit 2017938
Core_0_L1D_demand_miss 54636
Core_0_L1D_demand_MPKI 1.09272
Core_0_L1D_demand_miss_rate 0.0263614
Core_0_L1D_load_access 2072574
Core_0_L1D_load_hit 2017938
Core_0_L1D_load_miss 54636
Core_0_L1D_load_MPKI 1.09272
Core_0_L1D_load_miss_rate 0.0263614
Core_0_L1D_rfo_access 0
Core_0_L1D_rfo_hit 0
Core_0_L1D_rfo_miss 0
Core_0_L1D_rfo_MPKI 0
Core_0_L1D_rfo_miss_rate 0
Core_0_L1D_prefetch_access 253274
Core_0_L1D_prefetch_hit 6179
Core_0_L1D_prefetch_miss 247095
Core_0_L1D_prefetch_MPKI 4.9419
Core_0_L1D_prefetch_miss_rate 0.975603
Core_0_L1D_writeback_access 7357757
Core_0_L1D_writeback_hit 5742725
Core_0_L1D_writeback_miss 1615032
Core_0_L1D_writeback_MPKI 32.3006
Core_0_L1D_writeback_miss_rate 0.219501
Core_0_L1D_prefetch_requested 256004
Core_0_L1D_prefetch_issued 253274
Core_0_L1D_prefetch_useful 243622
Core_0_L1D_prefetch_useless 55
Core_0_L1D_prefetch_late 16034
Core_0_L1D_prefetch_accuracy 0.961891
Core_0_L1D_prefetch_coverage 0.816816

Core_0_L2C_total_access 4648784
Core_0_L2C_total_hit 2803729
Core_0_L2C_total_miss 1845055
Core_0_L2C_total_MPKI 36.9011
Core_0_L2C_total_miss_rate 0.39689
Core_0_L2C_demand_access 1551355
Core_0_L2C_demand_hit 704404
Core_0_L2C_demand_miss 846951
Core_0_L2C_demand_MPKI 16.939
Core_0_L2C_demand_miss_rate 0.545943
Core_0_L2C_load_access 26345
Core_0_L2C_load_hit 12886
Core_0_L2C_load_miss 13459
Core_0_L2C_load_MPKI 0.26918
Core_0_L2C_load_miss_rate 0.510875
Core_0_L2C_rfo_access 1525010
Core_0_L2C_rfo_hit 691518
Core_0_L2C_rfo_miss 833492
Core_0_L2C_rfo_MPKI 16.6698
Core_0_L2C_rfo_miss_rate 0.546549
Core_0_L2C_prefetch_access 1571929
Core_0_L2C_prefetch_hit 573829
Core_0_L2C_prefetch_miss 998100
Core_0_L2C_prefetch_MPKI 19.962
Core_0_L2C_prefetch_miss_rate 0.634952
Core_0_L2C_writeback_access 1525500
Core_0_L2C_writeback_hit 1525496
Core_0_L2C_writeback_miss 4
Core_0_L2C_writeback_MPKI 8e-05
Core_0_L2C_writeback_miss_rate 2.62209e-06
Core_0_L2C_prefetch_requested 1333958
Core_0_L2C_prefetch_issued 1328239
Core_0_L2C_prefetch_useful 188003
Core_0_L2C_prefetch_useless 59944
Core_0_L2C_prefetch_late 3448
Core_0_L2C_prefetch_accuracy 0.141543
Core_0_L2C_prefetch_coverage 0.181653

Core_0_LLC_total_access 1937099
Core_0_LLC_total_hit 729758
Core_0_LLC_total_miss 1207341
Core_0_LLC_total_MPKI 24.1468
Core_0_LLC_total_miss_rate 0.623273
Core_0_LLC_demand_access 843501
Core_0_LLC_demand_hit 23608
Core_0_LLC_demand_miss 819893
Core_0_LLC_demand_MPKI 16.3979
Core_0_LLC_demand_miss_rate 0.972012
Core_0_LLC_load_access 10011
Core_0_LLC_load_hit 0
Core_0_LLC_load_miss 10011
Core_0_LLC_load_MPKI 0.20022
Core_0_LLC_load_miss_rate 1
Core_0_LLC_rfo_access 833490
Core_0_LLC_rfo_hit 23608
Core_0_LLC_rfo_miss 809882
Core_0_LLC_rfo_MPKI 16.1976
Core_0_LLC_rfo_miss_rate 0.971676
Core_0_LLC_prefetch_access 259971
Core_0_LLC_prefetch_hit 0
Core_0_LLC_prefetch_miss 259971
Core_0_LLC_prefetch_MPKI 5.19942
Core_0_LLC_prefetch_miss_rate 1
Core_0_LLC_writeback_access 833627
Core_0_LLC_writeback_hit 706150
Core_0_LLC_writeback_miss 127477
Core_0_LLC_writeback_MPKI 2.54954
Core_0_LLC_writeback_miss_rate 0.152919
Core_0_LLC_prefetch_requested 0
Core_0_LLC_prefetch_issued 0
Core_0_LLC_prefetch_useful 0
Core_0_LLC_prefetch_useless 0
Core_0_LLC_prefetch_late 0
Core_0_LLC_prefetch_accuracy 0
Core_0_LLC_prefetch_coverage 0

[DRAM Statistics]
Channel_0_RQ_row_buffer_hit 95173
Channel_0_RQ_row_buffer_miss 984678
Channel_0_WQ_row_buffer_hit 100090
Channel_0_WQ_row_buffer_miss 710820
Channel_0_WQ_full 0
Channel_0_dbus_congested 7656827
DRAM_total_RQ_row_buffer_hit 95173
DRAM_total_RQ_row_buffer_miss 984678
DRAM_total_WQ_row_buffer_hit 100090
DRAM_total_WQ_row_buffer_miss 710820
DRAM_total_WQ_full 0
DRAM_total_dbus_congested 7656827
DRAM_avg_congested_cycle 7.85245

======STLB miss causes ========
Core_0_STLB_miss_cause_breakdown
Core_0_STLB_cause_Demand_Data_miss 0
Core_0_STLB_cause_Demand_Data_miss_rate 0
Core_0_STLB_cause_Demand_Instruction_miss 0
Core_0_STLB_cause_Demand_Instruction_miss_rate 0
Core_0_STLB_cause_L1D_Prefetch_miss 3
Core_0_STLB_cause_L1D_Prefetch_miss_rate 9.6401e-05
Core_0_STLB_cause_L1I_Prefetch_miss 0
Core_0_STLB_cause_L1I_Prefetch_miss_rate 0
Core_0_STLB_cause_Other_miss 0
Core_0_STLB_cause_Other_miss_rate 0
Core_0_STLB_Demand_miss 0
Core_0_STLB_Demand_miss_rate 0
Core_0_STLB_L1D_Prefetch_miss 3
Core_0_STLB_L1D_Prefetch_miss_rate 9.6401e-05
Core_0_STLB_Other_miss 0
Core_0_STLB_Other_miss_rate 0
