[VMEM] WARNING: physical memory size is smaller than virtual memory size.

*** ChampSim Multicore Out-of-Order Simulator ***
Warmup Instructions: 20000000
Simulation Instructions: 50000000
Number of CPUs: 1
Page size: 4096
STLB ideal mode: demand
Core 0: /data0/tzh/champsim_traces/SPEC17/623.xalancbmk_s-700B.champsimtrace.xz
 L1D Berti prefetcher
Off-chip DRAM Size: 4 GiB Channels: 1 Width: 64-bit Data Rate: 3205 MT/s
Warmup halting CPU 0 at instruction 20000003 cycle 4643159 for remainder of phase
Warmup finished CPU 0 instructions: 20000003 cycles: 4643159 cumulative IPC: 4.307 (Simulation time: 00 hr 00 min 59 sec)
Warmup complete CPU 0 instructions: 20000003 cycles: 4643159 cumulative IPC: 4.307 (Simulation time: 00 hr 00 min 59 sec)
Simulation finished CPU 0 instructions: 50000000 cycles: 43996250 cumulative IPC: 1.136 (Simulation time: 00 hr 07 min 27 sec)
Simulation complete CPU 0 instructions: 50000000 cycles: 43996250 cumulative IPC: 1.136 (Simulation time: 00 hr 07 min 27 sec)

ChampSim completed all CPUs

=== Simulation ===
CPU 0 runs /data0/tzh/champsim_traces/SPEC17/623.xalancbmk_s-700B.champsimtrace.xz

Region of Interest Statistics

CPU 0 cumulative IPC: 1.136 instructions: 50000000 cycles: 43996250
CPU 0 Branch Prediction Accuracy: 97.3% MPKI: 7.72 Average ROB Occupancy at Mispredict: 46.4
Branch type MPKI
BRANCH_DIRECT_JUMP: 0.1065
BRANCH_INDIRECT: 0.3358
BRANCH_CONDITIONAL: 5.541
BRANCH_DIRECT_CALL: 0.0036
BRANCH_INDIRECT_CALL: 0.3613
BRANCH_RETURN: 1.372

cpu0->cpu0_STLB TOTAL        ACCESS:    1450287 HIT:    1449703 MISS:        584 MSHR_MERGE:          0
cpu0->cpu0_STLB LOAD         ACCESS:    1450287 HIT:    1449703 MISS:        584 MSHR_MERGE:          0
cpu0->cpu0_STLB RFO          ACCESS:          0 HIT:          0 MISS:          0 MSHR_MERGE:          0
cpu0->cpu0_STLB PREFETCH     ACCESS:          0 HIT:          0 MISS:          0 MSHR_MERGE:          0
cpu0->cpu0_STLB WRITE        ACCESS:          0 HIT:          0 MISS:          0 MSHR_MERGE:          0
cpu0->cpu0_STLB TRANSLATION  ACCESS:          0 HIT:          0 MISS:          0 MSHR_MERGE:          0
cpu0->cpu0_STLB PREFETCH REQUESTED:          0 ISSUED:          0 USEFUL:          0 USELESS:          0 LATE:          0
cpu0->cpu0_STLB AVERAGE MISS LATENCY: 235.3 cycles
cpu0->cpu0_L2C TOTAL        ACCESS:    6787404 HIT:    5183884 MISS:    1603520 MSHR_MERGE:     319716
cpu0->cpu0_L2C LOAD         ACCESS:    2101366 HIT:    1625769 MISS:     475597 MSHR_MERGE:      22100
cpu0->cpu0_L2C RFO          ACCESS:      69231 HIT:      12000 MISS:      57231 MSHR_MERGE:        542
cpu0->cpu0_L2C PREFETCH     ACCESS:    4501627 HIT:    3431480 MISS:    1070147 MSHR_MERGE:     297074
cpu0->cpu0_L2C WRITE        ACCESS:     114608 HIT:     114588 MISS:         20 MSHR_MERGE:          0
cpu0->cpu0_L2C TRANSLATION  ACCESS:        572 HIT:         47 MISS:        525 MSHR_MERGE:          0
cpu0->cpu0_L2C PREFETCH REQUESTED:    3767243 ISSUED:    3734158 USEFUL:     167912 USELESS:     420899 LATE:      22642
cpu0->cpu0_L2C AVERAGE MISS LATENCY: 36.63 cycles
cpu0->cpu0_L1I TOTAL        ACCESS:    6127744 HIT:    6126439 MISS:       1305 MSHR_MERGE:        376
cpu0->cpu0_L1I LOAD         ACCESS:    6127744 HIT:    6126439 MISS:       1305 MSHR_MERGE:        376
cpu0->cpu0_L1I RFO          ACCESS:          0 HIT:          0 MISS:          0 MSHR_MERGE:          0
cpu0->cpu0_L1I PREFETCH     ACCESS:          0 HIT:          0 MISS:          0 MSHR_MERGE:          0
cpu0->cpu0_L1I WRITE        ACCESS:          0 HIT:          0 MISS:          0 MSHR_MERGE:          0
cpu0->cpu0_L1I TRANSLATION  ACCESS:          0 HIT:          0 MISS:          0 MSHR_MERGE:          0
cpu0->cpu0_L1I PREFETCH REQUESTED:          0 ISSUED:          0 USEFUL:          0 USELESS:          0 LATE:          0
cpu0->cpu0_L1I AVERAGE MISS LATENCY: 204.2 cycles
cpu0->cpu0_L1D TOTAL        ACCESS:   14401190 HIT:   10753972 MISS:    3647218 MSHR_MERGE:     709506
cpu0->cpu0_L1D LOAD         ACCESS:    9686936 HIT:    7133533 MISS:    2553403 MSHR_MERGE:     452966
cpu0->cpu0_L1D RFO          ACCESS:          0 HIT:          0 MISS:          0 MSHR_MERGE:          0
cpu0->cpu0_L1D PREFETCH     ACCESS:    1363185 HIT:     533152 MISS:     830033 MSHR_MERGE:      62564
cpu0->cpu0_L1D WRITE        ACCESS:    3349892 HIT:    3086686 MISS:     263206 MSHR_MERGE:     193972
cpu0->cpu0_L1D TRANSLATION  ACCESS:       1177 HIT:        601 MISS:        576 MSHR_MERGE:          4
cpu0->cpu0_L1D PREFETCH REQUESTED:    1394384 ISSUED:    1363186 USEFUL:     202751 USELESS:     564684 LATE:      20153
cpu0->cpu0_L1D AVERAGE MISS LATENCY: 17.27 cycles
cpu0->cpu0_ITLB TOTAL        ACCESS:    5798682 HIT:    5798470 MISS:        212 MSHR_MERGE:         60
cpu0->cpu0_ITLB LOAD         ACCESS:    5798682 HIT:    5798470 MISS:        212 MSHR_MERGE:         60
cpu0->cpu0_ITLB RFO          ACCESS:          0 HIT:          0 MISS:          0 MSHR_MERGE:          0
cpu0->cpu0_ITLB PREFETCH     ACCESS:          0 HIT:          0 MISS:          0 MSHR_MERGE:          0
cpu0->cpu0_ITLB WRITE        ACCESS:          0 HIT:          0 MISS:          0 MSHR_MERGE:          0
cpu0->cpu0_ITLB TRANSLATION  ACCESS:          0 HIT:          0 MISS:          0 MSHR_MERGE:          0
cpu0->cpu0_ITLB PREFETCH REQUESTED:          0 ISSUED:          0 USEFUL:          0 USELESS:          0 LATE:          0
cpu0->cpu0_ITLB AVERAGE MISS LATENCY: 5.007 cycles
cpu0->cpu0_DTLB TOTAL        ACCESS:   13517303 HIT:   11387456 MISS:    2129847 MSHR_MERGE:     679712
cpu0->cpu0_DTLB LOAD         ACCESS:   13517303 HIT:   11387456 MISS:    2129847 MSHR_MERGE:     679712
cpu0->cpu0_DTLB RFO          ACCESS:          0 HIT:          0 MISS:          0 MSHR_MERGE:          0
cpu0->cpu0_DTLB PREFETCH     ACCESS:          0 HIT:          0 MISS:          0 MSHR_MERGE:          0
cpu0->cpu0_DTLB WRITE        ACCESS:          0 HIT:          0 MISS:          0 MSHR_MERGE:          0
cpu0->cpu0_DTLB TRANSLATION  ACCESS:          0 HIT:          0 MISS:          0 MSHR_MERGE:          0
cpu0->cpu0_DTLB PREFETCH REQUESTED:          0 ISSUED:          0 USEFUL:          0 USELESS:          0 LATE:          0
cpu0->cpu0_DTLB AVERAGE MISS LATENCY: 5.095 cycles
cpu0->LLC TOTAL        ACCESS:    1373172 HIT:    1259087 MISS:     114085 MSHR_MERGE:          0
cpu0->LLC LOAD         ACCESS:     453497 HIT:     442025 MISS:      11472 MSHR_MERGE:          0
cpu0->LLC RFO          ACCESS:      56689 HIT:       5303 MISS:      51386 MSHR_MERGE:          0
cpu0->LLC PREFETCH     ACCESS:     773073 HIT:     726767 MISS:      46306 MSHR_MERGE:          0
cpu0->LLC WRITE        ACCESS:      89388 HIT:      84858 MISS:       4530 MSHR_MERGE:          0
cpu0->LLC TRANSLATION  ACCESS:        525 HIT:        134 MISS:        391 MSHR_MERGE:          0
cpu0->LLC PREFETCH REQUESTED:          0 ISSUED:          0 USEFUL:          0 USELESS:          0 LATE:          0
cpu0->LLC AVERAGE MISS LATENCY: 171.7 cycles

DRAM Statistics

Channel 0 RQ ROW_BUFFER_HIT:       3484
  ROW_BUFFER_MISS:     106068
  AVG DBUS CONGESTED CYCLE: 9.407
Channel 0 WQ ROW_BUFFER_HIT:       7724
  ROW_BUFFER_MISS:      62778
  FULL:          0
Channel 0 REFRESHES ISSUED:       3667

[ROI Statistics]
[System Configuration]
num_cpus 1
cpu_freq 4000
fetch_width 6
decode_width 6
dispatch_width 6
execute_width 6
lq_width 2
sq_width 2
retire_width 6
scheduler_size 160
branch_mispredict_penalty 1
rob_size 352
lq_size 240
sq_size 112
ifetch_buffer_size 64
decode_buffer_size 32
dispatch_buffer_size 32
register_file_size 288
decode_latency 1
dispatch_latency 1
schedule_latency 0
execute_latency 0
page_size 4096
block_size 64
core_0_itlb_set 16
core_0_itlb_way 4
core_0_itlb_rq_size 16
core_0_itlb_wq_size 16
core_0_itlb_pq_size 0
core_0_itlb_mshr_size 8
core_0_itlb_hit_latency 1
core_0_itlb_fill_latency 1
core_0_itlb_max_tag_check 2
core_0_itlb_max_fill 2
core_0_dtlb_set 16
core_0_dtlb_way 4
core_0_dtlb_rq_size 16
core_0_dtlb_wq_size 16
core_0_dtlb_pq_size 0
core_0_dtlb_mshr_size 8
core_0_dtlb_hit_latency 1
core_0_dtlb_fill_latency 1
core_0_dtlb_max_tag_check 2
core_0_dtlb_max_fill 2
core_0_stlb_set 128
core_0_stlb_way 12
core_0_stlb_rq_size 32
core_0_stlb_wq_size 32
core_0_stlb_pq_size 0
core_0_stlb_mshr_size 16
core_0_stlb_hit_latency 4
core_0_stlb_fill_latency 4
core_0_stlb_max_tag_check 1
core_0_stlb_max_fill 1
core_0_l1i_set 64
core_0_l1i_way 8
core_0_l1i_rq_size 64
core_0_l1i_wq_size 64
core_0_l1i_pq_size 32
core_0_l1i_mshr_size 8
core_0_l1i_hit_latency 2
core_0_l1i_fill_latency 2
core_0_l1i_max_tag_check 2
core_0_l1i_max_fill 2
core_0_l1d_set 64
core_0_l1d_way 12
core_0_l1d_rq_size 64
core_0_l1d_wq_size 64
core_0_l1d_pq_size 8
core_0_l1d_mshr_size 16
core_0_l1d_hit_latency 2
core_0_l1d_fill_latency 3
core_0_l1d_max_tag_check 2
core_0_l1d_max_fill 2
core_0_l2c_set 1024
core_0_l2c_way 8
core_0_l2c_rq_size 32
core_0_l2c_wq_size 32
core_0_l2c_pq_size 16
core_0_l2c_mshr_size 32
core_0_l2c_hit_latency 5
core_0_l2c_fill_latency 5
core_0_l2c_max_tag_check 1
core_0_l2c_max_fill 1
llc_set 2048
llc_way 16
llc_rq_size 32
llc_wq_size 32
llc_pq_size 32
llc_mshr_size 64
llc_hit_latency 10
llc_fill_latency 10
llc_max_tag_check 1
llc_max_fill 1
dram_channels 1
dram_ranks 1
dram_bankgroups 8
dram_banks 4
dram_rows 16384
dram_columns 1024
dram_channel_width 8
dram_rq_size 64
dram_wq_size 64
dram_size 4294967296
core_0_itlb_prefetcher no
core_0_dtlb_prefetcher no
core_0_stlb_prefetcher no
core_0_l1i_prefetcher next_line
core_0_l1d_prefetcher berti
core_0_l2c_prefetcher pythia
llc_prefetcher no
llc_replacement drrip

Core_0_instructions 50000000
Core_0_cycles 43996250
Core_0_IPC 1.13646
Core_0_branch_prediction_accuracy 97.3035
Core_0_branch_MPKI 7.72048
Core_0_average_ROB_occupancy_at_mispredict 46.4011

Core_0_ITLB_total_access 5798682
Core_0_ITLB_total_hit 5798470
Core_0_ITLB_total_miss 212
Core_0_ITLB_total_MPKI 0.00424
Core_0_ITLB_total_miss_rate 3.656e-05
Core_0_ITLB_demand_access 5798682
Core_0_ITLB_demand_hit 5798470
Core_0_ITLB_demand_miss 212
Core_0_ITLB_demand_MPKI 0.00424
Core_0_ITLB_demand_miss_rate 3.656e-05
Core_0_ITLB_load_access 5798682
Core_0_ITLB_load_hit 5798470
Core_0_ITLB_load_miss 212
Core_0_ITLB_load_MPKI 0.00424
Core_0_ITLB_load_miss_rate 3.656e-05
Core_0_ITLB_rfo_access 0
Core_0_ITLB_rfo_hit 0
Core_0_ITLB_rfo_miss 0
Core_0_ITLB_rfo_MPKI 0
Core_0_ITLB_rfo_miss_rate 0
Core_0_ITLB_prefetch_access 0
Core_0_ITLB_prefetch_hit 0
Core_0_ITLB_prefetch_miss 0
Core_0_ITLB_prefetch_MPKI 0
Core_0_ITLB_prefetch_miss_rate 0
Core_0_ITLB_writeback_access 0
Core_0_ITLB_writeback_hit 0
Core_0_ITLB_writeback_miss 0
Core_0_ITLB_writeback_MPKI 0
Core_0_ITLB_writeback_miss_rate 0
Core_0_ITLB_prefetch_requested 0
Core_0_ITLB_prefetch_issued 0
Core_0_ITLB_prefetch_useful 0
Core_0_ITLB_prefetch_useless 0
Core_0_ITLB_prefetch_late 0
Core_0_ITLB_prefetch_accuracy 0
Core_0_ITLB_prefetch_coverage 0

Core_0_DTLB_total_access 13517303
Core_0_DTLB_total_hit 11387456
Core_0_DTLB_total_miss 2129847
Core_0_DTLB_total_MPKI 42.5969
Core_0_DTLB_total_miss_rate 0.157564
Core_0_DTLB_demand_access 13517303
Core_0_DTLB_demand_hit 11387456
Core_0_DTLB_demand_miss 2129847
Core_0_DTLB_demand_MPKI 42.5969
Core_0_DTLB_demand_miss_rate 0.157564
Core_0_DTLB_load_access 13517303
Core_0_DTLB_load_hit 11387456
Core_0_DTLB_load_miss 2129847
Core_0_DTLB_load_MPKI 42.5969
Core_0_DTLB_load_miss_rate 0.157564
Core_0_DTLB_rfo_access 0
Core_0_DTLB_rfo_hit 0
Core_0_DTLB_rfo_miss 0
Core_0_DTLB_rfo_MPKI 0
Core_0_DTLB_rfo_miss_rate 0
Core_0_DTLB_prefetch_access 0
Core_0_DTLB_prefetch_hit 0
Core_0_DTLB_prefetch_miss 0
Core_0_DTLB_prefetch_MPKI 0
Core_0_DTLB_prefetch_miss_rate 0
Core_0_DTLB_writeback_access 0
Core_0_DTLB_writeback_hit 0
Core_0_DTLB_writeback_miss 0
Core_0_DTLB_writeback_MPKI 0
Core_0_DTLB_writeback_miss_rate 0
Core_0_DTLB_prefetch_requested 0
Core_0_DTLB_prefetch_issued 0
Core_0_DTLB_prefetch_useful 0
Core_0_DTLB_prefetch_useless 0
Core_0_DTLB_prefetch_late 0
Core_0_DTLB_prefetch_accuracy 0
Core_0_DTLB_prefetch_coverage 0

Core_0_STLB_total_access 1450287
Core_0_STLB_total_hit 1449703
Core_0_STLB_total_miss 584
Core_0_STLB_total_MPKI 0.01168
Core_0_STLB_total_miss_rate 0.000402679
Core_0_STLB_demand_access 1450287
Core_0_STLB_demand_hit 1449703
Core_0_STLB_demand_miss 584
Core_0_STLB_demand_MPKI 0.01168
Core_0_STLB_demand_miss_rate 0.000402679
Core_0_STLB_load_access 1450287
Core_0_STLB_load_hit 1449703
Core_0_STLB_load_miss 584
Core_0_STLB_load_MPKI 0.01168
Core_0_STLB_load_miss_rate 0.000402679
Core_0_STLB_rfo_access 0
Core_0_STLB_rfo_hit 0
Core_0_STLB_rfo_miss 0
Core_0_STLB_rfo_MPKI 0
Core_0_STLB_rfo_miss_rate 0
Core_0_STLB_prefetch_access 0
Core_0_STLB_prefetch_hit 0
Core_0_STLB_prefetch_miss 0
Core_0_STLB_prefetch_MPKI 0
Core_0_STLB_prefetch_miss_rate 0
Core_0_STLB_writeback_access 0
Core_0_STLB_writeback_hit 0
Core_0_STLB_writeback_miss 0
Core_0_STLB_writeback_MPKI 0
Core_0_STLB_writeback_miss_rate 0
Core_0_STLB_prefetch_requested 0
Core_0_STLB_prefetch_issued 0
Core_0_STLB_prefetch_useful 0
Core_0_STLB_prefetch_useless 0
Core_0_STLB_prefetch_late 0
Core_0_STLB_prefetch_accuracy 0
Core_0_STLB_prefetch_coverage 0

Core_0_L1I_total_access 6127744
Core_0_L1I_total_hit 6126439
Core_0_L1I_total_miss 1305
Core_0_L1I_total_MPKI 0.0261
Core_0_L1I_total_miss_rate 0.000212966
Core_0_L1I_demand_access 6127744
Core_0_L1I_demand_hit 6126439
Core_0_L1I_demand_miss 1305
Core_0_L1I_demand_MPKI 0.0261
Core_0_L1I_demand_miss_rate 0.000212966
Core_0_L1I_load_access 6127744
Core_0_L1I_load_hit 6126439
Core_0_L1I_load_miss 1305
Core_0_L1I_load_MPKI 0.0261
Core_0_L1I_load_miss_rate 0.000212966
Core_0_L1I_rfo_access 0
Core_0_L1I_rfo_hit 0
Core_0_L1I_rfo_miss 0
Core_0_L1I_rfo_MPKI 0
Core_0_L1I_rfo_miss_rate 0
Core_0_L1I_prefetch_access 0
Core_0_L1I_prefetch_hit 0
Core_0_L1I_prefetch_miss 0
Core_0_L1I_prefetch_MPKI 0
Core_0_L1I_prefetch_miss_rate 0
Core_0_L1I_writeback_access 0
Core_0_L1I_writeback_hit 0
Core_0_L1I_writeback_miss 0
Core_0_L1I_writeback_MPKI 0
Core_0_L1I_writeback_miss_rate 0
Core_0_L1I_prefetch_requested 0
Core_0_L1I_prefetch_issued 0
Core_0_L1I_prefetch_useful 0
Core_0_L1I_prefetch_useless 0
Core_0_L1I_prefetch_late 0
Core_0_L1I_prefetch_accuracy 0
Core_0_L1I_prefetch_coverage 0

Core_0_L1D_total_access 14400013
Core_0_L1D_total_hit 10753371
Core_0_L1D_total_miss 3646642
Core_0_L1D_total_MPKI 72.9328
Core_0_L1D_total_miss_rate 0.253239
Core_0_L1D_demand_access 9686936
Core_0_L1D_demand_hit 7133533
Core_0_L1D_demand_miss 2553403
Core_0_L1D_demand_MPKI 51.0681
Core_0_L1D_demand_miss_rate 0.263592
Core_0_L1D_load_access 9686936
Core_0_L1D_load_hit 7133533
Core_0_L1D_load_miss 2553403
Core_0_L1D_load_MPKI 51.0681
Core_0_L1D_load_miss_rate 0.263592
Core_0_L1D_rfo_access 0
Core_0_L1D_rfo_hit 0
Core_0_L1D_rfo_miss 0
Core_0_L1D_rfo_MPKI 0
Core_0_L1D_rfo_miss_rate 0
Core_0_L1D_prefetch_access 1363185
Core_0_L1D_prefetch_hit 533152
Core_0_L1D_prefetch_miss 830033
Core_0_L1D_prefetch_MPKI 16.6007
Core_0_L1D_prefetch_miss_rate 0.608892
Core_0_L1D_writeback_access 3349892
Core_0_L1D_writeback_hit 3086686
Core_0_L1D_writeback_miss 263206
Core_0_L1D_writeback_MPKI 5.26412
Core_0_L1D_writeback_miss_rate 0.0785715
Core_0_L1D_prefetch_requested 1394384
Core_0_L1D_prefetch_issued 1363186
Core_0_L1D_prefetch_useful 202751
Core_0_L1D_prefetch_useless 564684
Core_0_L1D_prefetch_late 20153
Core_0_L1D_prefetch_accuracy 0.148733
Core_0_L1D_prefetch_coverage 0.073563

Core_0_L2C_total_access 6786832
Core_0_L2C_total_hit 5183837
Core_0_L2C_total_miss 1602995
Core_0_L2C_total_MPKI 32.0599
Core_0_L2C_total_miss_rate 0.236192
Core_0_L2C_demand_access 2170597
Core_0_L2C_demand_hit 1637769
Core_0_L2C_demand_miss 532828
Core_0_L2C_demand_MPKI 10.6566
Core_0_L2C_demand_miss_rate 0.245475
Core_0_L2C_load_access 2101366
Core_0_L2C_load_hit 1625769
Core_0_L2C_load_miss 475597
Core_0_L2C_load_MPKI 9.51194
Core_0_L2C_load_miss_rate 0.226328
Core_0_L2C_rfo_access 69231
Core_0_L2C_rfo_hit 12000
Core_0_L2C_rfo_miss 57231
Core_0_L2C_rfo_MPKI 1.14462
Core_0_L2C_rfo_miss_rate 0.826667
Core_0_L2C_prefetch_access 4501627
Core_0_L2C_prefetch_hit 3431480
Core_0_L2C_prefetch_miss 1070147
Core_0_L2C_prefetch_MPKI 21.4029
Core_0_L2C_prefetch_miss_rate 0.237724
Core_0_L2C_writeback_access 114608
Core_0_L2C_writeback_hit 114588
Core_0_L2C_writeback_miss 20
Core_0_L2C_writeback_MPKI 0.0004
Core_0_L2C_writeback_miss_rate 0.000174508
Core_0_L2C_prefetch_requested 3767243
Core_0_L2C_prefetch_issued 3734158
Core_0_L2C_prefetch_useful 167912
Core_0_L2C_prefetch_useless 420899
Core_0_L2C_prefetch_late 22642
Core_0_L2C_prefetch_accuracy 0.0449665
Core_0_L2C_prefetch_coverage 0.239621

Core_0_LLC_total_access 1372647
Core_0_LLC_total_hit 1258953
Core_0_LLC_total_miss 113694
Core_0_LLC_total_MPKI 2.27388
Core_0_LLC_total_miss_rate 0.0828283
Core_0_LLC_demand_access 510186
Core_0_LLC_demand_hit 447328
Core_0_LLC_demand_miss 62858
Core_0_LLC_demand_MPKI 1.25716
Core_0_LLC_demand_miss_rate 0.123206
Core_0_LLC_load_access 453497
Core_0_LLC_load_hit 442025
Core_0_LLC_load_miss 11472
Core_0_LLC_load_MPKI 0.22944
Core_0_LLC_load_miss_rate 0.0252967
Core_0_LLC_rfo_access 56689
Core_0_LLC_rfo_hit 5303
Core_0_LLC_rfo_miss 51386
Core_0_LLC_rfo_MPKI 1.02772
Core_0_LLC_rfo_miss_rate 0.906455
Core_0_LLC_prefetch_access 773073
Core_0_LLC_prefetch_hit 726767
Core_0_LLC_prefetch_miss 46306
Core_0_LLC_prefetch_MPKI 0.92612
Core_0_LLC_prefetch_miss_rate 0.0598986
Core_0_LLC_writeback_access 89388
Core_0_LLC_writeback_hit 84858
Core_0_LLC_writeback_miss 4530
Core_0_LLC_writeback_MPKI 0.0906
Core_0_LLC_writeback_miss_rate 0.0506779
Core_0_LLC_prefetch_requested 0
Core_0_LLC_prefetch_issued 0
Core_0_LLC_prefetch_useful 0
Core_0_LLC_prefetch_useless 0
Core_0_LLC_prefetch_late 0
Core_0_LLC_prefetch_accuracy 0
Core_0_LLC_prefetch_coverage 0

[DRAM Statistics]
Channel_0_RQ_row_buffer_hit 3484
Channel_0_RQ_row_buffer_miss 106068
Channel_0_WQ_row_buffer_hit 7724
Channel_0_WQ_row_buffer_miss 62778
Channel_0_WQ_full 0
Channel_0_dbus_congested 423497
DRAM_total_RQ_row_buffer_hit 3484
DRAM_total_RQ_row_buffer_miss 106068
DRAM_total_WQ_row_buffer_hit 7724
DRAM_total_WQ_row_buffer_miss 62778
DRAM_total_WQ_full 0
DRAM_total_dbus_congested 423497
DRAM_avg_congested_cycle 9.40739

======STLB miss causes ========
Core_0_STLB_miss_cause_breakdown
Core_0_STLB_cause_Demand_Data_miss 0
Core_0_STLB_cause_Demand_Data_miss_rate 0
Core_0_STLB_cause_Demand_Instruction_miss 0
Core_0_STLB_cause_Demand_Instruction_miss_rate 0
Core_0_STLB_cause_L1D_Prefetch_miss 584
Core_0_STLB_cause_L1D_Prefetch_miss_rate 0.000402679
Core_0_STLB_cause_L1I_Prefetch_miss 0
Core_0_STLB_cause_L1I_Prefetch_miss_rate 0
Core_0_STLB_cause_Other_miss 0
Core_0_STLB_cause_Other_miss_rate 0
Core_0_STLB_Demand_miss 0
Core_0_STLB_Demand_miss_rate 0
Core_0_STLB_L1D_Prefetch_miss 584
Core_0_STLB_L1D_Prefetch_miss_rate 0.000402679
Core_0_STLB_Other_miss 0
Core_0_STLB_Other_miss_rate 0
