[VMEM] WARNING: physical memory size is smaller than virtual memory size.

*** ChampSim Multicore Out-of-Order Simulator ***
Warmup Instructions: 20000000
Simulation Instructions: 50000000
Number of CPUs: 1
Page size: 4096
STLB ideal mode: demand
Core 0: /data0/tzh/champsim_traces/SPEC17/641.leela_s-800B.champsimtrace.xz
 L1D Berti prefetcher
Off-chip DRAM Size: 4 GiB Channels: 1 Width: 64-bit Data Rate: 3205 MT/s
Warmup halting CPU 0 at instruction 20000004 cycle 4230752 for remainder of phase
Warmup finished CPU 0 instructions: 20000004 cycles: 4230752 cumulative IPC: 4.727 (Simulation time: 00 hr 00 min 48 sec)
Warmup complete CPU 0 instructions: 20000004 cycles: 4230752 cumulative IPC: 4.727 (Simulation time: 00 hr 00 min 48 sec)
Simulation finished CPU 0 instructions: 50000000 cycles: 29759052 cumulative IPC: 1.68 (Simulation time: 00 hr 04 min 08 sec)
Simulation complete CPU 0 instructions: 50000000 cycles: 29759052 cumulative IPC: 1.68 (Simulation time: 00 hr 04 min 08 sec)

ChampSim completed all CPUs

=== Simulation ===
CPU 0 runs /data0/tzh/champsim_traces/SPEC17/641.leela_s-800B.champsimtrace.xz

Region of Interest Statistics

CPU 0 cumulative IPC: 1.68 instructions: 50000000 cycles: 29759052
CPU 0 Branch Prediction Accuracy: 89.09% MPKI: 17.84 Average ROB Occupancy at Mispredict: 28.22
Branch type MPKI
BRANCH_DIRECT_JUMP: 0.07412
BRANCH_INDIRECT: 0.00044
BRANCH_CONDITIONAL: 17.74
BRANCH_DIRECT_CALL: 0.00044
BRANCH_INDIRECT_CALL: 0
BRANCH_RETURN: 0.02674

cpu0->cpu0_STLB TOTAL        ACCESS:      22339 HIT:      22256 MISS:         83 MSHR_MERGE:          0
cpu0->cpu0_STLB LOAD         ACCESS:      22339 HIT:      22256 MISS:         83 MSHR_MERGE:          0
cpu0->cpu0_STLB RFO          ACCESS:          0 HIT:          0 MISS:          0 MSHR_MERGE:          0
cpu0->cpu0_STLB PREFETCH     ACCESS:          0 HIT:          0 MISS:          0 MSHR_MERGE:          0
cpu0->cpu0_STLB WRITE        ACCESS:          0 HIT:          0 MISS:          0 MSHR_MERGE:          0
cpu0->cpu0_STLB TRANSLATION  ACCESS:          0 HIT:          0 MISS:          0 MSHR_MERGE:          0
cpu0->cpu0_STLB PREFETCH REQUESTED:          0 ISSUED:          0 USEFUL:          0 USELESS:          0 LATE:          0
cpu0->cpu0_STLB AVERAGE MISS LATENCY: 130.2 cycles
cpu0->cpu0_L2C TOTAL        ACCESS:     442355 HIT:     434203 MISS:       8152 MSHR_MERGE:        918
cpu0->cpu0_L2C LOAD         ACCESS:      55634 HIT:      54276 MISS:       1358 MSHR_MERGE:          2
cpu0->cpu0_L2C RFO          ACCESS:       9526 HIT:       9447 MISS:         79 MSHR_MERGE:          5
cpu0->cpu0_L2C PREFETCH     ACCESS:     356423 HIT:     349755 MISS:       6668 MSHR_MERGE:        911
cpu0->cpu0_L2C WRITE        ACCESS:      20689 HIT:      20689 MISS:          0 MSHR_MERGE:          0
cpu0->cpu0_L2C TRANSLATION  ACCESS:         83 HIT:         36 MISS:         47 MSHR_MERGE:          0
cpu0->cpu0_L2C PREFETCH REQUESTED:     286041 ISSUED:     281903 USEFUL:       1707 USELESS:       2883 LATE:          7
cpu0->cpu0_L2C AVERAGE MISS LATENCY: 63.28 cycles
cpu0->cpu0_L1I TOTAL        ACCESS:      69830 HIT:      69786 MISS:         44 MSHR_MERGE:          8
cpu0->cpu0_L1I LOAD         ACCESS:      69830 HIT:      69786 MISS:         44 MSHR_MERGE:          8
cpu0->cpu0_L1I RFO          ACCESS:          0 HIT:          0 MISS:          0 MSHR_MERGE:          0
cpu0->cpu0_L1I PREFETCH     ACCESS:          0 HIT:          0 MISS:          0 MSHR_MERGE:          0
cpu0->cpu0_L1I WRITE        ACCESS:          0 HIT:          0 MISS:          0 MSHR_MERGE:          0
cpu0->cpu0_L1I TRANSLATION  ACCESS:          0 HIT:          0 MISS:          0 MSHR_MERGE:          0
cpu0->cpu0_L1I PREFETCH REQUESTED:          0 ISSUED:          0 USEFUL:          0 USELESS:          0 LATE:          0
cpu0->cpu0_L1I AVERAGE MISS LATENCY: 192.2 cycles
cpu0->cpu0_L1D TOTAL        ACCESS:   14538500 HIT:   14375564 MISS:     162936 MSHR_MERGE:      23208
cpu0->cpu0_L1D LOAD         ACCESS:    8743704 HIT:    8679607 MISS:      64097 MSHR_MERGE:       8499
cpu0->cpu0_L1D RFO          ACCESS:          0 HIT:          0 MISS:          0 MSHR_MERGE:          0
cpu0->cpu0_L1D PREFETCH     ACCESS:     132064 HIT:      56802 MISS:      75262 MSHR_MERGE:        742
cpu0->cpu0_L1D WRITE        ACCESS:    5662566 HIT:    5639072 MISS:      23494 MSHR_MERGE:      13967
cpu0->cpu0_L1D TRANSLATION  ACCESS:        166 HIT:         83 MISS:         83 MSHR_MERGE:          0
cpu0->cpu0_L1D PREFETCH REQUESTED:     140927 ISSUED:     132057 USEFUL:      49039 USELESS:      25451 LATE:       5158
cpu0->cpu0_L1D AVERAGE MISS LATENCY: 9.045 cycles
cpu0->cpu0_ITLB TOTAL        ACCESS:      67370 HIT:      67370 MISS:          0 MSHR_MERGE:          0
cpu0->cpu0_ITLB LOAD         ACCESS:      67370 HIT:      67370 MISS:          0 MSHR_MERGE:          0
cpu0->cpu0_ITLB RFO          ACCESS:          0 HIT:          0 MISS:          0 MSHR_MERGE:          0
cpu0->cpu0_ITLB PREFETCH     ACCESS:          0 HIT:          0 MISS:          0 MSHR_MERGE:          0
cpu0->cpu0_ITLB WRITE        ACCESS:          0 HIT:          0 MISS:          0 MSHR_MERGE:          0
cpu0->cpu0_ITLB TRANSLATION  ACCESS:          0 HIT:          0 MISS:          0 MSHR_MERGE:          0
cpu0->cpu0_ITLB PREFETCH REQUESTED:          0 ISSUED:          0 USEFUL:          0 USELESS:          0 LATE:          0
cpu0->cpu0_ITLB AVERAGE MISS LATENCY: - cycles
cpu0->cpu0_DTLB TOTAL        ACCESS:   13619551 HIT:   13595210 MISS:      24341 MSHR_MERGE:       2002
cpu0->cpu0_DTLB LOAD         ACCESS:   13619551 HIT:   13595210 MISS:      24341 MSHR_MERGE:       2002
cpu0->cpu0_DTLB RFO          ACCESS:          0 HIT:          0 MISS:          0 MSHR_MERGE:          0
cpu0->cpu0_DTLB PREFETCH     ACCESS:          0 HIT:          0 MISS:          0 MSHR_MERGE:          0
cpu0->cpu0_DTLB WRITE        ACCESS:          0 HIT:          0 MISS:          0 MSHR_MERGE:          0
cpu0->cpu0_DTLB TRANSLATION  ACCESS:          0 HIT:          0 MISS:          0 MSHR_MERGE:          0
cpu0->cpu0_DTLB PREFETCH REQUESTED:          0 ISSUED:          0 USEFUL:          0 USELESS:          0 LATE:          0
cpu0->cpu0_DTLB AVERAGE MISS LATENCY: 5.488 cycles
cpu0->LLC TOTAL        ACCESS:       7545 HIT:       4343 MISS:       3202 MSHR_MERGE:          0
cpu0->LLC LOAD         ACCESS:       1356 HIT:        954 MISS:        402 MSHR_MERGE:          0
cpu0->LLC RFO          ACCESS:         74 HIT:         21 MISS:         53 MSHR_MERGE:          0
cpu0->LLC PREFETCH     ACCESS:       5757 HIT:       3030 MISS:       2727 MSHR_MERGE:          0
cpu0->LLC WRITE        ACCESS:        311 HIT:        311 MISS:          0 MSHR_MERGE:          0
cpu0->LLC TRANSLATION  ACCESS:         47 HIT:         27 MISS:         20 MSHR_MERGE:          0
cpu0->LLC PREFETCH REQUESTED:          0 ISSUED:          0 USEFUL:          0 USELESS:          0 LATE:          0
cpu0->LLC AVERAGE MISS LATENCY: 148.8 cycles

DRAM Statistics

Channel 0 RQ ROW_BUFFER_HIT:         82
  ROW_BUFFER_MISS:       3120
  AVG DBUS CONGESTED CYCLE: 2.452
Channel 0 WQ ROW_BUFFER_HIT:          0
  ROW_BUFFER_MISS:          0
  FULL:          0
Channel 0 REFRESHES ISSUED:       2480

[ROI Statistics]
[System Configuration]
num_cpus 1
cpu_freq 4000
fetch_width 6
decode_width 6
dispatch_width 6
execute_width 6
lq_width 2
sq_width 2
retire_width 6
scheduler_size 160
branch_mispredict_penalty 1
rob_size 352
lq_size 240
sq_size 112
ifetch_buffer_size 64
decode_buffer_size 32
dispatch_buffer_size 32
register_file_size 288
decode_latency 1
dispatch_latency 1
schedule_latency 0
execute_latency 0
page_size 4096
block_size 64
core_0_itlb_set 16
core_0_itlb_way 4
core_0_itlb_rq_size 16
core_0_itlb_wq_size 16
core_0_itlb_pq_size 0
core_0_itlb_mshr_size 8
core_0_itlb_hit_latency 1
core_0_itlb_fill_latency 1
core_0_itlb_max_tag_check 2
core_0_itlb_max_fill 2
core_0_dtlb_set 16
core_0_dtlb_way 4
core_0_dtlb_rq_size 16
core_0_dtlb_wq_size 16
core_0_dtlb_pq_size 0
core_0_dtlb_mshr_size 8
core_0_dtlb_hit_latency 1
core_0_dtlb_fill_latency 1
core_0_dtlb_max_tag_check 2
core_0_dtlb_max_fill 2
core_0_stlb_set 128
core_0_stlb_way 12
core_0_stlb_rq_size 32
core_0_stlb_wq_size 32
core_0_stlb_pq_size 0
core_0_stlb_mshr_size 16
core_0_stlb_hit_latency 4
core_0_stlb_fill_latency 4
core_0_stlb_max_tag_check 1
core_0_stlb_max_fill 1
core_0_l1i_set 64
core_0_l1i_way 8
core_0_l1i_rq_size 64
core_0_l1i_wq_size 64
core_0_l1i_pq_size 32
core_0_l1i_mshr_size 8
core_0_l1i_hit_latency 2
core_0_l1i_fill_latency 2
core_0_l1i_max_tag_check 2
core_0_l1i_max_fill 2
core_0_l1d_set 64
core_0_l1d_way 12
core_0_l1d_rq_size 64
core_0_l1d_wq_size 64
core_0_l1d_pq_size 8
core_0_l1d_mshr_size 16
core_0_l1d_hit_latency 2
core_0_l1d_fill_latency 3
core_0_l1d_max_tag_check 2
core_0_l1d_max_fill 2
core_0_l2c_set 1024
core_0_l2c_way 8
core_0_l2c_rq_size 32
core_0_l2c_wq_size 32
core_0_l2c_pq_size 16
core_0_l2c_mshr_size 32
core_0_l2c_hit_latency 5
core_0_l2c_fill_latency 5
core_0_l2c_max_tag_check 1
core_0_l2c_max_fill 1
llc_set 2048
llc_way 16
llc_rq_size 32
llc_wq_size 32
llc_pq_size 32
llc_mshr_size 64
llc_hit_latency 10
llc_fill_latency 10
llc_max_tag_check 1
llc_max_fill 1
dram_channels 1
dram_ranks 1
dram_bankgroups 8
dram_banks 4
dram_rows 16384
dram_columns 1024
dram_channel_width 8
dram_rq_size 64
dram_wq_size 64
dram_size 4294967296
core_0_itlb_prefetcher no
core_0_dtlb_prefetcher no
core_0_stlb_prefetcher no
core_0_l1i_prefetcher next_line
core_0_l1d_prefetcher berti
core_0_l2c_prefetcher pythia
llc_prefetcher no
llc_replacement drrip

Core_0_instructions 50000000
Core_0_cycles 29759052
Core_0_IPC 1.68016
Core_0_branch_prediction_accuracy 89.0903
Core_0_branch_MPKI 17.8388
Core_0_average_ROB_occupancy_at_mispredict 28.2174

Core_0_ITLB_total_access 67370
Core_0_ITLB_total_hit 67370
Core_0_ITLB_total_miss 0
Core_0_ITLB_total_MPKI 0
Core_0_ITLB_total_miss_rate 0
Core_0_ITLB_demand_access 67370
Core_0_ITLB_demand_hit 67370
Core_0_ITLB_demand_miss 0
Core_0_ITLB_demand_MPKI 0
Core_0_ITLB_demand_miss_rate 0
Core_0_ITLB_load_access 67370
Core_0_ITLB_load_hit 67370
Core_0_ITLB_load_miss 0
Core_0_ITLB_load_MPKI 0
Core_0_ITLB_load_miss_rate 0
Core_0_ITLB_rfo_access 0
Core_0_ITLB_rfo_hit 0
Core_0_ITLB_rfo_miss 0
Core_0_ITLB_rfo_MPKI 0
Core_0_ITLB_rfo_miss_rate 0
Core_0_ITLB_prefetch_access 0
Core_0_ITLB_prefetch_hit 0
Core_0_ITLB_prefetch_miss 0
Core_0_ITLB_prefetch_MPKI 0
Core_0_ITLB_prefetch_miss_rate 0
Core_0_ITLB_writeback_access 0
Core_0_ITLB_writeback_hit 0
Core_0_ITLB_writeback_miss 0
Core_0_ITLB_writeback_MPKI 0
Core_0_ITLB_writeback_miss_rate 0
Core_0_ITLB_prefetch_requested 0
Core_0_ITLB_prefetch_issued 0
Core_0_ITLB_prefetch_useful 0
Core_0_ITLB_prefetch_useless 0
Core_0_ITLB_prefetch_late 0
Core_0_ITLB_prefetch_accuracy 0
Core_0_ITLB_prefetch_coverage 0

Core_0_DTLB_total_access 13619551
Core_0_DTLB_total_hit 13595210
Core_0_DTLB_total_miss 24341
Core_0_DTLB_total_MPKI 0.48682
Core_0_DTLB_total_miss_rate 0.00178721
Core_0_DTLB_demand_access 13619551
Core_0_DTLB_demand_hit 13595210
Core_0_DTLB_demand_miss 24341
Core_0_DTLB_demand_MPKI 0.48682
Core_0_DTLB_demand_miss_rate 0.00178721
Core_0_DTLB_load_access 13619551
Core_0_DTLB_load_hit 13595210
Core_0_DTLB_load_miss 24341
Core_0_DTLB_load_MPKI 0.48682
Core_0_DTLB_load_miss_rate 0.00178721
Core_0_DTLB_rfo_access 0
Core_0_DTLB_rfo_hit 0
Core_0_DTLB_rfo_miss 0
Core_0_DTLB_rfo_MPKI 0
Core_0_DTLB_rfo_miss_rate 0
Core_0_DTLB_prefetch_access 0
Core_0_DTLB_prefetch_hit 0
Core_0_DTLB_prefetch_miss 0
Core_0_DTLB_prefetch_MPKI 0
Core_0_DTLB_prefetch_miss_rate 0
Core_0_DTLB_writeback_access 0
Core_0_DTLB_writeback_hit 0
Core_0_DTLB_writeback_miss 0
Core_0_DTLB_writeback_MPKI 0
Core_0_DTLB_writeback_miss_rate 0
Core_0_DTLB_prefetch_requested 0
Core_0_DTLB_prefetch_issued 0
Core_0_DTLB_prefetch_useful 0
Core_0_DTLB_prefetch_useless 0
Core_0_DTLB_prefetch_late 0
Core_0_DTLB_prefetch_accuracy 0
Core_0_DTLB_prefetch_coverage 0

Core_0_STLB_total_access 22339
Core_0_STLB_total_hit 22256
Core_0_STLB_total_miss 83
Core_0_STLB_total_MPKI 0.00166
Core_0_STLB_total_miss_rate 0.00371548
Core_0_STLB_demand_access 22339
Core_0_STLB_demand_hit 22256
Core_0_STLB_demand_miss 83
Core_0_STLB_demand_MPKI 0.00166
Core_0_STLB_demand_miss_rate 0.00371548
Core_0_STLB_load_access 22339
Core_0_STLB_load_hit 22256
Core_0_STLB_load_miss 83
Core_0_STLB_load_MPKI 0.00166
Core_0_STLB_load_miss_rate 0.00371548
Core_0_STLB_rfo_access 0
Core_0_STLB_rfo_hit 0
Core_0_STLB_rfo_miss 0
Core_0_STLB_rfo_MPKI 0
Core_0_STLB_rfo_miss_rate 0
Core_0_STLB_prefetch_access 0
Core_0_STLB_prefetch_hit 0
Core_0_STLB_prefetch_miss 0
Core_0_STLB_prefetch_MPKI 0
Core_0_STLB_prefetch_miss_rate 0
Core_0_STLB_writeback_access 0
Core_0_STLB_writeback_hit 0
Core_0_STLB_writeback_miss 0
Core_0_STLB_writeback_MPKI 0
Core_0_STLB_writeback_miss_rate 0
Core_0_STLB_prefetch_requested 0
Core_0_STLB_prefetch_issued 0
Core_0_STLB_prefetch_useful 0
Core_0_STLB_prefetch_useless 0
Core_0_STLB_prefetch_late 0
Core_0_STLB_prefetch_accuracy 0
Core_0_STLB_prefetch_coverage 0

Core_0_L1I_total_access 69830
Core_0_L1I_total_hit 69786
Core_0_L1I_total_miss 44
Core_0_L1I_total_MPKI 0.00088
Core_0_L1I_total_miss_rate 0.000630102
Core_0_L1I_demand_access 69830
Core_0_L1I_demand_hit 69786
Core_0_L1I_demand_miss 44
Core_0_L1I_demand_MPKI 0.00088
Core_0_L1I_demand_miss_rate 0.000630102
Core_0_L1I_load_access 69830
Core_0_L1I_load_hit 69786
Core_0_L1I_load_miss 44
Core_0_L1I_load_MPKI 0.00088
Core_0_L1I_load_miss_rate 0.000630102
Core_0_L1I_rfo_access 0
Core_0_L1I_rfo_hit 0
Core_0_L1I_rfo_miss 0
Core_0_L1I_rfo_MPKI 0
Core_0_L1I_rfo_miss_rate 0
Core_0_L1I_prefetch_access 0
Core_0_L1I_prefetch_hit 0
Core_0_L1I_prefetch_miss 0
Core_0_L1I_prefetch_MPKI 0
Core_0_L1I_prefetch_miss_rate 0
Core_0_L1I_writeback_access 0
Core_0_L1I_writeback_hit 0
Core_0_L1I_writeback_miss 0
Core_0_L1I_writeback_MPKI 0
Core_0_L1I_writeback_miss_rate 0
Core_0_L1I_prefetch_requested 0
Core_0_L1I_prefetch_issued 0
Core_0_L1I_prefetch_useful 0
Core_0_L1I_prefetch_useless 0
Core_0_L1I_prefetch_late 0
Core_0_L1I_prefetch_accuracy 0
Core_0_L1I_prefetch_coverage 0

Core_0_L1D_total_access 14538334
Core_0_L1D_total_hit 14375481
Core_0_L1D_total_miss 162853
Core_0_L1D_total_MPKI 3.25706
Core_0_L1D_total_miss_rate 0.0112016
Core_0_L1D_demand_access 8743704
Core_0_L1D_demand_hit 8679607
Core_0_L1D_demand_miss 64097
Core_0_L1D_demand_MPKI 1.28194
Core_0_L1D_demand_miss_rate 0.00733065
Core_0_L1D_load_access 8743704
Core_0_L1D_load_hit 8679607
Core_0_L1D_load_miss 64097
Core_0_L1D_load_MPKI 1.28194
Core_0_L1D_load_miss_rate 0.00733065
Core_0_L1D_rfo_access 0
Core_0_L1D_rfo_hit 0
Core_0_L1D_rfo_miss 0
Core_0_L1D_rfo_MPKI 0
Core_0_L1D_rfo_miss_rate 0
Core_0_L1D_prefetch_access 132064
Core_0_L1D_prefetch_hit 56802
Core_0_L1D_prefetch_miss 75262
Core_0_L1D_prefetch_MPKI 1.50524
Core_0_L1D_prefetch_miss_rate 0.56989
Core_0_L1D_writeback_access 5662566
Core_0_L1D_writeback_hit 5639072
Core_0_L1D_writeback_miss 23494
Core_0_L1D_writeback_MPKI 0.46988
Core_0_L1D_writeback_miss_rate 0.004149
Core_0_L1D_prefetch_requested 140927
Core_0_L1D_prefetch_issued 132057
Core_0_L1D_prefetch_useful 49039
Core_0_L1D_prefetch_useless 25451
Core_0_L1D_prefetch_late 5158
Core_0_L1D_prefetch_accuracy 0.371347
Core_0_L1D_prefetch_coverage 0.433452

Core_0_L2C_total_access 442272
Core_0_L2C_total_hit 434167
Core_0_L2C_total_miss 8105
Core_0_L2C_total_MPKI 0.1621
Core_0_L2C_total_miss_rate 0.0183258
Core_0_L2C_demand_access 65160
Core_0_L2C_demand_hit 63723
Core_0_L2C_demand_miss 1437
Core_0_L2C_demand_MPKI 0.02874
Core_0_L2C_demand_miss_rate 0.0220534
Core_0_L2C_load_access 55634
Core_0_L2C_load_hit 54276
Core_0_L2C_load_miss 1358
Core_0_L2C_load_MPKI 0.02716
Core_0_L2C_load_miss_rate 0.0244095
Core_0_L2C_rfo_access 9526
Core_0_L2C_rfo_hit 9447
Core_0_L2C_rfo_miss 79
Core_0_L2C_rfo_MPKI 0.00158
Core_0_L2C_rfo_miss_rate 0.00829309
Core_0_L2C_prefetch_access 356423
Core_0_L2C_prefetch_hit 349755
Core_0_L2C_prefetch_miss 6668
Core_0_L2C_prefetch_MPKI 0.13336
Core_0_L2C_prefetch_miss_rate 0.0187081
Core_0_L2C_writeback_access 20689
Core_0_L2C_writeback_hit 20689
Core_0_L2C_writeback_miss 0
Core_0_L2C_writeback_MPKI 0
Core_0_L2C_writeback_miss_rate 0
Core_0_L2C_prefetch_requested 286041
Core_0_L2C_prefetch_issued 281903
Core_0_L2C_prefetch_useful 1707
Core_0_L2C_prefetch_useless 2883
Core_0_L2C_prefetch_late 7
Core_0_L2C_prefetch_accuracy 0.00605527
Core_0_L2C_prefetch_coverage 0.542939

Core_0_LLC_total_access 7498
Core_0_LLC_total_hit 4316
Core_0_LLC_total_miss 3182
Core_0_LLC_total_MPKI 0.06364
Core_0_LLC_total_miss_rate 0.42438
Core_0_LLC_demand_access 1430
Core_0_LLC_demand_hit 975
Core_0_LLC_demand_miss 455
Core_0_LLC_demand_MPKI 0.0091
Core_0_LLC_demand_miss_rate 0.318182
Core_0_LLC_load_access 1356
Core_0_LLC_load_hit 954
Core_0_LLC_load_miss 402
Core_0_LLC_load_MPKI 0.00804
Core_0_LLC_load_miss_rate 0.29646
Core_0_LLC_rfo_access 74
Core_0_LLC_rfo_hit 21
Core_0_LLC_rfo_miss 53
Core_0_LLC_rfo_MPKI 0.00106
Core_0_LLC_rfo_miss_rate 0.716216
Core_0_LLC_prefetch_access 5757
Core_0_LLC_prefetch_hit 3030
Core_0_LLC_prefetch_miss 2727
Core_0_LLC_prefetch_MPKI 0.05454
Core_0_LLC_prefetch_miss_rate 0.473684
Core_0_LLC_writeback_access 311
Core_0_LLC_writeback_hit 311
Core_0_LLC_writeback_miss 0
Core_0_LLC_writeback_MPKI 0
Core_0_LLC_writeback_miss_rate 0
Core_0_LLC_prefetch_requested 0
Core_0_LLC_prefetch_issued 0
Core_0_LLC_prefetch_useful 0
Core_0_LLC_prefetch_useless 0
Core_0_LLC_prefetch_late 0
Core_0_LLC_prefetch_accuracy 0
Core_0_LLC_prefetch_coverage 0

[DRAM Statistics]
Channel_0_RQ_row_buffer_hit 82
Channel_0_RQ_row_buffer_miss 3120
Channel_0_WQ_row_buffer_hit 0
Channel_0_WQ_row_buffer_miss 0
Channel_0_WQ_full 0
Channel_0_dbus_congested 2149
DRAM_total_RQ_row_buffer_hit 82
DRAM_total_RQ_row_buffer_miss 3120
DRAM_total_WQ_row_buffer_hit 0
DRAM_total_WQ_row_buffer_miss 0
DRAM_total_WQ_full 0
DRAM_total_dbus_congested 2149
DRAM_avg_congested_cycle 2.45184

======STLB miss causes ========
Core_0_STLB_miss_cause_breakdown
Core_0_STLB_cause_Demand_Data_miss 0
Core_0_STLB_cause_Demand_Data_miss_rate 0
Core_0_STLB_cause_Demand_Instruction_miss 0
Core_0_STLB_cause_Demand_Instruction_miss_rate 0
Core_0_STLB_cause_L1D_Prefetch_miss 83
Core_0_STLB_cause_L1D_Prefetch_miss_rate 0.00371548
Core_0_STLB_cause_L1I_Prefetch_miss 0
Core_0_STLB_cause_L1I_Prefetch_miss_rate 0
Core_0_STLB_cause_Other_miss 0
Core_0_STLB_cause_Other_miss_rate 0
Core_0_STLB_Demand_miss 0
Core_0_STLB_Demand_miss_rate 0
Core_0_STLB_L1D_Prefetch_miss 83
Core_0_STLB_L1D_Prefetch_miss_rate 0.00371548
Core_0_STLB_Other_miss 0
Core_0_STLB_Other_miss_rate 0
