[VMEM] WARNING: physical memory size is smaller than virtual memory size.

*** ChampSim Multicore Out-of-Order Simulator ***
Warmup Instructions: 20000000
Simulation Instructions: 50000000
Number of CPUs: 1
Page size: 4096
STLB ideal mode: demand
Core 0: /data0/tzh/champsim_traces/SPEC17/641.leela_s-149B.champsimtrace.xz
 L1D Berti prefetcher
Off-chip DRAM Size: 4 GiB Channels: 1 Width: 64-bit Data Rate: 3205 MT/s
Warmup halting CPU 0 at instruction 20000001 cycle 4751489 for remainder of phase
Warmup finished CPU 0 instructions: 20000001 cycles: 4751489 cumulative IPC: 4.209 (Simulation time: 00 hr 00 min 57 sec)
Warmup complete CPU 0 instructions: 20000001 cycles: 4751489 cumulative IPC: 4.209 (Simulation time: 00 hr 00 min 57 sec)
Simulation finished CPU 0 instructions: 50000002 cycles: 30971926 cumulative IPC: 1.614 (Simulation time: 00 hr 04 min 26 sec)
Simulation complete CPU 0 instructions: 50000002 cycles: 30971926 cumulative IPC: 1.614 (Simulation time: 00 hr 04 min 26 sec)

ChampSim completed all CPUs

=== Simulation ===
CPU 0 runs /data0/tzh/champsim_traces/SPEC17/641.leela_s-149B.champsimtrace.xz

Region of Interest Statistics

CPU 0 cumulative IPC: 1.614 instructions: 50000002 cycles: 30971926
CPU 0 Branch Prediction Accuracy: 89.09% MPKI: 18.07 Average ROB Occupancy at Mispredict: 27.31
Branch type MPKI
BRANCH_DIRECT_JUMP: 0.1097
BRANCH_INDIRECT: 0.00394
BRANCH_CONDITIONAL: 17.93
BRANCH_DIRECT_CALL: 0.0003
BRANCH_INDIRECT_CALL: 4e-05
BRANCH_RETURN: 0.02538

cpu0->cpu0_STLB TOTAL        ACCESS:      20796 HIT:      20655 MISS:        141 MSHR_MERGE:          0
cpu0->cpu0_STLB LOAD         ACCESS:      20796 HIT:      20655 MISS:        141 MSHR_MERGE:          0
cpu0->cpu0_STLB RFO          ACCESS:          0 HIT:          0 MISS:          0 MSHR_MERGE:          0
cpu0->cpu0_STLB PREFETCH     ACCESS:          0 HIT:          0 MISS:          0 MSHR_MERGE:          0
cpu0->cpu0_STLB WRITE        ACCESS:          0 HIT:          0 MISS:          0 MSHR_MERGE:          0
cpu0->cpu0_STLB TRANSLATION  ACCESS:          0 HIT:          0 MISS:          0 MSHR_MERGE:          0
cpu0->cpu0_STLB PREFETCH REQUESTED:          0 ISSUED:          0 USEFUL:          0 USELESS:          0 LATE:          0
cpu0->cpu0_STLB AVERAGE MISS LATENCY: 117.6 cycles
cpu0->cpu0_L2C TOTAL        ACCESS:     262659 HIT:     227001 MISS:      35658 MSHR_MERGE:       6829
cpu0->cpu0_L2C LOAD         ACCESS:      42979 HIT:      39329 MISS:       3650 MSHR_MERGE:        102
cpu0->cpu0_L2C RFO          ACCESS:      15025 HIT:      11090 MISS:       3935 MSHR_MERGE:          1
cpu0->cpu0_L2C PREFETCH     ACCESS:     170129 HIT:     142157 MISS:      27972 MSHR_MERGE:       6726
cpu0->cpu0_L2C WRITE        ACCESS:      34388 HIT:      34379 MISS:          9 MSHR_MERGE:          0
cpu0->cpu0_L2C TRANSLATION  ACCESS:        138 HIT:         46 MISS:         92 MSHR_MERGE:          0
cpu0->cpu0_L2C PREFETCH REQUESTED:     128063 ISSUED:     127390 USEFUL:      14254 USELESS:       3071 LATE:        103
cpu0->cpu0_L2C AVERAGE MISS LATENCY: 39.1 cycles
cpu0->cpu0_L1I TOTAL        ACCESS:     329583 HIT:     329327 MISS:        256 MSHR_MERGE:         89
cpu0->cpu0_L1I LOAD         ACCESS:     329583 HIT:     329327 MISS:        256 MSHR_MERGE:         89
cpu0->cpu0_L1I RFO          ACCESS:          0 HIT:          0 MISS:          0 MSHR_MERGE:          0
cpu0->cpu0_L1I PREFETCH     ACCESS:          0 HIT:          0 MISS:          0 MSHR_MERGE:          0
cpu0->cpu0_L1I WRITE        ACCESS:          0 HIT:          0 MISS:          0 MSHR_MERGE:          0
cpu0->cpu0_L1I TRANSLATION  ACCESS:          0 HIT:          0 MISS:          0 MSHR_MERGE:          0
cpu0->cpu0_L1I PREFETCH REQUESTED:          0 ISSUED:          0 USEFUL:          0 USELESS:          0 LATE:          0
cpu0->cpu0_L1I AVERAGE MISS LATENCY: 56.87 cycles
cpu0->cpu0_L1D TOTAL        ACCESS:   14973915 HIT:   14835870 MISS:     138045 MSHR_MERGE:      37327
cpu0->cpu0_L1D LOAD         ACCESS:    8707511 HIT:    8657939 MISS:      49572 MSHR_MERGE:       6756
cpu0->cpu0_L1D RFO          ACCESS:          0 HIT:          0 MISS:          0 MSHR_MERGE:          0
cpu0->cpu0_L1D PREFETCH     ACCESS:     182078 HIT:     138029 MISS:      44049 MSHR_MERGE:       1310
cpu0->cpu0_L1D WRITE        ACCESS:    6084043 HIT:    6039757 MISS:      44286 MSHR_MERGE:      29261
cpu0->cpu0_L1D TRANSLATION  ACCESS:        283 HIT:        145 MISS:        138 MSHR_MERGE:          0
cpu0->cpu0_L1D PREFETCH REQUESTED:     199232 ISSUED:     182078 USEFUL:      25507 USELESS:      17191 LATE:       1695
cpu0->cpu0_L1D AVERAGE MISS LATENCY: 13.28 cycles
cpu0->cpu0_ITLB TOTAL        ACCESS:     326183 HIT:     326179 MISS:          4 MSHR_MERGE:          2
cpu0->cpu0_ITLB LOAD         ACCESS:     326183 HIT:     326179 MISS:          4 MSHR_MERGE:          2
cpu0->cpu0_ITLB RFO          ACCESS:          0 HIT:          0 MISS:          0 MSHR_MERGE:          0
cpu0->cpu0_ITLB PREFETCH     ACCESS:          0 HIT:          0 MISS:          0 MSHR_MERGE:          0
cpu0->cpu0_ITLB WRITE        ACCESS:          0 HIT:          0 MISS:          0 MSHR_MERGE:          0
cpu0->cpu0_ITLB TRANSLATION  ACCESS:          0 HIT:          0 MISS:          0 MSHR_MERGE:          0
cpu0->cpu0_ITLB PREFETCH REQUESTED:          0 ISSUED:          0 USEFUL:          0 USELESS:          0 LATE:          0
cpu0->cpu0_ITLB AVERAGE MISS LATENCY: 5 cycles
cpu0->cpu0_DTLB TOTAL        ACCESS:   14065736 HIT:   14042581 MISS:      23155 MSHR_MERGE:       2361
cpu0->cpu0_DTLB LOAD         ACCESS:   14065736 HIT:   14042581 MISS:      23155 MSHR_MERGE:       2361
cpu0->cpu0_DTLB RFO          ACCESS:          0 HIT:          0 MISS:          0 MSHR_MERGE:          0
cpu0->cpu0_DTLB PREFETCH     ACCESS:          0 HIT:          0 MISS:          0 MSHR_MERGE:          0
cpu0->cpu0_DTLB WRITE        ACCESS:          0 HIT:          0 MISS:          0 MSHR_MERGE:          0
cpu0->cpu0_DTLB TRANSLATION  ACCESS:          0 HIT:          0 MISS:          0 MSHR_MERGE:          0
cpu0->cpu0_DTLB PREFETCH REQUESTED:          0 ISSUED:          0 USEFUL:          0 USELESS:          0 LATE:          0
cpu0->cpu0_DTLB AVERAGE MISS LATENCY: 5.804 cycles
cpu0->LLC TOTAL        ACCESS:      47834 HIT:      41263 MISS:       6571 MSHR_MERGE:          0
cpu0->LLC LOAD         ACCESS:       3548 HIT:       2695 MISS:        853 MSHR_MERGE:          0
cpu0->LLC RFO          ACCESS:       3934 HIT:       3616 MISS:        318 MSHR_MERGE:          0
cpu0->LLC PREFETCH     ACCESS:      21246 HIT:      17095 MISS:       4151 MSHR_MERGE:          0
cpu0->LLC WRITE        ACCESS:      19014 HIT:      17804 MISS:       1210 MSHR_MERGE:          0
cpu0->LLC TRANSLATION  ACCESS:         92 HIT:         53 MISS:         39 MSHR_MERGE:          0
cpu0->LLC PREFETCH REQUESTED:          0 ISSUED:          0 USEFUL:          0 USELESS:          0 LATE:          0
cpu0->LLC AVERAGE MISS LATENCY: 79.08 cycles

DRAM Statistics

Channel 0 RQ ROW_BUFFER_HIT:        106
  ROW_BUFFER_MISS:       5251
  AVG DBUS CONGESTED CYCLE: 9.297
Channel 0 WQ ROW_BUFFER_HIT:        141
  ROW_BUFFER_MISS:       1711
  FULL:          0
Channel 0 REFRESHES ISSUED:       2581

[ROI Statistics]
[System Configuration]
num_cpus 1
cpu_freq 4000
fetch_width 6
decode_width 6
dispatch_width 6
execute_width 6
lq_width 2
sq_width 2
retire_width 6
scheduler_size 160
branch_mispredict_penalty 1
rob_size 352
lq_size 240
sq_size 112
ifetch_buffer_size 64
decode_buffer_size 32
dispatch_buffer_size 32
register_file_size 288
decode_latency 1
dispatch_latency 1
schedule_latency 0
execute_latency 0
page_size 4096
block_size 64
core_0_itlb_set 16
core_0_itlb_way 4
core_0_itlb_rq_size 16
core_0_itlb_wq_size 16
core_0_itlb_pq_size 0
core_0_itlb_mshr_size 8
core_0_itlb_hit_latency 1
core_0_itlb_fill_latency 1
core_0_itlb_max_tag_check 2
core_0_itlb_max_fill 2
core_0_dtlb_set 16
core_0_dtlb_way 4
core_0_dtlb_rq_size 16
core_0_dtlb_wq_size 16
core_0_dtlb_pq_size 0
core_0_dtlb_mshr_size 8
core_0_dtlb_hit_latency 1
core_0_dtlb_fill_latency 1
core_0_dtlb_max_tag_check 2
core_0_dtlb_max_fill 2
core_0_stlb_set 128
core_0_stlb_way 12
core_0_stlb_rq_size 32
core_0_stlb_wq_size 32
core_0_stlb_pq_size 0
core_0_stlb_mshr_size 16
core_0_stlb_hit_latency 4
core_0_stlb_fill_latency 4
core_0_stlb_max_tag_check 1
core_0_stlb_max_fill 1
core_0_l1i_set 64
core_0_l1i_way 8
core_0_l1i_rq_size 64
core_0_l1i_wq_size 64
core_0_l1i_pq_size 32
core_0_l1i_mshr_size 8
core_0_l1i_hit_latency 2
core_0_l1i_fill_latency 2
core_0_l1i_max_tag_check 2
core_0_l1i_max_fill 2
core_0_l1d_set 64
core_0_l1d_way 12
core_0_l1d_rq_size 64
core_0_l1d_wq_size 64
core_0_l1d_pq_size 8
core_0_l1d_mshr_size 16
core_0_l1d_hit_latency 2
core_0_l1d_fill_latency 3
core_0_l1d_max_tag_check 2
core_0_l1d_max_fill 2
core_0_l2c_set 1024
core_0_l2c_way 8
core_0_l2c_rq_size 32
core_0_l2c_wq_size 32
core_0_l2c_pq_size 16
core_0_l2c_mshr_size 32
core_0_l2c_hit_latency 5
core_0_l2c_fill_latency 5
core_0_l2c_max_tag_check 1
core_0_l2c_max_fill 1
llc_set 2048
llc_way 16
llc_rq_size 32
llc_wq_size 32
llc_pq_size 32
llc_mshr_size 64
llc_hit_latency 10
llc_fill_latency 10
llc_max_tag_check 1
llc_max_fill 1
dram_channels 1
dram_ranks 1
dram_bankgroups 8
dram_banks 4
dram_rows 16384
dram_columns 1024
dram_channel_width 8
dram_rq_size 64
dram_wq_size 64
dram_size 4294967296
core_0_itlb_prefetcher no
core_0_dtlb_prefetcher no
core_0_stlb_prefetcher no
core_0_l1i_prefetcher next_line
core_0_l1d_prefetcher berti
core_0_l2c_prefetcher pythia
llc_prefetcher no
llc_replacement drrip

Core_0_instructions 50000002
Core_0_cycles 30971926
Core_0_IPC 1.61437
Core_0_branch_prediction_accuracy 89.0926
Core_0_branch_MPKI 18.0676
Core_0_average_ROB_occupancy_at_mispredict 27.3079

Core_0_ITLB_total_access 326183
Core_0_ITLB_total_hit 326179
Core_0_ITLB_total_miss 4
Core_0_ITLB_total_MPKI 8e-05
Core_0_ITLB_total_miss_rate 1.22631e-05
Core_0_ITLB_demand_access 326183
Core_0_ITLB_demand_hit 326179
Core_0_ITLB_demand_miss 4
Core_0_ITLB_demand_MPKI 8e-05
Core_0_ITLB_demand_miss_rate 1.22631e-05
Core_0_ITLB_load_access 326183
Core_0_ITLB_load_hit 326179
Core_0_ITLB_load_miss 4
Core_0_ITLB_load_MPKI 8e-05
Core_0_ITLB_load_miss_rate 1.22631e-05
Core_0_ITLB_rfo_access 0
Core_0_ITLB_rfo_hit 0
Core_0_ITLB_rfo_miss 0
Core_0_ITLB_rfo_MPKI 0
Core_0_ITLB_rfo_miss_rate 0
Core_0_ITLB_prefetch_access 0
Core_0_ITLB_prefetch_hit 0
Core_0_ITLB_prefetch_miss 0
Core_0_ITLB_prefetch_MPKI 0
Core_0_ITLB_prefetch_miss_rate 0
Core_0_ITLB_writeback_access 0
Core_0_ITLB_writeback_hit 0
Core_0_ITLB_writeback_miss 0
Core_0_ITLB_writeback_MPKI 0
Core_0_ITLB_writeback_miss_rate 0
Core_0_ITLB_prefetch_requested 0
Core_0_ITLB_prefetch_issued 0
Core_0_ITLB_prefetch_useful 0
Core_0_ITLB_prefetch_useless 0
Core_0_ITLB_prefetch_late 0
Core_0_ITLB_prefetch_accuracy 0
Core_0_ITLB_prefetch_coverage 0

Core_0_DTLB_total_access 14065736
Core_0_DTLB_total_hit 14042581
Core_0_DTLB_total_miss 23155
Core_0_DTLB_total_MPKI 0.4631
Core_0_DTLB_total_miss_rate 0.0016462
Core_0_DTLB_demand_access 14065736
Core_0_DTLB_demand_hit 14042581
Core_0_DTLB_demand_miss 23155
Core_0_DTLB_demand_MPKI 0.4631
Core_0_DTLB_demand_miss_rate 0.0016462
Core_0_DTLB_load_access 14065736
Core_0_DTLB_load_hit 14042581
Core_0_DTLB_load_miss 23155
Core_0_DTLB_load_MPKI 0.4631
Core_0_DTLB_load_miss_rate 0.0016462
Core_0_DTLB_rfo_access 0
Core_0_DTLB_rfo_hit 0
Core_0_DTLB_rfo_miss 0
Core_0_DTLB_rfo_MPKI 0
Core_0_DTLB_rfo_miss_rate 0
Core_0_DTLB_prefetch_access 0
Core_0_DTLB_prefetch_hit 0
Core_0_DTLB_prefetch_miss 0
Core_0_DTLB_prefetch_MPKI 0
Core_0_DTLB_prefetch_miss_rate 0
Core_0_DTLB_writeback_access 0
Core_0_DTLB_writeback_hit 0
Core_0_DTLB_writeback_miss 0
Core_0_DTLB_writeback_MPKI 0
Core_0_DTLB_writeback_miss_rate 0
Core_0_DTLB_prefetch_requested 0
Core_0_DTLB_prefetch_issued 0
Core_0_DTLB_prefetch_useful 0
Core_0_DTLB_prefetch_useless 0
Core_0_DTLB_prefetch_late 0
Core_0_DTLB_prefetch_accuracy 0
Core_0_DTLB_prefetch_coverage 0

Core_0_STLB_total_access 20796
Core_0_STLB_total_hit 20655
Core_0_STLB_total_miss 141
Core_0_STLB_total_MPKI 0.00282
Core_0_STLB_total_miss_rate 0.00678015
Core_0_STLB_demand_access 20796
Core_0_STLB_demand_hit 20655
Core_0_STLB_demand_miss 141
Core_0_STLB_demand_MPKI 0.00282
Core_0_STLB_demand_miss_rate 0.00678015
Core_0_STLB_load_access 20796
Core_0_STLB_load_hit 20655
Core_0_STLB_load_miss 141
Core_0_STLB_load_MPKI 0.00282
Core_0_STLB_load_miss_rate 0.00678015
Core_0_STLB_rfo_access 0
Core_0_STLB_rfo_hit 0
Core_0_STLB_rfo_miss 0
Core_0_STLB_rfo_MPKI 0
Core_0_STLB_rfo_miss_rate 0
Core_0_STLB_prefetch_access 0
Core_0_STLB_prefetch_hit 0
Core_0_STLB_prefetch_miss 0
Core_0_STLB_prefetch_MPKI 0
Core_0_STLB_prefetch_miss_rate 0
Core_0_STLB_writeback_access 0
Core_0_STLB_writeback_hit 0
Core_0_STLB_writeback_miss 0
Core_0_STLB_writeback_MPKI 0
Core_0_STLB_writeback_miss_rate 0
Core_0_STLB_prefetch_requested 0
Core_0_STLB_prefetch_issued 0
Core_0_STLB_prefetch_useful 0
Core_0_STLB_prefetch_useless 0
Core_0_STLB_prefetch_late 0
Core_0_STLB_prefetch_accuracy 0
Core_0_STLB_prefetch_coverage 0

Core_0_L1I_total_access 329583
Core_0_L1I_total_hit 329327
Core_0_L1I_total_miss 256
Core_0_L1I_total_MPKI 0.00512
Core_0_L1I_total_miss_rate 0.000776739
Core_0_L1I_demand_access 329583
Core_0_L1I_demand_hit 329327
Core_0_L1I_demand_miss 256
Core_0_L1I_demand_MPKI 0.00512
Core_0_L1I_demand_miss_rate 0.000776739
Core_0_L1I_load_access 329583
Core_0_L1I_load_hit 329327
Core_0_L1I_load_miss 256
Core_0_L1I_load_MPKI 0.00512
Core_0_L1I_load_miss_rate 0.000776739
Core_0_L1I_rfo_access 0
Core_0_L1I_rfo_hit 0
Core_0_L1I_rfo_miss 0
Core_0_L1I_rfo_MPKI 0
Core_0_L1I_rfo_miss_rate 0
Core_0_L1I_prefetch_access 0
Core_0_L1I_prefetch_hit 0
Core_0_L1I_prefetch_miss 0
Core_0_L1I_prefetch_MPKI 0
Core_0_L1I_prefetch_miss_rate 0
Core_0_L1I_writeback_access 0
Core_0_L1I_writeback_hit 0
Core_0_L1I_writeback_miss 0
Core_0_L1I_writeback_MPKI 0
Core_0_L1I_writeback_miss_rate 0
Core_0_L1I_prefetch_requested 0
Core_0_L1I_prefetch_issued 0
Core_0_L1I_prefetch_useful 0
Core_0_L1I_prefetch_useless 0
Core_0_L1I_prefetch_late 0
Core_0_L1I_prefetch_accuracy 0
Core_0_L1I_prefetch_coverage 0

Core_0_L1D_total_access 14973632
Core_0_L1D_total_hit 14835725
Core_0_L1D_total_miss 137907
Core_0_L1D_total_MPKI 2.75814
Core_0_L1D_total_miss_rate 0.00920999
Core_0_L1D_demand_access 8707511
Core_0_L1D_demand_hit 8657939
Core_0_L1D_demand_miss 49572
Core_0_L1D_demand_MPKI 0.99144
Core_0_L1D_demand_miss_rate 0.00569302
Core_0_L1D_load_access 8707511
Core_0_L1D_load_hit 8657939
Core_0_L1D_load_miss 49572
Core_0_L1D_load_MPKI 0.99144
Core_0_L1D_load_miss_rate 0.00569302
Core_0_L1D_rfo_access 0
Core_0_L1D_rfo_hit 0
Core_0_L1D_rfo_miss 0
Core_0_L1D_rfo_MPKI 0
Core_0_L1D_rfo_miss_rate 0
Core_0_L1D_prefetch_access 182078
Core_0_L1D_prefetch_hit 138029
Core_0_L1D_prefetch_miss 44049
Core_0_L1D_prefetch_MPKI 0.88098
Core_0_L1D_prefetch_miss_rate 0.241924
Core_0_L1D_writeback_access 6084043
Core_0_L1D_writeback_hit 6039757
Core_0_L1D_writeback_miss 44286
Core_0_L1D_writeback_MPKI 0.88572
Core_0_L1D_writeback_miss_rate 0.00727904
Core_0_L1D_prefetch_requested 199232
Core_0_L1D_prefetch_issued 182078
Core_0_L1D_prefetch_useful 25507
Core_0_L1D_prefetch_useless 17191
Core_0_L1D_prefetch_late 1695
Core_0_L1D_prefetch_accuracy 0.140088
Core_0_L1D_prefetch_coverage 0.339735

Core_0_L2C_total_access 262521
Core_0_L2C_total_hit 226955
Core_0_L2C_total_miss 35566
Core_0_L2C_total_MPKI 0.71132
Core_0_L2C_total_miss_rate 0.135479
Core_0_L2C_demand_access 58004
Core_0_L2C_demand_hit 50419
Core_0_L2C_demand_miss 7585
Core_0_L2C_demand_MPKI 0.1517
Core_0_L2C_demand_miss_rate 0.130767
Core_0_L2C_load_access 42979
Core_0_L2C_load_hit 39329
Core_0_L2C_load_miss 3650
Core_0_L2C_load_MPKI 0.073
Core_0_L2C_load_miss_rate 0.0849252
Core_0_L2C_rfo_access 15025
Core_0_L2C_rfo_hit 11090
Core_0_L2C_rfo_miss 3935
Core_0_L2C_rfo_MPKI 0.0787
Core_0_L2C_rfo_miss_rate 0.261897
Core_0_L2C_prefetch_access 170129
Core_0_L2C_prefetch_hit 142157
Core_0_L2C_prefetch_miss 27972
Core_0_L2C_prefetch_MPKI 0.55944
Core_0_L2C_prefetch_miss_rate 0.164416
Core_0_L2C_writeback_access 34388
Core_0_L2C_writeback_hit 34379
Core_0_L2C_writeback_miss 9
Core_0_L2C_writeback_MPKI 0.00018
Core_0_L2C_writeback_miss_rate 0.000261719
Core_0_L2C_prefetch_requested 128063
Core_0_L2C_prefetch_issued 127390
Core_0_L2C_prefetch_useful 14254
Core_0_L2C_prefetch_useless 3071
Core_0_L2C_prefetch_late 103
Core_0_L2C_prefetch_accuracy 0.111893
Core_0_L2C_prefetch_coverage 0.652686

Core_0_LLC_total_access 47742
Core_0_LLC_total_hit 41210
Core_0_LLC_total_miss 6532
Core_0_LLC_total_MPKI 0.13064
Core_0_LLC_total_miss_rate 0.136819
Core_0_LLC_demand_access 7482
Core_0_LLC_demand_hit 6311
Core_0_LLC_demand_miss 1171
Core_0_LLC_demand_MPKI 0.02342
Core_0_LLC_demand_miss_rate 0.156509
Core_0_LLC_load_access 3548
Core_0_LLC_load_hit 2695
Core_0_LLC_load_miss 853
Core_0_LLC_load_MPKI 0.01706
Core_0_LLC_load_miss_rate 0.240417
Core_0_LLC_rfo_access 3934
Core_0_LLC_rfo_hit 3616
Core_0_LLC_rfo_miss 318
Core_0_LLC_rfo_MPKI 0.00636
Core_0_LLC_rfo_miss_rate 0.0808338
Core_0_LLC_prefetch_access 21246
Core_0_LLC_prefetch_hit 17095
Core_0_LLC_prefetch_miss 4151
Core_0_LLC_prefetch_MPKI 0.08302
Core_0_LLC_prefetch_miss_rate 0.195378
Core_0_LLC_writeback_access 19014
Core_0_LLC_writeback_hit 17804
Core_0_LLC_writeback_miss 1210
Core_0_LLC_writeback_MPKI 0.0242
Core_0_LLC_writeback_miss_rate 0.0636373
Core_0_LLC_prefetch_requested 0
Core_0_LLC_prefetch_issued 0
Core_0_LLC_prefetch_useful 0
Core_0_LLC_prefetch_useless 0
Core_0_LLC_prefetch_late 0
Core_0_LLC_prefetch_accuracy 0
Core_0_LLC_prefetch_coverage 0

[DRAM Statistics]
Channel_0_RQ_row_buffer_hit 106
Channel_0_RQ_row_buffer_miss 5251
Channel_0_WQ_row_buffer_hit 141
Channel_0_WQ_row_buffer_miss 1711
Channel_0_WQ_full 0
Channel_0_dbus_congested 10696
DRAM_total_RQ_row_buffer_hit 106
DRAM_total_RQ_row_buffer_miss 5251
DRAM_total_WQ_row_buffer_hit 141
DRAM_total_WQ_row_buffer_miss 1711
DRAM_total_WQ_full 0
DRAM_total_dbus_congested 10696
DRAM_avg_congested_cycle 9.29731

======STLB miss causes ========
Core_0_STLB_miss_cause_breakdown
Core_0_STLB_cause_Demand_Data_miss 0
Core_0_STLB_cause_Demand_Data_miss_rate 0
Core_0_STLB_cause_Demand_Instruction_miss 0
Core_0_STLB_cause_Demand_Instruction_miss_rate 0
Core_0_STLB_cause_L1D_Prefetch_miss 141
Core_0_STLB_cause_L1D_Prefetch_miss_rate 0.00678015
Core_0_STLB_cause_L1I_Prefetch_miss 0
Core_0_STLB_cause_L1I_Prefetch_miss_rate 0
Core_0_STLB_cause_Other_miss 0
Core_0_STLB_cause_Other_miss_rate 0
Core_0_STLB_Demand_miss 0
Core_0_STLB_Demand_miss_rate 0
Core_0_STLB_L1D_Prefetch_miss 141
Core_0_STLB_L1D_Prefetch_miss_rate 0.00678015
Core_0_STLB_Other_miss 0
Core_0_STLB_Other_miss_rate 0
