[VMEM] WARNING: physical memory size is smaller than virtual memory size.

*** ChampSim Multicore Out-of-Order Simulator ***
Warmup Instructions: 20000000
Simulation Instructions: 50000000
Number of CPUs: 1
Page size: 4096
STLB ideal mode: demand
Core 0: /data0/tzh/champsim_traces/SPEC17/654.roms_s-293B.champsimtrace.xz
 L1D Berti prefetcher
Off-chip DRAM Size: 4 GiB Channels: 1 Width: 64-bit Data Rate: 3205 MT/s
Warmup halting CPU 0 at instruction 20000005 cycle 4125133 for remainder of phase
Warmup finished CPU 0 instructions: 20000005 cycles: 4125133 cumulative IPC: 4.848 (Simulation time: 00 hr 00 min 51 sec)
Warmup complete CPU 0 instructions: 20000005 cycles: 4125133 cumulative IPC: 4.848 (Simulation time: 00 hr 00 min 51 sec)
Simulation finished CPU 0 instructions: 50000003 cycles: 15091146 cumulative IPC: 3.313 (Simulation time: 00 hr 04 min 32 sec)
Simulation complete CPU 0 instructions: 50000003 cycles: 15091146 cumulative IPC: 3.313 (Simulation time: 00 hr 04 min 32 sec)

ChampSim completed all CPUs

=== Simulation ===
CPU 0 runs /data0/tzh/champsim_traces/SPEC17/654.roms_s-293B.champsimtrace.xz

Region of Interest Statistics

CPU 0 cumulative IPC: 3.313 instructions: 50000003 cycles: 15091146
CPU 0 Branch Prediction Accuracy: 99.8% MPKI: 0.0237 Average ROB Occupancy at Mispredict: 327.1
Branch type MPKI
BRANCH_DIRECT_JUMP: 0
BRANCH_INDIRECT: 0
BRANCH_CONDITIONAL: 0.0237
BRANCH_DIRECT_CALL: 0
BRANCH_INDIRECT_CALL: 0
BRANCH_RETURN: 0

cpu0->cpu0_STLB TOTAL        ACCESS:      12318 HIT:      10738 MISS:       1580 MSHR_MERGE:          0
cpu0->cpu0_STLB LOAD         ACCESS:      12318 HIT:      10738 MISS:       1580 MSHR_MERGE:          0
cpu0->cpu0_STLB RFO          ACCESS:          0 HIT:          0 MISS:          0 MSHR_MERGE:          0
cpu0->cpu0_STLB PREFETCH     ACCESS:          0 HIT:          0 MISS:          0 MSHR_MERGE:          0
cpu0->cpu0_STLB WRITE        ACCESS:          0 HIT:          0 MISS:          0 MSHR_MERGE:          0
cpu0->cpu0_STLB TRANSLATION  ACCESS:          0 HIT:          0 MISS:          0 MSHR_MERGE:          0
cpu0->cpu0_STLB PREFETCH REQUESTED:          0 ISSUED:          0 USEFUL:          0 USELESS:          0 LATE:          0
cpu0->cpu0_STLB AVERAGE MISS LATENCY: 552 cycles
cpu0->cpu0_L2C TOTAL        ACCESS:    2507985 HIT:    1851297 MISS:     656688 MSHR_MERGE:     155505
cpu0->cpu0_L2C LOAD         ACCESS:      84633 HIT:      77838 MISS:       6795 MSHR_MERGE:       2725
cpu0->cpu0_L2C RFO          ACCESS:     250274 HIT:       1290 MISS:     248984 MSHR_MERGE:          1
cpu0->cpu0_L2C PREFETCH     ACCESS:    1919265 HIT:    1520754 MISS:     398511 MSHR_MERGE:     152779
cpu0->cpu0_L2C WRITE        ACCESS:     250971 HIT:     250808 MISS:        163 MSHR_MERGE:          0
cpu0->cpu0_L2C TRANSLATION  ACCESS:       2842 HIT:        607 MISS:       2235 MSHR_MERGE:          0
cpu0->cpu0_L2C PREFETCH REQUESTED:    1695719 ISSUED:    1672775 USEFUL:     217654 USELESS:      20432 LATE:       2726
cpu0->cpu0_L2C AVERAGE MISS LATENCY: 151.2 cycles
cpu0->cpu0_L1I TOTAL        ACCESS:    8706446 HIT:    8706446 MISS:          0 MSHR_MERGE:          0
cpu0->cpu0_L1I LOAD         ACCESS:    8706446 HIT:    8706446 MISS:          0 MSHR_MERGE:          0
cpu0->cpu0_L1I RFO          ACCESS:          0 HIT:          0 MISS:          0 MSHR_MERGE:          0
cpu0->cpu0_L1I PREFETCH     ACCESS:          0 HIT:          0 MISS:          0 MSHR_MERGE:          0
cpu0->cpu0_L1I WRITE        ACCESS:          0 HIT:          0 MISS:          0 MSHR_MERGE:          0
cpu0->cpu0_L1I TRANSLATION  ACCESS:          0 HIT:          0 MISS:          0 MSHR_MERGE:          0
cpu0->cpu0_L1I PREFETCH REQUESTED:          0 ISSUED:          0 USEFUL:          0 USELESS:          0 LATE:          0
cpu0->cpu0_L1I AVERAGE MISS LATENCY: - cycles
cpu0->cpu0_L1D TOTAL        ACCESS:   12805100 HIT:   11609397 MISS:    1195703 MSHR_MERGE:     611411
cpu0->cpu0_L1D LOAD         ACCESS:    7818312 HIT:    7702199 MISS:     116113 MSHR_MERGE:      31480
cpu0->cpu0_L1D RFO          ACCESS:          0 HIT:          0 MISS:          0 MSHR_MERGE:          0
cpu0->cpu0_L1D PREFETCH     ACCESS:     303850 HIT:      55573 MISS:     248277 MSHR_MERGE:       1787
cpu0->cpu0_L1D WRITE        ACCESS:    4678372 HIT:    3849902 MISS:     828470 MSHR_MERGE:     578143
cpu0->cpu0_L1D TRANSLATION  ACCESS:       4566 HIT:       1723 MISS:       2843 MSHR_MERGE:          1
cpu0->cpu0_L1D PREFETCH REQUESTED:     332114 ISSUED:     303842 USEFUL:     243225 USELESS:       3264 LATE:       5471
cpu0->cpu0_L1D AVERAGE MISS LATENCY: 124.7 cycles
cpu0->cpu0_ITLB TOTAL        ACCESS:    6008724 HIT:    6008724 MISS:          0 MSHR_MERGE:          0
cpu0->cpu0_ITLB LOAD         ACCESS:    6008724 HIT:    6008724 MISS:          0 MSHR_MERGE:          0
cpu0->cpu0_ITLB RFO          ACCESS:          0 HIT:          0 MISS:          0 MSHR_MERGE:          0
cpu0->cpu0_ITLB PREFETCH     ACCESS:          0 HIT:          0 MISS:          0 MSHR_MERGE:          0
cpu0->cpu0_ITLB WRITE        ACCESS:          0 HIT:          0 MISS:          0 MSHR_MERGE:          0
cpu0->cpu0_ITLB TRANSLATION  ACCESS:          0 HIT:          0 MISS:          0 MSHR_MERGE:          0
cpu0->cpu0_ITLB PREFETCH REQUESTED:          0 ISSUED:          0 USEFUL:          0 USELESS:          0 LATE:          0
cpu0->cpu0_ITLB AVERAGE MISS LATENCY: - cycles
cpu0->cpu0_DTLB TOTAL        ACCESS:   12260902 HIT:   12241541 MISS:      19361 MSHR_MERGE:       7043
cpu0->cpu0_DTLB LOAD         ACCESS:   12260902 HIT:   12241541 MISS:      19361 MSHR_MERGE:       7043
cpu0->cpu0_DTLB RFO          ACCESS:          0 HIT:          0 MISS:          0 MSHR_MERGE:          0
cpu0->cpu0_DTLB PREFETCH     ACCESS:          0 HIT:          0 MISS:          0 MSHR_MERGE:          0
cpu0->cpu0_DTLB WRITE        ACCESS:          0 HIT:          0 MISS:          0 MSHR_MERGE:          0
cpu0->cpu0_DTLB TRANSLATION  ACCESS:          0 HIT:          0 MISS:          0 MSHR_MERGE:          0
cpu0->cpu0_DTLB PREFETCH REQUESTED:          0 ISSUED:          0 USEFUL:          0 USELESS:          0 LATE:          0
cpu0->cpu0_DTLB AVERAGE MISS LATENCY: 75.94 cycles
cpu0->LLC TOTAL        ACCESS:     750352 HIT:     406478 MISS:     343874 MSHR_MERGE:          0
cpu0->LLC LOAD         ACCESS:       4070 HIT:       1627 MISS:       2443 MSHR_MERGE:          0
cpu0->LLC RFO          ACCESS:     248983 HIT:     132423 MISS:     116560 MSHR_MERGE:          0
cpu0->LLC PREFETCH     ACCESS:     245732 HIT:     114652 MISS:     131080 MSHR_MERGE:          0
cpu0->LLC WRITE        ACCESS:     249332 HIT:     157679 MISS:      91653 MSHR_MERGE:          0
cpu0->LLC TRANSLATION  ACCESS:       2235 HIT:         97 MISS:       2138 MSHR_MERGE:          0
cpu0->LLC PREFETCH REQUESTED:          0 ISSUED:          0 USEFUL:          0 USELESS:          0 LATE:          0
cpu0->LLC AVERAGE MISS LATENCY: 166.8 cycles

DRAM Statistics

Channel 0 RQ ROW_BUFFER_HIT:       6325
  ROW_BUFFER_MISS:     245566
  AVG DBUS CONGESTED CYCLE: 6.757
Channel 0 WQ ROW_BUFFER_HIT:      23228
  ROW_BUFFER_MISS:      95620
  FULL:        132
Channel 0 REFRESHES ISSUED:       1258

[ROI Statistics]
[System Configuration]
num_cpus 1
cpu_freq 4000
fetch_width 6
decode_width 6
dispatch_width 6
execute_width 6
lq_width 2
sq_width 2
retire_width 6
scheduler_size 160
branch_mispredict_penalty 1
rob_size 352
lq_size 240
sq_size 112
ifetch_buffer_size 64
decode_buffer_size 32
dispatch_buffer_size 32
register_file_size 288
decode_latency 1
dispatch_latency 1
schedule_latency 0
execute_latency 0
page_size 4096
block_size 64
core_0_itlb_set 16
core_0_itlb_way 4
core_0_itlb_rq_size 16
core_0_itlb_wq_size 16
core_0_itlb_pq_size 0
core_0_itlb_mshr_size 8
core_0_itlb_hit_latency 1
core_0_itlb_fill_latency 1
core_0_itlb_max_tag_check 2
core_0_itlb_max_fill 2
core_0_dtlb_set 16
core_0_dtlb_way 4
core_0_dtlb_rq_size 16
core_0_dtlb_wq_size 16
core_0_dtlb_pq_size 0
core_0_dtlb_mshr_size 8
core_0_dtlb_hit_latency 1
core_0_dtlb_fill_latency 1
core_0_dtlb_max_tag_check 2
core_0_dtlb_max_fill 2
core_0_stlb_set 128
core_0_stlb_way 12
core_0_stlb_rq_size 32
core_0_stlb_wq_size 32
core_0_stlb_pq_size 0
core_0_stlb_mshr_size 16
core_0_stlb_hit_latency 4
core_0_stlb_fill_latency 4
core_0_stlb_max_tag_check 1
core_0_stlb_max_fill 1
core_0_l1i_set 64
core_0_l1i_way 8
core_0_l1i_rq_size 64
core_0_l1i_wq_size 64
core_0_l1i_pq_size 32
core_0_l1i_mshr_size 8
core_0_l1i_hit_latency 2
core_0_l1i_fill_latency 2
core_0_l1i_max_tag_check 2
core_0_l1i_max_fill 2
core_0_l1d_set 64
core_0_l1d_way 12
core_0_l1d_rq_size 64
core_0_l1d_wq_size 64
core_0_l1d_pq_size 8
core_0_l1d_mshr_size 16
core_0_l1d_hit_latency 2
core_0_l1d_fill_latency 3
core_0_l1d_max_tag_check 2
core_0_l1d_max_fill 2
core_0_l2c_set 1024
core_0_l2c_way 8
core_0_l2c_rq_size 32
core_0_l2c_wq_size 32
core_0_l2c_pq_size 16
core_0_l2c_mshr_size 32
core_0_l2c_hit_latency 5
core_0_l2c_fill_latency 5
core_0_l2c_max_tag_check 1
core_0_l2c_max_fill 1
llc_set 2048
llc_way 16
llc_rq_size 32
llc_wq_size 32
llc_pq_size 32
llc_mshr_size 64
llc_hit_latency 10
llc_fill_latency 10
llc_max_tag_check 1
llc_max_fill 1
dram_channels 1
dram_ranks 1
dram_bankgroups 8
dram_banks 4
dram_rows 16384
dram_columns 1024
dram_channel_width 8
dram_rq_size 64
dram_wq_size 64
dram_size 4294967296
core_0_itlb_prefetcher no
core_0_dtlb_prefetcher no
core_0_stlb_prefetcher no
core_0_l1i_prefetcher next_line
core_0_l1d_prefetcher berti
core_0_l2c_prefetcher pythia
llc_prefetcher no
llc_replacement drrip

Core_0_instructions 50000003
Core_0_cycles 15091146
Core_0_IPC 3.3132
Core_0_branch_prediction_accuracy 99.7998
Core_0_branch_MPKI 0.0237
Core_0_average_ROB_occupancy_at_mispredict 327.057

Core_0_ITLB_total_access 6008724
Core_0_ITLB_total_hit 6008724
Core_0_ITLB_total_miss 0
Core_0_ITLB_total_MPKI 0
Core_0_ITLB_total_miss_rate 0
Core_0_ITLB_demand_access 6008724
Core_0_ITLB_demand_hit 6008724
Core_0_ITLB_demand_miss 0
Core_0_ITLB_demand_MPKI 0
Core_0_ITLB_demand_miss_rate 0
Core_0_ITLB_load_access 6008724
Core_0_ITLB_load_hit 6008724
Core_0_ITLB_load_miss 0
Core_0_ITLB_load_MPKI 0
Core_0_ITLB_load_miss_rate 0
Core_0_ITLB_rfo_access 0
Core_0_ITLB_rfo_hit 0
Core_0_ITLB_rfo_miss 0
Core_0_ITLB_rfo_MPKI 0
Core_0_ITLB_rfo_miss_rate 0
Core_0_ITLB_prefetch_access 0
Core_0_ITLB_prefetch_hit 0
Core_0_ITLB_prefetch_miss 0
Core_0_ITLB_prefetch_MPKI 0
Core_0_ITLB_prefetch_miss_rate 0
Core_0_ITLB_writeback_access 0
Core_0_ITLB_writeback_hit 0
Core_0_ITLB_writeback_miss 0
Core_0_ITLB_writeback_MPKI 0
Core_0_ITLB_writeback_miss_rate 0
Core_0_ITLB_prefetch_requested 0
Core_0_ITLB_prefetch_issued 0
Core_0_ITLB_prefetch_useful 0
Core_0_ITLB_prefetch_useless 0
Core_0_ITLB_prefetch_late 0
Core_0_ITLB_prefetch_accuracy 0
Core_0_ITLB_prefetch_coverage 0

Core_0_DTLB_total_access 12260902
Core_0_DTLB_total_hit 12241541
Core_0_DTLB_total_miss 19361
Core_0_DTLB_total_MPKI 0.38722
Core_0_DTLB_total_miss_rate 0.00157908
Core_0_DTLB_demand_access 12260902
Core_0_DTLB_demand_hit 12241541
Core_0_DTLB_demand_miss 19361
Core_0_DTLB_demand_MPKI 0.38722
Core_0_DTLB_demand_miss_rate 0.00157908
Core_0_DTLB_load_access 12260902
Core_0_DTLB_load_hit 12241541
Core_0_DTLB_load_miss 19361
Core_0_DTLB_load_MPKI 0.38722
Core_0_DTLB_load_miss_rate 0.00157908
Core_0_DTLB_rfo_access 0
Core_0_DTLB_rfo_hit 0
Core_0_DTLB_rfo_miss 0
Core_0_DTLB_rfo_MPKI 0
Core_0_DTLB_rfo_miss_rate 0
Core_0_DTLB_prefetch_access 0
Core_0_DTLB_prefetch_hit 0
Core_0_DTLB_prefetch_miss 0
Core_0_DTLB_prefetch_MPKI 0
Core_0_DTLB_prefetch_miss_rate 0
Core_0_DTLB_writeback_access 0
Core_0_DTLB_writeback_hit 0
Core_0_DTLB_writeback_miss 0
Core_0_DTLB_writeback_MPKI 0
Core_0_DTLB_writeback_miss_rate 0
Core_0_DTLB_prefetch_requested 0
Core_0_DTLB_prefetch_issued 0
Core_0_DTLB_prefetch_useful 0
Core_0_DTLB_prefetch_useless 0
Core_0_DTLB_prefetch_late 0
Core_0_DTLB_prefetch_accuracy 0
Core_0_DTLB_prefetch_coverage 0

Core_0_STLB_total_access 12318
Core_0_STLB_total_hit 10738
Core_0_STLB_total_miss 1580
Core_0_STLB_total_MPKI 0.0316
Core_0_STLB_total_miss_rate 0.128268
Core_0_STLB_demand_access 12318
Core_0_STLB_demand_hit 10738
Core_0_STLB_demand_miss 1580
Core_0_STLB_demand_MPKI 0.0316
Core_0_STLB_demand_miss_rate 0.128268
Core_0_STLB_load_access 12318
Core_0_STLB_load_hit 10738
Core_0_STLB_load_miss 1580
Core_0_STLB_load_MPKI 0.0316
Core_0_STLB_load_miss_rate 0.128268
Core_0_STLB_rfo_access 0
Core_0_STLB_rfo_hit 0
Core_0_STLB_rfo_miss 0
Core_0_STLB_rfo_MPKI 0
Core_0_STLB_rfo_miss_rate 0
Core_0_STLB_prefetch_access 0
Core_0_STLB_prefetch_hit 0
Core_0_STLB_prefetch_miss 0
Core_0_STLB_prefetch_MPKI 0
Core_0_STLB_prefetch_miss_rate 0
Core_0_STLB_writeback_access 0
Core_0_STLB_writeback_hit 0
Core_0_STLB_writeback_miss 0
Core_0_STLB_writeback_MPKI 0
Core_0_STLB_writeback_miss_rate 0
Core_0_STLB_prefetch_requested 0
Core_0_STLB_prefetch_issued 0
Core_0_STLB_prefetch_useful 0
Core_0_STLB_prefetch_useless 0
Core_0_STLB_prefetch_late 0
Core_0_STLB_prefetch_accuracy 0
Core_0_STLB_prefetch_coverage 0

Core_0_L1I_total_access 8706446
Core_0_L1I_total_hit 8706446
Core_0_L1I_total_miss 0
Core_0_L1I_total_MPKI 0
Core_0_L1I_total_miss_rate 0
Core_0_L1I_demand_access 8706446
Core_0_L1I_demand_hit 8706446
Core_0_L1I_demand_miss 0
Core_0_L1I_demand_MPKI 0
Core_0_L1I_demand_miss_rate 0
Core_0_L1I_load_access 8706446
Core_0_L1I_load_hit 8706446
Core_0_L1I_load_miss 0
Core_0_L1I_load_MPKI 0
Core_0_L1I_load_miss_rate 0
Core_0_L1I_rfo_access 0
Core_0_L1I_rfo_hit 0
Core_0_L1I_rfo_miss 0
Core_0_L1I_rfo_MPKI 0
Core_0_L1I_rfo_miss_rate 0
Core_0_L1I_prefetch_access 0
Core_0_L1I_prefetch_hit 0
Core_0_L1I_prefetch_miss 0
Core_0_L1I_prefetch_MPKI 0
Core_0_L1I_prefetch_miss_rate 0
Core_0_L1I_writeback_access 0
Core_0_L1I_writeback_hit 0
Core_0_L1I_writeback_miss 0
Core_0_L1I_writeback_MPKI 0
Core_0_L1I_writeback_miss_rate 0
Core_0_L1I_prefetch_requested 0
Core_0_L1I_prefetch_issued 0
Core_0_L1I_prefetch_useful 0
Core_0_L1I_prefetch_useless 0
Core_0_L1I_prefetch_late 0
Core_0_L1I_prefetch_accuracy 0
Core_0_L1I_prefetch_coverage 0

Core_0_L1D_total_access 12800534
Core_0_L1D_total_hit 11607674
Core_0_L1D_total_miss 1192860
Core_0_L1D_total_MPKI 23.8572
Core_0_L1D_total_miss_rate 0.0931883
Core_0_L1D_demand_access 7818312
Core_0_L1D_demand_hit 7702199
Core_0_L1D_demand_miss 116113
Core_0_L1D_demand_MPKI 2.32226
Core_0_L1D_demand_miss_rate 0.0148514
Core_0_L1D_load_access 7818312
Core_0_L1D_load_hit 7702199
Core_0_L1D_load_miss 116113
Core_0_L1D_load_MPKI 2.32226
Core_0_L1D_load_miss_rate 0.0148514
Core_0_L1D_rfo_access 0
Core_0_L1D_rfo_hit 0
Core_0_L1D_rfo_miss 0
Core_0_L1D_rfo_MPKI 0
Core_0_L1D_rfo_miss_rate 0
Core_0_L1D_prefetch_access 303850
Core_0_L1D_prefetch_hit 55573
Core_0_L1D_prefetch_miss 248277
Core_0_L1D_prefetch_MPKI 4.96554
Core_0_L1D_prefetch_miss_rate 0.817104
Core_0_L1D_writeback_access 4678372
Core_0_L1D_writeback_hit 3849902
Core_0_L1D_writeback_miss 828470
Core_0_L1D_writeback_MPKI 16.5694
Core_0_L1D_writeback_miss_rate 0.177085
Core_0_L1D_prefetch_requested 332114
Core_0_L1D_prefetch_issued 303842
Core_0_L1D_prefetch_useful 243225
Core_0_L1D_prefetch_useless 3264
Core_0_L1D_prefetch_late 5471
Core_0_L1D_prefetch_accuracy 0.800498
Core_0_L1D_prefetch_coverage 0.67687

Core_0_L2C_total_access 2505143
Core_0_L2C_total_hit 1850690
Core_0_L2C_total_miss 654453
Core_0_L2C_total_MPKI 13.0891
Core_0_L2C_total_miss_rate 0.261244
Core_0_L2C_demand_access 334907
Core_0_L2C_demand_hit 79128
Core_0_L2C_demand_miss 255779
Core_0_L2C_demand_MPKI 5.11558
Core_0_L2C_demand_miss_rate 0.763731
Core_0_L2C_load_access 84633
Core_0_L2C_load_hit 77838
Core_0_L2C_load_miss 6795
Core_0_L2C_load_MPKI 0.1359
Core_0_L2C_load_miss_rate 0.0802878
Core_0_L2C_rfo_access 250274
Core_0_L2C_rfo_hit 1290
Core_0_L2C_rfo_miss 248984
Core_0_L2C_rfo_MPKI 4.97968
Core_0_L2C_rfo_miss_rate 0.994846
Core_0_L2C_prefetch_access 1919265
Core_0_L2C_prefetch_hit 1520754
Core_0_L2C_prefetch_miss 398511
Core_0_L2C_prefetch_MPKI 7.97022
Core_0_L2C_prefetch_miss_rate 0.207637
Core_0_L2C_writeback_access 250971
Core_0_L2C_writeback_hit 250808
Core_0_L2C_writeback_miss 163
Core_0_L2C_writeback_MPKI 0.00326
Core_0_L2C_writeback_miss_rate 0.000649477
Core_0_L2C_prefetch_requested 1695719
Core_0_L2C_prefetch_issued 1672775
Core_0_L2C_prefetch_useful 217654
Core_0_L2C_prefetch_useless 20432
Core_0_L2C_prefetch_late 2726
Core_0_L2C_prefetch_accuracy 0.130116
Core_0_L2C_prefetch_coverage 0.459736

Core_0_LLC_total_access 748117
Core_0_LLC_total_hit 406381
Core_0_LLC_total_miss 341736
Core_0_LLC_total_MPKI 6.83472
Core_0_LLC_total_miss_rate 0.456795
Core_0_LLC_demand_access 253053
Core_0_LLC_demand_hit 134050
Core_0_LLC_demand_miss 119003
Core_0_LLC_demand_MPKI 2.38006
Core_0_LLC_demand_miss_rate 0.470269
Core_0_LLC_load_access 4070
Core_0_LLC_load_hit 1627
Core_0_LLC_load_miss 2443
Core_0_LLC_load_MPKI 0.04886
Core_0_LLC_load_miss_rate 0.600246
Core_0_LLC_rfo_access 248983
Core_0_LLC_rfo_hit 132423
Core_0_LLC_rfo_miss 116560
Core_0_LLC_rfo_MPKI 2.3312
Core_0_LLC_rfo_miss_rate 0.468144
Core_0_LLC_prefetch_access 245732
Core_0_LLC_prefetch_hit 114652
Core_0_LLC_prefetch_miss 131080
Core_0_LLC_prefetch_MPKI 2.6216
Core_0_LLC_prefetch_miss_rate 0.533427
Core_0_LLC_writeback_access 249332
Core_0_LLC_writeback_hit 157679
Core_0_LLC_writeback_miss 91653
Core_0_LLC_writeback_MPKI 1.83306
Core_0_LLC_writeback_miss_rate 0.367594
Core_0_LLC_prefetch_requested 0
Core_0_LLC_prefetch_issued 0
Core_0_LLC_prefetch_useful 0
Core_0_LLC_prefetch_useless 0
Core_0_LLC_prefetch_late 0
Core_0_LLC_prefetch_accuracy 0
Core_0_LLC_prefetch_coverage 0

[DRAM Statistics]
Channel_0_RQ_row_buffer_hit 6325
Channel_0_RQ_row_buffer_miss 245566
Channel_0_WQ_row_buffer_hit 23228
Channel_0_WQ_row_buffer_miss 95620
Channel_0_WQ_full 132
Channel_0_dbus_congested 928071
DRAM_total_RQ_row_buffer_hit 6325
DRAM_total_RQ_row_buffer_miss 245566
DRAM_total_WQ_row_buffer_hit 23228
DRAM_total_WQ_row_buffer_miss 95620
DRAM_total_WQ_full 132
DRAM_total_dbus_congested 928071
DRAM_avg_congested_cycle 6.75656

======STLB miss causes ========
Core_0_STLB_miss_cause_breakdown
Core_0_STLB_cause_Demand_Data_miss 0
Core_0_STLB_cause_Demand_Data_miss_rate 0
Core_0_STLB_cause_Demand_Instruction_miss 0
Core_0_STLB_cause_Demand_Instruction_miss_rate 0
Core_0_STLB_cause_L1D_Prefetch_miss 1580
Core_0_STLB_cause_L1D_Prefetch_miss_rate 0.128268
Core_0_STLB_cause_L1I_Prefetch_miss 0
Core_0_STLB_cause_L1I_Prefetch_miss_rate 0
Core_0_STLB_cause_Other_miss 0
Core_0_STLB_cause_Other_miss_rate 0
Core_0_STLB_Demand_miss 0
Core_0_STLB_Demand_miss_rate 0
Core_0_STLB_L1D_Prefetch_miss 1580
Core_0_STLB_L1D_Prefetch_miss_rate 0.128268
Core_0_STLB_Other_miss 0
Core_0_STLB_Other_miss_rate 0
