[VMEM] WARNING: physical memory size is smaller than virtual memory size.

*** ChampSim Multicore Out-of-Order Simulator ***
Warmup Instructions: 20000000
Simulation Instructions: 50000000
Number of CPUs: 1
Page size: 4096
STLB ideal mode: demand
Core 0: /data0/tzh/champsim_traces/SPEC17/657.xz_s-3167B.champsimtrace.xz
 L1D Berti prefetcher
Off-chip DRAM Size: 4 GiB Channels: 1 Width: 64-bit Data Rate: 3205 MT/s
Warmup halting CPU 0 at instruction 20000001 cycle 4103343 for remainder of phase
Warmup finished CPU 0 instructions: 20000001 cycles: 4103343 cumulative IPC: 4.874 (Simulation time: 00 hr 00 min 43 sec)
Warmup complete CPU 0 instructions: 20000001 cycles: 4103343 cumulative IPC: 4.874 (Simulation time: 00 hr 00 min 43 sec)
Simulation finished CPU 0 instructions: 50000000 cycles: 29248859 cumulative IPC: 1.709 (Simulation time: 00 hr 04 min 04 sec)
Simulation complete CPU 0 instructions: 50000000 cycles: 29248859 cumulative IPC: 1.709 (Simulation time: 00 hr 04 min 04 sec)

ChampSim completed all CPUs

=== Simulation ===
CPU 0 runs /data0/tzh/champsim_traces/SPEC17/657.xz_s-3167B.champsimtrace.xz

Region of Interest Statistics

CPU 0 cumulative IPC: 1.709 instructions: 50000000 cycles: 29248859
CPU 0 Branch Prediction Accuracy: 91.94% MPKI: 11.89 Average ROB Occupancy at Mispredict: 43.48
Branch type MPKI
BRANCH_DIRECT_JUMP: 0.07938
BRANCH_INDIRECT: 0.8868
BRANCH_CONDITIONAL: 10.92
BRANCH_DIRECT_CALL: 0
BRANCH_INDIRECT_CALL: 0.00296
BRANCH_RETURN: 0

cpu0->cpu0_STLB TOTAL        ACCESS:     276740 HIT:     275754 MISS:        986 MSHR_MERGE:          0
cpu0->cpu0_STLB LOAD         ACCESS:     276740 HIT:     275754 MISS:        986 MSHR_MERGE:          0
cpu0->cpu0_STLB RFO          ACCESS:          0 HIT:          0 MISS:          0 MSHR_MERGE:          0
cpu0->cpu0_STLB PREFETCH     ACCESS:          0 HIT:          0 MISS:          0 MSHR_MERGE:          0
cpu0->cpu0_STLB WRITE        ACCESS:          0 HIT:          0 MISS:          0 MSHR_MERGE:          0
cpu0->cpu0_STLB TRANSLATION  ACCESS:          0 HIT:          0 MISS:          0 MSHR_MERGE:          0
cpu0->cpu0_STLB PREFETCH REQUESTED:          0 ISSUED:          0 USEFUL:          0 USELESS:          0 LATE:          0
cpu0->cpu0_STLB AVERAGE MISS LATENCY: 177.4 cycles
cpu0->cpu0_L2C TOTAL        ACCESS:     930991 HIT:     693291 MISS:     237700 MSHR_MERGE:      11405
cpu0->cpu0_L2C LOAD         ACCESS:     210060 HIT:     130239 MISS:      79821 MSHR_MERGE:         88
cpu0->cpu0_L2C RFO          ACCESS:      71827 HIT:      55010 MISS:      16817 MSHR_MERGE:          0
cpu0->cpu0_L2C PREFETCH     ACCESS:     427692 HIT:     287781 MISS:     139911 MSHR_MERGE:      11317
cpu0->cpu0_L2C WRITE        ACCESS:     220443 HIT:     220116 MISS:        327 MSHR_MERGE:          0
cpu0->cpu0_L2C TRANSLATION  ACCESS:        969 HIT:        145 MISS:        824 MSHR_MERGE:          0
cpu0->cpu0_L2C PREFETCH REQUESTED:     366079 ISSUED:     357558 USEFUL:      21419 USELESS:      86805 LATE:         88
cpu0->cpu0_L2C AVERAGE MISS LATENCY: 120 cycles
cpu0->cpu0_L1I TOTAL        ACCESS:     239154 HIT:     239152 MISS:          2 MSHR_MERGE:          1
cpu0->cpu0_L1I LOAD         ACCESS:     239154 HIT:     239152 MISS:          2 MSHR_MERGE:          1
cpu0->cpu0_L1I RFO          ACCESS:          0 HIT:          0 MISS:          0 MSHR_MERGE:          0
cpu0->cpu0_L1I PREFETCH     ACCESS:          0 HIT:          0 MISS:          0 MSHR_MERGE:          0
cpu0->cpu0_L1I WRITE        ACCESS:          0 HIT:          0 MISS:          0 MSHR_MERGE:          0
cpu0->cpu0_L1I TRANSLATION  ACCESS:          0 HIT:          0 MISS:          0 MSHR_MERGE:          0
cpu0->cpu0_L1I PREFETCH REQUESTED:          0 ISSUED:          0 USEFUL:          0 USELESS:          0 LATE:          0
cpu0->cpu0_L1I AVERAGE MISS LATENCY: 224 cycles
cpu0->cpu0_L1D TOTAL        ACCESS:   12273358 HIT:   11809198 MISS:     464160 MSHR_MERGE:     111145
cpu0->cpu0_L1D LOAD         ACCESS:    8706295 HIT:    8431130 MISS:     275165 MSHR_MERGE:      65100
cpu0->cpu0_L1D RFO          ACCESS:          0 HIT:          0 MISS:          0 MSHR_MERGE:          0
cpu0->cpu0_L1D PREFETCH     ACCESS:     208671 HIT:     137587 MISS:      71084 MSHR_MERGE:        950
cpu0->cpu0_L1D WRITE        ACCESS:    3356415 HIT:    3239475 MISS:     116940 MSHR_MERGE:      45093
cpu0->cpu0_L1D TRANSLATION  ACCESS:       1977 HIT:       1006 MISS:        971 MSHR_MERGE:          2
cpu0->cpu0_L1D PREFETCH REQUESTED:     211283 ISSUED:     208671 USEFUL:      21671 USELESS:      48471 LATE:       1125
cpu0->cpu0_L1D AVERAGE MISS LATENCY: 49.71 cycles
cpu0->cpu0_ITLB TOTAL        ACCESS:     236080 HIT:     236080 MISS:          0 MSHR_MERGE:          0
cpu0->cpu0_ITLB LOAD         ACCESS:     236080 HIT:     236080 MISS:          0 MSHR_MERGE:          0
cpu0->cpu0_ITLB RFO          ACCESS:          0 HIT:          0 MISS:          0 MSHR_MERGE:          0
cpu0->cpu0_ITLB PREFETCH     ACCESS:          0 HIT:          0 MISS:          0 MSHR_MERGE:          0
cpu0->cpu0_ITLB WRITE        ACCESS:          0 HIT:          0 MISS:          0 MSHR_MERGE:          0
cpu0->cpu0_ITLB TRANSLATION  ACCESS:          0 HIT:          0 MISS:          0 MSHR_MERGE:          0
cpu0->cpu0_ITLB PREFETCH REQUESTED:          0 ISSUED:          0 USEFUL:          0 USELESS:          0 LATE:          0
cpu0->cpu0_ITLB AVERAGE MISS LATENCY: - cycles
cpu0->cpu0_DTLB TOTAL        ACCESS:   11760990 HIT:   11441501 MISS:     319489 MSHR_MERGE:      42749
cpu0->cpu0_DTLB LOAD         ACCESS:   11760990 HIT:   11441501 MISS:     319489 MSHR_MERGE:      42749
cpu0->cpu0_DTLB RFO          ACCESS:          0 HIT:          0 MISS:          0 MSHR_MERGE:          0
cpu0->cpu0_DTLB PREFETCH     ACCESS:          0 HIT:          0 MISS:          0 MSHR_MERGE:          0
cpu0->cpu0_DTLB WRITE        ACCESS:          0 HIT:          0 MISS:          0 MSHR_MERGE:          0
cpu0->cpu0_DTLB TRANSLATION  ACCESS:          0 HIT:          0 MISS:          0 MSHR_MERGE:          0
cpu0->cpu0_DTLB PREFETCH REQUESTED:          0 ISSUED:          0 USEFUL:          0 USELESS:          0 LATE:          0
cpu0->cpu0_DTLB AVERAGE MISS LATENCY: 5.636 cycles
cpu0->LLC TOTAL        ACCESS:     305592 HIT:     167068 MISS:     138524 MSHR_MERGE:          0
cpu0->LLC LOAD         ACCESS:      79733 HIT:      37818 MISS:      41915 MSHR_MERGE:          0
cpu0->LLC RFO          ACCESS:      16817 HIT:       3509 MISS:      13308 MSHR_MERGE:          0
cpu0->LLC PREFETCH     ACCESS:     128594 HIT:      62897 MISS:      65697 MSHR_MERGE:          0
cpu0->LLC WRITE        ACCESS:      79624 HIT:      62639 MISS:      16985 MSHR_MERGE:          0
cpu0->LLC TRANSLATION  ACCESS:        824 HIT:        205 MISS:        619 MSHR_MERGE:          0
cpu0->LLC PREFETCH REQUESTED:          0 ISSUED:          0 USEFUL:          0 USELESS:          0 LATE:          0
cpu0->LLC AVERAGE MISS LATENCY: 142.3 cycles

DRAM Statistics

Channel 0 RQ ROW_BUFFER_HIT:       1094
  ROW_BUFFER_MISS:     120442
  AVG DBUS CONGESTED CYCLE: 15.18
Channel 0 WQ ROW_BUFFER_HIT:      11292
  ROW_BUFFER_MISS:      36925
  FULL:          0
Channel 0 REFRESHES ISSUED:       2438

[ROI Statistics]
[System Configuration]
num_cpus 1
cpu_freq 4000
fetch_width 6
decode_width 6
dispatch_width 6
execute_width 6
lq_width 2
sq_width 2
retire_width 6
scheduler_size 160
branch_mispredict_penalty 1
rob_size 352
lq_size 240
sq_size 112
ifetch_buffer_size 64
decode_buffer_size 32
dispatch_buffer_size 32
register_file_size 288
decode_latency 1
dispatch_latency 1
schedule_latency 0
execute_latency 0
page_size 4096
block_size 64
core_0_itlb_set 16
core_0_itlb_way 4
core_0_itlb_rq_size 16
core_0_itlb_wq_size 16
core_0_itlb_pq_size 0
core_0_itlb_mshr_size 8
core_0_itlb_hit_latency 1
core_0_itlb_fill_latency 1
core_0_itlb_max_tag_check 2
core_0_itlb_max_fill 2
core_0_dtlb_set 16
core_0_dtlb_way 4
core_0_dtlb_rq_size 16
core_0_dtlb_wq_size 16
core_0_dtlb_pq_size 0
core_0_dtlb_mshr_size 8
core_0_dtlb_hit_latency 1
core_0_dtlb_fill_latency 1
core_0_dtlb_max_tag_check 2
core_0_dtlb_max_fill 2
core_0_stlb_set 128
core_0_stlb_way 12
core_0_stlb_rq_size 32
core_0_stlb_wq_size 32
core_0_stlb_pq_size 0
core_0_stlb_mshr_size 16
core_0_stlb_hit_latency 4
core_0_stlb_fill_latency 4
core_0_stlb_max_tag_check 1
core_0_stlb_max_fill 1
core_0_l1i_set 64
core_0_l1i_way 8
core_0_l1i_rq_size 64
core_0_l1i_wq_size 64
core_0_l1i_pq_size 32
core_0_l1i_mshr_size 8
core_0_l1i_hit_latency 2
core_0_l1i_fill_latency 2
core_0_l1i_max_tag_check 2
core_0_l1i_max_fill 2
core_0_l1d_set 64
core_0_l1d_way 12
core_0_l1d_rq_size 64
core_0_l1d_wq_size 64
core_0_l1d_pq_size 8
core_0_l1d_mshr_size 16
core_0_l1d_hit_latency 2
core_0_l1d_fill_latency 3
core_0_l1d_max_tag_check 2
core_0_l1d_max_fill 2
core_0_l2c_set 1024
core_0_l2c_way 8
core_0_l2c_rq_size 32
core_0_l2c_wq_size 32
core_0_l2c_pq_size 16
core_0_l2c_mshr_size 32
core_0_l2c_hit_latency 5
core_0_l2c_fill_latency 5
core_0_l2c_max_tag_check 1
core_0_l2c_max_fill 1
llc_set 2048
llc_way 16
llc_rq_size 32
llc_wq_size 32
llc_pq_size 32
llc_mshr_size 64
llc_hit_latency 10
llc_fill_latency 10
llc_max_tag_check 1
llc_max_fill 1
dram_channels 1
dram_ranks 1
dram_bankgroups 8
dram_banks 4
dram_rows 16384
dram_columns 1024
dram_channel_width 8
dram_rq_size 64
dram_wq_size 64
dram_size 4294967296
core_0_itlb_prefetcher no
core_0_dtlb_prefetcher no
core_0_stlb_prefetcher no
core_0_l1i_prefetcher next_line
core_0_l1d_prefetcher berti
core_0_l2c_prefetcher pythia
llc_prefetcher no
llc_replacement drrip

Core_0_instructions 50000000
Core_0_cycles 29248859
Core_0_IPC 1.70947
Core_0_branch_prediction_accuracy 91.9408
Core_0_branch_MPKI 11.8888
Core_0_average_ROB_occupancy_at_mispredict 43.4776

Core_0_ITLB_total_access 236080
Core_0_ITLB_total_hit 236080
Core_0_ITLB_total_miss 0
Core_0_ITLB_total_MPKI 0
Core_0_ITLB_total_miss_rate 0
Core_0_ITLB_demand_access 236080
Core_0_ITLB_demand_hit 236080
Core_0_ITLB_demand_miss 0
Core_0_ITLB_demand_MPKI 0
Core_0_ITLB_demand_miss_rate 0
Core_0_ITLB_load_access 236080
Core_0_ITLB_load_hit 236080
Core_0_ITLB_load_miss 0
Core_0_ITLB_load_MPKI 0
Core_0_ITLB_load_miss_rate 0
Core_0_ITLB_rfo_access 0
Core_0_ITLB_rfo_hit 0
Core_0_ITLB_rfo_miss 0
Core_0_ITLB_rfo_MPKI 0
Core_0_ITLB_rfo_miss_rate 0
Core_0_ITLB_prefetch_access 0
Core_0_ITLB_prefetch_hit 0
Core_0_ITLB_prefetch_miss 0
Core_0_ITLB_prefetch_MPKI 0
Core_0_ITLB_prefetch_miss_rate 0
Core_0_ITLB_writeback_access 0
Core_0_ITLB_writeback_hit 0
Core_0_ITLB_writeback_miss 0
Core_0_ITLB_writeback_MPKI 0
Core_0_ITLB_writeback_miss_rate 0
Core_0_ITLB_prefetch_requested 0
Core_0_ITLB_prefetch_issued 0
Core_0_ITLB_prefetch_useful 0
Core_0_ITLB_prefetch_useless 0
Core_0_ITLB_prefetch_late 0
Core_0_ITLB_prefetch_accuracy 0
Core_0_ITLB_prefetch_coverage 0

Core_0_DTLB_total_access 11760990
Core_0_DTLB_total_hit 11441501
Core_0_DTLB_total_miss 319489
Core_0_DTLB_total_MPKI 6.38978
Core_0_DTLB_total_miss_rate 0.0271651
Core_0_DTLB_demand_access 11760990
Core_0_DTLB_demand_hit 11441501
Core_0_DTLB_demand_miss 319489
Core_0_DTLB_demand_MPKI 6.38978
Core_0_DTLB_demand_miss_rate 0.0271651
Core_0_DTLB_load_access 11760990
Core_0_DTLB_load_hit 11441501
Core_0_DTLB_load_miss 319489
Core_0_DTLB_load_MPKI 6.38978
Core_0_DTLB_load_miss_rate 0.0271651
Core_0_DTLB_rfo_access 0
Core_0_DTLB_rfo_hit 0
Core_0_DTLB_rfo_miss 0
Core_0_DTLB_rfo_MPKI 0
Core_0_DTLB_rfo_miss_rate 0
Core_0_DTLB_prefetch_access 0
Core_0_DTLB_prefetch_hit 0
Core_0_DTLB_prefetch_miss 0
Core_0_DTLB_prefetch_MPKI 0
Core_0_DTLB_prefetch_miss_rate 0
Core_0_DTLB_writeback_access 0
Core_0_DTLB_writeback_hit 0
Core_0_DTLB_writeback_miss 0
Core_0_DTLB_writeback_MPKI 0
Core_0_DTLB_writeback_miss_rate 0
Core_0_DTLB_prefetch_requested 0
Core_0_DTLB_prefetch_issued 0
Core_0_DTLB_prefetch_useful 0
Core_0_DTLB_prefetch_useless 0
Core_0_DTLB_prefetch_late 0
Core_0_DTLB_prefetch_accuracy 0
Core_0_DTLB_prefetch_coverage 0

Core_0_STLB_total_access 276740
Core_0_STLB_total_hit 275754
Core_0_STLB_total_miss 986
Core_0_STLB_total_MPKI 0.01972
Core_0_STLB_total_miss_rate 0.00356291
Core_0_STLB_demand_access 276740
Core_0_STLB_demand_hit 275754
Core_0_STLB_demand_miss 986
Core_0_STLB_demand_MPKI 0.01972
Core_0_STLB_demand_miss_rate 0.00356291
Core_0_STLB_load_access 276740
Core_0_STLB_load_hit 275754
Core_0_STLB_load_miss 986
Core_0_STLB_load_MPKI 0.01972
Core_0_STLB_load_miss_rate 0.00356291
Core_0_STLB_rfo_access 0
Core_0_STLB_rfo_hit 0
Core_0_STLB_rfo_miss 0
Core_0_STLB_rfo_MPKI 0
Core_0_STLB_rfo_miss_rate 0
Core_0_STLB_prefetch_access 0
Core_0_STLB_prefetch_hit 0
Core_0_STLB_prefetch_miss 0
Core_0_STLB_prefetch_MPKI 0
Core_0_STLB_prefetch_miss_rate 0
Core_0_STLB_writeback_access 0
Core_0_STLB_writeback_hit 0
Core_0_STLB_writeback_miss 0
Core_0_STLB_writeback_MPKI 0
Core_0_STLB_writeback_miss_rate 0
Core_0_STLB_prefetch_requested 0
Core_0_STLB_prefetch_issued 0
Core_0_STLB_prefetch_useful 0
Core_0_STLB_prefetch_useless 0
Core_0_STLB_prefetch_late 0
Core_0_STLB_prefetch_accuracy 0
Core_0_STLB_prefetch_coverage 0

Core_0_L1I_total_access 239154
Core_0_L1I_total_hit 239152
Core_0_L1I_total_miss 2
Core_0_L1I_total_MPKI 4e-05
Core_0_L1I_total_miss_rate 8.36281e-06
Core_0_L1I_demand_access 239154
Core_0_L1I_demand_hit 239152
Core_0_L1I_demand_miss 2
Core_0_L1I_demand_MPKI 4e-05
Core_0_L1I_demand_miss_rate 8.36281e-06
Core_0_L1I_load_access 239154
Core_0_L1I_load_hit 239152
Core_0_L1I_load_miss 2
Core_0_L1I_load_MPKI 4e-05
Core_0_L1I_load_miss_rate 8.36281e-06
Core_0_L1I_rfo_access 0
Core_0_L1I_rfo_hit 0
Core_0_L1I_rfo_miss 0
Core_0_L1I_rfo_MPKI 0
Core_0_L1I_rfo_miss_rate 0
Core_0_L1I_prefetch_access 0
Core_0_L1I_prefetch_hit 0
Core_0_L1I_prefetch_miss 0
Core_0_L1I_prefetch_MPKI 0
Core_0_L1I_prefetch_miss_rate 0
Core_0_L1I_writeback_access 0
Core_0_L1I_writeback_hit 0
Core_0_L1I_writeback_miss 0
Core_0_L1I_writeback_MPKI 0
Core_0_L1I_writeback_miss_rate 0
Core_0_L1I_prefetch_requested 0
Core_0_L1I_prefetch_issued 0
Core_0_L1I_prefetch_useful 0
Core_0_L1I_prefetch_useless 0
Core_0_L1I_prefetch_late 0
Core_0_L1I_prefetch_accuracy 0
Core_0_L1I_prefetch_coverage 0

Core_0_L1D_total_access 12271381
Core_0_L1D_total_hit 11808192
Core_0_L1D_total_miss 463189
Core_0_L1D_total_MPKI 9.26378
Core_0_L1D_total_miss_rate 0.0377455
Core_0_L1D_demand_access 8706295
Core_0_L1D_demand_hit 8431130
Core_0_L1D_demand_miss 275165
Core_0_L1D_demand_MPKI 5.5033
Core_0_L1D_demand_miss_rate 0.0316053
Core_0_L1D_load_access 8706295
Core_0_L1D_load_hit 8431130
Core_0_L1D_load_miss 275165
Core_0_L1D_load_MPKI 5.5033
Core_0_L1D_load_miss_rate 0.0316053
Core_0_L1D_rfo_access 0
Core_0_L1D_rfo_hit 0
Core_0_L1D_rfo_miss 0
Core_0_L1D_rfo_MPKI 0
Core_0_L1D_rfo_miss_rate 0
Core_0_L1D_prefetch_access 208671
Core_0_L1D_prefetch_hit 137587
Core_0_L1D_prefetch_miss 71084
Core_0_L1D_prefetch_MPKI 1.42168
Core_0_L1D_prefetch_miss_rate 0.340651
Core_0_L1D_writeback_access 3356415
Core_0_L1D_writeback_hit 3239475
Core_0_L1D_writeback_miss 116940
Core_0_L1D_writeback_MPKI 2.3388
Core_0_L1D_writeback_miss_rate 0.0348407
Core_0_L1D_prefetch_requested 211283
Core_0_L1D_prefetch_issued 208671
Core_0_L1D_prefetch_useful 21671
Core_0_L1D_prefetch_useless 48471
Core_0_L1D_prefetch_late 1125
Core_0_L1D_prefetch_accuracy 0.103852
Core_0_L1D_prefetch_coverage 0.0730066

Core_0_L2C_total_access 930022
Core_0_L2C_total_hit 693146
Core_0_L2C_total_miss 236876
Core_0_L2C_total_MPKI 4.73752
Core_0_L2C_total_miss_rate 0.254699
Core_0_L2C_demand_access 281887
Core_0_L2C_demand_hit 185249
Core_0_L2C_demand_miss 96638
Core_0_L2C_demand_MPKI 1.93276
Core_0_L2C_demand_miss_rate 0.342825
Core_0_L2C_load_access 210060
Core_0_L2C_load_hit 130239
Core_0_L2C_load_miss 79821
Core_0_L2C_load_MPKI 1.59642
Core_0_L2C_load_miss_rate 0.379991
Core_0_L2C_rfo_access 71827
Core_0_L2C_rfo_hit 55010
Core_0_L2C_rfo_miss 16817
Core_0_L2C_rfo_MPKI 0.33634
Core_0_L2C_rfo_miss_rate 0.234132
Core_0_L2C_prefetch_access 427692
Core_0_L2C_prefetch_hit 287781
Core_0_L2C_prefetch_miss 139911
Core_0_L2C_prefetch_MPKI 2.79822
Core_0_L2C_prefetch_miss_rate 0.32713
Core_0_L2C_writeback_access 220443
Core_0_L2C_writeback_hit 220116
Core_0_L2C_writeback_miss 327
Core_0_L2C_writeback_MPKI 0.00654
Core_0_L2C_writeback_miss_rate 0.00148338
Core_0_L2C_prefetch_requested 366079
Core_0_L2C_prefetch_issued 357558
Core_0_L2C_prefetch_useful 21419
Core_0_L2C_prefetch_useless 86805
Core_0_L2C_prefetch_late 88
Core_0_L2C_prefetch_accuracy 0.0599036
Core_0_L2C_prefetch_coverage 0.181429

Core_0_LLC_total_access 304768
Core_0_LLC_total_hit 166863
Core_0_LLC_total_miss 137905
Core_0_LLC_total_MPKI 2.7581
Core_0_LLC_total_miss_rate 0.452492
Core_0_LLC_demand_access 96550
Core_0_LLC_demand_hit 41327
Core_0_LLC_demand_miss 55223
Core_0_LLC_demand_MPKI 1.10446
Core_0_LLC_demand_miss_rate 0.571963
Core_0_LLC_load_access 79733
Core_0_LLC_load_hit 37818
Core_0_LLC_load_miss 41915
Core_0_LLC_load_MPKI 0.8383
Core_0_LLC_load_miss_rate 0.525692
Core_0_LLC_rfo_access 16817
Core_0_LLC_rfo_hit 3509
Core_0_LLC_rfo_miss 13308
Core_0_LLC_rfo_MPKI 0.26616
Core_0_LLC_rfo_miss_rate 0.791342
Core_0_LLC_prefetch_access 128594
Core_0_LLC_prefetch_hit 62897
Core_0_LLC_prefetch_miss 65697
Core_0_LLC_prefetch_MPKI 1.31394
Core_0_LLC_prefetch_miss_rate 0.510887
Core_0_LLC_writeback_access 79624
Core_0_LLC_writeback_hit 62639
Core_0_LLC_writeback_miss 16985
Core_0_LLC_writeback_MPKI 0.3397
Core_0_LLC_writeback_miss_rate 0.213315
Core_0_LLC_prefetch_requested 0
Core_0_LLC_prefetch_issued 0
Core_0_LLC_prefetch_useful 0
Core_0_LLC_prefetch_useless 0
Core_0_LLC_prefetch_late 0
Core_0_LLC_prefetch_accuracy 0
Core_0_LLC_prefetch_coverage 0

[DRAM Statistics]
Channel_0_RQ_row_buffer_hit 1094
Channel_0_RQ_row_buffer_miss 120442
Channel_0_WQ_row_buffer_hit 11292
Channel_0_WQ_row_buffer_miss 36925
Channel_0_WQ_full 0
Channel_0_dbus_congested 430127
DRAM_total_RQ_row_buffer_hit 1094
DRAM_total_RQ_row_buffer_miss 120442
DRAM_total_WQ_row_buffer_hit 11292
DRAM_total_WQ_row_buffer_miss 36925
DRAM_total_WQ_full 0
DRAM_total_dbus_congested 430127
DRAM_avg_congested_cycle 15.1818

======STLB miss causes ========
Core_0_STLB_miss_cause_breakdown
Core_0_STLB_cause_Demand_Data_miss 0
Core_0_STLB_cause_Demand_Data_miss_rate 0
Core_0_STLB_cause_Demand_Instruction_miss 0
Core_0_STLB_cause_Demand_Instruction_miss_rate 0
Core_0_STLB_cause_L1D_Prefetch_miss 986
Core_0_STLB_cause_L1D_Prefetch_miss_rate 0.00356291
Core_0_STLB_cause_L1I_Prefetch_miss 0
Core_0_STLB_cause_L1I_Prefetch_miss_rate 0
Core_0_STLB_cause_Other_miss 0
Core_0_STLB_cause_Other_miss_rate 0
Core_0_STLB_Demand_miss 0
Core_0_STLB_Demand_miss_rate 0
Core_0_STLB_L1D_Prefetch_miss 986
Core_0_STLB_L1D_Prefetch_miss_rate 0.00356291
Core_0_STLB_Other_miss 0
Core_0_STLB_Other_miss_rate 0
