[VMEM] WARNING: physical memory size is smaller than virtual memory size.

*** ChampSim Multicore Out-of-Order Simulator ***
Warmup Instructions: 20000000
Simulation Instructions: 50000000
Number of CPUs: 1
Page size: 4096
STLB ideal mode: demand
Core 0: /data0/tzh/champsim_traces/Ligra/ligra_PageRank.com-lj.ungraph.gcc_6.3.0_O3.drop_60750M.length_250M.champsimtrace.xz
 L1D Berti prefetcher
Off-chip DRAM Size: 4 GiB Channels: 1 Width: 64-bit Data Rate: 3205 MT/s
Warmup halting CPU 0 at instruction 20000001 cycle 4194186 for remainder of phase
Warmup finished CPU 0 instructions: 20000001 cycles: 4194186 cumulative IPC: 4.769 (Simulation time: 00 hr 01 min 15 sec)
Warmup complete CPU 0 instructions: 20000001 cycles: 4194186 cumulative IPC: 4.769 (Simulation time: 00 hr 01 min 15 sec)
Simulation finished CPU 0 instructions: 50000005 cycles: 98467239 cumulative IPC: 0.5078 (Simulation time: 00 hr 11 min 13 sec)
Simulation complete CPU 0 instructions: 50000005 cycles: 98467239 cumulative IPC: 0.5078 (Simulation time: 00 hr 11 min 13 sec)

ChampSim completed all CPUs

=== Simulation ===
CPU 0 runs /data0/tzh/champsim_traces/Ligra/ligra_PageRank.com-lj.ungraph.gcc_6.3.0_O3.drop_60750M.length_250M.champsimtrace.xz

Region of Interest Statistics

CPU 0 cumulative IPC: 0.5078 instructions: 50000005 cycles: 98467239
CPU 0 Branch Prediction Accuracy: 92.51% MPKI: 10.58 Average ROB Occupancy at Mispredict: 98.51
Branch type MPKI
BRANCH_DIRECT_JUMP: 4e-05
BRANCH_INDIRECT: 0
BRANCH_CONDITIONAL: 10.58
BRANCH_DIRECT_CALL: 0
BRANCH_INDIRECT_CALL: 0
BRANCH_RETURN: 4e-05

cpu0->cpu0_STLB TOTAL        ACCESS:    1767442 HIT:    1753078 MISS:      14364 MSHR_MERGE:          0
cpu0->cpu0_STLB LOAD         ACCESS:    1767442 HIT:    1753078 MISS:      14364 MSHR_MERGE:          0
cpu0->cpu0_STLB RFO          ACCESS:          0 HIT:          0 MISS:          0 MSHR_MERGE:          0
cpu0->cpu0_STLB PREFETCH     ACCESS:          0 HIT:          0 MISS:          0 MSHR_MERGE:          0
cpu0->cpu0_STLB WRITE        ACCESS:          0 HIT:          0 MISS:          0 MSHR_MERGE:          0
cpu0->cpu0_STLB TRANSLATION  ACCESS:          0 HIT:          0 MISS:          0 MSHR_MERGE:          0
cpu0->cpu0_STLB PREFETCH REQUESTED:          0 ISSUED:          0 USEFUL:          0 USELESS:          0 LATE:          0
cpu0->cpu0_STLB AVERAGE MISS LATENCY: 335.2 cycles
cpu0->cpu0_L2C TOTAL        ACCESS:    7504099 HIT:    2371615 MISS:    5132484 MSHR_MERGE:     670440
cpu0->cpu0_L2C LOAD         ACCESS:    1990347 HIT:     156361 MISS:    1833986 MSHR_MERGE:      29007
cpu0->cpu0_L2C RFO          ACCESS:         41 HIT:         40 MISS:          1 MSHR_MERGE:          0
cpu0->cpu0_L2C PREFETCH     ACCESS:    5304763 HIT:    2017874 MISS:    3286889 MSHR_MERGE:     641433
cpu0->cpu0_L2C WRITE        ACCESS:     193332 HIT:     193319 MISS:         13 MSHR_MERGE:          0
cpu0->cpu0_L2C TRANSLATION  ACCESS:      15616 HIT:       4021 MISS:      11595 MSHR_MERGE:          0
cpu0->cpu0_L2C PREFETCH REQUESTED:    4659180 ISSUED:    4625997 USEFUL:     657557 USELESS:    1830663 LATE:      29007
cpu0->cpu0_L2C AVERAGE MISS LATENCY: 254.6 cycles
cpu0->cpu0_L1I TOTAL        ACCESS:    1199421 HIT:    1199416 MISS:          5 MSHR_MERGE:          0
cpu0->cpu0_L1I LOAD         ACCESS:    1199421 HIT:    1199416 MISS:          5 MSHR_MERGE:          0
cpu0->cpu0_L1I RFO          ACCESS:          0 HIT:          0 MISS:          0 MSHR_MERGE:          0
cpu0->cpu0_L1I PREFETCH     ACCESS:          0 HIT:          0 MISS:          0 MSHR_MERGE:          0
cpu0->cpu0_L1I WRITE        ACCESS:          0 HIT:          0 MISS:          0 MSHR_MERGE:          0
cpu0->cpu0_L1I TRANSLATION  ACCESS:          0 HIT:          0 MISS:          0 MSHR_MERGE:          0
cpu0->cpu0_L1I PREFETCH REQUESTED:          0 ISSUED:          0 USEFUL:          0 USELESS:          0 LATE:          0
cpu0->cpu0_L1I AVERAGE MISS LATENCY: 225 cycles
cpu0->cpu0_L1D TOTAL        ACCESS:   14383238 HIT:   11220092 MISS:    3163146 MSHR_MERGE:     478387
cpu0->cpu0_L1D LOAD         ACCESS:   11062500 HIT:    8600768 MISS:    2461732 MSHR_MERGE:     471390
cpu0->cpu0_L1D RFO          ACCESS:          0 HIT:          0 MISS:          0 MSHR_MERGE:          0
cpu0->cpu0_L1D PREFETCH     ACCESS:     792715 HIT:     107024 MISS:     685691 MSHR_MERGE:       6931
cpu0->cpu0_L1D WRITE        ACCESS:    2496287 HIT:    2496208 MISS:         79 MSHR_MERGE:         38
cpu0->cpu0_L1D TRANSLATION  ACCESS:      31736 HIT:      16092 MISS:      15644 MSHR_MERGE:         28
cpu0->cpu0_L1D PREFETCH REQUESTED:     797927 ISSUED:     792715 USEFUL:     544542 USELESS:     134248 LATE:      38631
cpu0->cpu0_L1D AVERAGE MISS LATENCY: 242.9 cycles
cpu0->cpu0_ITLB TOTAL        ACCESS:    1193733 HIT:    1193732 MISS:          1 MSHR_MERGE:          0
cpu0->cpu0_ITLB LOAD         ACCESS:    1193733 HIT:    1193732 MISS:          1 MSHR_MERGE:          0
cpu0->cpu0_ITLB RFO          ACCESS:          0 HIT:          0 MISS:          0 MSHR_MERGE:          0
cpu0->cpu0_ITLB PREFETCH     ACCESS:          0 HIT:          0 MISS:          0 MSHR_MERGE:          0
cpu0->cpu0_ITLB WRITE        ACCESS:          0 HIT:          0 MISS:          0 MSHR_MERGE:          0
cpu0->cpu0_ITLB TRANSLATION  ACCESS:          0 HIT:          0 MISS:          0 MSHR_MERGE:          0
cpu0->cpu0_ITLB PREFETCH REQUESTED:          0 ISSUED:          0 USEFUL:          0 USELESS:          0 LATE:          0
cpu0->cpu0_ITLB AVERAGE MISS LATENCY: 5 cycles
cpu0->cpu0_DTLB TOTAL        ACCESS:   13865167 HIT:   12055184 MISS:    1809983 MSHR_MERGE:      42542
cpu0->cpu0_DTLB LOAD         ACCESS:   13865167 HIT:   12055184 MISS:    1809983 MSHR_MERGE:      42542
cpu0->cpu0_DTLB RFO          ACCESS:          0 HIT:          0 MISS:          0 MSHR_MERGE:          0
cpu0->cpu0_DTLB PREFETCH     ACCESS:          0 HIT:          0 MISS:          0 MSHR_MERGE:          0
cpu0->cpu0_DTLB WRITE        ACCESS:          0 HIT:          0 MISS:          0 MSHR_MERGE:          0
cpu0->cpu0_DTLB TRANSLATION  ACCESS:          0 HIT:          0 MISS:          0 MSHR_MERGE:          0
cpu0->cpu0_DTLB PREFETCH REQUESTED:          0 ISSUED:          0 USEFUL:          0 USELESS:          0 LATE:          0
cpu0->cpu0_DTLB AVERAGE MISS LATENCY: 7.741 cycles
cpu0->LLC TOTAL        ACCESS:    4648575 HIT:     505159 MISS:    4143416 MSHR_MERGE:          0
cpu0->LLC LOAD         ACCESS:    1804979 HIT:     225309 MISS:    1579670 MSHR_MERGE:          0
cpu0->LLC RFO          ACCESS:          1 HIT:          0 MISS:          1 MSHR_MERGE:          0
cpu0->LLC PREFETCH     ACCESS:    2645456 HIT:     249232 MISS:    2396224 MSHR_MERGE:          0
cpu0->LLC WRITE        ACCESS:     186544 HIT:      28955 MISS:     157589 MSHR_MERGE:          0
cpu0->LLC TRANSLATION  ACCESS:      11595 HIT:       1663 MISS:       9932 MSHR_MERGE:          0
cpu0->LLC PREFETCH REQUESTED:          0 ISSUED:          0 USEFUL:          0 USELESS:          0 LATE:          0
cpu0->LLC AVERAGE MISS LATENCY: 250 cycles

DRAM Statistics

Channel 0 RQ ROW_BUFFER_HIT:      25214
  ROW_BUFFER_MISS:    3960604
  AVG DBUS CONGESTED CYCLE: 3.483
Channel 0 WQ ROW_BUFFER_HIT:      18381
  ROW_BUFFER_MISS:     143215
  FULL:          0
Channel 0 REFRESHES ISSUED:       8206

[ROI Statistics]
[System Configuration]
num_cpus 1
cpu_freq 4000
fetch_width 6
decode_width 6
dispatch_width 6
execute_width 6
lq_width 2
sq_width 2
retire_width 6
scheduler_size 160
branch_mispredict_penalty 1
rob_size 352
lq_size 240
sq_size 112
ifetch_buffer_size 64
decode_buffer_size 32
dispatch_buffer_size 32
register_file_size 288
decode_latency 1
dispatch_latency 1
schedule_latency 0
execute_latency 0
page_size 4096
block_size 64
core_0_itlb_set 16
core_0_itlb_way 4
core_0_itlb_rq_size 16
core_0_itlb_wq_size 16
core_0_itlb_pq_size 0
core_0_itlb_mshr_size 8
core_0_itlb_hit_latency 1
core_0_itlb_fill_latency 1
core_0_itlb_max_tag_check 2
core_0_itlb_max_fill 2
core_0_dtlb_set 16
core_0_dtlb_way 4
core_0_dtlb_rq_size 16
core_0_dtlb_wq_size 16
core_0_dtlb_pq_size 0
core_0_dtlb_mshr_size 8
core_0_dtlb_hit_latency 1
core_0_dtlb_fill_latency 1
core_0_dtlb_max_tag_check 2
core_0_dtlb_max_fill 2
core_0_stlb_set 128
core_0_stlb_way 12
core_0_stlb_rq_size 32
core_0_stlb_wq_size 32
core_0_stlb_pq_size 0
core_0_stlb_mshr_size 16
core_0_stlb_hit_latency 4
core_0_stlb_fill_latency 4
core_0_stlb_max_tag_check 1
core_0_stlb_max_fill 1
core_0_l1i_set 64
core_0_l1i_way 8
core_0_l1i_rq_size 64
core_0_l1i_wq_size 64
core_0_l1i_pq_size 32
core_0_l1i_mshr_size 8
core_0_l1i_hit_latency 2
core_0_l1i_fill_latency 2
core_0_l1i_max_tag_check 2
core_0_l1i_max_fill 2
core_0_l1d_set 64
core_0_l1d_way 12
core_0_l1d_rq_size 64
core_0_l1d_wq_size 64
core_0_l1d_pq_size 8
core_0_l1d_mshr_size 16
core_0_l1d_hit_latency 2
core_0_l1d_fill_latency 3
core_0_l1d_max_tag_check 2
core_0_l1d_max_fill 2
core_0_l2c_set 1024
core_0_l2c_way 8
core_0_l2c_rq_size 32
core_0_l2c_wq_size 32
core_0_l2c_pq_size 16
core_0_l2c_mshr_size 32
core_0_l2c_hit_latency 5
core_0_l2c_fill_latency 5
core_0_l2c_max_tag_check 1
core_0_l2c_max_fill 1
llc_set 2048
llc_way 16
llc_rq_size 32
llc_wq_size 32
llc_pq_size 32
llc_mshr_size 64
llc_hit_latency 10
llc_fill_latency 10
llc_max_tag_check 1
llc_max_fill 1
dram_channels 1
dram_ranks 1
dram_bankgroups 8
dram_banks 4
dram_rows 16384
dram_columns 1024
dram_channel_width 8
dram_rq_size 64
dram_wq_size 64
dram_size 4294967296
core_0_itlb_prefetcher no
core_0_dtlb_prefetcher no
core_0_stlb_prefetcher no
core_0_l1i_prefetcher next_line
core_0_l1d_prefetcher berti
core_0_l2c_prefetcher pythia
llc_prefetcher no
llc_replacement drrip

Core_0_instructions 50000005
Core_0_cycles 98467239
Core_0_IPC 0.507783
Core_0_branch_prediction_accuracy 92.5084
Core_0_branch_MPKI 10.5794
Core_0_average_ROB_occupancy_at_mispredict 98.5108

Core_0_ITLB_total_access 1193733
Core_0_ITLB_total_hit 1193732
Core_0_ITLB_total_miss 1
Core_0_ITLB_total_MPKI 2e-05
Core_0_ITLB_total_miss_rate 8.37708e-07
Core_0_ITLB_demand_access 1193733
Core_0_ITLB_demand_hit 1193732
Core_0_ITLB_demand_miss 1
Core_0_ITLB_demand_MPKI 2e-05
Core_0_ITLB_demand_miss_rate 8.37708e-07
Core_0_ITLB_load_access 1193733
Core_0_ITLB_load_hit 1193732
Core_0_ITLB_load_miss 1
Core_0_ITLB_load_MPKI 2e-05
Core_0_ITLB_load_miss_rate 8.37708e-07
Core_0_ITLB_rfo_access 0
Core_0_ITLB_rfo_hit 0
Core_0_ITLB_rfo_miss 0
Core_0_ITLB_rfo_MPKI 0
Core_0_ITLB_rfo_miss_rate 0
Core_0_ITLB_prefetch_access 0
Core_0_ITLB_prefetch_hit 0
Core_0_ITLB_prefetch_miss 0
Core_0_ITLB_prefetch_MPKI 0
Core_0_ITLB_prefetch_miss_rate 0
Core_0_ITLB_writeback_access 0
Core_0_ITLB_writeback_hit 0
Core_0_ITLB_writeback_miss 0
Core_0_ITLB_writeback_MPKI 0
Core_0_ITLB_writeback_miss_rate 0
Core_0_ITLB_prefetch_requested 0
Core_0_ITLB_prefetch_issued 0
Core_0_ITLB_prefetch_useful 0
Core_0_ITLB_prefetch_useless 0
Core_0_ITLB_prefetch_late 0
Core_0_ITLB_prefetch_accuracy 0
Core_0_ITLB_prefetch_coverage 0

Core_0_DTLB_total_access 13865167
Core_0_DTLB_total_hit 12055184
Core_0_DTLB_total_miss 1809983
Core_0_DTLB_total_MPKI 36.1997
Core_0_DTLB_total_miss_rate 0.130542
Core_0_DTLB_demand_access 13865167
Core_0_DTLB_demand_hit 12055184
Core_0_DTLB_demand_miss 1809983
Core_0_DTLB_demand_MPKI 36.1997
Core_0_DTLB_demand_miss_rate 0.130542
Core_0_DTLB_load_access 13865167
Core_0_DTLB_load_hit 12055184
Core_0_DTLB_load_miss 1809983
Core_0_DTLB_load_MPKI 36.1997
Core_0_DTLB_load_miss_rate 0.130542
Core_0_DTLB_rfo_access 0
Core_0_DTLB_rfo_hit 0
Core_0_DTLB_rfo_miss 0
Core_0_DTLB_rfo_MPKI 0
Core_0_DTLB_rfo_miss_rate 0
Core_0_DTLB_prefetch_access 0
Core_0_DTLB_prefetch_hit 0
Core_0_DTLB_prefetch_miss 0
Core_0_DTLB_prefetch_MPKI 0
Core_0_DTLB_prefetch_miss_rate 0
Core_0_DTLB_writeback_access 0
Core_0_DTLB_writeback_hit 0
Core_0_DTLB_writeback_miss 0
Core_0_DTLB_writeback_MPKI 0
Core_0_DTLB_writeback_miss_rate 0
Core_0_DTLB_prefetch_requested 0
Core_0_DTLB_prefetch_issued 0
Core_0_DTLB_prefetch_useful 0
Core_0_DTLB_prefetch_useless 0
Core_0_DTLB_prefetch_late 0
Core_0_DTLB_prefetch_accuracy 0
Core_0_DTLB_prefetch_coverage 0

Core_0_STLB_total_access 1767442
Core_0_STLB_total_hit 1753078
Core_0_STLB_total_miss 14364
Core_0_STLB_total_MPKI 0.28728
Core_0_STLB_total_miss_rate 0.008127
Core_0_STLB_demand_access 1767442
Core_0_STLB_demand_hit 1753078
Core_0_STLB_demand_miss 14364
Core_0_STLB_demand_MPKI 0.28728
Core_0_STLB_demand_miss_rate 0.008127
Core_0_STLB_load_access 1767442
Core_0_STLB_load_hit 1753078
Core_0_STLB_load_miss 14364
Core_0_STLB_load_MPKI 0.28728
Core_0_STLB_load_miss_rate 0.008127
Core_0_STLB_rfo_access 0
Core_0_STLB_rfo_hit 0
Core_0_STLB_rfo_miss 0
Core_0_STLB_rfo_MPKI 0
Core_0_STLB_rfo_miss_rate 0
Core_0_STLB_prefetch_access 0
Core_0_STLB_prefetch_hit 0
Core_0_STLB_prefetch_miss 0
Core_0_STLB_prefetch_MPKI 0
Core_0_STLB_prefetch_miss_rate 0
Core_0_STLB_writeback_access 0
Core_0_STLB_writeback_hit 0
Core_0_STLB_writeback_miss 0
Core_0_STLB_writeback_MPKI 0
Core_0_STLB_writeback_miss_rate 0
Core_0_STLB_prefetch_requested 0
Core_0_STLB_prefetch_issued 0
Core_0_STLB_prefetch_useful 0
Core_0_STLB_prefetch_useless 0
Core_0_STLB_prefetch_late 0
Core_0_STLB_prefetch_accuracy 0
Core_0_STLB_prefetch_coverage 0

Core_0_L1I_total_access 1199421
Core_0_L1I_total_hit 1199416
Core_0_L1I_total_miss 5
Core_0_L1I_total_MPKI 0.0001
Core_0_L1I_total_miss_rate 4.16868e-06
Core_0_L1I_demand_access 1199421
Core_0_L1I_demand_hit 1199416
Core_0_L1I_demand_miss 5
Core_0_L1I_demand_MPKI 0.0001
Core_0_L1I_demand_miss_rate 4.16868e-06
Core_0_L1I_load_access 1199421
Core_0_L1I_load_hit 1199416
Core_0_L1I_load_miss 5
Core_0_L1I_load_MPKI 0.0001
Core_0_L1I_load_miss_rate 4.16868e-06
Core_0_L1I_rfo_access 0
Core_0_L1I_rfo_hit 0
Core_0_L1I_rfo_miss 0
Core_0_L1I_rfo_MPKI 0
Core_0_L1I_rfo_miss_rate 0
Core_0_L1I_prefetch_access 0
Core_0_L1I_prefetch_hit 0
Core_0_L1I_prefetch_miss 0
Core_0_L1I_prefetch_MPKI 0
Core_0_L1I_prefetch_miss_rate 0
Core_0_L1I_writeback_access 0
Core_0_L1I_writeback_hit 0
Core_0_L1I_writeback_miss 0
Core_0_L1I_writeback_MPKI 0
Core_0_L1I_writeback_miss_rate 0
Core_0_L1I_prefetch_requested 0
Core_0_L1I_prefetch_issued 0
Core_0_L1I_prefetch_useful 0
Core_0_L1I_prefetch_useless 0
Core_0_L1I_prefetch_late 0
Core_0_L1I_prefetch_accuracy 0
Core_0_L1I_prefetch_coverage 0

Core_0_L1D_total_access 14351502
Core_0_L1D_total_hit 11204000
Core_0_L1D_total_miss 3147502
Core_0_L1D_total_MPKI 62.95
Core_0_L1D_total_miss_rate 0.219315
Core_0_L1D_demand_access 11062500
Core_0_L1D_demand_hit 8600768
Core_0_L1D_demand_miss 2461732
Core_0_L1D_demand_MPKI 49.2346
Core_0_L1D_demand_miss_rate 0.222529
Core_0_L1D_load_access 11062500
Core_0_L1D_load_hit 8600768
Core_0_L1D_load_miss 2461732
Core_0_L1D_load_MPKI 49.2346
Core_0_L1D_load_miss_rate 0.222529
Core_0_L1D_rfo_access 0
Core_0_L1D_rfo_hit 0
Core_0_L1D_rfo_miss 0
Core_0_L1D_rfo_MPKI 0
Core_0_L1D_rfo_miss_rate 0
Core_0_L1D_prefetch_access 792715
Core_0_L1D_prefetch_hit 107024
Core_0_L1D_prefetch_miss 685691
Core_0_L1D_prefetch_MPKI 13.7138
Core_0_L1D_prefetch_miss_rate 0.864991
Core_0_L1D_writeback_access 2496287
Core_0_L1D_writeback_hit 2496208
Core_0_L1D_writeback_miss 79
Core_0_L1D_writeback_MPKI 0.00158
Core_0_L1D_writeback_miss_rate 3.1647e-05
Core_0_L1D_prefetch_requested 797927
Core_0_L1D_prefetch_issued 792715
Core_0_L1D_prefetch_useful 544542
Core_0_L1D_prefetch_useless 134248
Core_0_L1D_prefetch_late 38631
Core_0_L1D_prefetch_accuracy 0.686933
Core_0_L1D_prefetch_coverage 0.181135

Core_0_L2C_total_access 7488483
Core_0_L2C_total_hit 2367594
Core_0_L2C_total_miss 5120889
Core_0_L2C_total_MPKI 102.418
Core_0_L2C_total_miss_rate 0.683835
Core_0_L2C_demand_access 1990388
Core_0_L2C_demand_hit 156401
Core_0_L2C_demand_miss 1833987
Core_0_L2C_demand_MPKI 36.6797
Core_0_L2C_demand_miss_rate 0.921422
Core_0_L2C_load_access 1990347
Core_0_L2C_load_hit 156361
Core_0_L2C_load_miss 1833986
Core_0_L2C_load_MPKI 36.6797
Core_0_L2C_load_miss_rate 0.92144
Core_0_L2C_rfo_access 41
Core_0_L2C_rfo_hit 40
Core_0_L2C_rfo_miss 1
Core_0_L2C_rfo_MPKI 2e-05
Core_0_L2C_rfo_miss_rate 0.0243902
Core_0_L2C_prefetch_access 5304763
Core_0_L2C_prefetch_hit 2017874
Core_0_L2C_prefetch_miss 3286889
Core_0_L2C_prefetch_MPKI 65.7378
Core_0_L2C_prefetch_miss_rate 0.619611
Core_0_L2C_writeback_access 193332
Core_0_L2C_writeback_hit 193319
Core_0_L2C_writeback_miss 13
Core_0_L2C_writeback_MPKI 0.00026
Core_0_L2C_writeback_miss_rate 6.72418e-05
Core_0_L2C_prefetch_requested 4659180
Core_0_L2C_prefetch_issued 4625997
Core_0_L2C_prefetch_useful 657557
Core_0_L2C_prefetch_useless 1830663
Core_0_L2C_prefetch_late 29007
Core_0_L2C_prefetch_accuracy 0.142144
Core_0_L2C_prefetch_coverage 0.263915

Core_0_LLC_total_access 4636980
Core_0_LLC_total_hit 503496
Core_0_LLC_total_miss 4133484
Core_0_LLC_total_MPKI 82.6697
Core_0_LLC_total_miss_rate 0.891417
Core_0_LLC_demand_access 1804980
Core_0_LLC_demand_hit 225309
Core_0_LLC_demand_miss 1579671
Core_0_LLC_demand_MPKI 31.5934
Core_0_LLC_demand_miss_rate 0.875174
Core_0_LLC_load_access 1804979
Core_0_LLC_load_hit 225309
Core_0_LLC_load_miss 1579670
Core_0_LLC_load_MPKI 31.5934
Core_0_LLC_load_miss_rate 0.875174
Core_0_LLC_rfo_access 1
Core_0_LLC_rfo_hit 0
Core_0_LLC_rfo_miss 1
Core_0_LLC_rfo_MPKI 2e-05
Core_0_LLC_rfo_miss_rate 1
Core_0_LLC_prefetch_access 2645456
Core_0_LLC_prefetch_hit 249232
Core_0_LLC_prefetch_miss 2396224
Core_0_LLC_prefetch_MPKI 47.9245
Core_0_LLC_prefetch_miss_rate 0.905789
Core_0_LLC_writeback_access 186544
Core_0_LLC_writeback_hit 28955
Core_0_LLC_writeback_miss 157589
Core_0_LLC_writeback_MPKI 3.15178
Core_0_LLC_writeback_miss_rate 0.844782
Core_0_LLC_prefetch_requested 0
Core_0_LLC_prefetch_issued 0
Core_0_LLC_prefetch_useful 0
Core_0_LLC_prefetch_useless 0
Core_0_LLC_prefetch_late 0
Core_0_LLC_prefetch_accuracy 0
Core_0_LLC_prefetch_coverage 0

[DRAM Statistics]
Channel_0_RQ_row_buffer_hit 25214
Channel_0_RQ_row_buffer_miss 3960604
Channel_0_WQ_row_buffer_hit 18381
Channel_0_WQ_row_buffer_miss 143215
Channel_0_WQ_full 0
Channel_0_dbus_congested 8959432
DRAM_total_RQ_row_buffer_hit 25214
DRAM_total_RQ_row_buffer_miss 3960604
DRAM_total_WQ_row_buffer_hit 18381
DRAM_total_WQ_row_buffer_miss 143215
DRAM_total_WQ_full 0
DRAM_total_dbus_congested 8959432
DRAM_avg_congested_cycle 3.48279

======STLB miss causes ========
Core_0_STLB_miss_cause_breakdown
Core_0_STLB_cause_Demand_Data_miss 0
Core_0_STLB_cause_Demand_Data_miss_rate 0
Core_0_STLB_cause_Demand_Instruction_miss 0
Core_0_STLB_cause_Demand_Instruction_miss_rate 0
Core_0_STLB_cause_L1D_Prefetch_miss 14364
Core_0_STLB_cause_L1D_Prefetch_miss_rate 0.008127
Core_0_STLB_cause_L1I_Prefetch_miss 0
Core_0_STLB_cause_L1I_Prefetch_miss_rate 0
Core_0_STLB_cause_Other_miss 0
Core_0_STLB_cause_Other_miss_rate 0
Core_0_STLB_Demand_miss 0
Core_0_STLB_Demand_miss_rate 0
Core_0_STLB_L1D_Prefetch_miss 14364
Core_0_STLB_L1D_Prefetch_miss_rate 0.008127
Core_0_STLB_Other_miss 0
Core_0_STLB_Other_miss_rate 0
