[VMEM] WARNING: physical memory size is smaller than virtual memory size.

*** ChampSim Multicore Out-of-Order Simulator ***
Warmup Instructions: 20000000
Simulation Instructions: 50000000
Number of CPUs: 1
Page size: 4096
STLB ideal mode: demand
Core 0: /data0/tzh/champsim_traces/Ligra/ligra_Radii.com-lj.ungraph.gcc_6.3.0_O3.drop_25000M.length_250M.champsimtrace.xz
 L1D Berti prefetcher
Off-chip DRAM Size: 4 GiB Channels: 1 Width: 64-bit Data Rate: 3205 MT/s
Warmup halting CPU 0 at instruction 20000000 cycle 4293438 for remainder of phase
Warmup finished CPU 0 instructions: 20000000 cycles: 4293438 cumulative IPC: 4.658 (Simulation time: 00 hr 01 min 09 sec)
Warmup complete CPU 0 instructions: 20000000 cycles: 4293438 cumulative IPC: 4.658 (Simulation time: 00 hr 01 min 09 sec)
Simulation finished CPU 0 instructions: 50000004 cycles: 158202035 cumulative IPC: 0.3161 (Simulation time: 00 hr 15 min 18 sec)
Simulation complete CPU 0 instructions: 50000004 cycles: 158202035 cumulative IPC: 0.3161 (Simulation time: 00 hr 15 min 18 sec)

ChampSim completed all CPUs

=== Simulation ===
CPU 0 runs /data0/tzh/champsim_traces/Ligra/ligra_Radii.com-lj.ungraph.gcc_6.3.0_O3.drop_25000M.length_250M.champsimtrace.xz

Region of Interest Statistics

CPU 0 cumulative IPC: 0.3161 instructions: 50000004 cycles: 158202035
CPU 0 Branch Prediction Accuracy: 89.23% MPKI: 18.15 Average ROB Occupancy at Mispredict: 26.1
Branch type MPKI
BRANCH_DIRECT_JUMP: 0.00048
BRANCH_INDIRECT: 0
BRANCH_CONDITIONAL: 18.15
BRANCH_DIRECT_CALL: 0.00038
BRANCH_INDIRECT_CALL: 0
BRANCH_RETURN: 0.0004

cpu0->cpu0_STLB TOTAL        ACCESS:    1191681 HIT:    1177015 MISS:      14666 MSHR_MERGE:          0
cpu0->cpu0_STLB LOAD         ACCESS:    1191681 HIT:    1177015 MISS:      14666 MSHR_MERGE:          0
cpu0->cpu0_STLB RFO          ACCESS:          0 HIT:          0 MISS:          0 MSHR_MERGE:          0
cpu0->cpu0_STLB PREFETCH     ACCESS:          0 HIT:          0 MISS:          0 MSHR_MERGE:          0
cpu0->cpu0_STLB WRITE        ACCESS:          0 HIT:          0 MISS:          0 MSHR_MERGE:          0
cpu0->cpu0_STLB TRANSLATION  ACCESS:          0 HIT:          0 MISS:          0 MSHR_MERGE:          0
cpu0->cpu0_STLB PREFETCH REQUESTED:          0 ISSUED:          0 USEFUL:          0 USELESS:          0 LATE:          0
cpu0->cpu0_STLB AVERAGE MISS LATENCY: 372.7 cycles
cpu0->cpu0_L2C TOTAL        ACCESS:    6932006 HIT:    2628140 MISS:    4303866 MSHR_MERGE:     647855
cpu0->cpu0_L2C LOAD         ACCESS:    1484693 HIT:     176406 MISS:    1308287 MSHR_MERGE:      66170
cpu0->cpu0_L2C RFO          ACCESS:     355914 HIT:       3145 MISS:     352769 MSHR_MERGE:          0
cpu0->cpu0_L2C PREFETCH     ACCESS:    4316187 HIT:    1686550 MISS:    2629637 MSHR_MERGE:     581685
cpu0->cpu0_L2C WRITE        ACCESS:     760494 HIT:     760419 MISS:         75 MSHR_MERGE:          0
cpu0->cpu0_L2C TRANSLATION  ACCESS:      14718 HIT:       1620 MISS:      13098 MSHR_MERGE:          0
cpu0->cpu0_L2C PREFETCH REQUESTED:    3793851 ISSUED:    3763300 USEFUL:     548085 USELESS:    1312226 LATE:      66170
cpu0->cpu0_L2C AVERAGE MISS LATENCY: 347.2 cycles
cpu0->cpu0_L1I TOTAL        ACCESS:    2332251 HIT:    2332174 MISS:         77 MSHR_MERGE:         10
cpu0->cpu0_L1I LOAD         ACCESS:    2332251 HIT:    2332174 MISS:         77 MSHR_MERGE:         10
cpu0->cpu0_L1I RFO          ACCESS:          0 HIT:          0 MISS:          0 MSHR_MERGE:          0
cpu0->cpu0_L1I PREFETCH     ACCESS:          0 HIT:          0 MISS:          0 MSHR_MERGE:          0
cpu0->cpu0_L1I WRITE        ACCESS:          0 HIT:          0 MISS:          0 MSHR_MERGE:          0
cpu0->cpu0_L1I TRANSLATION  ACCESS:          0 HIT:          0 MISS:          0 MSHR_MERGE:          0
cpu0->cpu0_L1I PREFETCH REQUESTED:          0 ISSUED:          0 USEFUL:          0 USELESS:          0 LATE:          0
cpu0->cpu0_L1I AVERAGE MISS LATENCY: 257.5 cycles
cpu0->cpu0_L1D TOTAL        ACCESS:   15476805 HIT:   11017218 MISS:    4459587 MSHR_MERGE:    2051446
cpu0->cpu0_L1D LOAD         ACCESS:   10373021 HIT:    8413794 MISS:    1959227 MSHR_MERGE:     474601
cpu0->cpu0_L1D RFO          ACCESS:          0 HIT:          0 MISS:          0 MSHR_MERGE:          0
cpu0->cpu0_L1D PREFETCH     ACCESS:     625285 HIT:      63455 MISS:     561830 MSHR_MERGE:       8948
cpu0->cpu0_L1D WRITE        ACCESS:    4448309 HIT:    2524502 MISS:    1923807 MSHR_MERGE:    1567892
cpu0->cpu0_L1D TRANSLATION  ACCESS:      30190 HIT:      15467 MISS:      14723 MSHR_MERGE:          5
cpu0->cpu0_L1D PREFETCH REQUESTED:     632429 ISSUED:     625284 USEFUL:     345666 USELESS:     207228 LATE:      16741
cpu0->cpu0_L1D AVERAGE MISS LATENCY: 320.9 cycles
cpu0->cpu0_ITLB TOTAL        ACCESS:    2069368 HIT:    2069362 MISS:          6 MSHR_MERGE:          2
cpu0->cpu0_ITLB LOAD         ACCESS:    2069368 HIT:    2069362 MISS:          6 MSHR_MERGE:          2
cpu0->cpu0_ITLB RFO          ACCESS:          0 HIT:          0 MISS:          0 MSHR_MERGE:          0
cpu0->cpu0_ITLB PREFETCH     ACCESS:          0 HIT:          0 MISS:          0 MSHR_MERGE:          0
cpu0->cpu0_ITLB WRITE        ACCESS:          0 HIT:          0 MISS:          0 MSHR_MERGE:          0
cpu0->cpu0_ITLB TRANSLATION  ACCESS:          0 HIT:          0 MISS:          0 MSHR_MERGE:          0
cpu0->cpu0_ITLB PREFETCH REQUESTED:          0 ISSUED:          0 USEFUL:          0 USELESS:          0 LATE:          0
cpu0->cpu0_ITLB AVERAGE MISS LATENCY: 5 cycles
cpu0->cpu0_DTLB TOTAL        ACCESS:   15055279 HIT:   13699634 MISS:    1355645 MSHR_MERGE:     163968
cpu0->cpu0_DTLB LOAD         ACCESS:   15055279 HIT:   13699634 MISS:    1355645 MSHR_MERGE:     163968
cpu0->cpu0_DTLB RFO          ACCESS:          0 HIT:          0 MISS:          0 MSHR_MERGE:          0
cpu0->cpu0_DTLB PREFETCH     ACCESS:          0 HIT:          0 MISS:          0 MSHR_MERGE:          0
cpu0->cpu0_DTLB WRITE        ACCESS:          0 HIT:          0 MISS:          0 MSHR_MERGE:          0
cpu0->cpu0_DTLB TRANSLATION  ACCESS:          0 HIT:          0 MISS:          0 MSHR_MERGE:          0
cpu0->cpu0_DTLB PREFETCH REQUESTED:          0 ISSUED:          0 USEFUL:          0 USELESS:          0 LATE:          0
cpu0->cpu0_DTLB AVERAGE MISS LATENCY: 9.612 cycles
cpu0->LLC TOTAL        ACCESS:    4410834 HIT:     320964 MISS:    4089870 MSHR_MERGE:          0
cpu0->LLC LOAD         ACCESS:    1242117 HIT:      41254 MISS:    1200863 MSHR_MERGE:          0
cpu0->LLC RFO          ACCESS:     352769 HIT:      12562 MISS:     340207 MSHR_MERGE:          0
cpu0->LLC PREFETCH     ACCESS:    2047953 HIT:      81608 MISS:    1966345 MSHR_MERGE:          0
cpu0->LLC WRITE        ACCESS:     754897 HIT:     184726 MISS:     570171 MSHR_MERGE:          0
cpu0->LLC TRANSLATION  ACCESS:      13098 HIT:        814 MISS:      12284 MSHR_MERGE:          0
cpu0->LLC PREFETCH REQUESTED:          0 ISSUED:          0 USEFUL:          0 USELESS:          0 LATE:          0
cpu0->LLC AVERAGE MISS LATENCY: 254 cycles

DRAM Statistics

Channel 0 RQ ROW_BUFFER_HIT:      71191
  ROW_BUFFER_MISS:    3448311
  AVG DBUS CONGESTED CYCLE: 5.267
Channel 0 WQ ROW_BUFFER_HIT:     144768
  ROW_BUFFER_MISS:     571839
  FULL:        631
Channel 0 REFRESHES ISSUED:      13184

[ROI Statistics]
[System Configuration]
num_cpus 1
cpu_freq 4000
fetch_width 6
decode_width 6
dispatch_width 6
execute_width 6
lq_width 2
sq_width 2
retire_width 6
scheduler_size 160
branch_mispredict_penalty 1
rob_size 352
lq_size 240
sq_size 112
ifetch_buffer_size 64
decode_buffer_size 32
dispatch_buffer_size 32
register_file_size 288
decode_latency 1
dispatch_latency 1
schedule_latency 0
execute_latency 0
page_size 4096
block_size 64
core_0_itlb_set 16
core_0_itlb_way 4
core_0_itlb_rq_size 16
core_0_itlb_wq_size 16
core_0_itlb_pq_size 0
core_0_itlb_mshr_size 8
core_0_itlb_hit_latency 1
core_0_itlb_fill_latency 1
core_0_itlb_max_tag_check 2
core_0_itlb_max_fill 2
core_0_dtlb_set 16
core_0_dtlb_way 4
core_0_dtlb_rq_size 16
core_0_dtlb_wq_size 16
core_0_dtlb_pq_size 0
core_0_dtlb_mshr_size 8
core_0_dtlb_hit_latency 1
core_0_dtlb_fill_latency 1
core_0_dtlb_max_tag_check 2
core_0_dtlb_max_fill 2
core_0_stlb_set 128
core_0_stlb_way 12
core_0_stlb_rq_size 32
core_0_stlb_wq_size 32
core_0_stlb_pq_size 0
core_0_stlb_mshr_size 16
core_0_stlb_hit_latency 4
core_0_stlb_fill_latency 4
core_0_stlb_max_tag_check 1
core_0_stlb_max_fill 1
core_0_l1i_set 64
core_0_l1i_way 8
core_0_l1i_rq_size 64
core_0_l1i_wq_size 64
core_0_l1i_pq_size 32
core_0_l1i_mshr_size 8
core_0_l1i_hit_latency 2
core_0_l1i_fill_latency 2
core_0_l1i_max_tag_check 2
core_0_l1i_max_fill 2
core_0_l1d_set 64
core_0_l1d_way 12
core_0_l1d_rq_size 64
core_0_l1d_wq_size 64
core_0_l1d_pq_size 8
core_0_l1d_mshr_size 16
core_0_l1d_hit_latency 2
core_0_l1d_fill_latency 3
core_0_l1d_max_tag_check 2
core_0_l1d_max_fill 2
core_0_l2c_set 1024
core_0_l2c_way 8
core_0_l2c_rq_size 32
core_0_l2c_wq_size 32
core_0_l2c_pq_size 16
core_0_l2c_mshr_size 32
core_0_l2c_hit_latency 5
core_0_l2c_fill_latency 5
core_0_l2c_max_tag_check 1
core_0_l2c_max_fill 1
llc_set 2048
llc_way 16
llc_rq_size 32
llc_wq_size 32
llc_pq_size 32
llc_mshr_size 64
llc_hit_latency 10
llc_fill_latency 10
llc_max_tag_check 1
llc_max_fill 1
dram_channels 1
dram_ranks 1
dram_bankgroups 8
dram_banks 4
dram_rows 16384
dram_columns 1024
dram_channel_width 8
dram_rq_size 64
dram_wq_size 64
dram_size 4294967296
core_0_itlb_prefetcher no
core_0_dtlb_prefetcher no
core_0_stlb_prefetcher no
core_0_l1i_prefetcher next_line
core_0_l1d_prefetcher berti
core_0_l2c_prefetcher pythia
llc_prefetcher no
llc_replacement drrip

Core_0_instructions 50000004
Core_0_cycles 158202035
Core_0_IPC 0.316052
Core_0_branch_prediction_accuracy 89.2321
Core_0_branch_MPKI 18.1513
Core_0_average_ROB_occupancy_at_mispredict 26.1012

Core_0_ITLB_total_access 2069368
Core_0_ITLB_total_hit 2069362
Core_0_ITLB_total_miss 6
Core_0_ITLB_total_MPKI 0.00012
Core_0_ITLB_total_miss_rate 2.89944e-06
Core_0_ITLB_demand_access 2069368
Core_0_ITLB_demand_hit 2069362
Core_0_ITLB_demand_miss 6
Core_0_ITLB_demand_MPKI 0.00012
Core_0_ITLB_demand_miss_rate 2.89944e-06
Core_0_ITLB_load_access 2069368
Core_0_ITLB_load_hit 2069362
Core_0_ITLB_load_miss 6
Core_0_ITLB_load_MPKI 0.00012
Core_0_ITLB_load_miss_rate 2.89944e-06
Core_0_ITLB_rfo_access 0
Core_0_ITLB_rfo_hit 0
Core_0_ITLB_rfo_miss 0
Core_0_ITLB_rfo_MPKI 0
Core_0_ITLB_rfo_miss_rate 0
Core_0_ITLB_prefetch_access 0
Core_0_ITLB_prefetch_hit 0
Core_0_ITLB_prefetch_miss 0
Core_0_ITLB_prefetch_MPKI 0
Core_0_ITLB_prefetch_miss_rate 0
Core_0_ITLB_writeback_access 0
Core_0_ITLB_writeback_hit 0
Core_0_ITLB_writeback_miss 0
Core_0_ITLB_writeback_MPKI 0
Core_0_ITLB_writeback_miss_rate 0
Core_0_ITLB_prefetch_requested 0
Core_0_ITLB_prefetch_issued 0
Core_0_ITLB_prefetch_useful 0
Core_0_ITLB_prefetch_useless 0
Core_0_ITLB_prefetch_late 0
Core_0_ITLB_prefetch_accuracy 0
Core_0_ITLB_prefetch_coverage 0

Core_0_DTLB_total_access 15055279
Core_0_DTLB_total_hit 13699634
Core_0_DTLB_total_miss 1355645
Core_0_DTLB_total_MPKI 27.1129
Core_0_DTLB_total_miss_rate 0.0900445
Core_0_DTLB_demand_access 15055279
Core_0_DTLB_demand_hit 13699634
Core_0_DTLB_demand_miss 1355645
Core_0_DTLB_demand_MPKI 27.1129
Core_0_DTLB_demand_miss_rate 0.0900445
Core_0_DTLB_load_access 15055279
Core_0_DTLB_load_hit 13699634
Core_0_DTLB_load_miss 1355645
Core_0_DTLB_load_MPKI 27.1129
Core_0_DTLB_load_miss_rate 0.0900445
Core_0_DTLB_rfo_access 0
Core_0_DTLB_rfo_hit 0
Core_0_DTLB_rfo_miss 0
Core_0_DTLB_rfo_MPKI 0
Core_0_DTLB_rfo_miss_rate 0
Core_0_DTLB_prefetch_access 0
Core_0_DTLB_prefetch_hit 0
Core_0_DTLB_prefetch_miss 0
Core_0_DTLB_prefetch_MPKI 0
Core_0_DTLB_prefetch_miss_rate 0
Core_0_DTLB_writeback_access 0
Core_0_DTLB_writeback_hit 0
Core_0_DTLB_writeback_miss 0
Core_0_DTLB_writeback_MPKI 0
Core_0_DTLB_writeback_miss_rate 0
Core_0_DTLB_prefetch_requested 0
Core_0_DTLB_prefetch_issued 0
Core_0_DTLB_prefetch_useful 0
Core_0_DTLB_prefetch_useless 0
Core_0_DTLB_prefetch_late 0
Core_0_DTLB_prefetch_accuracy 0
Core_0_DTLB_prefetch_coverage 0

Core_0_STLB_total_access 1191681
Core_0_STLB_total_hit 1177015
Core_0_STLB_total_miss 14666
Core_0_STLB_total_MPKI 0.29332
Core_0_STLB_total_miss_rate 0.012307
Core_0_STLB_demand_access 1191681
Core_0_STLB_demand_hit 1177015
Core_0_STLB_demand_miss 14666
Core_0_STLB_demand_MPKI 0.29332
Core_0_STLB_demand_miss_rate 0.012307
Core_0_STLB_load_access 1191681
Core_0_STLB_load_hit 1177015
Core_0_STLB_load_miss 14666
Core_0_STLB_load_MPKI 0.29332
Core_0_STLB_load_miss_rate 0.012307
Core_0_STLB_rfo_access 0
Core_0_STLB_rfo_hit 0
Core_0_STLB_rfo_miss 0
Core_0_STLB_rfo_MPKI 0
Core_0_STLB_rfo_miss_rate 0
Core_0_STLB_prefetch_access 0
Core_0_STLB_prefetch_hit 0
Core_0_STLB_prefetch_miss 0
Core_0_STLB_prefetch_MPKI 0
Core_0_STLB_prefetch_miss_rate 0
Core_0_STLB_writeback_access 0
Core_0_STLB_writeback_hit 0
Core_0_STLB_writeback_miss 0
Core_0_STLB_writeback_MPKI 0
Core_0_STLB_writeback_miss_rate 0
Core_0_STLB_prefetch_requested 0
Core_0_STLB_prefetch_issued 0
Core_0_STLB_prefetch_useful 0
Core_0_STLB_prefetch_useless 0
Core_0_STLB_prefetch_late 0
Core_0_STLB_prefetch_accuracy 0
Core_0_STLB_prefetch_coverage 0

Core_0_L1I_total_access 2332251
Core_0_L1I_total_hit 2332174
Core_0_L1I_total_miss 77
Core_0_L1I_total_MPKI 0.00154
Core_0_L1I_total_miss_rate 3.30153e-05
Core_0_L1I_demand_access 2332251
Core_0_L1I_demand_hit 2332174
Core_0_L1I_demand_miss 77
Core_0_L1I_demand_MPKI 0.00154
Core_0_L1I_demand_miss_rate 3.30153e-05
Core_0_L1I_load_access 2332251
Core_0_L1I_load_hit 2332174
Core_0_L1I_load_miss 77
Core_0_L1I_load_MPKI 0.00154
Core_0_L1I_load_miss_rate 3.30153e-05
Core_0_L1I_rfo_access 0
Core_0_L1I_rfo_hit 0
Core_0_L1I_rfo_miss 0
Core_0_L1I_rfo_MPKI 0
Core_0_L1I_rfo_miss_rate 0
Core_0_L1I_prefetch_access 0
Core_0_L1I_prefetch_hit 0
Core_0_L1I_prefetch_miss 0
Core_0_L1I_prefetch_MPKI 0
Core_0_L1I_prefetch_miss_rate 0
Core_0_L1I_writeback_access 0
Core_0_L1I_writeback_hit 0
Core_0_L1I_writeback_miss 0
Core_0_L1I_writeback_MPKI 0
Core_0_L1I_writeback_miss_rate 0
Core_0_L1I_prefetch_requested 0
Core_0_L1I_prefetch_issued 0
Core_0_L1I_prefetch_useful 0
Core_0_L1I_prefetch_useless 0
Core_0_L1I_prefetch_late 0
Core_0_L1I_prefetch_accuracy 0
Core_0_L1I_prefetch_coverage 0

Core_0_L1D_total_access 15446615
Core_0_L1D_total_hit 11001751
Core_0_L1D_total_miss 4444864
Core_0_L1D_total_MPKI 88.8973
Core_0_L1D_total_miss_rate 0.287757
Core_0_L1D_demand_access 10373021
Core_0_L1D_demand_hit 8413794
Core_0_L1D_demand_miss 1959227
Core_0_L1D_demand_MPKI 39.1845
Core_0_L1D_demand_miss_rate 0.188877
Core_0_L1D_load_access 10373021
Core_0_L1D_load_hit 8413794
Core_0_L1D_load_miss 1959227
Core_0_L1D_load_MPKI 39.1845
Core_0_L1D_load_miss_rate 0.188877
Core_0_L1D_rfo_access 0
Core_0_L1D_rfo_hit 0
Core_0_L1D_rfo_miss 0
Core_0_L1D_rfo_MPKI 0
Core_0_L1D_rfo_miss_rate 0
Core_0_L1D_prefetch_access 625285
Core_0_L1D_prefetch_hit 63455
Core_0_L1D_prefetch_miss 561830
Core_0_L1D_prefetch_MPKI 11.2366
Core_0_L1D_prefetch_miss_rate 0.898518
Core_0_L1D_writeback_access 4448309
Core_0_L1D_writeback_hit 2524502
Core_0_L1D_writeback_miss 1923807
Core_0_L1D_writeback_MPKI 38.4761
Core_0_L1D_writeback_miss_rate 0.432481
Core_0_L1D_prefetch_requested 632429
Core_0_L1D_prefetch_issued 625284
Core_0_L1D_prefetch_useful 345666
Core_0_L1D_prefetch_useless 207228
Core_0_L1D_prefetch_late 16741
Core_0_L1D_prefetch_accuracy 0.552814
Core_0_L1D_prefetch_coverage 0.149971

Core_0_L2C_total_access 6917288
Core_0_L2C_total_hit 2626520
Core_0_L2C_total_miss 4290768
Core_0_L2C_total_MPKI 85.8154
Core_0_L2C_total_miss_rate 0.620296
Core_0_L2C_demand_access 1840607
Core_0_L2C_demand_hit 179551
Core_0_L2C_demand_miss 1661056
Core_0_L2C_demand_MPKI 33.2211
Core_0_L2C_demand_miss_rate 0.90245
Core_0_L2C_load_access 1484693
Core_0_L2C_load_hit 176406
Core_0_L2C_load_miss 1308287
Core_0_L2C_load_MPKI 26.1657
Core_0_L2C_load_miss_rate 0.881184
Core_0_L2C_rfo_access 355914
Core_0_L2C_rfo_hit 3145
Core_0_L2C_rfo_miss 352769
Core_0_L2C_rfo_MPKI 7.05538
Core_0_L2C_rfo_miss_rate 0.991164
Core_0_L2C_prefetch_access 4316187
Core_0_L2C_prefetch_hit 1686550
Core_0_L2C_prefetch_miss 2629637
Core_0_L2C_prefetch_MPKI 52.5927
Core_0_L2C_prefetch_miss_rate 0.60925
Core_0_L2C_writeback_access 760494
Core_0_L2C_writeback_hit 760419
Core_0_L2C_writeback_miss 75
Core_0_L2C_writeback_MPKI 0.0015
Core_0_L2C_writeback_miss_rate 9.86201e-05
Core_0_L2C_prefetch_requested 3793851
Core_0_L2C_prefetch_issued 3763300
Core_0_L2C_prefetch_useful 548085
Core_0_L2C_prefetch_useless 1312226
Core_0_L2C_prefetch_late 66170
Core_0_L2C_prefetch_accuracy 0.145639
Core_0_L2C_prefetch_coverage 0.248099

Core_0_LLC_total_access 4397736
Core_0_LLC_total_hit 320150
Core_0_LLC_total_miss 4077586
Core_0_LLC_total_MPKI 81.5517
Core_0_LLC_total_miss_rate 0.927201
Core_0_LLC_demand_access 1594886
Core_0_LLC_demand_hit 53816
Core_0_LLC_demand_miss 1541070
Core_0_LLC_demand_MPKI 30.8214
Core_0_LLC_demand_miss_rate 0.966257
Core_0_LLC_load_access 1242117
Core_0_LLC_load_hit 41254
Core_0_LLC_load_miss 1200863
Core_0_LLC_load_MPKI 24.0173
Core_0_LLC_load_miss_rate 0.966787
Core_0_LLC_rfo_access 352769
Core_0_LLC_rfo_hit 12562
Core_0_LLC_rfo_miss 340207
Core_0_LLC_rfo_MPKI 6.80414
Core_0_LLC_rfo_miss_rate 0.96439
Core_0_LLC_prefetch_access 2047953
Core_0_LLC_prefetch_hit 81608
Core_0_LLC_prefetch_miss 1966345
Core_0_LLC_prefetch_MPKI 39.3269
Core_0_LLC_prefetch_miss_rate 0.960151
Core_0_LLC_writeback_access 754897
Core_0_LLC_writeback_hit 184726
Core_0_LLC_writeback_miss 570171
Core_0_LLC_writeback_MPKI 11.4034
Core_0_LLC_writeback_miss_rate 0.755296
Core_0_LLC_prefetch_requested 0
Core_0_LLC_prefetch_issued 0
Core_0_LLC_prefetch_useful 0
Core_0_LLC_prefetch_useless 0
Core_0_LLC_prefetch_late 0
Core_0_LLC_prefetch_accuracy 0
Core_0_LLC_prefetch_coverage 0

[DRAM Statistics]
Channel_0_RQ_row_buffer_hit 71191
Channel_0_RQ_row_buffer_miss 3448311
Channel_0_WQ_row_buffer_hit 144768
Channel_0_WQ_row_buffer_miss 571839
Channel_0_WQ_full 631
Channel_0_dbus_congested 11322336
DRAM_total_RQ_row_buffer_hit 71191
DRAM_total_RQ_row_buffer_miss 3448311
DRAM_total_WQ_row_buffer_hit 144768
DRAM_total_WQ_row_buffer_miss 571839
DRAM_total_WQ_full 631
DRAM_total_dbus_congested 11322336
DRAM_avg_congested_cycle 5.26745

======STLB miss causes ========
Core_0_STLB_miss_cause_breakdown
Core_0_STLB_cause_Demand_Data_miss 0
Core_0_STLB_cause_Demand_Data_miss_rate 0
Core_0_STLB_cause_Demand_Instruction_miss 0
Core_0_STLB_cause_Demand_Instruction_miss_rate 0
Core_0_STLB_cause_L1D_Prefetch_miss 14666
Core_0_STLB_cause_L1D_Prefetch_miss_rate 0.012307
Core_0_STLB_cause_L1I_Prefetch_miss 0
Core_0_STLB_cause_L1I_Prefetch_miss_rate 0
Core_0_STLB_cause_Other_miss 0
Core_0_STLB_cause_Other_miss_rate 0
Core_0_STLB_Demand_miss 0
Core_0_STLB_Demand_miss_rate 0
Core_0_STLB_L1D_Prefetch_miss 14666
Core_0_STLB_L1D_Prefetch_miss_rate 0.012307
Core_0_STLB_Other_miss 0
Core_0_STLB_Other_miss_rate 0
