[VMEM] WARNING: physical memory size is smaller than virtual memory size.

*** ChampSim Multicore Out-of-Order Simulator ***
Warmup Instructions: 20000000
Simulation Instructions: 50000000
Number of CPUs: 1
Page size: 4096
STLB ideal mode: demand
Core 0: /data0/tzh/champsim_traces/Ligra/ligra_Triangle.com-lj.ungraph.gcc_6.3.0_O3.drop_24000M.length_250M.champsimtrace.xz
 L1D Berti prefetcher
Off-chip DRAM Size: 4 GiB Channels: 1 Width: 64-bit Data Rate: 3205 MT/s
Warmup halting CPU 0 at instruction 20000004 cycle 5066012 for remainder of phase
Warmup finished CPU 0 instructions: 20000004 cycles: 5066012 cumulative IPC: 3.948 (Simulation time: 00 hr 00 min 44 sec)
Warmup complete CPU 0 instructions: 20000004 cycles: 5066012 cumulative IPC: 3.948 (Simulation time: 00 hr 00 min 44 sec)
Simulation finished CPU 0 instructions: 50000001 cycles: 23174358 cumulative IPC: 2.158 (Simulation time: 00 hr 03 min 17 sec)
Simulation complete CPU 0 instructions: 50000001 cycles: 23174358 cumulative IPC: 2.158 (Simulation time: 00 hr 03 min 17 sec)

ChampSim completed all CPUs

=== Simulation ===
CPU 0 runs /data0/tzh/champsim_traces/Ligra/ligra_Triangle.com-lj.ungraph.gcc_6.3.0_O3.drop_24000M.length_250M.champsimtrace.xz

Region of Interest Statistics

CPU 0 cumulative IPC: 2.158 instructions: 50000001 cycles: 23174358
CPU 0 Branch Prediction Accuracy: 96.07% MPKI: 11.24 Average ROB Occupancy at Mispredict: 28.68
Branch type MPKI
BRANCH_DIRECT_JUMP: 0
BRANCH_INDIRECT: 0
BRANCH_CONDITIONAL: 8.618
BRANCH_DIRECT_CALL: 0
BRANCH_INDIRECT_CALL: 0
BRANCH_RETURN: 2.625

cpu0->cpu0_STLB TOTAL        ACCESS:       2562 HIT:       2523 MISS:         39 MSHR_MERGE:          0
cpu0->cpu0_STLB LOAD         ACCESS:       2562 HIT:       2523 MISS:         39 MSHR_MERGE:          0
cpu0->cpu0_STLB RFO          ACCESS:          0 HIT:          0 MISS:          0 MSHR_MERGE:          0
cpu0->cpu0_STLB PREFETCH     ACCESS:          0 HIT:          0 MISS:          0 MSHR_MERGE:          0
cpu0->cpu0_STLB WRITE        ACCESS:          0 HIT:          0 MISS:          0 MSHR_MERGE:          0
cpu0->cpu0_STLB TRANSLATION  ACCESS:          0 HIT:          0 MISS:          0 MSHR_MERGE:          0
cpu0->cpu0_STLB PREFETCH REQUESTED:          0 ISSUED:          0 USEFUL:          0 USELESS:          0 LATE:          0
cpu0->cpu0_STLB AVERAGE MISS LATENCY: 293.9 cycles
cpu0->cpu0_L2C TOTAL        ACCESS:     991450 HIT:     686507 MISS:     304943 MSHR_MERGE:     141835
cpu0->cpu0_L2C LOAD         ACCESS:      21708 HIT:      15147 MISS:       6561 MSHR_MERGE:        577
cpu0->cpu0_L2C RFO          ACCESS:      12120 HIT:         79 MISS:      12041 MSHR_MERGE:          0
cpu0->cpu0_L2C PREFETCH     ACCESS:     831981 HIT:     545659 MISS:     286322 MSHR_MERGE:     141258
cpu0->cpu0_L2C WRITE        ACCESS:     125602 HIT:     125602 MISS:          0 MSHR_MERGE:          0
cpu0->cpu0_L2C TRANSLATION  ACCESS:         39 HIT:         20 MISS:         19 MSHR_MERGE:          0
cpu0->cpu0_L2C PREFETCH REQUESTED:     710163 ISSUED:     702480 USEFUL:     135857 USELESS:        882 LATE:        577
cpu0->cpu0_L2C AVERAGE MISS LATENCY: 211.7 cycles
cpu0->cpu0_L1I TOTAL        ACCESS:     371125 HIT:     371125 MISS:          0 MSHR_MERGE:          0
cpu0->cpu0_L1I LOAD         ACCESS:     371125 HIT:     371125 MISS:          0 MSHR_MERGE:          0
cpu0->cpu0_L1I RFO          ACCESS:          0 HIT:          0 MISS:          0 MSHR_MERGE:          0
cpu0->cpu0_L1I PREFETCH     ACCESS:          0 HIT:          0 MISS:          0 MSHR_MERGE:          0
cpu0->cpu0_L1I WRITE        ACCESS:          0 HIT:          0 MISS:          0 MSHR_MERGE:          0
cpu0->cpu0_L1I TRANSLATION  ACCESS:          0 HIT:          0 MISS:          0 MSHR_MERGE:          0
cpu0->cpu0_L1I PREFETCH REQUESTED:          0 ISSUED:          0 USEFUL:          0 USELESS:          0 LATE:          0
cpu0->cpu0_L1I AVERAGE MISS LATENCY: - cycles
cpu0->cpu0_L1D TOTAL        ACCESS:   11582166 HIT:   11300005 MISS:     282161 MSHR_MERGE:     118793
cpu0->cpu0_L1D LOAD         ACCESS:    7408832 HIT:    7298707 MISS:     110125 MSHR_MERGE:      88417
cpu0->cpu0_L1D RFO          ACCESS:          0 HIT:          0 MISS:          0 MSHR_MERGE:          0
cpu0->cpu0_L1D PREFETCH     ACCESS:     133907 HIT:       3943 MISS:     129964 MSHR_MERGE:        463
cpu0->cpu0_L1D WRITE        ACCESS:    4039348 HIT:    3997315 MISS:      42033 MSHR_MERGE:      29913
cpu0->cpu0_L1D TRANSLATION  ACCESS:         79 HIT:         40 MISS:         39 MSHR_MERGE:          0
cpu0->cpu0_L1D PREFETCH REQUESTED:     133907 ISSUED:     133907 USEFUL:     129345 USELESS:        150 LATE:        611
cpu0->cpu0_L1D AVERAGE MISS LATENCY: 124.7 cycles
cpu0->cpu0_ITLB TOTAL        ACCESS:     371124 HIT:     371124 MISS:          0 MSHR_MERGE:          0
cpu0->cpu0_ITLB LOAD         ACCESS:     371124 HIT:     371124 MISS:          0 MSHR_MERGE:          0
cpu0->cpu0_ITLB RFO          ACCESS:          0 HIT:          0 MISS:          0 MSHR_MERGE:          0
cpu0->cpu0_ITLB PREFETCH     ACCESS:          0 HIT:          0 MISS:          0 MSHR_MERGE:          0
cpu0->cpu0_ITLB WRITE        ACCESS:          0 HIT:          0 MISS:          0 MSHR_MERGE:          0
cpu0->cpu0_ITLB TRANSLATION  ACCESS:          0 HIT:          0 MISS:          0 MSHR_MERGE:          0
cpu0->cpu0_ITLB PREFETCH REQUESTED:          0 ISSUED:          0 USEFUL:          0 USELESS:          0 LATE:          0
cpu0->cpu0_ITLB AVERAGE MISS LATENCY: - cycles
cpu0->cpu0_DTLB TOTAL        ACCESS:   10300848 HIT:   10295546 MISS:       5302 MSHR_MERGE:       2740
cpu0->cpu0_DTLB LOAD         ACCESS:   10300848 HIT:   10295546 MISS:       5302 MSHR_MERGE:       2740
cpu0->cpu0_DTLB RFO          ACCESS:          0 HIT:          0 MISS:          0 MSHR_MERGE:          0
cpu0->cpu0_DTLB PREFETCH     ACCESS:          0 HIT:          0 MISS:          0 MSHR_MERGE:          0
cpu0->cpu0_DTLB WRITE        ACCESS:          0 HIT:          0 MISS:          0 MSHR_MERGE:          0
cpu0->cpu0_DTLB TRANSLATION  ACCESS:          0 HIT:          0 MISS:          0 MSHR_MERGE:          0
cpu0->cpu0_DTLB PREFETCH REQUESTED:          0 ISSUED:          0 USEFUL:          0 USELESS:          0 LATE:          0
cpu0->cpu0_DTLB AVERAGE MISS LATENCY: 9.489 cycles
cpu0->LLC TOTAL        ACCESS:     288019 HIT:     109818 MISS:     178201 MSHR_MERGE:          0
cpu0->LLC LOAD         ACCESS:       5984 HIT:          0 MISS:       5984 MSHR_MERGE:          0
cpu0->LLC RFO          ACCESS:      12041 HIT:          4 MISS:      12037 MSHR_MERGE:          0
cpu0->LLC PREFETCH     ACCESS:     145064 HIT:         31 MISS:     145033 MSHR_MERGE:          0
cpu0->LLC WRITE        ACCESS:     124911 HIT:     109777 MISS:      15134 MSHR_MERGE:          0
cpu0->LLC TRANSLATION  ACCESS:         19 HIT:          6 MISS:         13 MSHR_MERGE:          0
cpu0->LLC PREFETCH REQUESTED:          0 ISSUED:          0 USEFUL:          0 USELESS:          0 LATE:          0
cpu0->LLC AVERAGE MISS LATENCY: 112.1 cycles

DRAM Statistics

Channel 0 RQ ROW_BUFFER_HIT:       5765
  ROW_BUFFER_MISS:     157302
  AVG DBUS CONGESTED CYCLE: 9.878
Channel 0 WQ ROW_BUFFER_HIT:      24749
  ROW_BUFFER_MISS:      99476
  FULL:          0
Channel 0 REFRESHES ISSUED:       1931

[ROI Statistics]
[System Configuration]
num_cpus 1
cpu_freq 4000
fetch_width 6
decode_width 6
dispatch_width 6
execute_width 6
lq_width 2
sq_width 2
retire_width 6
scheduler_size 160
branch_mispredict_penalty 1
rob_size 352
lq_size 240
sq_size 112
ifetch_buffer_size 64
decode_buffer_size 32
dispatch_buffer_size 32
register_file_size 288
decode_latency 1
dispatch_latency 1
schedule_latency 0
execute_latency 0
page_size 4096
block_size 64
core_0_itlb_set 16
core_0_itlb_way 4
core_0_itlb_rq_size 16
core_0_itlb_wq_size 16
core_0_itlb_pq_size 0
core_0_itlb_mshr_size 8
core_0_itlb_hit_latency 1
core_0_itlb_fill_latency 1
core_0_itlb_max_tag_check 2
core_0_itlb_max_fill 2
core_0_dtlb_set 16
core_0_dtlb_way 4
core_0_dtlb_rq_size 16
core_0_dtlb_wq_size 16
core_0_dtlb_pq_size 0
core_0_dtlb_mshr_size 8
core_0_dtlb_hit_latency 1
core_0_dtlb_fill_latency 1
core_0_dtlb_max_tag_check 2
core_0_dtlb_max_fill 2
core_0_stlb_set 128
core_0_stlb_way 12
core_0_stlb_rq_size 32
core_0_stlb_wq_size 32
core_0_stlb_pq_size 0
core_0_stlb_mshr_size 16
core_0_stlb_hit_latency 4
core_0_stlb_fill_latency 4
core_0_stlb_max_tag_check 1
core_0_stlb_max_fill 1
core_0_l1i_set 64
core_0_l1i_way 8
core_0_l1i_rq_size 64
core_0_l1i_wq_size 64
core_0_l1i_pq_size 32
core_0_l1i_mshr_size 8
core_0_l1i_hit_latency 2
core_0_l1i_fill_latency 2
core_0_l1i_max_tag_check 2
core_0_l1i_max_fill 2
core_0_l1d_set 64
core_0_l1d_way 12
core_0_l1d_rq_size 64
core_0_l1d_wq_size 64
core_0_l1d_pq_size 8
core_0_l1d_mshr_size 16
core_0_l1d_hit_latency 2
core_0_l1d_fill_latency 3
core_0_l1d_max_tag_check 2
core_0_l1d_max_fill 2
core_0_l2c_set 1024
core_0_l2c_way 8
core_0_l2c_rq_size 32
core_0_l2c_wq_size 32
core_0_l2c_pq_size 16
core_0_l2c_mshr_size 32
core_0_l2c_hit_latency 5
core_0_l2c_fill_latency 5
core_0_l2c_max_tag_check 1
core_0_l2c_max_fill 1
llc_set 2048
llc_way 16
llc_rq_size 32
llc_wq_size 32
llc_pq_size 32
llc_mshr_size 64
llc_hit_latency 10
llc_fill_latency 10
llc_max_tag_check 1
llc_max_fill 1
dram_channels 1
dram_ranks 1
dram_bankgroups 8
dram_banks 4
dram_rows 16384
dram_columns 1024
dram_channel_width 8
dram_rq_size 64
dram_wq_size 64
dram_size 4294967296
core_0_itlb_prefetcher no
core_0_dtlb_prefetcher no
core_0_stlb_prefetcher no
core_0_l1i_prefetcher next_line
core_0_l1d_prefetcher berti
core_0_l2c_prefetcher pythia
llc_prefetcher no
llc_replacement drrip

Core_0_instructions 50000001
Core_0_cycles 23174358
Core_0_IPC 2.15756
Core_0_branch_prediction_accuracy 96.0655
Core_0_branch_MPKI 11.2426
Core_0_average_ROB_occupancy_at_mispredict 28.6842

Core_0_ITLB_total_access 371124
Core_0_ITLB_total_hit 371124
Core_0_ITLB_total_miss 0
Core_0_ITLB_total_MPKI 0
Core_0_ITLB_total_miss_rate 0
Core_0_ITLB_demand_access 371124
Core_0_ITLB_demand_hit 371124
Core_0_ITLB_demand_miss 0
Core_0_ITLB_demand_MPKI 0
Core_0_ITLB_demand_miss_rate 0
Core_0_ITLB_load_access 371124
Core_0_ITLB_load_hit 371124
Core_0_ITLB_load_miss 0
Core_0_ITLB_load_MPKI 0
Core_0_ITLB_load_miss_rate 0
Core_0_ITLB_rfo_access 0
Core_0_ITLB_rfo_hit 0
Core_0_ITLB_rfo_miss 0
Core_0_ITLB_rfo_MPKI 0
Core_0_ITLB_rfo_miss_rate 0
Core_0_ITLB_prefetch_access 0
Core_0_ITLB_prefetch_hit 0
Core_0_ITLB_prefetch_miss 0
Core_0_ITLB_prefetch_MPKI 0
Core_0_ITLB_prefetch_miss_rate 0
Core_0_ITLB_writeback_access 0
Core_0_ITLB_writeback_hit 0
Core_0_ITLB_writeback_miss 0
Core_0_ITLB_writeback_MPKI 0
Core_0_ITLB_writeback_miss_rate 0
Core_0_ITLB_prefetch_requested 0
Core_0_ITLB_prefetch_issued 0
Core_0_ITLB_prefetch_useful 0
Core_0_ITLB_prefetch_useless 0
Core_0_ITLB_prefetch_late 0
Core_0_ITLB_prefetch_accuracy 0
Core_0_ITLB_prefetch_coverage 0

Core_0_DTLB_total_access 10300848
Core_0_DTLB_total_hit 10295546
Core_0_DTLB_total_miss 5302
Core_0_DTLB_total_MPKI 0.10604
Core_0_DTLB_total_miss_rate 0.000514715
Core_0_DTLB_demand_access 10300848
Core_0_DTLB_demand_hit 10295546
Core_0_DTLB_demand_miss 5302
Core_0_DTLB_demand_MPKI 0.10604
Core_0_DTLB_demand_miss_rate 0.000514715
Core_0_DTLB_load_access 10300848
Core_0_DTLB_load_hit 10295546
Core_0_DTLB_load_miss 5302
Core_0_DTLB_load_MPKI 0.10604
Core_0_DTLB_load_miss_rate 0.000514715
Core_0_DTLB_rfo_access 0
Core_0_DTLB_rfo_hit 0
Core_0_DTLB_rfo_miss 0
Core_0_DTLB_rfo_MPKI 0
Core_0_DTLB_rfo_miss_rate 0
Core_0_DTLB_prefetch_access 0
Core_0_DTLB_prefetch_hit 0
Core_0_DTLB_prefetch_miss 0
Core_0_DTLB_prefetch_MPKI 0
Core_0_DTLB_prefetch_miss_rate 0
Core_0_DTLB_writeback_access 0
Core_0_DTLB_writeback_hit 0
Core_0_DTLB_writeback_miss 0
Core_0_DTLB_writeback_MPKI 0
Core_0_DTLB_writeback_miss_rate 0
Core_0_DTLB_prefetch_requested 0
Core_0_DTLB_prefetch_issued 0
Core_0_DTLB_prefetch_useful 0
Core_0_DTLB_prefetch_useless 0
Core_0_DTLB_prefetch_late 0
Core_0_DTLB_prefetch_accuracy 0
Core_0_DTLB_prefetch_coverage 0

Core_0_STLB_total_access 2562
Core_0_STLB_total_hit 2523
Core_0_STLB_total_miss 39
Core_0_STLB_total_MPKI 0.00078
Core_0_STLB_total_miss_rate 0.0152225
Core_0_STLB_demand_access 2562
Core_0_STLB_demand_hit 2523
Core_0_STLB_demand_miss 39
Core_0_STLB_demand_MPKI 0.00078
Core_0_STLB_demand_miss_rate 0.0152225
Core_0_STLB_load_access 2562
Core_0_STLB_load_hit 2523
Core_0_STLB_load_miss 39
Core_0_STLB_load_MPKI 0.00078
Core_0_STLB_load_miss_rate 0.0152225
Core_0_STLB_rfo_access 0
Core_0_STLB_rfo_hit 0
Core_0_STLB_rfo_miss 0
Core_0_STLB_rfo_MPKI 0
Core_0_STLB_rfo_miss_rate 0
Core_0_STLB_prefetch_access 0
Core_0_STLB_prefetch_hit 0
Core_0_STLB_prefetch_miss 0
Core_0_STLB_prefetch_MPKI 0
Core_0_STLB_prefetch_miss_rate 0
Core_0_STLB_writeback_access 0
Core_0_STLB_writeback_hit 0
Core_0_STLB_writeback_miss 0
Core_0_STLB_writeback_MPKI 0
Core_0_STLB_writeback_miss_rate 0
Core_0_STLB_prefetch_requested 0
Core_0_STLB_prefetch_issued 0
Core_0_STLB_prefetch_useful 0
Core_0_STLB_prefetch_useless 0
Core_0_STLB_prefetch_late 0
Core_0_STLB_prefetch_accuracy 0
Core_0_STLB_prefetch_coverage 0

Core_0_L1I_total_access 371125
Core_0_L1I_total_hit 371125
Core_0_L1I_total_miss 0
Core_0_L1I_total_MPKI 0
Core_0_L1I_total_miss_rate 0
Core_0_L1I_demand_access 371125
Core_0_L1I_demand_hit 371125
Core_0_L1I_demand_miss 0
Core_0_L1I_demand_MPKI 0
Core_0_L1I_demand_miss_rate 0
Core_0_L1I_load_access 371125
Core_0_L1I_load_hit 371125
Core_0_L1I_load_miss 0
Core_0_L1I_load_MPKI 0
Core_0_L1I_load_miss_rate 0
Core_0_L1I_rfo_access 0
Core_0_L1I_rfo_hit 0
Core_0_L1I_rfo_miss 0
Core_0_L1I_rfo_MPKI 0
Core_0_L1I_rfo_miss_rate 0
Core_0_L1I_prefetch_access 0
Core_0_L1I_prefetch_hit 0
Core_0_L1I_prefetch_miss 0
Core_0_L1I_prefetch_MPKI 0
Core_0_L1I_prefetch_miss_rate 0
Core_0_L1I_writeback_access 0
Core_0_L1I_writeback_hit 0
Core_0_L1I_writeback_miss 0
Core_0_L1I_writeback_MPKI 0
Core_0_L1I_writeback_miss_rate 0
Core_0_L1I_prefetch_requested 0
Core_0_L1I_prefetch_issued 0
Core_0_L1I_prefetch_useful 0
Core_0_L1I_prefetch_useless 0
Core_0_L1I_prefetch_late 0
Core_0_L1I_prefetch_accuracy 0
Core_0_L1I_prefetch_coverage 0

Core_0_L1D_total_access 11582087
Core_0_L1D_total_hit 11299965
Core_0_L1D_total_miss 282122
Core_0_L1D_total_MPKI 5.64244
Core_0_L1D_total_miss_rate 0.0243585
Core_0_L1D_demand_access 7408832
Core_0_L1D_demand_hit 7298707
Core_0_L1D_demand_miss 110125
Core_0_L1D_demand_MPKI 2.2025
Core_0_L1D_demand_miss_rate 0.014864
Core_0_L1D_load_access 7408832
Core_0_L1D_load_hit 7298707
Core_0_L1D_load_miss 110125
Core_0_L1D_load_MPKI 2.2025
Core_0_L1D_load_miss_rate 0.014864
Core_0_L1D_rfo_access 0
Core_0_L1D_rfo_hit 0
Core_0_L1D_rfo_miss 0
Core_0_L1D_rfo_MPKI 0
Core_0_L1D_rfo_miss_rate 0
Core_0_L1D_prefetch_access 133907
Core_0_L1D_prefetch_hit 3943
Core_0_L1D_prefetch_miss 129964
Core_0_L1D_prefetch_MPKI 2.59928
Core_0_L1D_prefetch_miss_rate 0.970554
Core_0_L1D_writeback_access 4039348
Core_0_L1D_writeback_hit 3997315
Core_0_L1D_writeback_miss 42033
Core_0_L1D_writeback_MPKI 0.84066
Core_0_L1D_writeback_miss_rate 0.0104059
Core_0_L1D_prefetch_requested 133907
Core_0_L1D_prefetch_issued 133907
Core_0_L1D_prefetch_useful 129345
Core_0_L1D_prefetch_useless 150
Core_0_L1D_prefetch_late 611
Core_0_L1D_prefetch_accuracy 0.965932
Core_0_L1D_prefetch_coverage 0.54013

Core_0_L2C_total_access 991411
Core_0_L2C_total_hit 686487
Core_0_L2C_total_miss 304924
Core_0_L2C_total_MPKI 6.09848
Core_0_L2C_total_miss_rate 0.307566
Core_0_L2C_demand_access 33828
Core_0_L2C_demand_hit 15226
Core_0_L2C_demand_miss 18602
Core_0_L2C_demand_MPKI 0.37204
Core_0_L2C_demand_miss_rate 0.549899
Core_0_L2C_load_access 21708
Core_0_L2C_load_hit 15147
Core_0_L2C_load_miss 6561
Core_0_L2C_load_MPKI 0.13122
Core_0_L2C_load_miss_rate 0.302239
Core_0_L2C_rfo_access 12120
Core_0_L2C_rfo_hit 79
Core_0_L2C_rfo_miss 12041
Core_0_L2C_rfo_MPKI 0.24082
Core_0_L2C_rfo_miss_rate 0.993482
Core_0_L2C_prefetch_access 831981
Core_0_L2C_prefetch_hit 545659
Core_0_L2C_prefetch_miss 286322
Core_0_L2C_prefetch_MPKI 5.72644
Core_0_L2C_prefetch_miss_rate 0.344145
Core_0_L2C_writeback_access 125602
Core_0_L2C_writeback_hit 125602
Core_0_L2C_writeback_miss 0
Core_0_L2C_writeback_MPKI 0
Core_0_L2C_writeback_miss_rate 0
Core_0_L2C_prefetch_requested 710163
Core_0_L2C_prefetch_issued 702480
Core_0_L2C_prefetch_useful 135857
Core_0_L2C_prefetch_useless 882
Core_0_L2C_prefetch_late 577
Core_0_L2C_prefetch_accuracy 0.193396
Core_0_L2C_prefetch_coverage 0.879567

Core_0_LLC_total_access 288000
Core_0_LLC_total_hit 109812
Core_0_LLC_total_miss 178188
Core_0_LLC_total_MPKI 3.56376
Core_0_LLC_total_miss_rate 0.618708
Core_0_LLC_demand_access 18025
Core_0_LLC_demand_hit 4
Core_0_LLC_demand_miss 18021
Core_0_LLC_demand_MPKI 0.36042
Core_0_LLC_demand_miss_rate 0.999778
Core_0_LLC_load_access 5984
Core_0_LLC_load_hit 0
Core_0_LLC_load_miss 5984
Core_0_LLC_load_MPKI 0.11968
Core_0_LLC_load_miss_rate 1
Core_0_LLC_rfo_access 12041
Core_0_LLC_rfo_hit 4
Core_0_LLC_rfo_miss 12037
Core_0_LLC_rfo_MPKI 0.24074
Core_0_LLC_rfo_miss_rate 0.999668
Core_0_LLC_prefetch_access 145064
Core_0_LLC_prefetch_hit 31
Core_0_LLC_prefetch_miss 145033
Core_0_LLC_prefetch_MPKI 2.90066
Core_0_LLC_prefetch_miss_rate 0.999786
Core_0_LLC_writeback_access 124911
Core_0_LLC_writeback_hit 109777
Core_0_LLC_writeback_miss 15134
Core_0_LLC_writeback_MPKI 0.30268
Core_0_LLC_writeback_miss_rate 0.121158
Core_0_LLC_prefetch_requested 0
Core_0_LLC_prefetch_issued 0
Core_0_LLC_prefetch_useful 0
Core_0_LLC_prefetch_useless 0
Core_0_LLC_prefetch_late 0
Core_0_LLC_prefetch_accuracy 0
Core_0_LLC_prefetch_coverage 0

[DRAM Statistics]
Channel_0_RQ_row_buffer_hit 5765
Channel_0_RQ_row_buffer_miss 157302
Channel_0_WQ_row_buffer_hit 24749
Channel_0_WQ_row_buffer_miss 99476
Channel_0_WQ_full 0
Channel_0_dbus_congested 745929
DRAM_total_RQ_row_buffer_hit 5765
DRAM_total_RQ_row_buffer_miss 157302
DRAM_total_WQ_row_buffer_hit 24749
DRAM_total_WQ_row_buffer_miss 99476
DRAM_total_WQ_full 0
DRAM_total_dbus_congested 745929
DRAM_avg_congested_cycle 9.87764

======STLB miss causes ========
Core_0_STLB_miss_cause_breakdown
Core_0_STLB_cause_Demand_Data_miss 0
Core_0_STLB_cause_Demand_Data_miss_rate 0
Core_0_STLB_cause_Demand_Instruction_miss 0
Core_0_STLB_cause_Demand_Instruction_miss_rate 0
Core_0_STLB_cause_L1D_Prefetch_miss 39
Core_0_STLB_cause_L1D_Prefetch_miss_rate 0.0152225
Core_0_STLB_cause_L1I_Prefetch_miss 0
Core_0_STLB_cause_L1I_Prefetch_miss_rate 0
Core_0_STLB_cause_Other_miss 0
Core_0_STLB_cause_Other_miss_rate 0
Core_0_STLB_Demand_miss 0
Core_0_STLB_Demand_miss_rate 0
Core_0_STLB_L1D_Prefetch_miss 39
Core_0_STLB_L1D_Prefetch_miss_rate 0.0152225
Core_0_STLB_Other_miss 0
Core_0_STLB_Other_miss_rate 0
