[VMEM] WARNING: physical memory size is smaller than virtual memory size.

*** ChampSim Multicore Out-of-Order Simulator ***
Warmup Instructions: 20000000
Simulation Instructions: 50000000
Number of CPUs: 1
Page size: 4096
STLB ideal mode: demand
Core 0: /data0/tzh/champsim_traces/Ligra/ligra_BC.com-lj.ungraph.gcc_6.3.0_O3.drop_26750M.length_250M.champsimtrace.xz
 L1D Berti prefetcher
Off-chip DRAM Size: 4 GiB Channels: 1 Width: 64-bit Data Rate: 3205 MT/s
Warmup halting CPU 0 at instruction 20000000 cycle 5461270 for remainder of phase
Warmup finished CPU 0 instructions: 20000000 cycles: 5461270 cumulative IPC: 3.662 (Simulation time: 00 hr 00 min 40 sec)
Warmup complete CPU 0 instructions: 20000000 cycles: 5461270 cumulative IPC: 3.662 (Simulation time: 00 hr 00 min 40 sec)
Simulation finished CPU 0 instructions: 50000001 cycles: 27441937 cumulative IPC: 1.822 (Simulation time: 00 hr 03 min 30 sec)
Simulation complete CPU 0 instructions: 50000001 cycles: 27441937 cumulative IPC: 1.822 (Simulation time: 00 hr 03 min 30 sec)

ChampSim completed all CPUs

=== Simulation ===
CPU 0 runs /data0/tzh/champsim_traces/Ligra/ligra_BC.com-lj.ungraph.gcc_6.3.0_O3.drop_26750M.length_250M.champsimtrace.xz

Region of Interest Statistics

CPU 0 cumulative IPC: 1.822 instructions: 50000001 cycles: 27441937
CPU 0 Branch Prediction Accuracy: 90.39% MPKI: 23.63 Average ROB Occupancy at Mispredict: 8.074
Branch type MPKI
BRANCH_DIRECT_JUMP: 0.00034
BRANCH_INDIRECT: 0
BRANCH_CONDITIONAL: 23.63
BRANCH_DIRECT_CALL: 0.00024
BRANCH_INDIRECT_CALL: 0
BRANCH_RETURN: 0.0002

cpu0->cpu0_STLB TOTAL        ACCESS:       3843 HIT:       3841 MISS:          2 MSHR_MERGE:          0
cpu0->cpu0_STLB LOAD         ACCESS:       3843 HIT:       3841 MISS:          2 MSHR_MERGE:          0
cpu0->cpu0_STLB RFO          ACCESS:          0 HIT:          0 MISS:          0 MSHR_MERGE:          0
cpu0->cpu0_STLB PREFETCH     ACCESS:          0 HIT:          0 MISS:          0 MSHR_MERGE:          0
cpu0->cpu0_STLB WRITE        ACCESS:          0 HIT:          0 MISS:          0 MSHR_MERGE:          0
cpu0->cpu0_STLB TRANSLATION  ACCESS:          0 HIT:          0 MISS:          0 MSHR_MERGE:          0
cpu0->cpu0_STLB PREFETCH REQUESTED:          0 ISSUED:          0 USEFUL:          0 USELESS:          0 LATE:          0
cpu0->cpu0_STLB AVERAGE MISS LATENCY: 1019 cycles
cpu0->cpu0_L2C TOTAL        ACCESS:    1016723 HIT:     656459 MISS:     360264 MSHR_MERGE:     116690
cpu0->cpu0_L2C LOAD         ACCESS:       2305 HIT:        186 MISS:       2119 MSHR_MERGE:          6
cpu0->cpu0_L2C RFO          ACCESS:     115610 HIT:         10 MISS:     115600 MSHR_MERGE:          0
cpu0->cpu0_L2C PREFETCH     ACCESS:     783115 HIT:     540575 MISS:     242540 MSHR_MERGE:     116684
cpu0->cpu0_L2C WRITE        ACCESS:     115688 HIT:     115688 MISS:          0 MSHR_MERGE:          0
cpu0->cpu0_L2C TRANSLATION  ACCESS:          5 HIT:          0 MISS:          5 MSHR_MERGE:          0
cpu0->cpu0_L2C PREFETCH REQUESTED:     657393 ISSUED:     657393 USEFUL:     117554 USELESS:       6566 LATE:          6
cpu0->cpu0_L2C AVERAGE MISS LATENCY: 207.7 cycles
cpu0->cpu0_L1I TOTAL        ACCESS:    1348036 HIT:    1347948 MISS:         88 MSHR_MERGE:          9
cpu0->cpu0_L1I LOAD         ACCESS:    1348036 HIT:    1347948 MISS:         88 MSHR_MERGE:          9
cpu0->cpu0_L1I RFO          ACCESS:          0 HIT:          0 MISS:          0 MSHR_MERGE:          0
cpu0->cpu0_L1I PREFETCH     ACCESS:          0 HIT:          0 MISS:          0 MSHR_MERGE:          0
cpu0->cpu0_L1I WRITE        ACCESS:          0 HIT:          0 MISS:          0 MSHR_MERGE:          0
cpu0->cpu0_L1I TRANSLATION  ACCESS:          0 HIT:          0 MISS:          0 MSHR_MERGE:          0
cpu0->cpu0_L1I PREFETCH REQUESTED:          0 ISSUED:          0 USEFUL:          0 USELESS:          0 LATE:          0
cpu0->cpu0_L1I AVERAGE MISS LATENCY: 237.4 cycles
cpu0->cpu0_L1D TOTAL        ACCESS:   10183696 HIT:    8284738 MISS:    1898958 MSHR_MERGE:    1655395
cpu0->cpu0_L1D LOAD         ACCESS:    8165892 HIT:    8033758 MISS:     132134 MSHR_MERGE:     129908
cpu0->cpu0_L1D RFO          ACCESS:          0 HIT:          0 MISS:          0 MSHR_MERGE:          0
cpu0->cpu0_L1D PREFETCH     ACCESS:     125860 HIT:        126 MISS:     125734 MSHR_MERGE:         12
cpu0->cpu0_L1D WRITE        ACCESS:    1891937 HIT:     250852 MISS:    1641085 MSHR_MERGE:    1525475
cpu0->cpu0_L1D TRANSLATION  ACCESS:          7 HIT:          2 MISS:          5 MSHR_MERGE:          0
cpu0->cpu0_L1D PREFETCH REQUESTED:     125869 ISSUED:     125860 USEFUL:     125632 USELESS:         88 LATE:       2694
cpu0->cpu0_L1D AVERAGE MISS LATENCY: 212.9 cycles
cpu0->cpu0_ITLB TOTAL        ACCESS:    1348027 HIT:    1348021 MISS:          6 MSHR_MERGE:          1
cpu0->cpu0_ITLB LOAD         ACCESS:    1348027 HIT:    1348021 MISS:          6 MSHR_MERGE:          1
cpu0->cpu0_ITLB RFO          ACCESS:          0 HIT:          0 MISS:          0 MSHR_MERGE:          0
cpu0->cpu0_ITLB PREFETCH     ACCESS:          0 HIT:          0 MISS:          0 MSHR_MERGE:          0
cpu0->cpu0_ITLB WRITE        ACCESS:          0 HIT:          0 MISS:          0 MSHR_MERGE:          0
cpu0->cpu0_ITLB TRANSLATION  ACCESS:          0 HIT:          0 MISS:          0 MSHR_MERGE:          0
cpu0->cpu0_ITLB PREFETCH REQUESTED:          0 ISSUED:          0 USEFUL:          0 USELESS:          0 LATE:          0
cpu0->cpu0_ITLB AVERAGE MISS LATENCY: 5 cycles
cpu0->cpu0_DTLB TOTAL        ACCESS:   10113058 HIT:   10101509 MISS:      11549 MSHR_MERGE:       7711
cpu0->cpu0_DTLB LOAD         ACCESS:   10113058 HIT:   10101509 MISS:      11549 MSHR_MERGE:       7711
cpu0->cpu0_DTLB RFO          ACCESS:          0 HIT:          0 MISS:          0 MSHR_MERGE:          0
cpu0->cpu0_DTLB PREFETCH     ACCESS:          0 HIT:          0 MISS:          0 MSHR_MERGE:          0
cpu0->cpu0_DTLB WRITE        ACCESS:          0 HIT:          0 MISS:          0 MSHR_MERGE:          0
cpu0->cpu0_DTLB TRANSLATION  ACCESS:          0 HIT:          0 MISS:          0 MSHR_MERGE:          0
cpu0->cpu0_DTLB PREFETCH REQUESTED:          0 ISSUED:          0 USEFUL:          0 USELESS:          0 LATE:          0
cpu0->cpu0_DTLB AVERAGE MISS LATENCY: 5.532 cycles
cpu0->LLC TOTAL        ACCESS:     357821 HIT:      45278 MISS:     312543 MSHR_MERGE:          0
cpu0->LLC LOAD         ACCESS:       2113 HIT:         33 MISS:       2080 MSHR_MERGE:          0
cpu0->LLC RFO          ACCESS:     115600 HIT:          4 MISS:     115596 MSHR_MERGE:          0
cpu0->LLC PREFETCH     ACCESS:     125856 HIT:      11630 MISS:     114226 MSHR_MERGE:          0
cpu0->LLC WRITE        ACCESS:     114247 HIT:      33611 MISS:      80636 MSHR_MERGE:          0
cpu0->LLC TRANSLATION  ACCESS:          5 HIT:          0 MISS:          5 MSHR_MERGE:          0
cpu0->LLC PREFETCH REQUESTED:          0 ISSUED:          0 USEFUL:          0 USELESS:          0 LATE:          0
cpu0->LLC AVERAGE MISS LATENCY: 117.5 cycles

DRAM Statistics

Channel 0 RQ ROW_BUFFER_HIT:      24388
  ROW_BUFFER_MISS:     207517
  AVG DBUS CONGESTED CYCLE: 10.13
Channel 0 WQ ROW_BUFFER_HIT:      31721
  ROW_BUFFER_MISS:      69724
  FULL:          0
Channel 0 REFRESHES ISSUED:       2286

[ROI Statistics]
[System Configuration]
num_cpus 1
cpu_freq 4000
fetch_width 6
decode_width 6
dispatch_width 6
execute_width 6
lq_width 2
sq_width 2
retire_width 6
scheduler_size 160
branch_mispredict_penalty 1
rob_size 352
lq_size 240
sq_size 112
ifetch_buffer_size 64
decode_buffer_size 32
dispatch_buffer_size 32
register_file_size 288
decode_latency 1
dispatch_latency 1
schedule_latency 0
execute_latency 0
page_size 4096
block_size 64
core_0_itlb_set 16
core_0_itlb_way 4
core_0_itlb_rq_size 16
core_0_itlb_wq_size 16
core_0_itlb_pq_size 0
core_0_itlb_mshr_size 8
core_0_itlb_hit_latency 1
core_0_itlb_fill_latency 1
core_0_itlb_max_tag_check 2
core_0_itlb_max_fill 2
core_0_dtlb_set 16
core_0_dtlb_way 4
core_0_dtlb_rq_size 16
core_0_dtlb_wq_size 16
core_0_dtlb_pq_size 0
core_0_dtlb_mshr_size 8
core_0_dtlb_hit_latency 1
core_0_dtlb_fill_latency 1
core_0_dtlb_max_tag_check 2
core_0_dtlb_max_fill 2
core_0_stlb_set 128
core_0_stlb_way 12
core_0_stlb_rq_size 32
core_0_stlb_wq_size 32
core_0_stlb_pq_size 0
core_0_stlb_mshr_size 16
core_0_stlb_hit_latency 4
core_0_stlb_fill_latency 4
core_0_stlb_max_tag_check 1
core_0_stlb_max_fill 1
core_0_l1i_set 64
core_0_l1i_way 8
core_0_l1i_rq_size 64
core_0_l1i_wq_size 64
core_0_l1i_pq_size 32
core_0_l1i_mshr_size 8
core_0_l1i_hit_latency 2
core_0_l1i_fill_latency 2
core_0_l1i_max_tag_check 2
core_0_l1i_max_fill 2
core_0_l1d_set 64
core_0_l1d_way 12
core_0_l1d_rq_size 64
core_0_l1d_wq_size 64
core_0_l1d_pq_size 8
core_0_l1d_mshr_size 16
core_0_l1d_hit_latency 2
core_0_l1d_fill_latency 3
core_0_l1d_max_tag_check 2
core_0_l1d_max_fill 2
core_0_l2c_set 1024
core_0_l2c_way 8
core_0_l2c_rq_size 32
core_0_l2c_wq_size 32
core_0_l2c_pq_size 16
core_0_l2c_mshr_size 32
core_0_l2c_hit_latency 5
core_0_l2c_fill_latency 5
core_0_l2c_max_tag_check 1
core_0_l2c_max_fill 1
llc_set 2048
llc_way 16
llc_rq_size 32
llc_wq_size 32
llc_pq_size 32
llc_mshr_size 64
llc_hit_latency 10
llc_fill_latency 10
llc_max_tag_check 1
llc_max_fill 1
dram_channels 1
dram_ranks 1
dram_bankgroups 8
dram_banks 4
dram_rows 16384
dram_columns 1024
dram_channel_width 8
dram_rq_size 64
dram_wq_size 64
dram_size 4294967296
core_0_itlb_prefetcher no
core_0_dtlb_prefetcher no
core_0_stlb_prefetcher no
core_0_l1i_prefetcher next_line
core_0_l1d_prefetcher berti
core_0_l2c_prefetcher pythia
llc_prefetcher no
llc_replacement drrip

Core_0_instructions 50000001
Core_0_cycles 27441937
Core_0_IPC 1.82203
Core_0_branch_prediction_accuracy 90.395
Core_0_branch_MPKI 23.6294
Core_0_average_ROB_occupancy_at_mispredict 8.07366

Core_0_ITLB_total_access 1348027
Core_0_ITLB_total_hit 1348021
Core_0_ITLB_total_miss 6
Core_0_ITLB_total_MPKI 0.00012
Core_0_ITLB_total_miss_rate 4.45095e-06
Core_0_ITLB_demand_access 1348027
Core_0_ITLB_demand_hit 1348021
Core_0_ITLB_demand_miss 6
Core_0_ITLB_demand_MPKI 0.00012
Core_0_ITLB_demand_miss_rate 4.45095e-06
Core_0_ITLB_load_access 1348027
Core_0_ITLB_load_hit 1348021
Core_0_ITLB_load_miss 6
Core_0_ITLB_load_MPKI 0.00012
Core_0_ITLB_load_miss_rate 4.45095e-06
Core_0_ITLB_rfo_access 0
Core_0_ITLB_rfo_hit 0
Core_0_ITLB_rfo_miss 0
Core_0_ITLB_rfo_MPKI 0
Core_0_ITLB_rfo_miss_rate 0
Core_0_ITLB_prefetch_access 0
Core_0_ITLB_prefetch_hit 0
Core_0_ITLB_prefetch_miss 0
Core_0_ITLB_prefetch_MPKI 0
Core_0_ITLB_prefetch_miss_rate 0
Core_0_ITLB_writeback_access 0
Core_0_ITLB_writeback_hit 0
Core_0_ITLB_writeback_miss 0
Core_0_ITLB_writeback_MPKI 0
Core_0_ITLB_writeback_miss_rate 0
Core_0_ITLB_prefetch_requested 0
Core_0_ITLB_prefetch_issued 0
Core_0_ITLB_prefetch_useful 0
Core_0_ITLB_prefetch_useless 0
Core_0_ITLB_prefetch_late 0
Core_0_ITLB_prefetch_accuracy 0
Core_0_ITLB_prefetch_coverage 0

Core_0_DTLB_total_access 10113058
Core_0_DTLB_total_hit 10101509
Core_0_DTLB_total_miss 11549
Core_0_DTLB_total_MPKI 0.23098
Core_0_DTLB_total_miss_rate 0.00114199
Core_0_DTLB_demand_access 10113058
Core_0_DTLB_demand_hit 10101509
Core_0_DTLB_demand_miss 11549
Core_0_DTLB_demand_MPKI 0.23098
Core_0_DTLB_demand_miss_rate 0.00114199
Core_0_DTLB_load_access 10113058
Core_0_DTLB_load_hit 10101509
Core_0_DTLB_load_miss 11549
Core_0_DTLB_load_MPKI 0.23098
Core_0_DTLB_load_miss_rate 0.00114199
Core_0_DTLB_rfo_access 0
Core_0_DTLB_rfo_hit 0
Core_0_DTLB_rfo_miss 0
Core_0_DTLB_rfo_MPKI 0
Core_0_DTLB_rfo_miss_rate 0
Core_0_DTLB_prefetch_access 0
Core_0_DTLB_prefetch_hit 0
Core_0_DTLB_prefetch_miss 0
Core_0_DTLB_prefetch_MPKI 0
Core_0_DTLB_prefetch_miss_rate 0
Core_0_DTLB_writeback_access 0
Core_0_DTLB_writeback_hit 0
Core_0_DTLB_writeback_miss 0
Core_0_DTLB_writeback_MPKI 0
Core_0_DTLB_writeback_miss_rate 0
Core_0_DTLB_prefetch_requested 0
Core_0_DTLB_prefetch_issued 0
Core_0_DTLB_prefetch_useful 0
Core_0_DTLB_prefetch_useless 0
Core_0_DTLB_prefetch_late 0
Core_0_DTLB_prefetch_accuracy 0
Core_0_DTLB_prefetch_coverage 0

Core_0_STLB_total_access 3843
Core_0_STLB_total_hit 3841
Core_0_STLB_total_miss 2
Core_0_STLB_total_MPKI 4e-05
Core_0_STLB_total_miss_rate 0.000520427
Core_0_STLB_demand_access 3843
Core_0_STLB_demand_hit 3841
Core_0_STLB_demand_miss 2
Core_0_STLB_demand_MPKI 4e-05
Core_0_STLB_demand_miss_rate 0.000520427
Core_0_STLB_load_access 3843
Core_0_STLB_load_hit 3841
Core_0_STLB_load_miss 2
Core_0_STLB_load_MPKI 4e-05
Core_0_STLB_load_miss_rate 0.000520427
Core_0_STLB_rfo_access 0
Core_0_STLB_rfo_hit 0
Core_0_STLB_rfo_miss 0
Core_0_STLB_rfo_MPKI 0
Core_0_STLB_rfo_miss_rate 0
Core_0_STLB_prefetch_access 0
Core_0_STLB_prefetch_hit 0
Core_0_STLB_prefetch_miss 0
Core_0_STLB_prefetch_MPKI 0
Core_0_STLB_prefetch_miss_rate 0
Core_0_STLB_writeback_access 0
Core_0_STLB_writeback_hit 0
Core_0_STLB_writeback_miss 0
Core_0_STLB_writeback_MPKI 0
Core_0_STLB_writeback_miss_rate 0
Core_0_STLB_prefetch_requested 0
Core_0_STLB_prefetch_issued 0
Core_0_STLB_prefetch_useful 0
Core_0_STLB_prefetch_useless 0
Core_0_STLB_prefetch_late 0
Core_0_STLB_prefetch_accuracy 0
Core_0_STLB_prefetch_coverage 0

Core_0_L1I_total_access 1348036
Core_0_L1I_total_hit 1347948
Core_0_L1I_total_miss 88
Core_0_L1I_total_MPKI 0.00176
Core_0_L1I_total_miss_rate 6.52802e-05
Core_0_L1I_demand_access 1348036
Core_0_L1I_demand_hit 1347948
Core_0_L1I_demand_miss 88
Core_0_L1I_demand_MPKI 0.00176
Core_0_L1I_demand_miss_rate 6.52802e-05
Core_0_L1I_load_access 1348036
Core_0_L1I_load_hit 1347948
Core_0_L1I_load_miss 88
Core_0_L1I_load_MPKI 0.00176
Core_0_L1I_load_miss_rate 6.52802e-05
Core_0_L1I_rfo_access 0
Core_0_L1I_rfo_hit 0
Core_0_L1I_rfo_miss 0
Core_0_L1I_rfo_MPKI 0
Core_0_L1I_rfo_miss_rate 0
Core_0_L1I_prefetch_access 0
Core_0_L1I_prefetch_hit 0
Core_0_L1I_prefetch_miss 0
Core_0_L1I_prefetch_MPKI 0
Core_0_L1I_prefetch_miss_rate 0
Core_0_L1I_writeback_access 0
Core_0_L1I_writeback_hit 0
Core_0_L1I_writeback_miss 0
Core_0_L1I_writeback_MPKI 0
Core_0_L1I_writeback_miss_rate 0
Core_0_L1I_prefetch_requested 0
Core_0_L1I_prefetch_issued 0
Core_0_L1I_prefetch_useful 0
Core_0_L1I_prefetch_useless 0
Core_0_L1I_prefetch_late 0
Core_0_L1I_prefetch_accuracy 0
Core_0_L1I_prefetch_coverage 0

Core_0_L1D_total_access 10183689
Core_0_L1D_total_hit 8284736
Core_0_L1D_total_miss 1898953
Core_0_L1D_total_MPKI 37.9791
Core_0_L1D_total_miss_rate 0.18647
Core_0_L1D_demand_access 8165892
Core_0_L1D_demand_hit 8033758
Core_0_L1D_demand_miss 132134
Core_0_L1D_demand_MPKI 2.64268
Core_0_L1D_demand_miss_rate 0.0161812
Core_0_L1D_load_access 8165892
Core_0_L1D_load_hit 8033758
Core_0_L1D_load_miss 132134
Core_0_L1D_load_MPKI 2.64268
Core_0_L1D_load_miss_rate 0.0161812
Core_0_L1D_rfo_access 0
Core_0_L1D_rfo_hit 0
Core_0_L1D_rfo_miss 0
Core_0_L1D_rfo_MPKI 0
Core_0_L1D_rfo_miss_rate 0
Core_0_L1D_prefetch_access 125860
Core_0_L1D_prefetch_hit 126
Core_0_L1D_prefetch_miss 125734
Core_0_L1D_prefetch_MPKI 2.51468
Core_0_L1D_prefetch_miss_rate 0.998999
Core_0_L1D_writeback_access 1891937
Core_0_L1D_writeback_hit 250852
Core_0_L1D_writeback_miss 1641085
Core_0_L1D_writeback_MPKI 32.8217
Core_0_L1D_writeback_miss_rate 0.86741
Core_0_L1D_prefetch_requested 125869
Core_0_L1D_prefetch_issued 125860
Core_0_L1D_prefetch_useful 125632
Core_0_L1D_prefetch_useless 88
Core_0_L1D_prefetch_late 2694
Core_0_L1D_prefetch_accuracy 0.998188
Core_0_L1D_prefetch_coverage 0.487388

Core_0_L2C_total_access 1016718
Core_0_L2C_total_hit 656459
Core_0_L2C_total_miss 360259
Core_0_L2C_total_MPKI 7.20518
Core_0_L2C_total_miss_rate 0.354335
Core_0_L2C_demand_access 117915
Core_0_L2C_demand_hit 196
Core_0_L2C_demand_miss 117719
Core_0_L2C_demand_MPKI 2.35438
Core_0_L2C_demand_miss_rate 0.998338
Core_0_L2C_load_access 2305
Core_0_L2C_load_hit 186
Core_0_L2C_load_miss 2119
Core_0_L2C_load_MPKI 0.04238
Core_0_L2C_load_miss_rate 0.919306
Core_0_L2C_rfo_access 115610
Core_0_L2C_rfo_hit 10
Core_0_L2C_rfo_miss 115600
Core_0_L2C_rfo_MPKI 2.312
Core_0_L2C_rfo_miss_rate 0.999914
Core_0_L2C_prefetch_access 783115
Core_0_L2C_prefetch_hit 540575
Core_0_L2C_prefetch_miss 242540
Core_0_L2C_prefetch_MPKI 4.8508
Core_0_L2C_prefetch_miss_rate 0.309712
Core_0_L2C_writeback_access 115688
Core_0_L2C_writeback_hit 115688
Core_0_L2C_writeback_miss 0
Core_0_L2C_writeback_MPKI 0
Core_0_L2C_writeback_miss_rate 0
Core_0_L2C_prefetch_requested 657393
Core_0_L2C_prefetch_issued 657393
Core_0_L2C_prefetch_useful 117554
Core_0_L2C_prefetch_useless 6566
Core_0_L2C_prefetch_late 6
Core_0_L2C_prefetch_accuracy 0.178818
Core_0_L2C_prefetch_coverage 0.499649

Core_0_LLC_total_access 357816
Core_0_LLC_total_hit 45278
Core_0_LLC_total_miss 312538
Core_0_LLC_total_MPKI 6.25076
Core_0_LLC_total_miss_rate 0.87346
Core_0_LLC_demand_access 117713
Core_0_LLC_demand_hit 37
Core_0_LLC_demand_miss 117676
Core_0_LLC_demand_MPKI 2.35352
Core_0_LLC_demand_miss_rate 0.999686
Core_0_LLC_load_access 2113
Core_0_LLC_load_hit 33
Core_0_LLC_load_miss 2080
Core_0_LLC_load_MPKI 0.0416
Core_0_LLC_load_miss_rate 0.984382
Core_0_LLC_rfo_access 115600
Core_0_LLC_rfo_hit 4
Core_0_LLC_rfo_miss 115596
Core_0_LLC_rfo_MPKI 2.31192
Core_0_LLC_rfo_miss_rate 0.999965
Core_0_LLC_prefetch_access 125856
Core_0_LLC_prefetch_hit 11630
Core_0_LLC_prefetch_miss 114226
Core_0_LLC_prefetch_MPKI 2.28452
Core_0_LLC_prefetch_miss_rate 0.907593
Core_0_LLC_writeback_access 114247
Core_0_LLC_writeback_hit 33611
Core_0_LLC_writeback_miss 80636
Core_0_LLC_writeback_MPKI 1.61272
Core_0_LLC_writeback_miss_rate 0.705804
Core_0_LLC_prefetch_requested 0
Core_0_LLC_prefetch_issued 0
Core_0_LLC_prefetch_useful 0
Core_0_LLC_prefetch_useless 0
Core_0_LLC_prefetch_late 0
Core_0_LLC_prefetch_accuracy 0
Core_0_LLC_prefetch_coverage 0

[DRAM Statistics]
Channel_0_RQ_row_buffer_hit 24388
Channel_0_RQ_row_buffer_miss 207517
Channel_0_WQ_row_buffer_hit 31721
Channel_0_WQ_row_buffer_miss 69724
Channel_0_WQ_full 0
Channel_0_dbus_congested 827939
DRAM_total_RQ_row_buffer_hit 24388
DRAM_total_RQ_row_buffer_miss 207517
DRAM_total_WQ_row_buffer_hit 31721
DRAM_total_WQ_row_buffer_miss 69724
DRAM_total_WQ_full 0
DRAM_total_dbus_congested 827939
DRAM_avg_congested_cycle 10.1298

======STLB miss causes ========
Core_0_STLB_miss_cause_breakdown
Core_0_STLB_cause_Demand_Data_miss 0
Core_0_STLB_cause_Demand_Data_miss_rate 0
Core_0_STLB_cause_Demand_Instruction_miss 0
Core_0_STLB_cause_Demand_Instruction_miss_rate 0
Core_0_STLB_cause_L1D_Prefetch_miss 2
Core_0_STLB_cause_L1D_Prefetch_miss_rate 0.000520427
Core_0_STLB_cause_L1I_Prefetch_miss 0
Core_0_STLB_cause_L1I_Prefetch_miss_rate 0
Core_0_STLB_cause_Other_miss 0
Core_0_STLB_cause_Other_miss_rate 0
Core_0_STLB_Demand_miss 0
Core_0_STLB_Demand_miss_rate 0
Core_0_STLB_L1D_Prefetch_miss 2
Core_0_STLB_L1D_Prefetch_miss_rate 0.000520427
Core_0_STLB_Other_miss 0
Core_0_STLB_Other_miss_rate 0
