[VMEM] WARNING: physical memory size is smaller than virtual memory size.

*** ChampSim Multicore Out-of-Order Simulator ***
Warmup Instructions: 20000000
Simulation Instructions: 50000000
Number of CPUs: 1
Page size: 4096
STLB ideal mode: demand
Core 0: /data0/tzh/champsim_traces/Ligra/ligra_BFS.com-lj.ungraph.gcc_6.3.0_O3.drop_15750M.length_250M.champsimtrace.xz
 L1D Berti prefetcher
Off-chip DRAM Size: 4 GiB Channels: 1 Width: 64-bit Data Rate: 3205 MT/s
Warmup halting CPU 0 at instruction 20000001 cycle 4664872 for remainder of phase
Warmup finished CPU 0 instructions: 20000001 cycles: 4664872 cumulative IPC: 4.287 (Simulation time: 00 hr 01 min 06 sec)
Warmup complete CPU 0 instructions: 20000001 cycles: 4664872 cumulative IPC: 4.287 (Simulation time: 00 hr 01 min 06 sec)
Simulation finished CPU 0 instructions: 50000005 cycles: 36455575 cumulative IPC: 1.372 (Simulation time: 00 hr 06 min 16 sec)
Simulation complete CPU 0 instructions: 50000005 cycles: 36455575 cumulative IPC: 1.372 (Simulation time: 00 hr 06 min 16 sec)

ChampSim completed all CPUs

=== Simulation ===
CPU 0 runs /data0/tzh/champsim_traces/Ligra/ligra_BFS.com-lj.ungraph.gcc_6.3.0_O3.drop_15750M.length_250M.champsimtrace.xz

Region of Interest Statistics

CPU 0 cumulative IPC: 1.372 instructions: 50000005 cycles: 36455575
CPU 0 Branch Prediction Accuracy: 92.53% MPKI: 8.802 Average ROB Occupancy at Mispredict: 74.45
Branch type MPKI
BRANCH_DIRECT_JUMP: 0
BRANCH_INDIRECT: 0
BRANCH_CONDITIONAL: 8.802
BRANCH_DIRECT_CALL: 0
BRANCH_INDIRECT_CALL: 0
BRANCH_RETURN: 0

cpu0->cpu0_STLB TOTAL        ACCESS:      17699 HIT:      17353 MISS:        346 MSHR_MERGE:          0
cpu0->cpu0_STLB LOAD         ACCESS:      17699 HIT:      17353 MISS:        346 MSHR_MERGE:          0
cpu0->cpu0_STLB RFO          ACCESS:          0 HIT:          0 MISS:          0 MSHR_MERGE:          0
cpu0->cpu0_STLB PREFETCH     ACCESS:          0 HIT:          0 MISS:          0 MSHR_MERGE:          0
cpu0->cpu0_STLB WRITE        ACCESS:          0 HIT:          0 MISS:          0 MSHR_MERGE:          0
cpu0->cpu0_STLB TRANSLATION  ACCESS:          0 HIT:          0 MISS:          0 MSHR_MERGE:          0
cpu0->cpu0_STLB PREFETCH REQUESTED:          0 ISSUED:          0 USEFUL:          0 USELESS:          0 LATE:          0
cpu0->cpu0_STLB AVERAGE MISS LATENCY: 420.2 cycles
cpu0->cpu0_L2C TOTAL        ACCESS:    4363086 HIT:    1641626 MISS:    2721460 MSHR_MERGE:    1588584
cpu0->cpu0_L2C LOAD         ACCESS:      24102 HIT:      13218 MISS:      10884 MSHR_MERGE:       3062
cpu0->cpu0_L2C RFO          ACCESS:     624004 HIT:          0 MISS:     624004 MSHR_MERGE:          0
cpu0->cpu0_L2C PREFETCH     ACCESS:    3090571 HIT:    1004115 MISS:    2086456 MSHR_MERGE:    1585522
cpu0->cpu0_L2C WRITE        ACCESS:     624056 HIT:     624056 MISS:          0 MSHR_MERGE:          0
cpu0->cpu0_L2C TRANSLATION  ACCESS:        353 HIT:        237 MISS:        116 MSHR_MERGE:          0
cpu0->cpu0_L2C PREFETCH REQUESTED:    2616243 ISSUED:    2605913 USEFUL:     311291 USELESS:     167881 LATE:       3062
cpu0->cpu0_L2C AVERAGE MISS LATENCY: 582.8 cycles
cpu0->cpu0_L1I TOTAL        ACCESS:     288490 HIT:     288490 MISS:          0 MSHR_MERGE:          0
cpu0->cpu0_L1I LOAD         ACCESS:     288490 HIT:     288490 MISS:          0 MSHR_MERGE:          0
cpu0->cpu0_L1I RFO          ACCESS:          0 HIT:          0 MISS:          0 MSHR_MERGE:          0
cpu0->cpu0_L1I PREFETCH     ACCESS:          0 HIT:          0 MISS:          0 MSHR_MERGE:          0
cpu0->cpu0_L1I WRITE        ACCESS:          0 HIT:          0 MISS:          0 MSHR_MERGE:          0
cpu0->cpu0_L1I TRANSLATION  ACCESS:          0 HIT:          0 MISS:          0 MSHR_MERGE:          0
cpu0->cpu0_L1I PREFETCH REQUESTED:          0 ISSUED:          0 USEFUL:          0 USELESS:          0 LATE:          0
cpu0->cpu0_L1I AVERAGE MISS LATENCY: - cycles
cpu0->cpu0_L1D TOTAL        ACCESS:   14382008 HIT:    3688021 MISS:   10693987 MSHR_MERGE:    9560875
cpu0->cpu0_L1D LOAD         ACCESS:    3893280 HIT:    3621503 MISS:     271777 MSHR_MERGE:     247675
cpu0->cpu0_L1D RFO          ACCESS:          0 HIT:          0 MISS:          0 MSHR_MERGE:          0
cpu0->cpu0_L1D PREFETCH     ACCESS:     503973 HIT:      11592 MISS:     492381 MSHR_MERGE:       7728
cpu0->cpu0_L1D WRITE        ACCESS:    9984056 HIT:      54580 MISS:    9929476 MSHR_MERGE:    9305472
cpu0->cpu0_L1D TRANSLATION  ACCESS:        699 HIT:        346 MISS:        353 MSHR_MERGE:          0
cpu0->cpu0_L1D PREFETCH REQUESTED:     505800 ISSUED:     503965 USEFUL:     484642 USELESS:          1 LATE:      33062
cpu0->cpu0_L1D AVERAGE MISS LATENCY: 567.5 cycles
cpu0->cpu0_ITLB TOTAL        ACCESS:     288489 HIT:     288489 MISS:          0 MSHR_MERGE:          0
cpu0->cpu0_ITLB LOAD         ACCESS:     288489 HIT:     288489 MISS:          0 MSHR_MERGE:          0
cpu0->cpu0_ITLB RFO          ACCESS:          0 HIT:          0 MISS:          0 MSHR_MERGE:          0
cpu0->cpu0_ITLB PREFETCH     ACCESS:          0 HIT:          0 MISS:          0 MSHR_MERGE:          0
cpu0->cpu0_ITLB WRITE        ACCESS:          0 HIT:          0 MISS:          0 MSHR_MERGE:          0
cpu0->cpu0_ITLB TRANSLATION  ACCESS:          0 HIT:          0 MISS:          0 MSHR_MERGE:          0
cpu0->cpu0_ITLB PREFETCH REQUESTED:          0 ISSUED:          0 USEFUL:          0 USELESS:          0 LATE:          0
cpu0->cpu0_ITLB AVERAGE MISS LATENCY: - cycles
cpu0->cpu0_DTLB TOTAL        ACCESS:   12791611 HIT:   12729429 MISS:      62182 MSHR_MERGE:      44483
cpu0->cpu0_DTLB LOAD         ACCESS:   12791611 HIT:   12729429 MISS:      62182 MSHR_MERGE:      44483
cpu0->cpu0_DTLB RFO          ACCESS:          0 HIT:          0 MISS:          0 MSHR_MERGE:          0
cpu0->cpu0_DTLB PREFETCH     ACCESS:          0 HIT:          0 MISS:          0 MSHR_MERGE:          0
cpu0->cpu0_DTLB WRITE        ACCESS:          0 HIT:          0 MISS:          0 MSHR_MERGE:          0
cpu0->cpu0_DTLB TRANSLATION  ACCESS:          0 HIT:          0 MISS:          0 MSHR_MERGE:          0
cpu0->cpu0_DTLB PREFETCH REQUESTED:          0 ISSUED:          0 USEFUL:          0 USELESS:          0 LATE:          0
cpu0->cpu0_DTLB AVERAGE MISS LATENCY: 13.23 cycles
cpu0->LLC TOTAL        ACCESS:    1758578 HIT:     336916 MISS:    1421662 MSHR_MERGE:          0
cpu0->LLC LOAD         ACCESS:       7822 HIT:          0 MISS:       7822 MSHR_MERGE:          0
cpu0->LLC RFO          ACCESS:     624004 HIT:          0 MISS:     624004 MSHR_MERGE:          0
cpu0->LLC PREFETCH     ACCESS:     500933 HIT:          0 MISS:     500933 MSHR_MERGE:          0
cpu0->LLC WRITE        ACCESS:     625703 HIT:     336907 MISS:     288796 MSHR_MERGE:          0
cpu0->LLC TRANSLATION  ACCESS:        116 HIT:          9 MISS:        107 MSHR_MERGE:          0
cpu0->LLC PREFETCH REQUESTED:          0 ISSUED:          0 USEFUL:          0 USELESS:          0 LATE:          0
cpu0->LLC AVERAGE MISS LATENCY: 392.5 cycles

DRAM Statistics

Channel 0 RQ ROW_BUFFER_HIT:      83101
  ROW_BUFFER_MISS:    1049751
  AVG DBUS CONGESTED CYCLE: 6.822
Channel 0 WQ ROW_BUFFER_HIT:      45097
  ROW_BUFFER_MISS:     584600
  FULL:          0
Channel 0 REFRESHES ISSUED:       3038

[ROI Statistics]
[System Configuration]
num_cpus 1
cpu_freq 4000
fetch_width 6
decode_width 6
dispatch_width 6
execute_width 6
lq_width 2
sq_width 2
retire_width 6
scheduler_size 160
branch_mispredict_penalty 1
rob_size 352
lq_size 240
sq_size 112
ifetch_buffer_size 64
decode_buffer_size 32
dispatch_buffer_size 32
register_file_size 288
decode_latency 1
dispatch_latency 1
schedule_latency 0
execute_latency 0
page_size 4096
block_size 64
core_0_itlb_set 16
core_0_itlb_way 4
core_0_itlb_rq_size 16
core_0_itlb_wq_size 16
core_0_itlb_pq_size 0
core_0_itlb_mshr_size 8
core_0_itlb_hit_latency 1
core_0_itlb_fill_latency 1
core_0_itlb_max_tag_check 2
core_0_itlb_max_fill 2
core_0_dtlb_set 16
core_0_dtlb_way 4
core_0_dtlb_rq_size 16
core_0_dtlb_wq_size 16
core_0_dtlb_pq_size 0
core_0_dtlb_mshr_size 8
core_0_dtlb_hit_latency 1
core_0_dtlb_fill_latency 1
core_0_dtlb_max_tag_check 2
core_0_dtlb_max_fill 2
core_0_stlb_set 128
core_0_stlb_way 12
core_0_stlb_rq_size 32
core_0_stlb_wq_size 32
core_0_stlb_pq_size 0
core_0_stlb_mshr_size 16
core_0_stlb_hit_latency 4
core_0_stlb_fill_latency 4
core_0_stlb_max_tag_check 1
core_0_stlb_max_fill 1
core_0_l1i_set 64
core_0_l1i_way 8
core_0_l1i_rq_size 64
core_0_l1i_wq_size 64
core_0_l1i_pq_size 32
core_0_l1i_mshr_size 8
core_0_l1i_hit_latency 2
core_0_l1i_fill_latency 2
core_0_l1i_max_tag_check 2
core_0_l1i_max_fill 2
core_0_l1d_set 64
core_0_l1d_way 12
core_0_l1d_rq_size 64
core_0_l1d_wq_size 64
core_0_l1d_pq_size 8
core_0_l1d_mshr_size 16
core_0_l1d_hit_latency 2
core_0_l1d_fill_latency 3
core_0_l1d_max_tag_check 2
core_0_l1d_max_fill 2
core_0_l2c_set 1024
core_0_l2c_way 8
core_0_l2c_rq_size 32
core_0_l2c_wq_size 32
core_0_l2c_pq_size 16
core_0_l2c_mshr_size 32
core_0_l2c_hit_latency 5
core_0_l2c_fill_latency 5
core_0_l2c_max_tag_check 1
core_0_l2c_max_fill 1
llc_set 2048
llc_way 16
llc_rq_size 32
llc_wq_size 32
llc_pq_size 32
llc_mshr_size 64
llc_hit_latency 10
llc_fill_latency 10
llc_max_tag_check 1
llc_max_fill 1
dram_channels 1
dram_ranks 1
dram_bankgroups 8
dram_banks 4
dram_rows 16384
dram_columns 1024
dram_channel_width 8
dram_rq_size 64
dram_wq_size 64
dram_size 4294967296
core_0_itlb_prefetcher no
core_0_dtlb_prefetcher no
core_0_stlb_prefetcher no
core_0_l1i_prefetcher next_line
core_0_l1d_prefetcher berti
core_0_l2c_prefetcher pythia
llc_prefetcher no
llc_replacement drrip

Core_0_instructions 50000005
Core_0_cycles 36455575
Core_0_IPC 1.37153
Core_0_branch_prediction_accuracy 92.5299
Core_0_branch_MPKI 8.80182
Core_0_average_ROB_occupancy_at_mispredict 74.4495

Core_0_ITLB_total_access 288489
Core_0_ITLB_total_hit 288489
Core_0_ITLB_total_miss 0
Core_0_ITLB_total_MPKI 0
Core_0_ITLB_total_miss_rate 0
Core_0_ITLB_demand_access 288489
Core_0_ITLB_demand_hit 288489
Core_0_ITLB_demand_miss 0
Core_0_ITLB_demand_MPKI 0
Core_0_ITLB_demand_miss_rate 0
Core_0_ITLB_load_access 288489
Core_0_ITLB_load_hit 288489
Core_0_ITLB_load_miss 0
Core_0_ITLB_load_MPKI 0
Core_0_ITLB_load_miss_rate 0
Core_0_ITLB_rfo_access 0
Core_0_ITLB_rfo_hit 0
Core_0_ITLB_rfo_miss 0
Core_0_ITLB_rfo_MPKI 0
Core_0_ITLB_rfo_miss_rate 0
Core_0_ITLB_prefetch_access 0
Core_0_ITLB_prefetch_hit 0
Core_0_ITLB_prefetch_miss 0
Core_0_ITLB_prefetch_MPKI 0
Core_0_ITLB_prefetch_miss_rate 0
Core_0_ITLB_writeback_access 0
Core_0_ITLB_writeback_hit 0
Core_0_ITLB_writeback_miss 0
Core_0_ITLB_writeback_MPKI 0
Core_0_ITLB_writeback_miss_rate 0
Core_0_ITLB_prefetch_requested 0
Core_0_ITLB_prefetch_issued 0
Core_0_ITLB_prefetch_useful 0
Core_0_ITLB_prefetch_useless 0
Core_0_ITLB_prefetch_late 0
Core_0_ITLB_prefetch_accuracy 0
Core_0_ITLB_prefetch_coverage 0

Core_0_DTLB_total_access 12791611
Core_0_DTLB_total_hit 12729429
Core_0_DTLB_total_miss 62182
Core_0_DTLB_total_MPKI 1.24364
Core_0_DTLB_total_miss_rate 0.00486115
Core_0_DTLB_demand_access 12791611
Core_0_DTLB_demand_hit 12729429
Core_0_DTLB_demand_miss 62182
Core_0_DTLB_demand_MPKI 1.24364
Core_0_DTLB_demand_miss_rate 0.00486115
Core_0_DTLB_load_access 12791611
Core_0_DTLB_load_hit 12729429
Core_0_DTLB_load_miss 62182
Core_0_DTLB_load_MPKI 1.24364
Core_0_DTLB_load_miss_rate 0.00486115
Core_0_DTLB_rfo_access 0
Core_0_DTLB_rfo_hit 0
Core_0_DTLB_rfo_miss 0
Core_0_DTLB_rfo_MPKI 0
Core_0_DTLB_rfo_miss_rate 0
Core_0_DTLB_prefetch_access 0
Core_0_DTLB_prefetch_hit 0
Core_0_DTLB_prefetch_miss 0
Core_0_DTLB_prefetch_MPKI 0
Core_0_DTLB_prefetch_miss_rate 0
Core_0_DTLB_writeback_access 0
Core_0_DTLB_writeback_hit 0
Core_0_DTLB_writeback_miss 0
Core_0_DTLB_writeback_MPKI 0
Core_0_DTLB_writeback_miss_rate 0
Core_0_DTLB_prefetch_requested 0
Core_0_DTLB_prefetch_issued 0
Core_0_DTLB_prefetch_useful 0
Core_0_DTLB_prefetch_useless 0
Core_0_DTLB_prefetch_late 0
Core_0_DTLB_prefetch_accuracy 0
Core_0_DTLB_prefetch_coverage 0

Core_0_STLB_total_access 17699
Core_0_STLB_total_hit 17353
Core_0_STLB_total_miss 346
Core_0_STLB_total_MPKI 0.00692
Core_0_STLB_total_miss_rate 0.0195491
Core_0_STLB_demand_access 17699
Core_0_STLB_demand_hit 17353
Core_0_STLB_demand_miss 346
Core_0_STLB_demand_MPKI 0.00692
Core_0_STLB_demand_miss_rate 0.0195491
Core_0_STLB_load_access 17699
Core_0_STLB_load_hit 17353
Core_0_STLB_load_miss 346
Core_0_STLB_load_MPKI 0.00692
Core_0_STLB_load_miss_rate 0.0195491
Core_0_STLB_rfo_access 0
Core_0_STLB_rfo_hit 0
Core_0_STLB_rfo_miss 0
Core_0_STLB_rfo_MPKI 0
Core_0_STLB_rfo_miss_rate 0
Core_0_STLB_prefetch_access 0
Core_0_STLB_prefetch_hit 0
Core_0_STLB_prefetch_miss 0
Core_0_STLB_prefetch_MPKI 0
Core_0_STLB_prefetch_miss_rate 0
Core_0_STLB_writeback_access 0
Core_0_STLB_writeback_hit 0
Core_0_STLB_writeback_miss 0
Core_0_STLB_writeback_MPKI 0
Core_0_STLB_writeback_miss_rate 0
Core_0_STLB_prefetch_requested 0
Core_0_STLB_prefetch_issued 0
Core_0_STLB_prefetch_useful 0
Core_0_STLB_prefetch_useless 0
Core_0_STLB_prefetch_late 0
Core_0_STLB_prefetch_accuracy 0
Core_0_STLB_prefetch_coverage 0

Core_0_L1I_total_access 288490
Core_0_L1I_total_hit 288490
Core_0_L1I_total_miss 0
Core_0_L1I_total_MPKI 0
Core_0_L1I_total_miss_rate 0
Core_0_L1I_demand_access 288490
Core_0_L1I_demand_hit 288490
Core_0_L1I_demand_miss 0
Core_0_L1I_demand_MPKI 0
Core_0_L1I_demand_miss_rate 0
Core_0_L1I_load_access 288490
Core_0_L1I_load_hit 288490
Core_0_L1I_load_miss 0
Core_0_L1I_load_MPKI 0
Core_0_L1I_load_miss_rate 0
Core_0_L1I_rfo_access 0
Core_0_L1I_rfo_hit 0
Core_0_L1I_rfo_miss 0
Core_0_L1I_rfo_MPKI 0
Core_0_L1I_rfo_miss_rate 0
Core_0_L1I_prefetch_access 0
Core_0_L1I_prefetch_hit 0
Core_0_L1I_prefetch_miss 0
Core_0_L1I_prefetch_MPKI 0
Core_0_L1I_prefetch_miss_rate 0
Core_0_L1I_writeback_access 0
Core_0_L1I_writeback_hit 0
Core_0_L1I_writeback_miss 0
Core_0_L1I_writeback_MPKI 0
Core_0_L1I_writeback_miss_rate 0
Core_0_L1I_prefetch_requested 0
Core_0_L1I_prefetch_issued 0
Core_0_L1I_prefetch_useful 0
Core_0_L1I_prefetch_useless 0
Core_0_L1I_prefetch_late 0
Core_0_L1I_prefetch_accuracy 0
Core_0_L1I_prefetch_coverage 0

Core_0_L1D_total_access 14381309
Core_0_L1D_total_hit 3687675
Core_0_L1D_total_miss 10693634
Core_0_L1D_total_MPKI 213.873
Core_0_L1D_total_miss_rate 0.743579
Core_0_L1D_demand_access 3893280
Core_0_L1D_demand_hit 3621503
Core_0_L1D_demand_miss 271777
Core_0_L1D_demand_MPKI 5.43554
Core_0_L1D_demand_miss_rate 0.0698067
Core_0_L1D_load_access 3893280
Core_0_L1D_load_hit 3621503
Core_0_L1D_load_miss 271777
Core_0_L1D_load_MPKI 5.43554
Core_0_L1D_load_miss_rate 0.0698067
Core_0_L1D_rfo_access 0
Core_0_L1D_rfo_hit 0
Core_0_L1D_rfo_miss 0
Core_0_L1D_rfo_MPKI 0
Core_0_L1D_rfo_miss_rate 0
Core_0_L1D_prefetch_access 503973
Core_0_L1D_prefetch_hit 11592
Core_0_L1D_prefetch_miss 492381
Core_0_L1D_prefetch_MPKI 9.84762
Core_0_L1D_prefetch_miss_rate 0.976999
Core_0_L1D_writeback_access 9984056
Core_0_L1D_writeback_hit 54580
Core_0_L1D_writeback_miss 9929476
Core_0_L1D_writeback_MPKI 198.59
Core_0_L1D_writeback_miss_rate 0.994533
Core_0_L1D_prefetch_requested 505800
Core_0_L1D_prefetch_issued 503965
Core_0_L1D_prefetch_useful 484642
Core_0_L1D_prefetch_useless 1
Core_0_L1D_prefetch_late 33062
Core_0_L1D_prefetch_accuracy 0.961658
Core_0_L1D_prefetch_coverage 0.640706

Core_0_L2C_total_access 4362733
Core_0_L2C_total_hit 1641389
Core_0_L2C_total_miss 2721344
Core_0_L2C_total_MPKI 54.4269
Core_0_L2C_total_miss_rate 0.62377
Core_0_L2C_demand_access 648106
Core_0_L2C_demand_hit 13218
Core_0_L2C_demand_miss 634888
Core_0_L2C_demand_MPKI 12.6978
Core_0_L2C_demand_miss_rate 0.979605
Core_0_L2C_load_access 24102
Core_0_L2C_load_hit 13218
Core_0_L2C_load_miss 10884
Core_0_L2C_load_MPKI 0.21768
Core_0_L2C_load_miss_rate 0.451581
Core_0_L2C_rfo_access 624004
Core_0_L2C_rfo_hit 0
Core_0_L2C_rfo_miss 624004
Core_0_L2C_rfo_MPKI 12.4801
Core_0_L2C_rfo_miss_rate 1
Core_0_L2C_prefetch_access 3090571
Core_0_L2C_prefetch_hit 1004115
Core_0_L2C_prefetch_miss 2086456
Core_0_L2C_prefetch_MPKI 41.7291
Core_0_L2C_prefetch_miss_rate 0.675104
Core_0_L2C_writeback_access 624056
Core_0_L2C_writeback_hit 624056
Core_0_L2C_writeback_miss 0
Core_0_L2C_writeback_MPKI 0
Core_0_L2C_writeback_miss_rate 0
Core_0_L2C_prefetch_requested 2616243
Core_0_L2C_prefetch_issued 2605913
Core_0_L2C_prefetch_useful 311291
Core_0_L2C_prefetch_useless 167881
Core_0_L2C_prefetch_late 3062
Core_0_L2C_prefetch_accuracy 0.119456
Core_0_L2C_prefetch_coverage 0.328998

Core_0_LLC_total_access 1758462
Core_0_LLC_total_hit 336907
Core_0_LLC_total_miss 1421555
Core_0_LLC_total_MPKI 28.4311
Core_0_LLC_total_miss_rate 0.808408
Core_0_LLC_demand_access 631826
Core_0_LLC_demand_hit 0
Core_0_LLC_demand_miss 631826
Core_0_LLC_demand_MPKI 12.6365
Core_0_LLC_demand_miss_rate 1
Core_0_LLC_load_access 7822
Core_0_LLC_load_hit 0
Core_0_LLC_load_miss 7822
Core_0_LLC_load_MPKI 0.15644
Core_0_LLC_load_miss_rate 1
Core_0_LLC_rfo_access 624004
Core_0_LLC_rfo_hit 0
Core_0_LLC_rfo_miss 624004
Core_0_LLC_rfo_MPKI 12.4801
Core_0_LLC_rfo_miss_rate 1
Core_0_LLC_prefetch_access 500933
Core_0_LLC_prefetch_hit 0
Core_0_LLC_prefetch_miss 500933
Core_0_LLC_prefetch_MPKI 10.0187
Core_0_LLC_prefetch_miss_rate 1
Core_0_LLC_writeback_access 625703
Core_0_LLC_writeback_hit 336907
Core_0_LLC_writeback_miss 288796
Core_0_LLC_writeback_MPKI 5.77592
Core_0_LLC_writeback_miss_rate 0.461554
Core_0_LLC_prefetch_requested 0
Core_0_LLC_prefetch_issued 0
Core_0_LLC_prefetch_useful 0
Core_0_LLC_prefetch_useless 0
Core_0_LLC_prefetch_late 0
Core_0_LLC_prefetch_accuracy 0
Core_0_LLC_prefetch_coverage 0

[DRAM Statistics]
Channel_0_RQ_row_buffer_hit 83101
Channel_0_RQ_row_buffer_miss 1049751
Channel_0_WQ_row_buffer_hit 45097
Channel_0_WQ_row_buffer_miss 584600
Channel_0_WQ_full 0
Channel_0_dbus_congested 6347364
DRAM_total_RQ_row_buffer_hit 83101
DRAM_total_RQ_row_buffer_miss 1049751
DRAM_total_WQ_row_buffer_hit 45097
DRAM_total_WQ_row_buffer_miss 584600
DRAM_total_WQ_full 0
DRAM_total_dbus_congested 6347364
DRAM_avg_congested_cycle 6.82189

======STLB miss causes ========
Core_0_STLB_miss_cause_breakdown
Core_0_STLB_cause_Demand_Data_miss 0
Core_0_STLB_cause_Demand_Data_miss_rate 0
Core_0_STLB_cause_Demand_Instruction_miss 0
Core_0_STLB_cause_Demand_Instruction_miss_rate 0
Core_0_STLB_cause_L1D_Prefetch_miss 346
Core_0_STLB_cause_L1D_Prefetch_miss_rate 0.0195491
Core_0_STLB_cause_L1I_Prefetch_miss 0
Core_0_STLB_cause_L1I_Prefetch_miss_rate 0
Core_0_STLB_cause_Other_miss 0
Core_0_STLB_cause_Other_miss_rate 0
Core_0_STLB_Demand_miss 0
Core_0_STLB_Demand_miss_rate 0
Core_0_STLB_L1D_Prefetch_miss 346
Core_0_STLB_L1D_Prefetch_miss_rate 0.0195491
Core_0_STLB_Other_miss 0
Core_0_STLB_Other_miss_rate 0
