[VMEM] WARNING: physical memory size is smaller than virtual memory size.

*** ChampSim Multicore Out-of-Order Simulator ***
Warmup Instructions: 20000000
Simulation Instructions: 50000000
Number of CPUs: 1
Page size: 4096
STLB ideal mode: demand
Core 0: /data0/tzh/champsim_traces/Ligra/ligra_BFS.com-lj.ungraph.gcc_6.3.0_O3.drop_17000M.length_250M.champsimtrace.xz
 L1D Berti prefetcher
Off-chip DRAM Size: 4 GiB Channels: 1 Width: 64-bit Data Rate: 3205 MT/s
Warmup halting CPU 0 at instruction 20000003 cycle 5095485 for remainder of phase
Warmup finished CPU 0 instructions: 20000003 cycles: 5095485 cumulative IPC: 3.925 (Simulation time: 00 hr 01 min 07 sec)
Warmup complete CPU 0 instructions: 20000003 cycles: 5095485 cumulative IPC: 3.925 (Simulation time: 00 hr 01 min 07 sec)
Simulation finished CPU 0 instructions: 50000005 cycles: 31357082 cumulative IPC: 1.595 (Simulation time: 00 hr 06 min 01 sec)
Simulation complete CPU 0 instructions: 50000005 cycles: 31357082 cumulative IPC: 1.595 (Simulation time: 00 hr 06 min 01 sec)

ChampSim completed all CPUs

=== Simulation ===
CPU 0 runs /data0/tzh/champsim_traces/Ligra/ligra_BFS.com-lj.ungraph.gcc_6.3.0_O3.drop_17000M.length_250M.champsimtrace.xz

Region of Interest Statistics

CPU 0 cumulative IPC: 1.595 instructions: 50000005 cycles: 31357082
CPU 0 Branch Prediction Accuracy: 99.3% MPKI: 0.6963 Average ROB Occupancy at Mispredict: 200.3
Branch type MPKI
BRANCH_DIRECT_JUMP: 2e-05
BRANCH_INDIRECT: 0
BRANCH_CONDITIONAL: 0.6961
BRANCH_DIRECT_CALL: 4e-05
BRANCH_INDIRECT_CALL: 0
BRANCH_RETURN: 0.0001

cpu0->cpu0_STLB TOTAL        ACCESS:      21862 HIT:      21287 MISS:        575 MSHR_MERGE:          0
cpu0->cpu0_STLB LOAD         ACCESS:      21862 HIT:      21287 MISS:        575 MSHR_MERGE:          0
cpu0->cpu0_STLB RFO          ACCESS:          0 HIT:          0 MISS:          0 MSHR_MERGE:          0
cpu0->cpu0_STLB PREFETCH     ACCESS:          0 HIT:          0 MISS:          0 MSHR_MERGE:          0
cpu0->cpu0_STLB WRITE        ACCESS:          0 HIT:          0 MISS:          0 MSHR_MERGE:          0
cpu0->cpu0_STLB TRANSLATION  ACCESS:          0 HIT:          0 MISS:          0 MSHR_MERGE:          0
cpu0->cpu0_STLB PREFETCH REQUESTED:          0 ISSUED:          0 USEFUL:          0 USELESS:          0 LATE:          0
cpu0->cpu0_STLB AVERAGE MISS LATENCY: 505.8 cycles
cpu0->cpu0_L2C TOTAL        ACCESS:    3926796 HIT:    1501624 MISS:    2425172 MSHR_MERGE:    1539518
cpu0->cpu0_L2C LOAD         ACCESS:     332170 HIT:     233941 MISS:      98229 MSHR_MERGE:      83497
cpu0->cpu0_L2C RFO          ACCESS:     480080 HIT:      33811 MISS:     446269 MSHR_MERGE:         32
cpu0->cpu0_L2C PREFETCH     ACCESS:    2583349 HIT:     703262 MISS:    1880087 MSHR_MERGE:    1455989
cpu0->cpu0_L2C WRITE        ACCESS:     530616 HIT:     530589 MISS:         27 MSHR_MERGE:          0
cpu0->cpu0_L2C TRANSLATION  ACCESS:        581 HIT:         21 MISS:        560 MSHR_MERGE:          0
cpu0->cpu0_L2C PREFETCH REQUESTED:    2451600 ISSUED:    2318674 USEFUL:     304824 USELESS:      94834 LATE:      83529
cpu0->cpu0_L2C AVERAGE MISS LATENCY: 445.6 cycles
cpu0->cpu0_L1I TOTAL        ACCESS:    6144280 HIT:    6144277 MISS:          3 MSHR_MERGE:          1
cpu0->cpu0_L1I LOAD         ACCESS:    6144280 HIT:    6144277 MISS:          3 MSHR_MERGE:          1
cpu0->cpu0_L1I RFO          ACCESS:          0 HIT:          0 MISS:          0 MSHR_MERGE:          0
cpu0->cpu0_L1I PREFETCH     ACCESS:          0 HIT:          0 MISS:          0 MSHR_MERGE:          0
cpu0->cpu0_L1I WRITE        ACCESS:          0 HIT:          0 MISS:          0 MSHR_MERGE:          0
cpu0->cpu0_L1I TRANSLATION  ACCESS:          0 HIT:          0 MISS:          0 MSHR_MERGE:          0
cpu0->cpu0_L1I PREFETCH REQUESTED:          0 ISSUED:          0 USEFUL:          0 USELESS:          0 LATE:          0
cpu0->cpu0_L1I AVERAGE MISS LATENCY: 225.5 cycles
cpu0->cpu0_L1D TOTAL        ACCESS:   14677954 HIT:   10103932 MISS:    4574022 MSHR_MERGE:    3496504
cpu0->cpu0_L1D LOAD         ACCESS:    4294792 HIT:    3647600 MISS:     647192 MSHR_MERGE:     315023
cpu0->cpu0_L1D RFO          ACCESS:          0 HIT:          0 MISS:          0 MSHR_MERGE:          0
cpu0->cpu0_L1D PREFETCH     ACCESS:     447947 HIT:     133617 MISS:     314330 MSHR_MERGE:      49655
cpu0->cpu0_L1D WRITE        ACCESS:    9934055 HIT:    6322136 MISS:    3611919 MSHR_MERGE:    3131826
cpu0->cpu0_L1D TRANSLATION  ACCESS:       1160 HIT:        579 MISS:        581 MSHR_MERGE:          0
cpu0->cpu0_L1D PREFETCH REQUESTED:     658962 ISSUED:     447943 USEFUL:     255361 USELESS:       9313 LATE:      74360
cpu0->cpu0_L1D AVERAGE MISS LATENCY: 299.5 cycles
cpu0->cpu0_ITLB TOTAL        ACCESS:    5983616 HIT:    5983616 MISS:          0 MSHR_MERGE:          0
cpu0->cpu0_ITLB LOAD         ACCESS:    5983616 HIT:    5983616 MISS:          0 MSHR_MERGE:          0
cpu0->cpu0_ITLB RFO          ACCESS:          0 HIT:          0 MISS:          0 MSHR_MERGE:          0
cpu0->cpu0_ITLB PREFETCH     ACCESS:          0 HIT:          0 MISS:          0 MSHR_MERGE:          0
cpu0->cpu0_ITLB WRITE        ACCESS:          0 HIT:          0 MISS:          0 MSHR_MERGE:          0
cpu0->cpu0_ITLB TRANSLATION  ACCESS:          0 HIT:          0 MISS:          0 MSHR_MERGE:          0
cpu0->cpu0_ITLB PREFETCH REQUESTED:          0 ISSUED:          0 USEFUL:          0 USELESS:          0 LATE:          0
cpu0->cpu0_ITLB AVERAGE MISS LATENCY: - cycles
cpu0->cpu0_DTLB TOTAL        ACCESS:   13302282 HIT:   13236943 MISS:      65339 MSHR_MERGE:      43477
cpu0->cpu0_DTLB LOAD         ACCESS:   13302282 HIT:   13236943 MISS:      65339 MSHR_MERGE:      43477
cpu0->cpu0_DTLB RFO          ACCESS:          0 HIT:          0 MISS:          0 MSHR_MERGE:          0
cpu0->cpu0_DTLB PREFETCH     ACCESS:          0 HIT:          0 MISS:          0 MSHR_MERGE:          0
cpu0->cpu0_DTLB WRITE        ACCESS:          0 HIT:          0 MISS:          0 MSHR_MERGE:          0
cpu0->cpu0_DTLB TRANSLATION  ACCESS:          0 HIT:          0 MISS:          0 MSHR_MERGE:          0
cpu0->cpu0_DTLB PREFETCH REQUESTED:          0 ISSUED:          0 USEFUL:          0 USELESS:          0 LATE:          0
cpu0->cpu0_DTLB AVERAGE MISS LATENCY: 18.33 cycles
cpu0->LLC TOTAL        ACCESS:    1389320 HIT:     107755 MISS:    1281565 MSHR_MERGE:          0
cpu0->LLC LOAD         ACCESS:      14732 HIT:       1834 MISS:      12898 MSHR_MERGE:          0
cpu0->LLC RFO          ACCESS:     446237 HIT:       2073 MISS:     444164 MSHR_MERGE:          0
cpu0->LLC PREFETCH     ACCESS:     424098 HIT:      24651 MISS:     399447 MSHR_MERGE:          0
cpu0->LLC WRITE        ACCESS:     503693 HIT:      79190 MISS:     424503 MSHR_MERGE:          0
cpu0->LLC TRANSLATION  ACCESS:        560 HIT:          7 MISS:        553 MSHR_MERGE:          0
cpu0->LLC PREFETCH REQUESTED:          0 ISSUED:          0 USEFUL:          0 USELESS:          0 LATE:          0
cpu0->LLC AVERAGE MISS LATENCY: 244.9 cycles

DRAM Statistics

Channel 0 RQ ROW_BUFFER_HIT:      63886
  ROW_BUFFER_MISS:     793108
  AVG DBUS CONGESTED CYCLE: 6.964
Channel 0 WQ ROW_BUFFER_HIT:      55746
  ROW_BUFFER_MISS:     448114
  FULL:       2704
Channel 0 REFRESHES ISSUED:       2613

[ROI Statistics]
[System Configuration]
num_cpus 1
cpu_freq 4000
fetch_width 6
decode_width 6
dispatch_width 6
execute_width 6
lq_width 2
sq_width 2
retire_width 6
scheduler_size 160
branch_mispredict_penalty 1
rob_size 352
lq_size 240
sq_size 112
ifetch_buffer_size 64
decode_buffer_size 32
dispatch_buffer_size 32
register_file_size 288
decode_latency 1
dispatch_latency 1
schedule_latency 0
execute_latency 0
page_size 4096
block_size 64
core_0_itlb_set 16
core_0_itlb_way 4
core_0_itlb_rq_size 16
core_0_itlb_wq_size 16
core_0_itlb_pq_size 0
core_0_itlb_mshr_size 8
core_0_itlb_hit_latency 1
core_0_itlb_fill_latency 1
core_0_itlb_max_tag_check 2
core_0_itlb_max_fill 2
core_0_dtlb_set 16
core_0_dtlb_way 4
core_0_dtlb_rq_size 16
core_0_dtlb_wq_size 16
core_0_dtlb_pq_size 0
core_0_dtlb_mshr_size 8
core_0_dtlb_hit_latency 1
core_0_dtlb_fill_latency 1
core_0_dtlb_max_tag_check 2
core_0_dtlb_max_fill 2
core_0_stlb_set 128
core_0_stlb_way 12
core_0_stlb_rq_size 32
core_0_stlb_wq_size 32
core_0_stlb_pq_size 0
core_0_stlb_mshr_size 16
core_0_stlb_hit_latency 4
core_0_stlb_fill_latency 4
core_0_stlb_max_tag_check 1
core_0_stlb_max_fill 1
core_0_l1i_set 64
core_0_l1i_way 8
core_0_l1i_rq_size 64
core_0_l1i_wq_size 64
core_0_l1i_pq_size 32
core_0_l1i_mshr_size 8
core_0_l1i_hit_latency 2
core_0_l1i_fill_latency 2
core_0_l1i_max_tag_check 2
core_0_l1i_max_fill 2
core_0_l1d_set 64
core_0_l1d_way 12
core_0_l1d_rq_size 64
core_0_l1d_wq_size 64
core_0_l1d_pq_size 8
core_0_l1d_mshr_size 16
core_0_l1d_hit_latency 2
core_0_l1d_fill_latency 3
core_0_l1d_max_tag_check 2
core_0_l1d_max_fill 2
core_0_l2c_set 1024
core_0_l2c_way 8
core_0_l2c_rq_size 32
core_0_l2c_wq_size 32
core_0_l2c_pq_size 16
core_0_l2c_mshr_size 32
core_0_l2c_hit_latency 5
core_0_l2c_fill_latency 5
core_0_l2c_max_tag_check 1
core_0_l2c_max_fill 1
llc_set 2048
llc_way 16
llc_rq_size 32
llc_wq_size 32
llc_pq_size 32
llc_mshr_size 64
llc_hit_latency 10
llc_fill_latency 10
llc_max_tag_check 1
llc_max_fill 1
dram_channels 1
dram_ranks 1
dram_bankgroups 8
dram_banks 4
dram_rows 16384
dram_columns 1024
dram_channel_width 8
dram_rq_size 64
dram_wq_size 64
dram_size 4294967296
core_0_itlb_prefetcher no
core_0_dtlb_prefetcher no
core_0_stlb_prefetcher no
core_0_l1i_prefetcher next_line
core_0_l1d_prefetcher berti
core_0_l2c_prefetcher pythia
llc_prefetcher no
llc_replacement drrip

Core_0_instructions 50000005
Core_0_cycles 31357082
Core_0_IPC 1.59454
Core_0_branch_prediction_accuracy 99.3005
Core_0_branch_MPKI 0.69628
Core_0_average_ROB_occupancy_at_mispredict 200.256

Core_0_ITLB_total_access 5983616
Core_0_ITLB_total_hit 5983616
Core_0_ITLB_total_miss 0
Core_0_ITLB_total_MPKI 0
Core_0_ITLB_total_miss_rate 0
Core_0_ITLB_demand_access 5983616
Core_0_ITLB_demand_hit 5983616
Core_0_ITLB_demand_miss 0
Core_0_ITLB_demand_MPKI 0
Core_0_ITLB_demand_miss_rate 0
Core_0_ITLB_load_access 5983616
Core_0_ITLB_load_hit 5983616
Core_0_ITLB_load_miss 0
Core_0_ITLB_load_MPKI 0
Core_0_ITLB_load_miss_rate 0
Core_0_ITLB_rfo_access 0
Core_0_ITLB_rfo_hit 0
Core_0_ITLB_rfo_miss 0
Core_0_ITLB_rfo_MPKI 0
Core_0_ITLB_rfo_miss_rate 0
Core_0_ITLB_prefetch_access 0
Core_0_ITLB_prefetch_hit 0
Core_0_ITLB_prefetch_miss 0
Core_0_ITLB_prefetch_MPKI 0
Core_0_ITLB_prefetch_miss_rate 0
Core_0_ITLB_writeback_access 0
Core_0_ITLB_writeback_hit 0
Core_0_ITLB_writeback_miss 0
Core_0_ITLB_writeback_MPKI 0
Core_0_ITLB_writeback_miss_rate 0
Core_0_ITLB_prefetch_requested 0
Core_0_ITLB_prefetch_issued 0
Core_0_ITLB_prefetch_useful 0
Core_0_ITLB_prefetch_useless 0
Core_0_ITLB_prefetch_late 0
Core_0_ITLB_prefetch_accuracy 0
Core_0_ITLB_prefetch_coverage 0

Core_0_DTLB_total_access 13302282
Core_0_DTLB_total_hit 13236943
Core_0_DTLB_total_miss 65339
Core_0_DTLB_total_MPKI 1.30678
Core_0_DTLB_total_miss_rate 0.00491186
Core_0_DTLB_demand_access 13302282
Core_0_DTLB_demand_hit 13236943
Core_0_DTLB_demand_miss 65339
Core_0_DTLB_demand_MPKI 1.30678
Core_0_DTLB_demand_miss_rate 0.00491186
Core_0_DTLB_load_access 13302282
Core_0_DTLB_load_hit 13236943
Core_0_DTLB_load_miss 65339
Core_0_DTLB_load_MPKI 1.30678
Core_0_DTLB_load_miss_rate 0.00491186
Core_0_DTLB_rfo_access 0
Core_0_DTLB_rfo_hit 0
Core_0_DTLB_rfo_miss 0
Core_0_DTLB_rfo_MPKI 0
Core_0_DTLB_rfo_miss_rate 0
Core_0_DTLB_prefetch_access 0
Core_0_DTLB_prefetch_hit 0
Core_0_DTLB_prefetch_miss 0
Core_0_DTLB_prefetch_MPKI 0
Core_0_DTLB_prefetch_miss_rate 0
Core_0_DTLB_writeback_access 0
Core_0_DTLB_writeback_hit 0
Core_0_DTLB_writeback_miss 0
Core_0_DTLB_writeback_MPKI 0
Core_0_DTLB_writeback_miss_rate 0
Core_0_DTLB_prefetch_requested 0
Core_0_DTLB_prefetch_issued 0
Core_0_DTLB_prefetch_useful 0
Core_0_DTLB_prefetch_useless 0
Core_0_DTLB_prefetch_late 0
Core_0_DTLB_prefetch_accuracy 0
Core_0_DTLB_prefetch_coverage 0

Core_0_STLB_total_access 21862
Core_0_STLB_total_hit 21287
Core_0_STLB_total_miss 575
Core_0_STLB_total_MPKI 0.0115
Core_0_STLB_total_miss_rate 0.0263013
Core_0_STLB_demand_access 21862
Core_0_STLB_demand_hit 21287
Core_0_STLB_demand_miss 575
Core_0_STLB_demand_MPKI 0.0115
Core_0_STLB_demand_miss_rate 0.0263013
Core_0_STLB_load_access 21862
Core_0_STLB_load_hit 21287
Core_0_STLB_load_miss 575
Core_0_STLB_load_MPKI 0.0115
Core_0_STLB_load_miss_rate 0.0263013
Core_0_STLB_rfo_access 0
Core_0_STLB_rfo_hit 0
Core_0_STLB_rfo_miss 0
Core_0_STLB_rfo_MPKI 0
Core_0_STLB_rfo_miss_rate 0
Core_0_STLB_prefetch_access 0
Core_0_STLB_prefetch_hit 0
Core_0_STLB_prefetch_miss 0
Core_0_STLB_prefetch_MPKI 0
Core_0_STLB_prefetch_miss_rate 0
Core_0_STLB_writeback_access 0
Core_0_STLB_writeback_hit 0
Core_0_STLB_writeback_miss 0
Core_0_STLB_writeback_MPKI 0
Core_0_STLB_writeback_miss_rate 0
Core_0_STLB_prefetch_requested 0
Core_0_STLB_prefetch_issued 0
Core_0_STLB_prefetch_useful 0
Core_0_STLB_prefetch_useless 0
Core_0_STLB_prefetch_late 0
Core_0_STLB_prefetch_accuracy 0
Core_0_STLB_prefetch_coverage 0

Core_0_L1I_total_access 6144280
Core_0_L1I_total_hit 6144277
Core_0_L1I_total_miss 3
Core_0_L1I_total_MPKI 6e-05
Core_0_L1I_total_miss_rate 4.88259e-07
Core_0_L1I_demand_access 6144280
Core_0_L1I_demand_hit 6144277
Core_0_L1I_demand_miss 3
Core_0_L1I_demand_MPKI 6e-05
Core_0_L1I_demand_miss_rate 4.88259e-07
Core_0_L1I_load_access 6144280
Core_0_L1I_load_hit 6144277
Core_0_L1I_load_miss 3
Core_0_L1I_load_MPKI 6e-05
Core_0_L1I_load_miss_rate 4.88259e-07
Core_0_L1I_rfo_access 0
Core_0_L1I_rfo_hit 0
Core_0_L1I_rfo_miss 0
Core_0_L1I_rfo_MPKI 0
Core_0_L1I_rfo_miss_rate 0
Core_0_L1I_prefetch_access 0
Core_0_L1I_prefetch_hit 0
Core_0_L1I_prefetch_miss 0
Core_0_L1I_prefetch_MPKI 0
Core_0_L1I_prefetch_miss_rate 0
Core_0_L1I_writeback_access 0
Core_0_L1I_writeback_hit 0
Core_0_L1I_writeback_miss 0
Core_0_L1I_writeback_MPKI 0
Core_0_L1I_writeback_miss_rate 0
Core_0_L1I_prefetch_requested 0
Core_0_L1I_prefetch_issued 0
Core_0_L1I_prefetch_useful 0
Core_0_L1I_prefetch_useless 0
Core_0_L1I_prefetch_late 0
Core_0_L1I_prefetch_accuracy 0
Core_0_L1I_prefetch_coverage 0

Core_0_L1D_total_access 14676794
Core_0_L1D_total_hit 10103353
Core_0_L1D_total_miss 4573441
Core_0_L1D_total_MPKI 91.4688
Core_0_L1D_total_miss_rate 0.31161
Core_0_L1D_demand_access 4294792
Core_0_L1D_demand_hit 3647600
Core_0_L1D_demand_miss 647192
Core_0_L1D_demand_MPKI 12.9438
Core_0_L1D_demand_miss_rate 0.150692
Core_0_L1D_load_access 4294792
Core_0_L1D_load_hit 3647600
Core_0_L1D_load_miss 647192
Core_0_L1D_load_MPKI 12.9438
Core_0_L1D_load_miss_rate 0.150692
Core_0_L1D_rfo_access 0
Core_0_L1D_rfo_hit 0
Core_0_L1D_rfo_miss 0
Core_0_L1D_rfo_MPKI 0
Core_0_L1D_rfo_miss_rate 0
Core_0_L1D_prefetch_access 447947
Core_0_L1D_prefetch_hit 133617
Core_0_L1D_prefetch_miss 314330
Core_0_L1D_prefetch_MPKI 6.2866
Core_0_L1D_prefetch_miss_rate 0.701712
Core_0_L1D_writeback_access 9934055
Core_0_L1D_writeback_hit 6322136
Core_0_L1D_writeback_miss 3611919
Core_0_L1D_writeback_MPKI 72.2384
Core_0_L1D_writeback_miss_rate 0.36359
Core_0_L1D_prefetch_requested 658962
Core_0_L1D_prefetch_issued 447943
Core_0_L1D_prefetch_useful 255361
Core_0_L1D_prefetch_useless 9313
Core_0_L1D_prefetch_late 74360
Core_0_L1D_prefetch_accuracy 0.570075
Core_0_L1D_prefetch_coverage 0.282932

Core_0_L2C_total_access 3926215
Core_0_L2C_total_hit 1501603
Core_0_L2C_total_miss 2424612
Core_0_L2C_total_MPKI 48.4922
Core_0_L2C_total_miss_rate 0.617544
Core_0_L2C_demand_access 812250
Core_0_L2C_demand_hit 267752
Core_0_L2C_demand_miss 544498
Core_0_L2C_demand_MPKI 10.89
Core_0_L2C_demand_miss_rate 0.670358
Core_0_L2C_load_access 332170
Core_0_L2C_load_hit 233941
Core_0_L2C_load_miss 98229
Core_0_L2C_load_MPKI 1.96458
Core_0_L2C_load_miss_rate 0.295719
Core_0_L2C_rfo_access 480080
Core_0_L2C_rfo_hit 33811
Core_0_L2C_rfo_miss 446269
Core_0_L2C_rfo_MPKI 8.92538
Core_0_L2C_rfo_miss_rate 0.929572
Core_0_L2C_prefetch_access 2583349
Core_0_L2C_prefetch_hit 703262
Core_0_L2C_prefetch_miss 1880087
Core_0_L2C_prefetch_MPKI 37.6017
Core_0_L2C_prefetch_miss_rate 0.727771
Core_0_L2C_writeback_access 530616
Core_0_L2C_writeback_hit 530589
Core_0_L2C_writeback_miss 27
Core_0_L2C_writeback_MPKI 0.00054
Core_0_L2C_writeback_miss_rate 5.08843e-05
Core_0_L2C_prefetch_requested 2451600
Core_0_L2C_prefetch_issued 2318674
Core_0_L2C_prefetch_useful 304824
Core_0_L2C_prefetch_useless 94834
Core_0_L2C_prefetch_late 83529
Core_0_L2C_prefetch_accuracy 0.131465
Core_0_L2C_prefetch_coverage 0.358903

Core_0_LLC_total_access 1388760
Core_0_LLC_total_hit 107748
Core_0_LLC_total_miss 1281012
Core_0_LLC_total_MPKI 25.6202
Core_0_LLC_total_miss_rate 0.922414
Core_0_LLC_demand_access 460969
Core_0_LLC_demand_hit 3907
Core_0_LLC_demand_miss 457062
Core_0_LLC_demand_MPKI 9.14124
Core_0_LLC_demand_miss_rate 0.991524
Core_0_LLC_load_access 14732
Core_0_LLC_load_hit 1834
Core_0_LLC_load_miss 12898
Core_0_LLC_load_MPKI 0.25796
Core_0_LLC_load_miss_rate 0.875509
Core_0_LLC_rfo_access 446237
Core_0_LLC_rfo_hit 2073
Core_0_LLC_rfo_miss 444164
Core_0_LLC_rfo_MPKI 8.88328
Core_0_LLC_rfo_miss_rate 0.995354
Core_0_LLC_prefetch_access 424098
Core_0_LLC_prefetch_hit 24651
Core_0_LLC_prefetch_miss 399447
Core_0_LLC_prefetch_MPKI 7.98894
Core_0_LLC_prefetch_miss_rate 0.941874
Core_0_LLC_writeback_access 503693
Core_0_LLC_writeback_hit 79190
Core_0_LLC_writeback_miss 424503
Core_0_LLC_writeback_MPKI 8.49006
Core_0_LLC_writeback_miss_rate 0.842781
Core_0_LLC_prefetch_requested 0
Core_0_LLC_prefetch_issued 0
Core_0_LLC_prefetch_useful 0
Core_0_LLC_prefetch_useless 0
Core_0_LLC_prefetch_late 0
Core_0_LLC_prefetch_accuracy 0
Core_0_LLC_prefetch_coverage 0

[DRAM Statistics]
Channel_0_RQ_row_buffer_hit 63886
Channel_0_RQ_row_buffer_miss 793108
Channel_0_WQ_row_buffer_hit 55746
Channel_0_WQ_row_buffer_miss 448114
Channel_0_WQ_full 2704
Channel_0_dbus_congested 4643795
DRAM_total_RQ_row_buffer_hit 63886
DRAM_total_RQ_row_buffer_miss 793108
DRAM_total_WQ_row_buffer_hit 55746
DRAM_total_WQ_row_buffer_miss 448114
DRAM_total_WQ_full 2704
DRAM_total_dbus_congested 4643795
DRAM_avg_congested_cycle 6.96446

======STLB miss causes ========
Core_0_STLB_miss_cause_breakdown
Core_0_STLB_cause_Demand_Data_miss 0
Core_0_STLB_cause_Demand_Data_miss_rate 0
Core_0_STLB_cause_Demand_Instruction_miss 0
Core_0_STLB_cause_Demand_Instruction_miss_rate 0
Core_0_STLB_cause_L1D_Prefetch_miss 575
Core_0_STLB_cause_L1D_Prefetch_miss_rate 0.0263013
Core_0_STLB_cause_L1I_Prefetch_miss 0
Core_0_STLB_cause_L1I_Prefetch_miss_rate 0
Core_0_STLB_cause_Other_miss 0
Core_0_STLB_cause_Other_miss_rate 0
Core_0_STLB_Demand_miss 0
Core_0_STLB_Demand_miss_rate 0
Core_0_STLB_L1D_Prefetch_miss 575
Core_0_STLB_L1D_Prefetch_miss_rate 0.0263013
Core_0_STLB_Other_miss 0
Core_0_STLB_Other_miss_rate 0
