[VMEM] WARNING: physical memory size is smaller than virtual memory size.

*** ChampSim Multicore Out-of-Order Simulator ***
Warmup Instructions: 20000000
Simulation Instructions: 50000000
Number of CPUs: 1
Page size: 4096
STLB ideal mode: demand
Core 0: /data0/tzh/champsim_traces/Ligra/ligra_BC.com-lj.ungraph.gcc_6.3.0_O3.drop_17000M.length_250M.champsimtrace.xz
 L1D Berti prefetcher
Off-chip DRAM Size: 4 GiB Channels: 1 Width: 64-bit Data Rate: 3205 MT/s
Warmup halting CPU 0 at instruction 20000003 cycle 5065249 for remainder of phase
Warmup finished CPU 0 instructions: 20000003 cycles: 5065249 cumulative IPC: 3.948 (Simulation time: 00 hr 01 min 08 sec)
Warmup complete CPU 0 instructions: 20000003 cycles: 5065249 cumulative IPC: 3.948 (Simulation time: 00 hr 01 min 08 sec)
Simulation finished CPU 0 instructions: 50000000 cycles: 31202401 cumulative IPC: 1.602 (Simulation time: 00 hr 06 min 26 sec)
Simulation complete CPU 0 instructions: 50000000 cycles: 31202401 cumulative IPC: 1.602 (Simulation time: 00 hr 06 min 26 sec)

ChampSim completed all CPUs

=== Simulation ===
CPU 0 runs /data0/tzh/champsim_traces/Ligra/ligra_BC.com-lj.ungraph.gcc_6.3.0_O3.drop_17000M.length_250M.champsimtrace.xz

Region of Interest Statistics

CPU 0 cumulative IPC: 1.602 instructions: 50000000 cycles: 31202401
CPU 0 Branch Prediction Accuracy: 99.3% MPKI: 0.6948 Average ROB Occupancy at Mispredict: 198
Branch type MPKI
BRANCH_DIRECT_JUMP: 2e-05
BRANCH_INDIRECT: 0
BRANCH_CONDITIONAL: 0.6947
BRANCH_DIRECT_CALL: 4e-05
BRANCH_INDIRECT_CALL: 0
BRANCH_RETURN: 0.00012

cpu0->cpu0_STLB TOTAL        ACCESS:      21986 HIT:      21448 MISS:        538 MSHR_MERGE:          0
cpu0->cpu0_STLB LOAD         ACCESS:      21986 HIT:      21448 MISS:        538 MSHR_MERGE:          0
cpu0->cpu0_STLB RFO          ACCESS:          0 HIT:          0 MISS:          0 MSHR_MERGE:          0
cpu0->cpu0_STLB PREFETCH     ACCESS:          0 HIT:          0 MISS:          0 MSHR_MERGE:          0
cpu0->cpu0_STLB WRITE        ACCESS:          0 HIT:          0 MISS:          0 MSHR_MERGE:          0
cpu0->cpu0_STLB TRANSLATION  ACCESS:          0 HIT:          0 MISS:          0 MSHR_MERGE:          0
cpu0->cpu0_STLB PREFETCH REQUESTED:          0 ISSUED:          0 USEFUL:          0 USELESS:          0 LATE:          0
cpu0->cpu0_STLB AVERAGE MISS LATENCY: 469.8 cycles
cpu0->cpu0_L2C TOTAL        ACCESS:    3683511 HIT:    1523362 MISS:    2160149 MSHR_MERGE:    1265100
cpu0->cpu0_L2C LOAD         ACCESS:     347060 HIT:     254548 MISS:      92512 MSHR_MERGE:      73208
cpu0->cpu0_L2C RFO          ACCESS:     485256 HIT:      34614 MISS:     450642 MSHR_MERGE:         44
cpu0->cpu0_L2C PREFETCH     ACCESS:    2325909 HIT:     709513 MISS:    1616396 MSHR_MERGE:    1191848
cpu0->cpu0_L2C WRITE        ACCESS:     524740 HIT:     524672 MISS:         68 MSHR_MERGE:          0
cpu0->cpu0_L2C TRANSLATION  ACCESS:        546 HIT:         15 MISS:        531 MSHR_MERGE:          0
cpu0->cpu0_L2C PREFETCH REQUESTED:    2147705 ISSUED:    2062041 USEFUL:     311826 USELESS:      90945 LATE:      73252
cpu0->cpu0_L2C AVERAGE MISS LATENCY: 449.3 cycles
cpu0->cpu0_L1I TOTAL        ACCESS:    7958803 HIT:    7958798 MISS:          5 MSHR_MERGE:          2
cpu0->cpu0_L1I LOAD         ACCESS:    7958803 HIT:    7958798 MISS:          5 MSHR_MERGE:          2
cpu0->cpu0_L1I RFO          ACCESS:          0 HIT:          0 MISS:          0 MSHR_MERGE:          0
cpu0->cpu0_L1I PREFETCH     ACCESS:          0 HIT:          0 MISS:          0 MSHR_MERGE:          0
cpu0->cpu0_L1I WRITE        ACCESS:          0 HIT:          0 MISS:          0 MSHR_MERGE:          0
cpu0->cpu0_L1I TRANSLATION  ACCESS:          0 HIT:          0 MISS:          0 MSHR_MERGE:          0
cpu0->cpu0_L1I PREFETCH REQUESTED:          0 ISSUED:          0 USEFUL:          0 USELESS:          0 LATE:          0
cpu0->cpu0_L1I AVERAGE MISS LATENCY: 212.7 cycles
cpu0->cpu0_L1D TOTAL        ACCESS:   14596268 HIT:    9990518 MISS:    4605750 MSHR_MERGE:    3509005
cpu0->cpu0_L1D LOAD         ACCESS:    4099250 HIT:    3450608 MISS:     648642 MSHR_MERGE:     301582
cpu0->cpu0_L1D RFO          ACCESS:          0 HIT:          0 MISS:          0 MSHR_MERGE:          0
cpu0->cpu0_L1D PREFETCH     ACCESS:     451945 HIT:     138761 MISS:     313184 MSHR_MERGE:      49316
cpu0->cpu0_L1D WRITE        ACCESS:   10043987 HIT:    6400609 MISS:    3643378 MSHR_MERGE:    3158107
cpu0->cpu0_L1D TRANSLATION  ACCESS:       1086 HIT:        540 MISS:        546 MSHR_MERGE:          0
cpu0->cpu0_L1D PREFETCH REQUESTED:     660089 ISSUED:     451938 USEFUL:     254819 USELESS:       9048 LATE:      69457
cpu0->cpu0_L1D AVERAGE MISS LATENCY: 294.9 cycles
cpu0->cpu0_ITLB TOTAL        ACCESS:    5983323 HIT:    5983323 MISS:          0 MSHR_MERGE:          0
cpu0->cpu0_ITLB LOAD         ACCESS:    5983323 HIT:    5983323 MISS:          0 MSHR_MERGE:          0
cpu0->cpu0_ITLB RFO          ACCESS:          0 HIT:          0 MISS:          0 MSHR_MERGE:          0
cpu0->cpu0_ITLB PREFETCH     ACCESS:          0 HIT:          0 MISS:          0 MSHR_MERGE:          0
cpu0->cpu0_ITLB WRITE        ACCESS:          0 HIT:          0 MISS:          0 MSHR_MERGE:          0
cpu0->cpu0_ITLB TRANSLATION  ACCESS:          0 HIT:          0 MISS:          0 MSHR_MERGE:          0
cpu0->cpu0_ITLB PREFETCH REQUESTED:          0 ISSUED:          0 USEFUL:          0 USELESS:          0 LATE:          0
cpu0->cpu0_ITLB AVERAGE MISS LATENCY: - cycles
cpu0->cpu0_DTLB TOTAL        ACCESS:   13138158 HIT:   13073531 MISS:      64627 MSHR_MERGE:      42641
cpu0->cpu0_DTLB LOAD         ACCESS:   13138158 HIT:   13073531 MISS:      64627 MSHR_MERGE:      42641
cpu0->cpu0_DTLB RFO          ACCESS:          0 HIT:          0 MISS:          0 MSHR_MERGE:          0
cpu0->cpu0_DTLB PREFETCH     ACCESS:          0 HIT:          0 MISS:          0 MSHR_MERGE:          0
cpu0->cpu0_DTLB WRITE        ACCESS:          0 HIT:          0 MISS:          0 MSHR_MERGE:          0
cpu0->cpu0_DTLB TRANSLATION  ACCESS:          0 HIT:          0 MISS:          0 MSHR_MERGE:          0
cpu0->cpu0_DTLB PREFETCH REQUESTED:          0 ISSUED:          0 USEFUL:          0 USELESS:          0 LATE:          0
cpu0->cpu0_DTLB AVERAGE MISS LATENCY: 16.52 cycles
cpu0->LLC TOTAL        ACCESS:    1390629 HIT:     229583 MISS:    1161046 MSHR_MERGE:          0
cpu0->LLC LOAD         ACCESS:      19304 HIT:       1886 MISS:      17418 MSHR_MERGE:          0
cpu0->LLC RFO          ACCESS:     450598 HIT:       3965 MISS:     446633 MSHR_MERGE:          0
cpu0->LLC PREFETCH     ACCESS:     424548 HIT:      23556 MISS:     400992 MSHR_MERGE:          0
cpu0->LLC WRITE        ACCESS:     495648 HIT:     200153 MISS:     295495 MSHR_MERGE:          0
cpu0->LLC TRANSLATION  ACCESS:        531 HIT:         23 MISS:        508 MSHR_MERGE:          0
cpu0->LLC PREFETCH REQUESTED:          0 ISSUED:          0 USEFUL:          0 USELESS:          0 LATE:          0
cpu0->LLC AVERAGE MISS LATENCY: 288.3 cycles

DRAM Statistics

Channel 0 RQ ROW_BUFFER_HIT:      64046
  ROW_BUFFER_MISS:     801414
  AVG DBUS CONGESTED CYCLE: 6.909
Channel 0 WQ ROW_BUFFER_HIT:      52746
  ROW_BUFFER_MISS:     436208
  FULL:       3071
Channel 0 REFRESHES ISSUED:       2600

[ROI Statistics]
[System Configuration]
num_cpus 1
cpu_freq 4000
fetch_width 6
decode_width 6
dispatch_width 6
execute_width 6
lq_width 2
sq_width 2
retire_width 6
scheduler_size 160
branch_mispredict_penalty 1
rob_size 352
lq_size 240
sq_size 112
ifetch_buffer_size 64
decode_buffer_size 32
dispatch_buffer_size 32
register_file_size 288
decode_latency 1
dispatch_latency 1
schedule_latency 0
execute_latency 0
page_size 4096
block_size 64
core_0_itlb_set 16
core_0_itlb_way 4
core_0_itlb_rq_size 16
core_0_itlb_wq_size 16
core_0_itlb_pq_size 0
core_0_itlb_mshr_size 8
core_0_itlb_hit_latency 1
core_0_itlb_fill_latency 1
core_0_itlb_max_tag_check 2
core_0_itlb_max_fill 2
core_0_dtlb_set 16
core_0_dtlb_way 4
core_0_dtlb_rq_size 16
core_0_dtlb_wq_size 16
core_0_dtlb_pq_size 0
core_0_dtlb_mshr_size 8
core_0_dtlb_hit_latency 1
core_0_dtlb_fill_latency 1
core_0_dtlb_max_tag_check 2
core_0_dtlb_max_fill 2
core_0_stlb_set 128
core_0_stlb_way 12
core_0_stlb_rq_size 32
core_0_stlb_wq_size 32
core_0_stlb_pq_size 0
core_0_stlb_mshr_size 16
core_0_stlb_hit_latency 4
core_0_stlb_fill_latency 4
core_0_stlb_max_tag_check 1
core_0_stlb_max_fill 1
core_0_l1i_set 64
core_0_l1i_way 8
core_0_l1i_rq_size 64
core_0_l1i_wq_size 64
core_0_l1i_pq_size 32
core_0_l1i_mshr_size 8
core_0_l1i_hit_latency 2
core_0_l1i_fill_latency 2
core_0_l1i_max_tag_check 2
core_0_l1i_max_fill 2
core_0_l1d_set 64
core_0_l1d_way 12
core_0_l1d_rq_size 64
core_0_l1d_wq_size 64
core_0_l1d_pq_size 8
core_0_l1d_mshr_size 16
core_0_l1d_hit_latency 2
core_0_l1d_fill_latency 3
core_0_l1d_max_tag_check 2
core_0_l1d_max_fill 2
core_0_l2c_set 1024
core_0_l2c_way 8
core_0_l2c_rq_size 32
core_0_l2c_wq_size 32
core_0_l2c_pq_size 16
core_0_l2c_mshr_size 32
core_0_l2c_hit_latency 5
core_0_l2c_fill_latency 5
core_0_l2c_max_tag_check 1
core_0_l2c_max_fill 1
llc_set 2048
llc_way 16
llc_rq_size 32
llc_wq_size 32
llc_pq_size 32
llc_mshr_size 64
llc_hit_latency 10
llc_fill_latency 10
llc_max_tag_check 1
llc_max_fill 1
dram_channels 1
dram_ranks 1
dram_bankgroups 8
dram_banks 4
dram_rows 16384
dram_columns 1024
dram_channel_width 8
dram_rq_size 64
dram_wq_size 64
dram_size 4294967296
core_0_itlb_prefetcher no
core_0_dtlb_prefetcher no
core_0_stlb_prefetcher no
core_0_l1i_prefetcher next_line
core_0_l1d_prefetcher berti
core_0_l2c_prefetcher pythia
llc_prefetcher no
llc_replacement drrip

Core_0_instructions 50000000
Core_0_cycles 31202401
Core_0_IPC 1.60244
Core_0_branch_prediction_accuracy 99.3039
Core_0_branch_MPKI 0.69484
Core_0_average_ROB_occupancy_at_mispredict 198.007

Core_0_ITLB_total_access 5983323
Core_0_ITLB_total_hit 5983323
Core_0_ITLB_total_miss 0
Core_0_ITLB_total_MPKI 0
Core_0_ITLB_total_miss_rate 0
Core_0_ITLB_demand_access 5983323
Core_0_ITLB_demand_hit 5983323
Core_0_ITLB_demand_miss 0
Core_0_ITLB_demand_MPKI 0
Core_0_ITLB_demand_miss_rate 0
Core_0_ITLB_load_access 5983323
Core_0_ITLB_load_hit 5983323
Core_0_ITLB_load_miss 0
Core_0_ITLB_load_MPKI 0
Core_0_ITLB_load_miss_rate 0
Core_0_ITLB_rfo_access 0
Core_0_ITLB_rfo_hit 0
Core_0_ITLB_rfo_miss 0
Core_0_ITLB_rfo_MPKI 0
Core_0_ITLB_rfo_miss_rate 0
Core_0_ITLB_prefetch_access 0
Core_0_ITLB_prefetch_hit 0
Core_0_ITLB_prefetch_miss 0
Core_0_ITLB_prefetch_MPKI 0
Core_0_ITLB_prefetch_miss_rate 0
Core_0_ITLB_writeback_access 0
Core_0_ITLB_writeback_hit 0
Core_0_ITLB_writeback_miss 0
Core_0_ITLB_writeback_MPKI 0
Core_0_ITLB_writeback_miss_rate 0
Core_0_ITLB_prefetch_requested 0
Core_0_ITLB_prefetch_issued 0
Core_0_ITLB_prefetch_useful 0
Core_0_ITLB_prefetch_useless 0
Core_0_ITLB_prefetch_late 0
Core_0_ITLB_prefetch_accuracy 0
Core_0_ITLB_prefetch_coverage 0

Core_0_DTLB_total_access 13138158
Core_0_DTLB_total_hit 13073531
Core_0_DTLB_total_miss 64627
Core_0_DTLB_total_MPKI 1.29254
Core_0_DTLB_total_miss_rate 0.00491903
Core_0_DTLB_demand_access 13138158
Core_0_DTLB_demand_hit 13073531
Core_0_DTLB_demand_miss 64627
Core_0_DTLB_demand_MPKI 1.29254
Core_0_DTLB_demand_miss_rate 0.00491903
Core_0_DTLB_load_access 13138158
Core_0_DTLB_load_hit 13073531
Core_0_DTLB_load_miss 64627
Core_0_DTLB_load_MPKI 1.29254
Core_0_DTLB_load_miss_rate 0.00491903
Core_0_DTLB_rfo_access 0
Core_0_DTLB_rfo_hit 0
Core_0_DTLB_rfo_miss 0
Core_0_DTLB_rfo_MPKI 0
Core_0_DTLB_rfo_miss_rate 0
Core_0_DTLB_prefetch_access 0
Core_0_DTLB_prefetch_hit 0
Core_0_DTLB_prefetch_miss 0
Core_0_DTLB_prefetch_MPKI 0
Core_0_DTLB_prefetch_miss_rate 0
Core_0_DTLB_writeback_access 0
Core_0_DTLB_writeback_hit 0
Core_0_DTLB_writeback_miss 0
Core_0_DTLB_writeback_MPKI 0
Core_0_DTLB_writeback_miss_rate 0
Core_0_DTLB_prefetch_requested 0
Core_0_DTLB_prefetch_issued 0
Core_0_DTLB_prefetch_useful 0
Core_0_DTLB_prefetch_useless 0
Core_0_DTLB_prefetch_late 0
Core_0_DTLB_prefetch_accuracy 0
Core_0_DTLB_prefetch_coverage 0

Core_0_STLB_total_access 21986
Core_0_STLB_total_hit 21448
Core_0_STLB_total_miss 538
Core_0_STLB_total_MPKI 0.01076
Core_0_STLB_total_miss_rate 0.0244701
Core_0_STLB_demand_access 21986
Core_0_STLB_demand_hit 21448
Core_0_STLB_demand_miss 538
Core_0_STLB_demand_MPKI 0.01076
Core_0_STLB_demand_miss_rate 0.0244701
Core_0_STLB_load_access 21986
Core_0_STLB_load_hit 21448
Core_0_STLB_load_miss 538
Core_0_STLB_load_MPKI 0.01076
Core_0_STLB_load_miss_rate 0.0244701
Core_0_STLB_rfo_access 0
Core_0_STLB_rfo_hit 0
Core_0_STLB_rfo_miss 0
Core_0_STLB_rfo_MPKI 0
Core_0_STLB_rfo_miss_rate 0
Core_0_STLB_prefetch_access 0
Core_0_STLB_prefetch_hit 0
Core_0_STLB_prefetch_miss 0
Core_0_STLB_prefetch_MPKI 0
Core_0_STLB_prefetch_miss_rate 0
Core_0_STLB_writeback_access 0
Core_0_STLB_writeback_hit 0
Core_0_STLB_writeback_miss 0
Core_0_STLB_writeback_MPKI 0
Core_0_STLB_writeback_miss_rate 0
Core_0_STLB_prefetch_requested 0
Core_0_STLB_prefetch_issued 0
Core_0_STLB_prefetch_useful 0
Core_0_STLB_prefetch_useless 0
Core_0_STLB_prefetch_late 0
Core_0_STLB_prefetch_accuracy 0
Core_0_STLB_prefetch_coverage 0

Core_0_L1I_total_access 7958803
Core_0_L1I_total_hit 7958798
Core_0_L1I_total_miss 5
Core_0_L1I_total_MPKI 0.0001
Core_0_L1I_total_miss_rate 6.28235e-07
Core_0_L1I_demand_access 7958803
Core_0_L1I_demand_hit 7958798
Core_0_L1I_demand_miss 5
Core_0_L1I_demand_MPKI 0.0001
Core_0_L1I_demand_miss_rate 6.28235e-07
Core_0_L1I_load_access 7958803
Core_0_L1I_load_hit 7958798
Core_0_L1I_load_miss 5
Core_0_L1I_load_MPKI 0.0001
Core_0_L1I_load_miss_rate 6.28235e-07
Core_0_L1I_rfo_access 0
Core_0_L1I_rfo_hit 0
Core_0_L1I_rfo_miss 0
Core_0_L1I_rfo_MPKI 0
Core_0_L1I_rfo_miss_rate 0
Core_0_L1I_prefetch_access 0
Core_0_L1I_prefetch_hit 0
Core_0_L1I_prefetch_miss 0
Core_0_L1I_prefetch_MPKI 0
Core_0_L1I_prefetch_miss_rate 0
Core_0_L1I_writeback_access 0
Core_0_L1I_writeback_hit 0
Core_0_L1I_writeback_miss 0
Core_0_L1I_writeback_MPKI 0
Core_0_L1I_writeback_miss_rate 0
Core_0_L1I_prefetch_requested 0
Core_0_L1I_prefetch_issued 0
Core_0_L1I_prefetch_useful 0
Core_0_L1I_prefetch_useless 0
Core_0_L1I_prefetch_late 0
Core_0_L1I_prefetch_accuracy 0
Core_0_L1I_prefetch_coverage 0

Core_0_L1D_total_access 14595182
Core_0_L1D_total_hit 9989978
Core_0_L1D_total_miss 4605204
Core_0_L1D_total_MPKI 92.1041
Core_0_L1D_total_miss_rate 0.315529
Core_0_L1D_demand_access 4099250
Core_0_L1D_demand_hit 3450608
Core_0_L1D_demand_miss 648642
Core_0_L1D_demand_MPKI 12.9728
Core_0_L1D_demand_miss_rate 0.158234
Core_0_L1D_load_access 4099250
Core_0_L1D_load_hit 3450608
Core_0_L1D_load_miss 648642
Core_0_L1D_load_MPKI 12.9728
Core_0_L1D_load_miss_rate 0.158234
Core_0_L1D_rfo_access 0
Core_0_L1D_rfo_hit 0
Core_0_L1D_rfo_miss 0
Core_0_L1D_rfo_MPKI 0
Core_0_L1D_rfo_miss_rate 0
Core_0_L1D_prefetch_access 451945
Core_0_L1D_prefetch_hit 138761
Core_0_L1D_prefetch_miss 313184
Core_0_L1D_prefetch_MPKI 6.26368
Core_0_L1D_prefetch_miss_rate 0.692969
Core_0_L1D_writeback_access 10043987
Core_0_L1D_writeback_hit 6400609
Core_0_L1D_writeback_miss 3643378
Core_0_L1D_writeback_MPKI 72.8676
Core_0_L1D_writeback_miss_rate 0.362742
Core_0_L1D_prefetch_requested 660089
Core_0_L1D_prefetch_issued 451938
Core_0_L1D_prefetch_useful 254819
Core_0_L1D_prefetch_useless 9048
Core_0_L1D_prefetch_late 69457
Core_0_L1D_prefetch_accuracy 0.563836
Core_0_L1D_prefetch_coverage 0.282048

Core_0_L2C_total_access 3682965
Core_0_L2C_total_hit 1523347
Core_0_L2C_total_miss 2159618
Core_0_L2C_total_MPKI 43.1924
Core_0_L2C_total_miss_rate 0.58638
Core_0_L2C_demand_access 832316
Core_0_L2C_demand_hit 289162
Core_0_L2C_demand_miss 543154
Core_0_L2C_demand_MPKI 10.8631
Core_0_L2C_demand_miss_rate 0.652581
Core_0_L2C_load_access 347060
Core_0_L2C_load_hit 254548
Core_0_L2C_load_miss 92512
Core_0_L2C_load_MPKI 1.85024
Core_0_L2C_load_miss_rate 0.266559
Core_0_L2C_rfo_access 485256
Core_0_L2C_rfo_hit 34614
Core_0_L2C_rfo_miss 450642
Core_0_L2C_rfo_MPKI 9.01284
Core_0_L2C_rfo_miss_rate 0.928669
Core_0_L2C_prefetch_access 2325909
Core_0_L2C_prefetch_hit 709513
Core_0_L2C_prefetch_miss 1616396
Core_0_L2C_prefetch_MPKI 32.3279
Core_0_L2C_prefetch_miss_rate 0.694952
Core_0_L2C_writeback_access 524740
Core_0_L2C_writeback_hit 524672
Core_0_L2C_writeback_miss 68
Core_0_L2C_writeback_MPKI 0.00136
Core_0_L2C_writeback_miss_rate 0.000129588
Core_0_L2C_prefetch_requested 2147705
Core_0_L2C_prefetch_issued 2062041
Core_0_L2C_prefetch_useful 311826
Core_0_L2C_prefetch_useless 90945
Core_0_L2C_prefetch_late 73252
Core_0_L2C_prefetch_accuracy 0.151222
Core_0_L2C_prefetch_coverage 0.364717

Core_0_LLC_total_access 1390098
Core_0_LLC_total_hit 229560
Core_0_LLC_total_miss 1160538
Core_0_LLC_total_MPKI 23.2108
Core_0_LLC_total_miss_rate 0.834861
Core_0_LLC_demand_access 469902
Core_0_LLC_demand_hit 5851
Core_0_LLC_demand_miss 464051
Core_0_LLC_demand_MPKI 9.28102
Core_0_LLC_demand_miss_rate 0.987548
Core_0_LLC_load_access 19304
Core_0_LLC_load_hit 1886
Core_0_LLC_load_miss 17418
Core_0_LLC_load_MPKI 0.34836
Core_0_LLC_load_miss_rate 0.9023
Core_0_LLC_rfo_access 450598
Core_0_LLC_rfo_hit 3965
Core_0_LLC_rfo_miss 446633
Core_0_LLC_rfo_MPKI 8.93266
Core_0_LLC_rfo_miss_rate 0.991201
Core_0_LLC_prefetch_access 424548
Core_0_LLC_prefetch_hit 23556
Core_0_LLC_prefetch_miss 400992
Core_0_LLC_prefetch_MPKI 8.01984
Core_0_LLC_prefetch_miss_rate 0.944515
Core_0_LLC_writeback_access 495648
Core_0_LLC_writeback_hit 200153
Core_0_LLC_writeback_miss 295495
Core_0_LLC_writeback_MPKI 5.9099
Core_0_LLC_writeback_miss_rate 0.596179
Core_0_LLC_prefetch_requested 0
Core_0_LLC_prefetch_issued 0
Core_0_LLC_prefetch_useful 0
Core_0_LLC_prefetch_useless 0
Core_0_LLC_prefetch_late 0
Core_0_LLC_prefetch_accuracy 0
Core_0_LLC_prefetch_coverage 0

[DRAM Statistics]
Channel_0_RQ_row_buffer_hit 64046
Channel_0_RQ_row_buffer_miss 801414
Channel_0_WQ_row_buffer_hit 52746
Channel_0_WQ_row_buffer_miss 436208
Channel_0_WQ_full 3071
Channel_0_dbus_congested 4616851
DRAM_total_RQ_row_buffer_hit 64046
DRAM_total_RQ_row_buffer_miss 801414
DRAM_total_WQ_row_buffer_hit 52746
DRAM_total_WQ_row_buffer_miss 436208
DRAM_total_WQ_full 3071
DRAM_total_dbus_congested 4616851
DRAM_avg_congested_cycle 6.90919

======STLB miss causes ========
Core_0_STLB_miss_cause_breakdown
Core_0_STLB_cause_Demand_Data_miss 0
Core_0_STLB_cause_Demand_Data_miss_rate 0
Core_0_STLB_cause_Demand_Instruction_miss 0
Core_0_STLB_cause_Demand_Instruction_miss_rate 0
Core_0_STLB_cause_L1D_Prefetch_miss 538
Core_0_STLB_cause_L1D_Prefetch_miss_rate 0.0244701
Core_0_STLB_cause_L1I_Prefetch_miss 0
Core_0_STLB_cause_L1I_Prefetch_miss_rate 0
Core_0_STLB_cause_Other_miss 0
Core_0_STLB_cause_Other_miss_rate 0
Core_0_STLB_Demand_miss 0
Core_0_STLB_Demand_miss_rate 0
Core_0_STLB_L1D_Prefetch_miss 538
Core_0_STLB_L1D_Prefetch_miss_rate 0.0244701
Core_0_STLB_Other_miss 0
Core_0_STLB_Other_miss_rate 0
