[VMEM] WARNING: physical memory size is smaller than virtual memory size.

*** ChampSim Multicore Out-of-Order Simulator ***
Warmup Instructions: 20000000
Simulation Instructions: 50000000
Number of CPUs: 1
Page size: 4096
STLB ideal mode: l1pref
Core 0: /data0/tzh/champsim_traces/SPEC06/436.cactusADM-1804B.champsimtrace.xz
 L1D Berti prefetcher
Off-chip DRAM Size: 16 GiB Channels: 1 Width: 64-bit Data Rate: 3205 MT/s
Warmup halting CPU 0 at instruction 20000005 cycle 6131765 for remainder of phase
Warmup finished CPU 0 instructions: 20000005 cycles: 6131765 cumulative IPC: 3.262 (Simulation time: 00 hr 01 min 23 sec)
Warmup complete CPU 0 instructions: 20000005 cycles: 6131765 cumulative IPC: 3.262 (Simulation time: 00 hr 01 min 23 sec)
Simulation finished CPU 0 instructions: 50000002 cycles: 26219246 cumulative IPC: 1.907 (Simulation time: 00 hr 06 min 45 sec)
Simulation complete CPU 0 instructions: 50000002 cycles: 26219246 cumulative IPC: 1.907 (Simulation time: 00 hr 06 min 45 sec)

ChampSim completed all CPUs

=== Simulation ===
CPU 0 runs /data0/tzh/champsim_traces/SPEC06/436.cactusADM-1804B.champsimtrace.xz

Region of Interest Statistics

CPU 0 cumulative IPC: 1.907 instructions: 50000002 cycles: 26219246
CPU 0 Branch Prediction Accuracy: 99.99% MPKI: 0.00016 Average ROB Occupancy at Mispredict: 264.6
Branch type MPKI
BRANCH_DIRECT_JUMP: 0
BRANCH_INDIRECT: 0
BRANCH_CONDITIONAL: 0.00016
BRANCH_DIRECT_CALL: 0
BRANCH_INDIRECT_CALL: 0
BRANCH_RETURN: 0

cpu0->cpu0_STLB TOTAL        ACCESS:    1371357 HIT:     909559 MISS:     461798 MSHR_MERGE:          0
cpu0->cpu0_STLB LOAD         ACCESS:    1371357 HIT:     909559 MISS:     461798 MSHR_MERGE:          0
cpu0->cpu0_STLB RFO          ACCESS:          0 HIT:          0 MISS:          0 MSHR_MERGE:          0
cpu0->cpu0_STLB PREFETCH     ACCESS:          0 HIT:          0 MISS:          0 MSHR_MERGE:          0
cpu0->cpu0_STLB WRITE        ACCESS:          0 HIT:          0 MISS:          0 MSHR_MERGE:          0
cpu0->cpu0_STLB TRANSLATION  ACCESS:          0 HIT:          0 MISS:          0 MSHR_MERGE:          0
cpu0->cpu0_STLB PREFETCH REQUESTED:          0 ISSUED:          0 USEFUL:          0 USELESS:          0 LATE:          0
cpu0->cpu0_STLB AVERAGE MISS LATENCY: 24.42 cycles
cpu0->cpu0_L2C TOTAL        ACCESS:    2752211 HIT:    2494296 MISS:     257915 MSHR_MERGE:       6104
cpu0->cpu0_L2C LOAD         ACCESS:     213936 HIT:     210588 MISS:       3348 MSHR_MERGE:        181
cpu0->cpu0_L2C RFO          ACCESS:      74249 HIT:       3701 MISS:      70548 MSHR_MERGE:          0
cpu0->cpu0_L2C PREFETCH     ACCESS:    1996862 HIT:    1813506 MISS:     183356 MSHR_MERGE:       5923
cpu0->cpu0_L2C WRITE        ACCESS:      80980 HIT:      80942 MISS:         38 MSHR_MERGE:          0
cpu0->cpu0_L2C TRANSLATION  ACCESS:     386184 HIT:     385559 MISS:        625 MSHR_MERGE:          0
cpu0->cpu0_L2C PREFETCH REQUESTED:    1991811 ISSUED:    1810303 USEFUL:     169752 USELESS:       1667 LATE:        181
cpu0->cpu0_L2C AVERAGE MISS LATENCY: 352.9 cycles
cpu0->cpu0_L1I TOTAL        ACCESS:    9592949 HIT:    9592949 MISS:          0 MSHR_MERGE:          0
cpu0->cpu0_L1I LOAD         ACCESS:    9592949 HIT:    9592949 MISS:          0 MSHR_MERGE:          0
cpu0->cpu0_L1I RFO          ACCESS:          0 HIT:          0 MISS:          0 MSHR_MERGE:          0
cpu0->cpu0_L1I PREFETCH     ACCESS:          0 HIT:          0 MISS:          0 MSHR_MERGE:          0
cpu0->cpu0_L1I WRITE        ACCESS:          0 HIT:          0 MISS:          0 MSHR_MERGE:          0
cpu0->cpu0_L1I TRANSLATION  ACCESS:          0 HIT:          0 MISS:          0 MSHR_MERGE:          0
cpu0->cpu0_L1I PREFETCH REQUESTED:          0 ISSUED:          0 USEFUL:          0 USELESS:          0 LATE:          0
cpu0->cpu0_L1I AVERAGE MISS LATENCY: - cycles
cpu0->cpu0_L1D TOTAL        ACCESS:   22126724 HIT:   21101782 MISS:    1024942 MSHR_MERGE:     163943
cpu0->cpu0_L1D LOAD         ACCESS:   12127347 HIT:   11911099 MISS:     216248 MSHR_MERGE:       2255
cpu0->cpu0_L1D RFO          ACCESS:          0 HIT:          0 MISS:          0 MSHR_MERGE:          0
cpu0->cpu0_L1D PREFETCH     ACCESS:     684190 HIT:     491819 MISS:     192371 MSHR_MERGE:       5811
cpu0->cpu0_L1D WRITE        ACCESS:    7961929 HIT:    7731790 MISS:     230139 MSHR_MERGE:     155877
cpu0->cpu0_L1D TRANSLATION  ACCESS:    1353258 HIT:     967074 MISS:     386184 MSHR_MERGE:          0
cpu0->cpu0_L1D PREFETCH REQUESTED:     907875 ISSUED:     684183 USEFUL:     127219 USELESS:      59326 LATE:       1102
cpu0->cpu0_L1D AVERAGE MISS LATENCY: 47.34 cycles
cpu0->cpu0_ITLB TOTAL        ACCESS:    7103289 HIT:    7103289 MISS:          0 MSHR_MERGE:          0
cpu0->cpu0_ITLB LOAD         ACCESS:    7103289 HIT:    7103289 MISS:          0 MSHR_MERGE:          0
cpu0->cpu0_ITLB RFO          ACCESS:          0 HIT:          0 MISS:          0 MSHR_MERGE:          0
cpu0->cpu0_ITLB PREFETCH     ACCESS:          0 HIT:          0 MISS:          0 MSHR_MERGE:          0
cpu0->cpu0_ITLB WRITE        ACCESS:          0 HIT:          0 MISS:          0 MSHR_MERGE:          0
cpu0->cpu0_ITLB TRANSLATION  ACCESS:          0 HIT:          0 MISS:          0 MSHR_MERGE:          0
cpu0->cpu0_ITLB PREFETCH REQUESTED:          0 ISSUED:          0 USEFUL:          0 USELESS:          0 LATE:          0
cpu0->cpu0_ITLB AVERAGE MISS LATENCY: - cycles
cpu0->cpu0_DTLB TOTAL        ACCESS:   18562024 HIT:   17157404 MISS:    1404620 MSHR_MERGE:      33263
cpu0->cpu0_DTLB LOAD         ACCESS:   18562024 HIT:   17157404 MISS:    1404620 MSHR_MERGE:      33263
cpu0->cpu0_DTLB RFO          ACCESS:          0 HIT:          0 MISS:          0 MSHR_MERGE:          0
cpu0->cpu0_DTLB PREFETCH     ACCESS:          0 HIT:          0 MISS:          0 MSHR_MERGE:          0
cpu0->cpu0_DTLB WRITE        ACCESS:          0 HIT:          0 MISS:          0 MSHR_MERGE:          0
cpu0->cpu0_DTLB TRANSLATION  ACCESS:          0 HIT:          0 MISS:          0 MSHR_MERGE:          0
cpu0->cpu0_DTLB PREFETCH REQUESTED:          0 ISSUED:          0 USEFUL:          0 USELESS:          0 LATE:          0
cpu0->cpu0_DTLB AVERAGE MISS LATENCY: 13.57 cycles
cpu0->LLC TOTAL        ACCESS:     323518 HIT:      43692 MISS:     279826 MSHR_MERGE:          0
cpu0->LLC LOAD         ACCESS:       3167 HIT:        426 MISS:       2741 MSHR_MERGE:          0
cpu0->LLC RFO          ACCESS:      70548 HIT:        920 MISS:      69628 MSHR_MERGE:          0
cpu0->LLC PREFETCH     ACCESS:     177433 HIT:      29640 MISS:     147793 MSHR_MERGE:          0
cpu0->LLC WRITE        ACCESS:      71745 HIT:      12642 MISS:      59103 MSHR_MERGE:          0
cpu0->LLC TRANSLATION  ACCESS:        625 HIT:         64 MISS:        561 MSHR_MERGE:          0
cpu0->LLC PREFETCH REQUESTED:          0 ISSUED:          0 USEFUL:          0 USELESS:          0 LATE:          0
cpu0->LLC AVERAGE MISS LATENCY: 193.9 cycles

DRAM Statistics

Channel 0 RQ ROW_BUFFER_HIT:       3358
  ROW_BUFFER_MISS:     217360
  AVG DBUS CONGESTED CYCLE: 7.925
Channel 0 WQ ROW_BUFFER_HIT:       9180
  ROW_BUFFER_MISS:      57993
  FULL:          0
Channel 0 REFRESHES ISSUED:       2185

[ROI Statistics]
[System Configuration]
num_cpus 1
cpu_freq 4000
fetch_width 6
decode_width 6
dispatch_width 6
execute_width 6
lq_width 2
sq_width 2
retire_width 6
scheduler_size 128
branch_mispredict_penalty 15
rob_size 352
lq_size 128
sq_size 72
ifetch_buffer_size 64
decode_buffer_size 32
dispatch_buffer_size 32
register_file_size 288
decode_latency 1
dispatch_latency 1
schedule_latency 1
execute_latency 1
page_size 4096
block_size 64
core_0_itlb_set 16
core_0_itlb_way 4
core_0_itlb_rq_size 16
core_0_itlb_wq_size 16
core_0_itlb_pq_size 0
core_0_itlb_mshr_size 8
core_0_itlb_hit_latency 1
core_0_itlb_fill_latency 1
core_0_itlb_max_tag_check 2
core_0_itlb_max_fill 2
core_0_dtlb_set 16
core_0_dtlb_way 4
core_0_dtlb_rq_size 16
core_0_dtlb_wq_size 16
core_0_dtlb_pq_size 0
core_0_dtlb_mshr_size 8
core_0_dtlb_hit_latency 1
core_0_dtlb_fill_latency 1
core_0_dtlb_max_tag_check 2
core_0_dtlb_max_fill 2
core_0_stlb_set 128
core_0_stlb_way 12
core_0_stlb_rq_size 32
core_0_stlb_wq_size 32
core_0_stlb_pq_size 0
core_0_stlb_mshr_size 16
core_0_stlb_hit_latency 4
core_0_stlb_fill_latency 4
core_0_stlb_max_tag_check 1
core_0_stlb_max_fill 1
core_0_l1i_set 64
core_0_l1i_way 8
core_0_l1i_rq_size 64
core_0_l1i_wq_size 64
core_0_l1i_pq_size 32
core_0_l1i_mshr_size 8
core_0_l1i_hit_latency 2
core_0_l1i_fill_latency 2
core_0_l1i_max_tag_check 2
core_0_l1i_max_fill 2
core_0_l1d_set 64
core_0_l1d_way 12
core_0_l1d_rq_size 64
core_0_l1d_wq_size 64
core_0_l1d_pq_size 8
core_0_l1d_mshr_size 16
core_0_l1d_hit_latency 2
core_0_l1d_fill_latency 3
core_0_l1d_max_tag_check 2
core_0_l1d_max_fill 2
core_0_l2c_set 1024
core_0_l2c_way 8
core_0_l2c_rq_size 32
core_0_l2c_wq_size 32
core_0_l2c_pq_size 16
core_0_l2c_mshr_size 32
core_0_l2c_hit_latency 5
core_0_l2c_fill_latency 5
core_0_l2c_max_tag_check 1
core_0_l2c_max_fill 1
llc_set 2048
llc_way 16
llc_rq_size 32
llc_wq_size 32
llc_pq_size 32
llc_mshr_size 64
llc_hit_latency 10
llc_fill_latency 10
llc_max_tag_check 1
llc_max_fill 1
dram_channels 1
dram_ranks 1
dram_bankgroups 8
dram_banks 4
dram_rows 65536
dram_columns 1024
dram_channel_width 8
dram_rq_size 64
dram_wq_size 64
dram_size 17179869184
core_0_itlb_prefetcher no
core_0_dtlb_prefetcher no
core_0_stlb_prefetcher no
core_0_l1i_prefetcher next_line
core_0_l1d_prefetcher berti
core_0_l2c_prefetcher pythia
llc_prefetcher no
llc_replacement drrip

Core_0_instructions 50000002
Core_0_cycles 26219246
Core_0_IPC 1.907
Core_0_branch_prediction_accuracy 99.987
Core_0_branch_MPKI 0.00016
Core_0_average_ROB_occupancy_at_mispredict 264.625

Core_0_ITLB_total_access 7103289
Core_0_ITLB_total_hit 7103289
Core_0_ITLB_total_miss 0
Core_0_ITLB_total_MPKI 0
Core_0_ITLB_total_miss_rate 0
Core_0_ITLB_demand_access 7103289
Core_0_ITLB_demand_hit 7103289
Core_0_ITLB_demand_miss 0
Core_0_ITLB_demand_MPKI 0
Core_0_ITLB_demand_miss_rate 0
Core_0_ITLB_load_access 7103289
Core_0_ITLB_load_hit 7103289
Core_0_ITLB_load_miss 0
Core_0_ITLB_load_MPKI 0
Core_0_ITLB_load_miss_rate 0
Core_0_ITLB_rfo_access 0
Core_0_ITLB_rfo_hit 0
Core_0_ITLB_rfo_miss 0
Core_0_ITLB_rfo_MPKI 0
Core_0_ITLB_rfo_miss_rate 0
Core_0_ITLB_prefetch_access 0
Core_0_ITLB_prefetch_hit 0
Core_0_ITLB_prefetch_miss 0
Core_0_ITLB_prefetch_MPKI 0
Core_0_ITLB_prefetch_miss_rate 0
Core_0_ITLB_writeback_access 0
Core_0_ITLB_writeback_hit 0
Core_0_ITLB_writeback_miss 0
Core_0_ITLB_writeback_MPKI 0
Core_0_ITLB_writeback_miss_rate 0
Core_0_ITLB_prefetch_requested 0
Core_0_ITLB_prefetch_issued 0
Core_0_ITLB_prefetch_useful 0
Core_0_ITLB_prefetch_useless 0
Core_0_ITLB_prefetch_late 0
Core_0_ITLB_prefetch_accuracy 0
Core_0_ITLB_prefetch_coverage 0

Core_0_DTLB_total_access 18562024
Core_0_DTLB_total_hit 17157404
Core_0_DTLB_total_miss 1404620
Core_0_DTLB_total_MPKI 28.0924
Core_0_DTLB_total_miss_rate 0.0756717
Core_0_DTLB_demand_access 18562024
Core_0_DTLB_demand_hit 17157404
Core_0_DTLB_demand_miss 1404620
Core_0_DTLB_demand_MPKI 28.0924
Core_0_DTLB_demand_miss_rate 0.0756717
Core_0_DTLB_load_access 18562024
Core_0_DTLB_load_hit 17157404
Core_0_DTLB_load_miss 1404620
Core_0_DTLB_load_MPKI 28.0924
Core_0_DTLB_load_miss_rate 0.0756717
Core_0_DTLB_rfo_access 0
Core_0_DTLB_rfo_hit 0
Core_0_DTLB_rfo_miss 0
Core_0_DTLB_rfo_MPKI 0
Core_0_DTLB_rfo_miss_rate 0
Core_0_DTLB_prefetch_access 0
Core_0_DTLB_prefetch_hit 0
Core_0_DTLB_prefetch_miss 0
Core_0_DTLB_prefetch_MPKI 0
Core_0_DTLB_prefetch_miss_rate 0
Core_0_DTLB_writeback_access 0
Core_0_DTLB_writeback_hit 0
Core_0_DTLB_writeback_miss 0
Core_0_DTLB_writeback_MPKI 0
Core_0_DTLB_writeback_miss_rate 0
Core_0_DTLB_prefetch_requested 0
Core_0_DTLB_prefetch_issued 0
Core_0_DTLB_prefetch_useful 0
Core_0_DTLB_prefetch_useless 0
Core_0_DTLB_prefetch_late 0
Core_0_DTLB_prefetch_accuracy 0
Core_0_DTLB_prefetch_coverage 0

Core_0_STLB_total_access 1371357
Core_0_STLB_total_hit 909559
Core_0_STLB_total_miss 461798
Core_0_STLB_total_MPKI 9.23596
Core_0_STLB_total_miss_rate 0.336745
Core_0_STLB_demand_access 1371357
Core_0_STLB_demand_hit 909559
Core_0_STLB_demand_miss 461798
Core_0_STLB_demand_MPKI 9.23596
Core_0_STLB_demand_miss_rate 0.336745
Core_0_STLB_load_access 1371357
Core_0_STLB_load_hit 909559
Core_0_STLB_load_miss 461798
Core_0_STLB_load_MPKI 9.23596
Core_0_STLB_load_miss_rate 0.336745
Core_0_STLB_rfo_access 0
Core_0_STLB_rfo_hit 0
Core_0_STLB_rfo_miss 0
Core_0_STLB_rfo_MPKI 0
Core_0_STLB_rfo_miss_rate 0
Core_0_STLB_prefetch_access 0
Core_0_STLB_prefetch_hit 0
Core_0_STLB_prefetch_miss 0
Core_0_STLB_prefetch_MPKI 0
Core_0_STLB_prefetch_miss_rate 0
Core_0_STLB_writeback_access 0
Core_0_STLB_writeback_hit 0
Core_0_STLB_writeback_miss 0
Core_0_STLB_writeback_MPKI 0
Core_0_STLB_writeback_miss_rate 0
Core_0_STLB_prefetch_requested 0
Core_0_STLB_prefetch_issued 0
Core_0_STLB_prefetch_useful 0
Core_0_STLB_prefetch_useless 0
Core_0_STLB_prefetch_late 0
Core_0_STLB_prefetch_accuracy 0
Core_0_STLB_prefetch_coverage 0

Core_0_L1I_total_access 9592949
Core_0_L1I_total_hit 9592949
Core_0_L1I_total_miss 0
Core_0_L1I_total_MPKI 0
Core_0_L1I_total_miss_rate 0
Core_0_L1I_demand_access 9592949
Core_0_L1I_demand_hit 9592949
Core_0_L1I_demand_miss 0
Core_0_L1I_demand_MPKI 0
Core_0_L1I_demand_miss_rate 0
Core_0_L1I_load_access 9592949
Core_0_L1I_load_hit 9592949
Core_0_L1I_load_miss 0
Core_0_L1I_load_MPKI 0
Core_0_L1I_load_miss_rate 0
Core_0_L1I_rfo_access 0
Core_0_L1I_rfo_hit 0
Core_0_L1I_rfo_miss 0
Core_0_L1I_rfo_MPKI 0
Core_0_L1I_rfo_miss_rate 0
Core_0_L1I_prefetch_access 0
Core_0_L1I_prefetch_hit 0
Core_0_L1I_prefetch_miss 0
Core_0_L1I_prefetch_MPKI 0
Core_0_L1I_prefetch_miss_rate 0
Core_0_L1I_writeback_access 0
Core_0_L1I_writeback_hit 0
Core_0_L1I_writeback_miss 0
Core_0_L1I_writeback_MPKI 0
Core_0_L1I_writeback_miss_rate 0
Core_0_L1I_prefetch_requested 0
Core_0_L1I_prefetch_issued 0
Core_0_L1I_prefetch_useful 0
Core_0_L1I_prefetch_useless 0
Core_0_L1I_prefetch_late 0
Core_0_L1I_prefetch_accuracy 0
Core_0_L1I_prefetch_coverage 0

Core_0_L1D_total_access 20773466
Core_0_L1D_total_hit 20134708
Core_0_L1D_total_miss 638758
Core_0_L1D_total_MPKI 12.7752
Core_0_L1D_total_miss_rate 0.0307487
Core_0_L1D_demand_access 12127347
Core_0_L1D_demand_hit 11911099
Core_0_L1D_demand_miss 216248
Core_0_L1D_demand_MPKI 4.32496
Core_0_L1D_demand_miss_rate 0.0178314
Core_0_L1D_load_access 12127347
Core_0_L1D_load_hit 11911099
Core_0_L1D_load_miss 216248
Core_0_L1D_load_MPKI 4.32496
Core_0_L1D_load_miss_rate 0.0178314
Core_0_L1D_rfo_access 0
Core_0_L1D_rfo_hit 0
Core_0_L1D_rfo_miss 0
Core_0_L1D_rfo_MPKI 0
Core_0_L1D_rfo_miss_rate 0
Core_0_L1D_prefetch_access 684190
Core_0_L1D_prefetch_hit 491819
Core_0_L1D_prefetch_miss 192371
Core_0_L1D_prefetch_MPKI 3.84742
Core_0_L1D_prefetch_miss_rate 0.281166
Core_0_L1D_writeback_access 7961929
Core_0_L1D_writeback_hit 7731790
Core_0_L1D_writeback_miss 230139
Core_0_L1D_writeback_MPKI 4.60278
Core_0_L1D_writeback_miss_rate 0.0289049
Core_0_L1D_prefetch_requested 907875
Core_0_L1D_prefetch_issued 684183
Core_0_L1D_prefetch_useful 127219
Core_0_L1D_prefetch_useless 59326
Core_0_L1D_prefetch_late 1102
Core_0_L1D_prefetch_accuracy 0.185943
Core_0_L1D_prefetch_coverage 0.370397

Core_0_L2C_total_access 2366027
Core_0_L2C_total_hit 2108737
Core_0_L2C_total_miss 257290
Core_0_L2C_total_MPKI 5.1458
Core_0_L2C_total_miss_rate 0.108743
Core_0_L2C_demand_access 288185
Core_0_L2C_demand_hit 214289
Core_0_L2C_demand_miss 73896
Core_0_L2C_demand_MPKI 1.47792
Core_0_L2C_demand_miss_rate 0.256419
Core_0_L2C_load_access 213936
Core_0_L2C_load_hit 210588
Core_0_L2C_load_miss 3348
Core_0_L2C_load_MPKI 0.06696
Core_0_L2C_load_miss_rate 0.0156495
Core_0_L2C_rfo_access 74249
Core_0_L2C_rfo_hit 3701
Core_0_L2C_rfo_miss 70548
Core_0_L2C_rfo_MPKI 1.41096
Core_0_L2C_rfo_miss_rate 0.950154
Core_0_L2C_prefetch_access 1996862
Core_0_L2C_prefetch_hit 1813506
Core_0_L2C_prefetch_miss 183356
Core_0_L2C_prefetch_MPKI 3.66712
Core_0_L2C_prefetch_miss_rate 0.0918221
Core_0_L2C_writeback_access 80980
Core_0_L2C_writeback_hit 80942
Core_0_L2C_writeback_miss 38
Core_0_L2C_writeback_MPKI 0.00076
Core_0_L2C_writeback_miss_rate 0.000469252
Core_0_L2C_prefetch_requested 1991811
Core_0_L2C_prefetch_issued 1810303
Core_0_L2C_prefetch_useful 169752
Core_0_L2C_prefetch_useless 1667
Core_0_L2C_prefetch_late 181
Core_0_L2C_prefetch_accuracy 0.0937699
Core_0_L2C_prefetch_coverage 0.69671

Core_0_LLC_total_access 322893
Core_0_LLC_total_hit 43628
Core_0_LLC_total_miss 279265
Core_0_LLC_total_MPKI 5.5853
Core_0_LLC_total_miss_rate 0.864884
Core_0_LLC_demand_access 73715
Core_0_LLC_demand_hit 1346
Core_0_LLC_demand_miss 72369
Core_0_LLC_demand_MPKI 1.44738
Core_0_LLC_demand_miss_rate 0.98174
Core_0_LLC_load_access 3167
Core_0_LLC_load_hit 426
Core_0_LLC_load_miss 2741
Core_0_LLC_load_MPKI 0.05482
Core_0_LLC_load_miss_rate 0.865488
Core_0_LLC_rfo_access 70548
Core_0_LLC_rfo_hit 920
Core_0_LLC_rfo_miss 69628
Core_0_LLC_rfo_MPKI 1.39256
Core_0_LLC_rfo_miss_rate 0.986959
Core_0_LLC_prefetch_access 177433
Core_0_LLC_prefetch_hit 29640
Core_0_LLC_prefetch_miss 147793
Core_0_LLC_prefetch_MPKI 2.95586
Core_0_LLC_prefetch_miss_rate 0.832951
Core_0_LLC_writeback_access 71745
Core_0_LLC_writeback_hit 12642
Core_0_LLC_writeback_miss 59103
Core_0_LLC_writeback_MPKI 1.18206
Core_0_LLC_writeback_miss_rate 0.823793
Core_0_LLC_prefetch_requested 0
Core_0_LLC_prefetch_issued 0
Core_0_LLC_prefetch_useful 0
Core_0_LLC_prefetch_useless 0
Core_0_LLC_prefetch_late 0
Core_0_LLC_prefetch_accuracy 0
Core_0_LLC_prefetch_coverage 0

[DRAM Statistics]
Channel_0_RQ_row_buffer_hit 3358
Channel_0_RQ_row_buffer_miss 217360
Channel_0_WQ_row_buffer_hit 9180
Channel_0_WQ_row_buffer_miss 57993
Channel_0_WQ_full 0
Channel_0_dbus_congested 612469
DRAM_total_RQ_row_buffer_hit 3358
DRAM_total_RQ_row_buffer_miss 217360
DRAM_total_WQ_row_buffer_hit 9180
DRAM_total_WQ_row_buffer_miss 57993
DRAM_total_WQ_full 0
DRAM_total_dbus_congested 612469
DRAM_avg_congested_cycle 7.92504

======STLB miss causes ========
Core_0_STLB_miss_cause_breakdown
Core_0_STLB_cause_Demand_Data_miss 461798
Core_0_STLB_cause_Demand_Data_miss_rate 0.336745
Core_0_STLB_cause_Demand_Instruction_miss 0
Core_0_STLB_cause_Demand_Instruction_miss_rate 0
Core_0_STLB_cause_L1D_Prefetch_miss 0
Core_0_STLB_cause_L1D_Prefetch_miss_rate 0
Core_0_STLB_cause_L1I_Prefetch_miss 0
Core_0_STLB_cause_L1I_Prefetch_miss_rate 0
Core_0_STLB_cause_Other_miss 0
Core_0_STLB_cause_Other_miss_rate 0
Core_0_STLB_Demand_miss 461798
Core_0_STLB_Demand_miss_rate 0.336745
Core_0_STLB_L1D_Prefetch_miss 0
Core_0_STLB_L1D_Prefetch_miss_rate 0
Core_0_STLB_Other_miss 0
Core_0_STLB_Other_miss_rate 0
