[VMEM] WARNING: physical memory size is smaller than virtual memory size.

*** ChampSim Multicore Out-of-Order Simulator ***
Warmup Instructions: 20000000
Simulation Instructions: 50000000
Number of CPUs: 1
Page size: 4096
STLB ideal mode: l1pref
Core 0: /data0/tzh/champsim_traces/SPEC06/473.astar-359B.champsimtrace.xz
 L1D Berti prefetcher
Off-chip DRAM Size: 16 GiB Channels: 1 Width: 64-bit Data Rate: 3205 MT/s
Warmup halting CPU 0 at instruction 20000005 cycle 6344070 for remainder of phase
Warmup finished CPU 0 instructions: 20000005 cycles: 6344070 cumulative IPC: 3.153 (Simulation time: 00 hr 01 min 28 sec)
Warmup complete CPU 0 instructions: 20000005 cycles: 6344070 cumulative IPC: 3.153 (Simulation time: 00 hr 01 min 28 sec)
Simulation finished CPU 0 instructions: 50000004 cycles: 224741947 cumulative IPC: 0.2225 (Simulation time: 00 hr 19 min 28 sec)
Simulation complete CPU 0 instructions: 50000004 cycles: 224741947 cumulative IPC: 0.2225 (Simulation time: 00 hr 19 min 28 sec)

ChampSim completed all CPUs

=== Simulation ===
CPU 0 runs /data0/tzh/champsim_traces/SPEC06/473.astar-359B.champsimtrace.xz

Region of Interest Statistics

CPU 0 cumulative IPC: 0.2225 instructions: 50000004 cycles: 224741947
CPU 0 Branch Prediction Accuracy: 93.2% MPKI: 13.43 Average ROB Occupancy at Mispredict: 44.98
Branch type MPKI
BRANCH_DIRECT_JUMP: 0
BRANCH_INDIRECT: 0
BRANCH_CONDITIONAL: 13.42
BRANCH_DIRECT_CALL: 0
BRANCH_INDIRECT_CALL: 0.00054
BRANCH_RETURN: 0

cpu0->cpu0_STLB TOTAL        ACCESS:    1674720 HIT:     878852 MISS:     795868 MSHR_MERGE:          0
cpu0->cpu0_STLB LOAD         ACCESS:    1674720 HIT:     878852 MISS:     795868 MSHR_MERGE:          0
cpu0->cpu0_STLB RFO          ACCESS:          0 HIT:          0 MISS:          0 MSHR_MERGE:          0
cpu0->cpu0_STLB PREFETCH     ACCESS:          0 HIT:          0 MISS:          0 MSHR_MERGE:          0
cpu0->cpu0_STLB WRITE        ACCESS:          0 HIT:          0 MISS:          0 MSHR_MERGE:          0
cpu0->cpu0_STLB TRANSLATION  ACCESS:          0 HIT:          0 MISS:          0 MSHR_MERGE:          0
cpu0->cpu0_STLB PREFETCH REQUESTED:          0 ISSUED:          0 USEFUL:          0 USELESS:          0 LATE:          0
cpu0->cpu0_STLB AVERAGE MISS LATENCY: 184.2 cycles
cpu0->cpu0_L2C TOTAL        ACCESS:    6984007 HIT:    3901834 MISS:    3082173 MSHR_MERGE:     277522
cpu0->cpu0_L2C LOAD         ACCESS:    1609441 HIT:     954199 MISS:     655242 MSHR_MERGE:      10644
cpu0->cpu0_L2C RFO          ACCESS:     765480 HIT:      47876 MISS:     717604 MSHR_MERGE:          0
cpu0->cpu0_L2C PREFETCH     ACCESS:    3000782 HIT:    1494638 MISS:    1506144 MSHR_MERGE:     266878
cpu0->cpu0_L2C WRITE        ACCESS:    1167809 HIT:    1167725 MISS:         84 MSHR_MERGE:          0
cpu0->cpu0_L2C TRANSLATION  ACCESS:     440495 HIT:     237396 MISS:     203099 MSHR_MERGE:          0
cpu0->cpu0_L2C PREFETCH REQUESTED:    2583457 ISSUED:    2556065 USEFUL:     370786 USELESS:     675510 LATE:      10644
cpu0->cpu0_L2C AVERAGE MISS LATENCY: 345.7 cycles
cpu0->cpu0_L1I TOTAL        ACCESS:     744252 HIT:     744245 MISS:          7 MSHR_MERGE:          0
cpu0->cpu0_L1I LOAD         ACCESS:     744252 HIT:     744245 MISS:          7 MSHR_MERGE:          0
cpu0->cpu0_L1I RFO          ACCESS:          0 HIT:          0 MISS:          0 MSHR_MERGE:          0
cpu0->cpu0_L1I PREFETCH     ACCESS:          0 HIT:          0 MISS:          0 MSHR_MERGE:          0
cpu0->cpu0_L1I WRITE        ACCESS:          0 HIT:          0 MISS:          0 MSHR_MERGE:          0
cpu0->cpu0_L1I TRANSLATION  ACCESS:          0 HIT:          0 MISS:          0 MSHR_MERGE:          0
cpu0->cpu0_L1I PREFETCH REQUESTED:          0 ISSUED:          0 USEFUL:          0 USELESS:          0 LATE:          0
cpu0->cpu0_L1I AVERAGE MISS LATENCY: 219.1 cycles
cpu0->cpu0_L1D TOTAL        ACCESS:   22120493 HIT:   18112330 MISS:    4008163 MSHR_MERGE:     748030
cpu0->cpu0_L1D LOAD         ACCESS:   13752657 HIT:   11508456 MISS:    2244201 MSHR_MERGE:     634767
cpu0->cpu0_L1D RFO          ACCESS:          0 HIT:          0 MISS:          0 MSHR_MERGE:          0
cpu0->cpu0_L1D PREFETCH     ACCESS:     574417 HIT:     106608 MISS:     467809 MSHR_MERGE:      23089
cpu0->cpu0_L1D WRITE        ACCESS:    6315217 HIT:    5549628 MISS:     765589 MSHR_MERGE:        105
cpu0->cpu0_L1D TRANSLATION  ACCESS:    1478202 HIT:     947638 MISS:     530564 MSHR_MERGE:      90069
cpu0->cpu0_L1D PREFETCH REQUESTED:     600978 ISSUED:     574425 USEFUL:     135428 USELESS:     309383 LATE:       7077
cpu0->cpu0_L1D AVERAGE MISS LATENCY: 202.2 cycles
cpu0->cpu0_ITLB TOTAL        ACCESS:     744165 HIT:     744165 MISS:          0 MSHR_MERGE:          0
cpu0->cpu0_ITLB LOAD         ACCESS:     744165 HIT:     744165 MISS:          0 MSHR_MERGE:          0
cpu0->cpu0_ITLB RFO          ACCESS:          0 HIT:          0 MISS:          0 MSHR_MERGE:          0
cpu0->cpu0_ITLB PREFETCH     ACCESS:          0 HIT:          0 MISS:          0 MSHR_MERGE:          0
cpu0->cpu0_ITLB WRITE        ACCESS:          0 HIT:          0 MISS:          0 MSHR_MERGE:          0
cpu0->cpu0_ITLB TRANSLATION  ACCESS:          0 HIT:          0 MISS:          0 MSHR_MERGE:          0
cpu0->cpu0_ITLB PREFETCH REQUESTED:          0 ISSUED:          0 USEFUL:          0 USELESS:          0 LATE:          0
cpu0->cpu0_ITLB AVERAGE MISS LATENCY: - cycles
cpu0->cpu0_DTLB TOTAL        ACCESS:   20033625 HIT:   17655751 MISS:    2377874 MSHR_MERGE:     703155
cpu0->cpu0_DTLB LOAD         ACCESS:   20033625 HIT:   17655751 MISS:    2377874 MSHR_MERGE:     703155
cpu0->cpu0_DTLB RFO          ACCESS:          0 HIT:          0 MISS:          0 MSHR_MERGE:          0
cpu0->cpu0_DTLB PREFETCH     ACCESS:          0 HIT:          0 MISS:          0 MSHR_MERGE:          0
cpu0->cpu0_DTLB WRITE        ACCESS:          0 HIT:          0 MISS:          0 MSHR_MERGE:          0
cpu0->cpu0_DTLB TRANSLATION  ACCESS:          0 HIT:          0 MISS:          0 MSHR_MERGE:          0
cpu0->cpu0_DTLB PREFETCH REQUESTED:          0 ISSUED:          0 USEFUL:          0 USELESS:          0 LATE:          0
cpu0->cpu0_DTLB AVERAGE MISS LATENCY: 93.01 cycles
cpu0->LLC TOTAL        ACCESS:    3919320 HIT:     680762 MISS:    3238558 MSHR_MERGE:          0
cpu0->LLC LOAD         ACCESS:     644598 HIT:      63722 MISS:     580876 MSHR_MERGE:          0
cpu0->LLC RFO          ACCESS:     717602 HIT:      96448 MISS:     621154 MSHR_MERGE:          0
cpu0->LLC PREFETCH     ACCESS:    1239265 HIT:      59414 MISS:    1179851 MSHR_MERGE:          0
cpu0->LLC WRITE        ACCESS:    1114756 HIT:     334893 MISS:     779863 MSHR_MERGE:          0
cpu0->LLC TRANSLATION  ACCESS:     203099 HIT:     126285 MISS:      76814 MSHR_MERGE:          0
cpu0->LLC PREFETCH REQUESTED:          0 ISSUED:          0 USEFUL:          0 USELESS:          0 LATE:          0
cpu0->LLC AVERAGE MISS LATENCY: 254.3 cycles

DRAM Statistics

Channel 0 RQ ROW_BUFFER_HIT:      65159
  ROW_BUFFER_MISS:    2393115
  AVG DBUS CONGESTED CYCLE: 13.21
Channel 0 WQ ROW_BUFFER_HIT:     229607
  ROW_BUFFER_MISS:     752854
  FULL:        801
Channel 0 REFRESHES ISSUED:      18729

[ROI Statistics]
[System Configuration]
num_cpus 1
cpu_freq 4000
fetch_width 6
decode_width 6
dispatch_width 6
execute_width 6
lq_width 2
sq_width 2
retire_width 6
scheduler_size 128
branch_mispredict_penalty 15
rob_size 352
lq_size 128
sq_size 72
ifetch_buffer_size 64
decode_buffer_size 32
dispatch_buffer_size 32
register_file_size 288
decode_latency 1
dispatch_latency 1
schedule_latency 1
execute_latency 1
page_size 4096
block_size 64
core_0_itlb_set 16
core_0_itlb_way 4
core_0_itlb_rq_size 16
core_0_itlb_wq_size 16
core_0_itlb_pq_size 0
core_0_itlb_mshr_size 8
core_0_itlb_hit_latency 1
core_0_itlb_fill_latency 1
core_0_itlb_max_tag_check 2
core_0_itlb_max_fill 2
core_0_dtlb_set 16
core_0_dtlb_way 4
core_0_dtlb_rq_size 16
core_0_dtlb_wq_size 16
core_0_dtlb_pq_size 0
core_0_dtlb_mshr_size 8
core_0_dtlb_hit_latency 1
core_0_dtlb_fill_latency 1
core_0_dtlb_max_tag_check 2
core_0_dtlb_max_fill 2
core_0_stlb_set 128
core_0_stlb_way 12
core_0_stlb_rq_size 32
core_0_stlb_wq_size 32
core_0_stlb_pq_size 0
core_0_stlb_mshr_size 16
core_0_stlb_hit_latency 4
core_0_stlb_fill_latency 4
core_0_stlb_max_tag_check 1
core_0_stlb_max_fill 1
core_0_l1i_set 64
core_0_l1i_way 8
core_0_l1i_rq_size 64
core_0_l1i_wq_size 64
core_0_l1i_pq_size 32
core_0_l1i_mshr_size 8
core_0_l1i_hit_latency 2
core_0_l1i_fill_latency 2
core_0_l1i_max_tag_check 2
core_0_l1i_max_fill 2
core_0_l1d_set 64
core_0_l1d_way 12
core_0_l1d_rq_size 64
core_0_l1d_wq_size 64
core_0_l1d_pq_size 8
core_0_l1d_mshr_size 16
core_0_l1d_hit_latency 2
core_0_l1d_fill_latency 3
core_0_l1d_max_tag_check 2
core_0_l1d_max_fill 2
core_0_l2c_set 1024
core_0_l2c_way 8
core_0_l2c_rq_size 32
core_0_l2c_wq_size 32
core_0_l2c_pq_size 16
core_0_l2c_mshr_size 32
core_0_l2c_hit_latency 5
core_0_l2c_fill_latency 5
core_0_l2c_max_tag_check 1
core_0_l2c_max_fill 1
llc_set 2048
llc_way 16
llc_rq_size 32
llc_wq_size 32
llc_pq_size 32
llc_mshr_size 64
llc_hit_latency 10
llc_fill_latency 10
llc_max_tag_check 1
llc_max_fill 1
dram_channels 1
dram_ranks 1
dram_bankgroups 8
dram_banks 4
dram_rows 65536
dram_columns 1024
dram_channel_width 8
dram_rq_size 64
dram_wq_size 64
dram_size 17179869184
core_0_itlb_prefetcher no
core_0_dtlb_prefetcher no
core_0_stlb_prefetcher no
core_0_l1i_prefetcher next_line
core_0_l1d_prefetcher berti
core_0_l2c_prefetcher pythia
llc_prefetcher no
llc_replacement drrip

Core_0_instructions 50000004
Core_0_cycles 224741947
Core_0_IPC 0.222477
Core_0_branch_prediction_accuracy 93.1958
Core_0_branch_MPKI 13.4253
Core_0_average_ROB_occupancy_at_mispredict 44.9824

Core_0_ITLB_total_access 744165
Core_0_ITLB_total_hit 744165
Core_0_ITLB_total_miss 0
Core_0_ITLB_total_MPKI 0
Core_0_ITLB_total_miss_rate 0
Core_0_ITLB_demand_access 744165
Core_0_ITLB_demand_hit 744165
Core_0_ITLB_demand_miss 0
Core_0_ITLB_demand_MPKI 0
Core_0_ITLB_demand_miss_rate 0
Core_0_ITLB_load_access 744165
Core_0_ITLB_load_hit 744165
Core_0_ITLB_load_miss 0
Core_0_ITLB_load_MPKI 0
Core_0_ITLB_load_miss_rate 0
Core_0_ITLB_rfo_access 0
Core_0_ITLB_rfo_hit 0
Core_0_ITLB_rfo_miss 0
Core_0_ITLB_rfo_MPKI 0
Core_0_ITLB_rfo_miss_rate 0
Core_0_ITLB_prefetch_access 0
Core_0_ITLB_prefetch_hit 0
Core_0_ITLB_prefetch_miss 0
Core_0_ITLB_prefetch_MPKI 0
Core_0_ITLB_prefetch_miss_rate 0
Core_0_ITLB_writeback_access 0
Core_0_ITLB_writeback_hit 0
Core_0_ITLB_writeback_miss 0
Core_0_ITLB_writeback_MPKI 0
Core_0_ITLB_writeback_miss_rate 0
Core_0_ITLB_prefetch_requested 0
Core_0_ITLB_prefetch_issued 0
Core_0_ITLB_prefetch_useful 0
Core_0_ITLB_prefetch_useless 0
Core_0_ITLB_prefetch_late 0
Core_0_ITLB_prefetch_accuracy 0
Core_0_ITLB_prefetch_coverage 0

Core_0_DTLB_total_access 20033625
Core_0_DTLB_total_hit 17655751
Core_0_DTLB_total_miss 2377874
Core_0_DTLB_total_MPKI 47.5575
Core_0_DTLB_total_miss_rate 0.118694
Core_0_DTLB_demand_access 20033625
Core_0_DTLB_demand_hit 17655751
Core_0_DTLB_demand_miss 2377874
Core_0_DTLB_demand_MPKI 47.5575
Core_0_DTLB_demand_miss_rate 0.118694
Core_0_DTLB_load_access 20033625
Core_0_DTLB_load_hit 17655751
Core_0_DTLB_load_miss 2377874
Core_0_DTLB_load_MPKI 47.5575
Core_0_DTLB_load_miss_rate 0.118694
Core_0_DTLB_rfo_access 0
Core_0_DTLB_rfo_hit 0
Core_0_DTLB_rfo_miss 0
Core_0_DTLB_rfo_MPKI 0
Core_0_DTLB_rfo_miss_rate 0
Core_0_DTLB_prefetch_access 0
Core_0_DTLB_prefetch_hit 0
Core_0_DTLB_prefetch_miss 0
Core_0_DTLB_prefetch_MPKI 0
Core_0_DTLB_prefetch_miss_rate 0
Core_0_DTLB_writeback_access 0
Core_0_DTLB_writeback_hit 0
Core_0_DTLB_writeback_miss 0
Core_0_DTLB_writeback_MPKI 0
Core_0_DTLB_writeback_miss_rate 0
Core_0_DTLB_prefetch_requested 0
Core_0_DTLB_prefetch_issued 0
Core_0_DTLB_prefetch_useful 0
Core_0_DTLB_prefetch_useless 0
Core_0_DTLB_prefetch_late 0
Core_0_DTLB_prefetch_accuracy 0
Core_0_DTLB_prefetch_coverage 0

Core_0_STLB_total_access 1674720
Core_0_STLB_total_hit 878852
Core_0_STLB_total_miss 795868
Core_0_STLB_total_MPKI 15.9174
Core_0_STLB_total_miss_rate 0.475225
Core_0_STLB_demand_access 1674720
Core_0_STLB_demand_hit 878852
Core_0_STLB_demand_miss 795868
Core_0_STLB_demand_MPKI 15.9174
Core_0_STLB_demand_miss_rate 0.475225
Core_0_STLB_load_access 1674720
Core_0_STLB_load_hit 878852
Core_0_STLB_load_miss 795868
Core_0_STLB_load_MPKI 15.9174
Core_0_STLB_load_miss_rate 0.475225
Core_0_STLB_rfo_access 0
Core_0_STLB_rfo_hit 0
Core_0_STLB_rfo_miss 0
Core_0_STLB_rfo_MPKI 0
Core_0_STLB_rfo_miss_rate 0
Core_0_STLB_prefetch_access 0
Core_0_STLB_prefetch_hit 0
Core_0_STLB_prefetch_miss 0
Core_0_STLB_prefetch_MPKI 0
Core_0_STLB_prefetch_miss_rate 0
Core_0_STLB_writeback_access 0
Core_0_STLB_writeback_hit 0
Core_0_STLB_writeback_miss 0
Core_0_STLB_writeback_MPKI 0
Core_0_STLB_writeback_miss_rate 0
Core_0_STLB_prefetch_requested 0
Core_0_STLB_prefetch_issued 0
Core_0_STLB_prefetch_useful 0
Core_0_STLB_prefetch_useless 0
Core_0_STLB_prefetch_late 0
Core_0_STLB_prefetch_accuracy 0
Core_0_STLB_prefetch_coverage 0

Core_0_L1I_total_access 744252
Core_0_L1I_total_hit 744245
Core_0_L1I_total_miss 7
Core_0_L1I_total_MPKI 0.00014
Core_0_L1I_total_miss_rate 9.40542e-06
Core_0_L1I_demand_access 744252
Core_0_L1I_demand_hit 744245
Core_0_L1I_demand_miss 7
Core_0_L1I_demand_MPKI 0.00014
Core_0_L1I_demand_miss_rate 9.40542e-06
Core_0_L1I_load_access 744252
Core_0_L1I_load_hit 744245
Core_0_L1I_load_miss 7
Core_0_L1I_load_MPKI 0.00014
Core_0_L1I_load_miss_rate 9.40542e-06
Core_0_L1I_rfo_access 0
Core_0_L1I_rfo_hit 0
Core_0_L1I_rfo_miss 0
Core_0_L1I_rfo_MPKI 0
Core_0_L1I_rfo_miss_rate 0
Core_0_L1I_prefetch_access 0
Core_0_L1I_prefetch_hit 0
Core_0_L1I_prefetch_miss 0
Core_0_L1I_prefetch_MPKI 0
Core_0_L1I_prefetch_miss_rate 0
Core_0_L1I_writeback_access 0
Core_0_L1I_writeback_hit 0
Core_0_L1I_writeback_miss 0
Core_0_L1I_writeback_MPKI 0
Core_0_L1I_writeback_miss_rate 0
Core_0_L1I_prefetch_requested 0
Core_0_L1I_prefetch_issued 0
Core_0_L1I_prefetch_useful 0
Core_0_L1I_prefetch_useless 0
Core_0_L1I_prefetch_late 0
Core_0_L1I_prefetch_accuracy 0
Core_0_L1I_prefetch_coverage 0

Core_0_L1D_total_access 20642291
Core_0_L1D_total_hit 17164692
Core_0_L1D_total_miss 3477599
Core_0_L1D_total_MPKI 69.552
Core_0_L1D_total_miss_rate 0.16847
Core_0_L1D_demand_access 13752657
Core_0_L1D_demand_hit 11508456
Core_0_L1D_demand_miss 2244201
Core_0_L1D_demand_MPKI 44.884
Core_0_L1D_demand_miss_rate 0.163183
Core_0_L1D_load_access 13752657
Core_0_L1D_load_hit 11508456
Core_0_L1D_load_miss 2244201
Core_0_L1D_load_MPKI 44.884
Core_0_L1D_load_miss_rate 0.163183
Core_0_L1D_rfo_access 0
Core_0_L1D_rfo_hit 0
Core_0_L1D_rfo_miss 0
Core_0_L1D_rfo_MPKI 0
Core_0_L1D_rfo_miss_rate 0
Core_0_L1D_prefetch_access 574417
Core_0_L1D_prefetch_hit 106608
Core_0_L1D_prefetch_miss 467809
Core_0_L1D_prefetch_MPKI 9.35618
Core_0_L1D_prefetch_miss_rate 0.814407
Core_0_L1D_writeback_access 6315217
Core_0_L1D_writeback_hit 5549628
Core_0_L1D_writeback_miss 765589
Core_0_L1D_writeback_MPKI 15.3118
Core_0_L1D_writeback_miss_rate 0.121229
Core_0_L1D_prefetch_requested 600978
Core_0_L1D_prefetch_issued 574425
Core_0_L1D_prefetch_useful 135428
Core_0_L1D_prefetch_useless 309383
Core_0_L1D_prefetch_late 7077
Core_0_L1D_prefetch_accuracy 0.235763
Core_0_L1D_prefetch_coverage 0.0569114

Core_0_L2C_total_access 6543512
Core_0_L2C_total_hit 3664438
Core_0_L2C_total_miss 2879074
Core_0_L2C_total_MPKI 57.5815
Core_0_L2C_total_miss_rate 0.439989
Core_0_L2C_demand_access 2374921
Core_0_L2C_demand_hit 1002075
Core_0_L2C_demand_miss 1372846
Core_0_L2C_demand_MPKI 27.4569
Core_0_L2C_demand_miss_rate 0.57806
Core_0_L2C_load_access 1609441
Core_0_L2C_load_hit 954199
Core_0_L2C_load_miss 655242
Core_0_L2C_load_MPKI 13.1048
Core_0_L2C_load_miss_rate 0.407124
Core_0_L2C_rfo_access 765480
Core_0_L2C_rfo_hit 47876
Core_0_L2C_rfo_miss 717604
Core_0_L2C_rfo_MPKI 14.3521
Core_0_L2C_rfo_miss_rate 0.937456
Core_0_L2C_prefetch_access 3000782
Core_0_L2C_prefetch_hit 1494638
Core_0_L2C_prefetch_miss 1506144
Core_0_L2C_prefetch_MPKI 30.1229
Core_0_L2C_prefetch_miss_rate 0.501917
Core_0_L2C_writeback_access 1167809
Core_0_L2C_writeback_hit 1167725
Core_0_L2C_writeback_miss 84
Core_0_L2C_writeback_MPKI 0.00168
Core_0_L2C_writeback_miss_rate 7.19296e-05
Core_0_L2C_prefetch_requested 2583457
Core_0_L2C_prefetch_issued 2556065
Core_0_L2C_prefetch_useful 370786
Core_0_L2C_prefetch_useless 675510
Core_0_L2C_prefetch_late 10644
Core_0_L2C_prefetch_accuracy 0.145061
Core_0_L2C_prefetch_coverage 0.212652

Core_0_LLC_total_access 3716221
Core_0_LLC_total_hit 554477
Core_0_LLC_total_miss 3161744
Core_0_LLC_total_MPKI 63.2349
Core_0_LLC_total_miss_rate 0.850795
Core_0_LLC_demand_access 1362200
Core_0_LLC_demand_hit 160170
Core_0_LLC_demand_miss 1202030
Core_0_LLC_demand_MPKI 24.0406
Core_0_LLC_demand_miss_rate 0.882418
Core_0_LLC_load_access 644598
Core_0_LLC_load_hit 63722
Core_0_LLC_load_miss 580876
Core_0_LLC_load_MPKI 11.6175
Core_0_LLC_load_miss_rate 0.901145
Core_0_LLC_rfo_access 717602
Core_0_LLC_rfo_hit 96448
Core_0_LLC_rfo_miss 621154
Core_0_LLC_rfo_MPKI 12.4231
Core_0_LLC_rfo_miss_rate 0.865597
Core_0_LLC_prefetch_access 1239265
Core_0_LLC_prefetch_hit 59414
Core_0_LLC_prefetch_miss 1179851
Core_0_LLC_prefetch_MPKI 23.597
Core_0_LLC_prefetch_miss_rate 0.952057
Core_0_LLC_writeback_access 1114756
Core_0_LLC_writeback_hit 334893
Core_0_LLC_writeback_miss 779863
Core_0_LLC_writeback_MPKI 15.5973
Core_0_LLC_writeback_miss_rate 0.699582
Core_0_LLC_prefetch_requested 0
Core_0_LLC_prefetch_issued 0
Core_0_LLC_prefetch_useful 0
Core_0_LLC_prefetch_useless 0
Core_0_LLC_prefetch_late 0
Core_0_LLC_prefetch_accuracy 0
Core_0_LLC_prefetch_coverage 0

[DRAM Statistics]
Channel_0_RQ_row_buffer_hit 65159
Channel_0_RQ_row_buffer_miss 2393115
Channel_0_WQ_row_buffer_hit 229607
Channel_0_WQ_row_buffer_miss 752854
Channel_0_WQ_full 801
Channel_0_dbus_congested 11887463
DRAM_total_RQ_row_buffer_hit 65159
DRAM_total_RQ_row_buffer_miss 2393115
DRAM_total_WQ_row_buffer_hit 229607
DRAM_total_WQ_row_buffer_miss 752854
DRAM_total_WQ_full 801
DRAM_total_dbus_congested 11887463
DRAM_avg_congested_cycle 13.2073

======STLB miss causes ========
Core_0_STLB_miss_cause_breakdown
Core_0_STLB_cause_Demand_Data_miss 795868
Core_0_STLB_cause_Demand_Data_miss_rate 0.475225
Core_0_STLB_cause_Demand_Instruction_miss 0
Core_0_STLB_cause_Demand_Instruction_miss_rate 0
Core_0_STLB_cause_L1D_Prefetch_miss 0
Core_0_STLB_cause_L1D_Prefetch_miss_rate 0
Core_0_STLB_cause_L1I_Prefetch_miss 0
Core_0_STLB_cause_L1I_Prefetch_miss_rate 0
Core_0_STLB_cause_Other_miss 0
Core_0_STLB_cause_Other_miss_rate 0
Core_0_STLB_Demand_miss 795868
Core_0_STLB_Demand_miss_rate 0.475225
Core_0_STLB_L1D_Prefetch_miss 0
Core_0_STLB_L1D_Prefetch_miss_rate 0
Core_0_STLB_Other_miss 0
Core_0_STLB_Other_miss_rate 0
