[VMEM] WARNING: physical memory size is smaller than virtual memory size.

*** ChampSim Multicore Out-of-Order Simulator ***
Warmup Instructions: 20000000
Simulation Instructions: 50000000
Number of CPUs: 1
Page size: 4096
STLB ideal mode: l1pref
Core 0: /data0/tzh/champsim_traces/SPEC06/473.astar-42B.champsimtrace.xz
 L1D Berti prefetcher
Off-chip DRAM Size: 16 GiB Channels: 1 Width: 64-bit Data Rate: 3205 MT/s
Warmup halting CPU 0 at instruction 20000001 cycle 4293063 for remainder of phase
Warmup finished CPU 0 instructions: 20000001 cycles: 4293063 cumulative IPC: 4.659 (Simulation time: 00 hr 01 min 02 sec)
Warmup complete CPU 0 instructions: 20000001 cycles: 4293063 cumulative IPC: 4.659 (Simulation time: 00 hr 01 min 02 sec)
Simulation finished CPU 0 instructions: 50000001 cycles: 88898931 cumulative IPC: 0.5624 (Simulation time: 00 hr 08 min 00 sec)
Simulation complete CPU 0 instructions: 50000001 cycles: 88898931 cumulative IPC: 0.5624 (Simulation time: 00 hr 08 min 00 sec)

ChampSim completed all CPUs

=== Simulation ===
CPU 0 runs /data0/tzh/champsim_traces/SPEC06/473.astar-42B.champsimtrace.xz

Region of Interest Statistics

CPU 0 cumulative IPC: 0.5624 instructions: 50000001 cycles: 88898931
CPU 0 Branch Prediction Accuracy: 84.39% MPKI: 29.44 Average ROB Occupancy at Mispredict: 16.35
Branch type MPKI
BRANCH_DIRECT_JUMP: 0.00048
BRANCH_INDIRECT: 0
BRANCH_CONDITIONAL: 29.43
BRANCH_DIRECT_CALL: 0.00036
BRANCH_INDIRECT_CALL: 0
BRANCH_RETURN: 0.00044

cpu0->cpu0_STLB TOTAL        ACCESS:    1186107 HIT:    1077963 MISS:     108144 MSHR_MERGE:          0
cpu0->cpu0_STLB LOAD         ACCESS:    1186107 HIT:    1077963 MISS:     108144 MSHR_MERGE:          0
cpu0->cpu0_STLB RFO          ACCESS:          0 HIT:          0 MISS:          0 MSHR_MERGE:          0
cpu0->cpu0_STLB PREFETCH     ACCESS:          0 HIT:          0 MISS:          0 MSHR_MERGE:          0
cpu0->cpu0_STLB WRITE        ACCESS:          0 HIT:          0 MISS:          0 MSHR_MERGE:          0
cpu0->cpu0_STLB TRANSLATION  ACCESS:          0 HIT:          0 MISS:          0 MSHR_MERGE:          0
cpu0->cpu0_STLB PREFETCH REQUESTED:          0 ISSUED:          0 USEFUL:          0 USELESS:          0 LATE:          0
cpu0->cpu0_STLB AVERAGE MISS LATENCY: 19.88 cycles
cpu0->cpu0_L2C TOTAL        ACCESS:    3339539 HIT:    2209139 MISS:    1130400 MSHR_MERGE:      58675
cpu0->cpu0_L2C LOAD         ACCESS:    1316728 HIT:     803363 MISS:     513365 MSHR_MERGE:        708
cpu0->cpu0_L2C RFO          ACCESS:      12783 HIT:      10203 MISS:       2580 MSHR_MERGE:          0
cpu0->cpu0_L2C PREFETCH     ACCESS:    1536641 HIT:     929894 MISS:     606747 MSHR_MERGE:      57967
cpu0->cpu0_L2C WRITE        ACCESS:     458073 HIT:     455524 MISS:       2549 MSHR_MERGE:          0
cpu0->cpu0_L2C TRANSLATION  ACCESS:      15314 HIT:      10155 MISS:       5159 MSHR_MERGE:          0
cpu0->cpu0_L2C PREFETCH REQUESTED:    1391076 ISSUED:    1391075 USEFUL:      68141 USELESS:     432652 LATE:        708
cpu0->cpu0_L2C AVERAGE MISS LATENCY: 50.05 cycles
cpu0->cpu0_L1I TOTAL        ACCESS:      10417 HIT:      10291 MISS:        126 MSHR_MERGE:         21
cpu0->cpu0_L1I LOAD         ACCESS:      10417 HIT:      10291 MISS:        126 MSHR_MERGE:         21
cpu0->cpu0_L1I RFO          ACCESS:          0 HIT:          0 MISS:          0 MSHR_MERGE:          0
cpu0->cpu0_L1I PREFETCH     ACCESS:          0 HIT:          0 MISS:          0 MSHR_MERGE:          0
cpu0->cpu0_L1I WRITE        ACCESS:          0 HIT:          0 MISS:          0 MSHR_MERGE:          0
cpu0->cpu0_L1I TRANSLATION  ACCESS:          0 HIT:          0 MISS:          0 MSHR_MERGE:          0
cpu0->cpu0_L1I PREFETCH REQUESTED:          0 ISSUED:          0 USEFUL:          0 USELESS:          0 LATE:          0
cpu0->cpu0_L1I AVERAGE MISS LATENCY: 210.4 cycles
cpu0->cpu0_L1D TOTAL        ACCESS:   15132246 HIT:   13078980 MISS:    2053266 MSHR_MERGE:     562922
cpu0->cpu0_L1D LOAD         ACCESS:   12525763 HIT:   10667541 MISS:    1858222 MSHR_MERGE:     541586
cpu0->cpu0_L1D RFO          ACCESS:          0 HIT:          0 MISS:          0 MSHR_MERGE:          0
cpu0->cpu0_L1D PREFETCH     ACCESS:     261540 HIT:      97629 MISS:     163911 MSHR_MERGE:      18332
cpu0->cpu0_L1D WRITE        ACCESS:    2130778 HIT:    2116102 MISS:      14676 MSHR_MERGE:       1861
cpu0->cpu0_L1D TRANSLATION  ACCESS:     214165 HIT:     197708 MISS:      16457 MSHR_MERGE:       1143
cpu0->cpu0_L1D PREFETCH REQUESTED:     261540 ISSUED:     261540 USEFUL:      61712 USELESS:      83823 LATE:        488
cpu0->cpu0_L1D AVERAGE MISS LATENCY: 27.92 cycles
cpu0->cpu0_ITLB TOTAL        ACCESS:       9184 HIT:       9169 MISS:         15 MSHR_MERGE:          7
cpu0->cpu0_ITLB LOAD         ACCESS:       9184 HIT:       9169 MISS:         15 MSHR_MERGE:          7
cpu0->cpu0_ITLB RFO          ACCESS:          0 HIT:          0 MISS:          0 MSHR_MERGE:          0
cpu0->cpu0_ITLB PREFETCH     ACCESS:          0 HIT:          0 MISS:          0 MSHR_MERGE:          0
cpu0->cpu0_ITLB WRITE        ACCESS:          0 HIT:          0 MISS:          0 MSHR_MERGE:          0
cpu0->cpu0_ITLB TRANSLATION  ACCESS:          0 HIT:          0 MISS:          0 MSHR_MERGE:          0
cpu0->cpu0_ITLB PREFETCH REQUESTED:          0 ISSUED:          0 USEFUL:          0 USELESS:          0 LATE:          0
cpu0->cpu0_ITLB AVERAGE MISS LATENCY: 324.4 cycles
cpu0->cpu0_DTLB TOTAL        ACCESS:   14574244 HIT:   13034036 MISS:    1540208 MSHR_MERGE:     354110
cpu0->cpu0_DTLB LOAD         ACCESS:   14574244 HIT:   13034036 MISS:    1540208 MSHR_MERGE:     354110
cpu0->cpu0_DTLB RFO          ACCESS:          0 HIT:          0 MISS:          0 MSHR_MERGE:          0
cpu0->cpu0_DTLB PREFETCH     ACCESS:          0 HIT:          0 MISS:          0 MSHR_MERGE:          0
cpu0->cpu0_DTLB WRITE        ACCESS:          0 HIT:          0 MISS:          0 MSHR_MERGE:          0
cpu0->cpu0_DTLB TRANSLATION  ACCESS:          0 HIT:          0 MISS:          0 MSHR_MERGE:          0
cpu0->cpu0_DTLB PREFETCH REQUESTED:          0 ISSUED:          0 USEFUL:          0 USELESS:          0 LATE:          0
cpu0->cpu0_DTLB AVERAGE MISS LATENCY: 6.902 cycles
cpu0->LLC TOTAL        ACCESS:    1280049 HIT:    1019280 MISS:     260769 MSHR_MERGE:          0
cpu0->LLC LOAD         ACCESS:     512633 HIT:     415728 MISS:      96905 MSHR_MERGE:          0
cpu0->LLC RFO          ACCESS:       2580 HIT:       2369 MISS:        211 MSHR_MERGE:          0
cpu0->LLC PREFETCH     ACCESS:     548778 HIT:     399175 MISS:     149603 MSHR_MERGE:          0
cpu0->LLC WRITE        ACCESS:     210899 HIT:     198196 MISS:      12703 MSHR_MERGE:          0
cpu0->LLC TRANSLATION  ACCESS:       5159 HIT:       3812 MISS:       1347 MSHR_MERGE:          0
cpu0->LLC PREFETCH REQUESTED:          0 ISSUED:          0 USEFUL:          0 USELESS:          0 LATE:          0
cpu0->LLC AVERAGE MISS LATENCY: 164.8 cycles

DRAM Statistics

Channel 0 RQ ROW_BUFFER_HIT:        511
  ROW_BUFFER_MISS:     247245
  AVG DBUS CONGESTED CYCLE: 15.55
Channel 0 WQ ROW_BUFFER_HIT:      10609
  ROW_BUFFER_MISS:      64336
  FULL:          0
Channel 0 REFRESHES ISSUED:       7408

[ROI Statistics]
[System Configuration]
num_cpus 1
cpu_freq 4000
fetch_width 6
decode_width 6
dispatch_width 6
execute_width 6
lq_width 2
sq_width 2
retire_width 6
scheduler_size 128
branch_mispredict_penalty 15
rob_size 352
lq_size 128
sq_size 72
ifetch_buffer_size 64
decode_buffer_size 32
dispatch_buffer_size 32
register_file_size 288
decode_latency 1
dispatch_latency 1
schedule_latency 1
execute_latency 1
page_size 4096
block_size 64
core_0_itlb_set 16
core_0_itlb_way 4
core_0_itlb_rq_size 16
core_0_itlb_wq_size 16
core_0_itlb_pq_size 0
core_0_itlb_mshr_size 8
core_0_itlb_hit_latency 1
core_0_itlb_fill_latency 1
core_0_itlb_max_tag_check 2
core_0_itlb_max_fill 2
core_0_dtlb_set 16
core_0_dtlb_way 4
core_0_dtlb_rq_size 16
core_0_dtlb_wq_size 16
core_0_dtlb_pq_size 0
core_0_dtlb_mshr_size 8
core_0_dtlb_hit_latency 1
core_0_dtlb_fill_latency 1
core_0_dtlb_max_tag_check 2
core_0_dtlb_max_fill 2
core_0_stlb_set 128
core_0_stlb_way 12
core_0_stlb_rq_size 32
core_0_stlb_wq_size 32
core_0_stlb_pq_size 0
core_0_stlb_mshr_size 16
core_0_stlb_hit_latency 4
core_0_stlb_fill_latency 4
core_0_stlb_max_tag_check 1
core_0_stlb_max_fill 1
core_0_l1i_set 64
core_0_l1i_way 8
core_0_l1i_rq_size 64
core_0_l1i_wq_size 64
core_0_l1i_pq_size 32
core_0_l1i_mshr_size 8
core_0_l1i_hit_latency 2
core_0_l1i_fill_latency 2
core_0_l1i_max_tag_check 2
core_0_l1i_max_fill 2
core_0_l1d_set 64
core_0_l1d_way 12
core_0_l1d_rq_size 64
core_0_l1d_wq_size 64
core_0_l1d_pq_size 8
core_0_l1d_mshr_size 16
core_0_l1d_hit_latency 2
core_0_l1d_fill_latency 3
core_0_l1d_max_tag_check 2
core_0_l1d_max_fill 2
core_0_l2c_set 1024
core_0_l2c_way 8
core_0_l2c_rq_size 32
core_0_l2c_wq_size 32
core_0_l2c_pq_size 16
core_0_l2c_mshr_size 32
core_0_l2c_hit_latency 5
core_0_l2c_fill_latency 5
core_0_l2c_max_tag_check 1
core_0_l2c_max_fill 1
llc_set 2048
llc_way 16
llc_rq_size 32
llc_wq_size 32
llc_pq_size 32
llc_mshr_size 64
llc_hit_latency 10
llc_fill_latency 10
llc_max_tag_check 1
llc_max_fill 1
dram_channels 1
dram_ranks 1
dram_bankgroups 8
dram_banks 4
dram_rows 65536
dram_columns 1024
dram_channel_width 8
dram_rq_size 64
dram_wq_size 64
dram_size 17179869184
core_0_itlb_prefetcher no
core_0_dtlb_prefetcher no
core_0_stlb_prefetcher no
core_0_l1i_prefetcher next_line
core_0_l1d_prefetcher berti
core_0_l2c_prefetcher pythia
llc_prefetcher no
llc_replacement drrip

Core_0_instructions 50000001
Core_0_cycles 88898931
Core_0_IPC 0.562436
Core_0_branch_prediction_accuracy 84.3885
Core_0_branch_MPKI 29.4355
Core_0_average_ROB_occupancy_at_mispredict 16.3504

Core_0_ITLB_total_access 9184
Core_0_ITLB_total_hit 9169
Core_0_ITLB_total_miss 15
Core_0_ITLB_total_MPKI 0.0003
Core_0_ITLB_total_miss_rate 0.00163328
Core_0_ITLB_demand_access 9184
Core_0_ITLB_demand_hit 9169
Core_0_ITLB_demand_miss 15
Core_0_ITLB_demand_MPKI 0.0003
Core_0_ITLB_demand_miss_rate 0.00163328
Core_0_ITLB_load_access 9184
Core_0_ITLB_load_hit 9169
Core_0_ITLB_load_miss 15
Core_0_ITLB_load_MPKI 0.0003
Core_0_ITLB_load_miss_rate 0.00163328
Core_0_ITLB_rfo_access 0
Core_0_ITLB_rfo_hit 0
Core_0_ITLB_rfo_miss 0
Core_0_ITLB_rfo_MPKI 0
Core_0_ITLB_rfo_miss_rate 0
Core_0_ITLB_prefetch_access 0
Core_0_ITLB_prefetch_hit 0
Core_0_ITLB_prefetch_miss 0
Core_0_ITLB_prefetch_MPKI 0
Core_0_ITLB_prefetch_miss_rate 0
Core_0_ITLB_writeback_access 0
Core_0_ITLB_writeback_hit 0
Core_0_ITLB_writeback_miss 0
Core_0_ITLB_writeback_MPKI 0
Core_0_ITLB_writeback_miss_rate 0
Core_0_ITLB_prefetch_requested 0
Core_0_ITLB_prefetch_issued 0
Core_0_ITLB_prefetch_useful 0
Core_0_ITLB_prefetch_useless 0
Core_0_ITLB_prefetch_late 0
Core_0_ITLB_prefetch_accuracy 0
Core_0_ITLB_prefetch_coverage 0

Core_0_DTLB_total_access 14574244
Core_0_DTLB_total_hit 13034036
Core_0_DTLB_total_miss 1540208
Core_0_DTLB_total_MPKI 30.8042
Core_0_DTLB_total_miss_rate 0.10568
Core_0_DTLB_demand_access 14574244
Core_0_DTLB_demand_hit 13034036
Core_0_DTLB_demand_miss 1540208
Core_0_DTLB_demand_MPKI 30.8042
Core_0_DTLB_demand_miss_rate 0.10568
Core_0_DTLB_load_access 14574244
Core_0_DTLB_load_hit 13034036
Core_0_DTLB_load_miss 1540208
Core_0_DTLB_load_MPKI 30.8042
Core_0_DTLB_load_miss_rate 0.10568
Core_0_DTLB_rfo_access 0
Core_0_DTLB_rfo_hit 0
Core_0_DTLB_rfo_miss 0
Core_0_DTLB_rfo_MPKI 0
Core_0_DTLB_rfo_miss_rate 0
Core_0_DTLB_prefetch_access 0
Core_0_DTLB_prefetch_hit 0
Core_0_DTLB_prefetch_miss 0
Core_0_DTLB_prefetch_MPKI 0
Core_0_DTLB_prefetch_miss_rate 0
Core_0_DTLB_writeback_access 0
Core_0_DTLB_writeback_hit 0
Core_0_DTLB_writeback_miss 0
Core_0_DTLB_writeback_MPKI 0
Core_0_DTLB_writeback_miss_rate 0
Core_0_DTLB_prefetch_requested 0
Core_0_DTLB_prefetch_issued 0
Core_0_DTLB_prefetch_useful 0
Core_0_DTLB_prefetch_useless 0
Core_0_DTLB_prefetch_late 0
Core_0_DTLB_prefetch_accuracy 0
Core_0_DTLB_prefetch_coverage 0

Core_0_STLB_total_access 1186107
Core_0_STLB_total_hit 1077963
Core_0_STLB_total_miss 108144
Core_0_STLB_total_MPKI 2.16288
Core_0_STLB_total_miss_rate 0.0911756
Core_0_STLB_demand_access 1186107
Core_0_STLB_demand_hit 1077963
Core_0_STLB_demand_miss 108144
Core_0_STLB_demand_MPKI 2.16288
Core_0_STLB_demand_miss_rate 0.0911756
Core_0_STLB_load_access 1186107
Core_0_STLB_load_hit 1077963
Core_0_STLB_load_miss 108144
Core_0_STLB_load_MPKI 2.16288
Core_0_STLB_load_miss_rate 0.0911756
Core_0_STLB_rfo_access 0
Core_0_STLB_rfo_hit 0
Core_0_STLB_rfo_miss 0
Core_0_STLB_rfo_MPKI 0
Core_0_STLB_rfo_miss_rate 0
Core_0_STLB_prefetch_access 0
Core_0_STLB_prefetch_hit 0
Core_0_STLB_prefetch_miss 0
Core_0_STLB_prefetch_MPKI 0
Core_0_STLB_prefetch_miss_rate 0
Core_0_STLB_writeback_access 0
Core_0_STLB_writeback_hit 0
Core_0_STLB_writeback_miss 0
Core_0_STLB_writeback_MPKI 0
Core_0_STLB_writeback_miss_rate 0
Core_0_STLB_prefetch_requested 0
Core_0_STLB_prefetch_issued 0
Core_0_STLB_prefetch_useful 0
Core_0_STLB_prefetch_useless 0
Core_0_STLB_prefetch_late 0
Core_0_STLB_prefetch_accuracy 0
Core_0_STLB_prefetch_coverage 0

Core_0_L1I_total_access 10417
Core_0_L1I_total_hit 10291
Core_0_L1I_total_miss 126
Core_0_L1I_total_MPKI 0.00252
Core_0_L1I_total_miss_rate 0.0120956
Core_0_L1I_demand_access 10417
Core_0_L1I_demand_hit 10291
Core_0_L1I_demand_miss 126
Core_0_L1I_demand_MPKI 0.00252
Core_0_L1I_demand_miss_rate 0.0120956
Core_0_L1I_load_access 10417
Core_0_L1I_load_hit 10291
Core_0_L1I_load_miss 126
Core_0_L1I_load_MPKI 0.00252
Core_0_L1I_load_miss_rate 0.0120956
Core_0_L1I_rfo_access 0
Core_0_L1I_rfo_hit 0
Core_0_L1I_rfo_miss 0
Core_0_L1I_rfo_MPKI 0
Core_0_L1I_rfo_miss_rate 0
Core_0_L1I_prefetch_access 0
Core_0_L1I_prefetch_hit 0
Core_0_L1I_prefetch_miss 0
Core_0_L1I_prefetch_MPKI 0
Core_0_L1I_prefetch_miss_rate 0
Core_0_L1I_writeback_access 0
Core_0_L1I_writeback_hit 0
Core_0_L1I_writeback_miss 0
Core_0_L1I_writeback_MPKI 0
Core_0_L1I_writeback_miss_rate 0
Core_0_L1I_prefetch_requested 0
Core_0_L1I_prefetch_issued 0
Core_0_L1I_prefetch_useful 0
Core_0_L1I_prefetch_useless 0
Core_0_L1I_prefetch_late 0
Core_0_L1I_prefetch_accuracy 0
Core_0_L1I_prefetch_coverage 0

Core_0_L1D_total_access 14918081
Core_0_L1D_total_hit 12881272
Core_0_L1D_total_miss 2036809
Core_0_L1D_total_MPKI 40.7362
Core_0_L1D_total_miss_rate 0.136533
Core_0_L1D_demand_access 12525763
Core_0_L1D_demand_hit 10667541
Core_0_L1D_demand_miss 1858222
Core_0_L1D_demand_MPKI 37.1644
Core_0_L1D_demand_miss_rate 0.148352
Core_0_L1D_load_access 12525763
Core_0_L1D_load_hit 10667541
Core_0_L1D_load_miss 1858222
Core_0_L1D_load_MPKI 37.1644
Core_0_L1D_load_miss_rate 0.148352
Core_0_L1D_rfo_access 0
Core_0_L1D_rfo_hit 0
Core_0_L1D_rfo_miss 0
Core_0_L1D_rfo_MPKI 0
Core_0_L1D_rfo_miss_rate 0
Core_0_L1D_prefetch_access 261540
Core_0_L1D_prefetch_hit 97629
Core_0_L1D_prefetch_miss 163911
Core_0_L1D_prefetch_MPKI 3.27822
Core_0_L1D_prefetch_miss_rate 0.626715
Core_0_L1D_writeback_access 2130778
Core_0_L1D_writeback_hit 2116102
Core_0_L1D_writeback_miss 14676
Core_0_L1D_writeback_MPKI 0.29352
Core_0_L1D_writeback_miss_rate 0.00688763
Core_0_L1D_prefetch_requested 261540
Core_0_L1D_prefetch_issued 261540
Core_0_L1D_prefetch_useful 61712
Core_0_L1D_prefetch_useless 83823
Core_0_L1D_prefetch_late 488
Core_0_L1D_prefetch_accuracy 0.235956
Core_0_L1D_prefetch_coverage 0.0321428

Core_0_L2C_total_access 3324225
Core_0_L2C_total_hit 2198984
Core_0_L2C_total_miss 1125241
Core_0_L2C_total_MPKI 22.5048
Core_0_L2C_total_miss_rate 0.338497
Core_0_L2C_demand_access 1329511
Core_0_L2C_demand_hit 813566
Core_0_L2C_demand_miss 515945
Core_0_L2C_demand_MPKI 10.3189
Core_0_L2C_demand_miss_rate 0.388071
Core_0_L2C_load_access 1316728
Core_0_L2C_load_hit 803363
Core_0_L2C_load_miss 513365
Core_0_L2C_load_MPKI 10.2673
Core_0_L2C_load_miss_rate 0.389879
Core_0_L2C_rfo_access 12783
Core_0_L2C_rfo_hit 10203
Core_0_L2C_rfo_miss 2580
Core_0_L2C_rfo_MPKI 0.0516
Core_0_L2C_rfo_miss_rate 0.201831
Core_0_L2C_prefetch_access 1536641
Core_0_L2C_prefetch_hit 929894
Core_0_L2C_prefetch_miss 606747
Core_0_L2C_prefetch_MPKI 12.1349
Core_0_L2C_prefetch_miss_rate 0.394853
Core_0_L2C_writeback_access 458073
Core_0_L2C_writeback_hit 455524
Core_0_L2C_writeback_miss 2549
Core_0_L2C_writeback_MPKI 0.05098
Core_0_L2C_writeback_miss_rate 0.00556462
Core_0_L2C_prefetch_requested 1391076
Core_0_L2C_prefetch_issued 1391075
Core_0_L2C_prefetch_useful 68141
Core_0_L2C_prefetch_useless 432652
Core_0_L2C_prefetch_late 708
Core_0_L2C_prefetch_accuracy 0.0489844
Core_0_L2C_prefetch_coverage 0.116663

Core_0_LLC_total_access 1274890
Core_0_LLC_total_hit 1015468
Core_0_LLC_total_miss 259422
Core_0_LLC_total_MPKI 5.18844
Core_0_LLC_total_miss_rate 0.203486
Core_0_LLC_demand_access 515213
Core_0_LLC_demand_hit 418097
Core_0_LLC_demand_miss 97116
Core_0_LLC_demand_MPKI 1.94232
Core_0_LLC_demand_miss_rate 0.188497
Core_0_LLC_load_access 512633
Core_0_LLC_load_hit 415728
Core_0_LLC_load_miss 96905
Core_0_LLC_load_MPKI 1.9381
Core_0_LLC_load_miss_rate 0.189034
Core_0_LLC_rfo_access 2580
Core_0_LLC_rfo_hit 2369
Core_0_LLC_rfo_miss 211
Core_0_LLC_rfo_MPKI 0.00422
Core_0_LLC_rfo_miss_rate 0.0817829
Core_0_LLC_prefetch_access 548778
Core_0_LLC_prefetch_hit 399175
Core_0_LLC_prefetch_miss 149603
Core_0_LLC_prefetch_MPKI 2.99206
Core_0_LLC_prefetch_miss_rate 0.272611
Core_0_LLC_writeback_access 210899
Core_0_LLC_writeback_hit 198196
Core_0_LLC_writeback_miss 12703
Core_0_LLC_writeback_MPKI 0.25406
Core_0_LLC_writeback_miss_rate 0.0602326
Core_0_LLC_prefetch_requested 0
Core_0_LLC_prefetch_issued 0
Core_0_LLC_prefetch_useful 0
Core_0_LLC_prefetch_useless 0
Core_0_LLC_prefetch_late 0
Core_0_LLC_prefetch_accuracy 0
Core_0_LLC_prefetch_coverage 0

[DRAM Statistics]
Channel_0_RQ_row_buffer_hit 511
Channel_0_RQ_row_buffer_miss 247245
Channel_0_WQ_row_buffer_hit 10609
Channel_0_WQ_row_buffer_miss 64336
Channel_0_WQ_full 0
Channel_0_dbus_congested 676249
DRAM_total_RQ_row_buffer_hit 511
DRAM_total_RQ_row_buffer_miss 247245
DRAM_total_WQ_row_buffer_hit 10609
DRAM_total_WQ_row_buffer_miss 64336
DRAM_total_WQ_full 0
DRAM_total_dbus_congested 676249
DRAM_avg_congested_cycle 15.5543

======STLB miss causes ========
Core_0_STLB_miss_cause_breakdown
Core_0_STLB_cause_Demand_Data_miss 108136
Core_0_STLB_cause_Demand_Data_miss_rate 0.0911688
Core_0_STLB_cause_Demand_Instruction_miss 8
Core_0_STLB_cause_Demand_Instruction_miss_rate 6.74475e-06
Core_0_STLB_cause_L1D_Prefetch_miss 0
Core_0_STLB_cause_L1D_Prefetch_miss_rate 0
Core_0_STLB_cause_L1I_Prefetch_miss 0
Core_0_STLB_cause_L1I_Prefetch_miss_rate 0
Core_0_STLB_cause_Other_miss 0
Core_0_STLB_cause_Other_miss_rate 0
Core_0_STLB_Demand_miss 108144
Core_0_STLB_Demand_miss_rate 0.0911756
Core_0_STLB_L1D_Prefetch_miss 0
Core_0_STLB_L1D_Prefetch_miss_rate 0
Core_0_STLB_Other_miss 0
Core_0_STLB_Other_miss_rate 0
