[VMEM] WARNING: physical memory size is smaller than virtual memory size.

*** ChampSim Multicore Out-of-Order Simulator ***
Warmup Instructions: 20000000
Simulation Instructions: 50000000
Number of CPUs: 1
Page size: 4096
STLB ideal mode: l1pref
Core 0: /data0/tzh/champsim_traces/SPEC17/605.mcf_s-782B.champsimtrace.xz
 L1D Berti prefetcher
Off-chip DRAM Size: 16 GiB Channels: 1 Width: 64-bit Data Rate: 3205 MT/s
Warmup halting CPU 0 at instruction 20000001 cycle 7649297 for remainder of phase
Warmup finished CPU 0 instructions: 20000001 cycles: 7649297 cumulative IPC: 2.615 (Simulation time: 00 hr 02 min 14 sec)
Warmup complete CPU 0 instructions: 20000001 cycles: 7649297 cumulative IPC: 2.615 (Simulation time: 00 hr 02 min 14 sec)
Simulation finished CPU 0 instructions: 50000001 cycles: 412921652 cumulative IPC: 0.1211 (Simulation time: 00 hr 28 min 10 sec)
Simulation complete CPU 0 instructions: 50000001 cycles: 412921652 cumulative IPC: 0.1211 (Simulation time: 00 hr 28 min 10 sec)

ChampSim completed all CPUs

=== Simulation ===
CPU 0 runs /data0/tzh/champsim_traces/SPEC17/605.mcf_s-782B.champsimtrace.xz

Region of Interest Statistics

CPU 0 cumulative IPC: 0.1211 instructions: 50000001 cycles: 412921652
CPU 0 Branch Prediction Accuracy: 85.36% MPKI: 44.43 Average ROB Occupancy at Mispredict: 4.175
Branch type MPKI
BRANCH_DIRECT_JUMP: 0.7225
BRANCH_INDIRECT: 0
BRANCH_CONDITIONAL: 43.7
BRANCH_DIRECT_CALL: 2e-05
BRANCH_INDIRECT_CALL: 0.00076
BRANCH_RETURN: 0

cpu0->cpu0_STLB TOTAL        ACCESS:    4455223 HIT:    4397992 MISS:      57231 MSHR_MERGE:          0
cpu0->cpu0_STLB LOAD         ACCESS:    4455223 HIT:    4397992 MISS:      57231 MSHR_MERGE:          0
cpu0->cpu0_STLB RFO          ACCESS:          0 HIT:          0 MISS:          0 MSHR_MERGE:          0
cpu0->cpu0_STLB PREFETCH     ACCESS:          0 HIT:          0 MISS:          0 MSHR_MERGE:          0
cpu0->cpu0_STLB WRITE        ACCESS:          0 HIT:          0 MISS:          0 MSHR_MERGE:          0
cpu0->cpu0_STLB TRANSLATION  ACCESS:          0 HIT:          0 MISS:          0 MSHR_MERGE:          0
cpu0->cpu0_STLB PREFETCH REQUESTED:          0 ISSUED:          0 USEFUL:          0 USELESS:          0 LATE:          0
cpu0->cpu0_STLB AVERAGE MISS LATENCY: 218.6 cycles
cpu0->cpu0_L2C TOTAL        ACCESS:   24508798 HIT:   11673632 MISS:   12835166 MSHR_MERGE:     763152
cpu0->cpu0_L2C LOAD         ACCESS:    5007324 HIT:     770575 MISS:    4236749 MSHR_MERGE:      18690
cpu0->cpu0_L2C RFO          ACCESS:      16547 HIT:       1051 MISS:      15496 MSHR_MERGE:          7
cpu0->cpu0_L2C PREFETCH     ACCESS:   19320678 HIT:   10757051 MISS:    8563627 MSHR_MERGE:     744455
cpu0->cpu0_L2C WRITE        ACCESS:     144107 HIT:     144077 MISS:         30 MSHR_MERGE:          0
cpu0->cpu0_L2C TRANSLATION  ACCESS:      20142 HIT:        878 MISS:      19264 MSHR_MERGE:          0
cpu0->cpu0_L2C PREFETCH REQUESTED:   17249835 ISSUED:   16110414 USEFUL:    2670157 USELESS:    4450295 LATE:      18697
cpu0->cpu0_L2C AVERAGE MISS LATENCY: 72.72 cycles
cpu0->cpu0_L1I TOTAL        ACCESS:     606400 HIT:     606400 MISS:          0 MSHR_MERGE:          0
cpu0->cpu0_L1I LOAD         ACCESS:     606400 HIT:     606400 MISS:          0 MSHR_MERGE:          0
cpu0->cpu0_L1I RFO          ACCESS:          0 HIT:          0 MISS:          0 MSHR_MERGE:          0
cpu0->cpu0_L1I PREFETCH     ACCESS:          0 HIT:          0 MISS:          0 MSHR_MERGE:          0
cpu0->cpu0_L1I WRITE        ACCESS:          0 HIT:          0 MISS:          0 MSHR_MERGE:          0
cpu0->cpu0_L1I TRANSLATION  ACCESS:          0 HIT:          0 MISS:          0 MSHR_MERGE:          0
cpu0->cpu0_L1I PREFETCH REQUESTED:          0 ISSUED:          0 USEFUL:          0 USELESS:          0 LATE:          0
cpu0->cpu0_L1I AVERAGE MISS LATENCY: - cycles
cpu0->cpu0_L1D TOTAL        ACCESS:   16981661 HIT:    8168102 MISS:    8813559 MSHR_MERGE:     559299
cpu0->cpu0_L1D LOAD         ACCESS:   12470404 HIT:    7029476 MISS:    5440928 MSHR_MERGE:     433605
cpu0->cpu0_L1D RFO          ACCESS:          0 HIT:          0 MISS:          0 MSHR_MERGE:          0
cpu0->cpu0_L1D PREFETCH     ACCESS:    3396702 HIT:     101994 MISS:    3294708 MSHR_MERGE:      84460
cpu0->cpu0_L1D WRITE        ACCESS:     999671 HIT:     941949 MISS:      57722 MSHR_MERGE:      41175
cpu0->cpu0_L1D TRANSLATION  ACCESS:     114884 HIT:      94683 MISS:      20201 MSHR_MERGE:         59
cpu0->cpu0_L1D PREFETCH REQUESTED:    3420486 ISSUED:    3396694 USEFUL:    2583621 USELESS:     626642 LATE:     124555
cpu0->cpu0_L1D AVERAGE MISS LATENCY: 70.44 cycles
cpu0->cpu0_ITLB TOTAL        ACCESS:     550924 HIT:     550924 MISS:          0 MSHR_MERGE:          0
cpu0->cpu0_ITLB LOAD         ACCESS:     550924 HIT:     550924 MISS:          0 MSHR_MERGE:          0
cpu0->cpu0_ITLB RFO          ACCESS:          0 HIT:          0 MISS:          0 MSHR_MERGE:          0
cpu0->cpu0_ITLB PREFETCH     ACCESS:          0 HIT:          0 MISS:          0 MSHR_MERGE:          0
cpu0->cpu0_ITLB WRITE        ACCESS:          0 HIT:          0 MISS:          0 MSHR_MERGE:          0
cpu0->cpu0_ITLB TRANSLATION  ACCESS:          0 HIT:          0 MISS:          0 MSHR_MERGE:          0
cpu0->cpu0_ITLB PREFETCH REQUESTED:          0 ISSUED:          0 USEFUL:          0 USELESS:          0 LATE:          0
cpu0->cpu0_ITLB AVERAGE MISS LATENCY: - cycles
cpu0->cpu0_DTLB TOTAL        ACCESS:   16272451 HIT:   11572220 MISS:    4700231 MSHR_MERGE:     245008
cpu0->cpu0_DTLB LOAD         ACCESS:   16272451 HIT:   11572220 MISS:    4700231 MSHR_MERGE:     245008
cpu0->cpu0_DTLB RFO          ACCESS:          0 HIT:          0 MISS:          0 MSHR_MERGE:          0
cpu0->cpu0_DTLB PREFETCH     ACCESS:          0 HIT:          0 MISS:          0 MSHR_MERGE:          0
cpu0->cpu0_DTLB WRITE        ACCESS:          0 HIT:          0 MISS:          0 MSHR_MERGE:          0
cpu0->cpu0_DTLB TRANSLATION  ACCESS:          0 HIT:          0 MISS:          0 MSHR_MERGE:          0
cpu0->cpu0_DTLB PREFETCH REQUESTED:          0 ISSUED:          0 USEFUL:          0 USELESS:          0 LATE:          0
cpu0->cpu0_DTLB AVERAGE MISS LATENCY: 7.821 cycles
cpu0->LLC TOTAL        ACCESS:   12212821 HIT:    6973275 MISS:    5239546 MSHR_MERGE:          0
cpu0->LLC LOAD         ACCESS:    4218059 HIT:    3129598 MISS:    1088461 MSHR_MERGE:          0
cpu0->LLC RFO          ACCESS:      15489 HIT:      13653 MISS:       1836 MSHR_MERGE:          0
cpu0->LLC PREFETCH     ACCESS:    7819172 HIT:    3706576 MISS:    4112596 MSHR_MERGE:          0
cpu0->LLC WRITE        ACCESS:     140837 HIT:     117188 MISS:      23649 MSHR_MERGE:          0
cpu0->LLC TRANSLATION  ACCESS:      19264 HIT:       6260 MISS:      13004 MSHR_MERGE:          0
cpu0->LLC PREFETCH REQUESTED:          0 ISSUED:          0 USEFUL:          0 USELESS:          0 LATE:          0
cpu0->LLC AVERAGE MISS LATENCY: 216.4 cycles

DRAM Statistics

Channel 0 RQ ROW_BUFFER_HIT:     568995
  ROW_BUFFER_MISS:    4646825
  AVG DBUS CONGESTED CYCLE: 8.663
Channel 0 WQ ROW_BUFFER_HIT:      13552
  ROW_BUFFER_MISS:      33955
  FULL:          0
Channel 0 REFRESHES ISSUED:      34410

[ROI Statistics]
[System Configuration]
num_cpus 1
cpu_freq 4000
fetch_width 6
decode_width 6
dispatch_width 6
execute_width 6
lq_width 2
sq_width 2
retire_width 6
scheduler_size 128
branch_mispredict_penalty 15
rob_size 352
lq_size 128
sq_size 72
ifetch_buffer_size 64
decode_buffer_size 32
dispatch_buffer_size 32
register_file_size 288
decode_latency 1
dispatch_latency 1
schedule_latency 1
execute_latency 1
page_size 4096
block_size 64
core_0_itlb_set 16
core_0_itlb_way 4
core_0_itlb_rq_size 16
core_0_itlb_wq_size 16
core_0_itlb_pq_size 0
core_0_itlb_mshr_size 8
core_0_itlb_hit_latency 1
core_0_itlb_fill_latency 1
core_0_itlb_max_tag_check 2
core_0_itlb_max_fill 2
core_0_dtlb_set 16
core_0_dtlb_way 4
core_0_dtlb_rq_size 16
core_0_dtlb_wq_size 16
core_0_dtlb_pq_size 0
core_0_dtlb_mshr_size 8
core_0_dtlb_hit_latency 1
core_0_dtlb_fill_latency 1
core_0_dtlb_max_tag_check 2
core_0_dtlb_max_fill 2
core_0_stlb_set 128
core_0_stlb_way 12
core_0_stlb_rq_size 32
core_0_stlb_wq_size 32
core_0_stlb_pq_size 0
core_0_stlb_mshr_size 16
core_0_stlb_hit_latency 4
core_0_stlb_fill_latency 4
core_0_stlb_max_tag_check 1
core_0_stlb_max_fill 1
core_0_l1i_set 64
core_0_l1i_way 8
core_0_l1i_rq_size 64
core_0_l1i_wq_size 64
core_0_l1i_pq_size 32
core_0_l1i_mshr_size 8
core_0_l1i_hit_latency 2
core_0_l1i_fill_latency 2
core_0_l1i_max_tag_check 2
core_0_l1i_max_fill 2
core_0_l1d_set 64
core_0_l1d_way 12
core_0_l1d_rq_size 64
core_0_l1d_wq_size 64
core_0_l1d_pq_size 8
core_0_l1d_mshr_size 16
core_0_l1d_hit_latency 2
core_0_l1d_fill_latency 3
core_0_l1d_max_tag_check 2
core_0_l1d_max_fill 2
core_0_l2c_set 1024
core_0_l2c_way 8
core_0_l2c_rq_size 32
core_0_l2c_wq_size 32
core_0_l2c_pq_size 16
core_0_l2c_mshr_size 32
core_0_l2c_hit_latency 5
core_0_l2c_fill_latency 5
core_0_l2c_max_tag_check 1
core_0_l2c_max_fill 1
llc_set 2048
llc_way 16
llc_rq_size 32
llc_wq_size 32
llc_pq_size 32
llc_mshr_size 64
llc_hit_latency 10
llc_fill_latency 10
llc_max_tag_check 1
llc_max_fill 1
dram_channels 1
dram_ranks 1
dram_bankgroups 8
dram_banks 4
dram_rows 65536
dram_columns 1024
dram_channel_width 8
dram_rq_size 64
dram_wq_size 64
dram_size 17179869184
core_0_itlb_prefetcher no
core_0_dtlb_prefetcher no
core_0_stlb_prefetcher no
core_0_l1i_prefetcher next_line
core_0_l1d_prefetcher berti
core_0_l2c_prefetcher pythia
llc_prefetcher no
llc_replacement drrip

Core_0_instructions 50000001
Core_0_cycles 412921652
Core_0_IPC 0.121088
Core_0_branch_prediction_accuracy 85.3618
Core_0_branch_MPKI 44.4253
Core_0_average_ROB_occupancy_at_mispredict 4.17486

Core_0_ITLB_total_access 550924
Core_0_ITLB_total_hit 550924
Core_0_ITLB_total_miss 0
Core_0_ITLB_total_MPKI 0
Core_0_ITLB_total_miss_rate 0
Core_0_ITLB_demand_access 550924
Core_0_ITLB_demand_hit 550924
Core_0_ITLB_demand_miss 0
Core_0_ITLB_demand_MPKI 0
Core_0_ITLB_demand_miss_rate 0
Core_0_ITLB_load_access 550924
Core_0_ITLB_load_hit 550924
Core_0_ITLB_load_miss 0
Core_0_ITLB_load_MPKI 0
Core_0_ITLB_load_miss_rate 0
Core_0_ITLB_rfo_access 0
Core_0_ITLB_rfo_hit 0
Core_0_ITLB_rfo_miss 0
Core_0_ITLB_rfo_MPKI 0
Core_0_ITLB_rfo_miss_rate 0
Core_0_ITLB_prefetch_access 0
Core_0_ITLB_prefetch_hit 0
Core_0_ITLB_prefetch_miss 0
Core_0_ITLB_prefetch_MPKI 0
Core_0_ITLB_prefetch_miss_rate 0
Core_0_ITLB_writeback_access 0
Core_0_ITLB_writeback_hit 0
Core_0_ITLB_writeback_miss 0
Core_0_ITLB_writeback_MPKI 0
Core_0_ITLB_writeback_miss_rate 0
Core_0_ITLB_prefetch_requested 0
Core_0_ITLB_prefetch_issued 0
Core_0_ITLB_prefetch_useful 0
Core_0_ITLB_prefetch_useless 0
Core_0_ITLB_prefetch_late 0
Core_0_ITLB_prefetch_accuracy 0
Core_0_ITLB_prefetch_coverage 0

Core_0_DTLB_total_access 16272451
Core_0_DTLB_total_hit 11572220
Core_0_DTLB_total_miss 4700231
Core_0_DTLB_total_MPKI 94.0046
Core_0_DTLB_total_miss_rate 0.288846
Core_0_DTLB_demand_access 16272451
Core_0_DTLB_demand_hit 11572220
Core_0_DTLB_demand_miss 4700231
Core_0_DTLB_demand_MPKI 94.0046
Core_0_DTLB_demand_miss_rate 0.288846
Core_0_DTLB_load_access 16272451
Core_0_DTLB_load_hit 11572220
Core_0_DTLB_load_miss 4700231
Core_0_DTLB_load_MPKI 94.0046
Core_0_DTLB_load_miss_rate 0.288846
Core_0_DTLB_rfo_access 0
Core_0_DTLB_rfo_hit 0
Core_0_DTLB_rfo_miss 0
Core_0_DTLB_rfo_MPKI 0
Core_0_DTLB_rfo_miss_rate 0
Core_0_DTLB_prefetch_access 0
Core_0_DTLB_prefetch_hit 0
Core_0_DTLB_prefetch_miss 0
Core_0_DTLB_prefetch_MPKI 0
Core_0_DTLB_prefetch_miss_rate 0
Core_0_DTLB_writeback_access 0
Core_0_DTLB_writeback_hit 0
Core_0_DTLB_writeback_miss 0
Core_0_DTLB_writeback_MPKI 0
Core_0_DTLB_writeback_miss_rate 0
Core_0_DTLB_prefetch_requested 0
Core_0_DTLB_prefetch_issued 0
Core_0_DTLB_prefetch_useful 0
Core_0_DTLB_prefetch_useless 0
Core_0_DTLB_prefetch_late 0
Core_0_DTLB_prefetch_accuracy 0
Core_0_DTLB_prefetch_coverage 0

Core_0_STLB_total_access 4455223
Core_0_STLB_total_hit 4397992
Core_0_STLB_total_miss 57231
Core_0_STLB_total_MPKI 1.14462
Core_0_STLB_total_miss_rate 0.0128458
Core_0_STLB_demand_access 4455223
Core_0_STLB_demand_hit 4397992
Core_0_STLB_demand_miss 57231
Core_0_STLB_demand_MPKI 1.14462
Core_0_STLB_demand_miss_rate 0.0128458
Core_0_STLB_load_access 4455223
Core_0_STLB_load_hit 4397992
Core_0_STLB_load_miss 57231
Core_0_STLB_load_MPKI 1.14462
Core_0_STLB_load_miss_rate 0.0128458
Core_0_STLB_rfo_access 0
Core_0_STLB_rfo_hit 0
Core_0_STLB_rfo_miss 0
Core_0_STLB_rfo_MPKI 0
Core_0_STLB_rfo_miss_rate 0
Core_0_STLB_prefetch_access 0
Core_0_STLB_prefetch_hit 0
Core_0_STLB_prefetch_miss 0
Core_0_STLB_prefetch_MPKI 0
Core_0_STLB_prefetch_miss_rate 0
Core_0_STLB_writeback_access 0
Core_0_STLB_writeback_hit 0
Core_0_STLB_writeback_miss 0
Core_0_STLB_writeback_MPKI 0
Core_0_STLB_writeback_miss_rate 0
Core_0_STLB_prefetch_requested 0
Core_0_STLB_prefetch_issued 0
Core_0_STLB_prefetch_useful 0
Core_0_STLB_prefetch_useless 0
Core_0_STLB_prefetch_late 0
Core_0_STLB_prefetch_accuracy 0
Core_0_STLB_prefetch_coverage 0

Core_0_L1I_total_access 606400
Core_0_L1I_total_hit 606400
Core_0_L1I_total_miss 0
Core_0_L1I_total_MPKI 0
Core_0_L1I_total_miss_rate 0
Core_0_L1I_demand_access 606400
Core_0_L1I_demand_hit 606400
Core_0_L1I_demand_miss 0
Core_0_L1I_demand_MPKI 0
Core_0_L1I_demand_miss_rate 0
Core_0_L1I_load_access 606400
Core_0_L1I_load_hit 606400
Core_0_L1I_load_miss 0
Core_0_L1I_load_MPKI 0
Core_0_L1I_load_miss_rate 0
Core_0_L1I_rfo_access 0
Core_0_L1I_rfo_hit 0
Core_0_L1I_rfo_miss 0
Core_0_L1I_rfo_MPKI 0
Core_0_L1I_rfo_miss_rate 0
Core_0_L1I_prefetch_access 0
Core_0_L1I_prefetch_hit 0
Core_0_L1I_prefetch_miss 0
Core_0_L1I_prefetch_MPKI 0
Core_0_L1I_prefetch_miss_rate 0
Core_0_L1I_writeback_access 0
Core_0_L1I_writeback_hit 0
Core_0_L1I_writeback_miss 0
Core_0_L1I_writeback_MPKI 0
Core_0_L1I_writeback_miss_rate 0
Core_0_L1I_prefetch_requested 0
Core_0_L1I_prefetch_issued 0
Core_0_L1I_prefetch_useful 0
Core_0_L1I_prefetch_useless 0
Core_0_L1I_prefetch_late 0
Core_0_L1I_prefetch_accuracy 0
Core_0_L1I_prefetch_coverage 0

Core_0_L1D_total_access 16866777
Core_0_L1D_total_hit 8073419
Core_0_L1D_total_miss 8793358
Core_0_L1D_total_MPKI 175.867
Core_0_L1D_total_miss_rate 0.521342
Core_0_L1D_demand_access 12470404
Core_0_L1D_demand_hit 7029476
Core_0_L1D_demand_miss 5440928
Core_0_L1D_demand_MPKI 108.819
Core_0_L1D_demand_miss_rate 0.436307
Core_0_L1D_load_access 12470404
Core_0_L1D_load_hit 7029476
Core_0_L1D_load_miss 5440928
Core_0_L1D_load_MPKI 108.819
Core_0_L1D_load_miss_rate 0.436307
Core_0_L1D_rfo_access 0
Core_0_L1D_rfo_hit 0
Core_0_L1D_rfo_miss 0
Core_0_L1D_rfo_MPKI 0
Core_0_L1D_rfo_miss_rate 0
Core_0_L1D_prefetch_access 3396702
Core_0_L1D_prefetch_hit 101994
Core_0_L1D_prefetch_miss 3294708
Core_0_L1D_prefetch_MPKI 65.8942
Core_0_L1D_prefetch_miss_rate 0.969973
Core_0_L1D_writeback_access 999671
Core_0_L1D_writeback_hit 941949
Core_0_L1D_writeback_miss 57722
Core_0_L1D_writeback_MPKI 1.15444
Core_0_L1D_writeback_miss_rate 0.057741
Core_0_L1D_prefetch_requested 3420486
Core_0_L1D_prefetch_issued 3396694
Core_0_L1D_prefetch_useful 2583621
Core_0_L1D_prefetch_useless 626642
Core_0_L1D_prefetch_late 124555
Core_0_L1D_prefetch_accuracy 0.760628
Core_0_L1D_prefetch_coverage 0.321965

Core_0_L2C_total_access 24488656
Core_0_L2C_total_hit 11672754
Core_0_L2C_total_miss 12815902
Core_0_L2C_total_MPKI 256.318
Core_0_L2C_total_miss_rate 0.52334
Core_0_L2C_demand_access 5023871
Core_0_L2C_demand_hit 771626
Core_0_L2C_demand_miss 4252245
Core_0_L2C_demand_MPKI 85.0449
Core_0_L2C_demand_miss_rate 0.846408
Core_0_L2C_load_access 5007324
Core_0_L2C_load_hit 770575
Core_0_L2C_load_miss 4236749
Core_0_L2C_load_MPKI 84.735
Core_0_L2C_load_miss_rate 0.84611
Core_0_L2C_rfo_access 16547
Core_0_L2C_rfo_hit 1051
Core_0_L2C_rfo_miss 15496
Core_0_L2C_rfo_MPKI 0.30992
Core_0_L2C_rfo_miss_rate 0.936484
Core_0_L2C_prefetch_access 19320678
Core_0_L2C_prefetch_hit 10757051
Core_0_L2C_prefetch_miss 8563627
Core_0_L2C_prefetch_MPKI 171.273
Core_0_L2C_prefetch_miss_rate 0.443236
Core_0_L2C_writeback_access 144107
Core_0_L2C_writeback_hit 144077
Core_0_L2C_writeback_miss 30
Core_0_L2C_writeback_MPKI 0.0006
Core_0_L2C_writeback_miss_rate 0.000208179
Core_0_L2C_prefetch_requested 17249835
Core_0_L2C_prefetch_issued 16110414
Core_0_L2C_prefetch_useful 2670157
Core_0_L2C_prefetch_useless 4450295
Core_0_L2C_prefetch_late 18697
Core_0_L2C_prefetch_accuracy 0.165741
Core_0_L2C_prefetch_coverage 0.385727

Core_0_LLC_total_access 12193557
Core_0_LLC_total_hit 6967015
Core_0_LLC_total_miss 5226542
Core_0_LLC_total_MPKI 104.531
Core_0_LLC_total_miss_rate 0.428631
Core_0_LLC_demand_access 4233548
Core_0_LLC_demand_hit 3143251
Core_0_LLC_demand_miss 1090297
Core_0_LLC_demand_MPKI 21.8059
Core_0_LLC_demand_miss_rate 0.257537
Core_0_LLC_load_access 4218059
Core_0_LLC_load_hit 3129598
Core_0_LLC_load_miss 1088461
Core_0_LLC_load_MPKI 21.7692
Core_0_LLC_load_miss_rate 0.258048
Core_0_LLC_rfo_access 15489
Core_0_LLC_rfo_hit 13653
Core_0_LLC_rfo_miss 1836
Core_0_LLC_rfo_MPKI 0.03672
Core_0_LLC_rfo_miss_rate 0.118536
Core_0_LLC_prefetch_access 7819172
Core_0_LLC_prefetch_hit 3706576
Core_0_LLC_prefetch_miss 4112596
Core_0_LLC_prefetch_MPKI 82.2519
Core_0_LLC_prefetch_miss_rate 0.525963
Core_0_LLC_writeback_access 140837
Core_0_LLC_writeback_hit 117188
Core_0_LLC_writeback_miss 23649
Core_0_LLC_writeback_MPKI 0.47298
Core_0_LLC_writeback_miss_rate 0.167918
Core_0_LLC_prefetch_requested 0
Core_0_LLC_prefetch_issued 0
Core_0_LLC_prefetch_useful 0
Core_0_LLC_prefetch_useless 0
Core_0_LLC_prefetch_late 0
Core_0_LLC_prefetch_accuracy 0
Core_0_LLC_prefetch_coverage 0

[DRAM Statistics]
Channel_0_RQ_row_buffer_hit 568995
Channel_0_RQ_row_buffer_miss 4646825
Channel_0_WQ_row_buffer_hit 13552
Channel_0_WQ_row_buffer_miss 33955
Channel_0_WQ_full 0
Channel_0_dbus_congested 8482107
DRAM_total_RQ_row_buffer_hit 568995
DRAM_total_RQ_row_buffer_miss 4646825
DRAM_total_WQ_row_buffer_hit 13552
DRAM_total_WQ_row_buffer_miss 33955
DRAM_total_WQ_full 0
DRAM_total_dbus_congested 8482107
DRAM_avg_congested_cycle 8.66286

======STLB miss causes ========
Core_0_STLB_miss_cause_breakdown
Core_0_STLB_cause_Demand_Data_miss 57231
Core_0_STLB_cause_Demand_Data_miss_rate 0.0128458
Core_0_STLB_cause_Demand_Instruction_miss 0
Core_0_STLB_cause_Demand_Instruction_miss_rate 0
Core_0_STLB_cause_L1D_Prefetch_miss 0
Core_0_STLB_cause_L1D_Prefetch_miss_rate 0
Core_0_STLB_cause_L1I_Prefetch_miss 0
Core_0_STLB_cause_L1I_Prefetch_miss_rate 0
Core_0_STLB_cause_Other_miss 0
Core_0_STLB_cause_Other_miss_rate 0
Core_0_STLB_Demand_miss 57231
Core_0_STLB_Demand_miss_rate 0.0128458
Core_0_STLB_L1D_Prefetch_miss 0
Core_0_STLB_L1D_Prefetch_miss_rate 0
Core_0_STLB_Other_miss 0
Core_0_STLB_Other_miss_rate 0
