[VMEM] WARNING: physical memory size is smaller than virtual memory size.

*** ChampSim Multicore Out-of-Order Simulator ***
Warmup Instructions: 20000000
Simulation Instructions: 50000000
Number of CPUs: 1
Page size: 4096
STLB ideal mode: l1pref
Core 0: /data0/tzh/champsim_traces/SPEC17/620.omnetpp_s-141B.champsimtrace.xz
 L1D Berti prefetcher
Off-chip DRAM Size: 16 GiB Channels: 1 Width: 64-bit Data Rate: 3205 MT/s
Warmup halting CPU 0 at instruction 20000002 cycle 7864646 for remainder of phase
Warmup finished CPU 0 instructions: 20000002 cycles: 7864646 cumulative IPC: 2.543 (Simulation time: 00 hr 01 min 41 sec)
Warmup complete CPU 0 instructions: 20000002 cycles: 7864646 cumulative IPC: 2.543 (Simulation time: 00 hr 01 min 41 sec)
Simulation finished CPU 0 instructions: 50000003 cycles: 112464111 cumulative IPC: 0.4446 (Simulation time: 00 hr 12 min 39 sec)
Simulation complete CPU 0 instructions: 50000003 cycles: 112464111 cumulative IPC: 0.4446 (Simulation time: 00 hr 12 min 39 sec)

ChampSim completed all CPUs

=== Simulation ===
CPU 0 runs /data0/tzh/champsim_traces/SPEC17/620.omnetpp_s-141B.champsimtrace.xz

Region of Interest Statistics

CPU 0 cumulative IPC: 0.4446 instructions: 50000003 cycles: 112464111
CPU 0 Branch Prediction Accuracy: 95.7% MPKI: 9.03 Average ROB Occupancy at Mispredict: 80.81
Branch type MPKI
BRANCH_DIRECT_JUMP: 0.8235
BRANCH_INDIRECT: 0.3613
BRANCH_CONDITIONAL: 6.534
BRANCH_DIRECT_CALL: 0.00136
BRANCH_INDIRECT_CALL: 0.8598
BRANCH_RETURN: 0.4496

cpu0->cpu0_STLB TOTAL        ACCESS:    1149236 HIT:     907271 MISS:     241965 MSHR_MERGE:          0
cpu0->cpu0_STLB LOAD         ACCESS:    1149236 HIT:     907271 MISS:     241965 MSHR_MERGE:          0
cpu0->cpu0_STLB RFO          ACCESS:          0 HIT:          0 MISS:          0 MSHR_MERGE:          0
cpu0->cpu0_STLB PREFETCH     ACCESS:          0 HIT:          0 MISS:          0 MSHR_MERGE:          0
cpu0->cpu0_STLB WRITE        ACCESS:          0 HIT:          0 MISS:          0 MSHR_MERGE:          0
cpu0->cpu0_STLB TRANSLATION  ACCESS:          0 HIT:          0 MISS:          0 MSHR_MERGE:          0
cpu0->cpu0_STLB PREFETCH REQUESTED:          0 ISSUED:          0 USEFUL:          0 USELESS:          0 LATE:          0
cpu0->cpu0_STLB AVERAGE MISS LATENCY: 96.8 cycles
cpu0->cpu0_L2C TOTAL        ACCESS:    3467217 HIT:    1502683 MISS:    1964534 MSHR_MERGE:     300841
cpu0->cpu0_L2C LOAD         ACCESS:     789830 HIT:     316810 MISS:     473020 MSHR_MERGE:      12712
cpu0->cpu0_L2C RFO          ACCESS:     111308 HIT:      48475 MISS:      62833 MSHR_MERGE:       2521
cpu0->cpu0_L2C PREFETCH     ACCESS:    1867337 HIT:     614048 MISS:    1253289 MSHR_MERGE:     285608
cpu0->cpu0_L2C WRITE        ACCESS:     476870 HIT:     475579 MISS:       1291 MSHR_MERGE:          0
cpu0->cpu0_L2C TRANSLATION  ACCESS:     221872 HIT:      47771 MISS:     174101 MSHR_MERGE:          0
cpu0->cpu0_L2C PREFETCH REQUESTED:    1494918 ISSUED:    1489125 USEFUL:     223491 USELESS:     522114 LATE:      15233
cpu0->cpu0_L2C AVERAGE MISS LATENCY: 143.8 cycles
cpu0->cpu0_L1I TOTAL        ACCESS:    7272557 HIT:    7235193 MISS:      37364 MSHR_MERGE:       9317
cpu0->cpu0_L1I LOAD         ACCESS:    7272557 HIT:    7235193 MISS:      37364 MSHR_MERGE:       9317
cpu0->cpu0_L1I RFO          ACCESS:          0 HIT:          0 MISS:          0 MSHR_MERGE:          0
cpu0->cpu0_L1I PREFETCH     ACCESS:          0 HIT:          0 MISS:          0 MSHR_MERGE:          0
cpu0->cpu0_L1I WRITE        ACCESS:          0 HIT:          0 MISS:          0 MSHR_MERGE:          0
cpu0->cpu0_L1I TRANSLATION  ACCESS:          0 HIT:          0 MISS:          0 MSHR_MERGE:          0
cpu0->cpu0_L1I PREFETCH REQUESTED:          0 ISSUED:          0 USEFUL:          0 USELESS:          0 LATE:          0
cpu0->cpu0_L1I AVERAGE MISS LATENCY: 22.75 cycles
cpu0->cpu0_L1D TOTAL        ACCESS:   20091318 HIT:   18190225 MISS:    1901093 MSHR_MERGE:     427904
cpu0->cpu0_L1D LOAD         ACCESS:    9655504 HIT:    8684891 MISS:     970613 MSHR_MERGE:     208827
cpu0->cpu0_L1D RFO          ACCESS:          0 HIT:          0 MISS:          0 MSHR_MERGE:          0
cpu0->cpu0_L1D PREFETCH     ACCESS:    1021135 HIT:     627510 MISS:     393625 MSHR_MERGE:      15410
cpu0->cpu0_L1D WRITE        ACCESS:    8831900 HIT:    8517306 MISS:     314594 MSHR_MERGE:     203278
cpu0->cpu0_L1D TRANSLATION  ACCESS:     582779 HIT:     360518 MISS:     222261 MSHR_MERGE:        389
cpu0->cpu0_L1D PREFETCH REQUESTED:    1028100 ISSUED:    1021131 USEFUL:     113433 USELESS:     264723 LATE:      14303
cpu0->cpu0_L1D AVERAGE MISS LATENCY: 101.9 cycles
cpu0->cpu0_ITLB TOTAL        ACCESS:    6443942 HIT:    6289417 MISS:     154525 MSHR_MERGE:      75740
cpu0->cpu0_ITLB LOAD         ACCESS:    6443942 HIT:    6289417 MISS:     154525 MSHR_MERGE:      75740
cpu0->cpu0_ITLB RFO          ACCESS:          0 HIT:          0 MISS:          0 MSHR_MERGE:          0
cpu0->cpu0_ITLB PREFETCH     ACCESS:          0 HIT:          0 MISS:          0 MSHR_MERGE:          0
cpu0->cpu0_ITLB WRITE        ACCESS:          0 HIT:          0 MISS:          0 MSHR_MERGE:          0
cpu0->cpu0_ITLB TRANSLATION  ACCESS:          0 HIT:          0 MISS:          0 MSHR_MERGE:          0
cpu0->cpu0_ITLB PREFETCH REQUESTED:          0 ISSUED:          0 USEFUL:          0 USELESS:          0 LATE:          0
cpu0->cpu0_ITLB AVERAGE MISS LATENCY: 5.739 cycles
cpu0->cpu0_DTLB TOTAL        ACCESS:   18275422 HIT:   16970040 MISS:    1305382 MSHR_MERGE:     234931
cpu0->cpu0_DTLB LOAD         ACCESS:   18275422 HIT:   16970040 MISS:    1305382 MSHR_MERGE:     234931
cpu0->cpu0_DTLB RFO          ACCESS:          0 HIT:          0 MISS:          0 MSHR_MERGE:          0
cpu0->cpu0_DTLB PREFETCH     ACCESS:          0 HIT:          0 MISS:          0 MSHR_MERGE:          0
cpu0->cpu0_DTLB WRITE        ACCESS:          0 HIT:          0 MISS:          0 MSHR_MERGE:          0
cpu0->cpu0_DTLB TRANSLATION  ACCESS:          0 HIT:          0 MISS:          0 MSHR_MERGE:          0
cpu0->cpu0_DTLB PREFETCH REQUESTED:          0 ISSUED:          0 USEFUL:          0 USELESS:          0 LATE:          0
cpu0->cpu0_DTLB AVERAGE MISS LATENCY: 27.06 cycles
cpu0->LLC TOTAL        ACCESS:    2034335 HIT:     774276 MISS:    1260059 MSHR_MERGE:          0
cpu0->LLC LOAD         ACCESS:     460308 HIT:     126181 MISS:     334127 MSHR_MERGE:          0
cpu0->LLC RFO          ACCESS:      60312 HIT:      16746 MISS:      43566 MSHR_MERGE:          0
cpu0->LLC PREFETCH     ACCESS:     967681 HIT:     175943 MISS:     791738 MSHR_MERGE:          0
cpu0->LLC WRITE        ACCESS:     371933 HIT:     342563 MISS:      29370 MSHR_MERGE:          0
cpu0->LLC TRANSLATION  ACCESS:     174101 HIT:     112843 MISS:      61258 MSHR_MERGE:          0
cpu0->LLC PREFETCH REQUESTED:          0 ISSUED:          0 USEFUL:          0 USELESS:          0 LATE:          0
cpu0->LLC AVERAGE MISS LATENCY: 192 cycles

DRAM Statistics

Channel 0 RQ ROW_BUFFER_HIT:      22934
  ROW_BUFFER_MISS:    1207688
  AVG DBUS CONGESTED CYCLE: 12.55
Channel 0 WQ ROW_BUFFER_HIT:      81037
  ROW_BUFFER_MISS:     187245
  FULL:          0
Channel 0 REFRESHES ISSUED:       9372

[ROI Statistics]
[System Configuration]
num_cpus 1
cpu_freq 4000
fetch_width 6
decode_width 6
dispatch_width 6
execute_width 6
lq_width 2
sq_width 2
retire_width 6
scheduler_size 128
branch_mispredict_penalty 15
rob_size 352
lq_size 128
sq_size 72
ifetch_buffer_size 64
decode_buffer_size 32
dispatch_buffer_size 32
register_file_size 288
decode_latency 1
dispatch_latency 1
schedule_latency 1
execute_latency 1
page_size 4096
block_size 64
core_0_itlb_set 16
core_0_itlb_way 4
core_0_itlb_rq_size 16
core_0_itlb_wq_size 16
core_0_itlb_pq_size 0
core_0_itlb_mshr_size 8
core_0_itlb_hit_latency 1
core_0_itlb_fill_latency 1
core_0_itlb_max_tag_check 2
core_0_itlb_max_fill 2
core_0_dtlb_set 16
core_0_dtlb_way 4
core_0_dtlb_rq_size 16
core_0_dtlb_wq_size 16
core_0_dtlb_pq_size 0
core_0_dtlb_mshr_size 8
core_0_dtlb_hit_latency 1
core_0_dtlb_fill_latency 1
core_0_dtlb_max_tag_check 2
core_0_dtlb_max_fill 2
core_0_stlb_set 128
core_0_stlb_way 12
core_0_stlb_rq_size 32
core_0_stlb_wq_size 32
core_0_stlb_pq_size 0
core_0_stlb_mshr_size 16
core_0_stlb_hit_latency 4
core_0_stlb_fill_latency 4
core_0_stlb_max_tag_check 1
core_0_stlb_max_fill 1
core_0_l1i_set 64
core_0_l1i_way 8
core_0_l1i_rq_size 64
core_0_l1i_wq_size 64
core_0_l1i_pq_size 32
core_0_l1i_mshr_size 8
core_0_l1i_hit_latency 2
core_0_l1i_fill_latency 2
core_0_l1i_max_tag_check 2
core_0_l1i_max_fill 2
core_0_l1d_set 64
core_0_l1d_way 12
core_0_l1d_rq_size 64
core_0_l1d_wq_size 64
core_0_l1d_pq_size 8
core_0_l1d_mshr_size 16
core_0_l1d_hit_latency 2
core_0_l1d_fill_latency 3
core_0_l1d_max_tag_check 2
core_0_l1d_max_fill 2
core_0_l2c_set 1024
core_0_l2c_way 8
core_0_l2c_rq_size 32
core_0_l2c_wq_size 32
core_0_l2c_pq_size 16
core_0_l2c_mshr_size 32
core_0_l2c_hit_latency 5
core_0_l2c_fill_latency 5
core_0_l2c_max_tag_check 1
core_0_l2c_max_fill 1
llc_set 2048
llc_way 16
llc_rq_size 32
llc_wq_size 32
llc_pq_size 32
llc_mshr_size 64
llc_hit_latency 10
llc_fill_latency 10
llc_max_tag_check 1
llc_max_fill 1
dram_channels 1
dram_ranks 1
dram_bankgroups 8
dram_banks 4
dram_rows 65536
dram_columns 1024
dram_channel_width 8
dram_rq_size 64
dram_wq_size 64
dram_size 17179869184
core_0_itlb_prefetcher no
core_0_dtlb_prefetcher no
core_0_stlb_prefetcher no
core_0_l1i_prefetcher next_line
core_0_l1d_prefetcher berti
core_0_l2c_prefetcher pythia
llc_prefetcher no
llc_replacement drrip

Core_0_instructions 50000003
Core_0_cycles 112464111
Core_0_IPC 0.444586
Core_0_branch_prediction_accuracy 95.7047
Core_0_branch_MPKI 9.02996
Core_0_average_ROB_occupancy_at_mispredict 80.8107

Core_0_ITLB_total_access 6443942
Core_0_ITLB_total_hit 6289417
Core_0_ITLB_total_miss 154525
Core_0_ITLB_total_MPKI 3.0905
Core_0_ITLB_total_miss_rate 0.0239799
Core_0_ITLB_demand_access 6443942
Core_0_ITLB_demand_hit 6289417
Core_0_ITLB_demand_miss 154525
Core_0_ITLB_demand_MPKI 3.0905
Core_0_ITLB_demand_miss_rate 0.0239799
Core_0_ITLB_load_access 6443942
Core_0_ITLB_load_hit 6289417
Core_0_ITLB_load_miss 154525
Core_0_ITLB_load_MPKI 3.0905
Core_0_ITLB_load_miss_rate 0.0239799
Core_0_ITLB_rfo_access 0
Core_0_ITLB_rfo_hit 0
Core_0_ITLB_rfo_miss 0
Core_0_ITLB_rfo_MPKI 0
Core_0_ITLB_rfo_miss_rate 0
Core_0_ITLB_prefetch_access 0
Core_0_ITLB_prefetch_hit 0
Core_0_ITLB_prefetch_miss 0
Core_0_ITLB_prefetch_MPKI 0
Core_0_ITLB_prefetch_miss_rate 0
Core_0_ITLB_writeback_access 0
Core_0_ITLB_writeback_hit 0
Core_0_ITLB_writeback_miss 0
Core_0_ITLB_writeback_MPKI 0
Core_0_ITLB_writeback_miss_rate 0
Core_0_ITLB_prefetch_requested 0
Core_0_ITLB_prefetch_issued 0
Core_0_ITLB_prefetch_useful 0
Core_0_ITLB_prefetch_useless 0
Core_0_ITLB_prefetch_late 0
Core_0_ITLB_prefetch_accuracy 0
Core_0_ITLB_prefetch_coverage 0

Core_0_DTLB_total_access 18275422
Core_0_DTLB_total_hit 16970040
Core_0_DTLB_total_miss 1305382
Core_0_DTLB_total_MPKI 26.1076
Core_0_DTLB_total_miss_rate 0.0714283
Core_0_DTLB_demand_access 18275422
Core_0_DTLB_demand_hit 16970040
Core_0_DTLB_demand_miss 1305382
Core_0_DTLB_demand_MPKI 26.1076
Core_0_DTLB_demand_miss_rate 0.0714283
Core_0_DTLB_load_access 18275422
Core_0_DTLB_load_hit 16970040
Core_0_DTLB_load_miss 1305382
Core_0_DTLB_load_MPKI 26.1076
Core_0_DTLB_load_miss_rate 0.0714283
Core_0_DTLB_rfo_access 0
Core_0_DTLB_rfo_hit 0
Core_0_DTLB_rfo_miss 0
Core_0_DTLB_rfo_MPKI 0
Core_0_DTLB_rfo_miss_rate 0
Core_0_DTLB_prefetch_access 0
Core_0_DTLB_prefetch_hit 0
Core_0_DTLB_prefetch_miss 0
Core_0_DTLB_prefetch_MPKI 0
Core_0_DTLB_prefetch_miss_rate 0
Core_0_DTLB_writeback_access 0
Core_0_DTLB_writeback_hit 0
Core_0_DTLB_writeback_miss 0
Core_0_DTLB_writeback_MPKI 0
Core_0_DTLB_writeback_miss_rate 0
Core_0_DTLB_prefetch_requested 0
Core_0_DTLB_prefetch_issued 0
Core_0_DTLB_prefetch_useful 0
Core_0_DTLB_prefetch_useless 0
Core_0_DTLB_prefetch_late 0
Core_0_DTLB_prefetch_accuracy 0
Core_0_DTLB_prefetch_coverage 0

Core_0_STLB_total_access 1149236
Core_0_STLB_total_hit 907271
Core_0_STLB_total_miss 241965
Core_0_STLB_total_MPKI 4.8393
Core_0_STLB_total_miss_rate 0.210544
Core_0_STLB_demand_access 1149236
Core_0_STLB_demand_hit 907271
Core_0_STLB_demand_miss 241965
Core_0_STLB_demand_MPKI 4.8393
Core_0_STLB_demand_miss_rate 0.210544
Core_0_STLB_load_access 1149236
Core_0_STLB_load_hit 907271
Core_0_STLB_load_miss 241965
Core_0_STLB_load_MPKI 4.8393
Core_0_STLB_load_miss_rate 0.210544
Core_0_STLB_rfo_access 0
Core_0_STLB_rfo_hit 0
Core_0_STLB_rfo_miss 0
Core_0_STLB_rfo_MPKI 0
Core_0_STLB_rfo_miss_rate 0
Core_0_STLB_prefetch_access 0
Core_0_STLB_prefetch_hit 0
Core_0_STLB_prefetch_miss 0
Core_0_STLB_prefetch_MPKI 0
Core_0_STLB_prefetch_miss_rate 0
Core_0_STLB_writeback_access 0
Core_0_STLB_writeback_hit 0
Core_0_STLB_writeback_miss 0
Core_0_STLB_writeback_MPKI 0
Core_0_STLB_writeback_miss_rate 0
Core_0_STLB_prefetch_requested 0
Core_0_STLB_prefetch_issued 0
Core_0_STLB_prefetch_useful 0
Core_0_STLB_prefetch_useless 0
Core_0_STLB_prefetch_late 0
Core_0_STLB_prefetch_accuracy 0
Core_0_STLB_prefetch_coverage 0

Core_0_L1I_total_access 7272557
Core_0_L1I_total_hit 7235193
Core_0_L1I_total_miss 37364
Core_0_L1I_total_MPKI 0.74728
Core_0_L1I_total_miss_rate 0.00513767
Core_0_L1I_demand_access 7272557
Core_0_L1I_demand_hit 7235193
Core_0_L1I_demand_miss 37364
Core_0_L1I_demand_MPKI 0.74728
Core_0_L1I_demand_miss_rate 0.00513767
Core_0_L1I_load_access 7272557
Core_0_L1I_load_hit 7235193
Core_0_L1I_load_miss 37364
Core_0_L1I_load_MPKI 0.74728
Core_0_L1I_load_miss_rate 0.00513767
Core_0_L1I_rfo_access 0
Core_0_L1I_rfo_hit 0
Core_0_L1I_rfo_miss 0
Core_0_L1I_rfo_MPKI 0
Core_0_L1I_rfo_miss_rate 0
Core_0_L1I_prefetch_access 0
Core_0_L1I_prefetch_hit 0
Core_0_L1I_prefetch_miss 0
Core_0_L1I_prefetch_MPKI 0
Core_0_L1I_prefetch_miss_rate 0
Core_0_L1I_writeback_access 0
Core_0_L1I_writeback_hit 0
Core_0_L1I_writeback_miss 0
Core_0_L1I_writeback_MPKI 0
Core_0_L1I_writeback_miss_rate 0
Core_0_L1I_prefetch_requested 0
Core_0_L1I_prefetch_issued 0
Core_0_L1I_prefetch_useful 0
Core_0_L1I_prefetch_useless 0
Core_0_L1I_prefetch_late 0
Core_0_L1I_prefetch_accuracy 0
Core_0_L1I_prefetch_coverage 0

Core_0_L1D_total_access 19508539
Core_0_L1D_total_hit 17829707
Core_0_L1D_total_miss 1678832
Core_0_L1D_total_MPKI 33.5766
Core_0_L1D_total_miss_rate 0.0860563
Core_0_L1D_demand_access 9655504
Core_0_L1D_demand_hit 8684891
Core_0_L1D_demand_miss 970613
Core_0_L1D_demand_MPKI 19.4123
Core_0_L1D_demand_miss_rate 0.100524
Core_0_L1D_load_access 9655504
Core_0_L1D_load_hit 8684891
Core_0_L1D_load_miss 970613
Core_0_L1D_load_MPKI 19.4123
Core_0_L1D_load_miss_rate 0.100524
Core_0_L1D_rfo_access 0
Core_0_L1D_rfo_hit 0
Core_0_L1D_rfo_miss 0
Core_0_L1D_rfo_MPKI 0
Core_0_L1D_rfo_miss_rate 0
Core_0_L1D_prefetch_access 1021135
Core_0_L1D_prefetch_hit 627510
Core_0_L1D_prefetch_miss 393625
Core_0_L1D_prefetch_MPKI 7.8725
Core_0_L1D_prefetch_miss_rate 0.385478
Core_0_L1D_writeback_access 8831900
Core_0_L1D_writeback_hit 8517306
Core_0_L1D_writeback_miss 314594
Core_0_L1D_writeback_MPKI 6.29188
Core_0_L1D_writeback_miss_rate 0.0356202
Core_0_L1D_prefetch_requested 1028100
Core_0_L1D_prefetch_issued 1021131
Core_0_L1D_prefetch_useful 113433
Core_0_L1D_prefetch_useless 264723
Core_0_L1D_prefetch_late 14303
Core_0_L1D_prefetch_accuracy 0.111086
Core_0_L1D_prefetch_coverage 0.104639

Core_0_L2C_total_access 3245345
Core_0_L2C_total_hit 1454912
Core_0_L2C_total_miss 1790433
Core_0_L2C_total_MPKI 35.8087
Core_0_L2C_total_miss_rate 0.551693
Core_0_L2C_demand_access 901138
Core_0_L2C_demand_hit 365285
Core_0_L2C_demand_miss 535853
Core_0_L2C_demand_MPKI 10.7171
Core_0_L2C_demand_miss_rate 0.59464
Core_0_L2C_load_access 789830
Core_0_L2C_load_hit 316810
Core_0_L2C_load_miss 473020
Core_0_L2C_load_MPKI 9.4604
Core_0_L2C_load_miss_rate 0.598888
Core_0_L2C_rfo_access 111308
Core_0_L2C_rfo_hit 48475
Core_0_L2C_rfo_miss 62833
Core_0_L2C_rfo_MPKI 1.25666
Core_0_L2C_rfo_miss_rate 0.564497
Core_0_L2C_prefetch_access 1867337
Core_0_L2C_prefetch_hit 614048
Core_0_L2C_prefetch_miss 1253289
Core_0_L2C_prefetch_MPKI 25.0658
Core_0_L2C_prefetch_miss_rate 0.671164
Core_0_L2C_writeback_access 476870
Core_0_L2C_writeback_hit 475579
Core_0_L2C_writeback_miss 1291
Core_0_L2C_writeback_MPKI 0.02582
Core_0_L2C_writeback_miss_rate 0.00270724
Core_0_L2C_prefetch_requested 1494918
Core_0_L2C_prefetch_issued 1489125
Core_0_L2C_prefetch_useful 223491
Core_0_L2C_prefetch_useless 522114
Core_0_L2C_prefetch_late 15233
Core_0_L2C_prefetch_accuracy 0.150082
Core_0_L2C_prefetch_coverage 0.294321

Core_0_LLC_total_access 1860234
Core_0_LLC_total_hit 661433
Core_0_LLC_total_miss 1198801
Core_0_LLC_total_MPKI 23.976
Core_0_LLC_total_miss_rate 0.644436
Core_0_LLC_demand_access 520620
Core_0_LLC_demand_hit 142927
Core_0_LLC_demand_miss 377693
Core_0_LLC_demand_MPKI 7.55386
Core_0_LLC_demand_miss_rate 0.725468
Core_0_LLC_load_access 460308
Core_0_LLC_load_hit 126181
Core_0_LLC_load_miss 334127
Core_0_LLC_load_MPKI 6.68254
Core_0_LLC_load_miss_rate 0.725877
Core_0_LLC_rfo_access 60312
Core_0_LLC_rfo_hit 16746
Core_0_LLC_rfo_miss 43566
Core_0_LLC_rfo_MPKI 0.87132
Core_0_LLC_rfo_miss_rate 0.722344
Core_0_LLC_prefetch_access 967681
Core_0_LLC_prefetch_hit 175943
Core_0_LLC_prefetch_miss 791738
Core_0_LLC_prefetch_MPKI 15.8348
Core_0_LLC_prefetch_miss_rate 0.818181
Core_0_LLC_writeback_access 371933
Core_0_LLC_writeback_hit 342563
Core_0_LLC_writeback_miss 29370
Core_0_LLC_writeback_MPKI 0.5874
Core_0_LLC_writeback_miss_rate 0.0789658
Core_0_LLC_prefetch_requested 0
Core_0_LLC_prefetch_issued 0
Core_0_LLC_prefetch_useful 0
Core_0_LLC_prefetch_useless 0
Core_0_LLC_prefetch_late 0
Core_0_LLC_prefetch_accuracy 0
Core_0_LLC_prefetch_coverage 0

[DRAM Statistics]
Channel_0_RQ_row_buffer_hit 22934
Channel_0_RQ_row_buffer_miss 1207688
Channel_0_WQ_row_buffer_hit 81037
Channel_0_WQ_row_buffer_miss 187245
Channel_0_WQ_full 0
Channel_0_dbus_congested 3922820
DRAM_total_RQ_row_buffer_hit 22934
DRAM_total_RQ_row_buffer_miss 1207688
DRAM_total_WQ_row_buffer_hit 81037
DRAM_total_WQ_row_buffer_miss 187245
DRAM_total_WQ_full 0
DRAM_total_dbus_congested 3922820
DRAM_avg_congested_cycle 12.5548

======STLB miss causes ========
Core_0_STLB_miss_cause_breakdown
Core_0_STLB_cause_Demand_Data_miss 241126
Core_0_STLB_cause_Demand_Data_miss_rate 0.209814
Core_0_STLB_cause_Demand_Instruction_miss 839
Core_0_STLB_cause_Demand_Instruction_miss_rate 0.00073005
Core_0_STLB_cause_L1D_Prefetch_miss 0
Core_0_STLB_cause_L1D_Prefetch_miss_rate 0
Core_0_STLB_cause_L1I_Prefetch_miss 0
Core_0_STLB_cause_L1I_Prefetch_miss_rate 0
Core_0_STLB_cause_Other_miss 0
Core_0_STLB_cause_Other_miss_rate 0
Core_0_STLB_Demand_miss 241965
Core_0_STLB_Demand_miss_rate 0.210544
Core_0_STLB_L1D_Prefetch_miss 0
Core_0_STLB_L1D_Prefetch_miss_rate 0
Core_0_STLB_Other_miss 0
Core_0_STLB_Other_miss_rate 0
