[VMEM] WARNING: physical memory size is smaller than virtual memory size.

*** ChampSim Multicore Out-of-Order Simulator ***
Warmup Instructions: 20000000
Simulation Instructions: 50000000
Number of CPUs: 1
Page size: 4096
STLB ideal mode: l1pref
Core 0: /data0/tzh/champsim_traces/Ligra/ligra_PageRankDelta.com-lj.ungraph.gcc_6.3.0_O3.drop_52000M.length_250M.champsimtrace.xz
 L1D Berti prefetcher
Off-chip DRAM Size: 16 GiB Channels: 1 Width: 64-bit Data Rate: 3205 MT/s
Warmup halting CPU 0 at instruction 20000002 cycle 4524645 for remainder of phase
Warmup finished CPU 0 instructions: 20000002 cycles: 4524645 cumulative IPC: 4.42 (Simulation time: 00 hr 00 min 59 sec)
Warmup complete CPU 0 instructions: 20000002 cycles: 4524645 cumulative IPC: 4.42 (Simulation time: 00 hr 00 min 59 sec)
Simulation finished CPU 0 instructions: 50000001 cycles: 88894646 cumulative IPC: 0.5625 (Simulation time: 00 hr 09 min 37 sec)
Simulation complete CPU 0 instructions: 50000001 cycles: 88894646 cumulative IPC: 0.5625 (Simulation time: 00 hr 09 min 37 sec)

ChampSim completed all CPUs

=== Simulation ===
CPU 0 runs /data0/tzh/champsim_traces/Ligra/ligra_PageRankDelta.com-lj.ungraph.gcc_6.3.0_O3.drop_52000M.length_250M.champsimtrace.xz

Region of Interest Statistics

CPU 0 cumulative IPC: 0.5625 instructions: 50000001 cycles: 88894646
CPU 0 Branch Prediction Accuracy: 90.09% MPKI: 10.67 Average ROB Occupancy at Mispredict: 43.71
Branch type MPKI
BRANCH_DIRECT_JUMP: 0
BRANCH_INDIRECT: 0
BRANCH_CONDITIONAL: 10.67
BRANCH_DIRECT_CALL: 0
BRANCH_INDIRECT_CALL: 0
BRANCH_RETURN: 0

cpu0->cpu0_STLB TOTAL        ACCESS:     385102 HIT:     204904 MISS:     180198 MSHR_MERGE:          0
cpu0->cpu0_STLB LOAD         ACCESS:     385102 HIT:     204904 MISS:     180198 MSHR_MERGE:          0
cpu0->cpu0_STLB RFO          ACCESS:          0 HIT:          0 MISS:          0 MSHR_MERGE:          0
cpu0->cpu0_STLB PREFETCH     ACCESS:          0 HIT:          0 MISS:          0 MSHR_MERGE:          0
cpu0->cpu0_STLB WRITE        ACCESS:          0 HIT:          0 MISS:          0 MSHR_MERGE:          0
cpu0->cpu0_STLB TRANSLATION  ACCESS:          0 HIT:          0 MISS:          0 MSHR_MERGE:          0
cpu0->cpu0_STLB PREFETCH REQUESTED:          0 ISSUED:          0 USEFUL:          0 USELESS:          0 LATE:          0
cpu0->cpu0_STLB AVERAGE MISS LATENCY: 28.23 cycles
cpu0->cpu0_L2C TOTAL        ACCESS:    4552463 HIT:    2863177 MISS:    1689286 MSHR_MERGE:     270889
cpu0->cpu0_L2C LOAD         ACCESS:     537933 HIT:      85943 MISS:     451990 MSHR_MERGE:      11662
cpu0->cpu0_L2C RFO          ACCESS:       1556 HIT:       1556 MISS:          0 MSHR_MERGE:          0
cpu0->cpu0_L2C PREFETCH     ACCESS:    3335222 HIT:    2121628 MISS:    1213594 MSHR_MERGE:     259227
cpu0->cpu0_L2C WRITE        ACCESS:     540339 HIT:     540323 MISS:         16 MSHR_MERGE:          0
cpu0->cpu0_L2C TRANSLATION  ACCESS:     137413 HIT:     113727 MISS:      23686 MSHR_MERGE:          0
cpu0->cpu0_L2C PREFETCH REQUESTED:    2890960 ISSUED:    2882306 USEFUL:     465192 USELESS:     430870 LATE:      11662
cpu0->cpu0_L2C AVERAGE MISS LATENCY: 196.5 cycles
cpu0->cpu0_L1I TOTAL        ACCESS:    1411093 HIT:    1411093 MISS:          0 MSHR_MERGE:          0
cpu0->cpu0_L1I LOAD         ACCESS:    1411093 HIT:    1411093 MISS:          0 MSHR_MERGE:          0
cpu0->cpu0_L1I RFO          ACCESS:          0 HIT:          0 MISS:          0 MSHR_MERGE:          0
cpu0->cpu0_L1I PREFETCH     ACCESS:          0 HIT:          0 MISS:          0 MSHR_MERGE:          0
cpu0->cpu0_L1I WRITE        ACCESS:          0 HIT:          0 MISS:          0 MSHR_MERGE:          0
cpu0->cpu0_L1I TRANSLATION  ACCESS:          0 HIT:          0 MISS:          0 MSHR_MERGE:          0
cpu0->cpu0_L1I PREFETCH REQUESTED:          0 ISSUED:          0 USEFUL:          0 USELESS:          0 LATE:          0
cpu0->cpu0_L1I AVERAGE MISS LATENCY: - cycles
cpu0->cpu0_L1D TOTAL        ACCESS:   16262053 HIT:   14978037 MISS:    1284016 MSHR_MERGE:     154123
cpu0->cpu0_L1D LOAD         ACCESS:   10685693 HIT:    9998068 MISS:     687625 MSHR_MERGE:     149692
cpu0->cpu0_L1D RFO          ACCESS:          0 HIT:          0 MISS:          0 MSHR_MERGE:          0
cpu0->cpu0_L1D PREFETCH     ACCESS:     492943 HIT:      37731 MISS:     455212 MSHR_MERGE:       2312
cpu0->cpu0_L1D WRITE        ACCESS:    4723475 HIT:    4720045 MISS:       3430 MSHR_MERGE:       1783
cpu0->cpu0_L1D TRANSLATION  ACCESS:     359942 HIT:     222193 MISS:     137749 MSHR_MERGE:        336
cpu0->cpu0_L1D PREFETCH REQUESTED:     493334 ISSUED:     492935 USEFUL:     390686 USELESS:      62205 LATE:       5325
cpu0->cpu0_L1D AVERAGE MISS LATENCY: 146.3 cycles
cpu0->cpu0_ITLB TOTAL        ACCESS:    1091852 HIT:    1091852 MISS:          0 MSHR_MERGE:          0
cpu0->cpu0_ITLB LOAD         ACCESS:    1091852 HIT:    1091852 MISS:          0 MSHR_MERGE:          0
cpu0->cpu0_ITLB RFO          ACCESS:          0 HIT:          0 MISS:          0 MSHR_MERGE:          0
cpu0->cpu0_ITLB PREFETCH     ACCESS:          0 HIT:          0 MISS:          0 MSHR_MERGE:          0
cpu0->cpu0_ITLB WRITE        ACCESS:          0 HIT:          0 MISS:          0 MSHR_MERGE:          0
cpu0->cpu0_ITLB TRANSLATION  ACCESS:          0 HIT:          0 MISS:          0 MSHR_MERGE:          0
cpu0->cpu0_ITLB PREFETCH REQUESTED:          0 ISSUED:          0 USEFUL:          0 USELESS:          0 LATE:          0
cpu0->cpu0_ITLB AVERAGE MISS LATENCY: - cycles
cpu0->cpu0_DTLB TOTAL        ACCESS:   15336337 HIT:   14865942 MISS:     470395 MSHR_MERGE:      85293
cpu0->cpu0_DTLB LOAD         ACCESS:   15336337 HIT:   14865942 MISS:     470395 MSHR_MERGE:      85293
cpu0->cpu0_DTLB RFO          ACCESS:          0 HIT:          0 MISS:          0 MSHR_MERGE:          0
cpu0->cpu0_DTLB PREFETCH     ACCESS:          0 HIT:          0 MISS:          0 MSHR_MERGE:          0
cpu0->cpu0_DTLB WRITE        ACCESS:          0 HIT:          0 MISS:          0 MSHR_MERGE:          0
cpu0->cpu0_DTLB TRANSLATION  ACCESS:          0 HIT:          0 MISS:          0 MSHR_MERGE:          0
cpu0->cpu0_DTLB PREFETCH REQUESTED:          0 ISSUED:          0 USEFUL:          0 USELESS:          0 LATE:          0
cpu0->cpu0_DTLB AVERAGE MISS LATENCY: 18.68 cycles
cpu0->LLC TOTAL        ACCESS:    1942829 HIT:     365990 MISS:    1576839 MSHR_MERGE:          0
cpu0->LLC LOAD         ACCESS:     440328 HIT:      77923 MISS:     362405 MSHR_MERGE:          0
cpu0->LLC RFO          ACCESS:          0 HIT:          0 MISS:          0 MSHR_MERGE:          0
cpu0->LLC PREFETCH     ACCESS:     954367 HIT:      98399 MISS:     855968 MSHR_MERGE:          0
cpu0->LLC WRITE        ACCESS:     524448 HIT:     168922 MISS:     355526 MSHR_MERGE:          0
cpu0->LLC TRANSLATION  ACCESS:      23686 HIT:      20746 MISS:       2940 MSHR_MERGE:          0
cpu0->LLC PREFETCH REQUESTED:          0 ISSUED:          0 USEFUL:          0 USELESS:          0 LATE:          0
cpu0->LLC AVERAGE MISS LATENCY: 121 cycles

DRAM Statistics

Channel 0 RQ ROW_BUFFER_HIT:       6751
  ROW_BUFFER_MISS:    1214337
  AVG DBUS CONGESTED CYCLE: 6.337
Channel 0 WQ ROW_BUFFER_HIT:     128798
  ROW_BUFFER_MISS:     302651
  FULL:          0
Channel 0 REFRESHES ISSUED:       7407

[ROI Statistics]
[System Configuration]
num_cpus 1
cpu_freq 4000
fetch_width 6
decode_width 6
dispatch_width 6
execute_width 6
lq_width 2
sq_width 2
retire_width 6
scheduler_size 128
branch_mispredict_penalty 15
rob_size 352
lq_size 128
sq_size 72
ifetch_buffer_size 64
decode_buffer_size 32
dispatch_buffer_size 32
register_file_size 288
decode_latency 1
dispatch_latency 1
schedule_latency 1
execute_latency 1
page_size 4096
block_size 64
core_0_itlb_set 16
core_0_itlb_way 4
core_0_itlb_rq_size 16
core_0_itlb_wq_size 16
core_0_itlb_pq_size 0
core_0_itlb_mshr_size 8
core_0_itlb_hit_latency 1
core_0_itlb_fill_latency 1
core_0_itlb_max_tag_check 2
core_0_itlb_max_fill 2
core_0_dtlb_set 16
core_0_dtlb_way 4
core_0_dtlb_rq_size 16
core_0_dtlb_wq_size 16
core_0_dtlb_pq_size 0
core_0_dtlb_mshr_size 8
core_0_dtlb_hit_latency 1
core_0_dtlb_fill_latency 1
core_0_dtlb_max_tag_check 2
core_0_dtlb_max_fill 2
core_0_stlb_set 128
core_0_stlb_way 12
core_0_stlb_rq_size 32
core_0_stlb_wq_size 32
core_0_stlb_pq_size 0
core_0_stlb_mshr_size 16
core_0_stlb_hit_latency 4
core_0_stlb_fill_latency 4
core_0_stlb_max_tag_check 1
core_0_stlb_max_fill 1
core_0_l1i_set 64
core_0_l1i_way 8
core_0_l1i_rq_size 64
core_0_l1i_wq_size 64
core_0_l1i_pq_size 32
core_0_l1i_mshr_size 8
core_0_l1i_hit_latency 2
core_0_l1i_fill_latency 2
core_0_l1i_max_tag_check 2
core_0_l1i_max_fill 2
core_0_l1d_set 64
core_0_l1d_way 12
core_0_l1d_rq_size 64
core_0_l1d_wq_size 64
core_0_l1d_pq_size 8
core_0_l1d_mshr_size 16
core_0_l1d_hit_latency 2
core_0_l1d_fill_latency 3
core_0_l1d_max_tag_check 2
core_0_l1d_max_fill 2
core_0_l2c_set 1024
core_0_l2c_way 8
core_0_l2c_rq_size 32
core_0_l2c_wq_size 32
core_0_l2c_pq_size 16
core_0_l2c_mshr_size 32
core_0_l2c_hit_latency 5
core_0_l2c_fill_latency 5
core_0_l2c_max_tag_check 1
core_0_l2c_max_fill 1
llc_set 2048
llc_way 16
llc_rq_size 32
llc_wq_size 32
llc_pq_size 32
llc_mshr_size 64
llc_hit_latency 10
llc_fill_latency 10
llc_max_tag_check 1
llc_max_fill 1
dram_channels 1
dram_ranks 1
dram_bankgroups 8
dram_banks 4
dram_rows 65536
dram_columns 1024
dram_channel_width 8
dram_rq_size 64
dram_wq_size 64
dram_size 17179869184
core_0_itlb_prefetcher no
core_0_dtlb_prefetcher no
core_0_stlb_prefetcher no
core_0_l1i_prefetcher next_line
core_0_l1d_prefetcher berti
core_0_l2c_prefetcher pythia
llc_prefetcher no
llc_replacement drrip

Core_0_instructions 50000001
Core_0_cycles 88894646
Core_0_IPC 0.562464
Core_0_branch_prediction_accuracy 90.0906
Core_0_branch_MPKI 10.6679
Core_0_average_ROB_occupancy_at_mispredict 43.7148

Core_0_ITLB_total_access 1091852
Core_0_ITLB_total_hit 1091852
Core_0_ITLB_total_miss 0
Core_0_ITLB_total_MPKI 0
Core_0_ITLB_total_miss_rate 0
Core_0_ITLB_demand_access 1091852
Core_0_ITLB_demand_hit 1091852
Core_0_ITLB_demand_miss 0
Core_0_ITLB_demand_MPKI 0
Core_0_ITLB_demand_miss_rate 0
Core_0_ITLB_load_access 1091852
Core_0_ITLB_load_hit 1091852
Core_0_ITLB_load_miss 0
Core_0_ITLB_load_MPKI 0
Core_0_ITLB_load_miss_rate 0
Core_0_ITLB_rfo_access 0
Core_0_ITLB_rfo_hit 0
Core_0_ITLB_rfo_miss 0
Core_0_ITLB_rfo_MPKI 0
Core_0_ITLB_rfo_miss_rate 0
Core_0_ITLB_prefetch_access 0
Core_0_ITLB_prefetch_hit 0
Core_0_ITLB_prefetch_miss 0
Core_0_ITLB_prefetch_MPKI 0
Core_0_ITLB_prefetch_miss_rate 0
Core_0_ITLB_writeback_access 0
Core_0_ITLB_writeback_hit 0
Core_0_ITLB_writeback_miss 0
Core_0_ITLB_writeback_MPKI 0
Core_0_ITLB_writeback_miss_rate 0
Core_0_ITLB_prefetch_requested 0
Core_0_ITLB_prefetch_issued 0
Core_0_ITLB_prefetch_useful 0
Core_0_ITLB_prefetch_useless 0
Core_0_ITLB_prefetch_late 0
Core_0_ITLB_prefetch_accuracy 0
Core_0_ITLB_prefetch_coverage 0

Core_0_DTLB_total_access 15336337
Core_0_DTLB_total_hit 14865942
Core_0_DTLB_total_miss 470395
Core_0_DTLB_total_MPKI 9.4079
Core_0_DTLB_total_miss_rate 0.0306719
Core_0_DTLB_demand_access 15336337
Core_0_DTLB_demand_hit 14865942
Core_0_DTLB_demand_miss 470395
Core_0_DTLB_demand_MPKI 9.4079
Core_0_DTLB_demand_miss_rate 0.0306719
Core_0_DTLB_load_access 15336337
Core_0_DTLB_load_hit 14865942
Core_0_DTLB_load_miss 470395
Core_0_DTLB_load_MPKI 9.4079
Core_0_DTLB_load_miss_rate 0.0306719
Core_0_DTLB_rfo_access 0
Core_0_DTLB_rfo_hit 0
Core_0_DTLB_rfo_miss 0
Core_0_DTLB_rfo_MPKI 0
Core_0_DTLB_rfo_miss_rate 0
Core_0_DTLB_prefetch_access 0
Core_0_DTLB_prefetch_hit 0
Core_0_DTLB_prefetch_miss 0
Core_0_DTLB_prefetch_MPKI 0
Core_0_DTLB_prefetch_miss_rate 0
Core_0_DTLB_writeback_access 0
Core_0_DTLB_writeback_hit 0
Core_0_DTLB_writeback_miss 0
Core_0_DTLB_writeback_MPKI 0
Core_0_DTLB_writeback_miss_rate 0
Core_0_DTLB_prefetch_requested 0
Core_0_DTLB_prefetch_issued 0
Core_0_DTLB_prefetch_useful 0
Core_0_DTLB_prefetch_useless 0
Core_0_DTLB_prefetch_late 0
Core_0_DTLB_prefetch_accuracy 0
Core_0_DTLB_prefetch_coverage 0

Core_0_STLB_total_access 385102
Core_0_STLB_total_hit 204904
Core_0_STLB_total_miss 180198
Core_0_STLB_total_MPKI 3.60396
Core_0_STLB_total_miss_rate 0.467923
Core_0_STLB_demand_access 385102
Core_0_STLB_demand_hit 204904
Core_0_STLB_demand_miss 180198
Core_0_STLB_demand_MPKI 3.60396
Core_0_STLB_demand_miss_rate 0.467923
Core_0_STLB_load_access 385102
Core_0_STLB_load_hit 204904
Core_0_STLB_load_miss 180198
Core_0_STLB_load_MPKI 3.60396
Core_0_STLB_load_miss_rate 0.467923
Core_0_STLB_rfo_access 0
Core_0_STLB_rfo_hit 0
Core_0_STLB_rfo_miss 0
Core_0_STLB_rfo_MPKI 0
Core_0_STLB_rfo_miss_rate 0
Core_0_STLB_prefetch_access 0
Core_0_STLB_prefetch_hit 0
Core_0_STLB_prefetch_miss 0
Core_0_STLB_prefetch_MPKI 0
Core_0_STLB_prefetch_miss_rate 0
Core_0_STLB_writeback_access 0
Core_0_STLB_writeback_hit 0
Core_0_STLB_writeback_miss 0
Core_0_STLB_writeback_MPKI 0
Core_0_STLB_writeback_miss_rate 0
Core_0_STLB_prefetch_requested 0
Core_0_STLB_prefetch_issued 0
Core_0_STLB_prefetch_useful 0
Core_0_STLB_prefetch_useless 0
Core_0_STLB_prefetch_late 0
Core_0_STLB_prefetch_accuracy 0
Core_0_STLB_prefetch_coverage 0

Core_0_L1I_total_access 1411093
Core_0_L1I_total_hit 1411093
Core_0_L1I_total_miss 0
Core_0_L1I_total_MPKI 0
Core_0_L1I_total_miss_rate 0
Core_0_L1I_demand_access 1411093
Core_0_L1I_demand_hit 1411093
Core_0_L1I_demand_miss 0
Core_0_L1I_demand_MPKI 0
Core_0_L1I_demand_miss_rate 0
Core_0_L1I_load_access 1411093
Core_0_L1I_load_hit 1411093
Core_0_L1I_load_miss 0
Core_0_L1I_load_MPKI 0
Core_0_L1I_load_miss_rate 0
Core_0_L1I_rfo_access 0
Core_0_L1I_rfo_hit 0
Core_0_L1I_rfo_miss 0
Core_0_L1I_rfo_MPKI 0
Core_0_L1I_rfo_miss_rate 0
Core_0_L1I_prefetch_access 0
Core_0_L1I_prefetch_hit 0
Core_0_L1I_prefetch_miss 0
Core_0_L1I_prefetch_MPKI 0
Core_0_L1I_prefetch_miss_rate 0
Core_0_L1I_writeback_access 0
Core_0_L1I_writeback_hit 0
Core_0_L1I_writeback_miss 0
Core_0_L1I_writeback_MPKI 0
Core_0_L1I_writeback_miss_rate 0
Core_0_L1I_prefetch_requested 0
Core_0_L1I_prefetch_issued 0
Core_0_L1I_prefetch_useful 0
Core_0_L1I_prefetch_useless 0
Core_0_L1I_prefetch_late 0
Core_0_L1I_prefetch_accuracy 0
Core_0_L1I_prefetch_coverage 0

Core_0_L1D_total_access 15902111
Core_0_L1D_total_hit 14755844
Core_0_L1D_total_miss 1146267
Core_0_L1D_total_MPKI 22.9253
Core_0_L1D_total_miss_rate 0.0720827
Core_0_L1D_demand_access 10685693
Core_0_L1D_demand_hit 9998068
Core_0_L1D_demand_miss 687625
Core_0_L1D_demand_MPKI 13.7525
Core_0_L1D_demand_miss_rate 0.0643501
Core_0_L1D_load_access 10685693
Core_0_L1D_load_hit 9998068
Core_0_L1D_load_miss 687625
Core_0_L1D_load_MPKI 13.7525
Core_0_L1D_load_miss_rate 0.0643501
Core_0_L1D_rfo_access 0
Core_0_L1D_rfo_hit 0
Core_0_L1D_rfo_miss 0
Core_0_L1D_rfo_MPKI 0
Core_0_L1D_rfo_miss_rate 0
Core_0_L1D_prefetch_access 492943
Core_0_L1D_prefetch_hit 37731
Core_0_L1D_prefetch_miss 455212
Core_0_L1D_prefetch_MPKI 9.10424
Core_0_L1D_prefetch_miss_rate 0.923458
Core_0_L1D_writeback_access 4723475
Core_0_L1D_writeback_hit 4720045
Core_0_L1D_writeback_miss 3430
Core_0_L1D_writeback_MPKI 0.0686
Core_0_L1D_writeback_miss_rate 0.00072616
Core_0_L1D_prefetch_requested 493334
Core_0_L1D_prefetch_issued 492935
Core_0_L1D_prefetch_useful 390686
Core_0_L1D_prefetch_useless 62205
Core_0_L1D_prefetch_late 5325
Core_0_L1D_prefetch_accuracy 0.792571
Core_0_L1D_prefetch_coverage 0.362313

Core_0_L2C_total_access 4415050
Core_0_L2C_total_hit 2749450
Core_0_L2C_total_miss 1665600
Core_0_L2C_total_MPKI 33.312
Core_0_L2C_total_miss_rate 0.377255
Core_0_L2C_demand_access 539489
Core_0_L2C_demand_hit 87499
Core_0_L2C_demand_miss 451990
Core_0_L2C_demand_MPKI 9.0398
Core_0_L2C_demand_miss_rate 0.837811
Core_0_L2C_load_access 537933
Core_0_L2C_load_hit 85943
Core_0_L2C_load_miss 451990
Core_0_L2C_load_MPKI 9.0398
Core_0_L2C_load_miss_rate 0.840235
Core_0_L2C_rfo_access 1556
Core_0_L2C_rfo_hit 1556
Core_0_L2C_rfo_miss 0
Core_0_L2C_rfo_MPKI 0
Core_0_L2C_rfo_miss_rate 0
Core_0_L2C_prefetch_access 3335222
Core_0_L2C_prefetch_hit 2121628
Core_0_L2C_prefetch_miss 1213594
Core_0_L2C_prefetch_MPKI 24.2719
Core_0_L2C_prefetch_miss_rate 0.363872
Core_0_L2C_writeback_access 540339
Core_0_L2C_writeback_hit 540323
Core_0_L2C_writeback_miss 16
Core_0_L2C_writeback_MPKI 0.00032
Core_0_L2C_writeback_miss_rate 2.9611e-05
Core_0_L2C_prefetch_requested 2890960
Core_0_L2C_prefetch_issued 2882306
Core_0_L2C_prefetch_useful 465192
Core_0_L2C_prefetch_useless 430870
Core_0_L2C_prefetch_late 11662
Core_0_L2C_prefetch_accuracy 0.161396
Core_0_L2C_prefetch_coverage 0.507197

Core_0_LLC_total_access 1919143
Core_0_LLC_total_hit 345244
Core_0_LLC_total_miss 1573899
Core_0_LLC_total_MPKI 31.478
Core_0_LLC_total_miss_rate 0.820105
Core_0_LLC_demand_access 440328
Core_0_LLC_demand_hit 77923
Core_0_LLC_demand_miss 362405
Core_0_LLC_demand_MPKI 7.2481
Core_0_LLC_demand_miss_rate 0.823034
Core_0_LLC_load_access 440328
Core_0_LLC_load_hit 77923
Core_0_LLC_load_miss 362405
Core_0_LLC_load_MPKI 7.2481
Core_0_LLC_load_miss_rate 0.823034
Core_0_LLC_rfo_access 0
Core_0_LLC_rfo_hit 0
Core_0_LLC_rfo_miss 0
Core_0_LLC_rfo_MPKI 0
Core_0_LLC_rfo_miss_rate 0
Core_0_LLC_prefetch_access 954367
Core_0_LLC_prefetch_hit 98399
Core_0_LLC_prefetch_miss 855968
Core_0_LLC_prefetch_MPKI 17.1194
Core_0_LLC_prefetch_miss_rate 0.896896
Core_0_LLC_writeback_access 524448
Core_0_LLC_writeback_hit 168922
Core_0_LLC_writeback_miss 355526
Core_0_LLC_writeback_MPKI 7.11052
Core_0_LLC_writeback_miss_rate 0.677905
Core_0_LLC_prefetch_requested 0
Core_0_LLC_prefetch_issued 0
Core_0_LLC_prefetch_useful 0
Core_0_LLC_prefetch_useless 0
Core_0_LLC_prefetch_late 0
Core_0_LLC_prefetch_accuracy 0
Core_0_LLC_prefetch_coverage 0

[DRAM Statistics]
Channel_0_RQ_row_buffer_hit 6751
Channel_0_RQ_row_buffer_miss 1214337
Channel_0_WQ_row_buffer_hit 128798
Channel_0_WQ_row_buffer_miss 302651
Channel_0_WQ_full 0
Channel_0_dbus_congested 4434694
DRAM_total_RQ_row_buffer_hit 6751
DRAM_total_RQ_row_buffer_miss 1214337
DRAM_total_WQ_row_buffer_hit 128798
DRAM_total_WQ_row_buffer_miss 302651
DRAM_total_WQ_full 0
DRAM_total_dbus_congested 4434694
DRAM_avg_congested_cycle 6.33707

======STLB miss causes ========
Core_0_STLB_miss_cause_breakdown
Core_0_STLB_cause_Demand_Data_miss 180198
Core_0_STLB_cause_Demand_Data_miss_rate 0.467923
Core_0_STLB_cause_Demand_Instruction_miss 0
Core_0_STLB_cause_Demand_Instruction_miss_rate 0
Core_0_STLB_cause_L1D_Prefetch_miss 0
Core_0_STLB_cause_L1D_Prefetch_miss_rate 0
Core_0_STLB_cause_L1I_Prefetch_miss 0
Core_0_STLB_cause_L1I_Prefetch_miss_rate 0
Core_0_STLB_cause_Other_miss 0
Core_0_STLB_cause_Other_miss_rate 0
Core_0_STLB_Demand_miss 180198
Core_0_STLB_Demand_miss_rate 0.467923
Core_0_STLB_L1D_Prefetch_miss 0
Core_0_STLB_L1D_Prefetch_miss_rate 0
Core_0_STLB_Other_miss 0
Core_0_STLB_Other_miss_rate 0
