[VMEM] WARNING: physical memory size is smaller than virtual memory size.

*** ChampSim Multicore Out-of-Order Simulator ***
Warmup Instructions: 20000000
Simulation Instructions: 50000000
Number of CPUs: 1
Page size: 4096
Core 0: /data0/tzh/champsim_traces/SPEC06/433.milc-337B.champsimtrace.xz
Off-chip DRAM Size: 16 GiB Channels: 1 Width: 64-bit Data Rate: 3205 MT/s
Warmup halting CPU 0 at instruction 20000000 cycle 7267469 for remainder of phase
Warmup finished CPU 0 instructions: 20000000 cycles: 7267469 cumulative IPC: 2.752 (Simulation time: 00 hr 01 min 14 sec)
Warmup complete CPU 0 instructions: 20000000 cycles: 7267469 cumulative IPC: 2.752 (Simulation time: 00 hr 01 min 14 sec)
Simulation finished CPU 0 instructions: 50000001 cycles: 59350603 cumulative IPC: 0.8425 (Simulation time: 00 hr 10 min 13 sec)
Simulation complete CPU 0 instructions: 50000001 cycles: 59350603 cumulative IPC: 0.8425 (Simulation time: 00 hr 10 min 13 sec)

ChampSim completed all CPUs

=== Simulation ===
CPU 0 runs /data0/tzh/champsim_traces/SPEC06/433.milc-337B.champsimtrace.xz

Region of Interest Statistics

CPU 0 cumulative IPC: 0.8425 instructions: 50000001 cycles: 59350603
CPU 0 Branch Prediction Accuracy: 100% MPKI: 0.00042 Average ROB Occupancy at Mispredict: 56.38
Branch type MPKI
BRANCH_DIRECT_JUMP: 4e-05
BRANCH_INDIRECT: 0
BRANCH_CONDITIONAL: 0.00022
BRANCH_DIRECT_CALL: 8e-05
BRANCH_INDIRECT_CALL: 0
BRANCH_RETURN: 8e-05

cpu0->cpu0_STLB TOTAL        ACCESS:      78714 HIT:        459 MISS:      78255 MSHR_MERGE:          0
cpu0->cpu0_STLB LOAD         ACCESS:      78714 HIT:        459 MISS:      78255 MSHR_MERGE:          0
cpu0->cpu0_STLB RFO          ACCESS:          0 HIT:          0 MISS:          0 MSHR_MERGE:          0
cpu0->cpu0_STLB PREFETCH     ACCESS:          0 HIT:          0 MISS:          0 MSHR_MERGE:          0
cpu0->cpu0_STLB WRITE        ACCESS:          0 HIT:          0 MISS:          0 MSHR_MERGE:          0
cpu0->cpu0_STLB TRANSLATION  ACCESS:          0 HIT:          0 MISS:          0 MSHR_MERGE:          0
cpu0->cpu0_STLB PREFETCH REQUESTED:          0 ISSUED:          0 USEFUL:          0 USELESS:          0 LATE:          0
cpu0->cpu0_STLB AVERAGE MISS LATENCY: 234.9 cycles
cpu0->cpu0_L2C TOTAL        ACCESS:    1251327 HIT:     312338 MISS:     938989 MSHR_MERGE:          0
cpu0->cpu0_L2C LOAD         ACCESS:     617341 HIT:         83 MISS:     617258 MSHR_MERGE:          0
cpu0->cpu0_L2C RFO          ACCESS:     311858 HIT:          0 MISS:     311858 MSHR_MERGE:          0
cpu0->cpu0_L2C PREFETCH     ACCESS:          0 HIT:          0 MISS:          0 MSHR_MERGE:          0
cpu0->cpu0_L2C WRITE        ACCESS:     311355 HIT:     311354 MISS:          1 MSHR_MERGE:          0
cpu0->cpu0_L2C TRANSLATION  ACCESS:      10773 HIT:        901 MISS:       9872 MSHR_MERGE:          0
cpu0->cpu0_L2C PREFETCH REQUESTED:          0 ISSUED:          0 USEFUL:          0 USELESS:          0 LATE:          0
cpu0->cpu0_L2C AVERAGE MISS LATENCY: 245.3 cycles
cpu0->cpu0_L1I TOTAL        ACCESS:    8186637 HIT:    8186623 MISS:         14 MSHR_MERGE:          2
cpu0->cpu0_L1I LOAD         ACCESS:    8186637 HIT:    8186623 MISS:         14 MSHR_MERGE:          2
cpu0->cpu0_L1I RFO          ACCESS:          0 HIT:          0 MISS:          0 MSHR_MERGE:          0
cpu0->cpu0_L1I PREFETCH     ACCESS:          0 HIT:          0 MISS:          0 MSHR_MERGE:          0
cpu0->cpu0_L1I WRITE        ACCESS:          0 HIT:          0 MISS:          0 MSHR_MERGE:          0
cpu0->cpu0_L1I TRANSLATION  ACCESS:          0 HIT:          0 MISS:          0 MSHR_MERGE:          0
cpu0->cpu0_L1I PREFETCH REQUESTED:          0 ISSUED:          0 USEFUL:          0 USELESS:          0 LATE:          0
cpu0->cpu0_L1I AVERAGE MISS LATENCY: 208.9 cycles
cpu0->cpu0_L1D TOTAL        ACCESS:    9462313 HIT:    3953183 MISS:    5509130 MSHR_MERGE:    4569171
cpu0->cpu0_L1D LOAD         ACCESS:    7106008 HIT:    3378551 MISS:    3727457 MSHR_MERGE:    3110128
cpu0->cpu0_L1D RFO          ACCESS:          0 HIT:          0 MISS:          0 MSHR_MERGE:          0
cpu0->cpu0_L1D PREFETCH     ACCESS:          0 HIT:          0 MISS:          0 MSHR_MERGE:          0
cpu0->cpu0_L1D WRITE        ACCESS:    2199635 HIT:     428735 MISS:    1770900 MSHR_MERGE:    1459043
cpu0->cpu0_L1D TRANSLATION  ACCESS:     156670 HIT:     145897 MISS:      10773 MSHR_MERGE:          0
cpu0->cpu0_L1D PREFETCH REQUESTED:          0 ISSUED:          0 USEFUL:          0 USELESS:          0 LATE:          0
cpu0->cpu0_L1D AVERAGE MISS LATENCY: 254.1 cycles
cpu0->cpu0_ITLB TOTAL        ACCESS:    6867593 HIT:    6867592 MISS:          1 MSHR_MERGE:          0
cpu0->cpu0_ITLB LOAD         ACCESS:    6867593 HIT:    6867592 MISS:          1 MSHR_MERGE:          0
cpu0->cpu0_ITLB RFO          ACCESS:          0 HIT:          0 MISS:          0 MSHR_MERGE:          0
cpu0->cpu0_ITLB PREFETCH     ACCESS:          0 HIT:          0 MISS:          0 MSHR_MERGE:          0
cpu0->cpu0_ITLB WRITE        ACCESS:          0 HIT:          0 MISS:          0 MSHR_MERGE:          0
cpu0->cpu0_ITLB TRANSLATION  ACCESS:          0 HIT:          0 MISS:          0 MSHR_MERGE:          0
cpu0->cpu0_ITLB PREFETCH REQUESTED:          0 ISSUED:          0 USEFUL:          0 USELESS:          0 LATE:          0
cpu0->cpu0_ITLB AVERAGE MISS LATENCY: 671 cycles
cpu0->cpu0_DTLB TOTAL        ACCESS:    8874628 HIT:    8124247 MISS:     750381 MSHR_MERGE:     671668
cpu0->cpu0_DTLB LOAD         ACCESS:    8874628 HIT:    8124247 MISS:     750381 MSHR_MERGE:     671668
cpu0->cpu0_DTLB RFO          ACCESS:          0 HIT:          0 MISS:          0 MSHR_MERGE:          0
cpu0->cpu0_DTLB PREFETCH     ACCESS:          0 HIT:          0 MISS:          0 MSHR_MERGE:          0
cpu0->cpu0_DTLB WRITE        ACCESS:          0 HIT:          0 MISS:          0 MSHR_MERGE:          0
cpu0->cpu0_DTLB TRANSLATION  ACCESS:          0 HIT:          0 MISS:          0 MSHR_MERGE:          0
cpu0->cpu0_DTLB PREFETCH REQUESTED:          0 ISSUED:          0 USEFUL:          0 USELESS:          0 LATE:          0
cpu0->cpu0_DTLB AVERAGE MISS LATENCY: 239.5 cycles
cpu0->LLC TOTAL        ACCESS:    1245456 HIT:     192552 MISS:    1052904 MSHR_MERGE:          0
cpu0->LLC LOAD         ACCESS:     617258 HIT:       1097 MISS:     616161 MSHR_MERGE:          0
cpu0->LLC RFO          ACCESS:     311858 HIT:        754 MISS:     311104 MSHR_MERGE:          0
cpu0->LLC PREFETCH     ACCESS:          0 HIT:          0 MISS:          0 MSHR_MERGE:          0
cpu0->LLC WRITE        ACCESS:     306468 HIT:     190695 MISS:     115773 MSHR_MERGE:          0
cpu0->LLC TRANSLATION  ACCESS:       9872 HIT:          6 MISS:       9866 MSHR_MERGE:          0
cpu0->LLC PREFETCH REQUESTED:          0 ISSUED:          0 USEFUL:          0 USELESS:          0 LATE:          0
cpu0->LLC AVERAGE MISS LATENCY: 205.5 cycles

DRAM Statistics

Channel 0 RQ ROW_BUFFER_HIT:     142897
  ROW_BUFFER_MISS:     794224
  AVG DBUS CONGESTED CYCLE: 10.14
Channel 0 WQ ROW_BUFFER_HIT:      86168
  ROW_BUFFER_MISS:     194122
  FULL:          0
Channel 0 REFRESHES ISSUED:       4946

[ROI Statistics]
[System Configuration]
num_cpus 1
cpu_freq 4000
fetch_width 6
decode_width 6
dispatch_width 6
execute_width 6
lq_width 2
sq_width 2
retire_width 6
scheduler_size 128
branch_mispredict_penalty 15
rob_size 352
lq_size 128
sq_size 72
ifetch_buffer_size 64
decode_buffer_size 32
dispatch_buffer_size 32
register_file_size 288
decode_latency 1
dispatch_latency 1
schedule_latency 1
execute_latency 1
page_size 4096
block_size 64
core_0_itlb_set 16
core_0_itlb_way 4
core_0_itlb_rq_size 16
core_0_itlb_wq_size 16
core_0_itlb_pq_size 0
core_0_itlb_mshr_size 8
core_0_itlb_hit_latency 1
core_0_itlb_fill_latency 1
core_0_itlb_max_tag_check 2
core_0_itlb_max_fill 2
core_0_dtlb_set 16
core_0_dtlb_way 4
core_0_dtlb_rq_size 16
core_0_dtlb_wq_size 16
core_0_dtlb_pq_size 0
core_0_dtlb_mshr_size 8
core_0_dtlb_hit_latency 1
core_0_dtlb_fill_latency 1
core_0_dtlb_max_tag_check 2
core_0_dtlb_max_fill 2
core_0_stlb_set 128
core_0_stlb_way 12
core_0_stlb_rq_size 32
core_0_stlb_wq_size 32
core_0_stlb_pq_size 0
core_0_stlb_mshr_size 16
core_0_stlb_hit_latency 4
core_0_stlb_fill_latency 4
core_0_stlb_max_tag_check 1
core_0_stlb_max_fill 1
core_0_l1i_set 64
core_0_l1i_way 8
core_0_l1i_rq_size 64
core_0_l1i_wq_size 64
core_0_l1i_pq_size 32
core_0_l1i_mshr_size 8
core_0_l1i_hit_latency 2
core_0_l1i_fill_latency 2
core_0_l1i_max_tag_check 2
core_0_l1i_max_fill 2
core_0_l1d_set 64
core_0_l1d_way 12
core_0_l1d_rq_size 64
core_0_l1d_wq_size 64
core_0_l1d_pq_size 8
core_0_l1d_mshr_size 16
core_0_l1d_hit_latency 2
core_0_l1d_fill_latency 3
core_0_l1d_max_tag_check 2
core_0_l1d_max_fill 2
core_0_l2c_set 1024
core_0_l2c_way 8
core_0_l2c_rq_size 32
core_0_l2c_wq_size 32
core_0_l2c_pq_size 16
core_0_l2c_mshr_size 32
core_0_l2c_hit_latency 5
core_0_l2c_fill_latency 5
core_0_l2c_max_tag_check 1
core_0_l2c_max_fill 1
llc_set 2048
llc_way 16
llc_rq_size 32
llc_wq_size 32
llc_pq_size 32
llc_mshr_size 64
llc_hit_latency 10
llc_fill_latency 10
llc_max_tag_check 1
llc_max_fill 1
dram_channels 1
dram_ranks 1
dram_bankgroups 8
dram_banks 4
dram_rows 65536
dram_columns 1024
dram_channel_width 8
dram_rq_size 64
dram_wq_size 64
dram_size 17179869184
core_0_itlb_prefetcher no
core_0_dtlb_prefetcher no
core_0_stlb_prefetcher no
core_0_l1i_prefetcher no
core_0_l1d_prefetcher no
core_0_l2c_prefetcher no
llc_prefetcher no
llc_replacement drrip

Core_0_instructions 50000001
Core_0_cycles 59350603
Core_0_IPC 0.842451
Core_0_branch_prediction_accuracy 99.9988
Core_0_branch_MPKI 0.00042
Core_0_average_ROB_occupancy_at_mispredict 56.381

Core_0_ITLB_total_access 6867593
Core_0_ITLB_total_hit 6867592
Core_0_ITLB_total_miss 1
Core_0_ITLB_total_MPKI 2e-05
Core_0_ITLB_total_miss_rate 1.45611e-07
Core_0_ITLB_demand_access 6867593
Core_0_ITLB_demand_hit 6867592
Core_0_ITLB_demand_miss 1
Core_0_ITLB_demand_MPKI 2e-05
Core_0_ITLB_demand_miss_rate 1.45611e-07
Core_0_ITLB_load_access 6867593
Core_0_ITLB_load_hit 6867592
Core_0_ITLB_load_miss 1
Core_0_ITLB_load_MPKI 2e-05
Core_0_ITLB_load_miss_rate 1.45611e-07
Core_0_ITLB_rfo_access 0
Core_0_ITLB_rfo_hit 0
Core_0_ITLB_rfo_miss 0
Core_0_ITLB_rfo_MPKI 0
Core_0_ITLB_rfo_miss_rate 0
Core_0_ITLB_prefetch_access 0
Core_0_ITLB_prefetch_hit 0
Core_0_ITLB_prefetch_miss 0
Core_0_ITLB_prefetch_MPKI 0
Core_0_ITLB_prefetch_miss_rate 0
Core_0_ITLB_writeback_access 0
Core_0_ITLB_writeback_hit 0
Core_0_ITLB_writeback_miss 0
Core_0_ITLB_writeback_MPKI 0
Core_0_ITLB_writeback_miss_rate 0
Core_0_ITLB_prefetch_requested 0
Core_0_ITLB_prefetch_issued 0
Core_0_ITLB_prefetch_useful 0
Core_0_ITLB_prefetch_useless 0
Core_0_ITLB_prefetch_late 0
Core_0_ITLB_prefetch_accuracy 0
Core_0_ITLB_prefetch_coverage 0

Core_0_DTLB_total_access 8874628
Core_0_DTLB_total_hit 8124247
Core_0_DTLB_total_miss 750381
Core_0_DTLB_total_MPKI 15.0076
Core_0_DTLB_total_miss_rate 0.0845535
Core_0_DTLB_demand_access 8874628
Core_0_DTLB_demand_hit 8124247
Core_0_DTLB_demand_miss 750381
Core_0_DTLB_demand_MPKI 15.0076
Core_0_DTLB_demand_miss_rate 0.0845535
Core_0_DTLB_load_access 8874628
Core_0_DTLB_load_hit 8124247
Core_0_DTLB_load_miss 750381
Core_0_DTLB_load_MPKI 15.0076
Core_0_DTLB_load_miss_rate 0.0845535
Core_0_DTLB_rfo_access 0
Core_0_DTLB_rfo_hit 0
Core_0_DTLB_rfo_miss 0
Core_0_DTLB_rfo_MPKI 0
Core_0_DTLB_rfo_miss_rate 0
Core_0_DTLB_prefetch_access 0
Core_0_DTLB_prefetch_hit 0
Core_0_DTLB_prefetch_miss 0
Core_0_DTLB_prefetch_MPKI 0
Core_0_DTLB_prefetch_miss_rate 0
Core_0_DTLB_writeback_access 0
Core_0_DTLB_writeback_hit 0
Core_0_DTLB_writeback_miss 0
Core_0_DTLB_writeback_MPKI 0
Core_0_DTLB_writeback_miss_rate 0
Core_0_DTLB_prefetch_requested 0
Core_0_DTLB_prefetch_issued 0
Core_0_DTLB_prefetch_useful 0
Core_0_DTLB_prefetch_useless 0
Core_0_DTLB_prefetch_late 0
Core_0_DTLB_prefetch_accuracy 0
Core_0_DTLB_prefetch_coverage 0

Core_0_STLB_total_access 78714
Core_0_STLB_total_hit 459
Core_0_STLB_total_miss 78255
Core_0_STLB_total_MPKI 1.5651
Core_0_STLB_total_miss_rate 0.994169
Core_0_STLB_demand_access 78714
Core_0_STLB_demand_hit 459
Core_0_STLB_demand_miss 78255
Core_0_STLB_demand_MPKI 1.5651
Core_0_STLB_demand_miss_rate 0.994169
Core_0_STLB_load_access 78714
Core_0_STLB_load_hit 459
Core_0_STLB_load_miss 78255
Core_0_STLB_load_MPKI 1.5651
Core_0_STLB_load_miss_rate 0.994169
Core_0_STLB_rfo_access 0
Core_0_STLB_rfo_hit 0
Core_0_STLB_rfo_miss 0
Core_0_STLB_rfo_MPKI 0
Core_0_STLB_rfo_miss_rate 0
Core_0_STLB_prefetch_access 0
Core_0_STLB_prefetch_hit 0
Core_0_STLB_prefetch_miss 0
Core_0_STLB_prefetch_MPKI 0
Core_0_STLB_prefetch_miss_rate 0
Core_0_STLB_writeback_access 0
Core_0_STLB_writeback_hit 0
Core_0_STLB_writeback_miss 0
Core_0_STLB_writeback_MPKI 0
Core_0_STLB_writeback_miss_rate 0
Core_0_STLB_prefetch_requested 0
Core_0_STLB_prefetch_issued 0
Core_0_STLB_prefetch_useful 0
Core_0_STLB_prefetch_useless 0
Core_0_STLB_prefetch_late 0
Core_0_STLB_prefetch_accuracy 0
Core_0_STLB_prefetch_coverage 0

Core_0_L1I_total_access 8186637
Core_0_L1I_total_hit 8186623
Core_0_L1I_total_miss 14
Core_0_L1I_total_MPKI 0.00028
Core_0_L1I_total_miss_rate 1.7101e-06
Core_0_L1I_demand_access 8186637
Core_0_L1I_demand_hit 8186623
Core_0_L1I_demand_miss 14
Core_0_L1I_demand_MPKI 0.00028
Core_0_L1I_demand_miss_rate 1.7101e-06
Core_0_L1I_load_access 8186637
Core_0_L1I_load_hit 8186623
Core_0_L1I_load_miss 14
Core_0_L1I_load_MPKI 0.00028
Core_0_L1I_load_miss_rate 1.7101e-06
Core_0_L1I_rfo_access 0
Core_0_L1I_rfo_hit 0
Core_0_L1I_rfo_miss 0
Core_0_L1I_rfo_MPKI 0
Core_0_L1I_rfo_miss_rate 0
Core_0_L1I_prefetch_access 0
Core_0_L1I_prefetch_hit 0
Core_0_L1I_prefetch_miss 0
Core_0_L1I_prefetch_MPKI 0
Core_0_L1I_prefetch_miss_rate 0
Core_0_L1I_writeback_access 0
Core_0_L1I_writeback_hit 0
Core_0_L1I_writeback_miss 0
Core_0_L1I_writeback_MPKI 0
Core_0_L1I_writeback_miss_rate 0
Core_0_L1I_prefetch_requested 0
Core_0_L1I_prefetch_issued 0
Core_0_L1I_prefetch_useful 0
Core_0_L1I_prefetch_useless 0
Core_0_L1I_prefetch_late 0
Core_0_L1I_prefetch_accuracy 0
Core_0_L1I_prefetch_coverage 0

Core_0_L1D_total_access 9305643
Core_0_L1D_total_hit 3807286
Core_0_L1D_total_miss 5498357
Core_0_L1D_total_MPKI 109.967
Core_0_L1D_total_miss_rate 0.590863
Core_0_L1D_demand_access 7106008
Core_0_L1D_demand_hit 3378551
Core_0_L1D_demand_miss 3727457
Core_0_L1D_demand_MPKI 74.5491
Core_0_L1D_demand_miss_rate 0.52455
Core_0_L1D_load_access 7106008
Core_0_L1D_load_hit 3378551
Core_0_L1D_load_miss 3727457
Core_0_L1D_load_MPKI 74.5491
Core_0_L1D_load_miss_rate 0.52455
Core_0_L1D_rfo_access 0
Core_0_L1D_rfo_hit 0
Core_0_L1D_rfo_miss 0
Core_0_L1D_rfo_MPKI 0
Core_0_L1D_rfo_miss_rate 0
Core_0_L1D_prefetch_access 0
Core_0_L1D_prefetch_hit 0
Core_0_L1D_prefetch_miss 0
Core_0_L1D_prefetch_MPKI 0
Core_0_L1D_prefetch_miss_rate 0
Core_0_L1D_writeback_access 2199635
Core_0_L1D_writeback_hit 428735
Core_0_L1D_writeback_miss 1770900
Core_0_L1D_writeback_MPKI 35.418
Core_0_L1D_writeback_miss_rate 0.805088
Core_0_L1D_prefetch_requested 0
Core_0_L1D_prefetch_issued 0
Core_0_L1D_prefetch_useful 0
Core_0_L1D_prefetch_useless 0
Core_0_L1D_prefetch_late 0
Core_0_L1D_prefetch_accuracy 0
Core_0_L1D_prefetch_coverage 0

Core_0_L2C_total_access 1240554
Core_0_L2C_total_hit 311437
Core_0_L2C_total_miss 929117
Core_0_L2C_total_MPKI 18.5823
Core_0_L2C_total_miss_rate 0.748953
Core_0_L2C_demand_access 929199
Core_0_L2C_demand_hit 83
Core_0_L2C_demand_miss 929116
Core_0_L2C_demand_MPKI 18.5823
Core_0_L2C_demand_miss_rate 0.999911
Core_0_L2C_load_access 617341
Core_0_L2C_load_hit 83
Core_0_L2C_load_miss 617258
Core_0_L2C_load_MPKI 12.3452
Core_0_L2C_load_miss_rate 0.999866
Core_0_L2C_rfo_access 311858
Core_0_L2C_rfo_hit 0
Core_0_L2C_rfo_miss 311858
Core_0_L2C_rfo_MPKI 6.23716
Core_0_L2C_rfo_miss_rate 1
Core_0_L2C_prefetch_access 0
Core_0_L2C_prefetch_hit 0
Core_0_L2C_prefetch_miss 0
Core_0_L2C_prefetch_MPKI 0
Core_0_L2C_prefetch_miss_rate 0
Core_0_L2C_writeback_access 311355
Core_0_L2C_writeback_hit 311354
Core_0_L2C_writeback_miss 1
Core_0_L2C_writeback_MPKI 2e-05
Core_0_L2C_writeback_miss_rate 3.21177e-06
Core_0_L2C_prefetch_requested 0
Core_0_L2C_prefetch_issued 0
Core_0_L2C_prefetch_useful 0
Core_0_L2C_prefetch_useless 0
Core_0_L2C_prefetch_late 0
Core_0_L2C_prefetch_accuracy 0
Core_0_L2C_prefetch_coverage 0

Core_0_LLC_total_access 1235584
Core_0_LLC_total_hit 192546
Core_0_LLC_total_miss 1043038
Core_0_LLC_total_MPKI 20.8608
Core_0_LLC_total_miss_rate 0.844166
Core_0_LLC_demand_access 929116
Core_0_LLC_demand_hit 1851
Core_0_LLC_demand_miss 927265
Core_0_LLC_demand_MPKI 18.5453
Core_0_LLC_demand_miss_rate 0.998008
Core_0_LLC_load_access 617258
Core_0_LLC_load_hit 1097
Core_0_LLC_load_miss 616161
Core_0_LLC_load_MPKI 12.3232
Core_0_LLC_load_miss_rate 0.998223
Core_0_LLC_rfo_access 311858
Core_0_LLC_rfo_hit 754
Core_0_LLC_rfo_miss 311104
Core_0_LLC_rfo_MPKI 6.22208
Core_0_LLC_rfo_miss_rate 0.997582
Core_0_LLC_prefetch_access 0
Core_0_LLC_prefetch_hit 0
Core_0_LLC_prefetch_miss 0
Core_0_LLC_prefetch_MPKI 0
Core_0_LLC_prefetch_miss_rate 0
Core_0_LLC_writeback_access 306468
Core_0_LLC_writeback_hit 190695
Core_0_LLC_writeback_miss 115773
Core_0_LLC_writeback_MPKI 2.31546
Core_0_LLC_writeback_miss_rate 0.377765
Core_0_LLC_prefetch_requested 0
Core_0_LLC_prefetch_issued 0
Core_0_LLC_prefetch_useful 0
Core_0_LLC_prefetch_useless 0
Core_0_LLC_prefetch_late 0
Core_0_LLC_prefetch_accuracy 0
Core_0_LLC_prefetch_coverage 0

[DRAM Statistics]
Channel_0_RQ_row_buffer_hit 142897
Channel_0_RQ_row_buffer_miss 794224
Channel_0_WQ_row_buffer_hit 86168
Channel_0_WQ_row_buffer_miss 194122
Channel_0_WQ_full 0
Channel_0_dbus_congested 3865514
DRAM_total_RQ_row_buffer_hit 142897
DRAM_total_RQ_row_buffer_miss 794224
DRAM_total_WQ_row_buffer_hit 86168
DRAM_total_WQ_row_buffer_miss 194122
DRAM_total_WQ_full 0
DRAM_total_dbus_congested 3865514
DRAM_avg_congested_cycle 10.1371

====== DRAM_RQ_TRAFFIC ========
DRAM_RQ_READ_TRAFFIC_BREAKDOWN:
data_demand_read.count = 927253
data_demand_read.share = 98.95%

inst_demand_read.count = 12
inst_demand_read.share = 0.00%

cache_inst_prefetch.count = 0
cache_inst_prefetch.share = 0.00%

cache_data_prefetch.count = 0
cache_data_prefetch.share = 0.00%

stlb_data_demand.count = 9864
stlb_data_demand.share = 1.05%

stlb_inst_demand.count = 2
stlb_inst_demand.share = 0.00%

stlb_l1i_pref.count = 0
stlb_l1i_pref.share = 0.00%

stlb_l1d_pref.count = 0
stlb_l1d_pref.share = 0.00%

DRAM_RQ_READ_TRAFFIC_SUMMARY:
cache_demand.count = 927265
cache_demand.share = 98.95%

cache_prefetch.count = 0
cache_prefetch.share = 0.00%

stlb_demand.count = 9866
stlb_demand.share = 1.05%

stlb_prefetch.count = 0
stlb_prefetch.share = 0.00%

DRAM_RQ_READ_TRAFFIC_DEBUG:
total_classified_read.count = 937131
unclassified_read.count = 0
total_read_with_other.count = 937131

classified_plus_unclassified_check.count = 937131
dram_rq_read_total_observed.count = 937131
dram_rq_read_total_observed.per_1K_instructions = 18.7426

STLB_MISS_PTW_DRAM_TOUCH_BREAKDOWN:
stlb_miss_total.count = 78255

stlb_miss_touch_dram.count = 9799
stlb_miss_touch_dram.share = 12.52%

stlb_miss_no_dram_touch.count = 68456
stlb_miss_no_dram_touch.share = 87.48%

STLB_MISS_PTW_DRAM_TOUCH_DEBUG:
stlb_miss_touch_plus_no_touch.count = 78255
stlb_miss_total_check.count = 78255

======STLB miss causes ========
Core_0_STLB_miss_cause_breakdown
Core_0_STLB_cause_Demand_Data_miss 78254
Core_0_STLB_cause_Demand_Data_miss_rate 0.994156
Core_0_STLB_cause_Demand_Instruction_miss 1
Core_0_STLB_cause_Demand_Instruction_miss_rate 1.27042e-05
Core_0_STLB_cause_L1D_Prefetch_miss 0
Core_0_STLB_cause_L1D_Prefetch_miss_rate 0
Core_0_STLB_cause_L1I_Prefetch_miss 0
Core_0_STLB_cause_L1I_Prefetch_miss_rate 0
Core_0_STLB_cause_Other_miss 0
Core_0_STLB_cause_Other_miss_rate 0
Core_0_STLB_Demand_miss 78255
Core_0_STLB_Demand_miss_rate 0.994169
Core_0_STLB_L1D_Prefetch_miss 0
Core_0_STLB_L1D_Prefetch_miss_rate 0
Core_0_STLB_Other_miss 0
Core_0_STLB_Other_miss_rate 0
