[VMEM] WARNING: physical memory size is smaller than virtual memory size.

*** ChampSim Multicore Out-of-Order Simulator ***
Warmup Instructions: 50000000
Simulation Instructions: 100000000
Number of CPUs: 1
Page size: 4096
STLB ideal mode: l1pref
Core 0: /data0/tzh/champsim_traces/SPEC17/620.omnetpp_s-141B.champsimtrace.xz
 L1D Berti prefetcher
Off-chip DRAM Size: 16 GiB Channels: 1 Width: 64-bit Data Rate: 3205 MT/s
Warmup halting CPU 0 at instruction 50000001 cycle 17463621 for remainder of phase
Warmup finished CPU 0 instructions: 50000001 cycles: 17463621 cumulative IPC: 2.863 (Simulation time: 00 hr 04 min 27 sec)
Warmup complete CPU 0 instructions: 50000001 cycles: 17463621 cumulative IPC: 2.863 (Simulation time: 00 hr 04 min 27 sec)
Simulation finished CPU 0 instructions: 100000002 cycles: 217549508 cumulative IPC: 0.4597 (Simulation time: 00 hr 29 min 29 sec)
Simulation complete CPU 0 instructions: 100000002 cycles: 217549508 cumulative IPC: 0.4597 (Simulation time: 00 hr 29 min 29 sec)

ChampSim completed all CPUs

=== Simulation ===
CPU 0 runs /data0/tzh/champsim_traces/SPEC17/620.omnetpp_s-141B.champsimtrace.xz

Region of Interest Statistics

CPU 0 cumulative IPC: 0.4597 instructions: 100000002 cycles: 217549508
CPU 0 Branch Prediction Accuracy: 95.75% MPKI: 8.935 Average ROB Occupancy at Mispredict: 81.18
Branch type MPKI
BRANCH_DIRECT_JUMP: 0.8347
BRANCH_INDIRECT: 0.3618
BRANCH_CONDITIONAL: 6.452
BRANCH_DIRECT_CALL: 5e-05
BRANCH_INDIRECT_CALL: 0.8507
BRANCH_RETURN: 0.4358

cpu0->cpu0_STLB TOTAL        ACCESS:    2323885 HIT:    1842092 MISS:     481793 MSHR_MERGE:          0
cpu0->cpu0_STLB LOAD         ACCESS:    2323885 HIT:    1842092 MISS:     481793 MSHR_MERGE:          0
cpu0->cpu0_STLB RFO          ACCESS:          0 HIT:          0 MISS:          0 MSHR_MERGE:          0
cpu0->cpu0_STLB PREFETCH     ACCESS:          0 HIT:          0 MISS:          0 MSHR_MERGE:          0
cpu0->cpu0_STLB WRITE        ACCESS:          0 HIT:          0 MISS:          0 MSHR_MERGE:          0
cpu0->cpu0_STLB TRANSLATION  ACCESS:          0 HIT:          0 MISS:          0 MSHR_MERGE:          0
cpu0->cpu0_STLB PREFETCH REQUESTED:          0 ISSUED:          0 USEFUL:          0 USELESS:          0 LATE:          0
cpu0->cpu0_STLB AVERAGE MISS LATENCY: 86.3 cycles
cpu0->cpu0_L2C TOTAL        ACCESS:    7091741 HIT:    3115678 MISS:    3976063 MSHR_MERGE:     619099
cpu0->cpu0_L2C LOAD         ACCESS:    1586726 HIT:     643611 MISS:     943115 MSHR_MERGE:      25985
cpu0->cpu0_L2C RFO          ACCESS:     229545 HIT:      97851 MISS:     131694 MSHR_MERGE:       5635
cpu0->cpu0_L2C PREFETCH     ACCESS:    3867865 HIT:    1318382 MISS:    2549483 MSHR_MERGE:     587479
cpu0->cpu0_L2C WRITE        ACCESS:     964416 HIT:     961865 MISS:       2551 MSHR_MERGE:          0
cpu0->cpu0_L2C TRANSLATION  ACCESS:     443189 HIT:      93969 MISS:     349220 MSHR_MERGE:          0
cpu0->cpu0_L2C PREFETCH REQUESTED:    3110491 ISSUED:    3099036 USEFUL:     455711 USELESS:    1059841 LATE:      31620
cpu0->cpu0_L2C AVERAGE MISS LATENCY: 142.5 cycles
cpu0->cpu0_L1I TOTAL        ACCESS:   14624394 HIT:   14542270 MISS:      82124 MSHR_MERGE:      21813
cpu0->cpu0_L1I LOAD         ACCESS:   14624394 HIT:   14542270 MISS:      82124 MSHR_MERGE:      21813
cpu0->cpu0_L1I RFO          ACCESS:          0 HIT:          0 MISS:          0 MSHR_MERGE:          0
cpu0->cpu0_L1I PREFETCH     ACCESS:          0 HIT:          0 MISS:          0 MSHR_MERGE:          0
cpu0->cpu0_L1I WRITE        ACCESS:          0 HIT:          0 MISS:          0 MSHR_MERGE:          0
cpu0->cpu0_L1I TRANSLATION  ACCESS:          0 HIT:          0 MISS:          0 MSHR_MERGE:          0
cpu0->cpu0_L1I PREFETCH REQUESTED:          0 ISSUED:          0 USEFUL:          0 USELESS:          0 LATE:          0
cpu0->cpu0_L1I AVERAGE MISS LATENCY: 18.54 cycles
cpu0->cpu0_L1D TOTAL        ACCESS:   40269943 HIT:   36462981 MISS:    3806962 MSHR_MERGE:     838960
cpu0->cpu0_L1D LOAD         ACCESS:   19300951 HIT:   17351268 MISS:    1949683 MSHR_MERGE:     423260
cpu0->cpu0_L1D RFO          ACCESS:          0 HIT:          0 MISS:          0 MSHR_MERGE:          0
cpu0->cpu0_L1D PREFETCH     ACCESS:    2077085 HIT:    1275704 MISS:     801381 MSHR_MERGE:      32552
cpu0->cpu0_L1D WRITE        ACCESS:   17731034 HIT:   17119084 MISS:     611950 MSHR_MERGE:     382389
cpu0->cpu0_L1D TRANSLATION  ACCESS:    1160873 HIT:     716925 MISS:     443948 MSHR_MERGE:        759
cpu0->cpu0_L1D PREFETCH REQUESTED:    2094614 ISSUED:    2077085 USEFUL:     232422 USELESS:     536345 LATE:      30596
cpu0->cpu0_L1D AVERAGE MISS LATENCY: 101.2 cycles
cpu0->cpu0_ITLB TOTAL        ACCESS:   12962703 HIT:   12655562 MISS:     307141 MSHR_MERGE:     150276
cpu0->cpu0_ITLB LOAD         ACCESS:   12962703 HIT:   12655562 MISS:     307141 MSHR_MERGE:     150276
cpu0->cpu0_ITLB RFO          ACCESS:          0 HIT:          0 MISS:          0 MSHR_MERGE:          0
cpu0->cpu0_ITLB PREFETCH     ACCESS:          0 HIT:          0 MISS:          0 MSHR_MERGE:          0
cpu0->cpu0_ITLB WRITE        ACCESS:          0 HIT:          0 MISS:          0 MSHR_MERGE:          0
cpu0->cpu0_ITLB TRANSLATION  ACCESS:          0 HIT:          0 MISS:          0 MSHR_MERGE:          0
cpu0->cpu0_ITLB PREFETCH REQUESTED:          0 ISSUED:          0 USEFUL:          0 USELESS:          0 LATE:          0
cpu0->cpu0_ITLB AVERAGE MISS LATENCY: 5.637 cycles
cpu0->cpu0_DTLB TOTAL        ACCESS:   36613401 HIT:   33986312 MISS:    2627089 MSHR_MERGE:     460070
cpu0->cpu0_DTLB LOAD         ACCESS:   36613401 HIT:   33986312 MISS:    2627089 MSHR_MERGE:     460070
cpu0->cpu0_DTLB RFO          ACCESS:          0 HIT:          0 MISS:          0 MSHR_MERGE:          0
cpu0->cpu0_DTLB PREFETCH     ACCESS:          0 HIT:          0 MISS:          0 MSHR_MERGE:          0
cpu0->cpu0_DTLB WRITE        ACCESS:          0 HIT:          0 MISS:          0 MSHR_MERGE:          0
cpu0->cpu0_DTLB TRANSLATION  ACCESS:          0 HIT:          0 MISS:          0 MSHR_MERGE:          0
cpu0->cpu0_DTLB PREFETCH REQUESTED:          0 ISSUED:          0 USEFUL:          0 USELESS:          0 LATE:          0
cpu0->cpu0_DTLB AVERAGE MISS LATENCY: 24.37 cycles
cpu0->LLC TOTAL        ACCESS:    4104617 HIT:    1474219 MISS:    2630398 MSHR_MERGE:          0
cpu0->LLC LOAD         ACCESS:     917130 HIT:     260331 MISS:     656799 MSHR_MERGE:          0
cpu0->LLC RFO          ACCESS:     126059 HIT:      35883 MISS:      90176 MSHR_MERGE:          0
cpu0->LLC PREFETCH     ACCESS:    1962004 HIT:     343963 MISS:    1618041 MSHR_MERGE:          0
cpu0->LLC WRITE        ACCESS:     750204 HIT:     605807 MISS:     144397 MSHR_MERGE:          0
cpu0->LLC TRANSLATION  ACCESS:     349220 HIT:     228235 MISS:     120985 MSHR_MERGE:          0
cpu0->LLC PREFETCH REQUESTED:          0 ISSUED:          0 USEFUL:          0 USELESS:          0 LATE:          0
cpu0->LLC AVERAGE MISS LATENCY: 177.1 cycles

DRAM Statistics

Channel 0 RQ ROW_BUFFER_HIT:      48931
  ROW_BUFFER_MISS:    2436934
  AVG DBUS CONGESTED CYCLE: 12.02
Channel 0 WQ ROW_BUFFER_HIT:     152685
  ROW_BUFFER_MISS:     355812
  FULL:          0
Channel 0 REFRESHES ISSUED:      18129

[ROI Statistics]
[System Configuration]
num_cpus 1
cpu_freq 4000
fetch_width 6
decode_width 6
dispatch_width 6
execute_width 6
lq_width 2
sq_width 2
retire_width 6
scheduler_size 128
branch_mispredict_penalty 15
rob_size 352
lq_size 128
sq_size 72
ifetch_buffer_size 64
decode_buffer_size 32
dispatch_buffer_size 32
register_file_size 288
decode_latency 1
dispatch_latency 1
schedule_latency 1
execute_latency 1
page_size 4096
block_size 64
core_0_itlb_set 16
core_0_itlb_way 4
core_0_itlb_rq_size 16
core_0_itlb_wq_size 16
core_0_itlb_pq_size 0
core_0_itlb_mshr_size 8
core_0_itlb_hit_latency 1
core_0_itlb_fill_latency 1
core_0_itlb_max_tag_check 2
core_0_itlb_max_fill 2
core_0_dtlb_set 16
core_0_dtlb_way 4
core_0_dtlb_rq_size 16
core_0_dtlb_wq_size 16
core_0_dtlb_pq_size 0
core_0_dtlb_mshr_size 8
core_0_dtlb_hit_latency 1
core_0_dtlb_fill_latency 1
core_0_dtlb_max_tag_check 2
core_0_dtlb_max_fill 2
core_0_stlb_set 128
core_0_stlb_way 12
core_0_stlb_rq_size 32
core_0_stlb_wq_size 32
core_0_stlb_pq_size 0
core_0_stlb_mshr_size 16
core_0_stlb_hit_latency 4
core_0_stlb_fill_latency 4
core_0_stlb_max_tag_check 1
core_0_stlb_max_fill 1
core_0_l1i_set 64
core_0_l1i_way 8
core_0_l1i_rq_size 64
core_0_l1i_wq_size 64
core_0_l1i_pq_size 32
core_0_l1i_mshr_size 8
core_0_l1i_hit_latency 2
core_0_l1i_fill_latency 2
core_0_l1i_max_tag_check 2
core_0_l1i_max_fill 2
core_0_l1d_set 64
core_0_l1d_way 12
core_0_l1d_rq_size 64
core_0_l1d_wq_size 64
core_0_l1d_pq_size 8
core_0_l1d_mshr_size 16
core_0_l1d_hit_latency 2
core_0_l1d_fill_latency 3
core_0_l1d_max_tag_check 2
core_0_l1d_max_fill 2
core_0_l2c_set 1024
core_0_l2c_way 8
core_0_l2c_rq_size 32
core_0_l2c_wq_size 32
core_0_l2c_pq_size 16
core_0_l2c_mshr_size 32
core_0_l2c_hit_latency 5
core_0_l2c_fill_latency 5
core_0_l2c_max_tag_check 1
core_0_l2c_max_fill 1
llc_set 2048
llc_way 16
llc_rq_size 32
llc_wq_size 32
llc_pq_size 32
llc_mshr_size 64
llc_hit_latency 10
llc_fill_latency 10
llc_max_tag_check 1
llc_max_fill 1
dram_channels 1
dram_ranks 1
dram_bankgroups 8
dram_banks 4
dram_rows 65536
dram_columns 1024
dram_channel_width 8
dram_rq_size 64
dram_wq_size 64
dram_size 17179869184
core_0_itlb_prefetcher no
core_0_dtlb_prefetcher no
core_0_stlb_prefetcher no
core_0_l1i_prefetcher next_line
core_0_l1d_prefetcher berti
core_0_l2c_prefetcher pythia
llc_prefetcher no
llc_replacement drrip

Core_0_instructions 100000002
Core_0_cycles 217549508
Core_0_IPC 0.459665
Core_0_branch_prediction_accuracy 95.7459
Core_0_branch_MPKI 8.9354
Core_0_average_ROB_occupancy_at_mispredict 81.1802

Core_0_ITLB_total_access 12962703
Core_0_ITLB_total_hit 12655562
Core_0_ITLB_total_miss 307141
Core_0_ITLB_total_MPKI 3.07141
Core_0_ITLB_total_miss_rate 0.0236942
Core_0_ITLB_demand_access 12962703
Core_0_ITLB_demand_hit 12655562
Core_0_ITLB_demand_miss 307141
Core_0_ITLB_demand_MPKI 3.07141
Core_0_ITLB_demand_miss_rate 0.0236942
Core_0_ITLB_load_access 12962703
Core_0_ITLB_load_hit 12655562
Core_0_ITLB_load_miss 307141
Core_0_ITLB_load_MPKI 3.07141
Core_0_ITLB_load_miss_rate 0.0236942
Core_0_ITLB_rfo_access 0
Core_0_ITLB_rfo_hit 0
Core_0_ITLB_rfo_miss 0
Core_0_ITLB_rfo_MPKI 0
Core_0_ITLB_rfo_miss_rate 0
Core_0_ITLB_prefetch_access 0
Core_0_ITLB_prefetch_hit 0
Core_0_ITLB_prefetch_miss 0
Core_0_ITLB_prefetch_MPKI 0
Core_0_ITLB_prefetch_miss_rate 0
Core_0_ITLB_writeback_access 0
Core_0_ITLB_writeback_hit 0
Core_0_ITLB_writeback_miss 0
Core_0_ITLB_writeback_MPKI 0
Core_0_ITLB_writeback_miss_rate 0
Core_0_ITLB_prefetch_requested 0
Core_0_ITLB_prefetch_issued 0
Core_0_ITLB_prefetch_useful 0
Core_0_ITLB_prefetch_useless 0
Core_0_ITLB_prefetch_late 0
Core_0_ITLB_prefetch_accuracy 0
Core_0_ITLB_prefetch_coverage 0

Core_0_DTLB_total_access 36613401
Core_0_DTLB_total_hit 33986312
Core_0_DTLB_total_miss 2627089
Core_0_DTLB_total_MPKI 26.2709
Core_0_DTLB_total_miss_rate 0.0717521
Core_0_DTLB_demand_access 36613401
Core_0_DTLB_demand_hit 33986312
Core_0_DTLB_demand_miss 2627089
Core_0_DTLB_demand_MPKI 26.2709
Core_0_DTLB_demand_miss_rate 0.0717521
Core_0_DTLB_load_access 36613401
Core_0_DTLB_load_hit 33986312
Core_0_DTLB_load_miss 2627089
Core_0_DTLB_load_MPKI 26.2709
Core_0_DTLB_load_miss_rate 0.0717521
Core_0_DTLB_rfo_access 0
Core_0_DTLB_rfo_hit 0
Core_0_DTLB_rfo_miss 0
Core_0_DTLB_rfo_MPKI 0
Core_0_DTLB_rfo_miss_rate 0
Core_0_DTLB_prefetch_access 0
Core_0_DTLB_prefetch_hit 0
Core_0_DTLB_prefetch_miss 0
Core_0_DTLB_prefetch_MPKI 0
Core_0_DTLB_prefetch_miss_rate 0
Core_0_DTLB_writeback_access 0
Core_0_DTLB_writeback_hit 0
Core_0_DTLB_writeback_miss 0
Core_0_DTLB_writeback_MPKI 0
Core_0_DTLB_writeback_miss_rate 0
Core_0_DTLB_prefetch_requested 0
Core_0_DTLB_prefetch_issued 0
Core_0_DTLB_prefetch_useful 0
Core_0_DTLB_prefetch_useless 0
Core_0_DTLB_prefetch_late 0
Core_0_DTLB_prefetch_accuracy 0
Core_0_DTLB_prefetch_coverage 0

Core_0_STLB_total_access 2323885
Core_0_STLB_total_hit 1842092
Core_0_STLB_total_miss 481793
Core_0_STLB_total_MPKI 4.81793
Core_0_STLB_total_miss_rate 0.207322
Core_0_STLB_demand_access 2323885
Core_0_STLB_demand_hit 1842092
Core_0_STLB_demand_miss 481793
Core_0_STLB_demand_MPKI 4.81793
Core_0_STLB_demand_miss_rate 0.207322
Core_0_STLB_load_access 2323885
Core_0_STLB_load_hit 1842092
Core_0_STLB_load_miss 481793
Core_0_STLB_load_MPKI 4.81793
Core_0_STLB_load_miss_rate 0.207322
Core_0_STLB_rfo_access 0
Core_0_STLB_rfo_hit 0
Core_0_STLB_rfo_miss 0
Core_0_STLB_rfo_MPKI 0
Core_0_STLB_rfo_miss_rate 0
Core_0_STLB_prefetch_access 0
Core_0_STLB_prefetch_hit 0
Core_0_STLB_prefetch_miss 0
Core_0_STLB_prefetch_MPKI 0
Core_0_STLB_prefetch_miss_rate 0
Core_0_STLB_writeback_access 0
Core_0_STLB_writeback_hit 0
Core_0_STLB_writeback_miss 0
Core_0_STLB_writeback_MPKI 0
Core_0_STLB_writeback_miss_rate 0
Core_0_STLB_prefetch_requested 0
Core_0_STLB_prefetch_issued 0
Core_0_STLB_prefetch_useful 0
Core_0_STLB_prefetch_useless 0
Core_0_STLB_prefetch_late 0
Core_0_STLB_prefetch_accuracy 0
Core_0_STLB_prefetch_coverage 0

Core_0_L1I_total_access 14624394
Core_0_L1I_total_hit 14542270
Core_0_L1I_total_miss 82124
Core_0_L1I_total_MPKI 0.82124
Core_0_L1I_total_miss_rate 0.00561555
Core_0_L1I_demand_access 14624394
Core_0_L1I_demand_hit 14542270
Core_0_L1I_demand_miss 82124
Core_0_L1I_demand_MPKI 0.82124
Core_0_L1I_demand_miss_rate 0.00561555
Core_0_L1I_load_access 14624394
Core_0_L1I_load_hit 14542270
Core_0_L1I_load_miss 82124
Core_0_L1I_load_MPKI 0.82124
Core_0_L1I_load_miss_rate 0.00561555
Core_0_L1I_rfo_access 0
Core_0_L1I_rfo_hit 0
Core_0_L1I_rfo_miss 0
Core_0_L1I_rfo_MPKI 0
Core_0_L1I_rfo_miss_rate 0
Core_0_L1I_prefetch_access 0
Core_0_L1I_prefetch_hit 0
Core_0_L1I_prefetch_miss 0
Core_0_L1I_prefetch_MPKI 0
Core_0_L1I_prefetch_miss_rate 0
Core_0_L1I_writeback_access 0
Core_0_L1I_writeback_hit 0
Core_0_L1I_writeback_miss 0
Core_0_L1I_writeback_MPKI 0
Core_0_L1I_writeback_miss_rate 0
Core_0_L1I_prefetch_requested 0
Core_0_L1I_prefetch_issued 0
Core_0_L1I_prefetch_useful 0
Core_0_L1I_prefetch_useless 0
Core_0_L1I_prefetch_late 0
Core_0_L1I_prefetch_accuracy 0
Core_0_L1I_prefetch_coverage 0

Core_0_L1D_total_access 39109070
Core_0_L1D_total_hit 35746056
Core_0_L1D_total_miss 3363014
Core_0_L1D_total_MPKI 33.6301
Core_0_L1D_total_miss_rate 0.0859906
Core_0_L1D_demand_access 19300951
Core_0_L1D_demand_hit 17351268
Core_0_L1D_demand_miss 1949683
Core_0_L1D_demand_MPKI 19.4968
Core_0_L1D_demand_miss_rate 0.101015
Core_0_L1D_load_access 19300951
Core_0_L1D_load_hit 17351268
Core_0_L1D_load_miss 1949683
Core_0_L1D_load_MPKI 19.4968
Core_0_L1D_load_miss_rate 0.101015
Core_0_L1D_rfo_access 0
Core_0_L1D_rfo_hit 0
Core_0_L1D_rfo_miss 0
Core_0_L1D_rfo_MPKI 0
Core_0_L1D_rfo_miss_rate 0
Core_0_L1D_prefetch_access 2077085
Core_0_L1D_prefetch_hit 1275704
Core_0_L1D_prefetch_miss 801381
Core_0_L1D_prefetch_MPKI 8.01381
Core_0_L1D_prefetch_miss_rate 0.38582
Core_0_L1D_writeback_access 17731034
Core_0_L1D_writeback_hit 17119084
Core_0_L1D_writeback_miss 611950
Core_0_L1D_writeback_MPKI 6.1195
Core_0_L1D_writeback_miss_rate 0.0345129
Core_0_L1D_prefetch_requested 2094614
Core_0_L1D_prefetch_issued 2077085
Core_0_L1D_prefetch_useful 232422
Core_0_L1D_prefetch_useless 536345
Core_0_L1D_prefetch_late 30596
Core_0_L1D_prefetch_accuracy 0.111898
Core_0_L1D_prefetch_coverage 0.106513

Core_0_L2C_total_access 6648552
Core_0_L2C_total_hit 3021709
Core_0_L2C_total_miss 3626843
Core_0_L2C_total_MPKI 36.2684
Core_0_L2C_total_miss_rate 0.545509
Core_0_L2C_demand_access 1816271
Core_0_L2C_demand_hit 741462
Core_0_L2C_demand_miss 1074809
Core_0_L2C_demand_MPKI 10.7481
Core_0_L2C_demand_miss_rate 0.591767
Core_0_L2C_load_access 1586726
Core_0_L2C_load_hit 643611
Core_0_L2C_load_miss 943115
Core_0_L2C_load_MPKI 9.43115
Core_0_L2C_load_miss_rate 0.594378
Core_0_L2C_rfo_access 229545
Core_0_L2C_rfo_hit 97851
Core_0_L2C_rfo_miss 131694
Core_0_L2C_rfo_MPKI 1.31694
Core_0_L2C_rfo_miss_rate 0.573718
Core_0_L2C_prefetch_access 3867865
Core_0_L2C_prefetch_hit 1318382
Core_0_L2C_prefetch_miss 2549483
Core_0_L2C_prefetch_MPKI 25.4948
Core_0_L2C_prefetch_miss_rate 0.659145
Core_0_L2C_writeback_access 964416
Core_0_L2C_writeback_hit 961865
Core_0_L2C_writeback_miss 2551
Core_0_L2C_writeback_MPKI 0.02551
Core_0_L2C_writeback_miss_rate 0.00264512
Core_0_L2C_prefetch_requested 3110491
Core_0_L2C_prefetch_issued 3099036
Core_0_L2C_prefetch_useful 455711
Core_0_L2C_prefetch_useless 1059841
Core_0_L2C_prefetch_late 31620
Core_0_L2C_prefetch_accuracy 0.147049
Core_0_L2C_prefetch_coverage 0.297749

Core_0_LLC_total_access 3755397
Core_0_LLC_total_hit 1245984
Core_0_LLC_total_miss 2509413
Core_0_LLC_total_MPKI 25.0941
Core_0_LLC_total_miss_rate 0.668215
Core_0_LLC_demand_access 1043189
Core_0_LLC_demand_hit 296214
Core_0_LLC_demand_miss 746975
Core_0_LLC_demand_MPKI 7.46975
Core_0_LLC_demand_miss_rate 0.71605
Core_0_LLC_load_access 917130
Core_0_LLC_load_hit 260331
Core_0_LLC_load_miss 656799
Core_0_LLC_load_MPKI 6.56799
Core_0_LLC_load_miss_rate 0.716146
Core_0_LLC_rfo_access 126059
Core_0_LLC_rfo_hit 35883
Core_0_LLC_rfo_miss 90176
Core_0_LLC_rfo_MPKI 0.90176
Core_0_LLC_rfo_miss_rate 0.715348
Core_0_LLC_prefetch_access 1962004
Core_0_LLC_prefetch_hit 343963
Core_0_LLC_prefetch_miss 1618041
Core_0_LLC_prefetch_MPKI 16.1804
Core_0_LLC_prefetch_miss_rate 0.824688
Core_0_LLC_writeback_access 750204
Core_0_LLC_writeback_hit 605807
Core_0_LLC_writeback_miss 144397
Core_0_LLC_writeback_MPKI 1.44397
Core_0_LLC_writeback_miss_rate 0.192477
Core_0_LLC_prefetch_requested 0
Core_0_LLC_prefetch_issued 0
Core_0_LLC_prefetch_useful 0
Core_0_LLC_prefetch_useless 0
Core_0_LLC_prefetch_late 0
Core_0_LLC_prefetch_accuracy 0
Core_0_LLC_prefetch_coverage 0

[DRAM Statistics]
Channel_0_RQ_row_buffer_hit 48931
Channel_0_RQ_row_buffer_miss 2436934
Channel_0_WQ_row_buffer_hit 152685
Channel_0_WQ_row_buffer_miss 355812
Channel_0_WQ_full 0
Channel_0_dbus_congested 7663506
DRAM_total_RQ_row_buffer_hit 48931
DRAM_total_RQ_row_buffer_miss 2436934
DRAM_total_WQ_row_buffer_hit 152685
DRAM_total_WQ_row_buffer_miss 355812
DRAM_total_WQ_full 0
DRAM_total_dbus_congested 7663506
DRAM_avg_congested_cycle 12.0236

======STLB miss causes ========
Core_0_STLB_miss_cause_breakdown
Core_0_STLB_cause_Demand_Data_miss 480131
Core_0_STLB_cause_Demand_Data_miss_rate 0.206607
Core_0_STLB_cause_Demand_Instruction_miss 1662
Core_0_STLB_cause_Demand_Instruction_miss_rate 0.000715182
Core_0_STLB_cause_L1D_Prefetch_miss 0
Core_0_STLB_cause_L1D_Prefetch_miss_rate 0
Core_0_STLB_cause_L1I_Prefetch_miss 0
Core_0_STLB_cause_L1I_Prefetch_miss_rate 0
Core_0_STLB_cause_Other_miss 0
Core_0_STLB_cause_Other_miss_rate 0
Core_0_STLB_Demand_miss 481793
Core_0_STLB_Demand_miss_rate 0.207322
Core_0_STLB_L1D_Prefetch_miss 0
Core_0_STLB_L1D_Prefetch_miss_rate 0
Core_0_STLB_Other_miss 0
Core_0_STLB_Other_miss_rate 0
