[VMEM] WARNING: physical memory size is smaller than virtual memory size.

*** ChampSim Multicore Out-of-Order Simulator ***
Warmup Instructions: 50000000
Simulation Instructions: 100000000
Number of CPUs: 1
Page size: 4096
Core 0: /data0/tzh/champsim_traces/SPEC06/403.gcc-16B.champsimtrace.xz
Off-chip DRAM Size: 16 GiB Channels: 1 Width: 64-bit Data Rate: 3205 MT/s
Warmup halting CPU 0 at instruction 50000004 cycle 20314747 for remainder of phase
Warmup finished CPU 0 instructions: 50000004 cycles: 20314747 cumulative IPC: 2.461 (Simulation time: 00 hr 03 min 21 sec)
Warmup complete CPU 0 instructions: 50000004 cycles: 20314747 cumulative IPC: 2.461 (Simulation time: 00 hr 03 min 21 sec)
Simulation finished CPU 0 instructions: 100000003 cycles: 43639998 cumulative IPC: 2.291 (Simulation time: 00 hr 10 min 01 sec)
Simulation complete CPU 0 instructions: 100000003 cycles: 43639998 cumulative IPC: 2.291 (Simulation time: 00 hr 10 min 01 sec)

ChampSim completed all CPUs

=== Simulation ===
CPU 0 runs /data0/tzh/champsim_traces/SPEC06/403.gcc-16B.champsimtrace.xz

Region of Interest Statistics

CPU 0 cumulative IPC: 2.291 instructions: 100000003 cycles: 43639998
CPU 0 Branch Prediction Accuracy: 99.95% MPKI: 0.1064 Average ROB Occupancy at Mispredict: 177.9
Branch type MPKI
BRANCH_DIRECT_JUMP: 0.00921
BRANCH_INDIRECT: 0.02374
BRANCH_CONDITIONAL: 0.07343
BRANCH_DIRECT_CALL: 0
BRANCH_INDIRECT_CALL: 4e-05
BRANCH_RETURN: 0

cpu0->cpu0_STLB TOTAL        ACCESS:     110393 HIT:     109597 MISS:        796 MSHR_MERGE:          0
cpu0->cpu0_STLB LOAD         ACCESS:     110393 HIT:     109597 MISS:        796 MSHR_MERGE:          0
cpu0->cpu0_STLB RFO          ACCESS:          0 HIT:          0 MISS:          0 MSHR_MERGE:          0
cpu0->cpu0_STLB PREFETCH     ACCESS:          0 HIT:          0 MISS:          0 MSHR_MERGE:          0
cpu0->cpu0_STLB WRITE        ACCESS:          0 HIT:          0 MISS:          0 MSHR_MERGE:          0
cpu0->cpu0_STLB TRANSLATION  ACCESS:          0 HIT:          0 MISS:          0 MSHR_MERGE:          0
cpu0->cpu0_STLB PREFETCH REQUESTED:          0 ISSUED:          0 USEFUL:          0 USELESS:          0 LATE:          0
cpu0->cpu0_STLB AVERAGE MISS LATENCY: 269.5 cycles
cpu0->cpu0_L2C TOTAL        ACCESS:    9981723 HIT:    6549055 MISS:    3432668 MSHR_MERGE:          0
cpu0->cpu0_L2C LOAD         ACCESS:      66256 HIT:      10999 MISS:      55257 MSHR_MERGE:          0
cpu0->cpu0_L2C RFO          ACCESS:    4948790 HIT:    1571917 MISS:    3376873 MSHR_MERGE:          0
cpu0->cpu0_L2C PREFETCH     ACCESS:          0 HIT:          0 MISS:          0 MSHR_MERGE:          0
cpu0->cpu0_L2C WRITE        ACCESS:    4966139 HIT:    4966139 MISS:          0 MSHR_MERGE:          0
cpu0->cpu0_L2C TRANSLATION  ACCESS:        538 HIT:          0 MISS:        538 MSHR_MERGE:          0
cpu0->cpu0_L2C PREFETCH REQUESTED:          0 ISSUED:          0 USEFUL:          0 USELESS:          0 LATE:          0
cpu0->cpu0_L2C AVERAGE MISS LATENCY: 16.15 cycles
cpu0->cpu0_L1I TOTAL        ACCESS:   19795032 HIT:   19788478 MISS:       6554 MSHR_MERGE:       1722
cpu0->cpu0_L1I LOAD         ACCESS:   19795032 HIT:   19788478 MISS:       6554 MSHR_MERGE:       1722
cpu0->cpu0_L1I RFO          ACCESS:          0 HIT:          0 MISS:          0 MSHR_MERGE:          0
cpu0->cpu0_L1I PREFETCH     ACCESS:          0 HIT:          0 MISS:          0 MSHR_MERGE:          0
cpu0->cpu0_L1I WRITE        ACCESS:          0 HIT:          0 MISS:          0 MSHR_MERGE:          0
cpu0->cpu0_L1I TRANSLATION  ACCESS:          0 HIT:          0 MISS:          0 MSHR_MERGE:          0
cpu0->cpu0_L1I PREFETCH REQUESTED:          0 ISSUED:          0 USEFUL:          0 USELESS:          0 LATE:          0
cpu0->cpu0_L1I AVERAGE MISS LATENCY: 20.52 cycles
cpu0->cpu0_L1D TOTAL        ACCESS:   40705370 HIT:    1100768 MISS:   39604602 MSHR_MERGE:   34593850
cpu0->cpu0_L1D LOAD         ACCESS:     540108 HIT:     449913 MISS:      90195 MSHR_MERGE:      28771
cpu0->cpu0_L1D RFO          ACCESS:          0 HIT:          0 MISS:          0 MSHR_MERGE:          0
cpu0->cpu0_L1D PREFETCH     ACCESS:          0 HIT:          0 MISS:          0 MSHR_MERGE:          0
cpu0->cpu0_L1D WRITE        ACCESS:   40163666 HIT:     649798 MISS:   39513868 MSHR_MERGE:   34565078
cpu0->cpu0_L1D TRANSLATION  ACCESS:       1596 HIT:       1057 MISS:        539 MSHR_MERGE:          1
cpu0->cpu0_L1D PREFETCH REQUESTED:          0 ISSUED:          0 USEFUL:          0 USELESS:          0 LATE:          0
cpu0->cpu0_L1D AVERAGE MISS LATENCY: 19.74 cycles
cpu0->cpu0_ITLB TOTAL        ACCESS:   19722595 HIT:   19720639 MISS:       1956 MSHR_MERGE:       1126
cpu0->cpu0_ITLB LOAD         ACCESS:   19722595 HIT:   19720639 MISS:       1956 MSHR_MERGE:       1126
cpu0->cpu0_ITLB RFO          ACCESS:          0 HIT:          0 MISS:          0 MSHR_MERGE:          0
cpu0->cpu0_ITLB PREFETCH     ACCESS:          0 HIT:          0 MISS:          0 MSHR_MERGE:          0
cpu0->cpu0_ITLB WRITE        ACCESS:          0 HIT:          0 MISS:          0 MSHR_MERGE:          0
cpu0->cpu0_ITLB TRANSLATION  ACCESS:          0 HIT:          0 MISS:          0 MSHR_MERGE:          0
cpu0->cpu0_ITLB PREFETCH REQUESTED:          0 ISSUED:          0 USEFUL:          0 USELESS:          0 LATE:          0
cpu0->cpu0_ITLB AVERAGE MISS LATENCY: 5 cycles
cpu0->cpu0_DTLB TOTAL        ACCESS:   40607954 HIT:   40097760 MISS:     510194 MSHR_MERGE:     400631
cpu0->cpu0_DTLB LOAD         ACCESS:   40607954 HIT:   40097760 MISS:     510194 MSHR_MERGE:     400631
cpu0->cpu0_DTLB RFO          ACCESS:          0 HIT:          0 MISS:          0 MSHR_MERGE:          0
cpu0->cpu0_DTLB PREFETCH     ACCESS:          0 HIT:          0 MISS:          0 MSHR_MERGE:          0
cpu0->cpu0_DTLB WRITE        ACCESS:          0 HIT:          0 MISS:          0 MSHR_MERGE:          0
cpu0->cpu0_DTLB TRANSLATION  ACCESS:          0 HIT:          0 MISS:          0 MSHR_MERGE:          0
cpu0->cpu0_DTLB PREFETCH REQUESTED:          0 ISSUED:          0 USEFUL:          0 USELESS:          0 LATE:          0
cpu0->cpu0_DTLB AVERAGE MISS LATENCY: 6.965 cycles
cpu0->LLC TOTAL        ACCESS:    6822084 HIT:    6808446 MISS:      13638 MSHR_MERGE:          0
cpu0->LLC LOAD         ACCESS:      55257 HIT:      43393 MISS:      11864 MSHR_MERGE:          0
cpu0->LLC RFO          ACCESS:    3376871 HIT:    3375396 MISS:       1475 MSHR_MERGE:          0
cpu0->LLC PREFETCH     ACCESS:          0 HIT:          0 MISS:          0 MSHR_MERGE:          0
cpu0->LLC WRITE        ACCESS:    3389418 HIT:    3389309 MISS:        109 MSHR_MERGE:          0
cpu0->LLC TRANSLATION  ACCESS:        538 HIT:        348 MISS:        190 MSHR_MERGE:          0
cpu0->LLC PREFETCH REQUESTED:          0 ISSUED:          0 USEFUL:          0 USELESS:          0 LATE:          0
cpu0->LLC AVERAGE MISS LATENCY: 172 cycles

DRAM Statistics

Channel 0 RQ ROW_BUFFER_HIT:        300
  ROW_BUFFER_MISS:      13229
  AVG DBUS CONGESTED CYCLE: 15.95
Channel 0 WQ ROW_BUFFER_HIT:        332
  ROW_BUFFER_MISS:       1033
  FULL:          0
Channel 0 REFRESHES ISSUED:       3637

[ROI Statistics]
[System Configuration]
num_cpus 1
cpu_freq 4000
fetch_width 6
decode_width 6
dispatch_width 6
execute_width 6
lq_width 2
sq_width 2
retire_width 6
scheduler_size 128
branch_mispredict_penalty 15
rob_size 352
lq_size 128
sq_size 72
ifetch_buffer_size 64
decode_buffer_size 32
dispatch_buffer_size 32
register_file_size 288
decode_latency 1
dispatch_latency 1
schedule_latency 1
execute_latency 1
page_size 4096
block_size 64
core_0_itlb_set 16
core_0_itlb_way 4
core_0_itlb_rq_size 16
core_0_itlb_wq_size 16
core_0_itlb_pq_size 0
core_0_itlb_mshr_size 8
core_0_itlb_hit_latency 1
core_0_itlb_fill_latency 1
core_0_itlb_max_tag_check 2
core_0_itlb_max_fill 2
core_0_dtlb_set 16
core_0_dtlb_way 4
core_0_dtlb_rq_size 16
core_0_dtlb_wq_size 16
core_0_dtlb_pq_size 0
core_0_dtlb_mshr_size 8
core_0_dtlb_hit_latency 1
core_0_dtlb_fill_latency 1
core_0_dtlb_max_tag_check 2
core_0_dtlb_max_fill 2
core_0_stlb_set 128
core_0_stlb_way 12
core_0_stlb_rq_size 32
core_0_stlb_wq_size 32
core_0_stlb_pq_size 0
core_0_stlb_mshr_size 16
core_0_stlb_hit_latency 4
core_0_stlb_fill_latency 4
core_0_stlb_max_tag_check 1
core_0_stlb_max_fill 1
core_0_l1i_set 64
core_0_l1i_way 8
core_0_l1i_rq_size 64
core_0_l1i_wq_size 64
core_0_l1i_pq_size 32
core_0_l1i_mshr_size 8
core_0_l1i_hit_latency 2
core_0_l1i_fill_latency 2
core_0_l1i_max_tag_check 2
core_0_l1i_max_fill 2
core_0_l1d_set 64
core_0_l1d_way 12
core_0_l1d_rq_size 64
core_0_l1d_wq_size 64
core_0_l1d_pq_size 8
core_0_l1d_mshr_size 16
core_0_l1d_hit_latency 2
core_0_l1d_fill_latency 3
core_0_l1d_max_tag_check 2
core_0_l1d_max_fill 2
core_0_l2c_set 1024
core_0_l2c_way 8
core_0_l2c_rq_size 32
core_0_l2c_wq_size 32
core_0_l2c_pq_size 16
core_0_l2c_mshr_size 32
core_0_l2c_hit_latency 5
core_0_l2c_fill_latency 5
core_0_l2c_max_tag_check 1
core_0_l2c_max_fill 1
llc_set 2048
llc_way 16
llc_rq_size 32
llc_wq_size 32
llc_pq_size 32
llc_mshr_size 64
llc_hit_latency 10
llc_fill_latency 10
llc_max_tag_check 1
llc_max_fill 1
dram_channels 1
dram_ranks 1
dram_bankgroups 8
dram_banks 4
dram_rows 65536
dram_columns 1024
dram_channel_width 8
dram_rq_size 64
dram_wq_size 64
dram_size 17179869184
core_0_itlb_prefetcher no
core_0_dtlb_prefetcher no
core_0_stlb_prefetcher no
core_0_l1i_prefetcher no
core_0_l1d_prefetcher no
core_0_l2c_prefetcher no
llc_prefetcher no
llc_replacement drrip

Core_0_instructions 100000003
Core_0_cycles 43639998
Core_0_IPC 2.29148
Core_0_branch_prediction_accuracy 99.9458
Core_0_branch_MPKI 0.10642
Core_0_average_ROB_occupancy_at_mispredict 177.874

Core_0_ITLB_total_access 19722595
Core_0_ITLB_total_hit 19720639
Core_0_ITLB_total_miss 1956
Core_0_ITLB_total_MPKI 0.01956
Core_0_ITLB_total_miss_rate 9.91756e-05
Core_0_ITLB_demand_access 19722595
Core_0_ITLB_demand_hit 19720639
Core_0_ITLB_demand_miss 1956
Core_0_ITLB_demand_MPKI 0.01956
Core_0_ITLB_demand_miss_rate 9.91756e-05
Core_0_ITLB_load_access 19722595
Core_0_ITLB_load_hit 19720639
Core_0_ITLB_load_miss 1956
Core_0_ITLB_load_MPKI 0.01956
Core_0_ITLB_load_miss_rate 9.91756e-05
Core_0_ITLB_rfo_access 0
Core_0_ITLB_rfo_hit 0
Core_0_ITLB_rfo_miss 0
Core_0_ITLB_rfo_MPKI 0
Core_0_ITLB_rfo_miss_rate 0
Core_0_ITLB_prefetch_access 0
Core_0_ITLB_prefetch_hit 0
Core_0_ITLB_prefetch_miss 0
Core_0_ITLB_prefetch_MPKI 0
Core_0_ITLB_prefetch_miss_rate 0
Core_0_ITLB_writeback_access 0
Core_0_ITLB_writeback_hit 0
Core_0_ITLB_writeback_miss 0
Core_0_ITLB_writeback_MPKI 0
Core_0_ITLB_writeback_miss_rate 0
Core_0_ITLB_prefetch_requested 0
Core_0_ITLB_prefetch_issued 0
Core_0_ITLB_prefetch_useful 0
Core_0_ITLB_prefetch_useless 0
Core_0_ITLB_prefetch_late 0
Core_0_ITLB_prefetch_accuracy 0
Core_0_ITLB_prefetch_coverage 0

Core_0_DTLB_total_access 40607954
Core_0_DTLB_total_hit 40097760
Core_0_DTLB_total_miss 510194
Core_0_DTLB_total_MPKI 5.10194
Core_0_DTLB_total_miss_rate 0.0125639
Core_0_DTLB_demand_access 40607954
Core_0_DTLB_demand_hit 40097760
Core_0_DTLB_demand_miss 510194
Core_0_DTLB_demand_MPKI 5.10194
Core_0_DTLB_demand_miss_rate 0.0125639
Core_0_DTLB_load_access 40607954
Core_0_DTLB_load_hit 40097760
Core_0_DTLB_load_miss 510194
Core_0_DTLB_load_MPKI 5.10194
Core_0_DTLB_load_miss_rate 0.0125639
Core_0_DTLB_rfo_access 0
Core_0_DTLB_rfo_hit 0
Core_0_DTLB_rfo_miss 0
Core_0_DTLB_rfo_MPKI 0
Core_0_DTLB_rfo_miss_rate 0
Core_0_DTLB_prefetch_access 0
Core_0_DTLB_prefetch_hit 0
Core_0_DTLB_prefetch_miss 0
Core_0_DTLB_prefetch_MPKI 0
Core_0_DTLB_prefetch_miss_rate 0
Core_0_DTLB_writeback_access 0
Core_0_DTLB_writeback_hit 0
Core_0_DTLB_writeback_miss 0
Core_0_DTLB_writeback_MPKI 0
Core_0_DTLB_writeback_miss_rate 0
Core_0_DTLB_prefetch_requested 0
Core_0_DTLB_prefetch_issued 0
Core_0_DTLB_prefetch_useful 0
Core_0_DTLB_prefetch_useless 0
Core_0_DTLB_prefetch_late 0
Core_0_DTLB_prefetch_accuracy 0
Core_0_DTLB_prefetch_coverage 0

Core_0_STLB_total_access 110393
Core_0_STLB_total_hit 109597
Core_0_STLB_total_miss 796
Core_0_STLB_total_MPKI 0.00796
Core_0_STLB_total_miss_rate 0.0072106
Core_0_STLB_demand_access 110393
Core_0_STLB_demand_hit 109597
Core_0_STLB_demand_miss 796
Core_0_STLB_demand_MPKI 0.00796
Core_0_STLB_demand_miss_rate 0.0072106
Core_0_STLB_load_access 110393
Core_0_STLB_load_hit 109597
Core_0_STLB_load_miss 796
Core_0_STLB_load_MPKI 0.00796
Core_0_STLB_load_miss_rate 0.0072106
Core_0_STLB_rfo_access 0
Core_0_STLB_rfo_hit 0
Core_0_STLB_rfo_miss 0
Core_0_STLB_rfo_MPKI 0
Core_0_STLB_rfo_miss_rate 0
Core_0_STLB_prefetch_access 0
Core_0_STLB_prefetch_hit 0
Core_0_STLB_prefetch_miss 0
Core_0_STLB_prefetch_MPKI 0
Core_0_STLB_prefetch_miss_rate 0
Core_0_STLB_writeback_access 0
Core_0_STLB_writeback_hit 0
Core_0_STLB_writeback_miss 0
Core_0_STLB_writeback_MPKI 0
Core_0_STLB_writeback_miss_rate 0
Core_0_STLB_prefetch_requested 0
Core_0_STLB_prefetch_issued 0
Core_0_STLB_prefetch_useful 0
Core_0_STLB_prefetch_useless 0
Core_0_STLB_prefetch_late 0
Core_0_STLB_prefetch_accuracy 0
Core_0_STLB_prefetch_coverage 0

Core_0_L1I_total_access 19795032
Core_0_L1I_total_hit 19788478
Core_0_L1I_total_miss 6554
Core_0_L1I_total_MPKI 0.06554
Core_0_L1I_total_miss_rate 0.000331093
Core_0_L1I_demand_access 19795032
Core_0_L1I_demand_hit 19788478
Core_0_L1I_demand_miss 6554
Core_0_L1I_demand_MPKI 0.06554
Core_0_L1I_demand_miss_rate 0.000331093
Core_0_L1I_load_access 19795032
Core_0_L1I_load_hit 19788478
Core_0_L1I_load_miss 6554
Core_0_L1I_load_MPKI 0.06554
Core_0_L1I_load_miss_rate 0.000331093
Core_0_L1I_rfo_access 0
Core_0_L1I_rfo_hit 0
Core_0_L1I_rfo_miss 0
Core_0_L1I_rfo_MPKI 0
Core_0_L1I_rfo_miss_rate 0
Core_0_L1I_prefetch_access 0
Core_0_L1I_prefetch_hit 0
Core_0_L1I_prefetch_miss 0
Core_0_L1I_prefetch_MPKI 0
Core_0_L1I_prefetch_miss_rate 0
Core_0_L1I_writeback_access 0
Core_0_L1I_writeback_hit 0
Core_0_L1I_writeback_miss 0
Core_0_L1I_writeback_MPKI 0
Core_0_L1I_writeback_miss_rate 0
Core_0_L1I_prefetch_requested 0
Core_0_L1I_prefetch_issued 0
Core_0_L1I_prefetch_useful 0
Core_0_L1I_prefetch_useless 0
Core_0_L1I_prefetch_late 0
Core_0_L1I_prefetch_accuracy 0
Core_0_L1I_prefetch_coverage 0

Core_0_L1D_total_access 40703774
Core_0_L1D_total_hit 1099711
Core_0_L1D_total_miss 39604063
Core_0_L1D_total_MPKI 396.041
Core_0_L1D_total_miss_rate 0.972983
Core_0_L1D_demand_access 540108
Core_0_L1D_demand_hit 449913
Core_0_L1D_demand_miss 90195
Core_0_L1D_demand_MPKI 0.90195
Core_0_L1D_demand_miss_rate 0.166994
Core_0_L1D_load_access 540108
Core_0_L1D_load_hit 449913
Core_0_L1D_load_miss 90195
Core_0_L1D_load_MPKI 0.90195
Core_0_L1D_load_miss_rate 0.166994
Core_0_L1D_rfo_access 0
Core_0_L1D_rfo_hit 0
Core_0_L1D_rfo_miss 0
Core_0_L1D_rfo_MPKI 0
Core_0_L1D_rfo_miss_rate 0
Core_0_L1D_prefetch_access 0
Core_0_L1D_prefetch_hit 0
Core_0_L1D_prefetch_miss 0
Core_0_L1D_prefetch_MPKI 0
Core_0_L1D_prefetch_miss_rate 0
Core_0_L1D_writeback_access 40163666
Core_0_L1D_writeback_hit 649798
Core_0_L1D_writeback_miss 39513868
Core_0_L1D_writeback_MPKI 395.139
Core_0_L1D_writeback_miss_rate 0.983821
Core_0_L1D_prefetch_requested 0
Core_0_L1D_prefetch_issued 0
Core_0_L1D_prefetch_useful 0
Core_0_L1D_prefetch_useless 0
Core_0_L1D_prefetch_late 0
Core_0_L1D_prefetch_accuracy 0
Core_0_L1D_prefetch_coverage 0

Core_0_L2C_total_access 9981185
Core_0_L2C_total_hit 6549055
Core_0_L2C_total_miss 3432130
Core_0_L2C_total_MPKI 34.3213
Core_0_L2C_total_miss_rate 0.34386
Core_0_L2C_demand_access 5015046
Core_0_L2C_demand_hit 1582916
Core_0_L2C_demand_miss 3432130
Core_0_L2C_demand_MPKI 34.3213
Core_0_L2C_demand_miss_rate 0.684367
Core_0_L2C_load_access 66256
Core_0_L2C_load_hit 10999
Core_0_L2C_load_miss 55257
Core_0_L2C_load_MPKI 0.55257
Core_0_L2C_load_miss_rate 0.833992
Core_0_L2C_rfo_access 4948790
Core_0_L2C_rfo_hit 1571917
Core_0_L2C_rfo_miss 3376873
Core_0_L2C_rfo_MPKI 33.7687
Core_0_L2C_rfo_miss_rate 0.682363
Core_0_L2C_prefetch_access 0
Core_0_L2C_prefetch_hit 0
Core_0_L2C_prefetch_miss 0
Core_0_L2C_prefetch_MPKI 0
Core_0_L2C_prefetch_miss_rate 0
Core_0_L2C_writeback_access 4966139
Core_0_L2C_writeback_hit 4966139
Core_0_L2C_writeback_miss 0
Core_0_L2C_writeback_MPKI 0
Core_0_L2C_writeback_miss_rate 0
Core_0_L2C_prefetch_requested 0
Core_0_L2C_prefetch_issued 0
Core_0_L2C_prefetch_useful 0
Core_0_L2C_prefetch_useless 0
Core_0_L2C_prefetch_late 0
Core_0_L2C_prefetch_accuracy 0
Core_0_L2C_prefetch_coverage 0

Core_0_LLC_total_access 6821546
Core_0_LLC_total_hit 6808098
Core_0_LLC_total_miss 13448
Core_0_LLC_total_MPKI 0.13448
Core_0_LLC_total_miss_rate 0.0019714
Core_0_LLC_demand_access 3432128
Core_0_LLC_demand_hit 3418789
Core_0_LLC_demand_miss 13339
Core_0_LLC_demand_MPKI 0.13339
Core_0_LLC_demand_miss_rate 0.00388651
Core_0_LLC_load_access 55257
Core_0_LLC_load_hit 43393
Core_0_LLC_load_miss 11864
Core_0_LLC_load_MPKI 0.11864
Core_0_LLC_load_miss_rate 0.214706
Core_0_LLC_rfo_access 3376871
Core_0_LLC_rfo_hit 3375396
Core_0_LLC_rfo_miss 1475
Core_0_LLC_rfo_MPKI 0.01475
Core_0_LLC_rfo_miss_rate 0.000436795
Core_0_LLC_prefetch_access 0
Core_0_LLC_prefetch_hit 0
Core_0_LLC_prefetch_miss 0
Core_0_LLC_prefetch_MPKI 0
Core_0_LLC_prefetch_miss_rate 0
Core_0_LLC_writeback_access 3389418
Core_0_LLC_writeback_hit 3389309
Core_0_LLC_writeback_miss 109
Core_0_LLC_writeback_MPKI 0.00109
Core_0_LLC_writeback_miss_rate 3.21589e-05
Core_0_LLC_prefetch_requested 0
Core_0_LLC_prefetch_issued 0
Core_0_LLC_prefetch_useful 0
Core_0_LLC_prefetch_useless 0
Core_0_LLC_prefetch_late 0
Core_0_LLC_prefetch_accuracy 0
Core_0_LLC_prefetch_coverage 0

[DRAM Statistics]
Channel_0_RQ_row_buffer_hit 300
Channel_0_RQ_row_buffer_miss 13229
Channel_0_WQ_row_buffer_hit 332
Channel_0_WQ_row_buffer_miss 1033
Channel_0_WQ_full 0
Channel_0_dbus_congested 21126
DRAM_total_RQ_row_buffer_hit 300
DRAM_total_RQ_row_buffer_miss 13229
DRAM_total_WQ_row_buffer_hit 332
DRAM_total_WQ_row_buffer_miss 1033
DRAM_total_WQ_full 0
DRAM_total_dbus_congested 21126
DRAM_avg_congested_cycle 15.9456

====== DRAM_RQ_TRAFFIC ========
DRAM_RQ_READ_TRAFFIC_BREAKDOWN:
data_demand_read.count = 13337
data_demand_read.share = 98.58%

inst_demand_read.count = 2
inst_demand_read.share = 0.01%

cache_inst_prefetch.count = 0
cache_inst_prefetch.share = 0.00%

cache_data_prefetch.count = 0
cache_data_prefetch.share = 0.00%

stlb_data_demand.count = 190
stlb_data_demand.share = 1.40%

stlb_inst_demand.count = 0
stlb_inst_demand.share = 0.00%

stlb_l1i_pref.count = 0
stlb_l1i_pref.share = 0.00%

stlb_l1d_pref.count = 0
stlb_l1d_pref.share = 0.00%

DRAM_RQ_READ_TRAFFIC_SUMMARY:
cache_demand.count = 13339
cache_demand.share = 98.60%

cache_prefetch.count = 0
cache_prefetch.share = 0.00%

stlb_demand.count = 190
stlb_demand.share = 1.40%

stlb_prefetch.count = 0
stlb_prefetch.share = 0.00%

DRAM_RQ_READ_TRAFFIC_DEBUG:
total_classified_read.count = 13529
unclassified_read.count = 0
total_read_with_other.count = 13529

classified_plus_unclassified_check.count = 13529
dram_rq_read_total_observed.count = 13529
dram_rq_read_total_observed.per_1K_instructions = 0.13529

STLB_MISS_PTW_DRAM_TOUCH_BREAKDOWN:
stlb_miss_total.count = 796

stlb_miss_touch_dram.count = 190
stlb_miss_touch_dram.share = 23.87%

stlb_miss_no_dram_touch.count = 606
stlb_miss_no_dram_touch.share = 76.13%

STLB_MISS_PTW_DRAM_TOUCH_DEBUG:
stlb_miss_touch_plus_no_touch.count = 796
stlb_miss_total_check.count = 796

======STLB miss causes ========
Core_0_STLB_miss_cause_breakdown
Core_0_STLB_cause_Demand_Data_miss 796
Core_0_STLB_cause_Demand_Data_miss_rate 0.0072106
Core_0_STLB_cause_Demand_Instruction_miss 0
Core_0_STLB_cause_Demand_Instruction_miss_rate 0
Core_0_STLB_cause_L1D_Prefetch_miss 0
Core_0_STLB_cause_L1D_Prefetch_miss_rate 0
Core_0_STLB_cause_L1I_Prefetch_miss 0
Core_0_STLB_cause_L1I_Prefetch_miss_rate 0
Core_0_STLB_cause_Other_miss 0
Core_0_STLB_cause_Other_miss_rate 0
Core_0_STLB_Demand_miss 796
Core_0_STLB_Demand_miss_rate 0.0072106
Core_0_STLB_L1D_Prefetch_miss 0
Core_0_STLB_L1D_Prefetch_miss_rate 0
Core_0_STLB_Other_miss 0
Core_0_STLB_Other_miss_rate 0
