[VMEM] WARNING: physical memory size is smaller than virtual memory size.

*** ChampSim Multicore Out-of-Order Simulator ***
Warmup Instructions: 50000000
Simulation Instructions: 100000000
Number of CPUs: 1
Page size: 4096
Core 0: /data0/tzh/champsim_traces/SPEC06/410.bwaves-1963B.champsimtrace.xz
Off-chip DRAM Size: 16 GiB Channels: 1 Width: 64-bit Data Rate: 3205 MT/s
Warmup halting CPU 0 at instruction 50000001 cycle 12847367 for remainder of phase
Warmup finished CPU 0 instructions: 50000001 cycles: 12847367 cumulative IPC: 3.892 (Simulation time: 00 hr 03 min 14 sec)
Warmup complete CPU 0 instructions: 50000001 cycles: 12847367 cumulative IPC: 3.892 (Simulation time: 00 hr 03 min 14 sec)
Simulation finished CPU 0 instructions: 100000002 cycles: 91711596 cumulative IPC: 1.09 (Simulation time: 00 hr 22 min 05 sec)
Simulation complete CPU 0 instructions: 100000002 cycles: 91711596 cumulative IPC: 1.09 (Simulation time: 00 hr 22 min 05 sec)

ChampSim completed all CPUs

=== Simulation ===
CPU 0 runs /data0/tzh/champsim_traces/SPEC06/410.bwaves-1963B.champsimtrace.xz

Region of Interest Statistics

CPU 0 cumulative IPC: 1.09 instructions: 100000002 cycles: 91711596
CPU 0 Branch Prediction Accuracy: 99.96% MPKI: 0.01177 Average ROB Occupancy at Mispredict: 324.7
Branch type MPKI
BRANCH_DIRECT_JUMP: 0
BRANCH_INDIRECT: 0
BRANCH_CONDITIONAL: 0.01177
BRANCH_DIRECT_CALL: 0
BRANCH_INDIRECT_CALL: 0
BRANCH_RETURN: 0

cpu0->cpu0_STLB TOTAL        ACCESS:      76147 HIT:      48220 MISS:      27927 MSHR_MERGE:          0
cpu0->cpu0_STLB LOAD         ACCESS:      76147 HIT:      48220 MISS:      27927 MSHR_MERGE:          0
cpu0->cpu0_STLB RFO          ACCESS:          0 HIT:          0 MISS:          0 MSHR_MERGE:          0
cpu0->cpu0_STLB PREFETCH     ACCESS:          0 HIT:          0 MISS:          0 MSHR_MERGE:          0
cpu0->cpu0_STLB WRITE        ACCESS:          0 HIT:          0 MISS:          0 MSHR_MERGE:          0
cpu0->cpu0_STLB TRANSLATION  ACCESS:          0 HIT:          0 MISS:          0 MSHR_MERGE:          0
cpu0->cpu0_STLB PREFETCH REQUESTED:          0 ISSUED:          0 USEFUL:          0 USELESS:          0 LATE:          0
cpu0->cpu0_STLB AVERAGE MISS LATENCY: 246.4 cycles
cpu0->cpu0_L2C TOTAL        ACCESS:    1982255 HIT:     143491 MISS:    1838764 MSHR_MERGE:          0
cpu0->cpu0_L2C LOAD         ACCESS:    1882237 HIT:      94155 MISS:    1788082 MSHR_MERGE:          0
cpu0->cpu0_L2C RFO          ACCESS:      47054 HIT:          0 MISS:      47054 MSHR_MERGE:          0
cpu0->cpu0_L2C PREFETCH     ACCESS:          0 HIT:          0 MISS:          0 MSHR_MERGE:          0
cpu0->cpu0_L2C WRITE        ACCESS:      47056 HIT:      47056 MISS:          0 MSHR_MERGE:          0
cpu0->cpu0_L2C TRANSLATION  ACCESS:       5908 HIT:       2280 MISS:       3628 MSHR_MERGE:          0
cpu0->cpu0_L2C PREFETCH REQUESTED:          0 ISSUED:          0 USEFUL:          0 USELESS:          0 LATE:          0
cpu0->cpu0_L2C AVERAGE MISS LATENCY: 273.1 cycles
cpu0->cpu0_L1I TOTAL        ACCESS:   20275239 HIT:   20275239 MISS:          0 MSHR_MERGE:          0
cpu0->cpu0_L1I LOAD         ACCESS:   20275239 HIT:   20275239 MISS:          0 MSHR_MERGE:          0
cpu0->cpu0_L1I RFO          ACCESS:          0 HIT:          0 MISS:          0 MSHR_MERGE:          0
cpu0->cpu0_L1I PREFETCH     ACCESS:          0 HIT:          0 MISS:          0 MSHR_MERGE:          0
cpu0->cpu0_L1I WRITE        ACCESS:          0 HIT:          0 MISS:          0 MSHR_MERGE:          0
cpu0->cpu0_L1I TRANSLATION  ACCESS:          0 HIT:          0 MISS:          0 MSHR_MERGE:          0
cpu0->cpu0_L1I PREFETCH REQUESTED:          0 ISSUED:          0 USEFUL:          0 USELESS:          0 LATE:          0
cpu0->cpu0_L1I AVERAGE MISS LATENCY: - cycles
cpu0->cpu0_L1D TOTAL        ACCESS:   36689188 HIT:   34177262 MISS:    2511926 MSHR_MERGE:     576725
cpu0->cpu0_L1D LOAD         ACCESS:   29147026 HIT:   26774198 MISS:    2372828 MSHR_MERGE:     490589
cpu0->cpu0_L1D RFO          ACCESS:          0 HIT:          0 MISS:          0 MSHR_MERGE:          0
cpu0->cpu0_L1D PREFETCH     ACCESS:          0 HIT:          0 MISS:          0 MSHR_MERGE:          0
cpu0->cpu0_L1D WRITE        ACCESS:    7486256 HIT:    7353066 MISS:     133190 MSHR_MERGE:      86136
cpu0->cpu0_L1D TRANSLATION  ACCESS:      55906 HIT:      49998 MISS:       5908 MSHR_MERGE:          0
cpu0->cpu0_L1D PREFETCH REQUESTED:          0 ISSUED:          0 USEFUL:          0 USELESS:          0 LATE:          0
cpu0->cpu0_L1D AVERAGE MISS LATENCY: 268.5 cycles
cpu0->cpu0_ITLB TOTAL        ACCESS:   17090071 HIT:   17090071 MISS:          0 MSHR_MERGE:          0
cpu0->cpu0_ITLB LOAD         ACCESS:   17090071 HIT:   17090071 MISS:          0 MSHR_MERGE:          0
cpu0->cpu0_ITLB RFO          ACCESS:          0 HIT:          0 MISS:          0 MSHR_MERGE:          0
cpu0->cpu0_ITLB PREFETCH     ACCESS:          0 HIT:          0 MISS:          0 MSHR_MERGE:          0
cpu0->cpu0_ITLB WRITE        ACCESS:          0 HIT:          0 MISS:          0 MSHR_MERGE:          0
cpu0->cpu0_ITLB TRANSLATION  ACCESS:          0 HIT:          0 MISS:          0 MSHR_MERGE:          0
cpu0->cpu0_ITLB PREFETCH REQUESTED:          0 ISSUED:          0 USEFUL:          0 USELESS:          0 LATE:          0
cpu0->cpu0_ITLB AVERAGE MISS LATENCY: - cycles
cpu0->cpu0_DTLB TOTAL        ACCESS:   34916989 HIT:   34811554 MISS:     105435 MSHR_MERGE:      29288
cpu0->cpu0_DTLB LOAD         ACCESS:   34916989 HIT:   34811554 MISS:     105435 MSHR_MERGE:      29288
cpu0->cpu0_DTLB RFO          ACCESS:          0 HIT:          0 MISS:          0 MSHR_MERGE:          0
cpu0->cpu0_DTLB PREFETCH     ACCESS:          0 HIT:          0 MISS:          0 MSHR_MERGE:          0
cpu0->cpu0_DTLB WRITE        ACCESS:          0 HIT:          0 MISS:          0 MSHR_MERGE:          0
cpu0->cpu0_DTLB TRANSLATION  ACCESS:          0 HIT:          0 MISS:          0 MSHR_MERGE:          0
cpu0->cpu0_DTLB PREFETCH REQUESTED:          0 ISSUED:          0 USEFUL:          0 USELESS:          0 LATE:          0
cpu0->cpu0_DTLB AVERAGE MISS LATENCY: 95.74 cycles
cpu0->LLC TOTAL        ACCESS:    1885868 HIT:      11000 MISS:    1874868 MSHR_MERGE:          0
cpu0->LLC LOAD         ACCESS:    1788082 HIT:       3808 MISS:    1784274 MSHR_MERGE:          0
cpu0->LLC RFO          ACCESS:      47054 HIT:          0 MISS:      47054 MSHR_MERGE:          0
cpu0->LLC PREFETCH     ACCESS:          0 HIT:          0 MISS:          0 MSHR_MERGE:          0
cpu0->LLC WRITE        ACCESS:      47104 HIT:       7181 MISS:      39923 MSHR_MERGE:          0
cpu0->LLC TRANSLATION  ACCESS:       3628 HIT:         11 MISS:       3617 MSHR_MERGE:          0
cpu0->LLC PREFETCH REQUESTED:          0 ISSUED:          0 USEFUL:          0 USELESS:          0 LATE:          0
cpu0->LLC AVERAGE MISS LATENCY: 252.4 cycles

DRAM Statistics

Channel 0 RQ ROW_BUFFER_HIT:          3
  ROW_BUFFER_MISS:    1834942
  AVG DBUS CONGESTED CYCLE: 4.334
Channel 0 WQ ROW_BUFFER_HIT:       5395
  ROW_BUFFER_MISS:      41751
  FULL:          0
Channel 0 REFRESHES ISSUED:       7643

[ROI Statistics]
[System Configuration]
num_cpus 1
cpu_freq 4000
fetch_width 6
decode_width 6
dispatch_width 6
execute_width 6
lq_width 2
sq_width 2
retire_width 6
scheduler_size 128
branch_mispredict_penalty 15
rob_size 352
lq_size 128
sq_size 72
ifetch_buffer_size 64
decode_buffer_size 32
dispatch_buffer_size 32
register_file_size 288
decode_latency 1
dispatch_latency 1
schedule_latency 1
execute_latency 1
page_size 4096
block_size 64
core_0_itlb_set 16
core_0_itlb_way 4
core_0_itlb_rq_size 16
core_0_itlb_wq_size 16
core_0_itlb_pq_size 0
core_0_itlb_mshr_size 8
core_0_itlb_hit_latency 1
core_0_itlb_fill_latency 1
core_0_itlb_max_tag_check 2
core_0_itlb_max_fill 2
core_0_dtlb_set 16
core_0_dtlb_way 4
core_0_dtlb_rq_size 16
core_0_dtlb_wq_size 16
core_0_dtlb_pq_size 0
core_0_dtlb_mshr_size 8
core_0_dtlb_hit_latency 1
core_0_dtlb_fill_latency 1
core_0_dtlb_max_tag_check 2
core_0_dtlb_max_fill 2
core_0_stlb_set 128
core_0_stlb_way 12
core_0_stlb_rq_size 32
core_0_stlb_wq_size 32
core_0_stlb_pq_size 0
core_0_stlb_mshr_size 16
core_0_stlb_hit_latency 4
core_0_stlb_fill_latency 4
core_0_stlb_max_tag_check 1
core_0_stlb_max_fill 1
core_0_l1i_set 64
core_0_l1i_way 8
core_0_l1i_rq_size 64
core_0_l1i_wq_size 64
core_0_l1i_pq_size 32
core_0_l1i_mshr_size 8
core_0_l1i_hit_latency 2
core_0_l1i_fill_latency 2
core_0_l1i_max_tag_check 2
core_0_l1i_max_fill 2
core_0_l1d_set 64
core_0_l1d_way 12
core_0_l1d_rq_size 64
core_0_l1d_wq_size 64
core_0_l1d_pq_size 8
core_0_l1d_mshr_size 16
core_0_l1d_hit_latency 2
core_0_l1d_fill_latency 3
core_0_l1d_max_tag_check 2
core_0_l1d_max_fill 2
core_0_l2c_set 1024
core_0_l2c_way 8
core_0_l2c_rq_size 32
core_0_l2c_wq_size 32
core_0_l2c_pq_size 16
core_0_l2c_mshr_size 32
core_0_l2c_hit_latency 5
core_0_l2c_fill_latency 5
core_0_l2c_max_tag_check 1
core_0_l2c_max_fill 1
llc_set 2048
llc_way 16
llc_rq_size 32
llc_wq_size 32
llc_pq_size 32
llc_mshr_size 64
llc_hit_latency 10
llc_fill_latency 10
llc_max_tag_check 1
llc_max_fill 1
dram_channels 1
dram_ranks 1
dram_bankgroups 8
dram_banks 4
dram_rows 65536
dram_columns 1024
dram_channel_width 8
dram_rq_size 64
dram_wq_size 64
dram_size 17179869184
core_0_itlb_prefetcher no
core_0_dtlb_prefetcher no
core_0_stlb_prefetcher no
core_0_l1i_prefetcher no
core_0_l1d_prefetcher no
core_0_l2c_prefetcher no
llc_prefetcher no
llc_replacement drrip

Core_0_instructions 100000002
Core_0_cycles 91711596
Core_0_IPC 1.09037
Core_0_branch_prediction_accuracy 99.9578
Core_0_branch_MPKI 0.01177
Core_0_average_ROB_occupancy_at_mispredict 324.692

Core_0_ITLB_total_access 17090071
Core_0_ITLB_total_hit 17090071
Core_0_ITLB_total_miss 0
Core_0_ITLB_total_MPKI 0
Core_0_ITLB_total_miss_rate 0
Core_0_ITLB_demand_access 17090071
Core_0_ITLB_demand_hit 17090071
Core_0_ITLB_demand_miss 0
Core_0_ITLB_demand_MPKI 0
Core_0_ITLB_demand_miss_rate 0
Core_0_ITLB_load_access 17090071
Core_0_ITLB_load_hit 17090071
Core_0_ITLB_load_miss 0
Core_0_ITLB_load_MPKI 0
Core_0_ITLB_load_miss_rate 0
Core_0_ITLB_rfo_access 0
Core_0_ITLB_rfo_hit 0
Core_0_ITLB_rfo_miss 0
Core_0_ITLB_rfo_MPKI 0
Core_0_ITLB_rfo_miss_rate 0
Core_0_ITLB_prefetch_access 0
Core_0_ITLB_prefetch_hit 0
Core_0_ITLB_prefetch_miss 0
Core_0_ITLB_prefetch_MPKI 0
Core_0_ITLB_prefetch_miss_rate 0
Core_0_ITLB_writeback_access 0
Core_0_ITLB_writeback_hit 0
Core_0_ITLB_writeback_miss 0
Core_0_ITLB_writeback_MPKI 0
Core_0_ITLB_writeback_miss_rate 0
Core_0_ITLB_prefetch_requested 0
Core_0_ITLB_prefetch_issued 0
Core_0_ITLB_prefetch_useful 0
Core_0_ITLB_prefetch_useless 0
Core_0_ITLB_prefetch_late 0
Core_0_ITLB_prefetch_accuracy 0
Core_0_ITLB_prefetch_coverage 0

Core_0_DTLB_total_access 34916989
Core_0_DTLB_total_hit 34811554
Core_0_DTLB_total_miss 105435
Core_0_DTLB_total_MPKI 1.05435
Core_0_DTLB_total_miss_rate 0.00301959
Core_0_DTLB_demand_access 34916989
Core_0_DTLB_demand_hit 34811554
Core_0_DTLB_demand_miss 105435
Core_0_DTLB_demand_MPKI 1.05435
Core_0_DTLB_demand_miss_rate 0.00301959
Core_0_DTLB_load_access 34916989
Core_0_DTLB_load_hit 34811554
Core_0_DTLB_load_miss 105435
Core_0_DTLB_load_MPKI 1.05435
Core_0_DTLB_load_miss_rate 0.00301959
Core_0_DTLB_rfo_access 0
Core_0_DTLB_rfo_hit 0
Core_0_DTLB_rfo_miss 0
Core_0_DTLB_rfo_MPKI 0
Core_0_DTLB_rfo_miss_rate 0
Core_0_DTLB_prefetch_access 0
Core_0_DTLB_prefetch_hit 0
Core_0_DTLB_prefetch_miss 0
Core_0_DTLB_prefetch_MPKI 0
Core_0_DTLB_prefetch_miss_rate 0
Core_0_DTLB_writeback_access 0
Core_0_DTLB_writeback_hit 0
Core_0_DTLB_writeback_miss 0
Core_0_DTLB_writeback_MPKI 0
Core_0_DTLB_writeback_miss_rate 0
Core_0_DTLB_prefetch_requested 0
Core_0_DTLB_prefetch_issued 0
Core_0_DTLB_prefetch_useful 0
Core_0_DTLB_prefetch_useless 0
Core_0_DTLB_prefetch_late 0
Core_0_DTLB_prefetch_accuracy 0
Core_0_DTLB_prefetch_coverage 0

Core_0_STLB_total_access 76147
Core_0_STLB_total_hit 48220
Core_0_STLB_total_miss 27927
Core_0_STLB_total_MPKI 0.27927
Core_0_STLB_total_miss_rate 0.366751
Core_0_STLB_demand_access 76147
Core_0_STLB_demand_hit 48220
Core_0_STLB_demand_miss 27927
Core_0_STLB_demand_MPKI 0.27927
Core_0_STLB_demand_miss_rate 0.366751
Core_0_STLB_load_access 76147
Core_0_STLB_load_hit 48220
Core_0_STLB_load_miss 27927
Core_0_STLB_load_MPKI 0.27927
Core_0_STLB_load_miss_rate 0.366751
Core_0_STLB_rfo_access 0
Core_0_STLB_rfo_hit 0
Core_0_STLB_rfo_miss 0
Core_0_STLB_rfo_MPKI 0
Core_0_STLB_rfo_miss_rate 0
Core_0_STLB_prefetch_access 0
Core_0_STLB_prefetch_hit 0
Core_0_STLB_prefetch_miss 0
Core_0_STLB_prefetch_MPKI 0
Core_0_STLB_prefetch_miss_rate 0
Core_0_STLB_writeback_access 0
Core_0_STLB_writeback_hit 0
Core_0_STLB_writeback_miss 0
Core_0_STLB_writeback_MPKI 0
Core_0_STLB_writeback_miss_rate 0
Core_0_STLB_prefetch_requested 0
Core_0_STLB_prefetch_issued 0
Core_0_STLB_prefetch_useful 0
Core_0_STLB_prefetch_useless 0
Core_0_STLB_prefetch_late 0
Core_0_STLB_prefetch_accuracy 0
Core_0_STLB_prefetch_coverage 0

Core_0_L1I_total_access 20275239
Core_0_L1I_total_hit 20275239
Core_0_L1I_total_miss 0
Core_0_L1I_total_MPKI 0
Core_0_L1I_total_miss_rate 0
Core_0_L1I_demand_access 20275239
Core_0_L1I_demand_hit 20275239
Core_0_L1I_demand_miss 0
Core_0_L1I_demand_MPKI 0
Core_0_L1I_demand_miss_rate 0
Core_0_L1I_load_access 20275239
Core_0_L1I_load_hit 20275239
Core_0_L1I_load_miss 0
Core_0_L1I_load_MPKI 0
Core_0_L1I_load_miss_rate 0
Core_0_L1I_rfo_access 0
Core_0_L1I_rfo_hit 0
Core_0_L1I_rfo_miss 0
Core_0_L1I_rfo_MPKI 0
Core_0_L1I_rfo_miss_rate 0
Core_0_L1I_prefetch_access 0
Core_0_L1I_prefetch_hit 0
Core_0_L1I_prefetch_miss 0
Core_0_L1I_prefetch_MPKI 0
Core_0_L1I_prefetch_miss_rate 0
Core_0_L1I_writeback_access 0
Core_0_L1I_writeback_hit 0
Core_0_L1I_writeback_miss 0
Core_0_L1I_writeback_MPKI 0
Core_0_L1I_writeback_miss_rate 0
Core_0_L1I_prefetch_requested 0
Core_0_L1I_prefetch_issued 0
Core_0_L1I_prefetch_useful 0
Core_0_L1I_prefetch_useless 0
Core_0_L1I_prefetch_late 0
Core_0_L1I_prefetch_accuracy 0
Core_0_L1I_prefetch_coverage 0

Core_0_L1D_total_access 36633282
Core_0_L1D_total_hit 34127264
Core_0_L1D_total_miss 2506018
Core_0_L1D_total_MPKI 25.0602
Core_0_L1D_total_miss_rate 0.0684082
Core_0_L1D_demand_access 29147026
Core_0_L1D_demand_hit 26774198
Core_0_L1D_demand_miss 2372828
Core_0_L1D_demand_MPKI 23.7283
Core_0_L1D_demand_miss_rate 0.0814089
Core_0_L1D_load_access 29147026
Core_0_L1D_load_hit 26774198
Core_0_L1D_load_miss 2372828
Core_0_L1D_load_MPKI 23.7283
Core_0_L1D_load_miss_rate 0.0814089
Core_0_L1D_rfo_access 0
Core_0_L1D_rfo_hit 0
Core_0_L1D_rfo_miss 0
Core_0_L1D_rfo_MPKI 0
Core_0_L1D_rfo_miss_rate 0
Core_0_L1D_prefetch_access 0
Core_0_L1D_prefetch_hit 0
Core_0_L1D_prefetch_miss 0
Core_0_L1D_prefetch_MPKI 0
Core_0_L1D_prefetch_miss_rate 0
Core_0_L1D_writeback_access 7486256
Core_0_L1D_writeback_hit 7353066
Core_0_L1D_writeback_miss 133190
Core_0_L1D_writeback_MPKI 1.3319
Core_0_L1D_writeback_miss_rate 0.0177913
Core_0_L1D_prefetch_requested 0
Core_0_L1D_prefetch_issued 0
Core_0_L1D_prefetch_useful 0
Core_0_L1D_prefetch_useless 0
Core_0_L1D_prefetch_late 0
Core_0_L1D_prefetch_accuracy 0
Core_0_L1D_prefetch_coverage 0

Core_0_L2C_total_access 1976347
Core_0_L2C_total_hit 141211
Core_0_L2C_total_miss 1835136
Core_0_L2C_total_MPKI 18.3514
Core_0_L2C_total_miss_rate 0.928549
Core_0_L2C_demand_access 1929291
Core_0_L2C_demand_hit 94155
Core_0_L2C_demand_miss 1835136
Core_0_L2C_demand_MPKI 18.3514
Core_0_L2C_demand_miss_rate 0.951197
Core_0_L2C_load_access 1882237
Core_0_L2C_load_hit 94155
Core_0_L2C_load_miss 1788082
Core_0_L2C_load_MPKI 17.8808
Core_0_L2C_load_miss_rate 0.949977
Core_0_L2C_rfo_access 47054
Core_0_L2C_rfo_hit 0
Core_0_L2C_rfo_miss 47054
Core_0_L2C_rfo_MPKI 0.47054
Core_0_L2C_rfo_miss_rate 1
Core_0_L2C_prefetch_access 0
Core_0_L2C_prefetch_hit 0
Core_0_L2C_prefetch_miss 0
Core_0_L2C_prefetch_MPKI 0
Core_0_L2C_prefetch_miss_rate 0
Core_0_L2C_writeback_access 47056
Core_0_L2C_writeback_hit 47056
Core_0_L2C_writeback_miss 0
Core_0_L2C_writeback_MPKI 0
Core_0_L2C_writeback_miss_rate 0
Core_0_L2C_prefetch_requested 0
Core_0_L2C_prefetch_issued 0
Core_0_L2C_prefetch_useful 0
Core_0_L2C_prefetch_useless 0
Core_0_L2C_prefetch_late 0
Core_0_L2C_prefetch_accuracy 0
Core_0_L2C_prefetch_coverage 0

Core_0_LLC_total_access 1882240
Core_0_LLC_total_hit 10989
Core_0_LLC_total_miss 1871251
Core_0_LLC_total_MPKI 18.7125
Core_0_LLC_total_miss_rate 0.994162
Core_0_LLC_demand_access 1835136
Core_0_LLC_demand_hit 3808
Core_0_LLC_demand_miss 1831328
Core_0_LLC_demand_MPKI 18.3133
Core_0_LLC_demand_miss_rate 0.997925
Core_0_LLC_load_access 1788082
Core_0_LLC_load_hit 3808
Core_0_LLC_load_miss 1784274
Core_0_LLC_load_MPKI 17.8427
Core_0_LLC_load_miss_rate 0.99787
Core_0_LLC_rfo_access 47054
Core_0_LLC_rfo_hit 0
Core_0_LLC_rfo_miss 47054
Core_0_LLC_rfo_MPKI 0.47054
Core_0_LLC_rfo_miss_rate 1
Core_0_LLC_prefetch_access 0
Core_0_LLC_prefetch_hit 0
Core_0_LLC_prefetch_miss 0
Core_0_LLC_prefetch_MPKI 0
Core_0_LLC_prefetch_miss_rate 0
Core_0_LLC_writeback_access 47104
Core_0_LLC_writeback_hit 7181
Core_0_LLC_writeback_miss 39923
Core_0_LLC_writeback_MPKI 0.39923
Core_0_LLC_writeback_miss_rate 0.84755
Core_0_LLC_prefetch_requested 0
Core_0_LLC_prefetch_issued 0
Core_0_LLC_prefetch_useful 0
Core_0_LLC_prefetch_useless 0
Core_0_LLC_prefetch_late 0
Core_0_LLC_prefetch_accuracy 0
Core_0_LLC_prefetch_coverage 0

[DRAM Statistics]
Channel_0_RQ_row_buffer_hit 3
Channel_0_RQ_row_buffer_miss 1834942
Channel_0_WQ_row_buffer_hit 5395
Channel_0_WQ_row_buffer_miss 41751
Channel_0_WQ_full 0
Channel_0_dbus_congested 3734204
DRAM_total_RQ_row_buffer_hit 3
DRAM_total_RQ_row_buffer_miss 1834942
DRAM_total_WQ_row_buffer_hit 5395
DRAM_total_WQ_row_buffer_miss 41751
DRAM_total_WQ_full 0
DRAM_total_dbus_congested 3734204
DRAM_avg_congested_cycle 4.33413

====== DRAM_RQ_TRAFFIC ========
DRAM_RQ_READ_TRAFFIC_BREAKDOWN:
data_demand_read.count = 1831328
data_demand_read.share = 99.80%

inst_demand_read.count = 0
inst_demand_read.share = 0.00%

cache_inst_prefetch.count = 0
cache_inst_prefetch.share = 0.00%

cache_data_prefetch.count = 0
cache_data_prefetch.share = 0.00%

stlb_data_demand.count = 3617
stlb_data_demand.share = 0.20%

stlb_inst_demand.count = 0
stlb_inst_demand.share = 0.00%

stlb_l1i_pref.count = 0
stlb_l1i_pref.share = 0.00%

stlb_l1d_pref.count = 0
stlb_l1d_pref.share = 0.00%

DRAM_RQ_READ_TRAFFIC_SUMMARY:
cache_demand.count = 1831328
cache_demand.share = 99.80%

cache_prefetch.count = 0
cache_prefetch.share = 0.00%

stlb_demand.count = 3617
stlb_demand.share = 0.20%

stlb_prefetch.count = 0
stlb_prefetch.share = 0.00%

DRAM_RQ_READ_TRAFFIC_DEBUG:
total_classified_read.count = 1834945
unclassified_read.count = 0
total_read_with_other.count = 1834945

classified_plus_unclassified_check.count = 1834945
dram_rq_read_total_observed.count = 1834945
dram_rq_read_total_observed.per_1K_instructions = 18.3494

STLB_MISS_PTW_DRAM_TOUCH_BREAKDOWN:
stlb_miss_total.count = 27927

stlb_miss_touch_dram.count = 3573
stlb_miss_touch_dram.share = 12.79%

stlb_miss_no_dram_touch.count = 24354
stlb_miss_no_dram_touch.share = 87.21%

STLB_MISS_PTW_DRAM_TOUCH_DEBUG:
stlb_miss_touch_plus_no_touch.count = 27927
stlb_miss_total_check.count = 27927

======STLB miss causes ========
Core_0_STLB_miss_cause_breakdown
Core_0_STLB_cause_Demand_Data_miss 27927
Core_0_STLB_cause_Demand_Data_miss_rate 0.366751
Core_0_STLB_cause_Demand_Instruction_miss 0
Core_0_STLB_cause_Demand_Instruction_miss_rate 0
Core_0_STLB_cause_L1D_Prefetch_miss 0
Core_0_STLB_cause_L1D_Prefetch_miss_rate 0
Core_0_STLB_cause_L1I_Prefetch_miss 0
Core_0_STLB_cause_L1I_Prefetch_miss_rate 0
Core_0_STLB_cause_Other_miss 0
Core_0_STLB_cause_Other_miss_rate 0
Core_0_STLB_Demand_miss 27927
Core_0_STLB_Demand_miss_rate 0.366751
Core_0_STLB_L1D_Prefetch_miss 0
Core_0_STLB_L1D_Prefetch_miss_rate 0
Core_0_STLB_Other_miss 0
Core_0_STLB_Other_miss_rate 0
