[VMEM] WARNING: physical memory size is smaller than virtual memory size.

*** ChampSim Multicore Out-of-Order Simulator ***
Warmup Instructions: 50000000
Simulation Instructions: 100000000
Number of CPUs: 1
Page size: 4096
Core 0: /data0/tzh/champsim_traces/SPEC06/429.mcf-51B.champsimtrace.xz
Off-chip DRAM Size: 16 GiB Channels: 1 Width: 64-bit Data Rate: 3205 MT/s
Warmup halting CPU 0 at instruction 50000000 cycle 14110910 for remainder of phase
Warmup finished CPU 0 instructions: 50000000 cycles: 14110910 cumulative IPC: 3.543 (Simulation time: 00 hr 03 min 43 sec)
Warmup complete CPU 0 instructions: 50000000 cycles: 14110910 cumulative IPC: 3.543 (Simulation time: 00 hr 03 min 43 sec)
Simulation CPU 0 warning: IPC 0.040968 < 0.05
Simulation finished CPU 0 instructions: 100000002 cycles: 632877887 cumulative IPC: 0.158 (Simulation time: 01 hr 04 min 42 sec)
Simulation complete CPU 0 instructions: 100000002 cycles: 632877887 cumulative IPC: 0.158 (Simulation time: 01 hr 04 min 42 sec)

ChampSim completed all CPUs

=== Simulation ===
CPU 0 runs /data0/tzh/champsim_traces/SPEC06/429.mcf-51B.champsimtrace.xz

Region of Interest Statistics

CPU 0 cumulative IPC: 0.158 instructions: 100000002 cycles: 632877887
CPU 0 Branch Prediction Accuracy: 94.42% MPKI: 13.38 Average ROB Occupancy at Mispredict: 50.12
Branch type MPKI
BRANCH_DIRECT_JUMP: 0.7003
BRANCH_INDIRECT: 0
BRANCH_CONDITIONAL: 12.68
BRANCH_DIRECT_CALL: 0
BRANCH_INDIRECT_CALL: 0
BRANCH_RETURN: 0

cpu0->cpu0_STLB TOTAL        ACCESS:    7887194 HIT:    6836757 MISS:    1050437 MSHR_MERGE:          0
cpu0->cpu0_STLB LOAD         ACCESS:    7887194 HIT:    6836757 MISS:    1050437 MSHR_MERGE:          0
cpu0->cpu0_STLB RFO          ACCESS:          0 HIT:          0 MISS:          0 MSHR_MERGE:          0
cpu0->cpu0_STLB PREFETCH     ACCESS:          0 HIT:          0 MISS:          0 MSHR_MERGE:          0
cpu0->cpu0_STLB WRITE        ACCESS:          0 HIT:          0 MISS:          0 MSHR_MERGE:          0
cpu0->cpu0_STLB TRANSLATION  ACCESS:          0 HIT:          0 MISS:          0 MSHR_MERGE:          0
cpu0->cpu0_STLB PREFETCH REQUESTED:          0 ISSUED:          0 USEFUL:          0 USELESS:          0 LATE:          0
cpu0->cpu0_STLB AVERAGE MISS LATENCY: 114.9 cycles
cpu0->cpu0_L2C TOTAL        ACCESS:   13447230 HIT:    6234899 MISS:    7212331 MSHR_MERGE:          0
cpu0->cpu0_L2C LOAD         ACCESS:    9739678 HIT:    3175566 MISS:    6564112 MSHR_MERGE:          0
cpu0->cpu0_L2C RFO          ACCESS:     330111 HIT:     184372 MISS:     145739 MSHR_MERGE:          0
cpu0->cpu0_L2C PREFETCH     ACCESS:          0 HIT:          0 MISS:          0 MSHR_MERGE:          0
cpu0->cpu0_L2C WRITE        ACCESS:    2416613 HIT:    2416464 MISS:        149 MSHR_MERGE:          0
cpu0->cpu0_L2C TRANSLATION  ACCESS:     960828 HIT:     458497 MISS:     502331 MSHR_MERGE:          0
cpu0->cpu0_L2C PREFETCH REQUESTED:          0 ISSUED:          0 USEFUL:          0 USELESS:          0 LATE:          0
cpu0->cpu0_L2C AVERAGE MISS LATENCY: 196.1 cycles
cpu0->cpu0_L1I TOTAL        ACCESS:    3273865 HIT:    3273865 MISS:          0 MSHR_MERGE:          0
cpu0->cpu0_L1I LOAD         ACCESS:    3273865 HIT:    3273865 MISS:          0 MSHR_MERGE:          0
cpu0->cpu0_L1I RFO          ACCESS:          0 HIT:          0 MISS:          0 MSHR_MERGE:          0
cpu0->cpu0_L1I PREFETCH     ACCESS:          0 HIT:          0 MISS:          0 MSHR_MERGE:          0
cpu0->cpu0_L1I WRITE        ACCESS:          0 HIT:          0 MISS:          0 MSHR_MERGE:          0
cpu0->cpu0_L1I TRANSLATION  ACCESS:          0 HIT:          0 MISS:          0 MSHR_MERGE:          0
cpu0->cpu0_L1I PREFETCH REQUESTED:          0 ISSUED:          0 USEFUL:          0 USELESS:          0 LATE:          0
cpu0->cpu0_L1I AVERAGE MISS LATENCY: - cycles
cpu0->cpu0_L1D TOTAL        ACCESS:   32326623 HIT:   17615904 MISS:   14710719 MSHR_MERGE:    3680019
cpu0->cpu0_L1D LOAD         ACCESS:   25026485 HIT:   11868732 MISS:   13157753 MSHR_MERGE:    3418002
cpu0->cpu0_L1D RFO          ACCESS:          0 HIT:          0 MISS:          0 MSHR_MERGE:          0
cpu0->cpu0_L1D PREFETCH     ACCESS:          0 HIT:          0 MISS:          0 MSHR_MERGE:          0
cpu0->cpu0_L1D WRITE        ACCESS:    4885336 HIT:    4303189 MISS:     582147 MSHR_MERGE:     252026
cpu0->cpu0_L1D TRANSLATION  ACCESS:    2414802 HIT:    1443983 MISS:     970819 MSHR_MERGE:       9991
cpu0->cpu0_L1D PREFETCH REQUESTED:          0 ISSUED:          0 USEFUL:          0 USELESS:          0 LATE:          0
cpu0->cpu0_L1D AVERAGE MISS LATENCY: 137 cycles
cpu0->cpu0_ITLB TOTAL        ACCESS:    3013581 HIT:    3013581 MISS:          0 MSHR_MERGE:          0
cpu0->cpu0_ITLB LOAD         ACCESS:    3013581 HIT:    3013581 MISS:          0 MSHR_MERGE:          0
cpu0->cpu0_ITLB RFO          ACCESS:          0 HIT:          0 MISS:          0 MSHR_MERGE:          0
cpu0->cpu0_ITLB PREFETCH     ACCESS:          0 HIT:          0 MISS:          0 MSHR_MERGE:          0
cpu0->cpu0_ITLB WRITE        ACCESS:          0 HIT:          0 MISS:          0 MSHR_MERGE:          0
cpu0->cpu0_ITLB TRANSLATION  ACCESS:          0 HIT:          0 MISS:          0 MSHR_MERGE:          0
cpu0->cpu0_ITLB PREFETCH REQUESTED:          0 ISSUED:          0 USEFUL:          0 USELESS:          0 LATE:          0
cpu0->cpu0_ITLB AVERAGE MISS LATENCY: - cycles
cpu0->cpu0_DTLB TOTAL        ACCESS:   29568309 HIT:   17062460 MISS:   12505849 MSHR_MERGE:    4618655
cpu0->cpu0_DTLB LOAD         ACCESS:   29568309 HIT:   17062460 MISS:   12505849 MSHR_MERGE:    4618655
cpu0->cpu0_DTLB RFO          ACCESS:          0 HIT:          0 MISS:          0 MSHR_MERGE:          0
cpu0->cpu0_DTLB PREFETCH     ACCESS:          0 HIT:          0 MISS:          0 MSHR_MERGE:          0
cpu0->cpu0_DTLB WRITE        ACCESS:          0 HIT:          0 MISS:          0 MSHR_MERGE:          0
cpu0->cpu0_DTLB TRANSLATION  ACCESS:          0 HIT:          0 MISS:          0 MSHR_MERGE:          0
cpu0->cpu0_DTLB PREFETCH REQUESTED:          0 ISSUED:          0 USEFUL:          0 USELESS:          0 LATE:          0
cpu0->cpu0_DTLB AVERAGE MISS LATENCY: 20.44 cycles
cpu0->LLC TOTAL        ACCESS:    8749624 HIT:    2257811 MISS:    6491813 MSHR_MERGE:          0
cpu0->LLC LOAD         ACCESS:    6564111 HIT:    1282225 MISS:    5281886 MSHR_MERGE:          0
cpu0->LLC RFO          ACCESS:     145739 HIT:      47939 MISS:      97800 MSHR_MERGE:          0
cpu0->LLC PREFETCH     ACCESS:          0 HIT:          0 MISS:          0 MSHR_MERGE:          0
cpu0->LLC WRITE        ACCESS:    1537443 HIT:     786735 MISS:     750708 MSHR_MERGE:          0
cpu0->LLC TRANSLATION  ACCESS:     502331 HIT:     140912 MISS:     361419 MSHR_MERGE:          0
cpu0->LLC PREFETCH REQUESTED:          0 ISSUED:          0 USEFUL:          0 USELESS:          0 LATE:          0
cpu0->LLC AVERAGE MISS LATENCY: 201.3 cycles

DRAM Statistics

Channel 0 RQ ROW_BUFFER_HIT:       7604
  ROW_BUFFER_MISS:    5732744
  AVG DBUS CONGESTED CYCLE: 8.663
Channel 0 WQ ROW_BUFFER_HIT:     378248
  ROW_BUFFER_MISS:     891331
  FULL:          0
Channel 0 REFRESHES ISSUED:      52740

[ROI Statistics]
[System Configuration]
num_cpus 1
cpu_freq 4000
fetch_width 6
decode_width 6
dispatch_width 6
execute_width 6
lq_width 2
sq_width 2
retire_width 6
scheduler_size 128
branch_mispredict_penalty 15
rob_size 352
lq_size 128
sq_size 72
ifetch_buffer_size 64
decode_buffer_size 32
dispatch_buffer_size 32
register_file_size 288
decode_latency 1
dispatch_latency 1
schedule_latency 1
execute_latency 1
page_size 4096
block_size 64
core_0_itlb_set 16
core_0_itlb_way 4
core_0_itlb_rq_size 16
core_0_itlb_wq_size 16
core_0_itlb_pq_size 0
core_0_itlb_mshr_size 8
core_0_itlb_hit_latency 1
core_0_itlb_fill_latency 1
core_0_itlb_max_tag_check 2
core_0_itlb_max_fill 2
core_0_dtlb_set 16
core_0_dtlb_way 4
core_0_dtlb_rq_size 16
core_0_dtlb_wq_size 16
core_0_dtlb_pq_size 0
core_0_dtlb_mshr_size 8
core_0_dtlb_hit_latency 1
core_0_dtlb_fill_latency 1
core_0_dtlb_max_tag_check 2
core_0_dtlb_max_fill 2
core_0_stlb_set 128
core_0_stlb_way 12
core_0_stlb_rq_size 32
core_0_stlb_wq_size 32
core_0_stlb_pq_size 0
core_0_stlb_mshr_size 16
core_0_stlb_hit_latency 4
core_0_stlb_fill_latency 4
core_0_stlb_max_tag_check 1
core_0_stlb_max_fill 1
core_0_l1i_set 64
core_0_l1i_way 8
core_0_l1i_rq_size 64
core_0_l1i_wq_size 64
core_0_l1i_pq_size 32
core_0_l1i_mshr_size 8
core_0_l1i_hit_latency 2
core_0_l1i_fill_latency 2
core_0_l1i_max_tag_check 2
core_0_l1i_max_fill 2
core_0_l1d_set 64
core_0_l1d_way 12
core_0_l1d_rq_size 64
core_0_l1d_wq_size 64
core_0_l1d_pq_size 8
core_0_l1d_mshr_size 16
core_0_l1d_hit_latency 2
core_0_l1d_fill_latency 3
core_0_l1d_max_tag_check 2
core_0_l1d_max_fill 2
core_0_l2c_set 1024
core_0_l2c_way 8
core_0_l2c_rq_size 32
core_0_l2c_wq_size 32
core_0_l2c_pq_size 16
core_0_l2c_mshr_size 32
core_0_l2c_hit_latency 5
core_0_l2c_fill_latency 5
core_0_l2c_max_tag_check 1
core_0_l2c_max_fill 1
llc_set 2048
llc_way 16
llc_rq_size 32
llc_wq_size 32
llc_pq_size 32
llc_mshr_size 64
llc_hit_latency 10
llc_fill_latency 10
llc_max_tag_check 1
llc_max_fill 1
dram_channels 1
dram_ranks 1
dram_bankgroups 8
dram_banks 4
dram_rows 65536
dram_columns 1024
dram_channel_width 8
dram_rq_size 64
dram_wq_size 64
dram_size 17179869184
core_0_itlb_prefetcher no
core_0_dtlb_prefetcher no
core_0_stlb_prefetcher no
core_0_l1i_prefetcher no
core_0_l1d_prefetcher no
core_0_l2c_prefetcher no
llc_prefetcher no
llc_replacement drrip

Core_0_instructions 100000002
Core_0_cycles 632877887
Core_0_IPC 0.158008
Core_0_branch_prediction_accuracy 94.423
Core_0_branch_MPKI 13.38
Core_0_average_ROB_occupancy_at_mispredict 50.1156

Core_0_ITLB_total_access 3013581
Core_0_ITLB_total_hit 3013581
Core_0_ITLB_total_miss 0
Core_0_ITLB_total_MPKI 0
Core_0_ITLB_total_miss_rate 0
Core_0_ITLB_demand_access 3013581
Core_0_ITLB_demand_hit 3013581
Core_0_ITLB_demand_miss 0
Core_0_ITLB_demand_MPKI 0
Core_0_ITLB_demand_miss_rate 0
Core_0_ITLB_load_access 3013581
Core_0_ITLB_load_hit 3013581
Core_0_ITLB_load_miss 0
Core_0_ITLB_load_MPKI 0
Core_0_ITLB_load_miss_rate 0
Core_0_ITLB_rfo_access 0
Core_0_ITLB_rfo_hit 0
Core_0_ITLB_rfo_miss 0
Core_0_ITLB_rfo_MPKI 0
Core_0_ITLB_rfo_miss_rate 0
Core_0_ITLB_prefetch_access 0
Core_0_ITLB_prefetch_hit 0
Core_0_ITLB_prefetch_miss 0
Core_0_ITLB_prefetch_MPKI 0
Core_0_ITLB_prefetch_miss_rate 0
Core_0_ITLB_writeback_access 0
Core_0_ITLB_writeback_hit 0
Core_0_ITLB_writeback_miss 0
Core_0_ITLB_writeback_MPKI 0
Core_0_ITLB_writeback_miss_rate 0
Core_0_ITLB_prefetch_requested 0
Core_0_ITLB_prefetch_issued 0
Core_0_ITLB_prefetch_useful 0
Core_0_ITLB_prefetch_useless 0
Core_0_ITLB_prefetch_late 0
Core_0_ITLB_prefetch_accuracy 0
Core_0_ITLB_prefetch_coverage 0

Core_0_DTLB_total_access 29568309
Core_0_DTLB_total_hit 17062460
Core_0_DTLB_total_miss 12505849
Core_0_DTLB_total_MPKI 125.058
Core_0_DTLB_total_miss_rate 0.422948
Core_0_DTLB_demand_access 29568309
Core_0_DTLB_demand_hit 17062460
Core_0_DTLB_demand_miss 12505849
Core_0_DTLB_demand_MPKI 125.058
Core_0_DTLB_demand_miss_rate 0.422948
Core_0_DTLB_load_access 29568309
Core_0_DTLB_load_hit 17062460
Core_0_DTLB_load_miss 12505849
Core_0_DTLB_load_MPKI 125.058
Core_0_DTLB_load_miss_rate 0.422948
Core_0_DTLB_rfo_access 0
Core_0_DTLB_rfo_hit 0
Core_0_DTLB_rfo_miss 0
Core_0_DTLB_rfo_MPKI 0
Core_0_DTLB_rfo_miss_rate 0
Core_0_DTLB_prefetch_access 0
Core_0_DTLB_prefetch_hit 0
Core_0_DTLB_prefetch_miss 0
Core_0_DTLB_prefetch_MPKI 0
Core_0_DTLB_prefetch_miss_rate 0
Core_0_DTLB_writeback_access 0
Core_0_DTLB_writeback_hit 0
Core_0_DTLB_writeback_miss 0
Core_0_DTLB_writeback_MPKI 0
Core_0_DTLB_writeback_miss_rate 0
Core_0_DTLB_prefetch_requested 0
Core_0_DTLB_prefetch_issued 0
Core_0_DTLB_prefetch_useful 0
Core_0_DTLB_prefetch_useless 0
Core_0_DTLB_prefetch_late 0
Core_0_DTLB_prefetch_accuracy 0
Core_0_DTLB_prefetch_coverage 0

Core_0_STLB_total_access 7887194
Core_0_STLB_total_hit 6836757
Core_0_STLB_total_miss 1050437
Core_0_STLB_total_MPKI 10.5044
Core_0_STLB_total_miss_rate 0.133183
Core_0_STLB_demand_access 7887194
Core_0_STLB_demand_hit 6836757
Core_0_STLB_demand_miss 1050437
Core_0_STLB_demand_MPKI 10.5044
Core_0_STLB_demand_miss_rate 0.133183
Core_0_STLB_load_access 7887194
Core_0_STLB_load_hit 6836757
Core_0_STLB_load_miss 1050437
Core_0_STLB_load_MPKI 10.5044
Core_0_STLB_load_miss_rate 0.133183
Core_0_STLB_rfo_access 0
Core_0_STLB_rfo_hit 0
Core_0_STLB_rfo_miss 0
Core_0_STLB_rfo_MPKI 0
Core_0_STLB_rfo_miss_rate 0
Core_0_STLB_prefetch_access 0
Core_0_STLB_prefetch_hit 0
Core_0_STLB_prefetch_miss 0
Core_0_STLB_prefetch_MPKI 0
Core_0_STLB_prefetch_miss_rate 0
Core_0_STLB_writeback_access 0
Core_0_STLB_writeback_hit 0
Core_0_STLB_writeback_miss 0
Core_0_STLB_writeback_MPKI 0
Core_0_STLB_writeback_miss_rate 0
Core_0_STLB_prefetch_requested 0
Core_0_STLB_prefetch_issued 0
Core_0_STLB_prefetch_useful 0
Core_0_STLB_prefetch_useless 0
Core_0_STLB_prefetch_late 0
Core_0_STLB_prefetch_accuracy 0
Core_0_STLB_prefetch_coverage 0

Core_0_L1I_total_access 3273865
Core_0_L1I_total_hit 3273865
Core_0_L1I_total_miss 0
Core_0_L1I_total_MPKI 0
Core_0_L1I_total_miss_rate 0
Core_0_L1I_demand_access 3273865
Core_0_L1I_demand_hit 3273865
Core_0_L1I_demand_miss 0
Core_0_L1I_demand_MPKI 0
Core_0_L1I_demand_miss_rate 0
Core_0_L1I_load_access 3273865
Core_0_L1I_load_hit 3273865
Core_0_L1I_load_miss 0
Core_0_L1I_load_MPKI 0
Core_0_L1I_load_miss_rate 0
Core_0_L1I_rfo_access 0
Core_0_L1I_rfo_hit 0
Core_0_L1I_rfo_miss 0
Core_0_L1I_rfo_MPKI 0
Core_0_L1I_rfo_miss_rate 0
Core_0_L1I_prefetch_access 0
Core_0_L1I_prefetch_hit 0
Core_0_L1I_prefetch_miss 0
Core_0_L1I_prefetch_MPKI 0
Core_0_L1I_prefetch_miss_rate 0
Core_0_L1I_writeback_access 0
Core_0_L1I_writeback_hit 0
Core_0_L1I_writeback_miss 0
Core_0_L1I_writeback_MPKI 0
Core_0_L1I_writeback_miss_rate 0
Core_0_L1I_prefetch_requested 0
Core_0_L1I_prefetch_issued 0
Core_0_L1I_prefetch_useful 0
Core_0_L1I_prefetch_useless 0
Core_0_L1I_prefetch_late 0
Core_0_L1I_prefetch_accuracy 0
Core_0_L1I_prefetch_coverage 0

Core_0_L1D_total_access 29911821
Core_0_L1D_total_hit 16171921
Core_0_L1D_total_miss 13739900
Core_0_L1D_total_MPKI 137.399
Core_0_L1D_total_miss_rate 0.459347
Core_0_L1D_demand_access 25026485
Core_0_L1D_demand_hit 11868732
Core_0_L1D_demand_miss 13157753
Core_0_L1D_demand_MPKI 131.578
Core_0_L1D_demand_miss_rate 0.525753
Core_0_L1D_load_access 25026485
Core_0_L1D_load_hit 11868732
Core_0_L1D_load_miss 13157753
Core_0_L1D_load_MPKI 131.578
Core_0_L1D_load_miss_rate 0.525753
Core_0_L1D_rfo_access 0
Core_0_L1D_rfo_hit 0
Core_0_L1D_rfo_miss 0
Core_0_L1D_rfo_MPKI 0
Core_0_L1D_rfo_miss_rate 0
Core_0_L1D_prefetch_access 0
Core_0_L1D_prefetch_hit 0
Core_0_L1D_prefetch_miss 0
Core_0_L1D_prefetch_MPKI 0
Core_0_L1D_prefetch_miss_rate 0
Core_0_L1D_writeback_access 4885336
Core_0_L1D_writeback_hit 4303189
Core_0_L1D_writeback_miss 582147
Core_0_L1D_writeback_MPKI 5.82147
Core_0_L1D_writeback_miss_rate 0.119162
Core_0_L1D_prefetch_requested 0
Core_0_L1D_prefetch_issued 0
Core_0_L1D_prefetch_useful 0
Core_0_L1D_prefetch_useless 0
Core_0_L1D_prefetch_late 0
Core_0_L1D_prefetch_accuracy 0
Core_0_L1D_prefetch_coverage 0

Core_0_L2C_total_access 12486402
Core_0_L2C_total_hit 5776402
Core_0_L2C_total_miss 6710000
Core_0_L2C_total_MPKI 67.1
Core_0_L2C_total_miss_rate 0.537385
Core_0_L2C_demand_access 10069789
Core_0_L2C_demand_hit 3359938
Core_0_L2C_demand_miss 6709851
Core_0_L2C_demand_MPKI 67.0985
Core_0_L2C_demand_miss_rate 0.666335
Core_0_L2C_load_access 9739678
Core_0_L2C_load_hit 3175566
Core_0_L2C_load_miss 6564112
Core_0_L2C_load_MPKI 65.6411
Core_0_L2C_load_miss_rate 0.673956
Core_0_L2C_rfo_access 330111
Core_0_L2C_rfo_hit 184372
Core_0_L2C_rfo_miss 145739
Core_0_L2C_rfo_MPKI 1.45739
Core_0_L2C_rfo_miss_rate 0.441485
Core_0_L2C_prefetch_access 0
Core_0_L2C_prefetch_hit 0
Core_0_L2C_prefetch_miss 0
Core_0_L2C_prefetch_MPKI 0
Core_0_L2C_prefetch_miss_rate 0
Core_0_L2C_writeback_access 2416613
Core_0_L2C_writeback_hit 2416464
Core_0_L2C_writeback_miss 149
Core_0_L2C_writeback_MPKI 0.00149
Core_0_L2C_writeback_miss_rate 6.16565e-05
Core_0_L2C_prefetch_requested 0
Core_0_L2C_prefetch_issued 0
Core_0_L2C_prefetch_useful 0
Core_0_L2C_prefetch_useless 0
Core_0_L2C_prefetch_late 0
Core_0_L2C_prefetch_accuracy 0
Core_0_L2C_prefetch_coverage 0

Core_0_LLC_total_access 8247293
Core_0_LLC_total_hit 2116899
Core_0_LLC_total_miss 6130394
Core_0_LLC_total_MPKI 61.3039
Core_0_LLC_total_miss_rate 0.743322
Core_0_LLC_demand_access 6709850
Core_0_LLC_demand_hit 1330164
Core_0_LLC_demand_miss 5379686
Core_0_LLC_demand_MPKI 53.7969
Core_0_LLC_demand_miss_rate 0.80176
Core_0_LLC_load_access 6564111
Core_0_LLC_load_hit 1282225
Core_0_LLC_load_miss 5281886
Core_0_LLC_load_MPKI 52.8189
Core_0_LLC_load_miss_rate 0.804661
Core_0_LLC_rfo_access 145739
Core_0_LLC_rfo_hit 47939
Core_0_LLC_rfo_miss 97800
Core_0_LLC_rfo_MPKI 0.978
Core_0_LLC_rfo_miss_rate 0.671063
Core_0_LLC_prefetch_access 0
Core_0_LLC_prefetch_hit 0
Core_0_LLC_prefetch_miss 0
Core_0_LLC_prefetch_MPKI 0
Core_0_LLC_prefetch_miss_rate 0
Core_0_LLC_writeback_access 1537443
Core_0_LLC_writeback_hit 786735
Core_0_LLC_writeback_miss 750708
Core_0_LLC_writeback_MPKI 7.50708
Core_0_LLC_writeback_miss_rate 0.488283
Core_0_LLC_prefetch_requested 0
Core_0_LLC_prefetch_issued 0
Core_0_LLC_prefetch_useful 0
Core_0_LLC_prefetch_useless 0
Core_0_LLC_prefetch_late 0
Core_0_LLC_prefetch_accuracy 0
Core_0_LLC_prefetch_coverage 0

[DRAM Statistics]
Channel_0_RQ_row_buffer_hit 7604
Channel_0_RQ_row_buffer_miss 5732744
Channel_0_WQ_row_buffer_hit 378248
Channel_0_WQ_row_buffer_miss 891331
Channel_0_WQ_full 0
Channel_0_dbus_congested 16590625
DRAM_total_RQ_row_buffer_hit 7604
DRAM_total_RQ_row_buffer_miss 5732744
DRAM_total_WQ_row_buffer_hit 378248
DRAM_total_WQ_row_buffer_miss 891331
DRAM_total_WQ_full 0
DRAM_total_dbus_congested 16590625
DRAM_avg_congested_cycle 8.66299

====== DRAM_RQ_TRAFFIC ========
DRAM_RQ_READ_TRAFFIC_BREAKDOWN:
data_demand_read.count = 5379686
data_demand_read.share = 93.70%

inst_demand_read.count = 0
inst_demand_read.share = 0.00%

cache_inst_prefetch.count = 0
cache_inst_prefetch.share = 0.00%

cache_data_prefetch.count = 0
cache_data_prefetch.share = 0.00%

stlb_data_demand.count = 361419
stlb_data_demand.share = 6.30%

stlb_inst_demand.count = 0
stlb_inst_demand.share = 0.00%

stlb_l1i_pref.count = 0
stlb_l1i_pref.share = 0.00%

stlb_l1d_pref.count = 0
stlb_l1d_pref.share = 0.00%

DRAM_RQ_READ_TRAFFIC_SUMMARY:
cache_demand.count = 5379686
cache_demand.share = 93.70%

cache_prefetch.count = 0
cache_prefetch.share = 0.00%

stlb_demand.count = 361419
stlb_demand.share = 6.30%

stlb_prefetch.count = 0
stlb_prefetch.share = 0.00%

DRAM_RQ_READ_TRAFFIC_DEBUG:
total_classified_read.count = 5741105
unclassified_read.count = 0
total_read_with_other.count = 5741105

classified_plus_unclassified_check.count = 5741105
dram_rq_read_total_observed.count = 5741105
dram_rq_read_total_observed.per_1K_instructions = 57.411

STLB_MISS_PTW_DRAM_TOUCH_BREAKDOWN:
stlb_miss_total.count = 1050437

stlb_miss_touch_dram.count = 362885
stlb_miss_touch_dram.share = 34.55%

stlb_miss_no_dram_touch.count = 687552
stlb_miss_no_dram_touch.share = 65.45%

STLB_MISS_PTW_DRAM_TOUCH_DEBUG:
stlb_miss_touch_plus_no_touch.count = 1050437
stlb_miss_total_check.count = 1050437

======STLB miss causes ========
Core_0_STLB_miss_cause_breakdown
Core_0_STLB_cause_Demand_Data_miss 1050437
Core_0_STLB_cause_Demand_Data_miss_rate 0.133183
Core_0_STLB_cause_Demand_Instruction_miss 0
Core_0_STLB_cause_Demand_Instruction_miss_rate 0
Core_0_STLB_cause_L1D_Prefetch_miss 0
Core_0_STLB_cause_L1D_Prefetch_miss_rate 0
Core_0_STLB_cause_L1I_Prefetch_miss 0
Core_0_STLB_cause_L1I_Prefetch_miss_rate 0
Core_0_STLB_cause_Other_miss 0
Core_0_STLB_cause_Other_miss_rate 0
Core_0_STLB_Demand_miss 1050437
Core_0_STLB_Demand_miss_rate 0.133183
Core_0_STLB_L1D_Prefetch_miss 0
Core_0_STLB_L1D_Prefetch_miss_rate 0
Core_0_STLB_Other_miss 0
Core_0_STLB_Other_miss_rate 0
