[VMEM] WARNING: physical memory size is smaller than virtual memory size.

*** ChampSim Multicore Out-of-Order Simulator ***
Warmup Instructions: 50000000
Simulation Instructions: 100000000
Number of CPUs: 1
Page size: 4096
Core 0: /data0/tzh/champsim_traces/SPEC17/641.leela_s-800B.champsimtrace.xz
Off-chip DRAM Size: 16 GiB Channels: 1 Width: 64-bit Data Rate: 3205 MT/s
Warmup halting CPU 0 at instruction 50000004 cycle 10653581 for remainder of phase
Warmup finished CPU 0 instructions: 50000004 cycles: 10653581 cumulative IPC: 4.693 (Simulation time: 00 hr 02 min 11 sec)
Warmup complete CPU 0 instructions: 50000004 cycles: 10653581 cumulative IPC: 4.693 (Simulation time: 00 hr 02 min 11 sec)
Simulation finished CPU 0 instructions: 100000001 cycles: 79682303 cumulative IPC: 1.255 (Simulation time: 00 hr 10 min 27 sec)
Simulation complete CPU 0 instructions: 100000001 cycles: 79682303 cumulative IPC: 1.255 (Simulation time: 00 hr 10 min 27 sec)

ChampSim completed all CPUs

=== Simulation ===
CPU 0 runs /data0/tzh/champsim_traces/SPEC17/641.leela_s-800B.champsimtrace.xz

Region of Interest Statistics

CPU 0 cumulative IPC: 1.255 instructions: 100000001 cycles: 79682303
CPU 0 Branch Prediction Accuracy: 92.56% MPKI: 12.18 Average ROB Occupancy at Mispredict: 38.65
Branch type MPKI
BRANCH_DIRECT_JUMP: 0.07615
BRANCH_INDIRECT: 0.00259
BRANCH_CONDITIONAL: 12.08
BRANCH_DIRECT_CALL: 0.00174
BRANCH_INDIRECT_CALL: 0.0002
BRANCH_RETURN: 0.02809

cpu0->cpu0_STLB TOTAL        ACCESS:      41548 HIT:      40583 MISS:        965 MSHR_MERGE:          0
cpu0->cpu0_STLB LOAD         ACCESS:      41548 HIT:      40583 MISS:        965 MSHR_MERGE:          0
cpu0->cpu0_STLB RFO          ACCESS:          0 HIT:          0 MISS:          0 MSHR_MERGE:          0
cpu0->cpu0_STLB PREFETCH     ACCESS:          0 HIT:          0 MISS:          0 MSHR_MERGE:          0
cpu0->cpu0_STLB WRITE        ACCESS:          0 HIT:          0 MISS:          0 MSHR_MERGE:          0
cpu0->cpu0_STLB TRANSLATION  ACCESS:          0 HIT:          0 MISS:          0 MSHR_MERGE:          0
cpu0->cpu0_STLB PREFETCH REQUESTED:          0 ISSUED:          0 USEFUL:          0 USELESS:          0 LATE:          0
cpu0->cpu0_STLB AVERAGE MISS LATENCY: 253.4 cycles
cpu0->cpu0_L2C TOTAL        ACCESS:     349919 HIT:     279304 MISS:      70615 MSHR_MERGE:          0
cpu0->cpu0_L2C LOAD         ACCESS:     224705 HIT:     187266 MISS:      37439 MSHR_MERGE:          0
cpu0->cpu0_L2C RFO          ACCESS:      51951 HIT:      19037 MISS:      32914 MSHR_MERGE:          0
cpu0->cpu0_L2C PREFETCH     ACCESS:          0 HIT:          0 MISS:          0 MSHR_MERGE:          0
cpu0->cpu0_L2C WRITE        ACCESS:      72920 HIT:      72911 MISS:          9 MSHR_MERGE:          0
cpu0->cpu0_L2C TRANSLATION  ACCESS:        343 HIT:         90 MISS:        253 MSHR_MERGE:          0
cpu0->cpu0_L2C PREFETCH REQUESTED:          0 ISSUED:          0 USEFUL:          0 USELESS:          0 LATE:          0
cpu0->cpu0_L2C AVERAGE MISS LATENCY: 159.8 cycles
cpu0->cpu0_L1I TOTAL        ACCESS:   10675514 HIT:   10664515 MISS:      10999 MSHR_MERGE:       4682
cpu0->cpu0_L1I LOAD         ACCESS:   10675514 HIT:   10664515 MISS:      10999 MSHR_MERGE:       4682
cpu0->cpu0_L1I RFO          ACCESS:          0 HIT:          0 MISS:          0 MSHR_MERGE:          0
cpu0->cpu0_L1I PREFETCH     ACCESS:          0 HIT:          0 MISS:          0 MSHR_MERGE:          0
cpu0->cpu0_L1I WRITE        ACCESS:          0 HIT:          0 MISS:          0 MSHR_MERGE:          0
cpu0->cpu0_L1I TRANSLATION  ACCESS:          0 HIT:          0 MISS:          0 MSHR_MERGE:          0
cpu0->cpu0_L1I PREFETCH REQUESTED:          0 ISSUED:          0 USEFUL:          0 USELESS:          0 LATE:          0
cpu0->cpu0_L1I AVERAGE MISS LATENCY: 31.75 cycles
cpu0->cpu0_L1D TOTAL        ACCESS:   28998866 HIT:   28533294 MISS:     465572 MSHR_MERGE:     194890
cpu0->cpu0_L1D LOAD         ACCESS:   17367945 HIT:   17132405 MISS:     235540 MSHR_MERGE:      17152
cpu0->cpu0_L1D RFO          ACCESS:          0 HIT:          0 MISS:          0 MSHR_MERGE:          0
cpu0->cpu0_L1D PREFETCH     ACCESS:          0 HIT:          0 MISS:          0 MSHR_MERGE:          0
cpu0->cpu0_L1D WRITE        ACCESS:   11628993 HIT:   11399307 MISS:     229686 MSHR_MERGE:     177735
cpu0->cpu0_L1D TRANSLATION  ACCESS:       1928 HIT:       1582 MISS:        346 MSHR_MERGE:          3
cpu0->cpu0_L1D PREFETCH REQUESTED:          0 ISSUED:          0 USEFUL:          0 USELESS:          0 LATE:          0
cpu0->cpu0_L1D AVERAGE MISS LATENCY: 49.4 cycles
cpu0->cpu0_ITLB TOTAL        ACCESS:    9344369 HIT:    9344295 MISS:         74 MSHR_MERGE:         26
cpu0->cpu0_ITLB LOAD         ACCESS:    9344369 HIT:    9344295 MISS:         74 MSHR_MERGE:         26
cpu0->cpu0_ITLB RFO          ACCESS:          0 HIT:          0 MISS:          0 MSHR_MERGE:          0
cpu0->cpu0_ITLB PREFETCH     ACCESS:          0 HIT:          0 MISS:          0 MSHR_MERGE:          0
cpu0->cpu0_ITLB WRITE        ACCESS:          0 HIT:          0 MISS:          0 MSHR_MERGE:          0
cpu0->cpu0_ITLB TRANSLATION  ACCESS:          0 HIT:          0 MISS:          0 MSHR_MERGE:          0
cpu0->cpu0_ITLB PREFETCH REQUESTED:          0 ISSUED:          0 USEFUL:          0 USELESS:          0 LATE:          0
cpu0->cpu0_ITLB AVERAGE MISS LATENCY: 254.1 cycles
cpu0->cpu0_DTLB TOTAL        ACCESS:   27353821 HIT:   27302787 MISS:      51034 MSHR_MERGE:       9534
cpu0->cpu0_DTLB LOAD         ACCESS:   27353821 HIT:   27302787 MISS:      51034 MSHR_MERGE:       9534
cpu0->cpu0_DTLB RFO          ACCESS:          0 HIT:          0 MISS:          0 MSHR_MERGE:          0
cpu0->cpu0_DTLB PREFETCH     ACCESS:          0 HIT:          0 MISS:          0 MSHR_MERGE:          0
cpu0->cpu0_DTLB WRITE        ACCESS:          0 HIT:          0 MISS:          0 MSHR_MERGE:          0
cpu0->cpu0_DTLB TRANSLATION  ACCESS:          0 HIT:          0 MISS:          0 MSHR_MERGE:          0
cpu0->cpu0_DTLB PREFETCH REQUESTED:          0 ISSUED:          0 USEFUL:          0 USELESS:          0 LATE:          0
cpu0->cpu0_DTLB AVERAGE MISS LATENCY: 10.63 cycles
cpu0->LLC TOTAL        ACCESS:     103139 HIT:      36574 MISS:      66565 MSHR_MERGE:          0
cpu0->LLC LOAD         ACCESS:      37439 HIT:      16756 MISS:      20683 MSHR_MERGE:          0
cpu0->LLC RFO          ACCESS:      32914 HIT:        557 MISS:      32357 MSHR_MERGE:          0
cpu0->LLC PREFETCH     ACCESS:          0 HIT:          0 MISS:          0 MSHR_MERGE:          0
cpu0->LLC WRITE        ACCESS:      32533 HIT:      19202 MISS:      13331 MSHR_MERGE:          0
cpu0->LLC TRANSLATION  ACCESS:        253 HIT:         59 MISS:        194 MSHR_MERGE:          0
cpu0->LLC PREFETCH REQUESTED:          0 ISSUED:          0 USEFUL:          0 USELESS:          0 LATE:          0
cpu0->LLC AVERAGE MISS LATENCY: 154.6 cycles

DRAM Statistics

Channel 0 RQ ROW_BUFFER_HIT:       3732
  ROW_BUFFER_MISS:      49460
  AVG DBUS CONGESTED CYCLE: 13.81
Channel 0 WQ ROW_BUFFER_HIT:        949
  ROW_BUFFER_MISS:       3256
  FULL:          0
Channel 0 REFRESHES ISSUED:       6640

[ROI Statistics]
[System Configuration]
num_cpus 1
cpu_freq 4000
fetch_width 6
decode_width 6
dispatch_width 6
execute_width 6
lq_width 2
sq_width 2
retire_width 6
scheduler_size 128
branch_mispredict_penalty 15
rob_size 352
lq_size 128
sq_size 72
ifetch_buffer_size 64
decode_buffer_size 32
dispatch_buffer_size 32
register_file_size 288
decode_latency 1
dispatch_latency 1
schedule_latency 1
execute_latency 1
page_size 4096
block_size 64
core_0_itlb_set 16
core_0_itlb_way 4
core_0_itlb_rq_size 16
core_0_itlb_wq_size 16
core_0_itlb_pq_size 0
core_0_itlb_mshr_size 8
core_0_itlb_hit_latency 1
core_0_itlb_fill_latency 1
core_0_itlb_max_tag_check 2
core_0_itlb_max_fill 2
core_0_dtlb_set 16
core_0_dtlb_way 4
core_0_dtlb_rq_size 16
core_0_dtlb_wq_size 16
core_0_dtlb_pq_size 0
core_0_dtlb_mshr_size 8
core_0_dtlb_hit_latency 1
core_0_dtlb_fill_latency 1
core_0_dtlb_max_tag_check 2
core_0_dtlb_max_fill 2
core_0_stlb_set 128
core_0_stlb_way 12
core_0_stlb_rq_size 32
core_0_stlb_wq_size 32
core_0_stlb_pq_size 0
core_0_stlb_mshr_size 16
core_0_stlb_hit_latency 4
core_0_stlb_fill_latency 4
core_0_stlb_max_tag_check 1
core_0_stlb_max_fill 1
core_0_l1i_set 64
core_0_l1i_way 8
core_0_l1i_rq_size 64
core_0_l1i_wq_size 64
core_0_l1i_pq_size 32
core_0_l1i_mshr_size 8
core_0_l1i_hit_latency 2
core_0_l1i_fill_latency 2
core_0_l1i_max_tag_check 2
core_0_l1i_max_fill 2
core_0_l1d_set 64
core_0_l1d_way 12
core_0_l1d_rq_size 64
core_0_l1d_wq_size 64
core_0_l1d_pq_size 8
core_0_l1d_mshr_size 16
core_0_l1d_hit_latency 2
core_0_l1d_fill_latency 3
core_0_l1d_max_tag_check 2
core_0_l1d_max_fill 2
core_0_l2c_set 1024
core_0_l2c_way 8
core_0_l2c_rq_size 32
core_0_l2c_wq_size 32
core_0_l2c_pq_size 16
core_0_l2c_mshr_size 32
core_0_l2c_hit_latency 5
core_0_l2c_fill_latency 5
core_0_l2c_max_tag_check 1
core_0_l2c_max_fill 1
llc_set 2048
llc_way 16
llc_rq_size 32
llc_wq_size 32
llc_pq_size 32
llc_mshr_size 64
llc_hit_latency 10
llc_fill_latency 10
llc_max_tag_check 1
llc_max_fill 1
dram_channels 1
dram_ranks 1
dram_bankgroups 8
dram_banks 4
dram_rows 65536
dram_columns 1024
dram_channel_width 8
dram_rq_size 64
dram_wq_size 64
dram_size 17179869184
core_0_itlb_prefetcher no
core_0_dtlb_prefetcher no
core_0_stlb_prefetcher no
core_0_l1i_prefetcher no
core_0_l1d_prefetcher no
core_0_l2c_prefetcher no
llc_prefetcher no
llc_replacement drrip

Core_0_instructions 100000001
Core_0_cycles 79682303
Core_0_IPC 1.25498
Core_0_branch_prediction_accuracy 92.5573
Core_0_branch_MPKI 12.1849
Core_0_average_ROB_occupancy_at_mispredict 38.6452

Core_0_ITLB_total_access 9344369
Core_0_ITLB_total_hit 9344295
Core_0_ITLB_total_miss 74
Core_0_ITLB_total_MPKI 0.00074
Core_0_ITLB_total_miss_rate 7.91921e-06
Core_0_ITLB_demand_access 9344369
Core_0_ITLB_demand_hit 9344295
Core_0_ITLB_demand_miss 74
Core_0_ITLB_demand_MPKI 0.00074
Core_0_ITLB_demand_miss_rate 7.91921e-06
Core_0_ITLB_load_access 9344369
Core_0_ITLB_load_hit 9344295
Core_0_ITLB_load_miss 74
Core_0_ITLB_load_MPKI 0.00074
Core_0_ITLB_load_miss_rate 7.91921e-06
Core_0_ITLB_rfo_access 0
Core_0_ITLB_rfo_hit 0
Core_0_ITLB_rfo_miss 0
Core_0_ITLB_rfo_MPKI 0
Core_0_ITLB_rfo_miss_rate 0
Core_0_ITLB_prefetch_access 0
Core_0_ITLB_prefetch_hit 0
Core_0_ITLB_prefetch_miss 0
Core_0_ITLB_prefetch_MPKI 0
Core_0_ITLB_prefetch_miss_rate 0
Core_0_ITLB_writeback_access 0
Core_0_ITLB_writeback_hit 0
Core_0_ITLB_writeback_miss 0
Core_0_ITLB_writeback_MPKI 0
Core_0_ITLB_writeback_miss_rate 0
Core_0_ITLB_prefetch_requested 0
Core_0_ITLB_prefetch_issued 0
Core_0_ITLB_prefetch_useful 0
Core_0_ITLB_prefetch_useless 0
Core_0_ITLB_prefetch_late 0
Core_0_ITLB_prefetch_accuracy 0
Core_0_ITLB_prefetch_coverage 0

Core_0_DTLB_total_access 27353821
Core_0_DTLB_total_hit 27302787
Core_0_DTLB_total_miss 51034
Core_0_DTLB_total_MPKI 0.51034
Core_0_DTLB_total_miss_rate 0.0018657
Core_0_DTLB_demand_access 27353821
Core_0_DTLB_demand_hit 27302787
Core_0_DTLB_demand_miss 51034
Core_0_DTLB_demand_MPKI 0.51034
Core_0_DTLB_demand_miss_rate 0.0018657
Core_0_DTLB_load_access 27353821
Core_0_DTLB_load_hit 27302787
Core_0_DTLB_load_miss 51034
Core_0_DTLB_load_MPKI 0.51034
Core_0_DTLB_load_miss_rate 0.0018657
Core_0_DTLB_rfo_access 0
Core_0_DTLB_rfo_hit 0
Core_0_DTLB_rfo_miss 0
Core_0_DTLB_rfo_MPKI 0
Core_0_DTLB_rfo_miss_rate 0
Core_0_DTLB_prefetch_access 0
Core_0_DTLB_prefetch_hit 0
Core_0_DTLB_prefetch_miss 0
Core_0_DTLB_prefetch_MPKI 0
Core_0_DTLB_prefetch_miss_rate 0
Core_0_DTLB_writeback_access 0
Core_0_DTLB_writeback_hit 0
Core_0_DTLB_writeback_miss 0
Core_0_DTLB_writeback_MPKI 0
Core_0_DTLB_writeback_miss_rate 0
Core_0_DTLB_prefetch_requested 0
Core_0_DTLB_prefetch_issued 0
Core_0_DTLB_prefetch_useful 0
Core_0_DTLB_prefetch_useless 0
Core_0_DTLB_prefetch_late 0
Core_0_DTLB_prefetch_accuracy 0
Core_0_DTLB_prefetch_coverage 0

Core_0_STLB_total_access 41548
Core_0_STLB_total_hit 40583
Core_0_STLB_total_miss 965
Core_0_STLB_total_MPKI 0.00965
Core_0_STLB_total_miss_rate 0.0232261
Core_0_STLB_demand_access 41548
Core_0_STLB_demand_hit 40583
Core_0_STLB_demand_miss 965
Core_0_STLB_demand_MPKI 0.00965
Core_0_STLB_demand_miss_rate 0.0232261
Core_0_STLB_load_access 41548
Core_0_STLB_load_hit 40583
Core_0_STLB_load_miss 965
Core_0_STLB_load_MPKI 0.00965
Core_0_STLB_load_miss_rate 0.0232261
Core_0_STLB_rfo_access 0
Core_0_STLB_rfo_hit 0
Core_0_STLB_rfo_miss 0
Core_0_STLB_rfo_MPKI 0
Core_0_STLB_rfo_miss_rate 0
Core_0_STLB_prefetch_access 0
Core_0_STLB_prefetch_hit 0
Core_0_STLB_prefetch_miss 0
Core_0_STLB_prefetch_MPKI 0
Core_0_STLB_prefetch_miss_rate 0
Core_0_STLB_writeback_access 0
Core_0_STLB_writeback_hit 0
Core_0_STLB_writeback_miss 0
Core_0_STLB_writeback_MPKI 0
Core_0_STLB_writeback_miss_rate 0
Core_0_STLB_prefetch_requested 0
Core_0_STLB_prefetch_issued 0
Core_0_STLB_prefetch_useful 0
Core_0_STLB_prefetch_useless 0
Core_0_STLB_prefetch_late 0
Core_0_STLB_prefetch_accuracy 0
Core_0_STLB_prefetch_coverage 0

Core_0_L1I_total_access 10675514
Core_0_L1I_total_hit 10664515
Core_0_L1I_total_miss 10999
Core_0_L1I_total_MPKI 0.10999
Core_0_L1I_total_miss_rate 0.0010303
Core_0_L1I_demand_access 10675514
Core_0_L1I_demand_hit 10664515
Core_0_L1I_demand_miss 10999
Core_0_L1I_demand_MPKI 0.10999
Core_0_L1I_demand_miss_rate 0.0010303
Core_0_L1I_load_access 10675514
Core_0_L1I_load_hit 10664515
Core_0_L1I_load_miss 10999
Core_0_L1I_load_MPKI 0.10999
Core_0_L1I_load_miss_rate 0.0010303
Core_0_L1I_rfo_access 0
Core_0_L1I_rfo_hit 0
Core_0_L1I_rfo_miss 0
Core_0_L1I_rfo_MPKI 0
Core_0_L1I_rfo_miss_rate 0
Core_0_L1I_prefetch_access 0
Core_0_L1I_prefetch_hit 0
Core_0_L1I_prefetch_miss 0
Core_0_L1I_prefetch_MPKI 0
Core_0_L1I_prefetch_miss_rate 0
Core_0_L1I_writeback_access 0
Core_0_L1I_writeback_hit 0
Core_0_L1I_writeback_miss 0
Core_0_L1I_writeback_MPKI 0
Core_0_L1I_writeback_miss_rate 0
Core_0_L1I_prefetch_requested 0
Core_0_L1I_prefetch_issued 0
Core_0_L1I_prefetch_useful 0
Core_0_L1I_prefetch_useless 0
Core_0_L1I_prefetch_late 0
Core_0_L1I_prefetch_accuracy 0
Core_0_L1I_prefetch_coverage 0

Core_0_L1D_total_access 28996938
Core_0_L1D_total_hit 28531712
Core_0_L1D_total_miss 465226
Core_0_L1D_total_MPKI 4.65226
Core_0_L1D_total_miss_rate 0.016044
Core_0_L1D_demand_access 17367945
Core_0_L1D_demand_hit 17132405
Core_0_L1D_demand_miss 235540
Core_0_L1D_demand_MPKI 2.3554
Core_0_L1D_demand_miss_rate 0.0135618
Core_0_L1D_load_access 17367945
Core_0_L1D_load_hit 17132405
Core_0_L1D_load_miss 235540
Core_0_L1D_load_MPKI 2.3554
Core_0_L1D_load_miss_rate 0.0135618
Core_0_L1D_rfo_access 0
Core_0_L1D_rfo_hit 0
Core_0_L1D_rfo_miss 0
Core_0_L1D_rfo_MPKI 0
Core_0_L1D_rfo_miss_rate 0
Core_0_L1D_prefetch_access 0
Core_0_L1D_prefetch_hit 0
Core_0_L1D_prefetch_miss 0
Core_0_L1D_prefetch_MPKI 0
Core_0_L1D_prefetch_miss_rate 0
Core_0_L1D_writeback_access 11628993
Core_0_L1D_writeback_hit 11399307
Core_0_L1D_writeback_miss 229686
Core_0_L1D_writeback_MPKI 2.29686
Core_0_L1D_writeback_miss_rate 0.0197512
Core_0_L1D_prefetch_requested 0
Core_0_L1D_prefetch_issued 0
Core_0_L1D_prefetch_useful 0
Core_0_L1D_prefetch_useless 0
Core_0_L1D_prefetch_late 0
Core_0_L1D_prefetch_accuracy 0
Core_0_L1D_prefetch_coverage 0

Core_0_L2C_total_access 349576
Core_0_L2C_total_hit 279214
Core_0_L2C_total_miss 70362
Core_0_L2C_total_MPKI 0.70362
Core_0_L2C_total_miss_rate 0.201278
Core_0_L2C_demand_access 276656
Core_0_L2C_demand_hit 206303
Core_0_L2C_demand_miss 70353
Core_0_L2C_demand_MPKI 0.70353
Core_0_L2C_demand_miss_rate 0.254298
Core_0_L2C_load_access 224705
Core_0_L2C_load_hit 187266
Core_0_L2C_load_miss 37439
Core_0_L2C_load_MPKI 0.37439
Core_0_L2C_load_miss_rate 0.166614
Core_0_L2C_rfo_access 51951
Core_0_L2C_rfo_hit 19037
Core_0_L2C_rfo_miss 32914
Core_0_L2C_rfo_MPKI 0.32914
Core_0_L2C_rfo_miss_rate 0.633559
Core_0_L2C_prefetch_access 0
Core_0_L2C_prefetch_hit 0
Core_0_L2C_prefetch_miss 0
Core_0_L2C_prefetch_MPKI 0
Core_0_L2C_prefetch_miss_rate 0
Core_0_L2C_writeback_access 72920
Core_0_L2C_writeback_hit 72911
Core_0_L2C_writeback_miss 9
Core_0_L2C_writeback_MPKI 9e-05
Core_0_L2C_writeback_miss_rate 0.000123423
Core_0_L2C_prefetch_requested 0
Core_0_L2C_prefetch_issued 0
Core_0_L2C_prefetch_useful 0
Core_0_L2C_prefetch_useless 0
Core_0_L2C_prefetch_late 0
Core_0_L2C_prefetch_accuracy 0
Core_0_L2C_prefetch_coverage 0

Core_0_LLC_total_access 102886
Core_0_LLC_total_hit 36515
Core_0_LLC_total_miss 66371
Core_0_LLC_total_MPKI 0.66371
Core_0_LLC_total_miss_rate 0.645093
Core_0_LLC_demand_access 70353
Core_0_LLC_demand_hit 17313
Core_0_LLC_demand_miss 53040
Core_0_LLC_demand_MPKI 0.5304
Core_0_LLC_demand_miss_rate 0.753912
Core_0_LLC_load_access 37439
Core_0_LLC_load_hit 16756
Core_0_LLC_load_miss 20683
Core_0_LLC_load_MPKI 0.20683
Core_0_LLC_load_miss_rate 0.552445
Core_0_LLC_rfo_access 32914
Core_0_LLC_rfo_hit 557
Core_0_LLC_rfo_miss 32357
Core_0_LLC_rfo_MPKI 0.32357
Core_0_LLC_rfo_miss_rate 0.983077
Core_0_LLC_prefetch_access 0
Core_0_LLC_prefetch_hit 0
Core_0_LLC_prefetch_miss 0
Core_0_LLC_prefetch_MPKI 0
Core_0_LLC_prefetch_miss_rate 0
Core_0_LLC_writeback_access 32533
Core_0_LLC_writeback_hit 19202
Core_0_LLC_writeback_miss 13331
Core_0_LLC_writeback_MPKI 0.13331
Core_0_LLC_writeback_miss_rate 0.409769
Core_0_LLC_prefetch_requested 0
Core_0_LLC_prefetch_issued 0
Core_0_LLC_prefetch_useful 0
Core_0_LLC_prefetch_useless 0
Core_0_LLC_prefetch_late 0
Core_0_LLC_prefetch_accuracy 0
Core_0_LLC_prefetch_coverage 0

[DRAM Statistics]
Channel_0_RQ_row_buffer_hit 3732
Channel_0_RQ_row_buffer_miss 49460
Channel_0_WQ_row_buffer_hit 949
Channel_0_WQ_row_buffer_miss 3256
Channel_0_WQ_full 0
Channel_0_dbus_congested 88149
DRAM_total_RQ_row_buffer_hit 3732
DRAM_total_RQ_row_buffer_miss 49460
DRAM_total_WQ_row_buffer_hit 949
DRAM_total_WQ_row_buffer_miss 3256
DRAM_total_WQ_full 0
DRAM_total_dbus_congested 88149
DRAM_avg_congested_cycle 13.8065

====== DRAM_RQ_TRAFFIC ========
DRAM_RQ_READ_TRAFFIC_BREAKDOWN:
data_demand_read.count = 52258
data_demand_read.share = 98.17%

inst_demand_read.count = 782
inst_demand_read.share = 1.47%

cache_inst_prefetch.count = 0
cache_inst_prefetch.share = 0.00%

cache_data_prefetch.count = 0
cache_data_prefetch.share = 0.00%

stlb_data_demand.count = 175
stlb_data_demand.share = 0.33%

stlb_inst_demand.count = 19
stlb_inst_demand.share = 0.04%

stlb_l1i_pref.count = 0
stlb_l1i_pref.share = 0.00%

stlb_l1d_pref.count = 0
stlb_l1d_pref.share = 0.00%

DRAM_RQ_READ_TRAFFIC_SUMMARY:
cache_demand.count = 53040
cache_demand.share = 99.64%

cache_prefetch.count = 0
cache_prefetch.share = 0.00%

stlb_demand.count = 194
stlb_demand.share = 0.36%

stlb_prefetch.count = 0
stlb_prefetch.share = 0.00%

DRAM_RQ_READ_TRAFFIC_DEBUG:
total_classified_read.count = 53234
unclassified_read.count = 0
total_read_with_other.count = 53234

classified_plus_unclassified_check.count = 53234
dram_rq_read_total_observed.count = 53234
dram_rq_read_total_observed.per_1K_instructions = 0.53234

STLB_MISS_PTW_DRAM_TOUCH_BREAKDOWN:
stlb_miss_total.count = 965

stlb_miss_touch_dram.count = 194
stlb_miss_touch_dram.share = 20.10%

stlb_miss_no_dram_touch.count = 771
stlb_miss_no_dram_touch.share = 79.90%

STLB_MISS_PTW_DRAM_TOUCH_DEBUG:
stlb_miss_touch_plus_no_touch.count = 965
stlb_miss_total_check.count = 965

======STLB miss causes ========
Core_0_STLB_miss_cause_breakdown
Core_0_STLB_cause_Demand_Data_miss 924
Core_0_STLB_cause_Demand_Data_miss_rate 0.0222393
Core_0_STLB_cause_Demand_Instruction_miss 41
Core_0_STLB_cause_Demand_Instruction_miss_rate 0.00098681
Core_0_STLB_cause_L1D_Prefetch_miss 0
Core_0_STLB_cause_L1D_Prefetch_miss_rate 0
Core_0_STLB_cause_L1I_Prefetch_miss 0
Core_0_STLB_cause_L1I_Prefetch_miss_rate 0
Core_0_STLB_cause_Other_miss 0
Core_0_STLB_cause_Other_miss_rate 0
Core_0_STLB_Demand_miss 965
Core_0_STLB_Demand_miss_rate 0.0232261
Core_0_STLB_L1D_Prefetch_miss 0
Core_0_STLB_L1D_Prefetch_miss_rate 0
Core_0_STLB_Other_miss 0
Core_0_STLB_Other_miss_rate 0
