[VMEM] WARNING: physical memory size is smaller than virtual memory size.

*** ChampSim Multicore Out-of-Order Simulator ***
Warmup Instructions: 50000000
Simulation Instructions: 100000000
Number of CPUs: 1
Page size: 4096
Core 0: /data0/tzh/champsim_traces/SPEC17/641.leela_s-1052B.champsimtrace.xz
Off-chip DRAM Size: 16 GiB Channels: 1 Width: 64-bit Data Rate: 3205 MT/s
Warmup halting CPU 0 at instruction 50000005 cycle 10759437 for remainder of phase
Warmup finished CPU 0 instructions: 50000005 cycles: 10759437 cumulative IPC: 4.647 (Simulation time: 00 hr 02 min 02 sec)
Warmup complete CPU 0 instructions: 50000005 cycles: 10759437 cumulative IPC: 4.647 (Simulation time: 00 hr 02 min 02 sec)
Simulation finished CPU 0 instructions: 100000000 cycles: 75569807 cumulative IPC: 1.323 (Simulation time: 00 hr 09 min 29 sec)
Simulation complete CPU 0 instructions: 100000000 cycles: 75569807 cumulative IPC: 1.323 (Simulation time: 00 hr 09 min 29 sec)

ChampSim completed all CPUs

=== Simulation ===
CPU 0 runs /data0/tzh/champsim_traces/SPEC17/641.leela_s-1052B.champsimtrace.xz

Region of Interest Statistics

CPU 0 cumulative IPC: 1.323 instructions: 100000000 cycles: 75569807
CPU 0 Branch Prediction Accuracy: 92.54% MPKI: 12.55 Average ROB Occupancy at Mispredict: 37.76
Branch type MPKI
BRANCH_DIRECT_JUMP: 0.08431
BRANCH_INDIRECT: 0.0004
BRANCH_CONDITIONAL: 12.43
BRANCH_DIRECT_CALL: 0
BRANCH_INDIRECT_CALL: 0
BRANCH_RETURN: 0.03847

cpu0->cpu0_STLB TOTAL        ACCESS:      44838 HIT:      44712 MISS:        126 MSHR_MERGE:          0
cpu0->cpu0_STLB LOAD         ACCESS:      44838 HIT:      44712 MISS:        126 MSHR_MERGE:          0
cpu0->cpu0_STLB RFO          ACCESS:          0 HIT:          0 MISS:          0 MSHR_MERGE:          0
cpu0->cpu0_STLB PREFETCH     ACCESS:          0 HIT:          0 MISS:          0 MSHR_MERGE:          0
cpu0->cpu0_STLB WRITE        ACCESS:          0 HIT:          0 MISS:          0 MSHR_MERGE:          0
cpu0->cpu0_STLB TRANSLATION  ACCESS:          0 HIT:          0 MISS:          0 MSHR_MERGE:          0
cpu0->cpu0_STLB PREFETCH REQUESTED:          0 ISSUED:          0 USEFUL:          0 USELESS:          0 LATE:          0
cpu0->cpu0_STLB AVERAGE MISS LATENCY: 268.9 cycles
cpu0->cpu0_L2C TOTAL        ACCESS:     286570 HIT:     284515 MISS:       2055 MSHR_MERGE:          0
cpu0->cpu0_L2C LOAD         ACCESS:     203720 HIT:     201715 MISS:       2005 MSHR_MERGE:          0
cpu0->cpu0_L2C RFO          ACCESS:      28667 HIT:      28664 MISS:          3 MSHR_MERGE:          0
cpu0->cpu0_L2C PREFETCH     ACCESS:          0 HIT:          0 MISS:          0 MSHR_MERGE:          0
cpu0->cpu0_L2C WRITE        ACCESS:      54063 HIT:      54062 MISS:          1 MSHR_MERGE:          0
cpu0->cpu0_L2C TRANSLATION  ACCESS:        120 HIT:         74 MISS:         46 MSHR_MERGE:          0
cpu0->cpu0_L2C PREFETCH REQUESTED:          0 ISSUED:          0 USEFUL:          0 USELESS:          0 LATE:          0
cpu0->cpu0_L2C AVERAGE MISS LATENCY: 146.4 cycles
cpu0->cpu0_L1I TOTAL        ACCESS:   10509380 HIT:   10497101 MISS:      12279 MSHR_MERGE:       5341
cpu0->cpu0_L1I LOAD         ACCESS:   10509380 HIT:   10497101 MISS:      12279 MSHR_MERGE:       5341
cpu0->cpu0_L1I RFO          ACCESS:          0 HIT:          0 MISS:          0 MSHR_MERGE:          0
cpu0->cpu0_L1I PREFETCH     ACCESS:          0 HIT:          0 MISS:          0 MSHR_MERGE:          0
cpu0->cpu0_L1I WRITE        ACCESS:          0 HIT:          0 MISS:          0 MSHR_MERGE:          0
cpu0->cpu0_L1I TRANSLATION  ACCESS:          0 HIT:          0 MISS:          0 MSHR_MERGE:          0
cpu0->cpu0_L1I PREFETCH REQUESTED:          0 ISSUED:          0 USEFUL:          0 USELESS:          0 LATE:          0
cpu0->cpu0_L1I AVERAGE MISS LATENCY: 7.05 cycles
cpu0->cpu0_L1D TOTAL        ACCESS:   28730593 HIT:   28435338 MISS:     295255 MSHR_MERGE:      69686
cpu0->cpu0_L1D LOAD         ACCESS:   17403975 HIT:   17191256 MISS:     212719 MSHR_MERGE:      15937
cpu0->cpu0_L1D RFO          ACCESS:          0 HIT:          0 MISS:          0 MSHR_MERGE:          0
cpu0->cpu0_L1D PREFETCH     ACCESS:          0 HIT:          0 MISS:          0 MSHR_MERGE:          0
cpu0->cpu0_L1D WRITE        ACCESS:   11326366 HIT:   11243950 MISS:      82416 MSHR_MERGE:      53749
cpu0->cpu0_L1D TRANSLATION  ACCESS:        252 HIT:        132 MISS:        120 MSHR_MERGE:          0
cpu0->cpu0_L1D PREFETCH REQUESTED:          0 ISSUED:          0 USEFUL:          0 USELESS:          0 LATE:          0
cpu0->cpu0_L1D AVERAGE MISS LATENCY: 9.405 cycles
cpu0->cpu0_ITLB TOTAL        ACCESS:    9211817 HIT:    9211817 MISS:          0 MSHR_MERGE:          0
cpu0->cpu0_ITLB LOAD         ACCESS:    9211817 HIT:    9211817 MISS:          0 MSHR_MERGE:          0
cpu0->cpu0_ITLB RFO          ACCESS:          0 HIT:          0 MISS:          0 MSHR_MERGE:          0
cpu0->cpu0_ITLB PREFETCH     ACCESS:          0 HIT:          0 MISS:          0 MSHR_MERGE:          0
cpu0->cpu0_ITLB WRITE        ACCESS:          0 HIT:          0 MISS:          0 MSHR_MERGE:          0
cpu0->cpu0_ITLB TRANSLATION  ACCESS:          0 HIT:          0 MISS:          0 MSHR_MERGE:          0
cpu0->cpu0_ITLB PREFETCH REQUESTED:          0 ISSUED:          0 USEFUL:          0 USELESS:          0 LATE:          0
cpu0->cpu0_ITLB AVERAGE MISS LATENCY: - cycles
cpu0->cpu0_DTLB TOTAL        ACCESS:   27109554 HIT:   27059047 MISS:      50507 MSHR_MERGE:       5669
cpu0->cpu0_DTLB LOAD         ACCESS:   27109554 HIT:   27059047 MISS:      50507 MSHR_MERGE:       5669
cpu0->cpu0_DTLB RFO          ACCESS:          0 HIT:          0 MISS:          0 MSHR_MERGE:          0
cpu0->cpu0_DTLB PREFETCH     ACCESS:          0 HIT:          0 MISS:          0 MSHR_MERGE:          0
cpu0->cpu0_DTLB WRITE        ACCESS:          0 HIT:          0 MISS:          0 MSHR_MERGE:          0
cpu0->cpu0_DTLB TRANSLATION  ACCESS:          0 HIT:          0 MISS:          0 MSHR_MERGE:          0
cpu0->cpu0_DTLB PREFETCH REQUESTED:          0 ISSUED:          0 USEFUL:          0 USELESS:          0 LATE:          0
cpu0->cpu0_DTLB AVERAGE MISS LATENCY: 5.759 cycles
cpu0->LLC TOTAL        ACCESS:       2134 HIT:        405 MISS:       1729 MSHR_MERGE:          0
cpu0->LLC LOAD         ACCESS:       2005 HIT:        313 MISS:       1692 MSHR_MERGE:          0
cpu0->LLC RFO          ACCESS:          3 HIT:          2 MISS:          1 MSHR_MERGE:          0
cpu0->LLC PREFETCH     ACCESS:          0 HIT:          0 MISS:          0 MSHR_MERGE:          0
cpu0->LLC WRITE        ACCESS:         80 HIT:         80 MISS:          0 MSHR_MERGE:          0
cpu0->LLC TRANSLATION  ACCESS:         46 HIT:         10 MISS:         36 MSHR_MERGE:          0
cpu0->LLC PREFETCH REQUESTED:          0 ISSUED:          0 USEFUL:          0 USELESS:          0 LATE:          0
cpu0->LLC AVERAGE MISS LATENCY: 155.2 cycles

DRAM Statistics

Channel 0 RQ ROW_BUFFER_HIT:        112
  ROW_BUFFER_MISS:       1617
  AVG DBUS CONGESTED CYCLE: 2.733
Channel 0 WQ ROW_BUFFER_HIT:          0
  ROW_BUFFER_MISS:          0
  FULL:          0
Channel 0 REFRESHES ISSUED:       6298

[ROI Statistics]
[System Configuration]
num_cpus 1
cpu_freq 4000
fetch_width 6
decode_width 6
dispatch_width 6
execute_width 6
lq_width 2
sq_width 2
retire_width 6
scheduler_size 128
branch_mispredict_penalty 15
rob_size 352
lq_size 128
sq_size 72
ifetch_buffer_size 64
decode_buffer_size 32
dispatch_buffer_size 32
register_file_size 288
decode_latency 1
dispatch_latency 1
schedule_latency 1
execute_latency 1
page_size 4096
block_size 64
core_0_itlb_set 16
core_0_itlb_way 4
core_0_itlb_rq_size 16
core_0_itlb_wq_size 16
core_0_itlb_pq_size 0
core_0_itlb_mshr_size 8
core_0_itlb_hit_latency 1
core_0_itlb_fill_latency 1
core_0_itlb_max_tag_check 2
core_0_itlb_max_fill 2
core_0_dtlb_set 16
core_0_dtlb_way 4
core_0_dtlb_rq_size 16
core_0_dtlb_wq_size 16
core_0_dtlb_pq_size 0
core_0_dtlb_mshr_size 8
core_0_dtlb_hit_latency 1
core_0_dtlb_fill_latency 1
core_0_dtlb_max_tag_check 2
core_0_dtlb_max_fill 2
core_0_stlb_set 128
core_0_stlb_way 12
core_0_stlb_rq_size 32
core_0_stlb_wq_size 32
core_0_stlb_pq_size 0
core_0_stlb_mshr_size 16
core_0_stlb_hit_latency 4
core_0_stlb_fill_latency 4
core_0_stlb_max_tag_check 1
core_0_stlb_max_fill 1
core_0_l1i_set 64
core_0_l1i_way 8
core_0_l1i_rq_size 64
core_0_l1i_wq_size 64
core_0_l1i_pq_size 32
core_0_l1i_mshr_size 8
core_0_l1i_hit_latency 2
core_0_l1i_fill_latency 2
core_0_l1i_max_tag_check 2
core_0_l1i_max_fill 2
core_0_l1d_set 64
core_0_l1d_way 12
core_0_l1d_rq_size 64
core_0_l1d_wq_size 64
core_0_l1d_pq_size 8
core_0_l1d_mshr_size 16
core_0_l1d_hit_latency 2
core_0_l1d_fill_latency 3
core_0_l1d_max_tag_check 2
core_0_l1d_max_fill 2
core_0_l2c_set 1024
core_0_l2c_way 8
core_0_l2c_rq_size 32
core_0_l2c_wq_size 32
core_0_l2c_pq_size 16
core_0_l2c_mshr_size 32
core_0_l2c_hit_latency 5
core_0_l2c_fill_latency 5
core_0_l2c_max_tag_check 1
core_0_l2c_max_fill 1
llc_set 2048
llc_way 16
llc_rq_size 32
llc_wq_size 32
llc_pq_size 32
llc_mshr_size 64
llc_hit_latency 10
llc_fill_latency 10
llc_max_tag_check 1
llc_max_fill 1
dram_channels 1
dram_ranks 1
dram_bankgroups 8
dram_banks 4
dram_rows 65536
dram_columns 1024
dram_channel_width 8
dram_rq_size 64
dram_wq_size 64
dram_size 17179869184
core_0_itlb_prefetcher no
core_0_dtlb_prefetcher no
core_0_stlb_prefetcher no
core_0_l1i_prefetcher no
core_0_l1d_prefetcher no
core_0_l2c_prefetcher no
llc_prefetcher no
llc_replacement drrip

Core_0_instructions 100000000
Core_0_cycles 75569807
Core_0_IPC 1.32328
Core_0_branch_prediction_accuracy 92.5372
Core_0_branch_MPKI 12.5515
Core_0_average_ROB_occupancy_at_mispredict 37.7607

Core_0_ITLB_total_access 9211817
Core_0_ITLB_total_hit 9211817
Core_0_ITLB_total_miss 0
Core_0_ITLB_total_MPKI 0
Core_0_ITLB_total_miss_rate 0
Core_0_ITLB_demand_access 9211817
Core_0_ITLB_demand_hit 9211817
Core_0_ITLB_demand_miss 0
Core_0_ITLB_demand_MPKI 0
Core_0_ITLB_demand_miss_rate 0
Core_0_ITLB_load_access 9211817
Core_0_ITLB_load_hit 9211817
Core_0_ITLB_load_miss 0
Core_0_ITLB_load_MPKI 0
Core_0_ITLB_load_miss_rate 0
Core_0_ITLB_rfo_access 0
Core_0_ITLB_rfo_hit 0
Core_0_ITLB_rfo_miss 0
Core_0_ITLB_rfo_MPKI 0
Core_0_ITLB_rfo_miss_rate 0
Core_0_ITLB_prefetch_access 0
Core_0_ITLB_prefetch_hit 0
Core_0_ITLB_prefetch_miss 0
Core_0_ITLB_prefetch_MPKI 0
Core_0_ITLB_prefetch_miss_rate 0
Core_0_ITLB_writeback_access 0
Core_0_ITLB_writeback_hit 0
Core_0_ITLB_writeback_miss 0
Core_0_ITLB_writeback_MPKI 0
Core_0_ITLB_writeback_miss_rate 0
Core_0_ITLB_prefetch_requested 0
Core_0_ITLB_prefetch_issued 0
Core_0_ITLB_prefetch_useful 0
Core_0_ITLB_prefetch_useless 0
Core_0_ITLB_prefetch_late 0
Core_0_ITLB_prefetch_accuracy 0
Core_0_ITLB_prefetch_coverage 0

Core_0_DTLB_total_access 27109554
Core_0_DTLB_total_hit 27059047
Core_0_DTLB_total_miss 50507
Core_0_DTLB_total_MPKI 0.50507
Core_0_DTLB_total_miss_rate 0.00186307
Core_0_DTLB_demand_access 27109554
Core_0_DTLB_demand_hit 27059047
Core_0_DTLB_demand_miss 50507
Core_0_DTLB_demand_MPKI 0.50507
Core_0_DTLB_demand_miss_rate 0.00186307
Core_0_DTLB_load_access 27109554
Core_0_DTLB_load_hit 27059047
Core_0_DTLB_load_miss 50507
Core_0_DTLB_load_MPKI 0.50507
Core_0_DTLB_load_miss_rate 0.00186307
Core_0_DTLB_rfo_access 0
Core_0_DTLB_rfo_hit 0
Core_0_DTLB_rfo_miss 0
Core_0_DTLB_rfo_MPKI 0
Core_0_DTLB_rfo_miss_rate 0
Core_0_DTLB_prefetch_access 0
Core_0_DTLB_prefetch_hit 0
Core_0_DTLB_prefetch_miss 0
Core_0_DTLB_prefetch_MPKI 0
Core_0_DTLB_prefetch_miss_rate 0
Core_0_DTLB_writeback_access 0
Core_0_DTLB_writeback_hit 0
Core_0_DTLB_writeback_miss 0
Core_0_DTLB_writeback_MPKI 0
Core_0_DTLB_writeback_miss_rate 0
Core_0_DTLB_prefetch_requested 0
Core_0_DTLB_prefetch_issued 0
Core_0_DTLB_prefetch_useful 0
Core_0_DTLB_prefetch_useless 0
Core_0_DTLB_prefetch_late 0
Core_0_DTLB_prefetch_accuracy 0
Core_0_DTLB_prefetch_coverage 0

Core_0_STLB_total_access 44838
Core_0_STLB_total_hit 44712
Core_0_STLB_total_miss 126
Core_0_STLB_total_MPKI 0.00126
Core_0_STLB_total_miss_rate 0.00281012
Core_0_STLB_demand_access 44838
Core_0_STLB_demand_hit 44712
Core_0_STLB_demand_miss 126
Core_0_STLB_demand_MPKI 0.00126
Core_0_STLB_demand_miss_rate 0.00281012
Core_0_STLB_load_access 44838
Core_0_STLB_load_hit 44712
Core_0_STLB_load_miss 126
Core_0_STLB_load_MPKI 0.00126
Core_0_STLB_load_miss_rate 0.00281012
Core_0_STLB_rfo_access 0
Core_0_STLB_rfo_hit 0
Core_0_STLB_rfo_miss 0
Core_0_STLB_rfo_MPKI 0
Core_0_STLB_rfo_miss_rate 0
Core_0_STLB_prefetch_access 0
Core_0_STLB_prefetch_hit 0
Core_0_STLB_prefetch_miss 0
Core_0_STLB_prefetch_MPKI 0
Core_0_STLB_prefetch_miss_rate 0
Core_0_STLB_writeback_access 0
Core_0_STLB_writeback_hit 0
Core_0_STLB_writeback_miss 0
Core_0_STLB_writeback_MPKI 0
Core_0_STLB_writeback_miss_rate 0
Core_0_STLB_prefetch_requested 0
Core_0_STLB_prefetch_issued 0
Core_0_STLB_prefetch_useful 0
Core_0_STLB_prefetch_useless 0
Core_0_STLB_prefetch_late 0
Core_0_STLB_prefetch_accuracy 0
Core_0_STLB_prefetch_coverage 0

Core_0_L1I_total_access 10509380
Core_0_L1I_total_hit 10497101
Core_0_L1I_total_miss 12279
Core_0_L1I_total_MPKI 0.12279
Core_0_L1I_total_miss_rate 0.00116838
Core_0_L1I_demand_access 10509380
Core_0_L1I_demand_hit 10497101
Core_0_L1I_demand_miss 12279
Core_0_L1I_demand_MPKI 0.12279
Core_0_L1I_demand_miss_rate 0.00116838
Core_0_L1I_load_access 10509380
Core_0_L1I_load_hit 10497101
Core_0_L1I_load_miss 12279
Core_0_L1I_load_MPKI 0.12279
Core_0_L1I_load_miss_rate 0.00116838
Core_0_L1I_rfo_access 0
Core_0_L1I_rfo_hit 0
Core_0_L1I_rfo_miss 0
Core_0_L1I_rfo_MPKI 0
Core_0_L1I_rfo_miss_rate 0
Core_0_L1I_prefetch_access 0
Core_0_L1I_prefetch_hit 0
Core_0_L1I_prefetch_miss 0
Core_0_L1I_prefetch_MPKI 0
Core_0_L1I_prefetch_miss_rate 0
Core_0_L1I_writeback_access 0
Core_0_L1I_writeback_hit 0
Core_0_L1I_writeback_miss 0
Core_0_L1I_writeback_MPKI 0
Core_0_L1I_writeback_miss_rate 0
Core_0_L1I_prefetch_requested 0
Core_0_L1I_prefetch_issued 0
Core_0_L1I_prefetch_useful 0
Core_0_L1I_prefetch_useless 0
Core_0_L1I_prefetch_late 0
Core_0_L1I_prefetch_accuracy 0
Core_0_L1I_prefetch_coverage 0

Core_0_L1D_total_access 28730341
Core_0_L1D_total_hit 28435206
Core_0_L1D_total_miss 295135
Core_0_L1D_total_MPKI 2.95135
Core_0_L1D_total_miss_rate 0.0102726
Core_0_L1D_demand_access 17403975
Core_0_L1D_demand_hit 17191256
Core_0_L1D_demand_miss 212719
Core_0_L1D_demand_MPKI 2.12719
Core_0_L1D_demand_miss_rate 0.0122224
Core_0_L1D_load_access 17403975
Core_0_L1D_load_hit 17191256
Core_0_L1D_load_miss 212719
Core_0_L1D_load_MPKI 2.12719
Core_0_L1D_load_miss_rate 0.0122224
Core_0_L1D_rfo_access 0
Core_0_L1D_rfo_hit 0
Core_0_L1D_rfo_miss 0
Core_0_L1D_rfo_MPKI 0
Core_0_L1D_rfo_miss_rate 0
Core_0_L1D_prefetch_access 0
Core_0_L1D_prefetch_hit 0
Core_0_L1D_prefetch_miss 0
Core_0_L1D_prefetch_MPKI 0
Core_0_L1D_prefetch_miss_rate 0
Core_0_L1D_writeback_access 11326366
Core_0_L1D_writeback_hit 11243950
Core_0_L1D_writeback_miss 82416
Core_0_L1D_writeback_MPKI 0.82416
Core_0_L1D_writeback_miss_rate 0.00727647
Core_0_L1D_prefetch_requested 0
Core_0_L1D_prefetch_issued 0
Core_0_L1D_prefetch_useful 0
Core_0_L1D_prefetch_useless 0
Core_0_L1D_prefetch_late 0
Core_0_L1D_prefetch_accuracy 0
Core_0_L1D_prefetch_coverage 0

Core_0_L2C_total_access 286450
Core_0_L2C_total_hit 284441
Core_0_L2C_total_miss 2009
Core_0_L2C_total_MPKI 0.02009
Core_0_L2C_total_miss_rate 0.00701344
Core_0_L2C_demand_access 232387
Core_0_L2C_demand_hit 230379
Core_0_L2C_demand_miss 2008
Core_0_L2C_demand_MPKI 0.02008
Core_0_L2C_demand_miss_rate 0.00864076
Core_0_L2C_load_access 203720
Core_0_L2C_load_hit 201715
Core_0_L2C_load_miss 2005
Core_0_L2C_load_MPKI 0.02005
Core_0_L2C_load_miss_rate 0.00984194
Core_0_L2C_rfo_access 28667
Core_0_L2C_rfo_hit 28664
Core_0_L2C_rfo_miss 3
Core_0_L2C_rfo_MPKI 3e-05
Core_0_L2C_rfo_miss_rate 0.00010465
Core_0_L2C_prefetch_access 0
Core_0_L2C_prefetch_hit 0
Core_0_L2C_prefetch_miss 0
Core_0_L2C_prefetch_MPKI 0
Core_0_L2C_prefetch_miss_rate 0
Core_0_L2C_writeback_access 54063
Core_0_L2C_writeback_hit 54062
Core_0_L2C_writeback_miss 1
Core_0_L2C_writeback_MPKI 1e-05
Core_0_L2C_writeback_miss_rate 1.84969e-05
Core_0_L2C_prefetch_requested 0
Core_0_L2C_prefetch_issued 0
Core_0_L2C_prefetch_useful 0
Core_0_L2C_prefetch_useless 0
Core_0_L2C_prefetch_late 0
Core_0_L2C_prefetch_accuracy 0
Core_0_L2C_prefetch_coverage 0

Core_0_LLC_total_access 2088
Core_0_LLC_total_hit 395
Core_0_LLC_total_miss 1693
Core_0_LLC_total_MPKI 0.01693
Core_0_LLC_total_miss_rate 0.810824
Core_0_LLC_demand_access 2008
Core_0_LLC_demand_hit 315
Core_0_LLC_demand_miss 1693
Core_0_LLC_demand_MPKI 0.01693
Core_0_LLC_demand_miss_rate 0.843127
Core_0_LLC_load_access 2005
Core_0_LLC_load_hit 313
Core_0_LLC_load_miss 1692
Core_0_LLC_load_MPKI 0.01692
Core_0_LLC_load_miss_rate 0.84389
Core_0_LLC_rfo_access 3
Core_0_LLC_rfo_hit 2
Core_0_LLC_rfo_miss 1
Core_0_LLC_rfo_MPKI 1e-05
Core_0_LLC_rfo_miss_rate 0.333333
Core_0_LLC_prefetch_access 0
Core_0_LLC_prefetch_hit 0
Core_0_LLC_prefetch_miss 0
Core_0_LLC_prefetch_MPKI 0
Core_0_LLC_prefetch_miss_rate 0
Core_0_LLC_writeback_access 80
Core_0_LLC_writeback_hit 80
Core_0_LLC_writeback_miss 0
Core_0_LLC_writeback_MPKI 0
Core_0_LLC_writeback_miss_rate 0
Core_0_LLC_prefetch_requested 0
Core_0_LLC_prefetch_issued 0
Core_0_LLC_prefetch_useful 0
Core_0_LLC_prefetch_useless 0
Core_0_LLC_prefetch_late 0
Core_0_LLC_prefetch_accuracy 0
Core_0_LLC_prefetch_coverage 0

[DRAM Statistics]
Channel_0_RQ_row_buffer_hit 112
Channel_0_RQ_row_buffer_miss 1617
Channel_0_WQ_row_buffer_hit 0
Channel_0_WQ_row_buffer_miss 0
Channel_0_WQ_full 0
Channel_0_dbus_congested 15
DRAM_total_RQ_row_buffer_hit 112
DRAM_total_RQ_row_buffer_miss 1617
DRAM_total_WQ_row_buffer_hit 0
DRAM_total_WQ_row_buffer_miss 0
DRAM_total_WQ_full 0
DRAM_total_dbus_congested 15
DRAM_avg_congested_cycle 2.73333

====== DRAM_RQ_TRAFFIC ========
DRAM_RQ_READ_TRAFFIC_BREAKDOWN:
data_demand_read.count = 1693
data_demand_read.share = 97.92%

inst_demand_read.count = 0
inst_demand_read.share = 0.00%

cache_inst_prefetch.count = 0
cache_inst_prefetch.share = 0.00%

cache_data_prefetch.count = 0
cache_data_prefetch.share = 0.00%

stlb_data_demand.count = 36
stlb_data_demand.share = 2.08%

stlb_inst_demand.count = 0
stlb_inst_demand.share = 0.00%

stlb_l1i_pref.count = 0
stlb_l1i_pref.share = 0.00%

stlb_l1d_pref.count = 0
stlb_l1d_pref.share = 0.00%

DRAM_RQ_READ_TRAFFIC_SUMMARY:
cache_demand.count = 1693
cache_demand.share = 97.92%

cache_prefetch.count = 0
cache_prefetch.share = 0.00%

stlb_demand.count = 36
stlb_demand.share = 2.08%

stlb_prefetch.count = 0
stlb_prefetch.share = 0.00%

DRAM_RQ_READ_TRAFFIC_DEBUG:
total_classified_read.count = 1729
unclassified_read.count = 0
total_read_with_other.count = 1729

classified_plus_unclassified_check.count = 1729
dram_rq_read_total_observed.count = 1729
dram_rq_read_total_observed.per_1K_instructions = 0.01729

STLB_MISS_PTW_DRAM_TOUCH_BREAKDOWN:
stlb_miss_total.count = 126

stlb_miss_touch_dram.count = 36
stlb_miss_touch_dram.share = 28.57%

stlb_miss_no_dram_touch.count = 90
stlb_miss_no_dram_touch.share = 71.43%

STLB_MISS_PTW_DRAM_TOUCH_DEBUG:
stlb_miss_touch_plus_no_touch.count = 126
stlb_miss_total_check.count = 126

======STLB miss causes ========
Core_0_STLB_miss_cause_breakdown
Core_0_STLB_cause_Demand_Data_miss 126
Core_0_STLB_cause_Demand_Data_miss_rate 0.00281012
Core_0_STLB_cause_Demand_Instruction_miss 0
Core_0_STLB_cause_Demand_Instruction_miss_rate 0
Core_0_STLB_cause_L1D_Prefetch_miss 0
Core_0_STLB_cause_L1D_Prefetch_miss_rate 0
Core_0_STLB_cause_L1I_Prefetch_miss 0
Core_0_STLB_cause_L1I_Prefetch_miss_rate 0
Core_0_STLB_cause_Other_miss 0
Core_0_STLB_cause_Other_miss_rate 0
Core_0_STLB_Demand_miss 126
Core_0_STLB_Demand_miss_rate 0.00281012
Core_0_STLB_L1D_Prefetch_miss 0
Core_0_STLB_L1D_Prefetch_miss_rate 0
Core_0_STLB_Other_miss 0
Core_0_STLB_Other_miss_rate 0
