[VMEM] WARNING: physical memory size is smaller than virtual memory size.

*** ChampSim Multicore Out-of-Order Simulator ***
Warmup Instructions: 50000000
Simulation Instructions: 100000000
Number of CPUs: 1
Page size: 4096
Core 0: /data0/tzh/champsim_traces/SPEC17/657.xz_s-4994B.champsimtrace.xz
Off-chip DRAM Size: 16 GiB Channels: 1 Width: 64-bit Data Rate: 3205 MT/s
Warmup halting CPU 0 at instruction 50000005 cycle 10277770 for remainder of phase
Warmup finished CPU 0 instructions: 50000005 cycles: 10277770 cumulative IPC: 4.865 (Simulation time: 00 hr 01 min 34 sec)
Warmup complete CPU 0 instructions: 50000005 cycles: 10277770 cumulative IPC: 4.865 (Simulation time: 00 hr 01 min 34 sec)
Simulation finished CPU 0 instructions: 100000001 cycles: 72982859 cumulative IPC: 1.37 (Simulation time: 00 hr 08 min 05 sec)
Simulation complete CPU 0 instructions: 100000001 cycles: 72982859 cumulative IPC: 1.37 (Simulation time: 00 hr 08 min 05 sec)

ChampSim completed all CPUs

=== Simulation ===
CPU 0 runs /data0/tzh/champsim_traces/SPEC17/657.xz_s-4994B.champsimtrace.xz

Region of Interest Statistics

CPU 0 cumulative IPC: 1.37 instructions: 100000001 cycles: 72982859
CPU 0 Branch Prediction Accuracy: 87.12% MPKI: 13.6 Average ROB Occupancy at Mispredict: 31.34
Branch type MPKI
BRANCH_DIRECT_JUMP: 7e-05
BRANCH_INDIRECT: 0.0178
BRANCH_CONDITIONAL: 13.58
BRANCH_DIRECT_CALL: 2e-05
BRANCH_INDIRECT_CALL: 5e-05
BRANCH_RETURN: 0.0006

cpu0->cpu0_STLB TOTAL        ACCESS:       2000 HIT:       1531 MISS:        469 MSHR_MERGE:          0
cpu0->cpu0_STLB LOAD         ACCESS:       2000 HIT:       1531 MISS:        469 MSHR_MERGE:          0
cpu0->cpu0_STLB RFO          ACCESS:          0 HIT:          0 MISS:          0 MSHR_MERGE:          0
cpu0->cpu0_STLB PREFETCH     ACCESS:          0 HIT:          0 MISS:          0 MSHR_MERGE:          0
cpu0->cpu0_STLB WRITE        ACCESS:          0 HIT:          0 MISS:          0 MSHR_MERGE:          0
cpu0->cpu0_STLB TRANSLATION  ACCESS:          0 HIT:          0 MISS:          0 MSHR_MERGE:          0
cpu0->cpu0_STLB PREFETCH REQUESTED:          0 ISSUED:          0 USEFUL:          0 USELESS:          0 LATE:          0
cpu0->cpu0_STLB AVERAGE MISS LATENCY: 247.9 cycles
cpu0->cpu0_L2C TOTAL        ACCESS:      73879 HIT:      50629 MISS:      23250 MSHR_MERGE:          0
cpu0->cpu0_L2C LOAD         ACCESS:      25237 HIT:      17210 MISS:       8027 MSHR_MERGE:          0
cpu0->cpu0_L2C RFO          ACCESS:      20479 HIT:       5455 MISS:      15024 MSHR_MERGE:          0
cpu0->cpu0_L2C PREFETCH     ACCESS:          0 HIT:          0 MISS:          0 MSHR_MERGE:          0
cpu0->cpu0_L2C WRITE        ACCESS:      27887 HIT:      27787 MISS:        100 MSHR_MERGE:          0
cpu0->cpu0_L2C TRANSLATION  ACCESS:        276 HIT:        177 MISS:         99 MSHR_MERGE:          0
cpu0->cpu0_L2C PREFETCH REQUESTED:          0 ISSUED:          0 USEFUL:          0 USELESS:          0 LATE:          0
cpu0->cpu0_L2C AVERAGE MISS LATENCY: 157.8 cycles
cpu0->cpu0_L1I TOTAL        ACCESS:    3041630 HIT:    3041485 MISS:        145 MSHR_MERGE:         34
cpu0->cpu0_L1I LOAD         ACCESS:    3041630 HIT:    3041485 MISS:        145 MSHR_MERGE:         34
cpu0->cpu0_L1I RFO          ACCESS:          0 HIT:          0 MISS:          0 MSHR_MERGE:          0
cpu0->cpu0_L1I PREFETCH     ACCESS:          0 HIT:          0 MISS:          0 MSHR_MERGE:          0
cpu0->cpu0_L1I WRITE        ACCESS:          0 HIT:          0 MISS:          0 MSHR_MERGE:          0
cpu0->cpu0_L1I TRANSLATION  ACCESS:          0 HIT:          0 MISS:          0 MSHR_MERGE:          0
cpu0->cpu0_L1I PREFETCH REQUESTED:          0 ISSUED:          0 USEFUL:          0 USELESS:          0 LATE:          0
cpu0->cpu0_L1I AVERAGE MISS LATENCY: 180.1 cycles
cpu0->cpu0_L1D TOTAL        ACCESS:   15533717 HIT:   15390993 MISS:     142724 MSHR_MERGE:      96842
cpu0->cpu0_L1D LOAD         ACCESS:    9240083 HIT:    9209701 MISS:      30382 MSHR_MERGE:       5256
cpu0->cpu0_L1D RFO          ACCESS:          0 HIT:          0 MISS:          0 MSHR_MERGE:          0
cpu0->cpu0_L1D PREFETCH     ACCESS:          0 HIT:          0 MISS:          0 MSHR_MERGE:          0
cpu0->cpu0_L1D WRITE        ACCESS:    6292695 HIT:    6180629 MISS:     112066 MSHR_MERGE:      91586
cpu0->cpu0_L1D TRANSLATION  ACCESS:        939 HIT:        663 MISS:        276 MSHR_MERGE:          0
cpu0->cpu0_L1D PREFETCH REQUESTED:          0 ISSUED:          0 USEFUL:          0 USELESS:          0 LATE:          0
cpu0->cpu0_L1D AVERAGE MISS LATENCY: 88.04 cycles
cpu0->cpu0_ITLB TOTAL        ACCESS:    2711731 HIT:    2711729 MISS:          2 MSHR_MERGE:          1
cpu0->cpu0_ITLB LOAD         ACCESS:    2711731 HIT:    2711729 MISS:          2 MSHR_MERGE:          1
cpu0->cpu0_ITLB RFO          ACCESS:          0 HIT:          0 MISS:          0 MSHR_MERGE:          0
cpu0->cpu0_ITLB PREFETCH     ACCESS:          0 HIT:          0 MISS:          0 MSHR_MERGE:          0
cpu0->cpu0_ITLB WRITE        ACCESS:          0 HIT:          0 MISS:          0 MSHR_MERGE:          0
cpu0->cpu0_ITLB TRANSLATION  ACCESS:          0 HIT:          0 MISS:          0 MSHR_MERGE:          0
cpu0->cpu0_ITLB PREFETCH REQUESTED:          0 ISSUED:          0 USEFUL:          0 USELESS:          0 LATE:          0
cpu0->cpu0_ITLB AVERAGE MISS LATENCY: 241 cycles
cpu0->cpu0_DTLB TOTAL        ACCESS:   14354560 HIT:   14350893 MISS:       3667 MSHR_MERGE:       1668
cpu0->cpu0_DTLB LOAD         ACCESS:   14354560 HIT:   14350893 MISS:       3667 MSHR_MERGE:       1668
cpu0->cpu0_DTLB RFO          ACCESS:          0 HIT:          0 MISS:          0 MSHR_MERGE:          0
cpu0->cpu0_DTLB PREFETCH     ACCESS:          0 HIT:          0 MISS:          0 MSHR_MERGE:          0
cpu0->cpu0_DTLB WRITE        ACCESS:          0 HIT:          0 MISS:          0 MSHR_MERGE:          0
cpu0->cpu0_DTLB TRANSLATION  ACCESS:          0 HIT:          0 MISS:          0 MSHR_MERGE:          0
cpu0->cpu0_DTLB PREFETCH REQUESTED:          0 ISSUED:          0 USEFUL:          0 USELESS:          0 LATE:          0
cpu0->cpu0_DTLB AVERAGE MISS LATENCY: 63.29 cycles
cpu0->LLC TOTAL        ACCESS:      38720 HIT:      16006 MISS:      22714 MSHR_MERGE:          0
cpu0->LLC LOAD         ACCESS:       8027 HIT:        677 MISS:       7350 MSHR_MERGE:          0
cpu0->LLC RFO          ACCESS:      15024 HIT:         78 MISS:      14946 MSHR_MERGE:          0
cpu0->LLC PREFETCH     ACCESS:          0 HIT:          0 MISS:          0 MSHR_MERGE:          0
cpu0->LLC WRITE        ACCESS:      15570 HIT:      15229 MISS:        341 MSHR_MERGE:          0
cpu0->LLC TRANSLATION  ACCESS:         99 HIT:         22 MISS:         77 MSHR_MERGE:          0
cpu0->LLC PREFETCH REQUESTED:          0 ISSUED:          0 USEFUL:          0 USELESS:          0 LATE:          0
cpu0->LLC AVERAGE MISS LATENCY: 145.4 cycles

DRAM Statistics

Channel 0 RQ ROW_BUFFER_HIT:       5150
  ROW_BUFFER_MISS:      17223
  AVG DBUS CONGESTED CYCLE: 17.65
Channel 0 WQ ROW_BUFFER_HIT:         10
  ROW_BUFFER_MISS:        289
  FULL:          0
Channel 0 REFRESHES ISSUED:       6082

[ROI Statistics]
[System Configuration]
num_cpus 1
cpu_freq 4000
fetch_width 6
decode_width 6
dispatch_width 6
execute_width 6
lq_width 2
sq_width 2
retire_width 6
scheduler_size 128
branch_mispredict_penalty 15
rob_size 352
lq_size 128
sq_size 72
ifetch_buffer_size 64
decode_buffer_size 32
dispatch_buffer_size 32
register_file_size 288
decode_latency 1
dispatch_latency 1
schedule_latency 1
execute_latency 1
page_size 4096
block_size 64
core_0_itlb_set 16
core_0_itlb_way 4
core_0_itlb_rq_size 16
core_0_itlb_wq_size 16
core_0_itlb_pq_size 0
core_0_itlb_mshr_size 8
core_0_itlb_hit_latency 1
core_0_itlb_fill_latency 1
core_0_itlb_max_tag_check 2
core_0_itlb_max_fill 2
core_0_dtlb_set 16
core_0_dtlb_way 4
core_0_dtlb_rq_size 16
core_0_dtlb_wq_size 16
core_0_dtlb_pq_size 0
core_0_dtlb_mshr_size 8
core_0_dtlb_hit_latency 1
core_0_dtlb_fill_latency 1
core_0_dtlb_max_tag_check 2
core_0_dtlb_max_fill 2
core_0_stlb_set 128
core_0_stlb_way 12
core_0_stlb_rq_size 32
core_0_stlb_wq_size 32
core_0_stlb_pq_size 0
core_0_stlb_mshr_size 16
core_0_stlb_hit_latency 4
core_0_stlb_fill_latency 4
core_0_stlb_max_tag_check 1
core_0_stlb_max_fill 1
core_0_l1i_set 64
core_0_l1i_way 8
core_0_l1i_rq_size 64
core_0_l1i_wq_size 64
core_0_l1i_pq_size 32
core_0_l1i_mshr_size 8
core_0_l1i_hit_latency 2
core_0_l1i_fill_latency 2
core_0_l1i_max_tag_check 2
core_0_l1i_max_fill 2
core_0_l1d_set 64
core_0_l1d_way 12
core_0_l1d_rq_size 64
core_0_l1d_wq_size 64
core_0_l1d_pq_size 8
core_0_l1d_mshr_size 16
core_0_l1d_hit_latency 2
core_0_l1d_fill_latency 3
core_0_l1d_max_tag_check 2
core_0_l1d_max_fill 2
core_0_l2c_set 1024
core_0_l2c_way 8
core_0_l2c_rq_size 32
core_0_l2c_wq_size 32
core_0_l2c_pq_size 16
core_0_l2c_mshr_size 32
core_0_l2c_hit_latency 5
core_0_l2c_fill_latency 5
core_0_l2c_max_tag_check 1
core_0_l2c_max_fill 1
llc_set 2048
llc_way 16
llc_rq_size 32
llc_wq_size 32
llc_pq_size 32
llc_mshr_size 64
llc_hit_latency 10
llc_fill_latency 10
llc_max_tag_check 1
llc_max_fill 1
dram_channels 1
dram_ranks 1
dram_bankgroups 8
dram_banks 4
dram_rows 65536
dram_columns 1024
dram_channel_width 8
dram_rq_size 64
dram_wq_size 64
dram_size 17179869184
core_0_itlb_prefetcher no
core_0_dtlb_prefetcher no
core_0_stlb_prefetcher no
core_0_l1i_prefetcher no
core_0_l1d_prefetcher no
core_0_l2c_prefetcher no
llc_prefetcher no
llc_replacement drrip

Core_0_instructions 100000001
Core_0_cycles 72982859
Core_0_IPC 1.37018
Core_0_branch_prediction_accuracy 87.1195
Core_0_branch_MPKI 13.598
Core_0_average_ROB_occupancy_at_mispredict 31.3427

Core_0_ITLB_total_access 2711731
Core_0_ITLB_total_hit 2711729
Core_0_ITLB_total_miss 2
Core_0_ITLB_total_MPKI 2e-05
Core_0_ITLB_total_miss_rate 7.37536e-07
Core_0_ITLB_demand_access 2711731
Core_0_ITLB_demand_hit 2711729
Core_0_ITLB_demand_miss 2
Core_0_ITLB_demand_MPKI 2e-05
Core_0_ITLB_demand_miss_rate 7.37536e-07
Core_0_ITLB_load_access 2711731
Core_0_ITLB_load_hit 2711729
Core_0_ITLB_load_miss 2
Core_0_ITLB_load_MPKI 2e-05
Core_0_ITLB_load_miss_rate 7.37536e-07
Core_0_ITLB_rfo_access 0
Core_0_ITLB_rfo_hit 0
Core_0_ITLB_rfo_miss 0
Core_0_ITLB_rfo_MPKI 0
Core_0_ITLB_rfo_miss_rate 0
Core_0_ITLB_prefetch_access 0
Core_0_ITLB_prefetch_hit 0
Core_0_ITLB_prefetch_miss 0
Core_0_ITLB_prefetch_MPKI 0
Core_0_ITLB_prefetch_miss_rate 0
Core_0_ITLB_writeback_access 0
Core_0_ITLB_writeback_hit 0
Core_0_ITLB_writeback_miss 0
Core_0_ITLB_writeback_MPKI 0
Core_0_ITLB_writeback_miss_rate 0
Core_0_ITLB_prefetch_requested 0
Core_0_ITLB_prefetch_issued 0
Core_0_ITLB_prefetch_useful 0
Core_0_ITLB_prefetch_useless 0
Core_0_ITLB_prefetch_late 0
Core_0_ITLB_prefetch_accuracy 0
Core_0_ITLB_prefetch_coverage 0

Core_0_DTLB_total_access 14354560
Core_0_DTLB_total_hit 14350893
Core_0_DTLB_total_miss 3667
Core_0_DTLB_total_MPKI 0.03667
Core_0_DTLB_total_miss_rate 0.000255459
Core_0_DTLB_demand_access 14354560
Core_0_DTLB_demand_hit 14350893
Core_0_DTLB_demand_miss 3667
Core_0_DTLB_demand_MPKI 0.03667
Core_0_DTLB_demand_miss_rate 0.000255459
Core_0_DTLB_load_access 14354560
Core_0_DTLB_load_hit 14350893
Core_0_DTLB_load_miss 3667
Core_0_DTLB_load_MPKI 0.03667
Core_0_DTLB_load_miss_rate 0.000255459
Core_0_DTLB_rfo_access 0
Core_0_DTLB_rfo_hit 0
Core_0_DTLB_rfo_miss 0
Core_0_DTLB_rfo_MPKI 0
Core_0_DTLB_rfo_miss_rate 0
Core_0_DTLB_prefetch_access 0
Core_0_DTLB_prefetch_hit 0
Core_0_DTLB_prefetch_miss 0
Core_0_DTLB_prefetch_MPKI 0
Core_0_DTLB_prefetch_miss_rate 0
Core_0_DTLB_writeback_access 0
Core_0_DTLB_writeback_hit 0
Core_0_DTLB_writeback_miss 0
Core_0_DTLB_writeback_MPKI 0
Core_0_DTLB_writeback_miss_rate 0
Core_0_DTLB_prefetch_requested 0
Core_0_DTLB_prefetch_issued 0
Core_0_DTLB_prefetch_useful 0
Core_0_DTLB_prefetch_useless 0
Core_0_DTLB_prefetch_late 0
Core_0_DTLB_prefetch_accuracy 0
Core_0_DTLB_prefetch_coverage 0

Core_0_STLB_total_access 2000
Core_0_STLB_total_hit 1531
Core_0_STLB_total_miss 469
Core_0_STLB_total_MPKI 0.00469
Core_0_STLB_total_miss_rate 0.2345
Core_0_STLB_demand_access 2000
Core_0_STLB_demand_hit 1531
Core_0_STLB_demand_miss 469
Core_0_STLB_demand_MPKI 0.00469
Core_0_STLB_demand_miss_rate 0.2345
Core_0_STLB_load_access 2000
Core_0_STLB_load_hit 1531
Core_0_STLB_load_miss 469
Core_0_STLB_load_MPKI 0.00469
Core_0_STLB_load_miss_rate 0.2345
Core_0_STLB_rfo_access 0
Core_0_STLB_rfo_hit 0
Core_0_STLB_rfo_miss 0
Core_0_STLB_rfo_MPKI 0
Core_0_STLB_rfo_miss_rate 0
Core_0_STLB_prefetch_access 0
Core_0_STLB_prefetch_hit 0
Core_0_STLB_prefetch_miss 0
Core_0_STLB_prefetch_MPKI 0
Core_0_STLB_prefetch_miss_rate 0
Core_0_STLB_writeback_access 0
Core_0_STLB_writeback_hit 0
Core_0_STLB_writeback_miss 0
Core_0_STLB_writeback_MPKI 0
Core_0_STLB_writeback_miss_rate 0
Core_0_STLB_prefetch_requested 0
Core_0_STLB_prefetch_issued 0
Core_0_STLB_prefetch_useful 0
Core_0_STLB_prefetch_useless 0
Core_0_STLB_prefetch_late 0
Core_0_STLB_prefetch_accuracy 0
Core_0_STLB_prefetch_coverage 0

Core_0_L1I_total_access 3041630
Core_0_L1I_total_hit 3041485
Core_0_L1I_total_miss 145
Core_0_L1I_total_MPKI 0.00145
Core_0_L1I_total_miss_rate 4.76718e-05
Core_0_L1I_demand_access 3041630
Core_0_L1I_demand_hit 3041485
Core_0_L1I_demand_miss 145
Core_0_L1I_demand_MPKI 0.00145
Core_0_L1I_demand_miss_rate 4.76718e-05
Core_0_L1I_load_access 3041630
Core_0_L1I_load_hit 3041485
Core_0_L1I_load_miss 145
Core_0_L1I_load_MPKI 0.00145
Core_0_L1I_load_miss_rate 4.76718e-05
Core_0_L1I_rfo_access 0
Core_0_L1I_rfo_hit 0
Core_0_L1I_rfo_miss 0
Core_0_L1I_rfo_MPKI 0
Core_0_L1I_rfo_miss_rate 0
Core_0_L1I_prefetch_access 0
Core_0_L1I_prefetch_hit 0
Core_0_L1I_prefetch_miss 0
Core_0_L1I_prefetch_MPKI 0
Core_0_L1I_prefetch_miss_rate 0
Core_0_L1I_writeback_access 0
Core_0_L1I_writeback_hit 0
Core_0_L1I_writeback_miss 0
Core_0_L1I_writeback_MPKI 0
Core_0_L1I_writeback_miss_rate 0
Core_0_L1I_prefetch_requested 0
Core_0_L1I_prefetch_issued 0
Core_0_L1I_prefetch_useful 0
Core_0_L1I_prefetch_useless 0
Core_0_L1I_prefetch_late 0
Core_0_L1I_prefetch_accuracy 0
Core_0_L1I_prefetch_coverage 0

Core_0_L1D_total_access 15532778
Core_0_L1D_total_hit 15390330
Core_0_L1D_total_miss 142448
Core_0_L1D_total_MPKI 1.42448
Core_0_L1D_total_miss_rate 0.0091708
Core_0_L1D_demand_access 9240083
Core_0_L1D_demand_hit 9209701
Core_0_L1D_demand_miss 30382
Core_0_L1D_demand_MPKI 0.30382
Core_0_L1D_demand_miss_rate 0.00328807
Core_0_L1D_load_access 9240083
Core_0_L1D_load_hit 9209701
Core_0_L1D_load_miss 30382
Core_0_L1D_load_MPKI 0.30382
Core_0_L1D_load_miss_rate 0.00328807
Core_0_L1D_rfo_access 0
Core_0_L1D_rfo_hit 0
Core_0_L1D_rfo_miss 0
Core_0_L1D_rfo_MPKI 0
Core_0_L1D_rfo_miss_rate 0
Core_0_L1D_prefetch_access 0
Core_0_L1D_prefetch_hit 0
Core_0_L1D_prefetch_miss 0
Core_0_L1D_prefetch_MPKI 0
Core_0_L1D_prefetch_miss_rate 0
Core_0_L1D_writeback_access 6292695
Core_0_L1D_writeback_hit 6180629
Core_0_L1D_writeback_miss 112066
Core_0_L1D_writeback_MPKI 1.12066
Core_0_L1D_writeback_miss_rate 0.0178089
Core_0_L1D_prefetch_requested 0
Core_0_L1D_prefetch_issued 0
Core_0_L1D_prefetch_useful 0
Core_0_L1D_prefetch_useless 0
Core_0_L1D_prefetch_late 0
Core_0_L1D_prefetch_accuracy 0
Core_0_L1D_prefetch_coverage 0

Core_0_L2C_total_access 73603
Core_0_L2C_total_hit 50452
Core_0_L2C_total_miss 23151
Core_0_L2C_total_MPKI 0.23151
Core_0_L2C_total_miss_rate 0.314539
Core_0_L2C_demand_access 45716
Core_0_L2C_demand_hit 22665
Core_0_L2C_demand_miss 23051
Core_0_L2C_demand_MPKI 0.23051
Core_0_L2C_demand_miss_rate 0.504222
Core_0_L2C_load_access 25237
Core_0_L2C_load_hit 17210
Core_0_L2C_load_miss 8027
Core_0_L2C_load_MPKI 0.08027
Core_0_L2C_load_miss_rate 0.318065
Core_0_L2C_rfo_access 20479
Core_0_L2C_rfo_hit 5455
Core_0_L2C_rfo_miss 15024
Core_0_L2C_rfo_MPKI 0.15024
Core_0_L2C_rfo_miss_rate 0.73363
Core_0_L2C_prefetch_access 0
Core_0_L2C_prefetch_hit 0
Core_0_L2C_prefetch_miss 0
Core_0_L2C_prefetch_MPKI 0
Core_0_L2C_prefetch_miss_rate 0
Core_0_L2C_writeback_access 27887
Core_0_L2C_writeback_hit 27787
Core_0_L2C_writeback_miss 100
Core_0_L2C_writeback_MPKI 0.001
Core_0_L2C_writeback_miss_rate 0.0035859
Core_0_L2C_prefetch_requested 0
Core_0_L2C_prefetch_issued 0
Core_0_L2C_prefetch_useful 0
Core_0_L2C_prefetch_useless 0
Core_0_L2C_prefetch_late 0
Core_0_L2C_prefetch_accuracy 0
Core_0_L2C_prefetch_coverage 0

Core_0_LLC_total_access 38621
Core_0_LLC_total_hit 15984
Core_0_LLC_total_miss 22637
Core_0_LLC_total_MPKI 0.22637
Core_0_LLC_total_miss_rate 0.586132
Core_0_LLC_demand_access 23051
Core_0_LLC_demand_hit 755
Core_0_LLC_demand_miss 22296
Core_0_LLC_demand_MPKI 0.22296
Core_0_LLC_demand_miss_rate 0.967247
Core_0_LLC_load_access 8027
Core_0_LLC_load_hit 677
Core_0_LLC_load_miss 7350
Core_0_LLC_load_MPKI 0.0735
Core_0_LLC_load_miss_rate 0.91566
Core_0_LLC_rfo_access 15024
Core_0_LLC_rfo_hit 78
Core_0_LLC_rfo_miss 14946
Core_0_LLC_rfo_MPKI 0.14946
Core_0_LLC_rfo_miss_rate 0.994808
Core_0_LLC_prefetch_access 0
Core_0_LLC_prefetch_hit 0
Core_0_LLC_prefetch_miss 0
Core_0_LLC_prefetch_MPKI 0
Core_0_LLC_prefetch_miss_rate 0
Core_0_LLC_writeback_access 15570
Core_0_LLC_writeback_hit 15229
Core_0_LLC_writeback_miss 341
Core_0_LLC_writeback_MPKI 0.00341
Core_0_LLC_writeback_miss_rate 0.0219011
Core_0_LLC_prefetch_requested 0
Core_0_LLC_prefetch_issued 0
Core_0_LLC_prefetch_useful 0
Core_0_LLC_prefetch_useless 0
Core_0_LLC_prefetch_late 0
Core_0_LLC_prefetch_accuracy 0
Core_0_LLC_prefetch_coverage 0

[DRAM Statistics]
Channel_0_RQ_row_buffer_hit 5150
Channel_0_RQ_row_buffer_miss 17223
Channel_0_WQ_row_buffer_hit 10
Channel_0_WQ_row_buffer_miss 289
Channel_0_WQ_full 0
Channel_0_dbus_congested 10057
DRAM_total_RQ_row_buffer_hit 5150
DRAM_total_RQ_row_buffer_miss 17223
DRAM_total_WQ_row_buffer_hit 10
DRAM_total_WQ_row_buffer_miss 289
DRAM_total_WQ_full 0
DRAM_total_dbus_congested 10057
DRAM_avg_congested_cycle 17.6505

====== DRAM_RQ_TRAFFIC ========
DRAM_RQ_READ_TRAFFIC_BREAKDOWN:
data_demand_read.count = 22192
data_demand_read.share = 99.19%

inst_demand_read.count = 104
inst_demand_read.share = 0.46%

cache_inst_prefetch.count = 0
cache_inst_prefetch.share = 0.00%

cache_data_prefetch.count = 0
cache_data_prefetch.share = 0.00%

stlb_data_demand.count = 77
stlb_data_demand.share = 0.34%

stlb_inst_demand.count = 0
stlb_inst_demand.share = 0.00%

stlb_l1i_pref.count = 0
stlb_l1i_pref.share = 0.00%

stlb_l1d_pref.count = 0
stlb_l1d_pref.share = 0.00%

DRAM_RQ_READ_TRAFFIC_SUMMARY:
cache_demand.count = 22296
cache_demand.share = 99.66%

cache_prefetch.count = 0
cache_prefetch.share = 0.00%

stlb_demand.count = 77
stlb_demand.share = 0.34%

stlb_prefetch.count = 0
stlb_prefetch.share = 0.00%

DRAM_RQ_READ_TRAFFIC_DEBUG:
total_classified_read.count = 22373
unclassified_read.count = 0
total_read_with_other.count = 22373

classified_plus_unclassified_check.count = 22373
dram_rq_read_total_observed.count = 22373
dram_rq_read_total_observed.per_1K_instructions = 0.22373

STLB_MISS_PTW_DRAM_TOUCH_BREAKDOWN:
stlb_miss_total.count = 469

stlb_miss_touch_dram.count = 77
stlb_miss_touch_dram.share = 16.42%

stlb_miss_no_dram_touch.count = 392
stlb_miss_no_dram_touch.share = 83.58%

STLB_MISS_PTW_DRAM_TOUCH_DEBUG:
stlb_miss_touch_plus_no_touch.count = 469
stlb_miss_total_check.count = 469

======STLB miss causes ========
Core_0_STLB_miss_cause_breakdown
Core_0_STLB_cause_Demand_Data_miss 468
Core_0_STLB_cause_Demand_Data_miss_rate 0.234
Core_0_STLB_cause_Demand_Instruction_miss 1
Core_0_STLB_cause_Demand_Instruction_miss_rate 0.0005
Core_0_STLB_cause_L1D_Prefetch_miss 0
Core_0_STLB_cause_L1D_Prefetch_miss_rate 0
Core_0_STLB_cause_L1I_Prefetch_miss 0
Core_0_STLB_cause_L1I_Prefetch_miss_rate 0
Core_0_STLB_cause_Other_miss 0
Core_0_STLB_cause_Other_miss_rate 0
Core_0_STLB_Demand_miss 469
Core_0_STLB_Demand_miss_rate 0.2345
Core_0_STLB_L1D_Prefetch_miss 0
Core_0_STLB_L1D_Prefetch_miss_rate 0
Core_0_STLB_Other_miss 0
Core_0_STLB_Other_miss_rate 0
