[VMEM] WARNING: physical memory size is smaller than virtual memory size.

*** ChampSim Multicore Out-of-Order Simulator ***
Warmup Instructions: 50000000
Simulation Instructions: 100000000
Number of CPUs: 1
Page size: 4096
Core 0: /data2/zcq/champsim_traces_gap/bc.road-79B.champsimtrace.xz
Off-chip DRAM Size: 16 GiB Channels: 1 Width: 64-bit Data Rate: 3205 MT/s
Warmup halting CPU 0 at instruction 50000004 cycle 13824031 for remainder of phase
Warmup finished CPU 0 instructions: 50000004 cycles: 13824031 cumulative IPC: 3.617 (Simulation time: 00 hr 02 min 43 sec)
Warmup complete CPU 0 instructions: 50000004 cycles: 13824031 cumulative IPC: 3.617 (Simulation time: 00 hr 02 min 43 sec)
Simulation finished CPU 0 instructions: 100000000 cycles: 355728155 cumulative IPC: 0.2811 (Simulation time: 00 hr 29 min 25 sec)
Simulation complete CPU 0 instructions: 100000000 cycles: 355728155 cumulative IPC: 0.2811 (Simulation time: 00 hr 29 min 25 sec)

ChampSim completed all CPUs

=== Simulation ===
CPU 0 runs /data2/zcq/champsim_traces_gap/bc.road-79B.champsimtrace.xz

Region of Interest Statistics

CPU 0 cumulative IPC: 0.2811 instructions: 100000000 cycles: 355728155
CPU 0 Branch Prediction Accuracy: 88.49% MPKI: 17.22 Average ROB Occupancy at Mispredict: 37.84
Branch type MPKI
BRANCH_DIRECT_JUMP: 0
BRANCH_INDIRECT: 0
BRANCH_CONDITIONAL: 17.22
BRANCH_DIRECT_CALL: 0
BRANCH_INDIRECT_CALL: 0
BRANCH_RETURN: 0

cpu0->cpu0_STLB TOTAL        ACCESS:    1949587 HIT:    1212180 MISS:     737407 MSHR_MERGE:          0
cpu0->cpu0_STLB LOAD         ACCESS:    1949587 HIT:    1212180 MISS:     737407 MSHR_MERGE:          0
cpu0->cpu0_STLB RFO          ACCESS:          0 HIT:          0 MISS:          0 MSHR_MERGE:          0
cpu0->cpu0_STLB PREFETCH     ACCESS:          0 HIT:          0 MISS:          0 MSHR_MERGE:          0
cpu0->cpu0_STLB WRITE        ACCESS:          0 HIT:          0 MISS:          0 MSHR_MERGE:          0
cpu0->cpu0_STLB TRANSLATION  ACCESS:          0 HIT:          0 MISS:          0 MSHR_MERGE:          0
cpu0->cpu0_STLB PREFETCH REQUESTED:          0 ISSUED:          0 USEFUL:          0 USELESS:          0 LATE:          0
cpu0->cpu0_STLB AVERAGE MISS LATENCY: 24.01 cycles
cpu0->cpu0_L2C TOTAL        ACCESS:    8182523 HIT:    3896029 MISS:    4286494 MSHR_MERGE:          0
cpu0->cpu0_L2C LOAD         ACCESS:    5293098 HIT:    1309963 MISS:    3983135 MSHR_MERGE:          0
cpu0->cpu0_L2C RFO          ACCESS:     151227 HIT:      59003 MISS:      92224 MSHR_MERGE:          0
cpu0->cpu0_L2C PREFETCH     ACCESS:          0 HIT:          0 MISS:          0 MSHR_MERGE:          0
cpu0->cpu0_L2C WRITE        ACCESS:    2327478 HIT:    2326478 MISS:       1000 MSHR_MERGE:          0
cpu0->cpu0_L2C TRANSLATION  ACCESS:     410720 HIT:     200585 MISS:     210135 MSHR_MERGE:          0
cpu0->cpu0_L2C PREFETCH REQUESTED:          0 ISSUED:          0 USEFUL:          0 USELESS:          0 LATE:          0
cpu0->cpu0_L2C AVERAGE MISS LATENCY: 64.2 cycles
cpu0->cpu0_L1I TOTAL        ACCESS:    4856075 HIT:    4856075 MISS:          0 MSHR_MERGE:          0
cpu0->cpu0_L1I LOAD         ACCESS:    4856075 HIT:    4856075 MISS:          0 MSHR_MERGE:          0
cpu0->cpu0_L1I RFO          ACCESS:          0 HIT:          0 MISS:          0 MSHR_MERGE:          0
cpu0->cpu0_L1I PREFETCH     ACCESS:          0 HIT:          0 MISS:          0 MSHR_MERGE:          0
cpu0->cpu0_L1I WRITE        ACCESS:          0 HIT:          0 MISS:          0 MSHR_MERGE:          0
cpu0->cpu0_L1I TRANSLATION  ACCESS:          0 HIT:          0 MISS:          0 MSHR_MERGE:          0
cpu0->cpu0_L1I PREFETCH REQUESTED:          0 ISSUED:          0 USEFUL:          0 USELESS:          0 LATE:          0
cpu0->cpu0_L1I AVERAGE MISS LATENCY: - cycles
cpu0->cpu0_L1D TOTAL        ACCESS:   49124997 HIT:   40027809 MISS:    9097188 MSHR_MERGE:    3242135
cpu0->cpu0_L1D LOAD         ACCESS:   37525213 HIT:   31275868 MISS:    6249345 MSHR_MERGE:     956239
cpu0->cpu0_L1D RFO          ACCESS:          0 HIT:          0 MISS:          0 MSHR_MERGE:          0
cpu0->cpu0_L1D PREFETCH     ACCESS:          0 HIT:          0 MISS:          0 MSHR_MERGE:          0
cpu0->cpu0_L1D WRITE        ACCESS:   10046399 HIT:    7611215 MISS:    2435184 MSHR_MERGE:    2283957
cpu0->cpu0_L1D TRANSLATION  ACCESS:    1553385 HIT:    1140726 MISS:     412659 MSHR_MERGE:       1939
cpu0->cpu0_L1D PREFETCH REQUESTED:          0 ISSUED:          0 USEFUL:          0 USELESS:          0 LATE:          0
cpu0->cpu0_L1D AVERAGE MISS LATENCY: 55.76 cycles
cpu0->cpu0_ITLB TOTAL        ACCESS:    4850808 HIT:    4850808 MISS:          0 MSHR_MERGE:          0
cpu0->cpu0_ITLB LOAD         ACCESS:    4850808 HIT:    4850808 MISS:          0 MSHR_MERGE:          0
cpu0->cpu0_ITLB RFO          ACCESS:          0 HIT:          0 MISS:          0 MSHR_MERGE:          0
cpu0->cpu0_ITLB PREFETCH     ACCESS:          0 HIT:          0 MISS:          0 MSHR_MERGE:          0
cpu0->cpu0_ITLB WRITE        ACCESS:          0 HIT:          0 MISS:          0 MSHR_MERGE:          0
cpu0->cpu0_ITLB TRANSLATION  ACCESS:          0 HIT:          0 MISS:          0 MSHR_MERGE:          0
cpu0->cpu0_ITLB PREFETCH REQUESTED:          0 ISSUED:          0 USEFUL:          0 USELESS:          0 LATE:          0
cpu0->cpu0_ITLB AVERAGE MISS LATENCY: - cycles
cpu0->cpu0_DTLB TOTAL        ACCESS:   46952518 HIT:   44513162 MISS:    2439356 MSHR_MERGE:     489769
cpu0->cpu0_DTLB LOAD         ACCESS:   46952518 HIT:   44513162 MISS:    2439356 MSHR_MERGE:     489769
cpu0->cpu0_DTLB RFO          ACCESS:          0 HIT:          0 MISS:          0 MSHR_MERGE:          0
cpu0->cpu0_DTLB PREFETCH     ACCESS:          0 HIT:          0 MISS:          0 MSHR_MERGE:          0
cpu0->cpu0_DTLB WRITE        ACCESS:          0 HIT:          0 MISS:          0 MSHR_MERGE:          0
cpu0->cpu0_DTLB TRANSLATION  ACCESS:          0 HIT:          0 MISS:          0 MSHR_MERGE:          0
cpu0->cpu0_DTLB PREFETCH REQUESTED:          0 ISSUED:          0 USEFUL:          0 USELESS:          0 LATE:          0
cpu0->cpu0_DTLB AVERAGE MISS LATENCY: 14.46 cycles
cpu0->LLC TOTAL        ACCESS:    6030391 HIT:    4838447 MISS:    1191944 MSHR_MERGE:          0
cpu0->LLC LOAD         ACCESS:    3983124 HIT:    2917555 MISS:    1065569 MSHR_MERGE:          0
cpu0->LLC RFO          ACCESS:      92224 HIT:      16366 MISS:      75858 MSHR_MERGE:          0
cpu0->LLC PREFETCH     ACCESS:          0 HIT:          0 MISS:          0 MSHR_MERGE:          0
cpu0->LLC WRITE        ACCESS:    1744908 HIT:    1700176 MISS:      44732 MSHR_MERGE:          0
cpu0->LLC TRANSLATION  ACCESS:     210135 HIT:     204350 MISS:       5785 MSHR_MERGE:          0
cpu0->LLC PREFETCH REQUESTED:          0 ISSUED:          0 USEFUL:          0 USELESS:          0 LATE:          0
cpu0->LLC AVERAGE MISS LATENCY: 176.3 cycles

DRAM Statistics

Channel 0 RQ ROW_BUFFER_HIT:       2275
  ROW_BUFFER_MISS:    1144794
  AVG DBUS CONGESTED CYCLE: 21.65
Channel 0 WQ ROW_BUFFER_HIT:     113177
  ROW_BUFFER_MISS:     301958
  FULL:          0
Channel 0 REFRESHES ISSUED:      29644

[ROI Statistics]
[System Configuration]
num_cpus 1
cpu_freq 4000
fetch_width 6
decode_width 6
dispatch_width 6
execute_width 6
lq_width 2
sq_width 2
retire_width 6
scheduler_size 128
branch_mispredict_penalty 15
rob_size 352
lq_size 128
sq_size 72
ifetch_buffer_size 64
decode_buffer_size 32
dispatch_buffer_size 32
register_file_size 288
decode_latency 1
dispatch_latency 1
schedule_latency 1
execute_latency 1
page_size 4096
block_size 64
core_0_itlb_set 16
core_0_itlb_way 4
core_0_itlb_rq_size 16
core_0_itlb_wq_size 16
core_0_itlb_pq_size 0
core_0_itlb_mshr_size 8
core_0_itlb_hit_latency 1
core_0_itlb_fill_latency 1
core_0_itlb_max_tag_check 2
core_0_itlb_max_fill 2
core_0_dtlb_set 16
core_0_dtlb_way 4
core_0_dtlb_rq_size 16
core_0_dtlb_wq_size 16
core_0_dtlb_pq_size 0
core_0_dtlb_mshr_size 8
core_0_dtlb_hit_latency 1
core_0_dtlb_fill_latency 1
core_0_dtlb_max_tag_check 2
core_0_dtlb_max_fill 2
core_0_stlb_set 128
core_0_stlb_way 12
core_0_stlb_rq_size 32
core_0_stlb_wq_size 32
core_0_stlb_pq_size 0
core_0_stlb_mshr_size 16
core_0_stlb_hit_latency 4
core_0_stlb_fill_latency 4
core_0_stlb_max_tag_check 1
core_0_stlb_max_fill 1
core_0_l1i_set 64
core_0_l1i_way 8
core_0_l1i_rq_size 64
core_0_l1i_wq_size 64
core_0_l1i_pq_size 32
core_0_l1i_mshr_size 8
core_0_l1i_hit_latency 2
core_0_l1i_fill_latency 2
core_0_l1i_max_tag_check 2
core_0_l1i_max_fill 2
core_0_l1d_set 64
core_0_l1d_way 12
core_0_l1d_rq_size 64
core_0_l1d_wq_size 64
core_0_l1d_pq_size 8
core_0_l1d_mshr_size 16
core_0_l1d_hit_latency 2
core_0_l1d_fill_latency 3
core_0_l1d_max_tag_check 2
core_0_l1d_max_fill 2
core_0_l2c_set 1024
core_0_l2c_way 8
core_0_l2c_rq_size 32
core_0_l2c_wq_size 32
core_0_l2c_pq_size 16
core_0_l2c_mshr_size 32
core_0_l2c_hit_latency 5
core_0_l2c_fill_latency 5
core_0_l2c_max_tag_check 1
core_0_l2c_max_fill 1
llc_set 2048
llc_way 16
llc_rq_size 32
llc_wq_size 32
llc_pq_size 32
llc_mshr_size 64
llc_hit_latency 10
llc_fill_latency 10
llc_max_tag_check 1
llc_max_fill 1
dram_channels 1
dram_ranks 1
dram_bankgroups 8
dram_banks 4
dram_rows 65536
dram_columns 1024
dram_channel_width 8
dram_rq_size 64
dram_wq_size 64
dram_size 17179869184
core_0_itlb_prefetcher no
core_0_dtlb_prefetcher no
core_0_stlb_prefetcher no
core_0_l1i_prefetcher no
core_0_l1d_prefetcher no
core_0_l2c_prefetcher no
llc_prefetcher no
llc_replacement drrip

Core_0_instructions 100000000
Core_0_cycles 355728155
Core_0_IPC 0.281114
Core_0_branch_prediction_accuracy 88.4904
Core_0_branch_MPKI 17.2176
Core_0_average_ROB_occupancy_at_mispredict 37.8376

Core_0_ITLB_total_access 4850808
Core_0_ITLB_total_hit 4850808
Core_0_ITLB_total_miss 0
Core_0_ITLB_total_MPKI 0
Core_0_ITLB_total_miss_rate 0
Core_0_ITLB_demand_access 4850808
Core_0_ITLB_demand_hit 4850808
Core_0_ITLB_demand_miss 0
Core_0_ITLB_demand_MPKI 0
Core_0_ITLB_demand_miss_rate 0
Core_0_ITLB_load_access 4850808
Core_0_ITLB_load_hit 4850808
Core_0_ITLB_load_miss 0
Core_0_ITLB_load_MPKI 0
Core_0_ITLB_load_miss_rate 0
Core_0_ITLB_rfo_access 0
Core_0_ITLB_rfo_hit 0
Core_0_ITLB_rfo_miss 0
Core_0_ITLB_rfo_MPKI 0
Core_0_ITLB_rfo_miss_rate 0
Core_0_ITLB_prefetch_access 0
Core_0_ITLB_prefetch_hit 0
Core_0_ITLB_prefetch_miss 0
Core_0_ITLB_prefetch_MPKI 0
Core_0_ITLB_prefetch_miss_rate 0
Core_0_ITLB_writeback_access 0
Core_0_ITLB_writeback_hit 0
Core_0_ITLB_writeback_miss 0
Core_0_ITLB_writeback_MPKI 0
Core_0_ITLB_writeback_miss_rate 0
Core_0_ITLB_prefetch_requested 0
Core_0_ITLB_prefetch_issued 0
Core_0_ITLB_prefetch_useful 0
Core_0_ITLB_prefetch_useless 0
Core_0_ITLB_prefetch_late 0
Core_0_ITLB_prefetch_accuracy 0
Core_0_ITLB_prefetch_coverage 0

Core_0_DTLB_total_access 46952518
Core_0_DTLB_total_hit 44513162
Core_0_DTLB_total_miss 2439356
Core_0_DTLB_total_MPKI 24.3936
Core_0_DTLB_total_miss_rate 0.0519537
Core_0_DTLB_demand_access 46952518
Core_0_DTLB_demand_hit 44513162
Core_0_DTLB_demand_miss 2439356
Core_0_DTLB_demand_MPKI 24.3936
Core_0_DTLB_demand_miss_rate 0.0519537
Core_0_DTLB_load_access 46952518
Core_0_DTLB_load_hit 44513162
Core_0_DTLB_load_miss 2439356
Core_0_DTLB_load_MPKI 24.3936
Core_0_DTLB_load_miss_rate 0.0519537
Core_0_DTLB_rfo_access 0
Core_0_DTLB_rfo_hit 0
Core_0_DTLB_rfo_miss 0
Core_0_DTLB_rfo_MPKI 0
Core_0_DTLB_rfo_miss_rate 0
Core_0_DTLB_prefetch_access 0
Core_0_DTLB_prefetch_hit 0
Core_0_DTLB_prefetch_miss 0
Core_0_DTLB_prefetch_MPKI 0
Core_0_DTLB_prefetch_miss_rate 0
Core_0_DTLB_writeback_access 0
Core_0_DTLB_writeback_hit 0
Core_0_DTLB_writeback_miss 0
Core_0_DTLB_writeback_MPKI 0
Core_0_DTLB_writeback_miss_rate 0
Core_0_DTLB_prefetch_requested 0
Core_0_DTLB_prefetch_issued 0
Core_0_DTLB_prefetch_useful 0
Core_0_DTLB_prefetch_useless 0
Core_0_DTLB_prefetch_late 0
Core_0_DTLB_prefetch_accuracy 0
Core_0_DTLB_prefetch_coverage 0

Core_0_STLB_total_access 1949587
Core_0_STLB_total_hit 1212180
Core_0_STLB_total_miss 737407
Core_0_STLB_total_MPKI 7.37407
Core_0_STLB_total_miss_rate 0.378238
Core_0_STLB_demand_access 1949587
Core_0_STLB_demand_hit 1212180
Core_0_STLB_demand_miss 737407
Core_0_STLB_demand_MPKI 7.37407
Core_0_STLB_demand_miss_rate 0.378238
Core_0_STLB_load_access 1949587
Core_0_STLB_load_hit 1212180
Core_0_STLB_load_miss 737407
Core_0_STLB_load_MPKI 7.37407
Core_0_STLB_load_miss_rate 0.378238
Core_0_STLB_rfo_access 0
Core_0_STLB_rfo_hit 0
Core_0_STLB_rfo_miss 0
Core_0_STLB_rfo_MPKI 0
Core_0_STLB_rfo_miss_rate 0
Core_0_STLB_prefetch_access 0
Core_0_STLB_prefetch_hit 0
Core_0_STLB_prefetch_miss 0
Core_0_STLB_prefetch_MPKI 0
Core_0_STLB_prefetch_miss_rate 0
Core_0_STLB_writeback_access 0
Core_0_STLB_writeback_hit 0
Core_0_STLB_writeback_miss 0
Core_0_STLB_writeback_MPKI 0
Core_0_STLB_writeback_miss_rate 0
Core_0_STLB_prefetch_requested 0
Core_0_STLB_prefetch_issued 0
Core_0_STLB_prefetch_useful 0
Core_0_STLB_prefetch_useless 0
Core_0_STLB_prefetch_late 0
Core_0_STLB_prefetch_accuracy 0
Core_0_STLB_prefetch_coverage 0

Core_0_L1I_total_access 4856075
Core_0_L1I_total_hit 4856075
Core_0_L1I_total_miss 0
Core_0_L1I_total_MPKI 0
Core_0_L1I_total_miss_rate 0
Core_0_L1I_demand_access 4856075
Core_0_L1I_demand_hit 4856075
Core_0_L1I_demand_miss 0
Core_0_L1I_demand_MPKI 0
Core_0_L1I_demand_miss_rate 0
Core_0_L1I_load_access 4856075
Core_0_L1I_load_hit 4856075
Core_0_L1I_load_miss 0
Core_0_L1I_load_MPKI 0
Core_0_L1I_load_miss_rate 0
Core_0_L1I_rfo_access 0
Core_0_L1I_rfo_hit 0
Core_0_L1I_rfo_miss 0
Core_0_L1I_rfo_MPKI 0
Core_0_L1I_rfo_miss_rate 0
Core_0_L1I_prefetch_access 0
Core_0_L1I_prefetch_hit 0
Core_0_L1I_prefetch_miss 0
Core_0_L1I_prefetch_MPKI 0
Core_0_L1I_prefetch_miss_rate 0
Core_0_L1I_writeback_access 0
Core_0_L1I_writeback_hit 0
Core_0_L1I_writeback_miss 0
Core_0_L1I_writeback_MPKI 0
Core_0_L1I_writeback_miss_rate 0
Core_0_L1I_prefetch_requested 0
Core_0_L1I_prefetch_issued 0
Core_0_L1I_prefetch_useful 0
Core_0_L1I_prefetch_useless 0
Core_0_L1I_prefetch_late 0
Core_0_L1I_prefetch_accuracy 0
Core_0_L1I_prefetch_coverage 0

Core_0_L1D_total_access 47571612
Core_0_L1D_total_hit 38887083
Core_0_L1D_total_miss 8684529
Core_0_L1D_total_MPKI 86.8453
Core_0_L1D_total_miss_rate 0.182557
Core_0_L1D_demand_access 37525213
Core_0_L1D_demand_hit 31275868
Core_0_L1D_demand_miss 6249345
Core_0_L1D_demand_MPKI 62.4935
Core_0_L1D_demand_miss_rate 0.166537
Core_0_L1D_load_access 37525213
Core_0_L1D_load_hit 31275868
Core_0_L1D_load_miss 6249345
Core_0_L1D_load_MPKI 62.4935
Core_0_L1D_load_miss_rate 0.166537
Core_0_L1D_rfo_access 0
Core_0_L1D_rfo_hit 0
Core_0_L1D_rfo_miss 0
Core_0_L1D_rfo_MPKI 0
Core_0_L1D_rfo_miss_rate 0
Core_0_L1D_prefetch_access 0
Core_0_L1D_prefetch_hit 0
Core_0_L1D_prefetch_miss 0
Core_0_L1D_prefetch_MPKI 0
Core_0_L1D_prefetch_miss_rate 0
Core_0_L1D_writeback_access 10046399
Core_0_L1D_writeback_hit 7611215
Core_0_L1D_writeback_miss 2435184
Core_0_L1D_writeback_MPKI 24.3518
Core_0_L1D_writeback_miss_rate 0.242394
Core_0_L1D_prefetch_requested 0
Core_0_L1D_prefetch_issued 0
Core_0_L1D_prefetch_useful 0
Core_0_L1D_prefetch_useless 0
Core_0_L1D_prefetch_late 0
Core_0_L1D_prefetch_accuracy 0
Core_0_L1D_prefetch_coverage 0

Core_0_L2C_total_access 7771803
Core_0_L2C_total_hit 3695444
Core_0_L2C_total_miss 4076359
Core_0_L2C_total_MPKI 40.7636
Core_0_L2C_total_miss_rate 0.524506
Core_0_L2C_demand_access 5444325
Core_0_L2C_demand_hit 1368966
Core_0_L2C_demand_miss 4075359
Core_0_L2C_demand_MPKI 40.7536
Core_0_L2C_demand_miss_rate 0.748552
Core_0_L2C_load_access 5293098
Core_0_L2C_load_hit 1309963
Core_0_L2C_load_miss 3983135
Core_0_L2C_load_MPKI 39.8314
Core_0_L2C_load_miss_rate 0.752515
Core_0_L2C_rfo_access 151227
Core_0_L2C_rfo_hit 59003
Core_0_L2C_rfo_miss 92224
Core_0_L2C_rfo_MPKI 0.92224
Core_0_L2C_rfo_miss_rate 0.609838
Core_0_L2C_prefetch_access 0
Core_0_L2C_prefetch_hit 0
Core_0_L2C_prefetch_miss 0
Core_0_L2C_prefetch_MPKI 0
Core_0_L2C_prefetch_miss_rate 0
Core_0_L2C_writeback_access 2327478
Core_0_L2C_writeback_hit 2326478
Core_0_L2C_writeback_miss 1000
Core_0_L2C_writeback_MPKI 0.01
Core_0_L2C_writeback_miss_rate 0.00042965
Core_0_L2C_prefetch_requested 0
Core_0_L2C_prefetch_issued 0
Core_0_L2C_prefetch_useful 0
Core_0_L2C_prefetch_useless 0
Core_0_L2C_prefetch_late 0
Core_0_L2C_prefetch_accuracy 0
Core_0_L2C_prefetch_coverage 0

Core_0_LLC_total_access 5820256
Core_0_LLC_total_hit 4634097
Core_0_LLC_total_miss 1186159
Core_0_LLC_total_MPKI 11.8616
Core_0_LLC_total_miss_rate 0.203798
Core_0_LLC_demand_access 4075348
Core_0_LLC_demand_hit 2933921
Core_0_LLC_demand_miss 1141427
Core_0_LLC_demand_MPKI 11.4143
Core_0_LLC_demand_miss_rate 0.280081
Core_0_LLC_load_access 3983124
Core_0_LLC_load_hit 2917555
Core_0_LLC_load_miss 1065569
Core_0_LLC_load_MPKI 10.6557
Core_0_LLC_load_miss_rate 0.267521
Core_0_LLC_rfo_access 92224
Core_0_LLC_rfo_hit 16366
Core_0_LLC_rfo_miss 75858
Core_0_LLC_rfo_MPKI 0.75858
Core_0_LLC_rfo_miss_rate 0.822541
Core_0_LLC_prefetch_access 0
Core_0_LLC_prefetch_hit 0
Core_0_LLC_prefetch_miss 0
Core_0_LLC_prefetch_MPKI 0
Core_0_LLC_prefetch_miss_rate 0
Core_0_LLC_writeback_access 1744908
Core_0_LLC_writeback_hit 1700176
Core_0_LLC_writeback_miss 44732
Core_0_LLC_writeback_MPKI 0.44732
Core_0_LLC_writeback_miss_rate 0.0256357
Core_0_LLC_prefetch_requested 0
Core_0_LLC_prefetch_issued 0
Core_0_LLC_prefetch_useful 0
Core_0_LLC_prefetch_useless 0
Core_0_LLC_prefetch_late 0
Core_0_LLC_prefetch_accuracy 0
Core_0_LLC_prefetch_coverage 0

[DRAM Statistics]
Channel_0_RQ_row_buffer_hit 2275
Channel_0_RQ_row_buffer_miss 1144794
Channel_0_WQ_row_buffer_hit 113177
Channel_0_WQ_row_buffer_miss 301958
Channel_0_WQ_full 0
Channel_0_dbus_congested 4795565
DRAM_total_RQ_row_buffer_hit 2275
DRAM_total_RQ_row_buffer_miss 1144794
DRAM_total_WQ_row_buffer_hit 113177
DRAM_total_WQ_row_buffer_miss 301958
DRAM_total_WQ_full 0
DRAM_total_dbus_congested 4795565
DRAM_avg_congested_cycle 21.6496

====== DRAM_RQ_TRAFFIC ========
DRAM_RQ_READ_TRAFFIC_BREAKDOWN:
data_demand_read.count = 1141427
data_demand_read.share = 99.50%

inst_demand_read.count = 0
inst_demand_read.share = 0.00%

cache_inst_prefetch.count = 0
cache_inst_prefetch.share = 0.00%

cache_data_prefetch.count = 0
cache_data_prefetch.share = 0.00%

stlb_data_demand.count = 5785
stlb_data_demand.share = 0.50%

stlb_inst_demand.count = 0
stlb_inst_demand.share = 0.00%

stlb_l1i_pref.count = 0
stlb_l1i_pref.share = 0.00%

stlb_l1d_pref.count = 0
stlb_l1d_pref.share = 0.00%

DRAM_RQ_READ_TRAFFIC_SUMMARY:
cache_demand.count = 1141427
cache_demand.share = 99.50%

cache_prefetch.count = 0
cache_prefetch.share = 0.00%

stlb_demand.count = 5785
stlb_demand.share = 0.50%

stlb_prefetch.count = 0
stlb_prefetch.share = 0.00%

DRAM_RQ_READ_TRAFFIC_DEBUG:
total_classified_read.count = 1147212
unclassified_read.count = 0
total_read_with_other.count = 1147212

classified_plus_unclassified_check.count = 1147212
dram_rq_read_total_observed.count = 1147212
dram_rq_read_total_observed.per_1K_instructions = 11.4721

STLB_MISS_PTW_DRAM_TOUCH_BREAKDOWN:
stlb_miss_total.count = 737407

stlb_miss_touch_dram.count = 5750
stlb_miss_touch_dram.share = 0.78%

stlb_miss_no_dram_touch.count = 731657
stlb_miss_no_dram_touch.share = 99.22%

STLB_MISS_PTW_DRAM_TOUCH_DEBUG:
stlb_miss_touch_plus_no_touch.count = 737407
stlb_miss_total_check.count = 737407

======STLB miss causes ========
Core_0_STLB_miss_cause_breakdown
Core_0_STLB_cause_Demand_Data_miss 737407
Core_0_STLB_cause_Demand_Data_miss_rate 0.378238
Core_0_STLB_cause_Demand_Instruction_miss 0
Core_0_STLB_cause_Demand_Instruction_miss_rate 0
Core_0_STLB_cause_L1D_Prefetch_miss 0
Core_0_STLB_cause_L1D_Prefetch_miss_rate 0
Core_0_STLB_cause_L1I_Prefetch_miss 0
Core_0_STLB_cause_L1I_Prefetch_miss_rate 0
Core_0_STLB_cause_Other_miss 0
Core_0_STLB_cause_Other_miss_rate 0
Core_0_STLB_Demand_miss 737407
Core_0_STLB_Demand_miss_rate 0.378238
Core_0_STLB_L1D_Prefetch_miss 0
Core_0_STLB_L1D_Prefetch_miss_rate 0
Core_0_STLB_Other_miss 0
Core_0_STLB_Other_miss_rate 0
