[VMEM] WARNING: physical memory size is smaller than virtual memory size.

*** ChampSim Multicore Out-of-Order Simulator ***
Warmup Instructions: 50000000
Simulation Instructions: 100000000
Number of CPUs: 1
Page size: 4096
Core 0: /data0/tzh/champsim_traces/QMM/compute_fp_13_new.xz
Off-chip DRAM Size: 16 GiB Channels: 1 Width: 64-bit Data Rate: 3205 MT/s
*** Reached end of trace: (0, "/data0/tzh/champsim_traces/QMM/compute_fp_13_new.xz")
Warmup halting CPU 0 at instruction 50000005 cycle 10088430 for remainder of phase
Warmup finished CPU 0 instructions: 50000005 cycles: 10088430 cumulative IPC: 4.956 (Simulation time: 00 hr 01 min 38 sec)
Warmup complete CPU 0 instructions: 50000005 cycles: 10088430 cumulative IPC: 4.956 (Simulation time: 00 hr 01 min 38 sec)
*** Reached end of trace: (0, "/data0/tzh/champsim_traces/QMM/compute_fp_13_new.xz")
*** Reached end of trace: (0, "/data0/tzh/champsim_traces/QMM/compute_fp_13_new.xz")
*** Reached end of trace: (0, "/data0/tzh/champsim_traces/QMM/compute_fp_13_new.xz")
Simulation finished CPU 0 instructions: 100000004 cycles: 34157633 cumulative IPC: 2.928 (Simulation time: 00 hr 06 min 56 sec)
Simulation complete CPU 0 instructions: 100000004 cycles: 34157633 cumulative IPC: 2.928 (Simulation time: 00 hr 06 min 56 sec)

ChampSim completed all CPUs

=== Simulation ===
CPU 0 runs /data0/tzh/champsim_traces/QMM/compute_fp_13_new.xz

Region of Interest Statistics

CPU 0 cumulative IPC: 2.928 instructions: 100000004 cycles: 34157633
CPU 0 Branch Prediction Accuracy: 95.57% MPKI: 0.9894 Average ROB Occupancy at Mispredict: 175.8
Branch type MPKI
BRANCH_DIRECT_JUMP: 0
BRANCH_INDIRECT: 0.9894
BRANCH_CONDITIONAL: 0
BRANCH_DIRECT_CALL: 0
BRANCH_INDIRECT_CALL: 0
BRANCH_RETURN: 0

cpu0->cpu0_STLB TOTAL        ACCESS:     823965 HIT:     823965 MISS:          0 MSHR_MERGE:          0
cpu0->cpu0_STLB LOAD         ACCESS:     823965 HIT:     823965 MISS:          0 MSHR_MERGE:          0
cpu0->cpu0_STLB RFO          ACCESS:          0 HIT:          0 MISS:          0 MSHR_MERGE:          0
cpu0->cpu0_STLB PREFETCH     ACCESS:          0 HIT:          0 MISS:          0 MSHR_MERGE:          0
cpu0->cpu0_STLB WRITE        ACCESS:          0 HIT:          0 MISS:          0 MSHR_MERGE:          0
cpu0->cpu0_STLB TRANSLATION  ACCESS:          0 HIT:          0 MISS:          0 MSHR_MERGE:          0
cpu0->cpu0_STLB PREFETCH REQUESTED:          0 ISSUED:          0 USEFUL:          0 USELESS:          0 LATE:          0
cpu0->cpu0_STLB AVERAGE MISS LATENCY: - cycles
cpu0->cpu0_L2C TOTAL        ACCESS:     237721 HIT:      51007 MISS:     186714 MSHR_MERGE:          0
cpu0->cpu0_L2C LOAD         ACCESS:     187055 HIT:        525 MISS:     186530 MSHR_MERGE:          0
cpu0->cpu0_L2C RFO          ACCESS:        516 HIT:        332 MISS:        184 MSHR_MERGE:          0
cpu0->cpu0_L2C PREFETCH     ACCESS:          0 HIT:          0 MISS:          0 MSHR_MERGE:          0
cpu0->cpu0_L2C WRITE        ACCESS:      50150 HIT:      50150 MISS:          0 MSHR_MERGE:          0
cpu0->cpu0_L2C TRANSLATION  ACCESS:          0 HIT:          0 MISS:          0 MSHR_MERGE:          0
cpu0->cpu0_L2C PREFETCH REQUESTED:          0 ISSUED:          0 USEFUL:          0 USELESS:          0 LATE:          0
cpu0->cpu0_L2C AVERAGE MISS LATENCY: 109.6 cycles
cpu0->cpu0_L1I TOTAL        ACCESS:   11205031 HIT:   11204596 MISS:        435 MSHR_MERGE:        159
cpu0->cpu0_L1I LOAD         ACCESS:   11205031 HIT:   11204596 MISS:        435 MSHR_MERGE:        159
cpu0->cpu0_L1I RFO          ACCESS:          0 HIT:          0 MISS:          0 MSHR_MERGE:          0
cpu0->cpu0_L1I PREFETCH     ACCESS:          0 HIT:          0 MISS:          0 MSHR_MERGE:          0
cpu0->cpu0_L1I WRITE        ACCESS:          0 HIT:          0 MISS:          0 MSHR_MERGE:          0
cpu0->cpu0_L1I TRANSLATION  ACCESS:          0 HIT:          0 MISS:          0 MSHR_MERGE:          0
cpu0->cpu0_L1I PREFETCH REQUESTED:          0 ISSUED:          0 USEFUL:          0 USELESS:          0 LATE:          0
cpu0->cpu0_L1I AVERAGE MISS LATENCY: 113.3 cycles
cpu0->cpu0_L1D TOTAL        ACCESS:   16216757 HIT:   15867457 MISS:     349300 MSHR_MERGE:     162005
cpu0->cpu0_L1D LOAD         ACCESS:    9253762 HIT:    8905626 MISS:     348136 MSHR_MERGE:     161357
cpu0->cpu0_L1D RFO          ACCESS:          0 HIT:          0 MISS:          0 MSHR_MERGE:          0
cpu0->cpu0_L1D PREFETCH     ACCESS:          0 HIT:          0 MISS:          0 MSHR_MERGE:          0
cpu0->cpu0_L1D WRITE        ACCESS:    6962995 HIT:    6961831 MISS:       1164 MSHR_MERGE:        648
cpu0->cpu0_L1D TRANSLATION  ACCESS:          0 HIT:          0 MISS:          0 MSHR_MERGE:          0
cpu0->cpu0_L1D PREFETCH REQUESTED:          0 ISSUED:          0 USEFUL:          0 USELESS:          0 LATE:          0
cpu0->cpu0_L1D AVERAGE MISS LATENCY: 118.2 cycles
cpu0->cpu0_ITLB TOTAL        ACCESS:   10701395 HIT:   10701061 MISS:        334 MSHR_MERGE:        187
cpu0->cpu0_ITLB LOAD         ACCESS:   10701395 HIT:   10701061 MISS:        334 MSHR_MERGE:        187
cpu0->cpu0_ITLB RFO          ACCESS:          0 HIT:          0 MISS:          0 MSHR_MERGE:          0
cpu0->cpu0_ITLB PREFETCH     ACCESS:          0 HIT:          0 MISS:          0 MSHR_MERGE:          0
cpu0->cpu0_ITLB WRITE        ACCESS:          0 HIT:          0 MISS:          0 MSHR_MERGE:          0
cpu0->cpu0_ITLB TRANSLATION  ACCESS:          0 HIT:          0 MISS:          0 MSHR_MERGE:          0
cpu0->cpu0_ITLB PREFETCH REQUESTED:          0 ISSUED:          0 USEFUL:          0 USELESS:          0 LATE:          0
cpu0->cpu0_ITLB AVERAGE MISS LATENCY: 5 cycles
cpu0->cpu0_DTLB TOTAL        ACCESS:   15123162 HIT:   14204840 MISS:     918322 MSHR_MERGE:      94504
cpu0->cpu0_DTLB LOAD         ACCESS:   15123162 HIT:   14204840 MISS:     918322 MSHR_MERGE:      94504
cpu0->cpu0_DTLB RFO          ACCESS:          0 HIT:          0 MISS:          0 MSHR_MERGE:          0
cpu0->cpu0_DTLB PREFETCH     ACCESS:          0 HIT:          0 MISS:          0 MSHR_MERGE:          0
cpu0->cpu0_DTLB WRITE        ACCESS:          0 HIT:          0 MISS:          0 MSHR_MERGE:          0
cpu0->cpu0_DTLB TRANSLATION  ACCESS:          0 HIT:          0 MISS:          0 MSHR_MERGE:          0
cpu0->cpu0_DTLB PREFETCH REQUESTED:          0 ISSUED:          0 USEFUL:          0 USELESS:          0 LATE:          0
cpu0->cpu0_DTLB AVERAGE MISS LATENCY: 5 cycles
cpu0->LLC TOTAL        ACCESS:     236659 HIT:     135633 MISS:     101026 MSHR_MERGE:          0
cpu0->LLC LOAD         ACCESS:     186530 HIT:      90882 MISS:      95648 MSHR_MERGE:          0
cpu0->LLC RFO          ACCESS:        184 HIT:        173 MISS:         11 MSHR_MERGE:          0
cpu0->LLC PREFETCH     ACCESS:          0 HIT:          0 MISS:          0 MSHR_MERGE:          0
cpu0->LLC WRITE        ACCESS:      49945 HIT:      44578 MISS:       5367 MSHR_MERGE:          0
cpu0->LLC TRANSLATION  ACCESS:          0 HIT:          0 MISS:          0 MSHR_MERGE:          0
cpu0->LLC PREFETCH REQUESTED:          0 ISSUED:          0 USEFUL:          0 USELESS:          0 LATE:          0
cpu0->LLC AVERAGE MISS LATENCY: 174.4 cycles

DRAM Statistics

Channel 0 RQ ROW_BUFFER_HIT:         18
  ROW_BUFFER_MISS:      95639
  AVG DBUS CONGESTED CYCLE: 8.328
Channel 0 WQ ROW_BUFFER_HIT:        833
  ROW_BUFFER_MISS:      10516
  FULL:          0
Channel 0 REFRESHES ISSUED:       2847

[ROI Statistics]
[System Configuration]
num_cpus 1
cpu_freq 4000
fetch_width 6
decode_width 6
dispatch_width 6
execute_width 6
lq_width 2
sq_width 2
retire_width 6
scheduler_size 128
branch_mispredict_penalty 15
rob_size 352
lq_size 128
sq_size 72
ifetch_buffer_size 64
decode_buffer_size 32
dispatch_buffer_size 32
register_file_size 288
decode_latency 1
dispatch_latency 1
schedule_latency 1
execute_latency 1
page_size 4096
block_size 64
core_0_itlb_set 16
core_0_itlb_way 4
core_0_itlb_rq_size 16
core_0_itlb_wq_size 16
core_0_itlb_pq_size 0
core_0_itlb_mshr_size 8
core_0_itlb_hit_latency 1
core_0_itlb_fill_latency 1
core_0_itlb_max_tag_check 2
core_0_itlb_max_fill 2
core_0_dtlb_set 16
core_0_dtlb_way 4
core_0_dtlb_rq_size 16
core_0_dtlb_wq_size 16
core_0_dtlb_pq_size 0
core_0_dtlb_mshr_size 8
core_0_dtlb_hit_latency 1
core_0_dtlb_fill_latency 1
core_0_dtlb_max_tag_check 2
core_0_dtlb_max_fill 2
core_0_stlb_set 128
core_0_stlb_way 12
core_0_stlb_rq_size 32
core_0_stlb_wq_size 32
core_0_stlb_pq_size 0
core_0_stlb_mshr_size 16
core_0_stlb_hit_latency 4
core_0_stlb_fill_latency 4
core_0_stlb_max_tag_check 1
core_0_stlb_max_fill 1
core_0_l1i_set 64
core_0_l1i_way 8
core_0_l1i_rq_size 64
core_0_l1i_wq_size 64
core_0_l1i_pq_size 32
core_0_l1i_mshr_size 8
core_0_l1i_hit_latency 2
core_0_l1i_fill_latency 2
core_0_l1i_max_tag_check 2
core_0_l1i_max_fill 2
core_0_l1d_set 64
core_0_l1d_way 12
core_0_l1d_rq_size 64
core_0_l1d_wq_size 64
core_0_l1d_pq_size 8
core_0_l1d_mshr_size 16
core_0_l1d_hit_latency 2
core_0_l1d_fill_latency 3
core_0_l1d_max_tag_check 2
core_0_l1d_max_fill 2
core_0_l2c_set 1024
core_0_l2c_way 8
core_0_l2c_rq_size 32
core_0_l2c_wq_size 32
core_0_l2c_pq_size 16
core_0_l2c_mshr_size 32
core_0_l2c_hit_latency 5
core_0_l2c_fill_latency 5
core_0_l2c_max_tag_check 1
core_0_l2c_max_fill 1
llc_set 2048
llc_way 16
llc_rq_size 32
llc_wq_size 32
llc_pq_size 32
llc_mshr_size 64
llc_hit_latency 10
llc_fill_latency 10
llc_max_tag_check 1
llc_max_fill 1
dram_channels 1
dram_ranks 1
dram_bankgroups 8
dram_banks 4
dram_rows 65536
dram_columns 1024
dram_channel_width 8
dram_rq_size 64
dram_wq_size 64
dram_size 17179869184
core_0_itlb_prefetcher no
core_0_dtlb_prefetcher no
core_0_stlb_prefetcher no
core_0_l1i_prefetcher no
core_0_l1d_prefetcher no
core_0_l2c_prefetcher no
llc_prefetcher no
llc_replacement drrip

Core_0_instructions 100000004
Core_0_cycles 34157633
Core_0_IPC 2.9276
Core_0_branch_prediction_accuracy 95.5672
Core_0_branch_MPKI 0.98939
Core_0_average_ROB_occupancy_at_mispredict 175.834

Core_0_ITLB_total_access 10701395
Core_0_ITLB_total_hit 10701061
Core_0_ITLB_total_miss 334
Core_0_ITLB_total_MPKI 0.00334
Core_0_ITLB_total_miss_rate 3.12109e-05
Core_0_ITLB_demand_access 10701395
Core_0_ITLB_demand_hit 10701061
Core_0_ITLB_demand_miss 334
Core_0_ITLB_demand_MPKI 0.00334
Core_0_ITLB_demand_miss_rate 3.12109e-05
Core_0_ITLB_load_access 10701395
Core_0_ITLB_load_hit 10701061
Core_0_ITLB_load_miss 334
Core_0_ITLB_load_MPKI 0.00334
Core_0_ITLB_load_miss_rate 3.12109e-05
Core_0_ITLB_rfo_access 0
Core_0_ITLB_rfo_hit 0
Core_0_ITLB_rfo_miss 0
Core_0_ITLB_rfo_MPKI 0
Core_0_ITLB_rfo_miss_rate 0
Core_0_ITLB_prefetch_access 0
Core_0_ITLB_prefetch_hit 0
Core_0_ITLB_prefetch_miss 0
Core_0_ITLB_prefetch_MPKI 0
Core_0_ITLB_prefetch_miss_rate 0
Core_0_ITLB_writeback_access 0
Core_0_ITLB_writeback_hit 0
Core_0_ITLB_writeback_miss 0
Core_0_ITLB_writeback_MPKI 0
Core_0_ITLB_writeback_miss_rate 0
Core_0_ITLB_prefetch_requested 0
Core_0_ITLB_prefetch_issued 0
Core_0_ITLB_prefetch_useful 0
Core_0_ITLB_prefetch_useless 0
Core_0_ITLB_prefetch_late 0
Core_0_ITLB_prefetch_accuracy 0
Core_0_ITLB_prefetch_coverage 0

Core_0_DTLB_total_access 15123162
Core_0_DTLB_total_hit 14204840
Core_0_DTLB_total_miss 918322
Core_0_DTLB_total_MPKI 9.18322
Core_0_DTLB_total_miss_rate 0.0607229
Core_0_DTLB_demand_access 15123162
Core_0_DTLB_demand_hit 14204840
Core_0_DTLB_demand_miss 918322
Core_0_DTLB_demand_MPKI 9.18322
Core_0_DTLB_demand_miss_rate 0.0607229
Core_0_DTLB_load_access 15123162
Core_0_DTLB_load_hit 14204840
Core_0_DTLB_load_miss 918322
Core_0_DTLB_load_MPKI 9.18322
Core_0_DTLB_load_miss_rate 0.0607229
Core_0_DTLB_rfo_access 0
Core_0_DTLB_rfo_hit 0
Core_0_DTLB_rfo_miss 0
Core_0_DTLB_rfo_MPKI 0
Core_0_DTLB_rfo_miss_rate 0
Core_0_DTLB_prefetch_access 0
Core_0_DTLB_prefetch_hit 0
Core_0_DTLB_prefetch_miss 0
Core_0_DTLB_prefetch_MPKI 0
Core_0_DTLB_prefetch_miss_rate 0
Core_0_DTLB_writeback_access 0
Core_0_DTLB_writeback_hit 0
Core_0_DTLB_writeback_miss 0
Core_0_DTLB_writeback_MPKI 0
Core_0_DTLB_writeback_miss_rate 0
Core_0_DTLB_prefetch_requested 0
Core_0_DTLB_prefetch_issued 0
Core_0_DTLB_prefetch_useful 0
Core_0_DTLB_prefetch_useless 0
Core_0_DTLB_prefetch_late 0
Core_0_DTLB_prefetch_accuracy 0
Core_0_DTLB_prefetch_coverage 0

Core_0_STLB_total_access 823965
Core_0_STLB_total_hit 823965
Core_0_STLB_total_miss 0
Core_0_STLB_total_MPKI 0
Core_0_STLB_total_miss_rate 0
Core_0_STLB_demand_access 823965
Core_0_STLB_demand_hit 823965
Core_0_STLB_demand_miss 0
Core_0_STLB_demand_MPKI 0
Core_0_STLB_demand_miss_rate 0
Core_0_STLB_load_access 823965
Core_0_STLB_load_hit 823965
Core_0_STLB_load_miss 0
Core_0_STLB_load_MPKI 0
Core_0_STLB_load_miss_rate 0
Core_0_STLB_rfo_access 0
Core_0_STLB_rfo_hit 0
Core_0_STLB_rfo_miss 0
Core_0_STLB_rfo_MPKI 0
Core_0_STLB_rfo_miss_rate 0
Core_0_STLB_prefetch_access 0
Core_0_STLB_prefetch_hit 0
Core_0_STLB_prefetch_miss 0
Core_0_STLB_prefetch_MPKI 0
Core_0_STLB_prefetch_miss_rate 0
Core_0_STLB_writeback_access 0
Core_0_STLB_writeback_hit 0
Core_0_STLB_writeback_miss 0
Core_0_STLB_writeback_MPKI 0
Core_0_STLB_writeback_miss_rate 0
Core_0_STLB_prefetch_requested 0
Core_0_STLB_prefetch_issued 0
Core_0_STLB_prefetch_useful 0
Core_0_STLB_prefetch_useless 0
Core_0_STLB_prefetch_late 0
Core_0_STLB_prefetch_accuracy 0
Core_0_STLB_prefetch_coverage 0

Core_0_L1I_total_access 11205031
Core_0_L1I_total_hit 11204596
Core_0_L1I_total_miss 435
Core_0_L1I_total_MPKI 0.00435
Core_0_L1I_total_miss_rate 3.88218e-05
Core_0_L1I_demand_access 11205031
Core_0_L1I_demand_hit 11204596
Core_0_L1I_demand_miss 435
Core_0_L1I_demand_MPKI 0.00435
Core_0_L1I_demand_miss_rate 3.88218e-05
Core_0_L1I_load_access 11205031
Core_0_L1I_load_hit 11204596
Core_0_L1I_load_miss 435
Core_0_L1I_load_MPKI 0.00435
Core_0_L1I_load_miss_rate 3.88218e-05
Core_0_L1I_rfo_access 0
Core_0_L1I_rfo_hit 0
Core_0_L1I_rfo_miss 0
Core_0_L1I_rfo_MPKI 0
Core_0_L1I_rfo_miss_rate 0
Core_0_L1I_prefetch_access 0
Core_0_L1I_prefetch_hit 0
Core_0_L1I_prefetch_miss 0
Core_0_L1I_prefetch_MPKI 0
Core_0_L1I_prefetch_miss_rate 0
Core_0_L1I_writeback_access 0
Core_0_L1I_writeback_hit 0
Core_0_L1I_writeback_miss 0
Core_0_L1I_writeback_MPKI 0
Core_0_L1I_writeback_miss_rate 0
Core_0_L1I_prefetch_requested 0
Core_0_L1I_prefetch_issued 0
Core_0_L1I_prefetch_useful 0
Core_0_L1I_prefetch_useless 0
Core_0_L1I_prefetch_late 0
Core_0_L1I_prefetch_accuracy 0
Core_0_L1I_prefetch_coverage 0

Core_0_L1D_total_access 16216757
Core_0_L1D_total_hit 15867457
Core_0_L1D_total_miss 349300
Core_0_L1D_total_MPKI 3.493
Core_0_L1D_total_miss_rate 0.0215394
Core_0_L1D_demand_access 9253762
Core_0_L1D_demand_hit 8905626
Core_0_L1D_demand_miss 348136
Core_0_L1D_demand_MPKI 3.48136
Core_0_L1D_demand_miss_rate 0.037621
Core_0_L1D_load_access 9253762
Core_0_L1D_load_hit 8905626
Core_0_L1D_load_miss 348136
Core_0_L1D_load_MPKI 3.48136
Core_0_L1D_load_miss_rate 0.037621
Core_0_L1D_rfo_access 0
Core_0_L1D_rfo_hit 0
Core_0_L1D_rfo_miss 0
Core_0_L1D_rfo_MPKI 0
Core_0_L1D_rfo_miss_rate 0
Core_0_L1D_prefetch_access 0
Core_0_L1D_prefetch_hit 0
Core_0_L1D_prefetch_miss 0
Core_0_L1D_prefetch_MPKI 0
Core_0_L1D_prefetch_miss_rate 0
Core_0_L1D_writeback_access 6962995
Core_0_L1D_writeback_hit 6961831
Core_0_L1D_writeback_miss 1164
Core_0_L1D_writeback_MPKI 0.01164
Core_0_L1D_writeback_miss_rate 0.000167169
Core_0_L1D_prefetch_requested 0
Core_0_L1D_prefetch_issued 0
Core_0_L1D_prefetch_useful 0
Core_0_L1D_prefetch_useless 0
Core_0_L1D_prefetch_late 0
Core_0_L1D_prefetch_accuracy 0
Core_0_L1D_prefetch_coverage 0

Core_0_L2C_total_access 237721
Core_0_L2C_total_hit 51007
Core_0_L2C_total_miss 186714
Core_0_L2C_total_MPKI 1.86714
Core_0_L2C_total_miss_rate 0.785433
Core_0_L2C_demand_access 187571
Core_0_L2C_demand_hit 857
Core_0_L2C_demand_miss 186714
Core_0_L2C_demand_MPKI 1.86714
Core_0_L2C_demand_miss_rate 0.995431
Core_0_L2C_load_access 187055
Core_0_L2C_load_hit 525
Core_0_L2C_load_miss 186530
Core_0_L2C_load_MPKI 1.8653
Core_0_L2C_load_miss_rate 0.997193
Core_0_L2C_rfo_access 516
Core_0_L2C_rfo_hit 332
Core_0_L2C_rfo_miss 184
Core_0_L2C_rfo_MPKI 0.00184
Core_0_L2C_rfo_miss_rate 0.356589
Core_0_L2C_prefetch_access 0
Core_0_L2C_prefetch_hit 0
Core_0_L2C_prefetch_miss 0
Core_0_L2C_prefetch_MPKI 0
Core_0_L2C_prefetch_miss_rate 0
Core_0_L2C_writeback_access 50150
Core_0_L2C_writeback_hit 50150
Core_0_L2C_writeback_miss 0
Core_0_L2C_writeback_MPKI 0
Core_0_L2C_writeback_miss_rate 0
Core_0_L2C_prefetch_requested 0
Core_0_L2C_prefetch_issued 0
Core_0_L2C_prefetch_useful 0
Core_0_L2C_prefetch_useless 0
Core_0_L2C_prefetch_late 0
Core_0_L2C_prefetch_accuracy 0
Core_0_L2C_prefetch_coverage 0

Core_0_LLC_total_access 236659
Core_0_LLC_total_hit 135633
Core_0_LLC_total_miss 101026
Core_0_LLC_total_MPKI 1.01026
Core_0_LLC_total_miss_rate 0.426884
Core_0_LLC_demand_access 186714
Core_0_LLC_demand_hit 91055
Core_0_LLC_demand_miss 95659
Core_0_LLC_demand_MPKI 0.95659
Core_0_LLC_demand_miss_rate 0.512329
Core_0_LLC_load_access 186530
Core_0_LLC_load_hit 90882
Core_0_LLC_load_miss 95648
Core_0_LLC_load_MPKI 0.95648
Core_0_LLC_load_miss_rate 0.512775
Core_0_LLC_rfo_access 184
Core_0_LLC_rfo_hit 173
Core_0_LLC_rfo_miss 11
Core_0_LLC_rfo_MPKI 0.00011
Core_0_LLC_rfo_miss_rate 0.0597826
Core_0_LLC_prefetch_access 0
Core_0_LLC_prefetch_hit 0
Core_0_LLC_prefetch_miss 0
Core_0_LLC_prefetch_MPKI 0
Core_0_LLC_prefetch_miss_rate 0
Core_0_LLC_writeback_access 49945
Core_0_LLC_writeback_hit 44578
Core_0_LLC_writeback_miss 5367
Core_0_LLC_writeback_MPKI 0.05367
Core_0_LLC_writeback_miss_rate 0.107458
Core_0_LLC_prefetch_requested 0
Core_0_LLC_prefetch_issued 0
Core_0_LLC_prefetch_useful 0
Core_0_LLC_prefetch_useless 0
Core_0_LLC_prefetch_late 0
Core_0_LLC_prefetch_accuracy 0
Core_0_LLC_prefetch_coverage 0

[DRAM Statistics]
Channel_0_RQ_row_buffer_hit 18
Channel_0_RQ_row_buffer_miss 95639
Channel_0_WQ_row_buffer_hit 833
Channel_0_WQ_row_buffer_miss 10516
Channel_0_WQ_full 0
Channel_0_dbus_congested 151550
DRAM_total_RQ_row_buffer_hit 18
DRAM_total_RQ_row_buffer_miss 95639
DRAM_total_WQ_row_buffer_hit 833
DRAM_total_WQ_row_buffer_miss 10516
DRAM_total_WQ_full 0
DRAM_total_dbus_congested 151550
DRAM_avg_congested_cycle 8.32785

====== DRAM_RQ_TRAFFIC ========
DRAM_RQ_READ_TRAFFIC_BREAKDOWN:
data_demand_read.count = 95522
data_demand_read.share = 99.86%

inst_demand_read.count = 137
inst_demand_read.share = 0.14%

cache_inst_prefetch.count = 0
cache_inst_prefetch.share = 0.00%

cache_data_prefetch.count = 0
cache_data_prefetch.share = 0.00%

stlb_data_demand.count = 0
stlb_data_demand.share = 0.00%

stlb_inst_demand.count = 0
stlb_inst_demand.share = 0.00%

stlb_l1i_pref.count = 0
stlb_l1i_pref.share = 0.00%

stlb_l1d_pref.count = 0
stlb_l1d_pref.share = 0.00%

DRAM_RQ_READ_TRAFFIC_SUMMARY:
cache_demand.count = 95659
cache_demand.share = 100.00%

cache_prefetch.count = 0
cache_prefetch.share = 0.00%

stlb_demand.count = 0
stlb_demand.share = 0.00%

stlb_prefetch.count = 0
stlb_prefetch.share = 0.00%

DRAM_RQ_READ_TRAFFIC_DEBUG:
total_classified_read.count = 95659
unclassified_read.count = 0
total_read_with_other.count = 95659

classified_plus_unclassified_check.count = 95659
dram_rq_read_total_observed.count = 95659
dram_rq_read_total_observed.per_1K_instructions = 0.95659

STLB_MISS_PTW_DRAM_TOUCH_BREAKDOWN:
stlb_miss_total.count = 0

stlb_miss_touch_dram.count = 0
stlb_miss_touch_dram.share = 0.00%

stlb_miss_no_dram_touch.count = 0
stlb_miss_no_dram_touch.share = 0.00%

STLB_MISS_PTW_DRAM_TOUCH_DEBUG:
stlb_miss_touch_plus_no_touch.count = 0
stlb_miss_total_check.count = 0

======STLB miss causes ========
Core_0_STLB_miss_cause_breakdown
Core_0_STLB_cause_Demand_Data_miss 0
Core_0_STLB_cause_Demand_Data_miss_rate 0
Core_0_STLB_cause_Demand_Instruction_miss 0
Core_0_STLB_cause_Demand_Instruction_miss_rate 0
Core_0_STLB_cause_L1D_Prefetch_miss 0
Core_0_STLB_cause_L1D_Prefetch_miss_rate 0
Core_0_STLB_cause_L1I_Prefetch_miss 0
Core_0_STLB_cause_L1I_Prefetch_miss_rate 0
Core_0_STLB_cause_Other_miss 0
Core_0_STLB_cause_Other_miss_rate 0
Core_0_STLB_Demand_miss 0
Core_0_STLB_Demand_miss_rate 0
Core_0_STLB_L1D_Prefetch_miss 0
Core_0_STLB_L1D_Prefetch_miss_rate 0
Core_0_STLB_Other_miss 0
Core_0_STLB_Other_miss_rate 0
