[VMEM] WARNING: physical memory size is smaller than virtual memory size.

*** ChampSim Multicore Out-of-Order Simulator ***
Warmup Instructions: 50000000
Simulation Instructions: 100000000
Number of CPUs: 1
Page size: 4096
Core 0: /data0/tzh/champsim_traces/Ligra/ligra_Triangle.com-lj.ungraph.gcc_6.3.0_O3.drop_18000M.length_250M.champsimtrace.xz
Off-chip DRAM Size: 16 GiB Channels: 1 Width: 64-bit Data Rate: 3205 MT/s
Warmup halting CPU 0 at instruction 50000001 cycle 15232125 for remainder of phase
Warmup finished CPU 0 instructions: 50000001 cycles: 15232125 cumulative IPC: 3.283 (Simulation time: 00 hr 02 min 38 sec)
Warmup complete CPU 0 instructions: 50000001 cycles: 15232125 cumulative IPC: 3.283 (Simulation time: 00 hr 02 min 38 sec)
Simulation finished CPU 0 instructions: 100000001 cycles: 76832711 cumulative IPC: 1.302 (Simulation time: 00 hr 12 min 54 sec)
Simulation complete CPU 0 instructions: 100000001 cycles: 76832711 cumulative IPC: 1.302 (Simulation time: 00 hr 12 min 54 sec)

ChampSim completed all CPUs

=== Simulation ===
CPU 0 runs /data0/tzh/champsim_traces/Ligra/ligra_Triangle.com-lj.ungraph.gcc_6.3.0_O3.drop_18000M.length_250M.champsimtrace.xz

Region of Interest Statistics

CPU 0 cumulative IPC: 1.302 instructions: 100000001 cycles: 76832711
CPU 0 Branch Prediction Accuracy: 99.05% MPKI: 0.9674 Average ROB Occupancy at Mispredict: 186.3
Branch type MPKI
BRANCH_DIRECT_JUMP: 1e-05
BRANCH_INDIRECT: 0
BRANCH_CONDITIONAL: 0.9671
BRANCH_DIRECT_CALL: 0
BRANCH_INDIRECT_CALL: 0
BRANCH_RETURN: 0.00028

cpu0->cpu0_STLB TOTAL        ACCESS:      45899 HIT:      37701 MISS:       8198 MSHR_MERGE:          0
cpu0->cpu0_STLB LOAD         ACCESS:      45899 HIT:      37701 MISS:       8198 MSHR_MERGE:          0
cpu0->cpu0_STLB RFO          ACCESS:          0 HIT:          0 MISS:          0 MSHR_MERGE:          0
cpu0->cpu0_STLB PREFETCH     ACCESS:          0 HIT:          0 MISS:          0 MSHR_MERGE:          0
cpu0->cpu0_STLB WRITE        ACCESS:          0 HIT:          0 MISS:          0 MSHR_MERGE:          0
cpu0->cpu0_STLB TRANSLATION  ACCESS:          0 HIT:          0 MISS:          0 MSHR_MERGE:          0
cpu0->cpu0_STLB PREFETCH REQUESTED:          0 ISSUED:          0 USEFUL:          0 USELESS:          0 LATE:          0
cpu0->cpu0_STLB AVERAGE MISS LATENCY: 273.8 cycles
cpu0->cpu0_L2C TOTAL        ACCESS:    3594933 HIT:    1576153 MISS:    2018780 MSHR_MERGE:          0
cpu0->cpu0_L2C LOAD         ACCESS:    1375160 HIT:     392458 MISS:     982702 MSHR_MERGE:          0
cpu0->cpu0_L2C RFO          ACCESS:    1107042 HIT:      72409 MISS:    1034633 MSHR_MERGE:          0
cpu0->cpu0_L2C PREFETCH     ACCESS:          0 HIT:          0 MISS:          0 MSHR_MERGE:          0
cpu0->cpu0_L2C WRITE        ACCESS:    1110960 HIT:    1110667 MISS:        293 MSHR_MERGE:          0
cpu0->cpu0_L2C TRANSLATION  ACCESS:       1771 HIT:        619 MISS:       1152 MSHR_MERGE:          0
cpu0->cpu0_L2C PREFETCH REQUESTED:          0 ISSUED:          0 USEFUL:          0 USELESS:          0 LATE:          0
cpu0->cpu0_L2C AVERAGE MISS LATENCY: 238 cycles
cpu0->cpu0_L1I TOTAL        ACCESS:   10572434 HIT:   10572433 MISS:          1 MSHR_MERGE:          0
cpu0->cpu0_L1I LOAD         ACCESS:   10572434 HIT:   10572433 MISS:          1 MSHR_MERGE:          0
cpu0->cpu0_L1I RFO          ACCESS:          0 HIT:          0 MISS:          0 MSHR_MERGE:          0
cpu0->cpu0_L1I PREFETCH     ACCESS:          0 HIT:          0 MISS:          0 MSHR_MERGE:          0
cpu0->cpu0_L1I WRITE        ACCESS:          0 HIT:          0 MISS:          0 MSHR_MERGE:          0
cpu0->cpu0_L1I TRANSLATION  ACCESS:          0 HIT:          0 MISS:          0 MSHR_MERGE:          0
cpu0->cpu0_L1I PREFETCH REQUESTED:          0 ISSUED:          0 USEFUL:          0 USELESS:          0 LATE:          0
cpu0->cpu0_L1I AVERAGE MISS LATENCY: 526 cycles
cpu0->cpu0_L1D TOTAL        ACCESS:   27277184 HIT:   18610127 MISS:    8667057 MSHR_MERGE:    6183050
cpu0->cpu0_L1D LOAD         ACCESS:    7181274 HIT:    4302704 MISS:    2878570 MSHR_MERGE:    1503407
cpu0->cpu0_L1D RFO          ACCESS:          0 HIT:          0 MISS:          0 MSHR_MERGE:          0
cpu0->cpu0_L1D PREFETCH     ACCESS:          0 HIT:          0 MISS:          0 MSHR_MERGE:          0
cpu0->cpu0_L1D WRITE        ACCESS:   20080253 HIT:   14294274 MISS:    5785979 MSHR_MERGE:    4678906
cpu0->cpu0_L1D TRANSLATION  ACCESS:      15657 HIT:      13149 MISS:       2508 MSHR_MERGE:        737
cpu0->cpu0_L1D PREFETCH REQUESTED:          0 ISSUED:          0 USEFUL:          0 USELESS:          0 LATE:          0
cpu0->cpu0_L1D AVERAGE MISS LATENCY: 202.3 cycles
cpu0->cpu0_ITLB TOTAL        ACCESS:   10379134 HIT:   10379134 MISS:          0 MSHR_MERGE:          0
cpu0->cpu0_ITLB LOAD         ACCESS:   10379134 HIT:   10379134 MISS:          0 MSHR_MERGE:          0
cpu0->cpu0_ITLB RFO          ACCESS:          0 HIT:          0 MISS:          0 MSHR_MERGE:          0
cpu0->cpu0_ITLB PREFETCH     ACCESS:          0 HIT:          0 MISS:          0 MSHR_MERGE:          0
cpu0->cpu0_ITLB WRITE        ACCESS:          0 HIT:          0 MISS:          0 MSHR_MERGE:          0
cpu0->cpu0_ITLB TRANSLATION  ACCESS:          0 HIT:          0 MISS:          0 MSHR_MERGE:          0
cpu0->cpu0_ITLB PREFETCH REQUESTED:          0 ISSUED:          0 USEFUL:          0 USELESS:          0 LATE:          0
cpu0->cpu0_ITLB AVERAGE MISS LATENCY: - cycles
cpu0->cpu0_DTLB TOTAL        ACCESS:   23826048 HIT:   23656409 MISS:     169639 MSHR_MERGE:     123740
cpu0->cpu0_DTLB LOAD         ACCESS:   23826048 HIT:   23656409 MISS:     169639 MSHR_MERGE:     123740
cpu0->cpu0_DTLB RFO          ACCESS:          0 HIT:          0 MISS:          0 MSHR_MERGE:          0
cpu0->cpu0_DTLB PREFETCH     ACCESS:          0 HIT:          0 MISS:          0 MSHR_MERGE:          0
cpu0->cpu0_DTLB WRITE        ACCESS:          0 HIT:          0 MISS:          0 MSHR_MERGE:          0
cpu0->cpu0_DTLB TRANSLATION  ACCESS:          0 HIT:          0 MISS:          0 MSHR_MERGE:          0
cpu0->cpu0_DTLB PREFETCH REQUESTED:          0 ISSUED:          0 USEFUL:          0 USELESS:          0 LATE:          0
cpu0->cpu0_DTLB AVERAGE MISS LATENCY: 54.08 cycles
cpu0->LLC TOTAL        ACCESS:    3057905 HIT:    1320537 MISS:    1737368 MSHR_MERGE:          0
cpu0->LLC LOAD         ACCESS:     982701 HIT:     458487 MISS:     524214 MSHR_MERGE:          0
cpu0->LLC RFO          ACCESS:    1034633 HIT:     316380 MISS:     718253 MSHR_MERGE:          0
cpu0->LLC PREFETCH     ACCESS:          0 HIT:          0 MISS:          0 MSHR_MERGE:          0
cpu0->LLC WRITE        ACCESS:    1039419 HIT:     545651 MISS:     493768 MSHR_MERGE:          0
cpu0->LLC TRANSLATION  ACCESS:       1152 HIT:         19 MISS:       1133 MSHR_MERGE:          0
cpu0->LLC PREFETCH REQUESTED:          0 ISSUED:          0 USEFUL:          0 USELESS:          0 LATE:          0
cpu0->LLC AVERAGE MISS LATENCY: 260.9 cycles

DRAM Statistics

Channel 0 RQ ROW_BUFFER_HIT:      64365
  ROW_BUFFER_MISS:    1177423
  AVG DBUS CONGESTED CYCLE: 7.699
Channel 0 WQ ROW_BUFFER_HIT:     141398
  ROW_BUFFER_MISS:     623300
  FULL:      12157
Channel 0 REFRESHES ISSUED:       6403

[ROI Statistics]
[System Configuration]
num_cpus 1
cpu_freq 4000
fetch_width 6
decode_width 6
dispatch_width 6
execute_width 6
lq_width 2
sq_width 2
retire_width 6
scheduler_size 128
branch_mispredict_penalty 15
rob_size 352
lq_size 128
sq_size 72
ifetch_buffer_size 64
decode_buffer_size 32
dispatch_buffer_size 32
register_file_size 288
decode_latency 1
dispatch_latency 1
schedule_latency 1
execute_latency 1
page_size 4096
block_size 64
core_0_itlb_set 16
core_0_itlb_way 4
core_0_itlb_rq_size 16
core_0_itlb_wq_size 16
core_0_itlb_pq_size 0
core_0_itlb_mshr_size 8
core_0_itlb_hit_latency 1
core_0_itlb_fill_latency 1
core_0_itlb_max_tag_check 2
core_0_itlb_max_fill 2
core_0_dtlb_set 16
core_0_dtlb_way 4
core_0_dtlb_rq_size 16
core_0_dtlb_wq_size 16
core_0_dtlb_pq_size 0
core_0_dtlb_mshr_size 8
core_0_dtlb_hit_latency 1
core_0_dtlb_fill_latency 1
core_0_dtlb_max_tag_check 2
core_0_dtlb_max_fill 2
core_0_stlb_set 128
core_0_stlb_way 12
core_0_stlb_rq_size 32
core_0_stlb_wq_size 32
core_0_stlb_pq_size 0
core_0_stlb_mshr_size 16
core_0_stlb_hit_latency 4
core_0_stlb_fill_latency 4
core_0_stlb_max_tag_check 1
core_0_stlb_max_fill 1
core_0_l1i_set 64
core_0_l1i_way 8
core_0_l1i_rq_size 64
core_0_l1i_wq_size 64
core_0_l1i_pq_size 32
core_0_l1i_mshr_size 8
core_0_l1i_hit_latency 2
core_0_l1i_fill_latency 2
core_0_l1i_max_tag_check 2
core_0_l1i_max_fill 2
core_0_l1d_set 64
core_0_l1d_way 12
core_0_l1d_rq_size 64
core_0_l1d_wq_size 64
core_0_l1d_pq_size 8
core_0_l1d_mshr_size 16
core_0_l1d_hit_latency 2
core_0_l1d_fill_latency 3
core_0_l1d_max_tag_check 2
core_0_l1d_max_fill 2
core_0_l2c_set 1024
core_0_l2c_way 8
core_0_l2c_rq_size 32
core_0_l2c_wq_size 32
core_0_l2c_pq_size 16
core_0_l2c_mshr_size 32
core_0_l2c_hit_latency 5
core_0_l2c_fill_latency 5
core_0_l2c_max_tag_check 1
core_0_l2c_max_fill 1
llc_set 2048
llc_way 16
llc_rq_size 32
llc_wq_size 32
llc_pq_size 32
llc_mshr_size 64
llc_hit_latency 10
llc_fill_latency 10
llc_max_tag_check 1
llc_max_fill 1
dram_channels 1
dram_ranks 1
dram_bankgroups 8
dram_banks 4
dram_rows 65536
dram_columns 1024
dram_channel_width 8
dram_rq_size 64
dram_wq_size 64
dram_size 17179869184
core_0_itlb_prefetcher no
core_0_dtlb_prefetcher no
core_0_stlb_prefetcher no
core_0_l1i_prefetcher no
core_0_l1d_prefetcher no
core_0_l2c_prefetcher no
llc_prefetcher no
llc_replacement drrip

Core_0_instructions 100000001
Core_0_cycles 76832711
Core_0_IPC 1.30153
Core_0_branch_prediction_accuracy 99.0458
Core_0_branch_MPKI 0.96741
Core_0_average_ROB_occupancy_at_mispredict 186.306

Core_0_ITLB_total_access 10379134
Core_0_ITLB_total_hit 10379134
Core_0_ITLB_total_miss 0
Core_0_ITLB_total_MPKI 0
Core_0_ITLB_total_miss_rate 0
Core_0_ITLB_demand_access 10379134
Core_0_ITLB_demand_hit 10379134
Core_0_ITLB_demand_miss 0
Core_0_ITLB_demand_MPKI 0
Core_0_ITLB_demand_miss_rate 0
Core_0_ITLB_load_access 10379134
Core_0_ITLB_load_hit 10379134
Core_0_ITLB_load_miss 0
Core_0_ITLB_load_MPKI 0
Core_0_ITLB_load_miss_rate 0
Core_0_ITLB_rfo_access 0
Core_0_ITLB_rfo_hit 0
Core_0_ITLB_rfo_miss 0
Core_0_ITLB_rfo_MPKI 0
Core_0_ITLB_rfo_miss_rate 0
Core_0_ITLB_prefetch_access 0
Core_0_ITLB_prefetch_hit 0
Core_0_ITLB_prefetch_miss 0
Core_0_ITLB_prefetch_MPKI 0
Core_0_ITLB_prefetch_miss_rate 0
Core_0_ITLB_writeback_access 0
Core_0_ITLB_writeback_hit 0
Core_0_ITLB_writeback_miss 0
Core_0_ITLB_writeback_MPKI 0
Core_0_ITLB_writeback_miss_rate 0
Core_0_ITLB_prefetch_requested 0
Core_0_ITLB_prefetch_issued 0
Core_0_ITLB_prefetch_useful 0
Core_0_ITLB_prefetch_useless 0
Core_0_ITLB_prefetch_late 0
Core_0_ITLB_prefetch_accuracy 0
Core_0_ITLB_prefetch_coverage 0

Core_0_DTLB_total_access 23826048
Core_0_DTLB_total_hit 23656409
Core_0_DTLB_total_miss 169639
Core_0_DTLB_total_MPKI 1.69639
Core_0_DTLB_total_miss_rate 0.0071199
Core_0_DTLB_demand_access 23826048
Core_0_DTLB_demand_hit 23656409
Core_0_DTLB_demand_miss 169639
Core_0_DTLB_demand_MPKI 1.69639
Core_0_DTLB_demand_miss_rate 0.0071199
Core_0_DTLB_load_access 23826048
Core_0_DTLB_load_hit 23656409
Core_0_DTLB_load_miss 169639
Core_0_DTLB_load_MPKI 1.69639
Core_0_DTLB_load_miss_rate 0.0071199
Core_0_DTLB_rfo_access 0
Core_0_DTLB_rfo_hit 0
Core_0_DTLB_rfo_miss 0
Core_0_DTLB_rfo_MPKI 0
Core_0_DTLB_rfo_miss_rate 0
Core_0_DTLB_prefetch_access 0
Core_0_DTLB_prefetch_hit 0
Core_0_DTLB_prefetch_miss 0
Core_0_DTLB_prefetch_MPKI 0
Core_0_DTLB_prefetch_miss_rate 0
Core_0_DTLB_writeback_access 0
Core_0_DTLB_writeback_hit 0
Core_0_DTLB_writeback_miss 0
Core_0_DTLB_writeback_MPKI 0
Core_0_DTLB_writeback_miss_rate 0
Core_0_DTLB_prefetch_requested 0
Core_0_DTLB_prefetch_issued 0
Core_0_DTLB_prefetch_useful 0
Core_0_DTLB_prefetch_useless 0
Core_0_DTLB_prefetch_late 0
Core_0_DTLB_prefetch_accuracy 0
Core_0_DTLB_prefetch_coverage 0

Core_0_STLB_total_access 45899
Core_0_STLB_total_hit 37701
Core_0_STLB_total_miss 8198
Core_0_STLB_total_MPKI 0.08198
Core_0_STLB_total_miss_rate 0.17861
Core_0_STLB_demand_access 45899
Core_0_STLB_demand_hit 37701
Core_0_STLB_demand_miss 8198
Core_0_STLB_demand_MPKI 0.08198
Core_0_STLB_demand_miss_rate 0.17861
Core_0_STLB_load_access 45899
Core_0_STLB_load_hit 37701
Core_0_STLB_load_miss 8198
Core_0_STLB_load_MPKI 0.08198
Core_0_STLB_load_miss_rate 0.17861
Core_0_STLB_rfo_access 0
Core_0_STLB_rfo_hit 0
Core_0_STLB_rfo_miss 0
Core_0_STLB_rfo_MPKI 0
Core_0_STLB_rfo_miss_rate 0
Core_0_STLB_prefetch_access 0
Core_0_STLB_prefetch_hit 0
Core_0_STLB_prefetch_miss 0
Core_0_STLB_prefetch_MPKI 0
Core_0_STLB_prefetch_miss_rate 0
Core_0_STLB_writeback_access 0
Core_0_STLB_writeback_hit 0
Core_0_STLB_writeback_miss 0
Core_0_STLB_writeback_MPKI 0
Core_0_STLB_writeback_miss_rate 0
Core_0_STLB_prefetch_requested 0
Core_0_STLB_prefetch_issued 0
Core_0_STLB_prefetch_useful 0
Core_0_STLB_prefetch_useless 0
Core_0_STLB_prefetch_late 0
Core_0_STLB_prefetch_accuracy 0
Core_0_STLB_prefetch_coverage 0

Core_0_L1I_total_access 10572434
Core_0_L1I_total_hit 10572433
Core_0_L1I_total_miss 1
Core_0_L1I_total_MPKI 1e-05
Core_0_L1I_total_miss_rate 9.45856e-08
Core_0_L1I_demand_access 10572434
Core_0_L1I_demand_hit 10572433
Core_0_L1I_demand_miss 1
Core_0_L1I_demand_MPKI 1e-05
Core_0_L1I_demand_miss_rate 9.45856e-08
Core_0_L1I_load_access 10572434
Core_0_L1I_load_hit 10572433
Core_0_L1I_load_miss 1
Core_0_L1I_load_MPKI 1e-05
Core_0_L1I_load_miss_rate 9.45856e-08
Core_0_L1I_rfo_access 0
Core_0_L1I_rfo_hit 0
Core_0_L1I_rfo_miss 0
Core_0_L1I_rfo_MPKI 0
Core_0_L1I_rfo_miss_rate 0
Core_0_L1I_prefetch_access 0
Core_0_L1I_prefetch_hit 0
Core_0_L1I_prefetch_miss 0
Core_0_L1I_prefetch_MPKI 0
Core_0_L1I_prefetch_miss_rate 0
Core_0_L1I_writeback_access 0
Core_0_L1I_writeback_hit 0
Core_0_L1I_writeback_miss 0
Core_0_L1I_writeback_MPKI 0
Core_0_L1I_writeback_miss_rate 0
Core_0_L1I_prefetch_requested 0
Core_0_L1I_prefetch_issued 0
Core_0_L1I_prefetch_useful 0
Core_0_L1I_prefetch_useless 0
Core_0_L1I_prefetch_late 0
Core_0_L1I_prefetch_accuracy 0
Core_0_L1I_prefetch_coverage 0

Core_0_L1D_total_access 27261527
Core_0_L1D_total_hit 18596978
Core_0_L1D_total_miss 8664549
Core_0_L1D_total_MPKI 86.6455
Core_0_L1D_total_miss_rate 0.317831
Core_0_L1D_demand_access 7181274
Core_0_L1D_demand_hit 4302704
Core_0_L1D_demand_miss 2878570
Core_0_L1D_demand_MPKI 28.7857
Core_0_L1D_demand_miss_rate 0.400844
Core_0_L1D_load_access 7181274
Core_0_L1D_load_hit 4302704
Core_0_L1D_load_miss 2878570
Core_0_L1D_load_MPKI 28.7857
Core_0_L1D_load_miss_rate 0.400844
Core_0_L1D_rfo_access 0
Core_0_L1D_rfo_hit 0
Core_0_L1D_rfo_miss 0
Core_0_L1D_rfo_MPKI 0
Core_0_L1D_rfo_miss_rate 0
Core_0_L1D_prefetch_access 0
Core_0_L1D_prefetch_hit 0
Core_0_L1D_prefetch_miss 0
Core_0_L1D_prefetch_MPKI 0
Core_0_L1D_prefetch_miss_rate 0
Core_0_L1D_writeback_access 20080253
Core_0_L1D_writeback_hit 14294274
Core_0_L1D_writeback_miss 5785979
Core_0_L1D_writeback_MPKI 57.8598
Core_0_L1D_writeback_miss_rate 0.288143
Core_0_L1D_prefetch_requested 0
Core_0_L1D_prefetch_issued 0
Core_0_L1D_prefetch_useful 0
Core_0_L1D_prefetch_useless 0
Core_0_L1D_prefetch_late 0
Core_0_L1D_prefetch_accuracy 0
Core_0_L1D_prefetch_coverage 0

Core_0_L2C_total_access 3593162
Core_0_L2C_total_hit 1575534
Core_0_L2C_total_miss 2017628
Core_0_L2C_total_MPKI 20.1763
Core_0_L2C_total_miss_rate 0.561519
Core_0_L2C_demand_access 2482202
Core_0_L2C_demand_hit 464867
Core_0_L2C_demand_miss 2017335
Core_0_L2C_demand_MPKI 20.1733
Core_0_L2C_demand_miss_rate 0.81272
Core_0_L2C_load_access 1375160
Core_0_L2C_load_hit 392458
Core_0_L2C_load_miss 982702
Core_0_L2C_load_MPKI 9.82702
Core_0_L2C_load_miss_rate 0.714609
Core_0_L2C_rfo_access 1107042
Core_0_L2C_rfo_hit 72409
Core_0_L2C_rfo_miss 1034633
Core_0_L2C_rfo_MPKI 10.3463
Core_0_L2C_rfo_miss_rate 0.934592
Core_0_L2C_prefetch_access 0
Core_0_L2C_prefetch_hit 0
Core_0_L2C_prefetch_miss 0
Core_0_L2C_prefetch_MPKI 0
Core_0_L2C_prefetch_miss_rate 0
Core_0_L2C_writeback_access 1110960
Core_0_L2C_writeback_hit 1110667
Core_0_L2C_writeback_miss 293
Core_0_L2C_writeback_MPKI 0.00293
Core_0_L2C_writeback_miss_rate 0.000263736
Core_0_L2C_prefetch_requested 0
Core_0_L2C_prefetch_issued 0
Core_0_L2C_prefetch_useful 0
Core_0_L2C_prefetch_useless 0
Core_0_L2C_prefetch_late 0
Core_0_L2C_prefetch_accuracy 0
Core_0_L2C_prefetch_coverage 0

Core_0_LLC_total_access 3056753
Core_0_LLC_total_hit 1320518
Core_0_LLC_total_miss 1736235
Core_0_LLC_total_MPKI 17.3623
Core_0_LLC_total_miss_rate 0.568
Core_0_LLC_demand_access 2017334
Core_0_LLC_demand_hit 774867
Core_0_LLC_demand_miss 1242467
Core_0_LLC_demand_MPKI 12.4247
Core_0_LLC_demand_miss_rate 0.615896
Core_0_LLC_load_access 982701
Core_0_LLC_load_hit 458487
Core_0_LLC_load_miss 524214
Core_0_LLC_load_MPKI 5.24214
Core_0_LLC_load_miss_rate 0.533442
Core_0_LLC_rfo_access 1034633
Core_0_LLC_rfo_hit 316380
Core_0_LLC_rfo_miss 718253
Core_0_LLC_rfo_MPKI 7.18253
Core_0_LLC_rfo_miss_rate 0.69421
Core_0_LLC_prefetch_access 0
Core_0_LLC_prefetch_hit 0
Core_0_LLC_prefetch_miss 0
Core_0_LLC_prefetch_MPKI 0
Core_0_LLC_prefetch_miss_rate 0
Core_0_LLC_writeback_access 1039419
Core_0_LLC_writeback_hit 545651
Core_0_LLC_writeback_miss 493768
Core_0_LLC_writeback_MPKI 4.93768
Core_0_LLC_writeback_miss_rate 0.475042
Core_0_LLC_prefetch_requested 0
Core_0_LLC_prefetch_issued 0
Core_0_LLC_prefetch_useful 0
Core_0_LLC_prefetch_useless 0
Core_0_LLC_prefetch_late 0
Core_0_LLC_prefetch_accuracy 0
Core_0_LLC_prefetch_coverage 0

[DRAM Statistics]
Channel_0_RQ_row_buffer_hit 64365
Channel_0_RQ_row_buffer_miss 1177423
Channel_0_WQ_row_buffer_hit 141398
Channel_0_WQ_row_buffer_miss 623300
Channel_0_WQ_full 12157
Channel_0_dbus_congested 6504314
DRAM_total_RQ_row_buffer_hit 64365
DRAM_total_RQ_row_buffer_miss 1177423
DRAM_total_WQ_row_buffer_hit 141398
DRAM_total_WQ_row_buffer_miss 623300
DRAM_total_WQ_full 12157
DRAM_total_dbus_congested 6504314
DRAM_avg_congested_cycle 7.6993

====== DRAM_RQ_TRAFFIC ========
DRAM_RQ_READ_TRAFFIC_BREAKDOWN:
data_demand_read.count = 1242466
data_demand_read.share = 99.91%

inst_demand_read.count = 1
inst_demand_read.share = 0.00%

cache_inst_prefetch.count = 0
cache_inst_prefetch.share = 0.00%

cache_data_prefetch.count = 0
cache_data_prefetch.share = 0.00%

stlb_data_demand.count = 1133
stlb_data_demand.share = 0.09%

stlb_inst_demand.count = 0
stlb_inst_demand.share = 0.00%

stlb_l1i_pref.count = 0
stlb_l1i_pref.share = 0.00%

stlb_l1d_pref.count = 0
stlb_l1d_pref.share = 0.00%

DRAM_RQ_READ_TRAFFIC_SUMMARY:
cache_demand.count = 1242467
cache_demand.share = 99.91%

cache_prefetch.count = 0
cache_prefetch.share = 0.00%

stlb_demand.count = 1133
stlb_demand.share = 0.09%

stlb_prefetch.count = 0
stlb_prefetch.share = 0.00%

DRAM_RQ_READ_TRAFFIC_DEBUG:
total_classified_read.count = 1243600
unclassified_read.count = 0
total_read_with_other.count = 1243600

classified_plus_unclassified_check.count = 1243600
dram_rq_read_total_observed.count = 1243600
dram_rq_read_total_observed.per_1K_instructions = 12.436

STLB_MISS_PTW_DRAM_TOUCH_BREAKDOWN:
stlb_miss_total.count = 8198

stlb_miss_touch_dram.count = 1126
stlb_miss_touch_dram.share = 13.74%

stlb_miss_no_dram_touch.count = 7072
stlb_miss_no_dram_touch.share = 86.26%

STLB_MISS_PTW_DRAM_TOUCH_DEBUG:
stlb_miss_touch_plus_no_touch.count = 8198
stlb_miss_total_check.count = 8198

======STLB miss causes ========
Core_0_STLB_miss_cause_breakdown
Core_0_STLB_cause_Demand_Data_miss 8198
Core_0_STLB_cause_Demand_Data_miss_rate 0.17861
Core_0_STLB_cause_Demand_Instruction_miss 0
Core_0_STLB_cause_Demand_Instruction_miss_rate 0
Core_0_STLB_cause_L1D_Prefetch_miss 0
Core_0_STLB_cause_L1D_Prefetch_miss_rate 0
Core_0_STLB_cause_L1I_Prefetch_miss 0
Core_0_STLB_cause_L1I_Prefetch_miss_rate 0
Core_0_STLB_cause_Other_miss 0
Core_0_STLB_cause_Other_miss_rate 0
Core_0_STLB_Demand_miss 8198
Core_0_STLB_Demand_miss_rate 0.17861
Core_0_STLB_L1D_Prefetch_miss 0
Core_0_STLB_L1D_Prefetch_miss_rate 0
Core_0_STLB_Other_miss 0
Core_0_STLB_Other_miss_rate 0
