[VMEM] WARNING: physical memory size is smaller than virtual memory size.

*** ChampSim Multicore Out-of-Order Simulator ***
Warmup Instructions: 50000000
Simulation Instructions: 100000000
Number of CPUs: 1
Page size: 4096
Core 0: /data0/tzh/champsim_traces/PARSEC/parsec_2.1.raytrace.simlarge.prebuilt.drop_36250M.length_250M.champsimtrace.xz
Off-chip DRAM Size: 16 GiB Channels: 1 Width: 64-bit Data Rate: 3205 MT/s
Warmup halting CPU 0 at instruction 50000003 cycle 11719605 for remainder of phase
Warmup finished CPU 0 instructions: 50000003 cycles: 11719605 cumulative IPC: 4.266 (Simulation time: 00 hr 02 min 09 sec)
Warmup complete CPU 0 instructions: 50000003 cycles: 11719605 cumulative IPC: 4.266 (Simulation time: 00 hr 02 min 09 sec)
Simulation finished CPU 0 instructions: 100000000 cycles: 33106914 cumulative IPC: 3.021 (Simulation time: 00 hr 07 min 46 sec)
Simulation complete CPU 0 instructions: 100000000 cycles: 33106914 cumulative IPC: 3.021 (Simulation time: 00 hr 07 min 46 sec)

ChampSim completed all CPUs

=== Simulation ===
CPU 0 runs /data0/tzh/champsim_traces/PARSEC/parsec_2.1.raytrace.simlarge.prebuilt.drop_36250M.length_250M.champsimtrace.xz

Region of Interest Statistics

CPU 0 cumulative IPC: 3.021 instructions: 100000000 cycles: 33106914
CPU 0 Branch Prediction Accuracy: 93.86% MPKI: 1.29 Average ROB Occupancy at Mispredict: 122.9
Branch type MPKI
BRANCH_DIRECT_JUMP: 0
BRANCH_INDIRECT: 0
BRANCH_CONDITIONAL: 1.29
BRANCH_DIRECT_CALL: 0
BRANCH_INDIRECT_CALL: 0
BRANCH_RETURN: 0

cpu0->cpu0_STLB TOTAL        ACCESS:       7318 HIT:       6947 MISS:        371 MSHR_MERGE:          0
cpu0->cpu0_STLB LOAD         ACCESS:       7318 HIT:       6947 MISS:        371 MSHR_MERGE:          0
cpu0->cpu0_STLB RFO          ACCESS:          0 HIT:          0 MISS:          0 MSHR_MERGE:          0
cpu0->cpu0_STLB PREFETCH     ACCESS:          0 HIT:          0 MISS:          0 MSHR_MERGE:          0
cpu0->cpu0_STLB WRITE        ACCESS:          0 HIT:          0 MISS:          0 MSHR_MERGE:          0
cpu0->cpu0_STLB TRANSLATION  ACCESS:          0 HIT:          0 MISS:          0 MSHR_MERGE:          0
cpu0->cpu0_STLB PREFETCH REQUESTED:          0 ISSUED:          0 USEFUL:          0 USELESS:          0 LATE:          0
cpu0->cpu0_STLB AVERAGE MISS LATENCY: 249.7 cycles
cpu0->cpu0_L2C TOTAL        ACCESS:      42979 HIT:      18922 MISS:      24057 MSHR_MERGE:          0
cpu0->cpu0_L2C LOAD         ACCESS:      32074 HIT:      12189 MISS:      19885 MSHR_MERGE:          0
cpu0->cpu0_L2C RFO          ACCESS:       5249 HIT:       1336 MISS:       3913 MSHR_MERGE:          0
cpu0->cpu0_L2C PREFETCH     ACCESS:          0 HIT:          0 MISS:          0 MSHR_MERGE:          0
cpu0->cpu0_L2C WRITE        ACCESS:       5401 HIT:       5361 MISS:         40 MSHR_MERGE:          0
cpu0->cpu0_L2C TRANSLATION  ACCESS:        255 HIT:         36 MISS:        219 MSHR_MERGE:          0
cpu0->cpu0_L2C PREFETCH REQUESTED:          0 ISSUED:          0 USEFUL:          0 USELESS:          0 LATE:          0
cpu0->cpu0_L2C AVERAGE MISS LATENCY: 143.2 cycles
cpu0->cpu0_L1I TOTAL        ACCESS:   15811716 HIT:   15807601 MISS:       4115 MSHR_MERGE:       1836
cpu0->cpu0_L1I LOAD         ACCESS:   15811716 HIT:   15807601 MISS:       4115 MSHR_MERGE:       1836
cpu0->cpu0_L1I RFO          ACCESS:          0 HIT:          0 MISS:          0 MSHR_MERGE:          0
cpu0->cpu0_L1I PREFETCH     ACCESS:          0 HIT:          0 MISS:          0 MSHR_MERGE:          0
cpu0->cpu0_L1I WRITE        ACCESS:          0 HIT:          0 MISS:          0 MSHR_MERGE:          0
cpu0->cpu0_L1I TRANSLATION  ACCESS:          0 HIT:          0 MISS:          0 MSHR_MERGE:          0
cpu0->cpu0_L1I PREFETCH REQUESTED:          0 ISSUED:          0 USEFUL:          0 USELESS:          0 LATE:          0
cpu0->cpu0_L1I AVERAGE MISS LATENCY: 14.57 cycles
cpu0->cpu0_L1D TOTAL        ACCESS:   25842085 HIT:   25743409 MISS:      98676 MSHR_MERGE:      63377
cpu0->cpu0_L1D LOAD         ACCESS:    8040912 HIT:    7978794 MISS:      62118 MSHR_MERGE:      32323
cpu0->cpu0_L1D RFO          ACCESS:          0 HIT:          0 MISS:          0 MSHR_MERGE:          0
cpu0->cpu0_L1D PREFETCH     ACCESS:          0 HIT:          0 MISS:          0 MSHR_MERGE:          0
cpu0->cpu0_L1D WRITE        ACCESS:   17800434 HIT:   17764135 MISS:      36299 MSHR_MERGE:      31050
cpu0->cpu0_L1D TRANSLATION  ACCESS:        739 HIT:        480 MISS:        259 MSHR_MERGE:          4
cpu0->cpu0_L1D PREFETCH REQUESTED:          0 ISSUED:          0 USEFUL:          0 USELESS:          0 LATE:          0
cpu0->cpu0_L1D AVERAGE MISS LATENCY: 105.8 cycles
cpu0->cpu0_ITLB TOTAL        ACCESS:   11194219 HIT:   11194219 MISS:          0 MSHR_MERGE:          0
cpu0->cpu0_ITLB LOAD         ACCESS:   11194219 HIT:   11194219 MISS:          0 MSHR_MERGE:          0
cpu0->cpu0_ITLB RFO          ACCESS:          0 HIT:          0 MISS:          0 MSHR_MERGE:          0
cpu0->cpu0_ITLB PREFETCH     ACCESS:          0 HIT:          0 MISS:          0 MSHR_MERGE:          0
cpu0->cpu0_ITLB WRITE        ACCESS:          0 HIT:          0 MISS:          0 MSHR_MERGE:          0
cpu0->cpu0_ITLB TRANSLATION  ACCESS:          0 HIT:          0 MISS:          0 MSHR_MERGE:          0
cpu0->cpu0_ITLB PREFETCH REQUESTED:          0 ISSUED:          0 USEFUL:          0 USELESS:          0 LATE:          0
cpu0->cpu0_ITLB AVERAGE MISS LATENCY: - cycles
cpu0->cpu0_DTLB TOTAL        ACCESS:   22865812 HIT:   22850479 MISS:      15333 MSHR_MERGE:       8015
cpu0->cpu0_DTLB LOAD         ACCESS:   22865812 HIT:   22850479 MISS:      15333 MSHR_MERGE:       8015
cpu0->cpu0_DTLB RFO          ACCESS:          0 HIT:          0 MISS:          0 MSHR_MERGE:          0
cpu0->cpu0_DTLB PREFETCH     ACCESS:          0 HIT:          0 MISS:          0 MSHR_MERGE:          0
cpu0->cpu0_DTLB WRITE        ACCESS:          0 HIT:          0 MISS:          0 MSHR_MERGE:          0
cpu0->cpu0_DTLB TRANSLATION  ACCESS:          0 HIT:          0 MISS:          0 MSHR_MERGE:          0
cpu0->cpu0_DTLB PREFETCH REQUESTED:          0 ISSUED:          0 USEFUL:          0 USELESS:          0 LATE:          0
cpu0->cpu0_DTLB AVERAGE MISS LATENCY: 17.71 cycles
cpu0->LLC TOTAL        ACCESS:      28250 HIT:       9252 MISS:      18998 MSHR_MERGE:          0
cpu0->LLC LOAD         ACCESS:      19885 HIT:       4907 MISS:      14978 MSHR_MERGE:          0
cpu0->LLC RFO          ACCESS:       3913 HIT:          1 MISS:       3912 MSHR_MERGE:          0
cpu0->LLC PREFETCH     ACCESS:          0 HIT:          0 MISS:          0 MSHR_MERGE:          0
cpu0->LLC WRITE        ACCESS:       4233 HIT:       4172 MISS:         61 MSHR_MERGE:          0
cpu0->LLC TRANSLATION  ACCESS:        219 HIT:        172 MISS:         47 MSHR_MERGE:          0
cpu0->LLC PREFETCH REQUESTED:          0 ISSUED:          0 USEFUL:          0 USELESS:          0 LATE:          0
cpu0->LLC AVERAGE MISS LATENCY: 161.4 cycles

DRAM Statistics

Channel 0 RQ ROW_BUFFER_HIT:         44
  ROW_BUFFER_MISS:      18893
  AVG DBUS CONGESTED CYCLE: 5.101
Channel 0 WQ ROW_BUFFER_HIT:          5
  ROW_BUFFER_MISS:         47
  FULL:          0
Channel 0 REFRESHES ISSUED:       2759

[ROI Statistics]
[System Configuration]
num_cpus 1
cpu_freq 4000
fetch_width 6
decode_width 6
dispatch_width 6
execute_width 6
lq_width 2
sq_width 2
retire_width 6
scheduler_size 128
branch_mispredict_penalty 15
rob_size 352
lq_size 128
sq_size 72
ifetch_buffer_size 64
decode_buffer_size 32
dispatch_buffer_size 32
register_file_size 288
decode_latency 1
dispatch_latency 1
schedule_latency 1
execute_latency 1
page_size 4096
block_size 64
core_0_itlb_set 16
core_0_itlb_way 4
core_0_itlb_rq_size 16
core_0_itlb_wq_size 16
core_0_itlb_pq_size 0
core_0_itlb_mshr_size 8
core_0_itlb_hit_latency 1
core_0_itlb_fill_latency 1
core_0_itlb_max_tag_check 2
core_0_itlb_max_fill 2
core_0_dtlb_set 16
core_0_dtlb_way 4
core_0_dtlb_rq_size 16
core_0_dtlb_wq_size 16
core_0_dtlb_pq_size 0
core_0_dtlb_mshr_size 8
core_0_dtlb_hit_latency 1
core_0_dtlb_fill_latency 1
core_0_dtlb_max_tag_check 2
core_0_dtlb_max_fill 2
core_0_stlb_set 128
core_0_stlb_way 12
core_0_stlb_rq_size 32
core_0_stlb_wq_size 32
core_0_stlb_pq_size 0
core_0_stlb_mshr_size 16
core_0_stlb_hit_latency 4
core_0_stlb_fill_latency 4
core_0_stlb_max_tag_check 1
core_0_stlb_max_fill 1
core_0_l1i_set 64
core_0_l1i_way 8
core_0_l1i_rq_size 64
core_0_l1i_wq_size 64
core_0_l1i_pq_size 32
core_0_l1i_mshr_size 8
core_0_l1i_hit_latency 2
core_0_l1i_fill_latency 2
core_0_l1i_max_tag_check 2
core_0_l1i_max_fill 2
core_0_l1d_set 64
core_0_l1d_way 12
core_0_l1d_rq_size 64
core_0_l1d_wq_size 64
core_0_l1d_pq_size 8
core_0_l1d_mshr_size 16
core_0_l1d_hit_latency 2
core_0_l1d_fill_latency 3
core_0_l1d_max_tag_check 2
core_0_l1d_max_fill 2
core_0_l2c_set 1024
core_0_l2c_way 8
core_0_l2c_rq_size 32
core_0_l2c_wq_size 32
core_0_l2c_pq_size 16
core_0_l2c_mshr_size 32
core_0_l2c_hit_latency 5
core_0_l2c_fill_latency 5
core_0_l2c_max_tag_check 1
core_0_l2c_max_fill 1
llc_set 2048
llc_way 16
llc_rq_size 32
llc_wq_size 32
llc_pq_size 32
llc_mshr_size 64
llc_hit_latency 10
llc_fill_latency 10
llc_max_tag_check 1
llc_max_fill 1
dram_channels 1
dram_ranks 1
dram_bankgroups 8
dram_banks 4
dram_rows 65536
dram_columns 1024
dram_channel_width 8
dram_rq_size 64
dram_wq_size 64
dram_size 17179869184
core_0_itlb_prefetcher no
core_0_dtlb_prefetcher no
core_0_stlb_prefetcher no
core_0_l1i_prefetcher no
core_0_l1d_prefetcher no
core_0_l2c_prefetcher no
llc_prefetcher no
llc_replacement drrip

Core_0_instructions 100000000
Core_0_cycles 33106914
Core_0_IPC 3.02052
Core_0_branch_prediction_accuracy 93.8559
Core_0_branch_MPKI 1.29007
Core_0_average_ROB_occupancy_at_mispredict 122.895

Core_0_ITLB_total_access 11194219
Core_0_ITLB_total_hit 11194219
Core_0_ITLB_total_miss 0
Core_0_ITLB_total_MPKI 0
Core_0_ITLB_total_miss_rate 0
Core_0_ITLB_demand_access 11194219
Core_0_ITLB_demand_hit 11194219
Core_0_ITLB_demand_miss 0
Core_0_ITLB_demand_MPKI 0
Core_0_ITLB_demand_miss_rate 0
Core_0_ITLB_load_access 11194219
Core_0_ITLB_load_hit 11194219
Core_0_ITLB_load_miss 0
Core_0_ITLB_load_MPKI 0
Core_0_ITLB_load_miss_rate 0
Core_0_ITLB_rfo_access 0
Core_0_ITLB_rfo_hit 0
Core_0_ITLB_rfo_miss 0
Core_0_ITLB_rfo_MPKI 0
Core_0_ITLB_rfo_miss_rate 0
Core_0_ITLB_prefetch_access 0
Core_0_ITLB_prefetch_hit 0
Core_0_ITLB_prefetch_miss 0
Core_0_ITLB_prefetch_MPKI 0
Core_0_ITLB_prefetch_miss_rate 0
Core_0_ITLB_writeback_access 0
Core_0_ITLB_writeback_hit 0
Core_0_ITLB_writeback_miss 0
Core_0_ITLB_writeback_MPKI 0
Core_0_ITLB_writeback_miss_rate 0
Core_0_ITLB_prefetch_requested 0
Core_0_ITLB_prefetch_issued 0
Core_0_ITLB_prefetch_useful 0
Core_0_ITLB_prefetch_useless 0
Core_0_ITLB_prefetch_late 0
Core_0_ITLB_prefetch_accuracy 0
Core_0_ITLB_prefetch_coverage 0

Core_0_DTLB_total_access 22865812
Core_0_DTLB_total_hit 22850479
Core_0_DTLB_total_miss 15333
Core_0_DTLB_total_MPKI 0.15333
Core_0_DTLB_total_miss_rate 0.000670564
Core_0_DTLB_demand_access 22865812
Core_0_DTLB_demand_hit 22850479
Core_0_DTLB_demand_miss 15333
Core_0_DTLB_demand_MPKI 0.15333
Core_0_DTLB_demand_miss_rate 0.000670564
Core_0_DTLB_load_access 22865812
Core_0_DTLB_load_hit 22850479
Core_0_DTLB_load_miss 15333
Core_0_DTLB_load_MPKI 0.15333
Core_0_DTLB_load_miss_rate 0.000670564
Core_0_DTLB_rfo_access 0
Core_0_DTLB_rfo_hit 0
Core_0_DTLB_rfo_miss 0
Core_0_DTLB_rfo_MPKI 0
Core_0_DTLB_rfo_miss_rate 0
Core_0_DTLB_prefetch_access 0
Core_0_DTLB_prefetch_hit 0
Core_0_DTLB_prefetch_miss 0
Core_0_DTLB_prefetch_MPKI 0
Core_0_DTLB_prefetch_miss_rate 0
Core_0_DTLB_writeback_access 0
Core_0_DTLB_writeback_hit 0
Core_0_DTLB_writeback_miss 0
Core_0_DTLB_writeback_MPKI 0
Core_0_DTLB_writeback_miss_rate 0
Core_0_DTLB_prefetch_requested 0
Core_0_DTLB_prefetch_issued 0
Core_0_DTLB_prefetch_useful 0
Core_0_DTLB_prefetch_useless 0
Core_0_DTLB_prefetch_late 0
Core_0_DTLB_prefetch_accuracy 0
Core_0_DTLB_prefetch_coverage 0

Core_0_STLB_total_access 7318
Core_0_STLB_total_hit 6947
Core_0_STLB_total_miss 371
Core_0_STLB_total_MPKI 0.00371
Core_0_STLB_total_miss_rate 0.0506969
Core_0_STLB_demand_access 7318
Core_0_STLB_demand_hit 6947
Core_0_STLB_demand_miss 371
Core_0_STLB_demand_MPKI 0.00371
Core_0_STLB_demand_miss_rate 0.0506969
Core_0_STLB_load_access 7318
Core_0_STLB_load_hit 6947
Core_0_STLB_load_miss 371
Core_0_STLB_load_MPKI 0.00371
Core_0_STLB_load_miss_rate 0.0506969
Core_0_STLB_rfo_access 0
Core_0_STLB_rfo_hit 0
Core_0_STLB_rfo_miss 0
Core_0_STLB_rfo_MPKI 0
Core_0_STLB_rfo_miss_rate 0
Core_0_STLB_prefetch_access 0
Core_0_STLB_prefetch_hit 0
Core_0_STLB_prefetch_miss 0
Core_0_STLB_prefetch_MPKI 0
Core_0_STLB_prefetch_miss_rate 0
Core_0_STLB_writeback_access 0
Core_0_STLB_writeback_hit 0
Core_0_STLB_writeback_miss 0
Core_0_STLB_writeback_MPKI 0
Core_0_STLB_writeback_miss_rate 0
Core_0_STLB_prefetch_requested 0
Core_0_STLB_prefetch_issued 0
Core_0_STLB_prefetch_useful 0
Core_0_STLB_prefetch_useless 0
Core_0_STLB_prefetch_late 0
Core_0_STLB_prefetch_accuracy 0
Core_0_STLB_prefetch_coverage 0

Core_0_L1I_total_access 15811716
Core_0_L1I_total_hit 15807601
Core_0_L1I_total_miss 4115
Core_0_L1I_total_MPKI 0.04115
Core_0_L1I_total_miss_rate 0.00026025
Core_0_L1I_demand_access 15811716
Core_0_L1I_demand_hit 15807601
Core_0_L1I_demand_miss 4115
Core_0_L1I_demand_MPKI 0.04115
Core_0_L1I_demand_miss_rate 0.00026025
Core_0_L1I_load_access 15811716
Core_0_L1I_load_hit 15807601
Core_0_L1I_load_miss 4115
Core_0_L1I_load_MPKI 0.04115
Core_0_L1I_load_miss_rate 0.00026025
Core_0_L1I_rfo_access 0
Core_0_L1I_rfo_hit 0
Core_0_L1I_rfo_miss 0
Core_0_L1I_rfo_MPKI 0
Core_0_L1I_rfo_miss_rate 0
Core_0_L1I_prefetch_access 0
Core_0_L1I_prefetch_hit 0
Core_0_L1I_prefetch_miss 0
Core_0_L1I_prefetch_MPKI 0
Core_0_L1I_prefetch_miss_rate 0
Core_0_L1I_writeback_access 0
Core_0_L1I_writeback_hit 0
Core_0_L1I_writeback_miss 0
Core_0_L1I_writeback_MPKI 0
Core_0_L1I_writeback_miss_rate 0
Core_0_L1I_prefetch_requested 0
Core_0_L1I_prefetch_issued 0
Core_0_L1I_prefetch_useful 0
Core_0_L1I_prefetch_useless 0
Core_0_L1I_prefetch_late 0
Core_0_L1I_prefetch_accuracy 0
Core_0_L1I_prefetch_coverage 0

Core_0_L1D_total_access 25841346
Core_0_L1D_total_hit 25742929
Core_0_L1D_total_miss 98417
Core_0_L1D_total_MPKI 0.98417
Core_0_L1D_total_miss_rate 0.00380851
Core_0_L1D_demand_access 8040912
Core_0_L1D_demand_hit 7978794
Core_0_L1D_demand_miss 62118
Core_0_L1D_demand_MPKI 0.62118
Core_0_L1D_demand_miss_rate 0.00772524
Core_0_L1D_load_access 8040912
Core_0_L1D_load_hit 7978794
Core_0_L1D_load_miss 62118
Core_0_L1D_load_MPKI 0.62118
Core_0_L1D_load_miss_rate 0.00772524
Core_0_L1D_rfo_access 0
Core_0_L1D_rfo_hit 0
Core_0_L1D_rfo_miss 0
Core_0_L1D_rfo_MPKI 0
Core_0_L1D_rfo_miss_rate 0
Core_0_L1D_prefetch_access 0
Core_0_L1D_prefetch_hit 0
Core_0_L1D_prefetch_miss 0
Core_0_L1D_prefetch_MPKI 0
Core_0_L1D_prefetch_miss_rate 0
Core_0_L1D_writeback_access 17800434
Core_0_L1D_writeback_hit 17764135
Core_0_L1D_writeback_miss 36299
Core_0_L1D_writeback_MPKI 0.36299
Core_0_L1D_writeback_miss_rate 0.00203922
Core_0_L1D_prefetch_requested 0
Core_0_L1D_prefetch_issued 0
Core_0_L1D_prefetch_useful 0
Core_0_L1D_prefetch_useless 0
Core_0_L1D_prefetch_late 0
Core_0_L1D_prefetch_accuracy 0
Core_0_L1D_prefetch_coverage 0

Core_0_L2C_total_access 42724
Core_0_L2C_total_hit 18886
Core_0_L2C_total_miss 23838
Core_0_L2C_total_MPKI 0.23838
Core_0_L2C_total_miss_rate 0.557953
Core_0_L2C_demand_access 37323
Core_0_L2C_demand_hit 13525
Core_0_L2C_demand_miss 23798
Core_0_L2C_demand_MPKI 0.23798
Core_0_L2C_demand_miss_rate 0.637623
Core_0_L2C_load_access 32074
Core_0_L2C_load_hit 12189
Core_0_L2C_load_miss 19885
Core_0_L2C_load_MPKI 0.19885
Core_0_L2C_load_miss_rate 0.619973
Core_0_L2C_rfo_access 5249
Core_0_L2C_rfo_hit 1336
Core_0_L2C_rfo_miss 3913
Core_0_L2C_rfo_MPKI 0.03913
Core_0_L2C_rfo_miss_rate 0.745475
Core_0_L2C_prefetch_access 0
Core_0_L2C_prefetch_hit 0
Core_0_L2C_prefetch_miss 0
Core_0_L2C_prefetch_MPKI 0
Core_0_L2C_prefetch_miss_rate 0
Core_0_L2C_writeback_access 5401
Core_0_L2C_writeback_hit 5361
Core_0_L2C_writeback_miss 40
Core_0_L2C_writeback_MPKI 0.0004
Core_0_L2C_writeback_miss_rate 0.00740604
Core_0_L2C_prefetch_requested 0
Core_0_L2C_prefetch_issued 0
Core_0_L2C_prefetch_useful 0
Core_0_L2C_prefetch_useless 0
Core_0_L2C_prefetch_late 0
Core_0_L2C_prefetch_accuracy 0
Core_0_L2C_prefetch_coverage 0

Core_0_LLC_total_access 28031
Core_0_LLC_total_hit 9080
Core_0_LLC_total_miss 18951
Core_0_LLC_total_MPKI 0.18951
Core_0_LLC_total_miss_rate 0.676073
Core_0_LLC_demand_access 23798
Core_0_LLC_demand_hit 4908
Core_0_LLC_demand_miss 18890
Core_0_LLC_demand_MPKI 0.1889
Core_0_LLC_demand_miss_rate 0.793764
Core_0_LLC_load_access 19885
Core_0_LLC_load_hit 4907
Core_0_LLC_load_miss 14978
Core_0_LLC_load_MPKI 0.14978
Core_0_LLC_load_miss_rate 0.753231
Core_0_LLC_rfo_access 3913
Core_0_LLC_rfo_hit 1
Core_0_LLC_rfo_miss 3912
Core_0_LLC_rfo_MPKI 0.03912
Core_0_LLC_rfo_miss_rate 0.999744
Core_0_LLC_prefetch_access 0
Core_0_LLC_prefetch_hit 0
Core_0_LLC_prefetch_miss 0
Core_0_LLC_prefetch_MPKI 0
Core_0_LLC_prefetch_miss_rate 0
Core_0_LLC_writeback_access 4233
Core_0_LLC_writeback_hit 4172
Core_0_LLC_writeback_miss 61
Core_0_LLC_writeback_MPKI 0.00061
Core_0_LLC_writeback_miss_rate 0.0144106
Core_0_LLC_prefetch_requested 0
Core_0_LLC_prefetch_issued 0
Core_0_LLC_prefetch_useful 0
Core_0_LLC_prefetch_useless 0
Core_0_LLC_prefetch_late 0
Core_0_LLC_prefetch_accuracy 0
Core_0_LLC_prefetch_coverage 0

[DRAM Statistics]
Channel_0_RQ_row_buffer_hit 44
Channel_0_RQ_row_buffer_miss 18893
Channel_0_WQ_row_buffer_hit 5
Channel_0_WQ_row_buffer_miss 47
Channel_0_WQ_full 0
Channel_0_dbus_congested 1721
DRAM_total_RQ_row_buffer_hit 44
DRAM_total_RQ_row_buffer_miss 18893
DRAM_total_WQ_row_buffer_hit 5
DRAM_total_WQ_row_buffer_miss 47
DRAM_total_WQ_full 0
DRAM_total_dbus_congested 1721
DRAM_avg_congested_cycle 5.10052

====== DRAM_RQ_TRAFFIC ========
DRAM_RQ_READ_TRAFFIC_BREAKDOWN:
data_demand_read.count = 18889
data_demand_read.share = 99.75%

inst_demand_read.count = 1
inst_demand_read.share = 0.01%

cache_inst_prefetch.count = 0
cache_inst_prefetch.share = 0.00%

cache_data_prefetch.count = 0
cache_data_prefetch.share = 0.00%

stlb_data_demand.count = 47
stlb_data_demand.share = 0.25%

stlb_inst_demand.count = 0
stlb_inst_demand.share = 0.00%

stlb_l1i_pref.count = 0
stlb_l1i_pref.share = 0.00%

stlb_l1d_pref.count = 0
stlb_l1d_pref.share = 0.00%

DRAM_RQ_READ_TRAFFIC_SUMMARY:
cache_demand.count = 18890
cache_demand.share = 99.75%

cache_prefetch.count = 0
cache_prefetch.share = 0.00%

stlb_demand.count = 47
stlb_demand.share = 0.25%

stlb_prefetch.count = 0
stlb_prefetch.share = 0.00%

DRAM_RQ_READ_TRAFFIC_DEBUG:
total_classified_read.count = 18937
unclassified_read.count = 0
total_read_with_other.count = 18937

classified_plus_unclassified_check.count = 18937
dram_rq_read_total_observed.count = 18937
dram_rq_read_total_observed.per_1K_instructions = 0.18937

STLB_MISS_PTW_DRAM_TOUCH_BREAKDOWN:
stlb_miss_total.count = 371

stlb_miss_touch_dram.count = 47
stlb_miss_touch_dram.share = 12.67%

stlb_miss_no_dram_touch.count = 324
stlb_miss_no_dram_touch.share = 87.33%

STLB_MISS_PTW_DRAM_TOUCH_DEBUG:
stlb_miss_touch_plus_no_touch.count = 371
stlb_miss_total_check.count = 371

======STLB miss causes ========
Core_0_STLB_miss_cause_breakdown
Core_0_STLB_cause_Demand_Data_miss 371
Core_0_STLB_cause_Demand_Data_miss_rate 0.0506969
Core_0_STLB_cause_Demand_Instruction_miss 0
Core_0_STLB_cause_Demand_Instruction_miss_rate 0
Core_0_STLB_cause_L1D_Prefetch_miss 0
Core_0_STLB_cause_L1D_Prefetch_miss_rate 0
Core_0_STLB_cause_L1I_Prefetch_miss 0
Core_0_STLB_cause_L1I_Prefetch_miss_rate 0
Core_0_STLB_cause_Other_miss 0
Core_0_STLB_cause_Other_miss_rate 0
Core_0_STLB_Demand_miss 371
Core_0_STLB_Demand_miss_rate 0.0506969
Core_0_STLB_L1D_Prefetch_miss 0
Core_0_STLB_L1D_Prefetch_miss_rate 0
Core_0_STLB_Other_miss 0
Core_0_STLB_Other_miss_rate 0
