[VMEM] WARNING: physical memory size is smaller than virtual memory size.

*** ChampSim Multicore Out-of-Order Simulator ***
Warmup Instructions: 50000000
Simulation Instructions: 100000000
Number of CPUs: 1
Page size: 4096
Core 0: /data0/tzh/champsim_traces/QMM/srv_0_new.xz
Off-chip DRAM Size: 16 GiB Channels: 1 Width: 64-bit Data Rate: 3205 MT/s
[BTB] WARNING: target of return is a lower address than the corresponding call. This is usually a problem with your trace.
[BTB] WARNING: target of return is a lower address than the corresponding call. This is usually a problem with your trace.
[BTB] WARNING: target of return is a lower address than the corresponding call. This is usually a problem with your trace.
[BTB] WARNING: target of return is a lower address than the corresponding call. This is usually a problem with your trace.
[BTB] WARNING: target of return is a lower address than the corresponding call. This is usually a problem with your trace.
[BTB] WARNING: target of return is a lower address than the corresponding call. This is usually a problem with your trace.
[BTB] WARNING: target of return is a lower address than the corresponding call. This is usually a problem with your trace.
[BTB] WARNING: target of return is a lower address than the corresponding call. This is usually a problem with your trace.
[BTB] WARNING: target of return is a lower address than the corresponding call. This is usually a problem with your trace.
[BTB] WARNING: target of return is a lower address than the corresponding call. This is usually a problem with your trace.
*** Reached end of trace: (0, "/data0/tzh/champsim_traces/QMM/srv_0_new.xz")
Warmup halting CPU 0 at instruction 50000002 cycle 10806669 for remainder of phase
Warmup finished CPU 0 instructions: 50000002 cycles: 10806669 cumulative IPC: 4.627 (Simulation time: 00 hr 02 min 29 sec)
Warmup complete CPU 0 instructions: 50000002 cycles: 10806669 cumulative IPC: 4.627 (Simulation time: 00 hr 02 min 29 sec)
*** Reached end of trace: (0, "/data0/tzh/champsim_traces/QMM/srv_0_new.xz")
*** Reached end of trace: (0, "/data0/tzh/champsim_traces/QMM/srv_0_new.xz")
*** Reached end of trace: (0, "/data0/tzh/champsim_traces/QMM/srv_0_new.xz")
Simulation finished CPU 0 instructions: 100000005 cycles: 61881023 cumulative IPC: 1.616 (Simulation time: 00 hr 11 min 10 sec)
Simulation complete CPU 0 instructions: 100000005 cycles: 61881023 cumulative IPC: 1.616 (Simulation time: 00 hr 11 min 10 sec)

ChampSim completed all CPUs

=== Simulation ===
CPU 0 runs /data0/tzh/champsim_traces/QMM/srv_0_new.xz

Region of Interest Statistics

CPU 0 cumulative IPC: 1.616 instructions: 100000005 cycles: 61881023
CPU 0 Branch Prediction Accuracy: 97.36% MPKI: 4.774 Average ROB Occupancy at Mispredict: 95.65
Branch type MPKI
BRANCH_DIRECT_JUMP: 0.4304
BRANCH_INDIRECT: 0.3047
BRANCH_CONDITIONAL: 2.487
BRANCH_DIRECT_CALL: 0.7769
BRANCH_INDIRECT_CALL: 0.1743
BRANCH_RETURN: 0.6011

cpu0->cpu0_STLB TOTAL        ACCESS:    1636220 HIT:    1408030 MISS:     228190 MSHR_MERGE:          0
cpu0->cpu0_STLB LOAD         ACCESS:    1636220 HIT:    1408030 MISS:     228190 MSHR_MERGE:          0
cpu0->cpu0_STLB RFO          ACCESS:          0 HIT:          0 MISS:          0 MSHR_MERGE:          0
cpu0->cpu0_STLB PREFETCH     ACCESS:          0 HIT:          0 MISS:          0 MSHR_MERGE:          0
cpu0->cpu0_STLB WRITE        ACCESS:          0 HIT:          0 MISS:          0 MSHR_MERGE:          0
cpu0->cpu0_STLB TRANSLATION  ACCESS:          0 HIT:          0 MISS:          0 MSHR_MERGE:          0
cpu0->cpu0_STLB PREFETCH REQUESTED:          0 ISSUED:          0 USEFUL:          0 USELESS:          0 LATE:          0
cpu0->cpu0_STLB AVERAGE MISS LATENCY: 29.76 cycles
cpu0->cpu0_L2C TOTAL        ACCESS:    4588756 HIT:    2518715 MISS:    2070041 MSHR_MERGE:          0
cpu0->cpu0_L2C LOAD         ACCESS:    3702848 HIT:    1860909 MISS:    1841939 MSHR_MERGE:          0
cpu0->cpu0_L2C RFO          ACCESS:     175352 HIT:      72706 MISS:     102646 MSHR_MERGE:          0
cpu0->cpu0_L2C PREFETCH     ACCESS:          0 HIT:          0 MISS:          0 MSHR_MERGE:          0
cpu0->cpu0_L2C WRITE        ACCESS:     517722 HIT:     514260 MISS:       3462 MSHR_MERGE:          0
cpu0->cpu0_L2C TRANSLATION  ACCESS:     192834 HIT:      70840 MISS:     121994 MSHR_MERGE:          0
cpu0->cpu0_L2C PREFETCH REQUESTED:          0 ISSUED:          0 USEFUL:          0 USELESS:          0 LATE:          0
cpu0->cpu0_L2C AVERAGE MISS LATENCY: 26.72 cycles
cpu0->cpu0_L1I TOTAL        ACCESS:   15318876 HIT:   11213246 MISS:    4105630 MSHR_MERGE:    1520674
cpu0->cpu0_L1I LOAD         ACCESS:   15318876 HIT:   11213246 MISS:    4105630 MSHR_MERGE:    1520674
cpu0->cpu0_L1I RFO          ACCESS:          0 HIT:          0 MISS:          0 MSHR_MERGE:          0
cpu0->cpu0_L1I PREFETCH     ACCESS:          0 HIT:          0 MISS:          0 MSHR_MERGE:          0
cpu0->cpu0_L1I WRITE        ACCESS:          0 HIT:          0 MISS:          0 MSHR_MERGE:          0
cpu0->cpu0_L1I TRANSLATION  ACCESS:          0 HIT:          0 MISS:          0 MSHR_MERGE:          0
cpu0->cpu0_L1I PREFETCH REQUESTED:          0 ISSUED:          0 USEFUL:          0 USELESS:          0 LATE:          0
cpu0->cpu0_L1I AVERAGE MISS LATENCY: 15.22 cycles
cpu0->cpu0_L1D TOTAL        ACCESS:   23672948 HIT:   21487070 MISS:    2185878 MSHR_MERGE:     699781
cpu0->cpu0_L1D LOAD         ACCESS:   13263240 HIT:   11753809 MISS:    1509431 MSHR_MERGE:     391525
cpu0->cpu0_L1D RFO          ACCESS:          0 HIT:          0 MISS:          0 MSHR_MERGE:          0
cpu0->cpu0_L1D PREFETCH     ACCESS:          0 HIT:          0 MISS:          0 MSHR_MERGE:          0
cpu0->cpu0_L1D WRITE        ACCESS:    9903463 HIT:    9423376 MISS:     480087 MSHR_MERGE:     304730
cpu0->cpu0_L1D TRANSLATION  ACCESS:     506245 HIT:     309885 MISS:     196360 MSHR_MERGE:       3526
cpu0->cpu0_L1D PREFETCH REQUESTED:          0 ISSUED:          0 USEFUL:          0 USELESS:          0 LATE:          0
cpu0->cpu0_L1D AVERAGE MISS LATENCY: 32.91 cycles
cpu0->cpu0_ITLB TOTAL        ACCESS:   12981238 HIT:   11977191 MISS:    1004047 MSHR_MERGE:     621163
cpu0->cpu0_ITLB LOAD         ACCESS:   12981238 HIT:   11977191 MISS:    1004047 MSHR_MERGE:     621163
cpu0->cpu0_ITLB RFO          ACCESS:          0 HIT:          0 MISS:          0 MSHR_MERGE:          0
cpu0->cpu0_ITLB PREFETCH     ACCESS:          0 HIT:          0 MISS:          0 MSHR_MERGE:          0
cpu0->cpu0_ITLB WRITE        ACCESS:          0 HIT:          0 MISS:          0 MSHR_MERGE:          0
cpu0->cpu0_ITLB TRANSLATION  ACCESS:          0 HIT:          0 MISS:          0 MSHR_MERGE:          0
cpu0->cpu0_ITLB PREFETCH REQUESTED:          0 ISSUED:          0 USEFUL:          0 USELESS:          0 LATE:          0
cpu0->cpu0_ITLB AVERAGE MISS LATENCY: 10.86 cycles
cpu0->cpu0_DTLB TOTAL        ACCESS:   21849200 HIT:   20151308 MISS:    1697892 MSHR_MERGE:     444554
cpu0->cpu0_DTLB LOAD         ACCESS:   21849200 HIT:   20151308 MISS:    1697892 MSHR_MERGE:     444554
cpu0->cpu0_DTLB RFO          ACCESS:          0 HIT:          0 MISS:          0 MSHR_MERGE:          0
cpu0->cpu0_DTLB PREFETCH     ACCESS:          0 HIT:          0 MISS:          0 MSHR_MERGE:          0
cpu0->cpu0_DTLB WRITE        ACCESS:          0 HIT:          0 MISS:          0 MSHR_MERGE:          0
cpu0->cpu0_DTLB TRANSLATION  ACCESS:          0 HIT:          0 MISS:          0 MSHR_MERGE:          0
cpu0->cpu0_DTLB PREFETCH REQUESTED:          0 ISSUED:          0 USEFUL:          0 USELESS:          0 LATE:          0
cpu0->cpu0_DTLB AVERAGE MISS LATENCY: 8.823 cycles
cpu0->LLC TOTAL        ACCESS:    2375979 HIT:    2214746 MISS:     161233 MSHR_MERGE:          0
cpu0->LLC LOAD         ACCESS:    1841939 HIT:    1732148 MISS:     109791 MSHR_MERGE:          0
cpu0->LLC RFO          ACCESS:     102646 HIT:      81871 MISS:      20775 MSHR_MERGE:          0
cpu0->LLC PREFETCH     ACCESS:          0 HIT:          0 MISS:          0 MSHR_MERGE:          0
cpu0->LLC WRITE        ACCESS:     309400 HIT:     281461 MISS:      27939 MSHR_MERGE:          0
cpu0->LLC TRANSLATION  ACCESS:     121994 HIT:     119266 MISS:       2728 MSHR_MERGE:          0
cpu0->LLC PREFETCH REQUESTED:          0 ISSUED:          0 USEFUL:          0 USELESS:          0 LATE:          0
cpu0->LLC AVERAGE MISS LATENCY: 151.3 cycles

DRAM Statistics

Channel 0 RQ ROW_BUFFER_HIT:       3822
  ROW_BUFFER_MISS:     129468
  AVG DBUS CONGESTED CYCLE: 16.6
Channel 0 WQ ROW_BUFFER_HIT:      20124
  ROW_BUFFER_MISS:      81420
  FULL:          0
Channel 0 REFRESHES ISSUED:       5157

[ROI Statistics]
[System Configuration]
num_cpus 1
cpu_freq 4000
fetch_width 6
decode_width 6
dispatch_width 6
execute_width 6
lq_width 2
sq_width 2
retire_width 6
scheduler_size 128
branch_mispredict_penalty 15
rob_size 352
lq_size 128
sq_size 72
ifetch_buffer_size 64
decode_buffer_size 32
dispatch_buffer_size 32
register_file_size 288
decode_latency 1
dispatch_latency 1
schedule_latency 1
execute_latency 1
page_size 4096
block_size 64
core_0_itlb_set 16
core_0_itlb_way 4
core_0_itlb_rq_size 16
core_0_itlb_wq_size 16
core_0_itlb_pq_size 0
core_0_itlb_mshr_size 8
core_0_itlb_hit_latency 1
core_0_itlb_fill_latency 1
core_0_itlb_max_tag_check 2
core_0_itlb_max_fill 2
core_0_dtlb_set 16
core_0_dtlb_way 4
core_0_dtlb_rq_size 16
core_0_dtlb_wq_size 16
core_0_dtlb_pq_size 0
core_0_dtlb_mshr_size 8
core_0_dtlb_hit_latency 1
core_0_dtlb_fill_latency 1
core_0_dtlb_max_tag_check 2
core_0_dtlb_max_fill 2
core_0_stlb_set 128
core_0_stlb_way 12
core_0_stlb_rq_size 32
core_0_stlb_wq_size 32
core_0_stlb_pq_size 0
core_0_stlb_mshr_size 16
core_0_stlb_hit_latency 4
core_0_stlb_fill_latency 4
core_0_stlb_max_tag_check 1
core_0_stlb_max_fill 1
core_0_l1i_set 64
core_0_l1i_way 8
core_0_l1i_rq_size 64
core_0_l1i_wq_size 64
core_0_l1i_pq_size 32
core_0_l1i_mshr_size 8
core_0_l1i_hit_latency 2
core_0_l1i_fill_latency 2
core_0_l1i_max_tag_check 2
core_0_l1i_max_fill 2
core_0_l1d_set 64
core_0_l1d_way 12
core_0_l1d_rq_size 64
core_0_l1d_wq_size 64
core_0_l1d_pq_size 8
core_0_l1d_mshr_size 16
core_0_l1d_hit_latency 2
core_0_l1d_fill_latency 3
core_0_l1d_max_tag_check 2
core_0_l1d_max_fill 2
core_0_l2c_set 1024
core_0_l2c_way 8
core_0_l2c_rq_size 32
core_0_l2c_wq_size 32
core_0_l2c_pq_size 16
core_0_l2c_mshr_size 32
core_0_l2c_hit_latency 5
core_0_l2c_fill_latency 5
core_0_l2c_max_tag_check 1
core_0_l2c_max_fill 1
llc_set 2048
llc_way 16
llc_rq_size 32
llc_wq_size 32
llc_pq_size 32
llc_mshr_size 64
llc_hit_latency 10
llc_fill_latency 10
llc_max_tag_check 1
llc_max_fill 1
dram_channels 1
dram_ranks 1
dram_bankgroups 8
dram_banks 4
dram_rows 65536
dram_columns 1024
dram_channel_width 8
dram_rq_size 64
dram_wq_size 64
dram_size 17179869184
core_0_itlb_prefetcher no
core_0_dtlb_prefetcher no
core_0_stlb_prefetcher no
core_0_l1i_prefetcher no
core_0_l1d_prefetcher no
core_0_l2c_prefetcher no
llc_prefetcher no
llc_replacement drrip

Core_0_instructions 100000005
Core_0_cycles 61881023
Core_0_IPC 1.616
Core_0_branch_prediction_accuracy 97.3573
Core_0_branch_MPKI 4.77406
Core_0_average_ROB_occupancy_at_mispredict 95.6502

Core_0_ITLB_total_access 12981238
Core_0_ITLB_total_hit 11977191
Core_0_ITLB_total_miss 1004047
Core_0_ITLB_total_MPKI 10.0405
Core_0_ITLB_total_miss_rate 0.077346
Core_0_ITLB_demand_access 12981238
Core_0_ITLB_demand_hit 11977191
Core_0_ITLB_demand_miss 1004047
Core_0_ITLB_demand_MPKI 10.0405
Core_0_ITLB_demand_miss_rate 0.077346
Core_0_ITLB_load_access 12981238
Core_0_ITLB_load_hit 11977191
Core_0_ITLB_load_miss 1004047
Core_0_ITLB_load_MPKI 10.0405
Core_0_ITLB_load_miss_rate 0.077346
Core_0_ITLB_rfo_access 0
Core_0_ITLB_rfo_hit 0
Core_0_ITLB_rfo_miss 0
Core_0_ITLB_rfo_MPKI 0
Core_0_ITLB_rfo_miss_rate 0
Core_0_ITLB_prefetch_access 0
Core_0_ITLB_prefetch_hit 0
Core_0_ITLB_prefetch_miss 0
Core_0_ITLB_prefetch_MPKI 0
Core_0_ITLB_prefetch_miss_rate 0
Core_0_ITLB_writeback_access 0
Core_0_ITLB_writeback_hit 0
Core_0_ITLB_writeback_miss 0
Core_0_ITLB_writeback_MPKI 0
Core_0_ITLB_writeback_miss_rate 0
Core_0_ITLB_prefetch_requested 0
Core_0_ITLB_prefetch_issued 0
Core_0_ITLB_prefetch_useful 0
Core_0_ITLB_prefetch_useless 0
Core_0_ITLB_prefetch_late 0
Core_0_ITLB_prefetch_accuracy 0
Core_0_ITLB_prefetch_coverage 0

Core_0_DTLB_total_access 21849200
Core_0_DTLB_total_hit 20151308
Core_0_DTLB_total_miss 1697892
Core_0_DTLB_total_MPKI 16.9789
Core_0_DTLB_total_miss_rate 0.0777096
Core_0_DTLB_demand_access 21849200
Core_0_DTLB_demand_hit 20151308
Core_0_DTLB_demand_miss 1697892
Core_0_DTLB_demand_MPKI 16.9789
Core_0_DTLB_demand_miss_rate 0.0777096
Core_0_DTLB_load_access 21849200
Core_0_DTLB_load_hit 20151308
Core_0_DTLB_load_miss 1697892
Core_0_DTLB_load_MPKI 16.9789
Core_0_DTLB_load_miss_rate 0.0777096
Core_0_DTLB_rfo_access 0
Core_0_DTLB_rfo_hit 0
Core_0_DTLB_rfo_miss 0
Core_0_DTLB_rfo_MPKI 0
Core_0_DTLB_rfo_miss_rate 0
Core_0_DTLB_prefetch_access 0
Core_0_DTLB_prefetch_hit 0
Core_0_DTLB_prefetch_miss 0
Core_0_DTLB_prefetch_MPKI 0
Core_0_DTLB_prefetch_miss_rate 0
Core_0_DTLB_writeback_access 0
Core_0_DTLB_writeback_hit 0
Core_0_DTLB_writeback_miss 0
Core_0_DTLB_writeback_MPKI 0
Core_0_DTLB_writeback_miss_rate 0
Core_0_DTLB_prefetch_requested 0
Core_0_DTLB_prefetch_issued 0
Core_0_DTLB_prefetch_useful 0
Core_0_DTLB_prefetch_useless 0
Core_0_DTLB_prefetch_late 0
Core_0_DTLB_prefetch_accuracy 0
Core_0_DTLB_prefetch_coverage 0

Core_0_STLB_total_access 1636220
Core_0_STLB_total_hit 1408030
Core_0_STLB_total_miss 228190
Core_0_STLB_total_MPKI 2.2819
Core_0_STLB_total_miss_rate 0.139462
Core_0_STLB_demand_access 1636220
Core_0_STLB_demand_hit 1408030
Core_0_STLB_demand_miss 228190
Core_0_STLB_demand_MPKI 2.2819
Core_0_STLB_demand_miss_rate 0.139462
Core_0_STLB_load_access 1636220
Core_0_STLB_load_hit 1408030
Core_0_STLB_load_miss 228190
Core_0_STLB_load_MPKI 2.2819
Core_0_STLB_load_miss_rate 0.139462
Core_0_STLB_rfo_access 0
Core_0_STLB_rfo_hit 0
Core_0_STLB_rfo_miss 0
Core_0_STLB_rfo_MPKI 0
Core_0_STLB_rfo_miss_rate 0
Core_0_STLB_prefetch_access 0
Core_0_STLB_prefetch_hit 0
Core_0_STLB_prefetch_miss 0
Core_0_STLB_prefetch_MPKI 0
Core_0_STLB_prefetch_miss_rate 0
Core_0_STLB_writeback_access 0
Core_0_STLB_writeback_hit 0
Core_0_STLB_writeback_miss 0
Core_0_STLB_writeback_MPKI 0
Core_0_STLB_writeback_miss_rate 0
Core_0_STLB_prefetch_requested 0
Core_0_STLB_prefetch_issued 0
Core_0_STLB_prefetch_useful 0
Core_0_STLB_prefetch_useless 0
Core_0_STLB_prefetch_late 0
Core_0_STLB_prefetch_accuracy 0
Core_0_STLB_prefetch_coverage 0

Core_0_L1I_total_access 15318876
Core_0_L1I_total_hit 11213246
Core_0_L1I_total_miss 4105630
Core_0_L1I_total_MPKI 41.0563
Core_0_L1I_total_miss_rate 0.268011
Core_0_L1I_demand_access 15318876
Core_0_L1I_demand_hit 11213246
Core_0_L1I_demand_miss 4105630
Core_0_L1I_demand_MPKI 41.0563
Core_0_L1I_demand_miss_rate 0.268011
Core_0_L1I_load_access 15318876
Core_0_L1I_load_hit 11213246
Core_0_L1I_load_miss 4105630
Core_0_L1I_load_MPKI 41.0563
Core_0_L1I_load_miss_rate 0.268011
Core_0_L1I_rfo_access 0
Core_0_L1I_rfo_hit 0
Core_0_L1I_rfo_miss 0
Core_0_L1I_rfo_MPKI 0
Core_0_L1I_rfo_miss_rate 0
Core_0_L1I_prefetch_access 0
Core_0_L1I_prefetch_hit 0
Core_0_L1I_prefetch_miss 0
Core_0_L1I_prefetch_MPKI 0
Core_0_L1I_prefetch_miss_rate 0
Core_0_L1I_writeback_access 0
Core_0_L1I_writeback_hit 0
Core_0_L1I_writeback_miss 0
Core_0_L1I_writeback_MPKI 0
Core_0_L1I_writeback_miss_rate 0
Core_0_L1I_prefetch_requested 0
Core_0_L1I_prefetch_issued 0
Core_0_L1I_prefetch_useful 0
Core_0_L1I_prefetch_useless 0
Core_0_L1I_prefetch_late 0
Core_0_L1I_prefetch_accuracy 0
Core_0_L1I_prefetch_coverage 0

Core_0_L1D_total_access 23166703
Core_0_L1D_total_hit 21177185
Core_0_L1D_total_miss 1989518
Core_0_L1D_total_MPKI 19.8952
Core_0_L1D_total_miss_rate 0.0858783
Core_0_L1D_demand_access 13263240
Core_0_L1D_demand_hit 11753809
Core_0_L1D_demand_miss 1509431
Core_0_L1D_demand_MPKI 15.0943
Core_0_L1D_demand_miss_rate 0.113806
Core_0_L1D_load_access 13263240
Core_0_L1D_load_hit 11753809
Core_0_L1D_load_miss 1509431
Core_0_L1D_load_MPKI 15.0943
Core_0_L1D_load_miss_rate 0.113806
Core_0_L1D_rfo_access 0
Core_0_L1D_rfo_hit 0
Core_0_L1D_rfo_miss 0
Core_0_L1D_rfo_MPKI 0
Core_0_L1D_rfo_miss_rate 0
Core_0_L1D_prefetch_access 0
Core_0_L1D_prefetch_hit 0
Core_0_L1D_prefetch_miss 0
Core_0_L1D_prefetch_MPKI 0
Core_0_L1D_prefetch_miss_rate 0
Core_0_L1D_writeback_access 9903463
Core_0_L1D_writeback_hit 9423376
Core_0_L1D_writeback_miss 480087
Core_0_L1D_writeback_MPKI 4.80087
Core_0_L1D_writeback_miss_rate 0.0484767
Core_0_L1D_prefetch_requested 0
Core_0_L1D_prefetch_issued 0
Core_0_L1D_prefetch_useful 0
Core_0_L1D_prefetch_useless 0
Core_0_L1D_prefetch_late 0
Core_0_L1D_prefetch_accuracy 0
Core_0_L1D_prefetch_coverage 0

Core_0_L2C_total_access 4395922
Core_0_L2C_total_hit 2447875
Core_0_L2C_total_miss 1948047
Core_0_L2C_total_MPKI 19.4805
Core_0_L2C_total_miss_rate 0.443149
Core_0_L2C_demand_access 3878200
Core_0_L2C_demand_hit 1933615
Core_0_L2C_demand_miss 1944585
Core_0_L2C_demand_MPKI 19.4458
Core_0_L2C_demand_miss_rate 0.501414
Core_0_L2C_load_access 3702848
Core_0_L2C_load_hit 1860909
Core_0_L2C_load_miss 1841939
Core_0_L2C_load_MPKI 18.4194
Core_0_L2C_load_miss_rate 0.497438
Core_0_L2C_rfo_access 175352
Core_0_L2C_rfo_hit 72706
Core_0_L2C_rfo_miss 102646
Core_0_L2C_rfo_MPKI 1.02646
Core_0_L2C_rfo_miss_rate 0.585371
Core_0_L2C_prefetch_access 0
Core_0_L2C_prefetch_hit 0
Core_0_L2C_prefetch_miss 0
Core_0_L2C_prefetch_MPKI 0
Core_0_L2C_prefetch_miss_rate 0
Core_0_L2C_writeback_access 517722
Core_0_L2C_writeback_hit 514260
Core_0_L2C_writeback_miss 3462
Core_0_L2C_writeback_MPKI 0.03462
Core_0_L2C_writeback_miss_rate 0.00668699
Core_0_L2C_prefetch_requested 0
Core_0_L2C_prefetch_issued 0
Core_0_L2C_prefetch_useful 0
Core_0_L2C_prefetch_useless 0
Core_0_L2C_prefetch_late 0
Core_0_L2C_prefetch_accuracy 0
Core_0_L2C_prefetch_coverage 0

Core_0_LLC_total_access 2253985
Core_0_LLC_total_hit 2095480
Core_0_LLC_total_miss 158505
Core_0_LLC_total_MPKI 1.58505
Core_0_LLC_total_miss_rate 0.0703221
Core_0_LLC_demand_access 1944585
Core_0_LLC_demand_hit 1814019
Core_0_LLC_demand_miss 130566
Core_0_LLC_demand_MPKI 1.30566
Core_0_LLC_demand_miss_rate 0.0671434
Core_0_LLC_load_access 1841939
Core_0_LLC_load_hit 1732148
Core_0_LLC_load_miss 109791
Core_0_LLC_load_MPKI 1.09791
Core_0_LLC_load_miss_rate 0.0596062
Core_0_LLC_rfo_access 102646
Core_0_LLC_rfo_hit 81871
Core_0_LLC_rfo_miss 20775
Core_0_LLC_rfo_MPKI 0.20775
Core_0_LLC_rfo_miss_rate 0.202395
Core_0_LLC_prefetch_access 0
Core_0_LLC_prefetch_hit 0
Core_0_LLC_prefetch_miss 0
Core_0_LLC_prefetch_MPKI 0
Core_0_LLC_prefetch_miss_rate 0
Core_0_LLC_writeback_access 309400
Core_0_LLC_writeback_hit 281461
Core_0_LLC_writeback_miss 27939
Core_0_LLC_writeback_MPKI 0.27939
Core_0_LLC_writeback_miss_rate 0.0903006
Core_0_LLC_prefetch_requested 0
Core_0_LLC_prefetch_issued 0
Core_0_LLC_prefetch_useful 0
Core_0_LLC_prefetch_useless 0
Core_0_LLC_prefetch_late 0
Core_0_LLC_prefetch_accuracy 0
Core_0_LLC_prefetch_coverage 0

[DRAM Statistics]
Channel_0_RQ_row_buffer_hit 3822
Channel_0_RQ_row_buffer_miss 129468
Channel_0_WQ_row_buffer_hit 20124
Channel_0_WQ_row_buffer_miss 81420
Channel_0_WQ_full 0
Channel_0_dbus_congested 702098
DRAM_total_RQ_row_buffer_hit 3822
DRAM_total_RQ_row_buffer_miss 129468
DRAM_total_WQ_row_buffer_hit 20124
DRAM_total_WQ_row_buffer_miss 81420
DRAM_total_WQ_full 0
DRAM_total_dbus_congested 702098
DRAM_avg_congested_cycle 16.5993

====== DRAM_RQ_TRAFFIC ========
DRAM_RQ_READ_TRAFFIC_BREAKDOWN:
data_demand_read.count = 123295
data_demand_read.share = 92.50%

inst_demand_read.count = 7271
inst_demand_read.share = 5.45%

cache_inst_prefetch.count = 0
cache_inst_prefetch.share = 0.00%

cache_data_prefetch.count = 0
cache_data_prefetch.share = 0.00%

stlb_data_demand.count = 2547
stlb_data_demand.share = 1.91%

stlb_inst_demand.count = 181
stlb_inst_demand.share = 0.14%

stlb_l1i_pref.count = 0
stlb_l1i_pref.share = 0.00%

stlb_l1d_pref.count = 0
stlb_l1d_pref.share = 0.00%

DRAM_RQ_READ_TRAFFIC_SUMMARY:
cache_demand.count = 130566
cache_demand.share = 97.95%

cache_prefetch.count = 0
cache_prefetch.share = 0.00%

stlb_demand.count = 2728
stlb_demand.share = 2.05%

stlb_prefetch.count = 0
stlb_prefetch.share = 0.00%

DRAM_RQ_READ_TRAFFIC_DEBUG:
total_classified_read.count = 133294
unclassified_read.count = 0
total_read_with_other.count = 133294

classified_plus_unclassified_check.count = 133294
dram_rq_read_total_observed.count = 133294
dram_rq_read_total_observed.per_1K_instructions = 1.33294

STLB_MISS_PTW_DRAM_TOUCH_BREAKDOWN:
stlb_miss_total.count = 228190

stlb_miss_touch_dram.count = 2650
stlb_miss_touch_dram.share = 1.16%

stlb_miss_no_dram_touch.count = 225540
stlb_miss_no_dram_touch.share = 98.84%

STLB_MISS_PTW_DRAM_TOUCH_DEBUG:
stlb_miss_touch_plus_no_touch.count = 228190
stlb_miss_total_check.count = 228190

======STLB miss causes ========
Core_0_STLB_miss_cause_breakdown
Core_0_STLB_cause_Demand_Data_miss 140412
Core_0_STLB_cause_Demand_Data_miss_rate 0.0858149
Core_0_STLB_cause_Demand_Instruction_miss 87778
Core_0_STLB_cause_Demand_Instruction_miss_rate 0.0536468
Core_0_STLB_cause_L1D_Prefetch_miss 0
Core_0_STLB_cause_L1D_Prefetch_miss_rate 0
Core_0_STLB_cause_L1I_Prefetch_miss 0
Core_0_STLB_cause_L1I_Prefetch_miss_rate 0
Core_0_STLB_cause_Other_miss 0
Core_0_STLB_cause_Other_miss_rate 0
Core_0_STLB_Demand_miss 228190
Core_0_STLB_Demand_miss_rate 0.139462
Core_0_STLB_L1D_Prefetch_miss 0
Core_0_STLB_L1D_Prefetch_miss_rate 0
Core_0_STLB_Other_miss 0
Core_0_STLB_Other_miss_rate 0
