[VMEM] WARNING: physical memory size is smaller than virtual memory size.

*** ChampSim Multicore Out-of-Order Simulator ***
Warmup Instructions: 50000000
Simulation Instructions: 100000000
Number of CPUs: 1
Page size: 4096
Core 0: /data2/zcq/champsim_traces_xsbench/xs.XXL100nuclide-648B.champsimtrace.xz
Off-chip DRAM Size: 16 GiB Channels: 1 Width: 64-bit Data Rate: 3205 MT/s
Warmup halting CPU 0 at instruction 50000001 cycle 36883664 for remainder of phase
Warmup finished CPU 0 instructions: 50000001 cycles: 36883664 cumulative IPC: 1.356 (Simulation time: 00 hr 05 min 34 sec)
Warmup complete CPU 0 instructions: 50000001 cycles: 36883664 cumulative IPC: 1.356 (Simulation time: 00 hr 05 min 34 sec)
Simulation finished CPU 0 instructions: 100000000 cycles: 690300026 cumulative IPC: 0.1449 (Simulation time: 00 hr 45 min 46 sec)
Simulation complete CPU 0 instructions: 100000000 cycles: 690300026 cumulative IPC: 0.1449 (Simulation time: 00 hr 45 min 46 sec)

ChampSim completed all CPUs

=== Simulation ===
CPU 0 runs /data2/zcq/champsim_traces_xsbench/xs.XXL100nuclide-648B.champsimtrace.xz

Region of Interest Statistics

CPU 0 cumulative IPC: 0.1449 instructions: 100000000 cycles: 690300026
CPU 0 Branch Prediction Accuracy: 87.26% MPKI: 21.49 Average ROB Occupancy at Mispredict: 25.97
Branch type MPKI
BRANCH_DIRECT_JUMP: 0
BRANCH_INDIRECT: 0
BRANCH_CONDITIONAL: 21.49
BRANCH_DIRECT_CALL: 0
BRANCH_INDIRECT_CALL: 0
BRANCH_RETURN: 0

cpu0->cpu0_STLB TOTAL        ACCESS:    3981602 HIT:     123034 MISS:    3858568 MSHR_MERGE:          0
cpu0->cpu0_STLB LOAD         ACCESS:    3981602 HIT:     123034 MISS:    3858568 MSHR_MERGE:          0
cpu0->cpu0_STLB RFO          ACCESS:          0 HIT:          0 MISS:          0 MSHR_MERGE:          0
cpu0->cpu0_STLB PREFETCH     ACCESS:          0 HIT:          0 MISS:          0 MSHR_MERGE:          0
cpu0->cpu0_STLB WRITE        ACCESS:          0 HIT:          0 MISS:          0 MSHR_MERGE:          0
cpu0->cpu0_STLB TRANSLATION  ACCESS:          0 HIT:          0 MISS:          0 MSHR_MERGE:          0
cpu0->cpu0_STLB PREFETCH REQUESTED:          0 ISSUED:          0 USEFUL:          0 USELESS:          0 LATE:          0
cpu0->cpu0_STLB AVERAGE MISS LATENCY: 174.3 cycles
cpu0->cpu0_L2C TOTAL        ACCESS:    9376340 HIT:     432765 MISS:    8943575 MSHR_MERGE:          0
cpu0->cpu0_L2C LOAD         ACCESS:    6009655 HIT:     193451 MISS:    5816204 MSHR_MERGE:          0
cpu0->cpu0_L2C RFO          ACCESS:      22115 HIT:      21533 MISS:        582 MSHR_MERGE:          0
cpu0->cpu0_L2C PREFETCH     ACCESS:          0 HIT:          0 MISS:          0 MSHR_MERGE:          0
cpu0->cpu0_L2C WRITE        ACCESS:      26132 HIT:      26075 MISS:         57 MSHR_MERGE:          0
cpu0->cpu0_L2C TRANSLATION  ACCESS:    3318438 HIT:     191706 MISS:    3126732 MSHR_MERGE:          0
cpu0->cpu0_L2C PREFETCH REQUESTED:          0 ISSUED:          0 USEFUL:          0 USELESS:          0 LATE:          0
cpu0->cpu0_L2C AVERAGE MISS LATENCY: 148.6 cycles
cpu0->cpu0_L1I TOTAL        ACCESS:      21476 HIT:      21476 MISS:          0 MSHR_MERGE:          0
cpu0->cpu0_L1I LOAD         ACCESS:      21476 HIT:      21476 MISS:          0 MSHR_MERGE:          0
cpu0->cpu0_L1I RFO          ACCESS:          0 HIT:          0 MISS:          0 MSHR_MERGE:          0
cpu0->cpu0_L1I PREFETCH     ACCESS:          0 HIT:          0 MISS:          0 MSHR_MERGE:          0
cpu0->cpu0_L1I WRITE        ACCESS:          0 HIT:          0 MISS:          0 MSHR_MERGE:          0
cpu0->cpu0_L1I TRANSLATION  ACCESS:          0 HIT:          0 MISS:          0 MSHR_MERGE:          0
cpu0->cpu0_L1I PREFETCH REQUESTED:          0 ISSUED:          0 USEFUL:          0 USELESS:          0 LATE:          0
cpu0->cpu0_L1I AVERAGE MISS LATENCY: - cycles
cpu0->cpu0_L1D TOTAL        ACCESS:   19827559 HIT:    8537479 MISS:   11290080 MSHR_MERGE:    1939859
cpu0->cpu0_L1D LOAD         ACCESS:    9561321 HIT:    3452614 MISS:    6108707 MSHR_MERGE:      99052
cpu0->cpu0_L1D RFO          ACCESS:          0 HIT:          0 MISS:          0 MSHR_MERGE:          0
cpu0->cpu0_L1D PREFETCH     ACCESS:          0 HIT:          0 MISS:          0 MSHR_MERGE:          0
cpu0->cpu0_L1D WRITE        ACCESS:    1810806 HIT:    1754272 MISS:      56534 MSHR_MERGE:      34406
cpu0->cpu0_L1D TRANSLATION  ACCESS:    8455432 HIT:    3330593 MISS:    5124839 MSHR_MERGE:    1806401
cpu0->cpu0_L1D PREFETCH REQUESTED:          0 ISSUED:          0 USEFUL:          0 USELESS:          0 LATE:          0
cpu0->cpu0_L1D AVERAGE MISS LATENCY: 151.2 cycles
cpu0->cpu0_ITLB TOTAL        ACCESS:      17399 HIT:      17399 MISS:          0 MSHR_MERGE:          0
cpu0->cpu0_ITLB LOAD         ACCESS:      17399 HIT:      17399 MISS:          0 MSHR_MERGE:          0
cpu0->cpu0_ITLB RFO          ACCESS:          0 HIT:          0 MISS:          0 MSHR_MERGE:          0
cpu0->cpu0_ITLB PREFETCH     ACCESS:          0 HIT:          0 MISS:          0 MSHR_MERGE:          0
cpu0->cpu0_ITLB WRITE        ACCESS:          0 HIT:          0 MISS:          0 MSHR_MERGE:          0
cpu0->cpu0_ITLB TRANSLATION  ACCESS:          0 HIT:          0 MISS:          0 MSHR_MERGE:          0
cpu0->cpu0_ITLB PREFETCH REQUESTED:          0 ISSUED:          0 USEFUL:          0 USELESS:          0 LATE:          0
cpu0->cpu0_ITLB AVERAGE MISS LATENCY: - cycles
cpu0->cpu0_DTLB TOTAL        ACCESS:   11264441 HIT:    7080854 MISS:    4183587 MSHR_MERGE:     201985
cpu0->cpu0_DTLB LOAD         ACCESS:   11264441 HIT:    7080854 MISS:    4183587 MSHR_MERGE:     201985
cpu0->cpu0_DTLB RFO          ACCESS:          0 HIT:          0 MISS:          0 MSHR_MERGE:          0
cpu0->cpu0_DTLB PREFETCH     ACCESS:          0 HIT:          0 MISS:          0 MSHR_MERGE:          0
cpu0->cpu0_DTLB WRITE        ACCESS:          0 HIT:          0 MISS:          0 MSHR_MERGE:          0
cpu0->cpu0_DTLB TRANSLATION  ACCESS:          0 HIT:          0 MISS:          0 MSHR_MERGE:          0
cpu0->cpu0_DTLB PREFETCH REQUESTED:          0 ISSUED:          0 USEFUL:          0 USELESS:          0 LATE:          0
cpu0->cpu0_DTLB AVERAGE MISS LATENCY: 174.9 cycles
cpu0->LLC TOTAL        ACCESS:    8945883 HIT:    3033431 MISS:    5912452 MSHR_MERGE:          0
cpu0->LLC LOAD         ACCESS:    5816204 HIT:    1377745 MISS:    4438459 MSHR_MERGE:          0
cpu0->LLC RFO          ACCESS:        582 HIT:        581 MISS:          1 MSHR_MERGE:          0
cpu0->LLC PREFETCH     ACCESS:          0 HIT:          0 MISS:          0 MSHR_MERGE:          0
cpu0->LLC WRITE        ACCESS:       2365 HIT:       2317 MISS:         48 MSHR_MERGE:          0
cpu0->LLC TRANSLATION  ACCESS:    3126732 HIT:    1652788 MISS:    1473944 MSHR_MERGE:          0
cpu0->LLC PREFETCH REQUESTED:          0 ISSUED:          0 USEFUL:          0 USELESS:          0 LATE:          0
cpu0->LLC AVERAGE MISS LATENCY: 201.1 cycles

DRAM Statistics

Channel 0 RQ ROW_BUFFER_HIT:      25737
  ROW_BUFFER_MISS:    5886667
  AVG DBUS CONGESTED CYCLE: 2.94
Channel 0 WQ ROW_BUFFER_HIT:          9
  ROW_BUFFER_MISS:         40
  FULL:          0
Channel 0 REFRESHES ISSUED:      57525

[ROI Statistics]
[System Configuration]
num_cpus 1
cpu_freq 4000
fetch_width 6
decode_width 6
dispatch_width 6
execute_width 6
lq_width 2
sq_width 2
retire_width 6
scheduler_size 128
branch_mispredict_penalty 15
rob_size 352
lq_size 128
sq_size 72
ifetch_buffer_size 64
decode_buffer_size 32
dispatch_buffer_size 32
register_file_size 288
decode_latency 1
dispatch_latency 1
schedule_latency 1
execute_latency 1
page_size 4096
block_size 64
core_0_itlb_set 16
core_0_itlb_way 4
core_0_itlb_rq_size 16
core_0_itlb_wq_size 16
core_0_itlb_pq_size 0
core_0_itlb_mshr_size 8
core_0_itlb_hit_latency 1
core_0_itlb_fill_latency 1
core_0_itlb_max_tag_check 2
core_0_itlb_max_fill 2
core_0_dtlb_set 16
core_0_dtlb_way 4
core_0_dtlb_rq_size 16
core_0_dtlb_wq_size 16
core_0_dtlb_pq_size 0
core_0_dtlb_mshr_size 8
core_0_dtlb_hit_latency 1
core_0_dtlb_fill_latency 1
core_0_dtlb_max_tag_check 2
core_0_dtlb_max_fill 2
core_0_stlb_set 128
core_0_stlb_way 12
core_0_stlb_rq_size 32
core_0_stlb_wq_size 32
core_0_stlb_pq_size 0
core_0_stlb_mshr_size 16
core_0_stlb_hit_latency 4
core_0_stlb_fill_latency 4
core_0_stlb_max_tag_check 1
core_0_stlb_max_fill 1
core_0_l1i_set 64
core_0_l1i_way 8
core_0_l1i_rq_size 64
core_0_l1i_wq_size 64
core_0_l1i_pq_size 32
core_0_l1i_mshr_size 8
core_0_l1i_hit_latency 2
core_0_l1i_fill_latency 2
core_0_l1i_max_tag_check 2
core_0_l1i_max_fill 2
core_0_l1d_set 64
core_0_l1d_way 12
core_0_l1d_rq_size 64
core_0_l1d_wq_size 64
core_0_l1d_pq_size 8
core_0_l1d_mshr_size 16
core_0_l1d_hit_latency 2
core_0_l1d_fill_latency 3
core_0_l1d_max_tag_check 2
core_0_l1d_max_fill 2
core_0_l2c_set 1024
core_0_l2c_way 8
core_0_l2c_rq_size 32
core_0_l2c_wq_size 32
core_0_l2c_pq_size 16
core_0_l2c_mshr_size 32
core_0_l2c_hit_latency 5
core_0_l2c_fill_latency 5
core_0_l2c_max_tag_check 1
core_0_l2c_max_fill 1
llc_set 2048
llc_way 16
llc_rq_size 32
llc_wq_size 32
llc_pq_size 32
llc_mshr_size 64
llc_hit_latency 10
llc_fill_latency 10
llc_max_tag_check 1
llc_max_fill 1
dram_channels 1
dram_ranks 1
dram_bankgroups 8
dram_banks 4
dram_rows 65536
dram_columns 1024
dram_channel_width 8
dram_rq_size 64
dram_wq_size 64
dram_size 17179869184
core_0_itlb_prefetcher no
core_0_dtlb_prefetcher no
core_0_stlb_prefetcher no
core_0_l1i_prefetcher no
core_0_l1d_prefetcher no
core_0_l2c_prefetcher no
llc_prefetcher no
llc_replacement drrip

Core_0_instructions 100000000
Core_0_cycles 690300026
Core_0_IPC 0.144865
Core_0_branch_prediction_accuracy 87.2612
Core_0_branch_MPKI 21.4873
Core_0_average_ROB_occupancy_at_mispredict 25.9667

Core_0_ITLB_total_access 17399
Core_0_ITLB_total_hit 17399
Core_0_ITLB_total_miss 0
Core_0_ITLB_total_MPKI 0
Core_0_ITLB_total_miss_rate 0
Core_0_ITLB_demand_access 17399
Core_0_ITLB_demand_hit 17399
Core_0_ITLB_demand_miss 0
Core_0_ITLB_demand_MPKI 0
Core_0_ITLB_demand_miss_rate 0
Core_0_ITLB_load_access 17399
Core_0_ITLB_load_hit 17399
Core_0_ITLB_load_miss 0
Core_0_ITLB_load_MPKI 0
Core_0_ITLB_load_miss_rate 0
Core_0_ITLB_rfo_access 0
Core_0_ITLB_rfo_hit 0
Core_0_ITLB_rfo_miss 0
Core_0_ITLB_rfo_MPKI 0
Core_0_ITLB_rfo_miss_rate 0
Core_0_ITLB_prefetch_access 0
Core_0_ITLB_prefetch_hit 0
Core_0_ITLB_prefetch_miss 0
Core_0_ITLB_prefetch_MPKI 0
Core_0_ITLB_prefetch_miss_rate 0
Core_0_ITLB_writeback_access 0
Core_0_ITLB_writeback_hit 0
Core_0_ITLB_writeback_miss 0
Core_0_ITLB_writeback_MPKI 0
Core_0_ITLB_writeback_miss_rate 0
Core_0_ITLB_prefetch_requested 0
Core_0_ITLB_prefetch_issued 0
Core_0_ITLB_prefetch_useful 0
Core_0_ITLB_prefetch_useless 0
Core_0_ITLB_prefetch_late 0
Core_0_ITLB_prefetch_accuracy 0
Core_0_ITLB_prefetch_coverage 0

Core_0_DTLB_total_access 11264441
Core_0_DTLB_total_hit 7080854
Core_0_DTLB_total_miss 4183587
Core_0_DTLB_total_MPKI 41.8359
Core_0_DTLB_total_miss_rate 0.371398
Core_0_DTLB_demand_access 11264441
Core_0_DTLB_demand_hit 7080854
Core_0_DTLB_demand_miss 4183587
Core_0_DTLB_demand_MPKI 41.8359
Core_0_DTLB_demand_miss_rate 0.371398
Core_0_DTLB_load_access 11264441
Core_0_DTLB_load_hit 7080854
Core_0_DTLB_load_miss 4183587
Core_0_DTLB_load_MPKI 41.8359
Core_0_DTLB_load_miss_rate 0.371398
Core_0_DTLB_rfo_access 0
Core_0_DTLB_rfo_hit 0
Core_0_DTLB_rfo_miss 0
Core_0_DTLB_rfo_MPKI 0
Core_0_DTLB_rfo_miss_rate 0
Core_0_DTLB_prefetch_access 0
Core_0_DTLB_prefetch_hit 0
Core_0_DTLB_prefetch_miss 0
Core_0_DTLB_prefetch_MPKI 0
Core_0_DTLB_prefetch_miss_rate 0
Core_0_DTLB_writeback_access 0
Core_0_DTLB_writeback_hit 0
Core_0_DTLB_writeback_miss 0
Core_0_DTLB_writeback_MPKI 0
Core_0_DTLB_writeback_miss_rate 0
Core_0_DTLB_prefetch_requested 0
Core_0_DTLB_prefetch_issued 0
Core_0_DTLB_prefetch_useful 0
Core_0_DTLB_prefetch_useless 0
Core_0_DTLB_prefetch_late 0
Core_0_DTLB_prefetch_accuracy 0
Core_0_DTLB_prefetch_coverage 0

Core_0_STLB_total_access 3981602
Core_0_STLB_total_hit 123034
Core_0_STLB_total_miss 3858568
Core_0_STLB_total_MPKI 38.5857
Core_0_STLB_total_miss_rate 0.969099
Core_0_STLB_demand_access 3981602
Core_0_STLB_demand_hit 123034
Core_0_STLB_demand_miss 3858568
Core_0_STLB_demand_MPKI 38.5857
Core_0_STLB_demand_miss_rate 0.969099
Core_0_STLB_load_access 3981602
Core_0_STLB_load_hit 123034
Core_0_STLB_load_miss 3858568
Core_0_STLB_load_MPKI 38.5857
Core_0_STLB_load_miss_rate 0.969099
Core_0_STLB_rfo_access 0
Core_0_STLB_rfo_hit 0
Core_0_STLB_rfo_miss 0
Core_0_STLB_rfo_MPKI 0
Core_0_STLB_rfo_miss_rate 0
Core_0_STLB_prefetch_access 0
Core_0_STLB_prefetch_hit 0
Core_0_STLB_prefetch_miss 0
Core_0_STLB_prefetch_MPKI 0
Core_0_STLB_prefetch_miss_rate 0
Core_0_STLB_writeback_access 0
Core_0_STLB_writeback_hit 0
Core_0_STLB_writeback_miss 0
Core_0_STLB_writeback_MPKI 0
Core_0_STLB_writeback_miss_rate 0
Core_0_STLB_prefetch_requested 0
Core_0_STLB_prefetch_issued 0
Core_0_STLB_prefetch_useful 0
Core_0_STLB_prefetch_useless 0
Core_0_STLB_prefetch_late 0
Core_0_STLB_prefetch_accuracy 0
Core_0_STLB_prefetch_coverage 0

Core_0_L1I_total_access 21476
Core_0_L1I_total_hit 21476
Core_0_L1I_total_miss 0
Core_0_L1I_total_MPKI 0
Core_0_L1I_total_miss_rate 0
Core_0_L1I_demand_access 21476
Core_0_L1I_demand_hit 21476
Core_0_L1I_demand_miss 0
Core_0_L1I_demand_MPKI 0
Core_0_L1I_demand_miss_rate 0
Core_0_L1I_load_access 21476
Core_0_L1I_load_hit 21476
Core_0_L1I_load_miss 0
Core_0_L1I_load_MPKI 0
Core_0_L1I_load_miss_rate 0
Core_0_L1I_rfo_access 0
Core_0_L1I_rfo_hit 0
Core_0_L1I_rfo_miss 0
Core_0_L1I_rfo_MPKI 0
Core_0_L1I_rfo_miss_rate 0
Core_0_L1I_prefetch_access 0
Core_0_L1I_prefetch_hit 0
Core_0_L1I_prefetch_miss 0
Core_0_L1I_prefetch_MPKI 0
Core_0_L1I_prefetch_miss_rate 0
Core_0_L1I_writeback_access 0
Core_0_L1I_writeback_hit 0
Core_0_L1I_writeback_miss 0
Core_0_L1I_writeback_MPKI 0
Core_0_L1I_writeback_miss_rate 0
Core_0_L1I_prefetch_requested 0
Core_0_L1I_prefetch_issued 0
Core_0_L1I_prefetch_useful 0
Core_0_L1I_prefetch_useless 0
Core_0_L1I_prefetch_late 0
Core_0_L1I_prefetch_accuracy 0
Core_0_L1I_prefetch_coverage 0

Core_0_L1D_total_access 11372127
Core_0_L1D_total_hit 5206886
Core_0_L1D_total_miss 6165241
Core_0_L1D_total_MPKI 61.6524
Core_0_L1D_total_miss_rate 0.542136
Core_0_L1D_demand_access 9561321
Core_0_L1D_demand_hit 3452614
Core_0_L1D_demand_miss 6108707
Core_0_L1D_demand_MPKI 61.0871
Core_0_L1D_demand_miss_rate 0.638898
Core_0_L1D_load_access 9561321
Core_0_L1D_load_hit 3452614
Core_0_L1D_load_miss 6108707
Core_0_L1D_load_MPKI 61.0871
Core_0_L1D_load_miss_rate 0.638898
Core_0_L1D_rfo_access 0
Core_0_L1D_rfo_hit 0
Core_0_L1D_rfo_miss 0
Core_0_L1D_rfo_MPKI 0
Core_0_L1D_rfo_miss_rate 0
Core_0_L1D_prefetch_access 0
Core_0_L1D_prefetch_hit 0
Core_0_L1D_prefetch_miss 0
Core_0_L1D_prefetch_MPKI 0
Core_0_L1D_prefetch_miss_rate 0
Core_0_L1D_writeback_access 1810806
Core_0_L1D_writeback_hit 1754272
Core_0_L1D_writeback_miss 56534
Core_0_L1D_writeback_MPKI 0.56534
Core_0_L1D_writeback_miss_rate 0.0312204
Core_0_L1D_prefetch_requested 0
Core_0_L1D_prefetch_issued 0
Core_0_L1D_prefetch_useful 0
Core_0_L1D_prefetch_useless 0
Core_0_L1D_prefetch_late 0
Core_0_L1D_prefetch_accuracy 0
Core_0_L1D_prefetch_coverage 0

Core_0_L2C_total_access 6057902
Core_0_L2C_total_hit 241059
Core_0_L2C_total_miss 5816843
Core_0_L2C_total_MPKI 58.1684
Core_0_L2C_total_miss_rate 0.960208
Core_0_L2C_demand_access 6031770
Core_0_L2C_demand_hit 214984
Core_0_L2C_demand_miss 5816786
Core_0_L2C_demand_MPKI 58.1679
Core_0_L2C_demand_miss_rate 0.964358
Core_0_L2C_load_access 6009655
Core_0_L2C_load_hit 193451
Core_0_L2C_load_miss 5816204
Core_0_L2C_load_MPKI 58.162
Core_0_L2C_load_miss_rate 0.96781
Core_0_L2C_rfo_access 22115
Core_0_L2C_rfo_hit 21533
Core_0_L2C_rfo_miss 582
Core_0_L2C_rfo_MPKI 0.00582
Core_0_L2C_rfo_miss_rate 0.026317
Core_0_L2C_prefetch_access 0
Core_0_L2C_prefetch_hit 0
Core_0_L2C_prefetch_miss 0
Core_0_L2C_prefetch_MPKI 0
Core_0_L2C_prefetch_miss_rate 0
Core_0_L2C_writeback_access 26132
Core_0_L2C_writeback_hit 26075
Core_0_L2C_writeback_miss 57
Core_0_L2C_writeback_MPKI 0.00057
Core_0_L2C_writeback_miss_rate 0.00218123
Core_0_L2C_prefetch_requested 0
Core_0_L2C_prefetch_issued 0
Core_0_L2C_prefetch_useful 0
Core_0_L2C_prefetch_useless 0
Core_0_L2C_prefetch_late 0
Core_0_L2C_prefetch_accuracy 0
Core_0_L2C_prefetch_coverage 0

Core_0_LLC_total_access 5819151
Core_0_LLC_total_hit 1380643
Core_0_LLC_total_miss 4438508
Core_0_LLC_total_MPKI 44.3851
Core_0_LLC_total_miss_rate 0.762742
Core_0_LLC_demand_access 5816786
Core_0_LLC_demand_hit 1378326
Core_0_LLC_demand_miss 4438460
Core_0_LLC_demand_MPKI 44.3846
Core_0_LLC_demand_miss_rate 0.763043
Core_0_LLC_load_access 5816204
Core_0_LLC_load_hit 1377745
Core_0_LLC_load_miss 4438459
Core_0_LLC_load_MPKI 44.3846
Core_0_LLC_load_miss_rate 0.76312
Core_0_LLC_rfo_access 582
Core_0_LLC_rfo_hit 581
Core_0_LLC_rfo_miss 1
Core_0_LLC_rfo_MPKI 1e-05
Core_0_LLC_rfo_miss_rate 0.00171821
Core_0_LLC_prefetch_access 0
Core_0_LLC_prefetch_hit 0
Core_0_LLC_prefetch_miss 0
Core_0_LLC_prefetch_MPKI 0
Core_0_LLC_prefetch_miss_rate 0
Core_0_LLC_writeback_access 2365
Core_0_LLC_writeback_hit 2317
Core_0_LLC_writeback_miss 48
Core_0_LLC_writeback_MPKI 0.00048
Core_0_LLC_writeback_miss_rate 0.020296
Core_0_LLC_prefetch_requested 0
Core_0_LLC_prefetch_issued 0
Core_0_LLC_prefetch_useful 0
Core_0_LLC_prefetch_useless 0
Core_0_LLC_prefetch_late 0
Core_0_LLC_prefetch_accuracy 0
Core_0_LLC_prefetch_coverage 0

[DRAM Statistics]
Channel_0_RQ_row_buffer_hit 25737
Channel_0_RQ_row_buffer_miss 5886667
Channel_0_WQ_row_buffer_hit 9
Channel_0_WQ_row_buffer_miss 40
Channel_0_WQ_full 0
Channel_0_dbus_congested 6046350
DRAM_total_RQ_row_buffer_hit 25737
DRAM_total_RQ_row_buffer_miss 5886667
DRAM_total_WQ_row_buffer_hit 9
DRAM_total_WQ_row_buffer_miss 40
DRAM_total_WQ_full 0
DRAM_total_dbus_congested 6046350
DRAM_avg_congested_cycle 2.93979

====== DRAM_RQ_TRAFFIC ========
DRAM_RQ_READ_TRAFFIC_BREAKDOWN:
data_demand_read.count = 4438460
data_demand_read.share = 75.07%

inst_demand_read.count = 0
inst_demand_read.share = 0.00%

cache_inst_prefetch.count = 0
cache_inst_prefetch.share = 0.00%

cache_data_prefetch.count = 0
cache_data_prefetch.share = 0.00%

stlb_data_demand.count = 1473944
stlb_data_demand.share = 24.93%

stlb_inst_demand.count = 0
stlb_inst_demand.share = 0.00%

stlb_l1i_pref.count = 0
stlb_l1i_pref.share = 0.00%

stlb_l1d_pref.count = 0
stlb_l1d_pref.share = 0.00%

DRAM_RQ_READ_TRAFFIC_SUMMARY:
cache_demand.count = 4438460
cache_demand.share = 75.07%

cache_prefetch.count = 0
cache_prefetch.share = 0.00%

stlb_demand.count = 1473944
stlb_demand.share = 24.93%

stlb_prefetch.count = 0
stlb_prefetch.share = 0.00%

DRAM_RQ_READ_TRAFFIC_DEBUG:
total_classified_read.count = 5912404
unclassified_read.count = 0
total_read_with_other.count = 5912404

classified_plus_unclassified_check.count = 5912404
dram_rq_read_total_observed.count = 5912404
dram_rq_read_total_observed.per_1K_instructions = 59.124

STLB_MISS_PTW_DRAM_TOUCH_BREAKDOWN:
stlb_miss_total.count = 3858568

stlb_miss_touch_dram.count = 1475824
stlb_miss_touch_dram.share = 38.25%

stlb_miss_no_dram_touch.count = 2382744
stlb_miss_no_dram_touch.share = 61.75%

STLB_MISS_PTW_DRAM_TOUCH_DEBUG:
stlb_miss_touch_plus_no_touch.count = 3858568
stlb_miss_total_check.count = 3858568

======STLB miss causes ========
Core_0_STLB_miss_cause_breakdown
Core_0_STLB_cause_Demand_Data_miss 3858568
Core_0_STLB_cause_Demand_Data_miss_rate 0.969099
Core_0_STLB_cause_Demand_Instruction_miss 0
Core_0_STLB_cause_Demand_Instruction_miss_rate 0
Core_0_STLB_cause_L1D_Prefetch_miss 0
Core_0_STLB_cause_L1D_Prefetch_miss_rate 0
Core_0_STLB_cause_L1I_Prefetch_miss 0
Core_0_STLB_cause_L1I_Prefetch_miss_rate 0
Core_0_STLB_cause_Other_miss 0
Core_0_STLB_cause_Other_miss_rate 0
Core_0_STLB_Demand_miss 3858568
Core_0_STLB_Demand_miss_rate 0.969099
Core_0_STLB_L1D_Prefetch_miss 0
Core_0_STLB_L1D_Prefetch_miss_rate 0
Core_0_STLB_Other_miss 0
Core_0_STLB_Other_miss_rate 0
