[VMEM] WARNING: physical memory size is smaller than virtual memory size.

*** ChampSim Multicore Out-of-Order Simulator ***
Warmup Instructions: 50000000
Simulation Instructions: 100000000
Number of CPUs: 1
Page size: 4096
STLB ideal mode: demand
STLB ideal fill: on
Core 0: /data0/tzh/champsim_traces/SPEC06/473.astar-42B.champsimtrace.xz
VBerti Prefetcher
BERTI HASH ENTANGLING
BERTI IP MASK ffff
Off-chip DRAM Size: 16 GiB Channels: 1 Width: 64-bit Data Rate: 3205 MT/s
Warmup halting CPU 0 at instruction 50000005 cycle 10375140 for remainder of phase
Warmup finished CPU 0 instructions: 50000005 cycles: 10375140 cumulative IPC: 4.819 (Simulation time: 00 hr 01 min 57 sec)
Warmup complete CPU 0 instructions: 50000005 cycles: 10375140 cumulative IPC: 4.819 (Simulation time: 00 hr 01 min 57 sec)
Simulation finished CPU 0 instructions: 100000000 cycles: 159405721 cumulative IPC: 0.6273 (Simulation time: 00 hr 15 min 21 sec)
Simulation complete CPU 0 instructions: 100000000 cycles: 159405721 cumulative IPC: 0.6273 (Simulation time: 00 hr 15 min 21 sec)

ChampSim completed all CPUs

=== Simulation ===
CPU 0 runs /data0/tzh/champsim_traces/SPEC06/473.astar-42B.champsimtrace.xz

Region of Interest Statistics

CPU 0 cumulative IPC: 0.6273 instructions: 100000000 cycles: 159405721
CPU 0 Branch Prediction Accuracy: 84.34% MPKI: 29.57 Average ROB Occupancy at Mispredict: 16.16
Branch type MPKI
BRANCH_DIRECT_JUMP: 0.00026
BRANCH_INDIRECT: 0
BRANCH_CONDITIONAL: 29.57
BRANCH_DIRECT_CALL: 0.00018
BRANCH_INDIRECT_CALL: 0
BRANCH_RETURN: 0.00022

cpu0->cpu0_STLB TOTAL        ACCESS:    3051526 HIT:    2322361 MISS:     729165 MSHR_MERGE:          0
cpu0->cpu0_STLB LOAD         ACCESS:    3051526 HIT:    2322361 MISS:     729165 MSHR_MERGE:          0
cpu0->cpu0_STLB RFO          ACCESS:          0 HIT:          0 MISS:          0 MSHR_MERGE:          0
cpu0->cpu0_STLB PREFETCH     ACCESS:          0 HIT:          0 MISS:          0 MSHR_MERGE:          0
cpu0->cpu0_STLB WRITE        ACCESS:          0 HIT:          0 MISS:          0 MSHR_MERGE:          0
cpu0->cpu0_STLB TRANSLATION  ACCESS:          0 HIT:          0 MISS:          0 MSHR_MERGE:          0
cpu0->cpu0_STLB PREFETCH REQUESTED:          0 ISSUED:          0 USEFUL:          0 USELESS:          0 LATE:          0
cpu0->cpu0_STLB AVERAGE MISS LATENCY: 14.27 cycles
cpu0->cpu0_L2C TOTAL        ACCESS:   11619472 HIT:    9681927 MISS:    1937545 MSHR_MERGE:     122283
cpu0->cpu0_L2C LOAD         ACCESS:    2154141 HIT:    1722830 MISS:     431311 MSHR_MERGE:      18229
cpu0->cpu0_L2C RFO          ACCESS:      11686 HIT:      11433 MISS:        253 MSHR_MERGE:          0
cpu0->cpu0_L2C PREFETCH     ACCESS:    8364808 HIT:    6890015 MISS:    1474793 MSHR_MERGE:     104054
cpu0->cpu0_L2C WRITE        ACCESS:     958831 HIT:     958347 MISS:        484 MSHR_MERGE:          0
cpu0->cpu0_L2C TRANSLATION  ACCESS:     130006 HIT:      99302 MISS:      30704 MSHR_MERGE:          0
cpu0->cpu0_L2C PREFETCH REQUESTED:      36144 ISSUED:      36144 USEFUL:       5678 USELESS:       6192 LATE:          2
cpu0->cpu0_L2C AVERAGE MISS LATENCY: 65.14 cycles
cpu0->cpu0_L1I TOTAL        ACCESS:      20388 HIT:      20260 MISS:        128 MSHR_MERGE:         21
cpu0->cpu0_L1I LOAD         ACCESS:      20388 HIT:      20260 MISS:        128 MSHR_MERGE:         21
cpu0->cpu0_L1I RFO          ACCESS:          0 HIT:          0 MISS:          0 MSHR_MERGE:          0
cpu0->cpu0_L1I PREFETCH     ACCESS:          0 HIT:          0 MISS:          0 MSHR_MERGE:          0
cpu0->cpu0_L1I WRITE        ACCESS:          0 HIT:          0 MISS:          0 MSHR_MERGE:          0
cpu0->cpu0_L1I TRANSLATION  ACCESS:          0 HIT:          0 MISS:          0 MSHR_MERGE:          0
cpu0->cpu0_L1I PREFETCH REQUESTED:          0 ISSUED:          0 USEFUL:          0 USELESS:          0 LATE:          0
cpu0->cpu0_L1I AVERAGE MISS LATENCY: 235 cycles
cpu0->cpu0_L1D TOTAL        ACCESS:   44284068 HIT:   32908632 MISS:   11375436 MSHR_MERGE:     706163
cpu0->cpu0_L1D LOAD         ACCESS:   24328157 HIT:   21616086 MISS:    2712071 MSHR_MERGE:     557937
cpu0->cpu0_L1D RFO          ACCESS:          0 HIT:          0 MISS:          0 MSHR_MERGE:          0
cpu0->cpu0_L1D PREFETCH     ACCESS:   14410144 HIT:    5948868 MISS:    8461276 MSHR_MERGE:      87917
cpu0->cpu0_L1D WRITE        ACCESS:    4257956 HIT:    4244927 MISS:      13029 MSHR_MERGE:       1255
cpu0->cpu0_L1D TRANSLATION  ACCESS:    1287811 HIT:    1098751 MISS:     189060 MSHR_MERGE:      59054
cpu0->cpu0_L1D PREFETCH REQUESTED:   21019407 ISSUED:   14410142 USEFUL:     759382 USELESS:     471129 LATE:      11145
cpu0->cpu0_L1D AVERAGE MISS LATENCY: 21.42 cycles
cpu0->cpu0_ITLB TOTAL        ACCESS:      17720 HIT:      17705 MISS:         15 MSHR_MERGE:          7
cpu0->cpu0_ITLB LOAD         ACCESS:      17720 HIT:      17705 MISS:         15 MSHR_MERGE:          7
cpu0->cpu0_ITLB RFO          ACCESS:          0 HIT:          0 MISS:          0 MSHR_MERGE:          0
cpu0->cpu0_ITLB PREFETCH     ACCESS:          0 HIT:          0 MISS:          0 MSHR_MERGE:          0
cpu0->cpu0_ITLB WRITE        ACCESS:          0 HIT:          0 MISS:          0 MSHR_MERGE:          0
cpu0->cpu0_ITLB TRANSLATION  ACCESS:          0 HIT:          0 MISS:          0 MSHR_MERGE:          0
cpu0->cpu0_ITLB PREFETCH REQUESTED:          0 ISSUED:          0 USEFUL:          0 USELESS:          0 LATE:          0
cpu0->cpu0_ITLB AVERAGE MISS LATENCY: 5 cycles
cpu0->cpu0_DTLB TOTAL        ACCESS:   41868899 HIT:   38629055 MISS:    3239844 MSHR_MERGE:     188327
cpu0->cpu0_DTLB LOAD         ACCESS:   41868899 HIT:   38629055 MISS:    3239844 MSHR_MERGE:     188327
cpu0->cpu0_DTLB RFO          ACCESS:          0 HIT:          0 MISS:          0 MSHR_MERGE:          0
cpu0->cpu0_DTLB PREFETCH     ACCESS:          0 HIT:          0 MISS:          0 MSHR_MERGE:          0
cpu0->cpu0_DTLB WRITE        ACCESS:          0 HIT:          0 MISS:          0 MSHR_MERGE:          0
cpu0->cpu0_DTLB TRANSLATION  ACCESS:          0 HIT:          0 MISS:          0 MSHR_MERGE:          0
cpu0->cpu0_DTLB PREFETCH REQUESTED:          0 ISSUED:          0 USEFUL:          0 USELESS:          0 LATE:          0
cpu0->cpu0_DTLB AVERAGE MISS LATENCY: 8.781 cycles
cpu0->LLC TOTAL        ACCESS:    2306918 HIT:    1911450 MISS:     395468 MSHR_MERGE:          0
cpu0->LLC LOAD         ACCESS:     413075 HIT:     292600 MISS:     120475 MSHR_MERGE:          0
cpu0->LLC RFO          ACCESS:        253 HIT:        190 MISS:         63 MSHR_MERGE:          0
cpu0->LLC PREFETCH     ACCESS:    1370670 HIT:    1128769 MISS:     241901 MSHR_MERGE:          0
cpu0->LLC WRITE        ACCESS:     492216 HIT:     461422 MISS:      30794 MSHR_MERGE:          0
cpu0->LLC TRANSLATION  ACCESS:      30704 HIT:      28469 MISS:       2235 MSHR_MERGE:          0
cpu0->LLC PREFETCH REQUESTED:          0 ISSUED:          0 USEFUL:          0 USELESS:          0 LATE:          0
cpu0->LLC AVERAGE MISS LATENCY: 144.3 cycles

DRAM Statistics

Channel 0 RQ ROW_BUFFER_HIT:        907
  ROW_BUFFER_MISS:     363539
  AVG DBUS CONGESTED CYCLE: 14.36
Channel 0 WQ ROW_BUFFER_HIT:      21248
  ROW_BUFFER_MISS:     122555
  FULL:          0
Channel 0 REFRESHES ISSUED:      13284

[ROI Statistics]
[System Configuration]
num_cpus 1
cpu_freq 4000
fetch_width 6
decode_width 6
dispatch_width 6
execute_width 6
lq_width 2
sq_width 2
retire_width 6
scheduler_size 128
branch_mispredict_penalty 15
rob_size 352
lq_size 128
sq_size 72
ifetch_buffer_size 64
decode_buffer_size 32
dispatch_buffer_size 32
register_file_size 288
decode_latency 1
dispatch_latency 1
schedule_latency 1
execute_latency 1
page_size 4096
block_size 64
core_0_itlb_set 16
core_0_itlb_way 4
core_0_itlb_rq_size 16
core_0_itlb_wq_size 16
core_0_itlb_pq_size 0
core_0_itlb_mshr_size 8
core_0_itlb_hit_latency 1
core_0_itlb_fill_latency 1
core_0_itlb_max_tag_check 2
core_0_itlb_max_fill 2
core_0_dtlb_set 16
core_0_dtlb_way 4
core_0_dtlb_rq_size 16
core_0_dtlb_wq_size 16
core_0_dtlb_pq_size 0
core_0_dtlb_mshr_size 8
core_0_dtlb_hit_latency 1
core_0_dtlb_fill_latency 1
core_0_dtlb_max_tag_check 2
core_0_dtlb_max_fill 2
core_0_stlb_set 128
core_0_stlb_way 12
core_0_stlb_rq_size 32
core_0_stlb_wq_size 32
core_0_stlb_pq_size 0
core_0_stlb_mshr_size 16
core_0_stlb_hit_latency 4
core_0_stlb_fill_latency 4
core_0_stlb_max_tag_check 1
core_0_stlb_max_fill 1
core_0_l1i_set 64
core_0_l1i_way 8
core_0_l1i_rq_size 64
core_0_l1i_wq_size 64
core_0_l1i_pq_size 32
core_0_l1i_mshr_size 8
core_0_l1i_hit_latency 2
core_0_l1i_fill_latency 2
core_0_l1i_max_tag_check 2
core_0_l1i_max_fill 2
core_0_l1d_set 64
core_0_l1d_way 12
core_0_l1d_rq_size 64
core_0_l1d_wq_size 64
core_0_l1d_pq_size 8
core_0_l1d_mshr_size 16
core_0_l1d_hit_latency 2
core_0_l1d_fill_latency 3
core_0_l1d_max_tag_check 2
core_0_l1d_max_fill 2
core_0_l2c_set 1024
core_0_l2c_way 8
core_0_l2c_rq_size 32
core_0_l2c_wq_size 32
core_0_l2c_pq_size 16
core_0_l2c_mshr_size 32
core_0_l2c_hit_latency 5
core_0_l2c_fill_latency 5
core_0_l2c_max_tag_check 1
core_0_l2c_max_fill 1
llc_set 2048
llc_way 16
llc_rq_size 32
llc_wq_size 32
llc_pq_size 32
llc_mshr_size 64
llc_hit_latency 10
llc_fill_latency 10
llc_max_tag_check 1
llc_max_fill 1
dram_channels 1
dram_ranks 1
dram_bankgroups 8
dram_banks 4
dram_rows 65536
dram_columns 1024
dram_channel_width 8
dram_rq_size 64
dram_wq_size 64
dram_size 17179869184
core_0_itlb_prefetcher no
core_0_dtlb_prefetcher no
core_0_stlb_prefetcher no
core_0_l1i_prefetcher next_line
core_0_l1d_prefetcher vberti
core_0_l2c_prefetcher ip_stride
llc_prefetcher no
llc_replacement drrip

Core_0_instructions 100000000
Core_0_cycles 159405721
Core_0_IPC 0.62733
Core_0_branch_prediction_accuracy 84.3361
Core_0_branch_MPKI 29.5707
Core_0_average_ROB_occupancy_at_mispredict 16.1554

Core_0_ITLB_total_access 17720
Core_0_ITLB_total_hit 17705
Core_0_ITLB_total_miss 15
Core_0_ITLB_total_MPKI 0.00015
Core_0_ITLB_total_miss_rate 0.000846501
Core_0_ITLB_demand_access 17720
Core_0_ITLB_demand_hit 17705
Core_0_ITLB_demand_miss 15
Core_0_ITLB_demand_MPKI 0.00015
Core_0_ITLB_demand_miss_rate 0.000846501
Core_0_ITLB_load_access 17720
Core_0_ITLB_load_hit 17705
Core_0_ITLB_load_miss 15
Core_0_ITLB_load_MPKI 0.00015
Core_0_ITLB_load_miss_rate 0.000846501
Core_0_ITLB_rfo_access 0
Core_0_ITLB_rfo_hit 0
Core_0_ITLB_rfo_miss 0
Core_0_ITLB_rfo_MPKI 0
Core_0_ITLB_rfo_miss_rate 0
Core_0_ITLB_prefetch_access 0
Core_0_ITLB_prefetch_hit 0
Core_0_ITLB_prefetch_miss 0
Core_0_ITLB_prefetch_MPKI 0
Core_0_ITLB_prefetch_miss_rate 0
Core_0_ITLB_writeback_access 0
Core_0_ITLB_writeback_hit 0
Core_0_ITLB_writeback_miss 0
Core_0_ITLB_writeback_MPKI 0
Core_0_ITLB_writeback_miss_rate 0
Core_0_ITLB_prefetch_requested 0
Core_0_ITLB_prefetch_issued 0
Core_0_ITLB_prefetch_useful 0
Core_0_ITLB_prefetch_useless 0
Core_0_ITLB_prefetch_late 0
Core_0_ITLB_prefetch_accuracy 0
Core_0_ITLB_prefetch_coverage 0
Core_0_ITLB_total_eviction 0

Core_0_DTLB_total_access 41868899
Core_0_DTLB_total_hit 38629055
Core_0_DTLB_total_miss 3239844
Core_0_DTLB_total_MPKI 32.3984
Core_0_DTLB_total_miss_rate 0.0773807
Core_0_DTLB_demand_access 41868899
Core_0_DTLB_demand_hit 38629055
Core_0_DTLB_demand_miss 3239844
Core_0_DTLB_demand_MPKI 32.3984
Core_0_DTLB_demand_miss_rate 0.0773807
Core_0_DTLB_load_access 41868899
Core_0_DTLB_load_hit 38629055
Core_0_DTLB_load_miss 3239844
Core_0_DTLB_load_MPKI 32.3984
Core_0_DTLB_load_miss_rate 0.0773807
Core_0_DTLB_rfo_access 0
Core_0_DTLB_rfo_hit 0
Core_0_DTLB_rfo_miss 0
Core_0_DTLB_rfo_MPKI 0
Core_0_DTLB_rfo_miss_rate 0
Core_0_DTLB_prefetch_access 0
Core_0_DTLB_prefetch_hit 0
Core_0_DTLB_prefetch_miss 0
Core_0_DTLB_prefetch_MPKI 0
Core_0_DTLB_prefetch_miss_rate 0
Core_0_DTLB_writeback_access 0
Core_0_DTLB_writeback_hit 0
Core_0_DTLB_writeback_miss 0
Core_0_DTLB_writeback_MPKI 0
Core_0_DTLB_writeback_miss_rate 0
Core_0_DTLB_prefetch_requested 0
Core_0_DTLB_prefetch_issued 0
Core_0_DTLB_prefetch_useful 0
Core_0_DTLB_prefetch_useless 0
Core_0_DTLB_prefetch_late 0
Core_0_DTLB_prefetch_accuracy 0
Core_0_DTLB_prefetch_coverage 0
Core_0_DTLB_total_eviction 3051518

Core_0_STLB_total_access 3051526
Core_0_STLB_total_hit 2322361
Core_0_STLB_total_miss 729165
Core_0_STLB_total_MPKI 7.29165
Core_0_STLB_total_miss_rate 0.238951
Core_0_STLB_demand_access 3051526
Core_0_STLB_demand_hit 2322361
Core_0_STLB_demand_miss 729165
Core_0_STLB_demand_MPKI 7.29165
Core_0_STLB_demand_miss_rate 0.238951
Core_0_STLB_load_access 3051526
Core_0_STLB_load_hit 2322361
Core_0_STLB_load_miss 729165
Core_0_STLB_load_MPKI 7.29165
Core_0_STLB_load_miss_rate 0.238951
Core_0_STLB_rfo_access 0
Core_0_STLB_rfo_hit 0
Core_0_STLB_rfo_miss 0
Core_0_STLB_rfo_MPKI 0
Core_0_STLB_rfo_miss_rate 0
Core_0_STLB_prefetch_access 0
Core_0_STLB_prefetch_hit 0
Core_0_STLB_prefetch_miss 0
Core_0_STLB_prefetch_MPKI 0
Core_0_STLB_prefetch_miss_rate 0
Core_0_STLB_writeback_access 0
Core_0_STLB_writeback_hit 0
Core_0_STLB_writeback_miss 0
Core_0_STLB_writeback_MPKI 0
Core_0_STLB_writeback_miss_rate 0
Core_0_STLB_prefetch_requested 0
Core_0_STLB_prefetch_issued 0
Core_0_STLB_prefetch_useful 0
Core_0_STLB_prefetch_useless 0
Core_0_STLB_prefetch_late 0
Core_0_STLB_prefetch_accuracy 0
Core_0_STLB_prefetch_coverage 0
Core_0_STLB_total_eviction 906650

Core_0_L1I_total_access 20388
Core_0_L1I_total_hit 20260
Core_0_L1I_total_miss 128
Core_0_L1I_total_MPKI 0.00128
Core_0_L1I_total_miss_rate 0.0062782
Core_0_L1I_demand_access 20388
Core_0_L1I_demand_hit 20260
Core_0_L1I_demand_miss 128
Core_0_L1I_demand_MPKI 0.00128
Core_0_L1I_demand_miss_rate 0.0062782
Core_0_L1I_load_access 20388
Core_0_L1I_load_hit 20260
Core_0_L1I_load_miss 128
Core_0_L1I_load_MPKI 0.00128
Core_0_L1I_load_miss_rate 0.0062782
Core_0_L1I_rfo_access 0
Core_0_L1I_rfo_hit 0
Core_0_L1I_rfo_miss 0
Core_0_L1I_rfo_MPKI 0
Core_0_L1I_rfo_miss_rate 0
Core_0_L1I_prefetch_access 0
Core_0_L1I_prefetch_hit 0
Core_0_L1I_prefetch_miss 0
Core_0_L1I_prefetch_MPKI 0
Core_0_L1I_prefetch_miss_rate 0
Core_0_L1I_writeback_access 0
Core_0_L1I_writeback_hit 0
Core_0_L1I_writeback_miss 0
Core_0_L1I_writeback_MPKI 0
Core_0_L1I_writeback_miss_rate 0
Core_0_L1I_prefetch_requested 0
Core_0_L1I_prefetch_issued 0
Core_0_L1I_prefetch_useful 0
Core_0_L1I_prefetch_useless 0
Core_0_L1I_prefetch_late 0
Core_0_L1I_prefetch_accuracy 0
Core_0_L1I_prefetch_coverage 0
Core_0_L1I_total_eviction 0

Core_0_L1D_total_access 42996257
Core_0_L1D_total_hit 31809881
Core_0_L1D_total_miss 11186376
Core_0_L1D_total_MPKI 111.864
Core_0_L1D_total_miss_rate 0.260171
Core_0_L1D_demand_access 24328157
Core_0_L1D_demand_hit 21616086
Core_0_L1D_demand_miss 2712071
Core_0_L1D_demand_MPKI 27.1207
Core_0_L1D_demand_miss_rate 0.111479
Core_0_L1D_load_access 24328157
Core_0_L1D_load_hit 21616086
Core_0_L1D_load_miss 2712071
Core_0_L1D_load_MPKI 27.1207
Core_0_L1D_load_miss_rate 0.111479
Core_0_L1D_rfo_access 0
Core_0_L1D_rfo_hit 0
Core_0_L1D_rfo_miss 0
Core_0_L1D_rfo_MPKI 0
Core_0_L1D_rfo_miss_rate 0
Core_0_L1D_prefetch_access 14410144
Core_0_L1D_prefetch_hit 5948868
Core_0_L1D_prefetch_miss 8461276
Core_0_L1D_prefetch_MPKI 84.6128
Core_0_L1D_prefetch_miss_rate 0.587175
Core_0_L1D_writeback_access 4257956
Core_0_L1D_writeback_hit 4244927
Core_0_L1D_writeback_miss 13029
Core_0_L1D_writeback_MPKI 0.13029
Core_0_L1D_writeback_miss_rate 0.00305992
Core_0_L1D_prefetch_requested 21019407
Core_0_L1D_prefetch_issued 14410142
Core_0_L1D_prefetch_useful 759382
Core_0_L1D_prefetch_useless 471129
Core_0_L1D_prefetch_late 11145
Core_0_L1D_prefetch_accuracy 0.0526977
Core_0_L1D_prefetch_coverage 0.21875
Core_0_L1D_total_eviction 3526564

Core_0_L2C_total_access 11489466
Core_0_L2C_total_hit 9582625
Core_0_L2C_total_miss 1906841
Core_0_L2C_total_MPKI 19.0684
Core_0_L2C_total_miss_rate 0.165964
Core_0_L2C_demand_access 2165827
Core_0_L2C_demand_hit 1734263
Core_0_L2C_demand_miss 431564
Core_0_L2C_demand_MPKI 4.31564
Core_0_L2C_demand_miss_rate 0.199261
Core_0_L2C_load_access 2154141
Core_0_L2C_load_hit 1722830
Core_0_L2C_load_miss 431311
Core_0_L2C_load_MPKI 4.31311
Core_0_L2C_load_miss_rate 0.200224
Core_0_L2C_rfo_access 11686
Core_0_L2C_rfo_hit 11433
Core_0_L2C_rfo_miss 253
Core_0_L2C_rfo_MPKI 0.00253
Core_0_L2C_rfo_miss_rate 0.0216498
Core_0_L2C_prefetch_access 8364808
Core_0_L2C_prefetch_hit 6890015
Core_0_L2C_prefetch_miss 1474793
Core_0_L2C_prefetch_MPKI 14.7479
Core_0_L2C_prefetch_miss_rate 0.176309
Core_0_L2C_writeback_access 958831
Core_0_L2C_writeback_hit 958347
Core_0_L2C_writeback_miss 484
Core_0_L2C_writeback_MPKI 0.00484
Core_0_L2C_writeback_miss_rate 0.000504781
Core_0_L2C_prefetch_requested 36144
Core_0_L2C_prefetch_issued 36144
Core_0_L2C_prefetch_useful 5678
Core_0_L2C_prefetch_useless 6192
Core_0_L2C_prefetch_late 2
Core_0_L2C_prefetch_accuracy 0.157094
Core_0_L2C_prefetch_coverage 0.0129859
Core_0_L2C_total_eviction 1815237

Core_0_LLC_total_access 2276214
Core_0_LLC_total_hit 1882981
Core_0_LLC_total_miss 393233
Core_0_LLC_total_MPKI 3.93233
Core_0_LLC_total_miss_rate 0.172757
Core_0_LLC_demand_access 413328
Core_0_LLC_demand_hit 292790
Core_0_LLC_demand_miss 120538
Core_0_LLC_demand_MPKI 1.20538
Core_0_LLC_demand_miss_rate 0.291628
Core_0_LLC_load_access 413075
Core_0_LLC_load_hit 292600
Core_0_LLC_load_miss 120475
Core_0_LLC_load_MPKI 1.20475
Core_0_LLC_load_miss_rate 0.291654
Core_0_LLC_rfo_access 253
Core_0_LLC_rfo_hit 190
Core_0_LLC_rfo_miss 63
Core_0_LLC_rfo_MPKI 0.00063
Core_0_LLC_rfo_miss_rate 0.249012
Core_0_LLC_prefetch_access 1370670
Core_0_LLC_prefetch_hit 1128769
Core_0_LLC_prefetch_miss 241901
Core_0_LLC_prefetch_MPKI 2.41901
Core_0_LLC_prefetch_miss_rate 0.176484
Core_0_LLC_writeback_access 492216
Core_0_LLC_writeback_hit 461422
Core_0_LLC_writeback_miss 30794
Core_0_LLC_writeback_MPKI 0.30794
Core_0_LLC_writeback_miss_rate 0.062562
Core_0_LLC_prefetch_requested 0
Core_0_LLC_prefetch_issued 0
Core_0_LLC_prefetch_useful 0
Core_0_LLC_prefetch_useless 0
Core_0_LLC_prefetch_late 0
Core_0_LLC_prefetch_accuracy 0
Core_0_LLC_prefetch_coverage 0
Core_0_LLC_total_eviction 395403

[DRAM Statistics]
Channel_0_RQ_row_buffer_hit 907
Channel_0_RQ_row_buffer_miss 363539
Channel_0_WQ_row_buffer_hit 21248
Channel_0_WQ_row_buffer_miss 122555
Channel_0_WQ_full 0
Channel_0_dbus_congested 1078389
DRAM_total_RQ_row_buffer_hit 907
DRAM_total_RQ_row_buffer_miss 363539
DRAM_total_WQ_row_buffer_hit 21248
DRAM_total_WQ_row_buffer_miss 122555
DRAM_total_WQ_full 0
DRAM_total_dbus_congested 1078389
DRAM_avg_congested_cycle 14.3647

======STLB miss causes ========
Core_0_STLB_miss_cause_breakdown
Core_0_STLB_cause_Demand_Data_miss 0
Core_0_STLB_cause_Demand_Data_miss_rate 0
Core_0_STLB_cause_Demand_Instruction_miss 0
Core_0_STLB_cause_Demand_Instruction_miss_rate 0
Core_0_STLB_cause_L1D_Prefetch_miss 729165
Core_0_STLB_cause_L1D_Prefetch_miss_rate 0.238951
Core_0_STLB_cause_L1I_Prefetch_miss 0
Core_0_STLB_cause_L1I_Prefetch_miss_rate 0
Core_0_STLB_cause_Other_miss 0
Core_0_STLB_cause_Other_miss_rate 0
Core_0_STLB_Demand_miss 0
Core_0_STLB_Demand_miss_rate 0
Core_0_STLB_L1D_Prefetch_miss 729165
Core_0_STLB_L1D_Prefetch_miss_rate 0.238951
Core_0_STLB_Other_miss 0
Core_0_STLB_Other_miss_rate 0
BERTI TO_L1: 8727854 TO_L2: 21143003 TO_L2_BC_MSHR: 1598
BERTI AVG_LAT: 22.7738 NUM_TRACK_LATENCY: 4890760 NUM_CANT_TRACK_LATENCY: 0
BERTI CROSS_PAGE 24919049 NO_CROSS_PAGE: 4951808
BERTI FOUND_BERTI: 23590771 NO_FOUND_BERTI: 14330603
BERTI AVERAGE_ISSUED: 2.40776
