[VMEM] WARNING: physical memory size is smaller than virtual memory size.

*** ChampSim Multicore Out-of-Order Simulator ***
Warmup Instructions: 50000000
Simulation Instructions: 100000000
Number of CPUs: 1
Page size: 4096
STLB ideal mode: demand
STLB ideal fill: on
Core 0: /data0/tzh/champsim_traces/SPEC17/620.omnetpp_s-874B.champsimtrace.xz
VBerti Prefetcher
BERTI HASH ENTANGLING
BERTI IP MASK ffff
Off-chip DRAM Size: 16 GiB Channels: 1 Width: 64-bit Data Rate: 3205 MT/s
Warmup halting CPU 0 at instruction 50000004 cycle 12218446 for remainder of phase
Warmup finished CPU 0 instructions: 50000004 cycles: 12218446 cumulative IPC: 4.092 (Simulation time: 00 hr 03 min 41 sec)
Warmup complete CPU 0 instructions: 50000004 cycles: 12218446 cumulative IPC: 4.092 (Simulation time: 00 hr 03 min 41 sec)
Simulation finished CPU 0 instructions: 100000000 cycles: 174843950 cumulative IPC: 0.5719 (Simulation time: 00 hr 25 min 50 sec)
Simulation complete CPU 0 instructions: 100000000 cycles: 174843950 cumulative IPC: 0.5719 (Simulation time: 00 hr 25 min 50 sec)

ChampSim completed all CPUs

=== Simulation ===
CPU 0 runs /data0/tzh/champsim_traces/SPEC17/620.omnetpp_s-874B.champsimtrace.xz

Region of Interest Statistics

CPU 0 cumulative IPC: 0.5719 instructions: 100000000 cycles: 174843950
CPU 0 Branch Prediction Accuracy: 96.17% MPKI: 7.976 Average ROB Occupancy at Mispredict: 83.17
Branch type MPKI
BRANCH_DIRECT_JUMP: 0.9204
BRANCH_INDIRECT: 0.1297
BRANCH_CONDITIONAL: 5.79
BRANCH_DIRECT_CALL: 0.00024
BRANCH_INDIRECT_CALL: 0.7356
BRANCH_RETURN: 0.3995

cpu0->cpu0_STLB TOTAL        ACCESS:    2103439 HIT:    2081085 MISS:      22354 MSHR_MERGE:          0
cpu0->cpu0_STLB LOAD         ACCESS:    2103439 HIT:    2081085 MISS:      22354 MSHR_MERGE:          0
cpu0->cpu0_STLB RFO          ACCESS:          0 HIT:          0 MISS:          0 MSHR_MERGE:          0
cpu0->cpu0_STLB PREFETCH     ACCESS:          0 HIT:          0 MISS:          0 MSHR_MERGE:          0
cpu0->cpu0_STLB WRITE        ACCESS:          0 HIT:          0 MISS:          0 MSHR_MERGE:          0
cpu0->cpu0_STLB TRANSLATION  ACCESS:          0 HIT:          0 MISS:          0 MSHR_MERGE:          0
cpu0->cpu0_STLB PREFETCH REQUESTED:          0 ISSUED:          0 USEFUL:          0 USELESS:          0 LATE:          0
cpu0->cpu0_STLB AVERAGE MISS LATENCY: 129.3 cycles
cpu0->cpu0_L2C TOTAL        ACCESS:    2921583 HIT:    1621416 MISS:    1300167 MSHR_MERGE:       2988
cpu0->cpu0_L2C LOAD         ACCESS:    1621773 HIT:     575835 MISS:    1045938 MSHR_MERGE:        240
cpu0->cpu0_L2C RFO          ACCESS:     238374 HIT:      84662 MISS:     153712 MSHR_MERGE:          0
cpu0->cpu0_L2C PREFETCH     ACCESS:     138950 HIT:      50402 MISS:      88548 MSHR_MERGE:       2748
cpu0->cpu0_L2C WRITE        ACCESS:     909255 HIT:     908271 MISS:        984 MSHR_MERGE:          0
cpu0->cpu0_L2C TRANSLATION  ACCESS:      13231 HIT:       2246 MISS:      10985 MSHR_MERGE:          0
cpu0->cpu0_L2C PREFETCH REQUESTED:      42229 ISSUED:      42229 USEFUL:      11448 USELESS:       6395 LATE:          4
cpu0->cpu0_L2C AVERAGE MISS LATENCY: 159.8 cycles
cpu0->cpu0_L1I TOTAL        ACCESS:   15240429 HIT:   15188522 MISS:      51907 MSHR_MERGE:      13303
cpu0->cpu0_L1I LOAD         ACCESS:   15240429 HIT:   15188522 MISS:      51907 MSHR_MERGE:      13303
cpu0->cpu0_L1I RFO          ACCESS:          0 HIT:          0 MISS:          0 MSHR_MERGE:          0
cpu0->cpu0_L1I PREFETCH     ACCESS:          0 HIT:          0 MISS:          0 MSHR_MERGE:          0
cpu0->cpu0_L1I WRITE        ACCESS:          0 HIT:          0 MISS:          0 MSHR_MERGE:          0
cpu0->cpu0_L1I TRANSLATION  ACCESS:          0 HIT:          0 MISS:          0 MSHR_MERGE:          0
cpu0->cpu0_L1I PREFETCH REQUESTED:          0 ISSUED:          0 USEFUL:          0 USELESS:          0 LATE:          0
cpu0->cpu0_L1I AVERAGE MISS LATENCY: 16.86 cycles
cpu0->cpu0_L1D TOTAL        ACCESS:   36835448 HIT:   33994968 MISS:    2840480 MSHR_MERGE:     908533
cpu0->cpu0_L1D LOAD         ACCESS:   18864969 HIT:   16824322 MISS:    2040647 MSHR_MERGE:     457476
cpu0->cpu0_L1D RFO          ACCESS:          0 HIT:          0 MISS:          0 MSHR_MERGE:          0
cpu0->cpu0_L1D PREFETCH     ACCESS:     103076 HIT:       5742 MISS:      97334 MSHR_MERGE:        171
cpu0->cpu0_L1D WRITE        ACCESS:   17821100 HIT:   17132994 MISS:     688106 MSHR_MERGE:     449724
cpu0->cpu0_L1D TRANSLATION  ACCESS:      46303 HIT:      31910 MISS:      14393 MSHR_MERGE:       1162
cpu0->cpu0_L1D PREFETCH REQUESTED:     103088 ISSUED:     103075 USEFUL:       3074 USELESS:       3688 LATE:         19
cpu0->cpu0_L1D AVERAGE MISS LATENCY: 114 cycles
cpu0->cpu0_ITLB TOTAL        ACCESS:   13521795 HIT:   13207795 MISS:     314000 MSHR_MERGE:     156190
cpu0->cpu0_ITLB LOAD         ACCESS:   13521795 HIT:   13207795 MISS:     314000 MSHR_MERGE:     156190
cpu0->cpu0_ITLB RFO          ACCESS:          0 HIT:          0 MISS:          0 MSHR_MERGE:          0
cpu0->cpu0_ITLB PREFETCH     ACCESS:          0 HIT:          0 MISS:          0 MSHR_MERGE:          0
cpu0->cpu0_ITLB WRITE        ACCESS:          0 HIT:          0 MISS:          0 MSHR_MERGE:          0
cpu0->cpu0_ITLB TRANSLATION  ACCESS:          0 HIT:          0 MISS:          0 MSHR_MERGE:          0
cpu0->cpu0_ITLB PREFETCH REQUESTED:          0 ISSUED:          0 USEFUL:          0 USELESS:          0 LATE:          0
cpu0->cpu0_ITLB AVERAGE MISS LATENCY: 5.007 cycles
cpu0->cpu0_DTLB TOTAL        ACCESS:   34736751 HIT:   32408495 MISS:    2328256 MSHR_MERGE:     382627
cpu0->cpu0_DTLB LOAD         ACCESS:   34736751 HIT:   32408495 MISS:    2328256 MSHR_MERGE:     382627
cpu0->cpu0_DTLB RFO          ACCESS:          0 HIT:          0 MISS:          0 MSHR_MERGE:          0
cpu0->cpu0_DTLB PREFETCH     ACCESS:          0 HIT:          0 MISS:          0 MSHR_MERGE:          0
cpu0->cpu0_DTLB WRITE        ACCESS:          0 HIT:          0 MISS:          0 MSHR_MERGE:          0
cpu0->cpu0_DTLB TRANSLATION  ACCESS:          0 HIT:          0 MISS:          0 MSHR_MERGE:          0
cpu0->cpu0_DTLB PREFETCH REQUESTED:          0 ISSUED:          0 USEFUL:          0 USELESS:          0 LATE:          0
cpu0->cpu0_DTLB AVERAGE MISS LATENCY: 6.5 cycles
cpu0->LLC TOTAL        ACCESS:    1909016 HIT:     651576 MISS:    1257440 MSHR_MERGE:          0
cpu0->LLC LOAD         ACCESS:    1045698 HIT:     242538 MISS:     803160 MSHR_MERGE:          0
cpu0->LLC RFO          ACCESS:     153712 HIT:      70057 MISS:      83655 MSHR_MERGE:          0
cpu0->LLC PREFETCH     ACCESS:      85800 HIT:       6614 MISS:      79186 MSHR_MERGE:          0
cpu0->LLC WRITE        ACCESS:     612821 HIT:     330909 MISS:     281912 MSHR_MERGE:          0
cpu0->LLC TRANSLATION  ACCESS:      10985 HIT:       1458 MISS:       9527 MSHR_MERGE:          0
cpu0->LLC PREFETCH REQUESTED:          0 ISSUED:          0 USEFUL:          0 USELESS:          0 LATE:          0
cpu0->LLC AVERAGE MISS LATENCY: 150.3 cycles

DRAM Statistics

Channel 0 RQ ROW_BUFFER_HIT:       9198
  ROW_BUFFER_MISS:     966321
  AVG DBUS CONGESTED CYCLE: 17.83
Channel 0 WQ ROW_BUFFER_HIT:     117244
  ROW_BUFFER_MISS:     276301
  FULL:          0
Channel 0 REFRESHES ISSUED:      14570

[ROI Statistics]
[System Configuration]
num_cpus 1
cpu_freq 4000
fetch_width 6
decode_width 6
dispatch_width 6
execute_width 6
lq_width 2
sq_width 2
retire_width 6
scheduler_size 128
branch_mispredict_penalty 15
rob_size 352
lq_size 128
sq_size 72
ifetch_buffer_size 64
decode_buffer_size 32
dispatch_buffer_size 32
register_file_size 288
decode_latency 1
dispatch_latency 1
schedule_latency 1
execute_latency 1
page_size 4096
block_size 64
core_0_itlb_set 16
core_0_itlb_way 4
core_0_itlb_rq_size 16
core_0_itlb_wq_size 16
core_0_itlb_pq_size 0
core_0_itlb_mshr_size 8
core_0_itlb_hit_latency 1
core_0_itlb_fill_latency 1
core_0_itlb_max_tag_check 2
core_0_itlb_max_fill 2
core_0_dtlb_set 16
core_0_dtlb_way 4
core_0_dtlb_rq_size 16
core_0_dtlb_wq_size 16
core_0_dtlb_pq_size 0
core_0_dtlb_mshr_size 8
core_0_dtlb_hit_latency 1
core_0_dtlb_fill_latency 1
core_0_dtlb_max_tag_check 2
core_0_dtlb_max_fill 2
core_0_stlb_set 128
core_0_stlb_way 12
core_0_stlb_rq_size 32
core_0_stlb_wq_size 32
core_0_stlb_pq_size 0
core_0_stlb_mshr_size 16
core_0_stlb_hit_latency 4
core_0_stlb_fill_latency 4
core_0_stlb_max_tag_check 1
core_0_stlb_max_fill 1
core_0_l1i_set 64
core_0_l1i_way 8
core_0_l1i_rq_size 64
core_0_l1i_wq_size 64
core_0_l1i_pq_size 32
core_0_l1i_mshr_size 8
core_0_l1i_hit_latency 2
core_0_l1i_fill_latency 2
core_0_l1i_max_tag_check 2
core_0_l1i_max_fill 2
core_0_l1d_set 64
core_0_l1d_way 12
core_0_l1d_rq_size 64
core_0_l1d_wq_size 64
core_0_l1d_pq_size 8
core_0_l1d_mshr_size 16
core_0_l1d_hit_latency 2
core_0_l1d_fill_latency 3
core_0_l1d_max_tag_check 2
core_0_l1d_max_fill 2
core_0_l2c_set 1024
core_0_l2c_way 8
core_0_l2c_rq_size 32
core_0_l2c_wq_size 32
core_0_l2c_pq_size 16
core_0_l2c_mshr_size 32
core_0_l2c_hit_latency 5
core_0_l2c_fill_latency 5
core_0_l2c_max_tag_check 1
core_0_l2c_max_fill 1
llc_set 2048
llc_way 16
llc_rq_size 32
llc_wq_size 32
llc_pq_size 32
llc_mshr_size 64
llc_hit_latency 10
llc_fill_latency 10
llc_max_tag_check 1
llc_max_fill 1
dram_channels 1
dram_ranks 1
dram_bankgroups 8
dram_banks 4
dram_rows 65536
dram_columns 1024
dram_channel_width 8
dram_rq_size 64
dram_wq_size 64
dram_size 17179869184
core_0_itlb_prefetcher no
core_0_dtlb_prefetcher no
core_0_stlb_prefetcher no
core_0_l1i_prefetcher next_line
core_0_l1d_prefetcher vberti
core_0_l2c_prefetcher ip_stride
llc_prefetcher no
llc_replacement drrip

Core_0_instructions 100000000
Core_0_cycles 174843950
Core_0_IPC 0.571939
Core_0_branch_prediction_accuracy 96.1663
Core_0_branch_MPKI 7.97561
Core_0_average_ROB_occupancy_at_mispredict 83.17

Core_0_ITLB_total_access 13521795
Core_0_ITLB_total_hit 13207795
Core_0_ITLB_total_miss 314000
Core_0_ITLB_total_MPKI 3.14
Core_0_ITLB_total_miss_rate 0.0232218
Core_0_ITLB_demand_access 13521795
Core_0_ITLB_demand_hit 13207795
Core_0_ITLB_demand_miss 314000
Core_0_ITLB_demand_MPKI 3.14
Core_0_ITLB_demand_miss_rate 0.0232218
Core_0_ITLB_load_access 13521795
Core_0_ITLB_load_hit 13207795
Core_0_ITLB_load_miss 314000
Core_0_ITLB_load_MPKI 3.14
Core_0_ITLB_load_miss_rate 0.0232218
Core_0_ITLB_rfo_access 0
Core_0_ITLB_rfo_hit 0
Core_0_ITLB_rfo_miss 0
Core_0_ITLB_rfo_MPKI 0
Core_0_ITLB_rfo_miss_rate 0
Core_0_ITLB_prefetch_access 0
Core_0_ITLB_prefetch_hit 0
Core_0_ITLB_prefetch_miss 0
Core_0_ITLB_prefetch_MPKI 0
Core_0_ITLB_prefetch_miss_rate 0
Core_0_ITLB_writeback_access 0
Core_0_ITLB_writeback_hit 0
Core_0_ITLB_writeback_miss 0
Core_0_ITLB_writeback_MPKI 0
Core_0_ITLB_writeback_miss_rate 0
Core_0_ITLB_prefetch_requested 0
Core_0_ITLB_prefetch_issued 0
Core_0_ITLB_prefetch_useful 0
Core_0_ITLB_prefetch_useless 0
Core_0_ITLB_prefetch_late 0
Core_0_ITLB_prefetch_accuracy 0
Core_0_ITLB_prefetch_coverage 0
Core_0_ITLB_total_eviction 157808

Core_0_DTLB_total_access 34736751
Core_0_DTLB_total_hit 32408495
Core_0_DTLB_total_miss 2328256
Core_0_DTLB_total_MPKI 23.2826
Core_0_DTLB_total_miss_rate 0.0670257
Core_0_DTLB_demand_access 34736751
Core_0_DTLB_demand_hit 32408495
Core_0_DTLB_demand_miss 2328256
Core_0_DTLB_demand_MPKI 23.2826
Core_0_DTLB_demand_miss_rate 0.0670257
Core_0_DTLB_load_access 34736751
Core_0_DTLB_load_hit 32408495
Core_0_DTLB_load_miss 2328256
Core_0_DTLB_load_MPKI 23.2826
Core_0_DTLB_load_miss_rate 0.0670257
Core_0_DTLB_rfo_access 0
Core_0_DTLB_rfo_hit 0
Core_0_DTLB_rfo_miss 0
Core_0_DTLB_rfo_MPKI 0
Core_0_DTLB_rfo_miss_rate 0
Core_0_DTLB_prefetch_access 0
Core_0_DTLB_prefetch_hit 0
Core_0_DTLB_prefetch_miss 0
Core_0_DTLB_prefetch_MPKI 0
Core_0_DTLB_prefetch_miss_rate 0
Core_0_DTLB_writeback_access 0
Core_0_DTLB_writeback_hit 0
Core_0_DTLB_writeback_miss 0
Core_0_DTLB_writeback_MPKI 0
Core_0_DTLB_writeback_miss_rate 0
Core_0_DTLB_prefetch_requested 0
Core_0_DTLB_prefetch_issued 0
Core_0_DTLB_prefetch_useful 0
Core_0_DTLB_prefetch_useless 0
Core_0_DTLB_prefetch_late 0
Core_0_DTLB_prefetch_accuracy 0
Core_0_DTLB_prefetch_coverage 0
Core_0_DTLB_total_eviction 1945629

Core_0_STLB_total_access 2103439
Core_0_STLB_total_hit 2081085
Core_0_STLB_total_miss 22354
Core_0_STLB_total_MPKI 0.22354
Core_0_STLB_total_miss_rate 0.0106274
Core_0_STLB_demand_access 2103439
Core_0_STLB_demand_hit 2081085
Core_0_STLB_demand_miss 22354
Core_0_STLB_demand_MPKI 0.22354
Core_0_STLB_demand_miss_rate 0.0106274
Core_0_STLB_load_access 2103439
Core_0_STLB_load_hit 2081085
Core_0_STLB_load_miss 22354
Core_0_STLB_load_MPKI 0.22354
Core_0_STLB_load_miss_rate 0.0106274
Core_0_STLB_rfo_access 0
Core_0_STLB_rfo_hit 0
Core_0_STLB_rfo_miss 0
Core_0_STLB_rfo_MPKI 0
Core_0_STLB_rfo_miss_rate 0
Core_0_STLB_prefetch_access 0
Core_0_STLB_prefetch_hit 0
Core_0_STLB_prefetch_miss 0
Core_0_STLB_prefetch_MPKI 0
Core_0_STLB_prefetch_miss_rate 0
Core_0_STLB_writeback_access 0
Core_0_STLB_writeback_hit 0
Core_0_STLB_writeback_miss 0
Core_0_STLB_writeback_MPKI 0
Core_0_STLB_writeback_miss_rate 0
Core_0_STLB_prefetch_requested 0
Core_0_STLB_prefetch_issued 0
Core_0_STLB_prefetch_useful 0
Core_0_STLB_prefetch_useless 0
Core_0_STLB_prefetch_late 0
Core_0_STLB_prefetch_accuracy 0
Core_0_STLB_prefetch_coverage 0
Core_0_STLB_total_eviction 440609

Core_0_L1I_total_access 15240429
Core_0_L1I_total_hit 15188522
Core_0_L1I_total_miss 51907
Core_0_L1I_total_MPKI 0.51907
Core_0_L1I_total_miss_rate 0.00340588
Core_0_L1I_demand_access 15240429
Core_0_L1I_demand_hit 15188522
Core_0_L1I_demand_miss 51907
Core_0_L1I_demand_MPKI 0.51907
Core_0_L1I_demand_miss_rate 0.00340588
Core_0_L1I_load_access 15240429
Core_0_L1I_load_hit 15188522
Core_0_L1I_load_miss 51907
Core_0_L1I_load_MPKI 0.51907
Core_0_L1I_load_miss_rate 0.00340588
Core_0_L1I_rfo_access 0
Core_0_L1I_rfo_hit 0
Core_0_L1I_rfo_miss 0
Core_0_L1I_rfo_MPKI 0
Core_0_L1I_rfo_miss_rate 0
Core_0_L1I_prefetch_access 0
Core_0_L1I_prefetch_hit 0
Core_0_L1I_prefetch_miss 0
Core_0_L1I_prefetch_MPKI 0
Core_0_L1I_prefetch_miss_rate 0
Core_0_L1I_writeback_access 0
Core_0_L1I_writeback_hit 0
Core_0_L1I_writeback_miss 0
Core_0_L1I_writeback_MPKI 0
Core_0_L1I_writeback_miss_rate 0
Core_0_L1I_prefetch_requested 0
Core_0_L1I_prefetch_issued 0
Core_0_L1I_prefetch_useful 0
Core_0_L1I_prefetch_useless 0
Core_0_L1I_prefetch_late 0
Core_0_L1I_prefetch_accuracy 0
Core_0_L1I_prefetch_coverage 0
Core_0_L1I_total_eviction 38597

Core_0_L1D_total_access 36789145
Core_0_L1D_total_hit 33963058
Core_0_L1D_total_miss 2826087
Core_0_L1D_total_MPKI 28.2609
Core_0_L1D_total_miss_rate 0.0768185
Core_0_L1D_demand_access 18864969
Core_0_L1D_demand_hit 16824322
Core_0_L1D_demand_miss 2040647
Core_0_L1D_demand_MPKI 20.4065
Core_0_L1D_demand_miss_rate 0.108171
Core_0_L1D_load_access 18864969
Core_0_L1D_load_hit 16824322
Core_0_L1D_load_miss 2040647
Core_0_L1D_load_MPKI 20.4065
Core_0_L1D_load_miss_rate 0.108171
Core_0_L1D_rfo_access 0
Core_0_L1D_rfo_hit 0
Core_0_L1D_rfo_miss 0
Core_0_L1D_rfo_MPKI 0
Core_0_L1D_rfo_miss_rate 0
Core_0_L1D_prefetch_access 103076
Core_0_L1D_prefetch_hit 5742
Core_0_L1D_prefetch_miss 97334
Core_0_L1D_prefetch_MPKI 0.97334
Core_0_L1D_prefetch_miss_rate 0.944294
Core_0_L1D_writeback_access 17821100
Core_0_L1D_writeback_hit 17132994
Core_0_L1D_writeback_miss 688106
Core_0_L1D_writeback_MPKI 6.88106
Core_0_L1D_writeback_miss_rate 0.0386119
Core_0_L1D_prefetch_requested 103088
Core_0_L1D_prefetch_issued 103075
Core_0_L1D_prefetch_useful 3074
Core_0_L1D_prefetch_useless 3688
Core_0_L1D_prefetch_late 19
Core_0_L1D_prefetch_accuracy 0.0298229
Core_0_L1D_prefetch_coverage 0.00150412
Core_0_L1D_total_eviction 1841559

Core_0_L2C_total_access 2908352
Core_0_L2C_total_hit 1619170
Core_0_L2C_total_miss 1289182
Core_0_L2C_total_MPKI 12.8918
Core_0_L2C_total_miss_rate 0.443269
Core_0_L2C_demand_access 1860147
Core_0_L2C_demand_hit 660497
Core_0_L2C_demand_miss 1199650
Core_0_L2C_demand_MPKI 11.9965
Core_0_L2C_demand_miss_rate 0.644922
Core_0_L2C_load_access 1621773
Core_0_L2C_load_hit 575835
Core_0_L2C_load_miss 1045938
Core_0_L2C_load_MPKI 10.4594
Core_0_L2C_load_miss_rate 0.644935
Core_0_L2C_rfo_access 238374
Core_0_L2C_rfo_hit 84662
Core_0_L2C_rfo_miss 153712
Core_0_L2C_rfo_MPKI 1.53712
Core_0_L2C_rfo_miss_rate 0.644835
Core_0_L2C_prefetch_access 138950
Core_0_L2C_prefetch_hit 50402
Core_0_L2C_prefetch_miss 88548
Core_0_L2C_prefetch_MPKI 0.88548
Core_0_L2C_prefetch_miss_rate 0.637265
Core_0_L2C_writeback_access 909255
Core_0_L2C_writeback_hit 908271
Core_0_L2C_writeback_miss 984
Core_0_L2C_writeback_MPKI 0.00984
Core_0_L2C_writeback_miss_rate 0.0010822
Core_0_L2C_prefetch_requested 42229
Core_0_L2C_prefetch_issued 42229
Core_0_L2C_prefetch_useful 11448
Core_0_L2C_prefetch_useless 6395
Core_0_L2C_prefetch_late 4
Core_0_L2C_prefetch_accuracy 0.271093
Core_0_L2C_prefetch_coverage 0.00945258
Core_0_L2C_total_eviction 1297179

Core_0_LLC_total_access 1898031
Core_0_LLC_total_hit 650118
Core_0_LLC_total_miss 1247913
Core_0_LLC_total_MPKI 12.4791
Core_0_LLC_total_miss_rate 0.657478
Core_0_LLC_demand_access 1199410
Core_0_LLC_demand_hit 312595
Core_0_LLC_demand_miss 886815
Core_0_LLC_demand_MPKI 8.86815
Core_0_LLC_demand_miss_rate 0.739376
Core_0_LLC_load_access 1045698
Core_0_LLC_load_hit 242538
Core_0_LLC_load_miss 803160
Core_0_LLC_load_MPKI 8.0316
Core_0_LLC_load_miss_rate 0.768061
Core_0_LLC_rfo_access 153712
Core_0_LLC_rfo_hit 70057
Core_0_LLC_rfo_miss 83655
Core_0_LLC_rfo_MPKI 0.83655
Core_0_LLC_rfo_miss_rate 0.544232
Core_0_LLC_prefetch_access 85800
Core_0_LLC_prefetch_hit 6614
Core_0_LLC_prefetch_miss 79186
Core_0_LLC_prefetch_MPKI 0.79186
Core_0_LLC_prefetch_miss_rate 0.922914
Core_0_LLC_writeback_access 612821
Core_0_LLC_writeback_hit 330909
Core_0_LLC_writeback_miss 281912
Core_0_LLC_writeback_MPKI 2.81912
Core_0_LLC_writeback_miss_rate 0.460023
Core_0_LLC_prefetch_requested 0
Core_0_LLC_prefetch_issued 0
Core_0_LLC_prefetch_useful 0
Core_0_LLC_prefetch_useless 0
Core_0_LLC_prefetch_late 0
Core_0_LLC_prefetch_accuracy 0
Core_0_LLC_prefetch_coverage 0
Core_0_LLC_total_eviction 1257440

[DRAM Statistics]
Channel_0_RQ_row_buffer_hit 9198
Channel_0_RQ_row_buffer_miss 966321
Channel_0_WQ_row_buffer_hit 117244
Channel_0_WQ_row_buffer_miss 276301
Channel_0_WQ_full 0
Channel_0_dbus_congested 4116184
DRAM_total_RQ_row_buffer_hit 9198
DRAM_total_RQ_row_buffer_miss 966321
DRAM_total_WQ_row_buffer_hit 117244
DRAM_total_WQ_row_buffer_miss 276301
DRAM_total_WQ_full 0
DRAM_total_dbus_congested 4116184
DRAM_avg_congested_cycle 17.8274

======STLB miss causes ========
Core_0_STLB_miss_cause_breakdown
Core_0_STLB_cause_Demand_Data_miss 0
Core_0_STLB_cause_Demand_Data_miss_rate 0
Core_0_STLB_cause_Demand_Instruction_miss 0
Core_0_STLB_cause_Demand_Instruction_miss_rate 0
Core_0_STLB_cause_L1D_Prefetch_miss 22354
Core_0_STLB_cause_L1D_Prefetch_miss_rate 0.0106274
Core_0_STLB_cause_L1I_Prefetch_miss 0
Core_0_STLB_cause_L1I_Prefetch_miss_rate 0
Core_0_STLB_cause_Other_miss 0
Core_0_STLB_cause_Other_miss_rate 0
Core_0_STLB_Demand_miss 0
Core_0_STLB_Demand_miss_rate 0
Core_0_STLB_L1D_Prefetch_miss 22354
Core_0_STLB_L1D_Prefetch_miss_rate 0.0106274
Core_0_STLB_Other_miss 0
Core_0_STLB_Other_miss_rate 0
BERTI TO_L1: 21714 TO_L2: 174908 TO_L2_BC_MSHR: 0
BERTI AVG_LAT: 77.5268 NUM_TRACK_LATENCY: 2752527 NUM_CANT_TRACK_LATENCY: 0
BERTI CROSS_PAGE 150647 NO_CROSS_PAGE: 45975
BERTI FOUND_BERTI: 6703553 NO_FOUND_BERTI: 41982311
BERTI AVERAGE_ISSUED: 1.28193
