[VMEM] WARNING: physical memory size is smaller than virtual memory size.

*** ChampSim Multicore Out-of-Order Simulator ***
Warmup Instructions: 50000000
Simulation Instructions: 100000000
Number of CPUs: 1
Page size: 4096
STLB ideal mode: demand
STLB ideal fill: on
Core 0: /data2/zcq/champsim_traces_gap/bfs.twitter-160B.champsimtrace.xz
VBerti Prefetcher
BERTI HASH ENTANGLING
BERTI IP MASK ffff
Off-chip DRAM Size: 16 GiB Channels: 1 Width: 64-bit Data Rate: 3205 MT/s
Warmup halting CPU 0 at instruction 50000005 cycle 10455728 for remainder of phase
Warmup finished CPU 0 instructions: 50000005 cycles: 10455728 cumulative IPC: 4.782 (Simulation time: 00 hr 02 min 14 sec)
Warmup complete CPU 0 instructions: 50000005 cycles: 10455728 cumulative IPC: 4.782 (Simulation time: 00 hr 02 min 14 sec)
Simulation finished CPU 0 instructions: 100000004 cycles: 478850363 cumulative IPC: 0.2088 (Simulation time: 00 hr 31 min 58 sec)
Simulation complete CPU 0 instructions: 100000004 cycles: 478850363 cumulative IPC: 0.2088 (Simulation time: 00 hr 31 min 58 sec)

ChampSim completed all CPUs

=== Simulation ===
CPU 0 runs /data2/zcq/champsim_traces_gap/bfs.twitter-160B.champsimtrace.xz

Region of Interest Statistics

CPU 0 cumulative IPC: 0.2088 instructions: 100000004 cycles: 478850363
CPU 0 Branch Prediction Accuracy: 82.69% MPKI: 32.56 Average ROB Occupancy at Mispredict: 10.99
Branch type MPKI
BRANCH_DIRECT_JUMP: 0
BRANCH_INDIRECT: 0
BRANCH_CONDITIONAL: 32.56
BRANCH_DIRECT_CALL: 0
BRANCH_INDIRECT_CALL: 0
BRANCH_RETURN: 0

cpu0->cpu0_STLB TOTAL        ACCESS:    3572095 HIT:    3532984 MISS:      39111 MSHR_MERGE:          0
cpu0->cpu0_STLB LOAD         ACCESS:    3572095 HIT:    3532984 MISS:      39111 MSHR_MERGE:          0
cpu0->cpu0_STLB RFO          ACCESS:          0 HIT:          0 MISS:          0 MSHR_MERGE:          0
cpu0->cpu0_STLB PREFETCH     ACCESS:          0 HIT:          0 MISS:          0 MSHR_MERGE:          0
cpu0->cpu0_STLB WRITE        ACCESS:          0 HIT:          0 MISS:          0 MSHR_MERGE:          0
cpu0->cpu0_STLB TRANSLATION  ACCESS:          0 HIT:          0 MISS:          0 MSHR_MERGE:          0
cpu0->cpu0_STLB PREFETCH REQUESTED:          0 ISSUED:          0 USEFUL:          0 USELESS:          0 LATE:          0
cpu0->cpu0_STLB AVERAGE MISS LATENCY: 293.1 cycles
cpu0->cpu0_L2C TOTAL        ACCESS:   17561855 HIT:   11560823 MISS:    6001032 MSHR_MERGE:     786417
cpu0->cpu0_L2C LOAD         ACCESS:    5092667 HIT:    1539843 MISS:    3552824 MSHR_MERGE:      27139
cpu0->cpu0_L2C RFO          ACCESS:          0 HIT:          0 MISS:          0 MSHR_MERGE:          0
cpu0->cpu0_L2C PREFETCH     ACCESS:   12234524 HIT:    9800061 MISS:    2434463 MSHR_MERGE:     759278
cpu0->cpu0_L2C WRITE        ACCESS:     213916 HIT:     213622 MISS:        294 MSHR_MERGE:          0
cpu0->cpu0_L2C TRANSLATION  ACCESS:      20748 HIT:       7297 MISS:      13451 MSHR_MERGE:          0
cpu0->cpu0_L2C PREFETCH REQUESTED:    2044935 ISSUED:    2044726 USEFUL:     143809 USELESS:     162353 LATE:       5891
cpu0->cpu0_L2C AVERAGE MISS LATENCY: 127.8 cycles
cpu0->cpu0_L1I TOTAL        ACCESS:      36562 HIT:      36562 MISS:          0 MSHR_MERGE:          0
cpu0->cpu0_L1I LOAD         ACCESS:      36562 HIT:      36562 MISS:          0 MSHR_MERGE:          0
cpu0->cpu0_L1I RFO          ACCESS:          0 HIT:          0 MISS:          0 MSHR_MERGE:          0
cpu0->cpu0_L1I PREFETCH     ACCESS:          0 HIT:          0 MISS:          0 MSHR_MERGE:          0
cpu0->cpu0_L1I WRITE        ACCESS:          0 HIT:          0 MISS:          0 MSHR_MERGE:          0
cpu0->cpu0_L1I TRANSLATION  ACCESS:          0 HIT:          0 MISS:          0 MSHR_MERGE:          0
cpu0->cpu0_L1I PREFETCH REQUESTED:          0 ISSUED:          0 USEFUL:          0 USELESS:          0 LATE:          0
cpu0->cpu0_L1I AVERAGE MISS LATENCY: - cycles
cpu0->cpu0_L1D TOTAL        ACCESS:   60620644 HIT:   43548975 MISS:   17071669 MSHR_MERGE:    1620574
cpu0->cpu0_L1D LOAD         ACCESS:   25181788 HIT:   18522561 MISS:    6659227 MSHR_MERGE:    1566561
cpu0->cpu0_L1D RFO          ACCESS:          0 HIT:          0 MISS:          0 MSHR_MERGE:          0
cpu0->cpu0_L1D PREFETCH     ACCESS:   31824943 HIT:   21433314 MISS:   10391629 MSHR_MERGE:      53948
cpu0->cpu0_L1D WRITE        ACCESS:    3535454 HIT:    3535454 MISS:          0 MSHR_MERGE:          0
cpu0->cpu0_L1D TRANSLATION  ACCESS:      78459 HIT:      57646 MISS:      20813 MSHR_MERGE:         65
cpu0->cpu0_L1D PREFETCH REQUESTED:   52063936 ISSUED:   31824935 USEFUL:     632513 USELESS:      18983 LATE:        874
cpu0->cpu0_L1D AVERAGE MISS LATENCY: 97.88 cycles
cpu0->cpu0_ITLB TOTAL        ACCESS:      28835 HIT:      28835 MISS:          0 MSHR_MERGE:          0
cpu0->cpu0_ITLB LOAD         ACCESS:      28835 HIT:      28835 MISS:          0 MSHR_MERGE:          0
cpu0->cpu0_ITLB RFO          ACCESS:          0 HIT:          0 MISS:          0 MSHR_MERGE:          0
cpu0->cpu0_ITLB PREFETCH     ACCESS:          0 HIT:          0 MISS:          0 MSHR_MERGE:          0
cpu0->cpu0_ITLB WRITE        ACCESS:          0 HIT:          0 MISS:          0 MSHR_MERGE:          0
cpu0->cpu0_ITLB TRANSLATION  ACCESS:          0 HIT:          0 MISS:          0 MSHR_MERGE:          0
cpu0->cpu0_ITLB PREFETCH REQUESTED:          0 ISSUED:          0 USEFUL:          0 USELESS:          0 LATE:          0
cpu0->cpu0_ITLB AVERAGE MISS LATENCY: - cycles
cpu0->cpu0_DTLB TOTAL        ACCESS:   48108945 HIT:   44256548 MISS:    3852397 MSHR_MERGE:     280302
cpu0->cpu0_DTLB LOAD         ACCESS:   48108945 HIT:   44256548 MISS:    3852397 MSHR_MERGE:     280302
cpu0->cpu0_DTLB RFO          ACCESS:          0 HIT:          0 MISS:          0 MSHR_MERGE:          0
cpu0->cpu0_DTLB PREFETCH     ACCESS:          0 HIT:          0 MISS:          0 MSHR_MERGE:          0
cpu0->cpu0_DTLB WRITE        ACCESS:          0 HIT:          0 MISS:          0 MSHR_MERGE:          0
cpu0->cpu0_DTLB TRANSLATION  ACCESS:          0 HIT:          0 MISS:          0 MSHR_MERGE:          0
cpu0->cpu0_DTLB PREFETCH REQUESTED:          0 ISSUED:          0 USEFUL:          0 USELESS:          0 LATE:          0
cpu0->cpu0_DTLB AVERAGE MISS LATENCY: 8.267 cycles
cpu0->LLC TOTAL        ACCESS:    5425038 HIT:    1633715 MISS:    3791323 MSHR_MERGE:        678
cpu0->LLC LOAD         ACCESS:    3525685 HIT:    1561414 MISS:    1964271 MSHR_MERGE:          2
cpu0->LLC RFO          ACCESS:          0 HIT:          0 MISS:          0 MSHR_MERGE:          0
cpu0->LLC PREFETCH     ACCESS:    1675185 HIT:       4135 MISS:    1671050 MSHR_MERGE:        676
cpu0->LLC WRITE        ACCESS:     210717 HIT:      68057 MISS:     142660 MSHR_MERGE:          0
cpu0->LLC TRANSLATION  ACCESS:      13451 HIT:        109 MISS:      13342 MSHR_MERGE:          0
cpu0->LLC PREFETCH REQUESTED:          0 ISSUED:          0 USEFUL:          0 USELESS:          0 LATE:          0
cpu0->LLC AVERAGE MISS LATENCY: 188.1 cycles

DRAM Statistics

Channel 0 RQ ROW_BUFFER_HIT:     115992
  ROW_BUFFER_MISS:    3531990
  AVG DBUS CONGESTED CYCLE: 15.33
Channel 0 WQ ROW_BUFFER_HIT:      61823
  ROW_BUFFER_MISS:     145287
  FULL:          0
Channel 0 REFRESHES ISSUED:      39904

[ROI Statistics]
[System Configuration]
num_cpus 1
cpu_freq 4000
fetch_width 6
decode_width 6
dispatch_width 6
execute_width 6
lq_width 2
sq_width 2
retire_width 6
scheduler_size 128
branch_mispredict_penalty 15
rob_size 352
lq_size 128
sq_size 72
ifetch_buffer_size 64
decode_buffer_size 32
dispatch_buffer_size 32
register_file_size 288
decode_latency 1
dispatch_latency 1
schedule_latency 1
execute_latency 1
page_size 4096
block_size 64
core_0_itlb_set 16
core_0_itlb_way 4
core_0_itlb_rq_size 16
core_0_itlb_wq_size 16
core_0_itlb_pq_size 0
core_0_itlb_mshr_size 8
core_0_itlb_hit_latency 1
core_0_itlb_fill_latency 1
core_0_itlb_max_tag_check 2
core_0_itlb_max_fill 2
core_0_dtlb_set 16
core_0_dtlb_way 4
core_0_dtlb_rq_size 16
core_0_dtlb_wq_size 16
core_0_dtlb_pq_size 0
core_0_dtlb_mshr_size 8
core_0_dtlb_hit_latency 1
core_0_dtlb_fill_latency 1
core_0_dtlb_max_tag_check 2
core_0_dtlb_max_fill 2
core_0_stlb_set 128
core_0_stlb_way 12
core_0_stlb_rq_size 32
core_0_stlb_wq_size 32
core_0_stlb_pq_size 0
core_0_stlb_mshr_size 16
core_0_stlb_hit_latency 4
core_0_stlb_fill_latency 4
core_0_stlb_max_tag_check 1
core_0_stlb_max_fill 1
core_0_l1i_set 64
core_0_l1i_way 8
core_0_l1i_rq_size 64
core_0_l1i_wq_size 64
core_0_l1i_pq_size 32
core_0_l1i_mshr_size 8
core_0_l1i_hit_latency 2
core_0_l1i_fill_latency 2
core_0_l1i_max_tag_check 2
core_0_l1i_max_fill 2
core_0_l1d_set 64
core_0_l1d_way 12
core_0_l1d_rq_size 64
core_0_l1d_wq_size 64
core_0_l1d_pq_size 8
core_0_l1d_mshr_size 16
core_0_l1d_hit_latency 2
core_0_l1d_fill_latency 3
core_0_l1d_max_tag_check 2
core_0_l1d_max_fill 2
core_0_l2c_set 1024
core_0_l2c_way 8
core_0_l2c_rq_size 32
core_0_l2c_wq_size 32
core_0_l2c_pq_size 16
core_0_l2c_mshr_size 32
core_0_l2c_hit_latency 5
core_0_l2c_fill_latency 5
core_0_l2c_max_tag_check 1
core_0_l2c_max_fill 1
llc_set 2048
llc_way 16
llc_rq_size 32
llc_wq_size 32
llc_pq_size 32
llc_mshr_size 64
llc_hit_latency 10
llc_fill_latency 10
llc_max_tag_check 1
llc_max_fill 1
dram_channels 1
dram_ranks 1
dram_bankgroups 8
dram_banks 4
dram_rows 65536
dram_columns 1024
dram_channel_width 8
dram_rq_size 64
dram_wq_size 64
dram_size 17179869184
core_0_itlb_prefetcher no
core_0_dtlb_prefetcher no
core_0_stlb_prefetcher no
core_0_l1i_prefetcher next_line
core_0_l1d_prefetcher vberti
core_0_l2c_prefetcher ip_stride
llc_prefetcher no
llc_replacement drrip

Core_0_instructions 100000004
Core_0_cycles 478850363
Core_0_IPC 0.208834
Core_0_branch_prediction_accuracy 82.6861
Core_0_branch_MPKI 32.5601
Core_0_average_ROB_occupancy_at_mispredict 10.9884

Core_0_ITLB_total_access 28835
Core_0_ITLB_total_hit 28835
Core_0_ITLB_total_miss 0
Core_0_ITLB_total_MPKI 0
Core_0_ITLB_total_miss_rate 0
Core_0_ITLB_demand_access 28835
Core_0_ITLB_demand_hit 28835
Core_0_ITLB_demand_miss 0
Core_0_ITLB_demand_MPKI 0
Core_0_ITLB_demand_miss_rate 0
Core_0_ITLB_load_access 28835
Core_0_ITLB_load_hit 28835
Core_0_ITLB_load_miss 0
Core_0_ITLB_load_MPKI 0
Core_0_ITLB_load_miss_rate 0
Core_0_ITLB_rfo_access 0
Core_0_ITLB_rfo_hit 0
Core_0_ITLB_rfo_miss 0
Core_0_ITLB_rfo_MPKI 0
Core_0_ITLB_rfo_miss_rate 0
Core_0_ITLB_prefetch_access 0
Core_0_ITLB_prefetch_hit 0
Core_0_ITLB_prefetch_miss 0
Core_0_ITLB_prefetch_MPKI 0
Core_0_ITLB_prefetch_miss_rate 0
Core_0_ITLB_writeback_access 0
Core_0_ITLB_writeback_hit 0
Core_0_ITLB_writeback_miss 0
Core_0_ITLB_writeback_MPKI 0
Core_0_ITLB_writeback_miss_rate 0
Core_0_ITLB_prefetch_requested 0
Core_0_ITLB_prefetch_issued 0
Core_0_ITLB_prefetch_useful 0
Core_0_ITLB_prefetch_useless 0
Core_0_ITLB_prefetch_late 0
Core_0_ITLB_prefetch_accuracy 0
Core_0_ITLB_prefetch_coverage 0
Core_0_ITLB_total_eviction 0

Core_0_DTLB_total_access 48108945
Core_0_DTLB_total_hit 44256548
Core_0_DTLB_total_miss 3852397
Core_0_DTLB_total_MPKI 38.524
Core_0_DTLB_total_miss_rate 0.0800765
Core_0_DTLB_demand_access 48108945
Core_0_DTLB_demand_hit 44256548
Core_0_DTLB_demand_miss 3852397
Core_0_DTLB_demand_MPKI 38.524
Core_0_DTLB_demand_miss_rate 0.0800765
Core_0_DTLB_load_access 48108945
Core_0_DTLB_load_hit 44256548
Core_0_DTLB_load_miss 3852397
Core_0_DTLB_load_MPKI 38.524
Core_0_DTLB_load_miss_rate 0.0800765
Core_0_DTLB_rfo_access 0
Core_0_DTLB_rfo_hit 0
Core_0_DTLB_rfo_miss 0
Core_0_DTLB_rfo_MPKI 0
Core_0_DTLB_rfo_miss_rate 0
Core_0_DTLB_prefetch_access 0
Core_0_DTLB_prefetch_hit 0
Core_0_DTLB_prefetch_miss 0
Core_0_DTLB_prefetch_MPKI 0
Core_0_DTLB_prefetch_miss_rate 0
Core_0_DTLB_writeback_access 0
Core_0_DTLB_writeback_hit 0
Core_0_DTLB_writeback_miss 0
Core_0_DTLB_writeback_MPKI 0
Core_0_DTLB_writeback_miss_rate 0
Core_0_DTLB_prefetch_requested 0
Core_0_DTLB_prefetch_issued 0
Core_0_DTLB_prefetch_useful 0
Core_0_DTLB_prefetch_useless 0
Core_0_DTLB_prefetch_late 0
Core_0_DTLB_prefetch_accuracy 0
Core_0_DTLB_prefetch_coverage 0
Core_0_DTLB_total_eviction 3572095

Core_0_STLB_total_access 3572095
Core_0_STLB_total_hit 3532984
Core_0_STLB_total_miss 39111
Core_0_STLB_total_MPKI 0.39111
Core_0_STLB_total_miss_rate 0.010949
Core_0_STLB_demand_access 3572095
Core_0_STLB_demand_hit 3532984
Core_0_STLB_demand_miss 39111
Core_0_STLB_demand_MPKI 0.39111
Core_0_STLB_demand_miss_rate 0.010949
Core_0_STLB_load_access 3572095
Core_0_STLB_load_hit 3532984
Core_0_STLB_load_miss 39111
Core_0_STLB_load_MPKI 0.39111
Core_0_STLB_load_miss_rate 0.010949
Core_0_STLB_rfo_access 0
Core_0_STLB_rfo_hit 0
Core_0_STLB_rfo_miss 0
Core_0_STLB_rfo_MPKI 0
Core_0_STLB_rfo_miss_rate 0
Core_0_STLB_prefetch_access 0
Core_0_STLB_prefetch_hit 0
Core_0_STLB_prefetch_miss 0
Core_0_STLB_prefetch_MPKI 0
Core_0_STLB_prefetch_miss_rate 0
Core_0_STLB_writeback_access 0
Core_0_STLB_writeback_hit 0
Core_0_STLB_writeback_miss 0
Core_0_STLB_writeback_MPKI 0
Core_0_STLB_writeback_miss_rate 0
Core_0_STLB_prefetch_requested 0
Core_0_STLB_prefetch_issued 0
Core_0_STLB_prefetch_useful 0
Core_0_STLB_prefetch_useless 0
Core_0_STLB_prefetch_late 0
Core_0_STLB_prefetch_accuracy 0
Core_0_STLB_prefetch_coverage 0
Core_0_STLB_total_eviction 276937

Core_0_L1I_total_access 36562
Core_0_L1I_total_hit 36562
Core_0_L1I_total_miss 0
Core_0_L1I_total_MPKI 0
Core_0_L1I_total_miss_rate 0
Core_0_L1I_demand_access 36562
Core_0_L1I_demand_hit 36562
Core_0_L1I_demand_miss 0
Core_0_L1I_demand_MPKI 0
Core_0_L1I_demand_miss_rate 0
Core_0_L1I_load_access 36562
Core_0_L1I_load_hit 36562
Core_0_L1I_load_miss 0
Core_0_L1I_load_MPKI 0
Core_0_L1I_load_miss_rate 0
Core_0_L1I_rfo_access 0
Core_0_L1I_rfo_hit 0
Core_0_L1I_rfo_miss 0
Core_0_L1I_rfo_MPKI 0
Core_0_L1I_rfo_miss_rate 0
Core_0_L1I_prefetch_access 0
Core_0_L1I_prefetch_hit 0
Core_0_L1I_prefetch_miss 0
Core_0_L1I_prefetch_MPKI 0
Core_0_L1I_prefetch_miss_rate 0
Core_0_L1I_writeback_access 0
Core_0_L1I_writeback_hit 0
Core_0_L1I_writeback_miss 0
Core_0_L1I_writeback_MPKI 0
Core_0_L1I_writeback_miss_rate 0
Core_0_L1I_prefetch_requested 0
Core_0_L1I_prefetch_issued 0
Core_0_L1I_prefetch_useful 0
Core_0_L1I_prefetch_useless 0
Core_0_L1I_prefetch_late 0
Core_0_L1I_prefetch_accuracy 0
Core_0_L1I_prefetch_coverage 0
Core_0_L1I_total_eviction 0

Core_0_L1D_total_access 60542185
Core_0_L1D_total_hit 43491329
Core_0_L1D_total_miss 17050856
Core_0_L1D_total_MPKI 170.509
Core_0_L1D_total_miss_rate 0.281636
Core_0_L1D_demand_access 25181788
Core_0_L1D_demand_hit 18522561
Core_0_L1D_demand_miss 6659227
Core_0_L1D_demand_MPKI 66.5923
Core_0_L1D_demand_miss_rate 0.264446
Core_0_L1D_load_access 25181788
Core_0_L1D_load_hit 18522561
Core_0_L1D_load_miss 6659227
Core_0_L1D_load_MPKI 66.5923
Core_0_L1D_load_miss_rate 0.264446
Core_0_L1D_rfo_access 0
Core_0_L1D_rfo_hit 0
Core_0_L1D_rfo_miss 0
Core_0_L1D_rfo_MPKI 0
Core_0_L1D_rfo_miss_rate 0
Core_0_L1D_prefetch_access 31824943
Core_0_L1D_prefetch_hit 21433314
Core_0_L1D_prefetch_miss 10391629
Core_0_L1D_prefetch_MPKI 103.916
Core_0_L1D_prefetch_miss_rate 0.326525
Core_0_L1D_writeback_access 3535454
Core_0_L1D_writeback_hit 3535454
Core_0_L1D_writeback_miss 0
Core_0_L1D_writeback_MPKI 0
Core_0_L1D_writeback_miss_rate 0
Core_0_L1D_prefetch_requested 52063936
Core_0_L1D_prefetch_issued 31824935
Core_0_L1D_prefetch_useful 632513
Core_0_L1D_prefetch_useless 18983
Core_0_L1D_prefetch_late 874
Core_0_L1D_prefetch_accuracy 0.0198748
Core_0_L1D_prefetch_coverage 0.0867438
Core_0_L1D_total_eviction 5764915

Core_0_L2C_total_access 17541107
Core_0_L2C_total_hit 11553526
Core_0_L2C_total_miss 5987581
Core_0_L2C_total_MPKI 59.8758
Core_0_L2C_total_miss_rate 0.341346
Core_0_L2C_demand_access 5092667
Core_0_L2C_demand_hit 1539843
Core_0_L2C_demand_miss 3552824
Core_0_L2C_demand_MPKI 35.5282
Core_0_L2C_demand_miss_rate 0.697635
Core_0_L2C_load_access 5092667
Core_0_L2C_load_hit 1539843
Core_0_L2C_load_miss 3552824
Core_0_L2C_load_MPKI 35.5282
Core_0_L2C_load_miss_rate 0.697635
Core_0_L2C_rfo_access 0
Core_0_L2C_rfo_hit 0
Core_0_L2C_rfo_miss 0
Core_0_L2C_rfo_MPKI 0
Core_0_L2C_rfo_miss_rate 0
Core_0_L2C_prefetch_access 12234524
Core_0_L2C_prefetch_hit 9800061
Core_0_L2C_prefetch_miss 2434463
Core_0_L2C_prefetch_MPKI 24.3446
Core_0_L2C_prefetch_miss_rate 0.198983
Core_0_L2C_writeback_access 213916
Core_0_L2C_writeback_hit 213622
Core_0_L2C_writeback_miss 294
Core_0_L2C_writeback_MPKI 0.00294
Core_0_L2C_writeback_miss_rate 0.00137437
Core_0_L2C_prefetch_requested 2044935
Core_0_L2C_prefetch_issued 2044726
Core_0_L2C_prefetch_useful 143809
Core_0_L2C_prefetch_useless 162353
Core_0_L2C_prefetch_late 5891
Core_0_L2C_prefetch_accuracy 0.0703317
Core_0_L2C_prefetch_coverage 0.0389027
Core_0_L2C_total_eviction 5213536

Core_0_LLC_total_access 5411587
Core_0_LLC_total_hit 1633606
Core_0_LLC_total_miss 3777981
Core_0_LLC_total_MPKI 37.7798
Core_0_LLC_total_miss_rate 0.698128
Core_0_LLC_demand_access 3525685
Core_0_LLC_demand_hit 1561414
Core_0_LLC_demand_miss 1964271
Core_0_LLC_demand_MPKI 19.6427
Core_0_LLC_demand_miss_rate 0.557132
Core_0_LLC_load_access 3525685
Core_0_LLC_load_hit 1561414
Core_0_LLC_load_miss 1964271
Core_0_LLC_load_MPKI 19.6427
Core_0_LLC_load_miss_rate 0.557132
Core_0_LLC_rfo_access 0
Core_0_LLC_rfo_hit 0
Core_0_LLC_rfo_miss 0
Core_0_LLC_rfo_MPKI 0
Core_0_LLC_rfo_miss_rate 0
Core_0_LLC_prefetch_access 1675185
Core_0_LLC_prefetch_hit 4135
Core_0_LLC_prefetch_miss 1671050
Core_0_LLC_prefetch_MPKI 16.7105
Core_0_LLC_prefetch_miss_rate 0.997532
Core_0_LLC_writeback_access 210717
Core_0_LLC_writeback_hit 68057
Core_0_LLC_writeback_miss 142660
Core_0_LLC_writeback_MPKI 1.4266
Core_0_LLC_writeback_miss_rate 0.677022
Core_0_LLC_prefetch_requested 0
Core_0_LLC_prefetch_issued 0
Core_0_LLC_prefetch_useful 0
Core_0_LLC_prefetch_useless 0
Core_0_LLC_prefetch_late 0
Core_0_LLC_prefetch_accuracy 0
Core_0_LLC_prefetch_coverage 0
Core_0_LLC_total_eviction 3790642

[DRAM Statistics]
Channel_0_RQ_row_buffer_hit 115992
Channel_0_RQ_row_buffer_miss 3531990
Channel_0_WQ_row_buffer_hit 61823
Channel_0_WQ_row_buffer_miss 145287
Channel_0_WQ_full 0
Channel_0_dbus_congested 7180410
DRAM_total_RQ_row_buffer_hit 115992
DRAM_total_RQ_row_buffer_miss 3531990
DRAM_total_WQ_row_buffer_hit 61823
DRAM_total_WQ_row_buffer_miss 145287
DRAM_total_WQ_full 0
DRAM_total_dbus_congested 7180410
DRAM_avg_congested_cycle 15.3309

======STLB miss causes ========
Core_0_STLB_miss_cause_breakdown
Core_0_STLB_cause_Demand_Data_miss 0
Core_0_STLB_cause_Demand_Data_miss_rate 0
Core_0_STLB_cause_Demand_Instruction_miss 0
Core_0_STLB_cause_Demand_Instruction_miss_rate 0
Core_0_STLB_cause_L1D_Prefetch_miss 39111
Core_0_STLB_cause_L1D_Prefetch_miss_rate 0.010949
Core_0_STLB_cause_L1I_Prefetch_miss 0
Core_0_STLB_cause_L1I_Prefetch_miss_rate 0
Core_0_STLB_cause_Other_miss 0
Core_0_STLB_cause_Other_miss_rate 0
Core_0_STLB_Demand_miss 0
Core_0_STLB_Demand_miss_rate 0
Core_0_STLB_L1D_Prefetch_miss 39111
Core_0_STLB_L1D_Prefetch_miss_rate 0.010949
Core_0_STLB_Other_miss 0
Core_0_STLB_Other_miss_rate 0
BERTI TO_L1: 61167577 TO_L2: 33212476 TO_L2_BC_MSHR: 27167
BERTI AVG_LAT: 85.2733 NUM_TRACK_LATENCY: 7223446 NUM_CANT_TRACK_LATENCY: 0
BERTI CROSS_PAGE 9406340 NO_CROSS_PAGE: 84973713
BERTI FOUND_BERTI: 25667478 NO_FOUND_BERTI: 12732224
BERTI AVERAGE_ISSUED: 3.25281
