[VMEM] WARNING: physical memory size is smaller than virtual memory size.

*** ChampSim Multicore Out-of-Order Simulator ***
Warmup Instructions: 50000000
Simulation Instructions: 100000000
Number of CPUs: 1
Page size: 4096
STLB ideal mode: demand
STLB ideal fill: on
Core 0: /data2/zcq/champsim_traces_gap/bfs.twitter-242B.champsimtrace.xz
VBerti Prefetcher
BERTI HASH ENTANGLING
BERTI IP MASK ffff
Off-chip DRAM Size: 16 GiB Channels: 1 Width: 64-bit Data Rate: 3205 MT/s
Warmup halting CPU 0 at instruction 50000000 cycle 10974776 for remainder of phase
Warmup finished CPU 0 instructions: 50000000 cycles: 10974776 cumulative IPC: 4.556 (Simulation time: 00 hr 02 min 17 sec)
Warmup complete CPU 0 instructions: 50000000 cycles: 10974776 cumulative IPC: 4.556 (Simulation time: 00 hr 02 min 17 sec)
Simulation finished CPU 0 instructions: 100000000 cycles: 399634531 cumulative IPC: 0.2502 (Simulation time: 00 hr 27 min 10 sec)
Simulation complete CPU 0 instructions: 100000000 cycles: 399634531 cumulative IPC: 0.2502 (Simulation time: 00 hr 27 min 10 sec)

ChampSim completed all CPUs

=== Simulation ===
CPU 0 runs /data2/zcq/champsim_traces_gap/bfs.twitter-242B.champsimtrace.xz

Region of Interest Statistics

CPU 0 cumulative IPC: 0.2502 instructions: 100000000 cycles: 399634531
CPU 0 Branch Prediction Accuracy: 81.64% MPKI: 37.85 Average ROB Occupancy at Mispredict: 11.89
Branch type MPKI
BRANCH_DIRECT_JUMP: 0
BRANCH_INDIRECT: 0
BRANCH_CONDITIONAL: 37.85
BRANCH_DIRECT_CALL: 0
BRANCH_INDIRECT_CALL: 0
BRANCH_RETURN: 0

cpu0->cpu0_STLB TOTAL        ACCESS:     854690 HIT:     829716 MISS:      24974 MSHR_MERGE:          0
cpu0->cpu0_STLB LOAD         ACCESS:     854690 HIT:     829716 MISS:      24974 MSHR_MERGE:          0
cpu0->cpu0_STLB RFO          ACCESS:          0 HIT:          0 MISS:          0 MSHR_MERGE:          0
cpu0->cpu0_STLB PREFETCH     ACCESS:          0 HIT:          0 MISS:          0 MSHR_MERGE:          0
cpu0->cpu0_STLB WRITE        ACCESS:          0 HIT:          0 MISS:          0 MSHR_MERGE:          0
cpu0->cpu0_STLB TRANSLATION  ACCESS:          0 HIT:          0 MISS:          0 MSHR_MERGE:          0
cpu0->cpu0_STLB PREFETCH REQUESTED:          0 ISSUED:          0 USEFUL:          0 USELESS:          0 LATE:          0
cpu0->cpu0_STLB AVERAGE MISS LATENCY: 243.9 cycles
cpu0->cpu0_L2C TOTAL        ACCESS:    6200592 HIT:    2841945 MISS:    3358647 MSHR_MERGE:     480690
cpu0->cpu0_L2C LOAD         ACCESS:    1375565 HIT:     141116 MISS:    1234449 MSHR_MERGE:        103
cpu0->cpu0_L2C RFO          ACCESS:       3208 HIT:       3208 MISS:          0 MSHR_MERGE:          0
cpu0->cpu0_L2C PREFETCH     ACCESS:    4455137 HIT:    2334889 MISS:    2120248 MSHR_MERGE:     480587
cpu0->cpu0_L2C WRITE        ACCESS:     362801 HIT:     362615 MISS:        186 MSHR_MERGE:          0
cpu0->cpu0_L2C TRANSLATION  ACCESS:       3881 HIT:        117 MISS:       3764 MSHR_MERGE:          0
cpu0->cpu0_L2C PREFETCH REQUESTED:    1525631 ISSUED:    1525631 USEFUL:     764934 USELESS:     125178 LATE:         77
cpu0->cpu0_L2C AVERAGE MISS LATENCY: 187.6 cycles
cpu0->cpu0_L1I TOTAL        ACCESS:        200 HIT:        200 MISS:          0 MSHR_MERGE:          0
cpu0->cpu0_L1I LOAD         ACCESS:        200 HIT:        200 MISS:          0 MSHR_MERGE:          0
cpu0->cpu0_L1I RFO          ACCESS:          0 HIT:          0 MISS:          0 MSHR_MERGE:          0
cpu0->cpu0_L1I PREFETCH     ACCESS:          0 HIT:          0 MISS:          0 MSHR_MERGE:          0
cpu0->cpu0_L1I WRITE        ACCESS:          0 HIT:          0 MISS:          0 MSHR_MERGE:          0
cpu0->cpu0_L1I TRANSLATION  ACCESS:          0 HIT:          0 MISS:          0 MSHR_MERGE:          0
cpu0->cpu0_L1I PREFETCH REQUESTED:          0 ISSUED:          0 USEFUL:          0 USELESS:          0 LATE:          0
cpu0->cpu0_L1I AVERAGE MISS LATENCY: - cycles
cpu0->cpu0_L1D TOTAL        ACCESS:   70698641 HIT:   66370867 MISS:    4327774 MSHR_MERGE:      12581
cpu0->cpu0_L1D LOAD         ACCESS:   18385750 HIT:   17004631 MISS:    1381119 MSHR_MERGE:       5554
cpu0->cpu0_L1D RFO          ACCESS:          0 HIT:          0 MISS:          0 MSHR_MERGE:          0
cpu0->cpu0_L1D PREFETCH     ACCESS:   50548629 HIT:   47612271 MISS:    2936358 MSHR_MERGE:       3819
cpu0->cpu0_L1D WRITE        ACCESS:    1714094 HIT:    1707678 MISS:       6416 MSHR_MERGE:       3208
cpu0->cpu0_L1D TRANSLATION  ACCESS:      50168 HIT:      46287 MISS:       3881 MSHR_MERGE:          0
cpu0->cpu0_L1D PREFETCH REQUESTED:  145594140 ISSUED:   50548622 USEFUL:    1536934 USELESS:      25936 LATE:        573
cpu0->cpu0_L1D AVERAGE MISS LATENCY: 176.9 cycles
cpu0->cpu0_ITLB TOTAL        ACCESS:        158 HIT:        158 MISS:          0 MSHR_MERGE:          0
cpu0->cpu0_ITLB LOAD         ACCESS:        158 HIT:        158 MISS:          0 MSHR_MERGE:          0
cpu0->cpu0_ITLB RFO          ACCESS:          0 HIT:          0 MISS:          0 MSHR_MERGE:          0
cpu0->cpu0_ITLB PREFETCH     ACCESS:          0 HIT:          0 MISS:          0 MSHR_MERGE:          0
cpu0->cpu0_ITLB WRITE        ACCESS:          0 HIT:          0 MISS:          0 MSHR_MERGE:          0
cpu0->cpu0_ITLB TRANSLATION  ACCESS:          0 HIT:          0 MISS:          0 MSHR_MERGE:          0
cpu0->cpu0_ITLB PREFETCH REQUESTED:          0 ISSUED:          0 USEFUL:          0 USELESS:          0 LATE:          0
cpu0->cpu0_ITLB AVERAGE MISS LATENCY: - cycles
cpu0->cpu0_DTLB TOTAL        ACCESS:   51457113 HIT:   50565210 MISS:     891903 MSHR_MERGE:      37213
cpu0->cpu0_DTLB LOAD         ACCESS:   51457113 HIT:   50565210 MISS:     891903 MSHR_MERGE:      37213
cpu0->cpu0_DTLB RFO          ACCESS:          0 HIT:          0 MISS:          0 MSHR_MERGE:          0
cpu0->cpu0_DTLB PREFETCH     ACCESS:          0 HIT:          0 MISS:          0 MSHR_MERGE:          0
cpu0->cpu0_DTLB WRITE        ACCESS:          0 HIT:          0 MISS:          0 MSHR_MERGE:          0
cpu0->cpu0_DTLB TRANSLATION  ACCESS:          0 HIT:          0 MISS:          0 MSHR_MERGE:          0
cpu0->cpu0_DTLB PREFETCH REQUESTED:          0 ISSUED:          0 USEFUL:          0 USELESS:          0 LATE:          0
cpu0->cpu0_DTLB AVERAGE MISS LATENCY: 12.16 cycles
cpu0->LLC TOTAL        ACCESS:    3237326 HIT:     485739 MISS:    2751587 MSHR_MERGE:       1269
cpu0->LLC LOAD         ACCESS:    1234346 HIT:     167303 MISS:    1067043 MSHR_MERGE:          3
cpu0->LLC RFO          ACCESS:          0 HIT:          0 MISS:          0 MSHR_MERGE:          0
cpu0->LLC PREFETCH     ACCESS:    1639661 HIT:       1891 MISS:    1637770 MSHR_MERGE:       1266
cpu0->LLC WRITE        ACCESS:     359555 HIT:     316292 MISS:      43263 MSHR_MERGE:          0
cpu0->LLC TRANSLATION  ACCESS:       3764 HIT:        253 MISS:       3511 MSHR_MERGE:          0
cpu0->LLC PREFETCH REQUESTED:          0 ISSUED:          0 USEFUL:          0 USELESS:          0 LATE:          0
cpu0->LLC AVERAGE MISS LATENCY: 191.2 cycles

DRAM Statistics

Channel 0 RQ ROW_BUFFER_HIT:      23491
  ROW_BUFFER_MISS:    2683564
  AVG DBUS CONGESTED CYCLE: 17.58
Channel 0 WQ ROW_BUFFER_HIT:     142390
  ROW_BUFFER_MISS:     217289
  FULL:          0
Channel 0 REFRESHES ISSUED:      33303

[ROI Statistics]
[System Configuration]
num_cpus 1
cpu_freq 4000
fetch_width 6
decode_width 6
dispatch_width 6
execute_width 6
lq_width 2
sq_width 2
retire_width 6
scheduler_size 128
branch_mispredict_penalty 15
rob_size 352
lq_size 128
sq_size 72
ifetch_buffer_size 64
decode_buffer_size 32
dispatch_buffer_size 32
register_file_size 288
decode_latency 1
dispatch_latency 1
schedule_latency 1
execute_latency 1
page_size 4096
block_size 64
core_0_itlb_set 16
core_0_itlb_way 4
core_0_itlb_rq_size 16
core_0_itlb_wq_size 16
core_0_itlb_pq_size 0
core_0_itlb_mshr_size 8
core_0_itlb_hit_latency 1
core_0_itlb_fill_latency 1
core_0_itlb_max_tag_check 2
core_0_itlb_max_fill 2
core_0_dtlb_set 16
core_0_dtlb_way 4
core_0_dtlb_rq_size 16
core_0_dtlb_wq_size 16
core_0_dtlb_pq_size 0
core_0_dtlb_mshr_size 8
core_0_dtlb_hit_latency 1
core_0_dtlb_fill_latency 1
core_0_dtlb_max_tag_check 2
core_0_dtlb_max_fill 2
core_0_stlb_set 128
core_0_stlb_way 12
core_0_stlb_rq_size 32
core_0_stlb_wq_size 32
core_0_stlb_pq_size 0
core_0_stlb_mshr_size 16
core_0_stlb_hit_latency 4
core_0_stlb_fill_latency 4
core_0_stlb_max_tag_check 1
core_0_stlb_max_fill 1
core_0_l1i_set 64
core_0_l1i_way 8
core_0_l1i_rq_size 64
core_0_l1i_wq_size 64
core_0_l1i_pq_size 32
core_0_l1i_mshr_size 8
core_0_l1i_hit_latency 2
core_0_l1i_fill_latency 2
core_0_l1i_max_tag_check 2
core_0_l1i_max_fill 2
core_0_l1d_set 64
core_0_l1d_way 12
core_0_l1d_rq_size 64
core_0_l1d_wq_size 64
core_0_l1d_pq_size 8
core_0_l1d_mshr_size 16
core_0_l1d_hit_latency 2
core_0_l1d_fill_latency 3
core_0_l1d_max_tag_check 2
core_0_l1d_max_fill 2
core_0_l2c_set 1024
core_0_l2c_way 8
core_0_l2c_rq_size 32
core_0_l2c_wq_size 32
core_0_l2c_pq_size 16
core_0_l2c_mshr_size 32
core_0_l2c_hit_latency 5
core_0_l2c_fill_latency 5
core_0_l2c_max_tag_check 1
core_0_l2c_max_fill 1
llc_set 2048
llc_way 16
llc_rq_size 32
llc_wq_size 32
llc_pq_size 32
llc_mshr_size 64
llc_hit_latency 10
llc_fill_latency 10
llc_max_tag_check 1
llc_max_fill 1
dram_channels 1
dram_ranks 1
dram_bankgroups 8
dram_banks 4
dram_rows 65536
dram_columns 1024
dram_channel_width 8
dram_rq_size 64
dram_wq_size 64
dram_size 17179869184
core_0_itlb_prefetcher no
core_0_dtlb_prefetcher no
core_0_stlb_prefetcher no
core_0_l1i_prefetcher next_line
core_0_l1d_prefetcher vberti
core_0_l2c_prefetcher ip_stride
llc_prefetcher no
llc_replacement drrip

Core_0_instructions 100000000
Core_0_cycles 399634531
Core_0_IPC 0.250229
Core_0_branch_prediction_accuracy 81.6416
Core_0_branch_MPKI 37.8542
Core_0_average_ROB_occupancy_at_mispredict 11.8937

Core_0_ITLB_total_access 158
Core_0_ITLB_total_hit 158
Core_0_ITLB_total_miss 0
Core_0_ITLB_total_MPKI 0
Core_0_ITLB_total_miss_rate 0
Core_0_ITLB_demand_access 158
Core_0_ITLB_demand_hit 158
Core_0_ITLB_demand_miss 0
Core_0_ITLB_demand_MPKI 0
Core_0_ITLB_demand_miss_rate 0
Core_0_ITLB_load_access 158
Core_0_ITLB_load_hit 158
Core_0_ITLB_load_miss 0
Core_0_ITLB_load_MPKI 0
Core_0_ITLB_load_miss_rate 0
Core_0_ITLB_rfo_access 0
Core_0_ITLB_rfo_hit 0
Core_0_ITLB_rfo_miss 0
Core_0_ITLB_rfo_MPKI 0
Core_0_ITLB_rfo_miss_rate 0
Core_0_ITLB_prefetch_access 0
Core_0_ITLB_prefetch_hit 0
Core_0_ITLB_prefetch_miss 0
Core_0_ITLB_prefetch_MPKI 0
Core_0_ITLB_prefetch_miss_rate 0
Core_0_ITLB_writeback_access 0
Core_0_ITLB_writeback_hit 0
Core_0_ITLB_writeback_miss 0
Core_0_ITLB_writeback_MPKI 0
Core_0_ITLB_writeback_miss_rate 0
Core_0_ITLB_prefetch_requested 0
Core_0_ITLB_prefetch_issued 0
Core_0_ITLB_prefetch_useful 0
Core_0_ITLB_prefetch_useless 0
Core_0_ITLB_prefetch_late 0
Core_0_ITLB_prefetch_accuracy 0
Core_0_ITLB_prefetch_coverage 0
Core_0_ITLB_total_eviction 0

Core_0_DTLB_total_access 51457113
Core_0_DTLB_total_hit 50565210
Core_0_DTLB_total_miss 891903
Core_0_DTLB_total_MPKI 8.91903
Core_0_DTLB_total_miss_rate 0.0173329
Core_0_DTLB_demand_access 51457113
Core_0_DTLB_demand_hit 50565210
Core_0_DTLB_demand_miss 891903
Core_0_DTLB_demand_MPKI 8.91903
Core_0_DTLB_demand_miss_rate 0.0173329
Core_0_DTLB_load_access 51457113
Core_0_DTLB_load_hit 50565210
Core_0_DTLB_load_miss 891903
Core_0_DTLB_load_MPKI 8.91903
Core_0_DTLB_load_miss_rate 0.0173329
Core_0_DTLB_rfo_access 0
Core_0_DTLB_rfo_hit 0
Core_0_DTLB_rfo_miss 0
Core_0_DTLB_rfo_MPKI 0
Core_0_DTLB_rfo_miss_rate 0
Core_0_DTLB_prefetch_access 0
Core_0_DTLB_prefetch_hit 0
Core_0_DTLB_prefetch_miss 0
Core_0_DTLB_prefetch_MPKI 0
Core_0_DTLB_prefetch_miss_rate 0
Core_0_DTLB_writeback_access 0
Core_0_DTLB_writeback_hit 0
Core_0_DTLB_writeback_miss 0
Core_0_DTLB_writeback_MPKI 0
Core_0_DTLB_writeback_miss_rate 0
Core_0_DTLB_prefetch_requested 0
Core_0_DTLB_prefetch_issued 0
Core_0_DTLB_prefetch_useful 0
Core_0_DTLB_prefetch_useless 0
Core_0_DTLB_prefetch_late 0
Core_0_DTLB_prefetch_accuracy 0
Core_0_DTLB_prefetch_coverage 0
Core_0_DTLB_total_eviction 854690

Core_0_STLB_total_access 854690
Core_0_STLB_total_hit 829716
Core_0_STLB_total_miss 24974
Core_0_STLB_total_MPKI 0.24974
Core_0_STLB_total_miss_rate 0.02922
Core_0_STLB_demand_access 854690
Core_0_STLB_demand_hit 829716
Core_0_STLB_demand_miss 24974
Core_0_STLB_demand_MPKI 0.24974
Core_0_STLB_demand_miss_rate 0.02922
Core_0_STLB_load_access 854690
Core_0_STLB_load_hit 829716
Core_0_STLB_load_miss 24974
Core_0_STLB_load_MPKI 0.24974
Core_0_STLB_load_miss_rate 0.02922
Core_0_STLB_rfo_access 0
Core_0_STLB_rfo_hit 0
Core_0_STLB_rfo_miss 0
Core_0_STLB_rfo_MPKI 0
Core_0_STLB_rfo_miss_rate 0
Core_0_STLB_prefetch_access 0
Core_0_STLB_prefetch_hit 0
Core_0_STLB_prefetch_miss 0
Core_0_STLB_prefetch_MPKI 0
Core_0_STLB_prefetch_miss_rate 0
Core_0_STLB_writeback_access 0
Core_0_STLB_writeback_hit 0
Core_0_STLB_writeback_miss 0
Core_0_STLB_writeback_MPKI 0
Core_0_STLB_writeback_miss_rate 0
Core_0_STLB_prefetch_requested 0
Core_0_STLB_prefetch_issued 0
Core_0_STLB_prefetch_useful 0
Core_0_STLB_prefetch_useless 0
Core_0_STLB_prefetch_late 0
Core_0_STLB_prefetch_accuracy 0
Core_0_STLB_prefetch_coverage 0
Core_0_STLB_total_eviction 228238

Core_0_L1I_total_access 200
Core_0_L1I_total_hit 200
Core_0_L1I_total_miss 0
Core_0_L1I_total_MPKI 0
Core_0_L1I_total_miss_rate 0
Core_0_L1I_demand_access 200
Core_0_L1I_demand_hit 200
Core_0_L1I_demand_miss 0
Core_0_L1I_demand_MPKI 0
Core_0_L1I_demand_miss_rate 0
Core_0_L1I_load_access 200
Core_0_L1I_load_hit 200
Core_0_L1I_load_miss 0
Core_0_L1I_load_MPKI 0
Core_0_L1I_load_miss_rate 0
Core_0_L1I_rfo_access 0
Core_0_L1I_rfo_hit 0
Core_0_L1I_rfo_miss 0
Core_0_L1I_rfo_MPKI 0
Core_0_L1I_rfo_miss_rate 0
Core_0_L1I_prefetch_access 0
Core_0_L1I_prefetch_hit 0
Core_0_L1I_prefetch_miss 0
Core_0_L1I_prefetch_MPKI 0
Core_0_L1I_prefetch_miss_rate 0
Core_0_L1I_writeback_access 0
Core_0_L1I_writeback_hit 0
Core_0_L1I_writeback_miss 0
Core_0_L1I_writeback_MPKI 0
Core_0_L1I_writeback_miss_rate 0
Core_0_L1I_prefetch_requested 0
Core_0_L1I_prefetch_issued 0
Core_0_L1I_prefetch_useful 0
Core_0_L1I_prefetch_useless 0
Core_0_L1I_prefetch_late 0
Core_0_L1I_prefetch_accuracy 0
Core_0_L1I_prefetch_coverage 0
Core_0_L1I_total_eviction 0

Core_0_L1D_total_access 70648473
Core_0_L1D_total_hit 66324580
Core_0_L1D_total_miss 4323893
Core_0_L1D_total_MPKI 43.2389
Core_0_L1D_total_miss_rate 0.0612029
Core_0_L1D_demand_access 18385750
Core_0_L1D_demand_hit 17004631
Core_0_L1D_demand_miss 1381119
Core_0_L1D_demand_MPKI 13.8112
Core_0_L1D_demand_miss_rate 0.075119
Core_0_L1D_load_access 18385750
Core_0_L1D_load_hit 17004631
Core_0_L1D_load_miss 1381119
Core_0_L1D_load_MPKI 13.8112
Core_0_L1D_load_miss_rate 0.075119
Core_0_L1D_rfo_access 0
Core_0_L1D_rfo_hit 0
Core_0_L1D_rfo_miss 0
Core_0_L1D_rfo_MPKI 0
Core_0_L1D_rfo_miss_rate 0
Core_0_L1D_prefetch_access 50548629
Core_0_L1D_prefetch_hit 47612271
Core_0_L1D_prefetch_miss 2936358
Core_0_L1D_prefetch_MPKI 29.3636
Core_0_L1D_prefetch_miss_rate 0.0580898
Core_0_L1D_writeback_access 1714094
Core_0_L1D_writeback_hit 1707678
Core_0_L1D_writeback_miss 6416
Core_0_L1D_writeback_MPKI 0.06416
Core_0_L1D_writeback_miss_rate 0.00374309
Core_0_L1D_prefetch_requested 145594140
Core_0_L1D_prefetch_issued 50548622
Core_0_L1D_prefetch_useful 1536934
Core_0_L1D_prefetch_useless 25936
Core_0_L1D_prefetch_late 573
Core_0_L1D_prefetch_accuracy 0.0304051
Core_0_L1D_prefetch_coverage 0.526698
Core_0_L1D_total_eviction 2945544

Core_0_L2C_total_access 6196711
Core_0_L2C_total_hit 2841828
Core_0_L2C_total_miss 3354883
Core_0_L2C_total_MPKI 33.5488
Core_0_L2C_total_miss_rate 0.541397
Core_0_L2C_demand_access 1378773
Core_0_L2C_demand_hit 144324
Core_0_L2C_demand_miss 1234449
Core_0_L2C_demand_MPKI 12.3445
Core_0_L2C_demand_miss_rate 0.895324
Core_0_L2C_load_access 1375565
Core_0_L2C_load_hit 141116
Core_0_L2C_load_miss 1234449
Core_0_L2C_load_MPKI 12.3445
Core_0_L2C_load_miss_rate 0.897412
Core_0_L2C_rfo_access 3208
Core_0_L2C_rfo_hit 3208
Core_0_L2C_rfo_miss 0
Core_0_L2C_rfo_MPKI 0
Core_0_L2C_rfo_miss_rate 0
Core_0_L2C_prefetch_access 4455137
Core_0_L2C_prefetch_hit 2334889
Core_0_L2C_prefetch_miss 2120248
Core_0_L2C_prefetch_MPKI 21.2025
Core_0_L2C_prefetch_miss_rate 0.475911
Core_0_L2C_writeback_access 362801
Core_0_L2C_writeback_hit 362615
Core_0_L2C_writeback_miss 186
Core_0_L2C_writeback_MPKI 0.00186
Core_0_L2C_writeback_miss_rate 0.000512678
Core_0_L2C_prefetch_requested 1525631
Core_0_L2C_prefetch_issued 1525631
Core_0_L2C_prefetch_useful 764934
Core_0_L2C_prefetch_useless 125178
Core_0_L2C_prefetch_late 77
Core_0_L2C_prefetch_accuracy 0.501389
Core_0_L2C_prefetch_coverage 0.382585
Core_0_L2C_total_eviction 2874847

Core_0_LLC_total_access 3233562
Core_0_LLC_total_hit 485486
Core_0_LLC_total_miss 2748076
Core_0_LLC_total_MPKI 27.4808
Core_0_LLC_total_miss_rate 0.84986
Core_0_LLC_demand_access 1234346
Core_0_LLC_demand_hit 167303
Core_0_LLC_demand_miss 1067043
Core_0_LLC_demand_MPKI 10.6704
Core_0_LLC_demand_miss_rate 0.86446
Core_0_LLC_load_access 1234346
Core_0_LLC_load_hit 167303
Core_0_LLC_load_miss 1067043
Core_0_LLC_load_MPKI 10.6704
Core_0_LLC_load_miss_rate 0.86446
Core_0_LLC_rfo_access 0
Core_0_LLC_rfo_hit 0
Core_0_LLC_rfo_miss 0
Core_0_LLC_rfo_MPKI 0
Core_0_LLC_rfo_miss_rate 0
Core_0_LLC_prefetch_access 1639661
Core_0_LLC_prefetch_hit 1891
Core_0_LLC_prefetch_miss 1637770
Core_0_LLC_prefetch_MPKI 16.3777
Core_0_LLC_prefetch_miss_rate 0.998847
Core_0_LLC_writeback_access 359555
Core_0_LLC_writeback_hit 316292
Core_0_LLC_writeback_miss 43263
Core_0_LLC_writeback_MPKI 0.43263
Core_0_LLC_writeback_miss_rate 0.120324
Core_0_LLC_prefetch_requested 0
Core_0_LLC_prefetch_issued 0
Core_0_LLC_prefetch_useful 0
Core_0_LLC_prefetch_useless 0
Core_0_LLC_prefetch_late 0
Core_0_LLC_prefetch_accuracy 0
Core_0_LLC_prefetch_coverage 0
Core_0_LLC_total_eviction 2750318

[DRAM Statistics]
Channel_0_RQ_row_buffer_hit 23491
Channel_0_RQ_row_buffer_miss 2683564
Channel_0_WQ_row_buffer_hit 142390
Channel_0_WQ_row_buffer_miss 217289
Channel_0_WQ_full 0
Channel_0_dbus_congested 7330523
DRAM_total_RQ_row_buffer_hit 23491
DRAM_total_RQ_row_buffer_miss 2683564
DRAM_total_WQ_row_buffer_hit 142390
DRAM_total_WQ_row_buffer_miss 217289
DRAM_total_WQ_full 0
DRAM_total_dbus_congested 7330523
DRAM_avg_congested_cycle 17.5772

======STLB miss causes ========
Core_0_STLB_miss_cause_breakdown
Core_0_STLB_cause_Demand_Data_miss 0
Core_0_STLB_cause_Demand_Data_miss_rate 0
Core_0_STLB_cause_Demand_Instruction_miss 0
Core_0_STLB_cause_Demand_Instruction_miss_rate 0
Core_0_STLB_cause_L1D_Prefetch_miss 24974
Core_0_STLB_cause_L1D_Prefetch_miss_rate 0.02922
Core_0_STLB_cause_L1I_Prefetch_miss 0
Core_0_STLB_cause_L1I_Prefetch_miss_rate 0
Core_0_STLB_cause_Other_miss 0
Core_0_STLB_cause_Other_miss_rate 0
Core_0_STLB_Demand_miss 0
Core_0_STLB_Demand_miss_rate 0
Core_0_STLB_L1D_Prefetch_miss 24974
Core_0_STLB_L1D_Prefetch_miss_rate 0.02922
Core_0_STLB_Other_miss 0
Core_0_STLB_Other_miss_rate 0
BERTI TO_L1: 172827403 TO_L2: 25768968 TO_L2_BC_MSHR: 95100
BERTI AVG_LAT: 106.373 NUM_TRACK_LATENCY: 4390902 NUM_CANT_TRACK_LATENCY: 0
BERTI CROSS_PAGE 21551411 NO_CROSS_PAGE: 177044960
BERTI FOUND_BERTI: 19441124 NO_FOUND_BERTI: 8190537
BERTI AVERAGE_ISSUED: 3.8387
