[VMEM] WARNING: physical memory size is smaller than virtual memory size.

*** ChampSim Multicore Out-of-Order Simulator ***
Warmup Instructions: 50000000
Simulation Instructions: 100000000
Number of CPUs: 1
Page size: 4096
STLB ideal mode: demand
STLB ideal fill: on
Core 0: /data2/zcq/champsim_traces_gap/bfs.road-128B.champsimtrace.xz
VBerti Prefetcher
BERTI HASH ENTANGLING
BERTI IP MASK ffff
Off-chip DRAM Size: 16 GiB Channels: 1 Width: 64-bit Data Rate: 3205 MT/s
Warmup halting CPU 0 at instruction 50000001 cycle 14104216 for remainder of phase
Warmup finished CPU 0 instructions: 50000001 cycles: 14104216 cumulative IPC: 3.545 (Simulation time: 00 hr 03 min 02 sec)
Warmup complete CPU 0 instructions: 50000001 cycles: 14104216 cumulative IPC: 3.545 (Simulation time: 00 hr 03 min 02 sec)
Simulation finished CPU 0 instructions: 100000001 cycles: 568362017 cumulative IPC: 0.1759 (Simulation time: 00 hr 41 min 38 sec)
Simulation complete CPU 0 instructions: 100000001 cycles: 568362017 cumulative IPC: 0.1759 (Simulation time: 00 hr 41 min 38 sec)

ChampSim completed all CPUs

=== Simulation ===
CPU 0 runs /data2/zcq/champsim_traces_gap/bfs.road-128B.champsimtrace.xz

Region of Interest Statistics

CPU 0 cumulative IPC: 0.1759 instructions: 100000001 cycles: 568362017
CPU 0 Branch Prediction Accuracy: 86.64% MPKI: 23.15 Average ROB Occupancy at Mispredict: 20.46
Branch type MPKI
BRANCH_DIRECT_JUMP: 0.00414
BRANCH_INDIRECT: 0.00828
BRANCH_CONDITIONAL: 23.12
BRANCH_DIRECT_CALL: 0
BRANCH_INDIRECT_CALL: 0.00414
BRANCH_RETURN: 0.01656

cpu0->cpu0_STLB TOTAL        ACCESS:    1528953 HIT:    1524730 MISS:       4223 MSHR_MERGE:          0
cpu0->cpu0_STLB LOAD         ACCESS:    1528953 HIT:    1524730 MISS:       4223 MSHR_MERGE:          0
cpu0->cpu0_STLB RFO          ACCESS:          0 HIT:          0 MISS:          0 MSHR_MERGE:          0
cpu0->cpu0_STLB PREFETCH     ACCESS:          0 HIT:          0 MISS:          0 MSHR_MERGE:          0
cpu0->cpu0_STLB WRITE        ACCESS:          0 HIT:          0 MISS:          0 MSHR_MERGE:          0
cpu0->cpu0_STLB TRANSLATION  ACCESS:          0 HIT:          0 MISS:          0 MSHR_MERGE:          0
cpu0->cpu0_STLB PREFETCH REQUESTED:          0 ISSUED:          0 USEFUL:          0 USELESS:          0 LATE:          0
cpu0->cpu0_STLB AVERAGE MISS LATENCY: 150.5 cycles
cpu0->cpu0_L2C TOTAL        ACCESS:    8669127 HIT:    3310939 MISS:    5358188 MSHR_MERGE:     105104
cpu0->cpu0_L2C LOAD         ACCESS:    5111235 HIT:     219260 MISS:    4891975 MSHR_MERGE:        579
cpu0->cpu0_L2C RFO          ACCESS:      12535 HIT:        838 MISS:      11697 MSHR_MERGE:          0
cpu0->cpu0_L2C PREFETCH     ACCESS:    2015788 HIT:    1563579 MISS:     452209 MSHR_MERGE:     104525
cpu0->cpu0_L2C WRITE        ACCESS:    1526443 HIT:    1526314 MISS:        129 MSHR_MERGE:          0
cpu0->cpu0_L2C TRANSLATION  ACCESS:       3126 HIT:        948 MISS:       2178 MSHR_MERGE:          0
cpu0->cpu0_L2C PREFETCH REQUESTED:     488828 ISSUED:     480651 USEFUL:     118452 USELESS:      29749 LATE:        239
cpu0->cpu0_L2C AVERAGE MISS LATENCY: 85.62 cycles
cpu0->cpu0_L1I TOTAL        ACCESS:    7271912 HIT:    7250822 MISS:      21090 MSHR_MERGE:       6237
cpu0->cpu0_L1I LOAD         ACCESS:    7271912 HIT:    7250822 MISS:      21090 MSHR_MERGE:       6237
cpu0->cpu0_L1I RFO          ACCESS:          0 HIT:          0 MISS:          0 MSHR_MERGE:          0
cpu0->cpu0_L1I PREFETCH     ACCESS:          0 HIT:          0 MISS:          0 MSHR_MERGE:          0
cpu0->cpu0_L1I WRITE        ACCESS:          0 HIT:          0 MISS:          0 MSHR_MERGE:          0
cpu0->cpu0_L1I TRANSLATION  ACCESS:          0 HIT:          0 MISS:          0 MSHR_MERGE:          0
cpu0->cpu0_L1I PREFETCH REQUESTED:          0 ISSUED:          0 USEFUL:          0 USELESS:          0 LATE:          0
cpu0->cpu0_L1I AVERAGE MISS LATENCY: 27.5 cycles
cpu0->cpu0_L1D TOTAL        ACCESS:   96625952 HIT:   89018647 MISS:    7607305 MSHR_MERGE:     957308
cpu0->cpu0_L1D LOAD         ACCESS:   31540862 HIT:   25511437 MISS:    6029425 MSHR_MERGE:     933044
cpu0->cpu0_L1D RFO          ACCESS:          0 HIT:          0 MISS:          0 MSHR_MERGE:          0
cpu0->cpu0_L1D PREFETCH     ACCESS:   54307465 HIT:   52759902 MISS:    1547563 MSHR_MERGE:       9608
cpu0->cpu0_L1D WRITE        ACCESS:   10769029 HIT:   10741841 MISS:      27188 MSHR_MERGE:      14653
cpu0->cpu0_L1D TRANSLATION  ACCESS:       8596 HIT:       5467 MISS:       3129 MSHR_MERGE:          3
cpu0->cpu0_L1D PREFETCH REQUESTED:  128144697 ISSUED:   54307457 USEFUL:     427206 USELESS:      10661 LATE:        132
cpu0->cpu0_L1D AVERAGE MISS LATENCY: 91.08 cycles
cpu0->cpu0_ITLB TOTAL        ACCESS:    7224498 HIT:    7222782 MISS:       1716 MSHR_MERGE:        474
cpu0->cpu0_ITLB LOAD         ACCESS:    7224498 HIT:    7222782 MISS:       1716 MSHR_MERGE:        474
cpu0->cpu0_ITLB RFO          ACCESS:          0 HIT:          0 MISS:          0 MSHR_MERGE:          0
cpu0->cpu0_ITLB PREFETCH     ACCESS:          0 HIT:          0 MISS:          0 MSHR_MERGE:          0
cpu0->cpu0_ITLB WRITE        ACCESS:          0 HIT:          0 MISS:          0 MSHR_MERGE:          0
cpu0->cpu0_ITLB TRANSLATION  ACCESS:          0 HIT:          0 MISS:          0 MSHR_MERGE:          0
cpu0->cpu0_ITLB PREFETCH REQUESTED:          0 ISSUED:          0 USEFUL:          0 USELESS:          0 LATE:          0
cpu0->cpu0_ITLB AVERAGE MISS LATENCY: 5 cycles
cpu0->cpu0_DTLB TOTAL        ACCESS:   74061551 HIT:   72128580 MISS:    1932971 MSHR_MERGE:     405260
cpu0->cpu0_DTLB LOAD         ACCESS:   74061551 HIT:   72128580 MISS:    1932971 MSHR_MERGE:     405260
cpu0->cpu0_DTLB RFO          ACCESS:          0 HIT:          0 MISS:          0 MSHR_MERGE:          0
cpu0->cpu0_DTLB PREFETCH     ACCESS:          0 HIT:          0 MISS:          0 MSHR_MERGE:          0
cpu0->cpu0_DTLB WRITE        ACCESS:          0 HIT:          0 MISS:          0 MSHR_MERGE:          0
cpu0->cpu0_DTLB TRANSLATION  ACCESS:          0 HIT:          0 MISS:          0 MSHR_MERGE:          0
cpu0->cpu0_DTLB PREFETCH REQUESTED:          0 ISSUED:          0 USEFUL:          0 USELESS:          0 LATE:          0
cpu0->cpu0_DTLB AVERAGE MISS LATENCY: 5.419 cycles
cpu0->LLC TOTAL        ACCESS:    6694083 HIT:    4602748 MISS:    2091335 MSHR_MERGE:          2
cpu0->LLC LOAD         ACCESS:    4891396 HIT:    3005889 MISS:    1885507 MSHR_MERGE:          0
cpu0->LLC RFO          ACCESS:      11697 HIT:      11534 MISS:        163 MSHR_MERGE:          0
cpu0->LLC PREFETCH     ACCESS:     347684 HIT:     183509 MISS:     164175 MSHR_MERGE:          2
cpu0->LLC WRITE        ACCESS:    1441128 HIT:    1400541 MISS:      40587 MSHR_MERGE:          0
cpu0->LLC TRANSLATION  ACCESS:       2178 HIT:       1275 MISS:        903 MSHR_MERGE:          0
cpu0->LLC PREFETCH REQUESTED:          0 ISSUED:          0 USEFUL:          0 USELESS:          0 LATE:          0
cpu0->LLC AVERAGE MISS LATENCY: 179 cycles

DRAM Statistics

Channel 0 RQ ROW_BUFFER_HIT:       6681
  ROW_BUFFER_MISS:    2043951
  AVG DBUS CONGESTED CYCLE: 22.19
Channel 0 WQ ROW_BUFFER_HIT:     154373
  ROW_BUFFER_MISS:     290634
  FULL:          0
Channel 0 REFRESHES ISSUED:      47363

[ROI Statistics]
[System Configuration]
num_cpus 1
cpu_freq 4000
fetch_width 6
decode_width 6
dispatch_width 6
execute_width 6
lq_width 2
sq_width 2
retire_width 6
scheduler_size 128
branch_mispredict_penalty 15
rob_size 352
lq_size 128
sq_size 72
ifetch_buffer_size 64
decode_buffer_size 32
dispatch_buffer_size 32
register_file_size 288
decode_latency 1
dispatch_latency 1
schedule_latency 1
execute_latency 1
page_size 4096
block_size 64
core_0_itlb_set 16
core_0_itlb_way 4
core_0_itlb_rq_size 16
core_0_itlb_wq_size 16
core_0_itlb_pq_size 0
core_0_itlb_mshr_size 8
core_0_itlb_hit_latency 1
core_0_itlb_fill_latency 1
core_0_itlb_max_tag_check 2
core_0_itlb_max_fill 2
core_0_dtlb_set 16
core_0_dtlb_way 4
core_0_dtlb_rq_size 16
core_0_dtlb_wq_size 16
core_0_dtlb_pq_size 0
core_0_dtlb_mshr_size 8
core_0_dtlb_hit_latency 1
core_0_dtlb_fill_latency 1
core_0_dtlb_max_tag_check 2
core_0_dtlb_max_fill 2
core_0_stlb_set 128
core_0_stlb_way 12
core_0_stlb_rq_size 32
core_0_stlb_wq_size 32
core_0_stlb_pq_size 0
core_0_stlb_mshr_size 16
core_0_stlb_hit_latency 4
core_0_stlb_fill_latency 4
core_0_stlb_max_tag_check 1
core_0_stlb_max_fill 1
core_0_l1i_set 64
core_0_l1i_way 8
core_0_l1i_rq_size 64
core_0_l1i_wq_size 64
core_0_l1i_pq_size 32
core_0_l1i_mshr_size 8
core_0_l1i_hit_latency 2
core_0_l1i_fill_latency 2
core_0_l1i_max_tag_check 2
core_0_l1i_max_fill 2
core_0_l1d_set 64
core_0_l1d_way 12
core_0_l1d_rq_size 64
core_0_l1d_wq_size 64
core_0_l1d_pq_size 8
core_0_l1d_mshr_size 16
core_0_l1d_hit_latency 2
core_0_l1d_fill_latency 3
core_0_l1d_max_tag_check 2
core_0_l1d_max_fill 2
core_0_l2c_set 1024
core_0_l2c_way 8
core_0_l2c_rq_size 32
core_0_l2c_wq_size 32
core_0_l2c_pq_size 16
core_0_l2c_mshr_size 32
core_0_l2c_hit_latency 5
core_0_l2c_fill_latency 5
core_0_l2c_max_tag_check 1
core_0_l2c_max_fill 1
llc_set 2048
llc_way 16
llc_rq_size 32
llc_wq_size 32
llc_pq_size 32
llc_mshr_size 64
llc_hit_latency 10
llc_fill_latency 10
llc_max_tag_check 1
llc_max_fill 1
dram_channels 1
dram_ranks 1
dram_bankgroups 8
dram_banks 4
dram_rows 65536
dram_columns 1024
dram_channel_width 8
dram_rq_size 64
dram_wq_size 64
dram_size 17179869184
core_0_itlb_prefetcher no
core_0_dtlb_prefetcher no
core_0_stlb_prefetcher no
core_0_l1i_prefetcher next_line
core_0_l1d_prefetcher vberti
core_0_l2c_prefetcher ip_stride
llc_prefetcher no
llc_replacement drrip

Core_0_instructions 100000001
Core_0_cycles 568362017
Core_0_IPC 0.175944
Core_0_branch_prediction_accuracy 86.6379
Core_0_branch_MPKI 23.1525
Core_0_average_ROB_occupancy_at_mispredict 20.4622

Core_0_ITLB_total_access 7224498
Core_0_ITLB_total_hit 7222782
Core_0_ITLB_total_miss 1716
Core_0_ITLB_total_MPKI 0.01716
Core_0_ITLB_total_miss_rate 0.000237525
Core_0_ITLB_demand_access 7224498
Core_0_ITLB_demand_hit 7222782
Core_0_ITLB_demand_miss 1716
Core_0_ITLB_demand_MPKI 0.01716
Core_0_ITLB_demand_miss_rate 0.000237525
Core_0_ITLB_load_access 7224498
Core_0_ITLB_load_hit 7222782
Core_0_ITLB_load_miss 1716
Core_0_ITLB_load_MPKI 0.01716
Core_0_ITLB_load_miss_rate 0.000237525
Core_0_ITLB_rfo_access 0
Core_0_ITLB_rfo_hit 0
Core_0_ITLB_rfo_miss 0
Core_0_ITLB_rfo_MPKI 0
Core_0_ITLB_rfo_miss_rate 0
Core_0_ITLB_prefetch_access 0
Core_0_ITLB_prefetch_hit 0
Core_0_ITLB_prefetch_miss 0
Core_0_ITLB_prefetch_MPKI 0
Core_0_ITLB_prefetch_miss_rate 0
Core_0_ITLB_writeback_access 0
Core_0_ITLB_writeback_hit 0
Core_0_ITLB_writeback_miss 0
Core_0_ITLB_writeback_MPKI 0
Core_0_ITLB_writeback_miss_rate 0
Core_0_ITLB_prefetch_requested 0
Core_0_ITLB_prefetch_issued 0
Core_0_ITLB_prefetch_useful 0
Core_0_ITLB_prefetch_useless 0
Core_0_ITLB_prefetch_late 0
Core_0_ITLB_prefetch_accuracy 0
Core_0_ITLB_prefetch_coverage 0
Core_0_ITLB_total_eviction 1242

Core_0_DTLB_total_access 74061551
Core_0_DTLB_total_hit 72128580
Core_0_DTLB_total_miss 1932971
Core_0_DTLB_total_MPKI 19.3297
Core_0_DTLB_total_miss_rate 0.0260995
Core_0_DTLB_demand_access 74061551
Core_0_DTLB_demand_hit 72128580
Core_0_DTLB_demand_miss 1932971
Core_0_DTLB_demand_MPKI 19.3297
Core_0_DTLB_demand_miss_rate 0.0260995
Core_0_DTLB_load_access 74061551
Core_0_DTLB_load_hit 72128580
Core_0_DTLB_load_miss 1932971
Core_0_DTLB_load_MPKI 19.3297
Core_0_DTLB_load_miss_rate 0.0260995
Core_0_DTLB_rfo_access 0
Core_0_DTLB_rfo_hit 0
Core_0_DTLB_rfo_miss 0
Core_0_DTLB_rfo_MPKI 0
Core_0_DTLB_rfo_miss_rate 0
Core_0_DTLB_prefetch_access 0
Core_0_DTLB_prefetch_hit 0
Core_0_DTLB_prefetch_miss 0
Core_0_DTLB_prefetch_MPKI 0
Core_0_DTLB_prefetch_miss_rate 0
Core_0_DTLB_writeback_access 0
Core_0_DTLB_writeback_hit 0
Core_0_DTLB_writeback_miss 0
Core_0_DTLB_writeback_MPKI 0
Core_0_DTLB_writeback_miss_rate 0
Core_0_DTLB_prefetch_requested 0
Core_0_DTLB_prefetch_issued 0
Core_0_DTLB_prefetch_useful 0
Core_0_DTLB_prefetch_useless 0
Core_0_DTLB_prefetch_late 0
Core_0_DTLB_prefetch_accuracy 0
Core_0_DTLB_prefetch_coverage 0
Core_0_DTLB_total_eviction 1527711

Core_0_STLB_total_access 1528953
Core_0_STLB_total_hit 1524730
Core_0_STLB_total_miss 4223
Core_0_STLB_total_MPKI 0.04223
Core_0_STLB_total_miss_rate 0.00276202
Core_0_STLB_demand_access 1528953
Core_0_STLB_demand_hit 1524730
Core_0_STLB_demand_miss 4223
Core_0_STLB_demand_MPKI 0.04223
Core_0_STLB_demand_miss_rate 0.00276202
Core_0_STLB_load_access 1528953
Core_0_STLB_load_hit 1524730
Core_0_STLB_load_miss 4223
Core_0_STLB_load_MPKI 0.04223
Core_0_STLB_load_miss_rate 0.00276202
Core_0_STLB_rfo_access 0
Core_0_STLB_rfo_hit 0
Core_0_STLB_rfo_miss 0
Core_0_STLB_rfo_MPKI 0
Core_0_STLB_rfo_miss_rate 0
Core_0_STLB_prefetch_access 0
Core_0_STLB_prefetch_hit 0
Core_0_STLB_prefetch_miss 0
Core_0_STLB_prefetch_MPKI 0
Core_0_STLB_prefetch_miss_rate 0
Core_0_STLB_writeback_access 0
Core_0_STLB_writeback_hit 0
Core_0_STLB_writeback_miss 0
Core_0_STLB_writeback_MPKI 0
Core_0_STLB_writeback_miss_rate 0
Core_0_STLB_prefetch_requested 0
Core_0_STLB_prefetch_issued 0
Core_0_STLB_prefetch_useful 0
Core_0_STLB_prefetch_useless 0
Core_0_STLB_prefetch_late 0
Core_0_STLB_prefetch_accuracy 0
Core_0_STLB_prefetch_coverage 0
Core_0_STLB_total_eviction 974031

Core_0_L1I_total_access 7271912
Core_0_L1I_total_hit 7250822
Core_0_L1I_total_miss 21090
Core_0_L1I_total_MPKI 0.2109
Core_0_L1I_total_miss_rate 0.0029002
Core_0_L1I_demand_access 7271912
Core_0_L1I_demand_hit 7250822
Core_0_L1I_demand_miss 21090
Core_0_L1I_demand_MPKI 0.2109
Core_0_L1I_demand_miss_rate 0.0029002
Core_0_L1I_load_access 7271912
Core_0_L1I_load_hit 7250822
Core_0_L1I_load_miss 21090
Core_0_L1I_load_MPKI 0.2109
Core_0_L1I_load_miss_rate 0.0029002
Core_0_L1I_rfo_access 0
Core_0_L1I_rfo_hit 0
Core_0_L1I_rfo_miss 0
Core_0_L1I_rfo_MPKI 0
Core_0_L1I_rfo_miss_rate 0
Core_0_L1I_prefetch_access 0
Core_0_L1I_prefetch_hit 0
Core_0_L1I_prefetch_miss 0
Core_0_L1I_prefetch_MPKI 0
Core_0_L1I_prefetch_miss_rate 0
Core_0_L1I_writeback_access 0
Core_0_L1I_writeback_hit 0
Core_0_L1I_writeback_miss 0
Core_0_L1I_writeback_MPKI 0
Core_0_L1I_writeback_miss_rate 0
Core_0_L1I_prefetch_requested 0
Core_0_L1I_prefetch_issued 0
Core_0_L1I_prefetch_useful 0
Core_0_L1I_prefetch_useless 0
Core_0_L1I_prefetch_late 0
Core_0_L1I_prefetch_accuracy 0
Core_0_L1I_prefetch_coverage 0
Core_0_L1I_total_eviction 14853

Core_0_L1D_total_access 96617356
Core_0_L1D_total_hit 89013180
Core_0_L1D_total_miss 7604176
Core_0_L1D_total_MPKI 76.0418
Core_0_L1D_total_miss_rate 0.078704
Core_0_L1D_demand_access 31540862
Core_0_L1D_demand_hit 25511437
Core_0_L1D_demand_miss 6029425
Core_0_L1D_demand_MPKI 60.2942
Core_0_L1D_demand_miss_rate 0.191162
Core_0_L1D_load_access 31540862
Core_0_L1D_load_hit 25511437
Core_0_L1D_load_miss 6029425
Core_0_L1D_load_MPKI 60.2942
Core_0_L1D_load_miss_rate 0.191162
Core_0_L1D_rfo_access 0
Core_0_L1D_rfo_hit 0
Core_0_L1D_rfo_miss 0
Core_0_L1D_rfo_MPKI 0
Core_0_L1D_rfo_miss_rate 0
Core_0_L1D_prefetch_access 54307465
Core_0_L1D_prefetch_hit 52759902
Core_0_L1D_prefetch_miss 1547563
Core_0_L1D_prefetch_MPKI 15.4756
Core_0_L1D_prefetch_miss_rate 0.0284963
Core_0_L1D_writeback_access 10769029
Core_0_L1D_writeback_hit 10741841
Core_0_L1D_writeback_miss 27188
Core_0_L1D_writeback_MPKI 0.27188
Core_0_L1D_writeback_miss_rate 0.00252465
Core_0_L1D_prefetch_requested 128144697
Core_0_L1D_prefetch_issued 54307457
Core_0_L1D_prefetch_useful 427206
Core_0_L1D_prefetch_useless 10661
Core_0_L1D_prefetch_late 132
Core_0_L1D_prefetch_accuracy 0.00786643
Core_0_L1D_prefetch_coverage 0.0661655
Core_0_L1D_total_eviction 5549927

Core_0_L2C_total_access 8666001
Core_0_L2C_total_hit 3309991
Core_0_L2C_total_miss 5356010
Core_0_L2C_total_MPKI 53.5601
Core_0_L2C_total_miss_rate 0.618049
Core_0_L2C_demand_access 5123770
Core_0_L2C_demand_hit 220098
Core_0_L2C_demand_miss 4903672
Core_0_L2C_demand_MPKI 49.0367
Core_0_L2C_demand_miss_rate 0.957044
Core_0_L2C_load_access 5111235
Core_0_L2C_load_hit 219260
Core_0_L2C_load_miss 4891975
Core_0_L2C_load_MPKI 48.9197
Core_0_L2C_load_miss_rate 0.957102
Core_0_L2C_rfo_access 12535
Core_0_L2C_rfo_hit 838
Core_0_L2C_rfo_miss 11697
Core_0_L2C_rfo_MPKI 0.11697
Core_0_L2C_rfo_miss_rate 0.933147
Core_0_L2C_prefetch_access 2015788
Core_0_L2C_prefetch_hit 1563579
Core_0_L2C_prefetch_miss 452209
Core_0_L2C_prefetch_MPKI 4.52209
Core_0_L2C_prefetch_miss_rate 0.224334
Core_0_L2C_writeback_access 1526443
Core_0_L2C_writeback_hit 1526314
Core_0_L2C_writeback_miss 129
Core_0_L2C_writeback_MPKI 0.00129
Core_0_L2C_writeback_miss_rate 8.45102e-05
Core_0_L2C_prefetch_requested 488828
Core_0_L2C_prefetch_issued 480651
Core_0_L2C_prefetch_useful 118452
Core_0_L2C_prefetch_useless 29749
Core_0_L2C_prefetch_late 239
Core_0_L2C_prefetch_accuracy 0.246441
Core_0_L2C_prefetch_coverage 0.023586
Core_0_L2C_total_eviction 5253054

Core_0_LLC_total_access 6691905
Core_0_LLC_total_hit 4601473
Core_0_LLC_total_miss 2090432
Core_0_LLC_total_MPKI 20.9043
Core_0_LLC_total_miss_rate 0.312382
Core_0_LLC_demand_access 4903093
Core_0_LLC_demand_hit 3017423
Core_0_LLC_demand_miss 1885670
Core_0_LLC_demand_MPKI 18.8567
Core_0_LLC_demand_miss_rate 0.384588
Core_0_LLC_load_access 4891396
Core_0_LLC_load_hit 3005889
Core_0_LLC_load_miss 1885507
Core_0_LLC_load_MPKI 18.8551
Core_0_LLC_load_miss_rate 0.385474
Core_0_LLC_rfo_access 11697
Core_0_LLC_rfo_hit 11534
Core_0_LLC_rfo_miss 163
Core_0_LLC_rfo_MPKI 0.00163
Core_0_LLC_rfo_miss_rate 0.0139352
Core_0_LLC_prefetch_access 347684
Core_0_LLC_prefetch_hit 183509
Core_0_LLC_prefetch_miss 164175
Core_0_LLC_prefetch_MPKI 1.64175
Core_0_LLC_prefetch_miss_rate 0.472196
Core_0_LLC_writeback_access 1441128
Core_0_LLC_writeback_hit 1400541
Core_0_LLC_writeback_miss 40587
Core_0_LLC_writeback_MPKI 0.40587
Core_0_LLC_writeback_miss_rate 0.0281634
Core_0_LLC_prefetch_requested 0
Core_0_LLC_prefetch_issued 0
Core_0_LLC_prefetch_useful 0
Core_0_LLC_prefetch_useless 0
Core_0_LLC_prefetch_late 0
Core_0_LLC_prefetch_accuracy 0
Core_0_LLC_prefetch_coverage 0
Core_0_LLC_total_eviction 2091333

[DRAM Statistics]
Channel_0_RQ_row_buffer_hit 6681
Channel_0_RQ_row_buffer_miss 2043951
Channel_0_WQ_row_buffer_hit 154373
Channel_0_WQ_row_buffer_miss 290634
Channel_0_WQ_full 0
Channel_0_dbus_congested 7429594
DRAM_total_RQ_row_buffer_hit 6681
DRAM_total_RQ_row_buffer_miss 2043951
DRAM_total_WQ_row_buffer_hit 154373
DRAM_total_WQ_row_buffer_miss 290634
DRAM_total_WQ_full 0
DRAM_total_dbus_congested 7429594
DRAM_avg_congested_cycle 22.1879

======STLB miss causes ========
Core_0_STLB_miss_cause_breakdown
Core_0_STLB_cause_Demand_Data_miss 0
Core_0_STLB_cause_Demand_Data_miss_rate 0
Core_0_STLB_cause_Demand_Instruction_miss 0
Core_0_STLB_cause_Demand_Instruction_miss_rate 0
Core_0_STLB_cause_L1D_Prefetch_miss 4223
Core_0_STLB_cause_L1D_Prefetch_miss_rate 0.00276202
Core_0_STLB_cause_L1I_Prefetch_miss 0
Core_0_STLB_cause_L1I_Prefetch_miss_rate 0
Core_0_STLB_cause_Other_miss 0
Core_0_STLB_cause_Other_miss_rate 0
Core_0_STLB_Demand_miss 0
Core_0_STLB_Demand_miss_rate 0
Core_0_STLB_L1D_Prefetch_miss 4223
Core_0_STLB_L1D_Prefetch_miss_rate 0.00276202
Core_0_STLB_Other_miss 0
Core_0_STLB_Other_miss_rate 0
BERTI TO_L1: 149289757 TO_L2: 13399879 TO_L2_BC_MSHR: 56
BERTI AVG_LAT: 63.2636 NUM_TRACK_LATENCY: 8337699 NUM_CANT_TRACK_LATENCY: 0
BERTI CROSS_PAGE 12196253 NO_CROSS_PAGE: 150493383
BERTI FOUND_BERTI: 41719053 NO_FOUND_BERTI: 14074765
BERTI AVERAGE_ISSUED: 3.10165
