[VMEM] WARNING: physical memory size is smaller than virtual memory size.

*** ChampSim Multicore Out-of-Order Simulator ***
Warmup Instructions: 50000000
Simulation Instructions: 100000000
Number of CPUs: 1
Page size: 4096
STLB ideal mode: demand
STLB ideal fill: on
Core 0: /data2/zcq/champsim_traces_gap/bfs.road-112B.champsimtrace.xz
VBerti Prefetcher
BERTI HASH ENTANGLING
BERTI IP MASK ffff
Off-chip DRAM Size: 16 GiB Channels: 1 Width: 64-bit Data Rate: 3205 MT/s
Warmup halting CPU 0 at instruction 50000004 cycle 14168486 for remainder of phase
Warmup finished CPU 0 instructions: 50000004 cycles: 14168486 cumulative IPC: 3.529 (Simulation time: 00 hr 03 min 07 sec)
Warmup complete CPU 0 instructions: 50000004 cycles: 14168486 cumulative IPC: 3.529 (Simulation time: 00 hr 03 min 07 sec)
Simulation finished CPU 0 instructions: 100000000 cycles: 500293291 cumulative IPC: 0.1999 (Simulation time: 00 hr 37 min 24 sec)
Simulation complete CPU 0 instructions: 100000000 cycles: 500293291 cumulative IPC: 0.1999 (Simulation time: 00 hr 37 min 24 sec)

ChampSim completed all CPUs

=== Simulation ===
CPU 0 runs /data2/zcq/champsim_traces_gap/bfs.road-112B.champsimtrace.xz

Region of Interest Statistics

CPU 0 cumulative IPC: 0.1999 instructions: 100000000 cycles: 500293291
CPU 0 Branch Prediction Accuracy: 86.4% MPKI: 23.58 Average ROB Occupancy at Mispredict: 20.07
Branch type MPKI
BRANCH_DIRECT_JUMP: 0.00449
BRANCH_INDIRECT: 0.00898
BRANCH_CONDITIONAL: 23.54
BRANCH_DIRECT_CALL: 0
BRANCH_INDIRECT_CALL: 0.00449
BRANCH_RETURN: 0.01796

cpu0->cpu0_STLB TOTAL        ACCESS:    1301759 HIT:    1297172 MISS:       4587 MSHR_MERGE:          0
cpu0->cpu0_STLB LOAD         ACCESS:    1301759 HIT:    1297172 MISS:       4587 MSHR_MERGE:          0
cpu0->cpu0_STLB RFO          ACCESS:          0 HIT:          0 MISS:          0 MSHR_MERGE:          0
cpu0->cpu0_STLB PREFETCH     ACCESS:          0 HIT:          0 MISS:          0 MSHR_MERGE:          0
cpu0->cpu0_STLB WRITE        ACCESS:          0 HIT:          0 MISS:          0 MSHR_MERGE:          0
cpu0->cpu0_STLB TRANSLATION  ACCESS:          0 HIT:          0 MISS:          0 MSHR_MERGE:          0
cpu0->cpu0_STLB PREFETCH REQUESTED:          0 ISSUED:          0 USEFUL:          0 USELESS:          0 LATE:          0
cpu0->cpu0_STLB AVERAGE MISS LATENCY: 163.7 cycles
cpu0->cpu0_L2C TOTAL        ACCESS:    9961736 HIT:    4858592 MISS:    5103144 MSHR_MERGE:     114740
cpu0->cpu0_L2C LOAD         ACCESS:    4938721 HIT:     375765 MISS:    4562956 MSHR_MERGE:       1068
cpu0->cpu0_L2C RFO          ACCESS:      13297 HIT:       1536 MISS:      11761 MSHR_MERGE:          0
cpu0->cpu0_L2C PREFETCH     ACCESS:    3531791 HIT:    3005876 MISS:     525915 MSHR_MERGE:     113672
cpu0->cpu0_L2C WRITE        ACCESS:    1474530 HIT:    1474527 MISS:          3 MSHR_MERGE:          0
cpu0->cpu0_L2C TRANSLATION  ACCESS:       3397 HIT:        888 MISS:       2509 MSHR_MERGE:          0
cpu0->cpu0_L2C PREFETCH REQUESTED:     869153 ISSUED:     854253 USEFUL:     132051 USELESS:      52216 LATE:        384
cpu0->cpu0_L2C AVERAGE MISS LATENCY: 74.21 cycles
cpu0->cpu0_L1I TOTAL        ACCESS:    7237607 HIT:    7214623 MISS:      22984 MSHR_MERGE:       6763
cpu0->cpu0_L1I LOAD         ACCESS:    7237607 HIT:    7214623 MISS:      22984 MSHR_MERGE:       6763
cpu0->cpu0_L1I RFO          ACCESS:          0 HIT:          0 MISS:          0 MSHR_MERGE:          0
cpu0->cpu0_L1I PREFETCH     ACCESS:          0 HIT:          0 MISS:          0 MSHR_MERGE:          0
cpu0->cpu0_L1I WRITE        ACCESS:          0 HIT:          0 MISS:          0 MSHR_MERGE:          0
cpu0->cpu0_L1I TRANSLATION  ACCESS:          0 HIT:          0 MISS:          0 MSHR_MERGE:          0
cpu0->cpu0_L1I PREFETCH REQUESTED:          0 ISSUED:          0 USEFUL:          0 USELESS:          0 LATE:          0
cpu0->cpu0_L1I AVERAGE MISS LATENCY: 22.33 cycles
cpu0->cpu0_L1D TOTAL        ACCESS:   95923184 HIT:   87345044 MISS:    8578140 MSHR_MERGE:     956678
cpu0->cpu0_L1D LOAD         ACCESS:   31482056 HIT:   25629541 MISS:    5852515 MSHR_MERGE:     930014
cpu0->cpu0_L1D RFO          ACCESS:          0 HIT:          0 MISS:          0 MSHR_MERGE:          0
cpu0->cpu0_L1D PREFETCH     ACCESS:   53719768 HIT:   51025044 MISS:    2694724 MSHR_MERGE:      12457
cpu0->cpu0_L1D WRITE        ACCESS:   10711933 HIT:   10684433 MISS:      27500 MSHR_MERGE:      14203
cpu0->cpu0_L1D TRANSLATION  ACCESS:       9427 HIT:       6026 MISS:       3401 MSHR_MERGE:          4
cpu0->cpu0_L1D PREFETCH REQUESTED:  126187471 ISSUED:   53719760 USEFUL:     421818 USELESS:      10770 LATE:         23
cpu0->cpu0_L1D AVERAGE MISS LATENCY: 77.67 cycles
cpu0->cpu0_ITLB TOTAL        ACCESS:    7185472 HIT:    7182276 MISS:       3196 MSHR_MERGE:       1400
cpu0->cpu0_ITLB LOAD         ACCESS:    7185472 HIT:    7182276 MISS:       3196 MSHR_MERGE:       1400
cpu0->cpu0_ITLB RFO          ACCESS:          0 HIT:          0 MISS:          0 MSHR_MERGE:          0
cpu0->cpu0_ITLB PREFETCH     ACCESS:          0 HIT:          0 MISS:          0 MSHR_MERGE:          0
cpu0->cpu0_ITLB WRITE        ACCESS:          0 HIT:          0 MISS:          0 MSHR_MERGE:          0
cpu0->cpu0_ITLB TRANSLATION  ACCESS:          0 HIT:          0 MISS:          0 MSHR_MERGE:          0
cpu0->cpu0_ITLB PREFETCH REQUESTED:          0 ISSUED:          0 USEFUL:          0 USELESS:          0 LATE:          0
cpu0->cpu0_ITLB AVERAGE MISS LATENCY: 5.001 cycles
cpu0->cpu0_DTLB TOTAL        ACCESS:   73724470 HIT:   72060469 MISS:    1664001 MSHR_MERGE:     364038
cpu0->cpu0_DTLB LOAD         ACCESS:   73724470 HIT:   72060469 MISS:    1664001 MSHR_MERGE:     364038
cpu0->cpu0_DTLB RFO          ACCESS:          0 HIT:          0 MISS:          0 MSHR_MERGE:          0
cpu0->cpu0_DTLB PREFETCH     ACCESS:          0 HIT:          0 MISS:          0 MSHR_MERGE:          0
cpu0->cpu0_DTLB WRITE        ACCESS:          0 HIT:          0 MISS:          0 MSHR_MERGE:          0
cpu0->cpu0_DTLB TRANSLATION  ACCESS:          0 HIT:          0 MISS:          0 MSHR_MERGE:          0
cpu0->cpu0_DTLB PREFETCH REQUESTED:          0 ISSUED:          0 USEFUL:          0 USELESS:          0 LATE:          0
cpu0->cpu0_DTLB AVERAGE MISS LATENCY: 5.581 cycles
cpu0->LLC TOTAL        ACCESS:    6329034 HIT:    4608493 MISS:    1720541 MSHR_MERGE:          2
cpu0->LLC LOAD         ACCESS:    4561888 HIT:    3075148 MISS:    1486740 MSHR_MERGE:          0
cpu0->LLC RFO          ACCESS:      11761 HIT:      11630 MISS:        131 MSHR_MERGE:          0
cpu0->LLC PREFETCH     ACCESS:     412243 HIT:     218139 MISS:     194104 MSHR_MERGE:          2
cpu0->LLC WRITE        ACCESS:    1340633 HIT:    1302465 MISS:      38168 MSHR_MERGE:          0
cpu0->LLC TRANSLATION  ACCESS:       2509 HIT:       1111 MISS:       1398 MSHR_MERGE:          0
cpu0->LLC PREFETCH REQUESTED:          0 ISSUED:          0 USEFUL:          0 USELESS:          0 LATE:          0
cpu0->LLC AVERAGE MISS LATENCY: 176.7 cycles

DRAM Statistics

Channel 0 RQ ROW_BUFFER_HIT:       6315
  ROW_BUFFER_MISS:    1676002
  AVG DBUS CONGESTED CYCLE: 21.4
Channel 0 WQ ROW_BUFFER_HIT:     112715
  ROW_BUFFER_MISS:     245313
  FULL:          0
Channel 0 REFRESHES ISSUED:      41691

[ROI Statistics]
[System Configuration]
num_cpus 1
cpu_freq 4000
fetch_width 6
decode_width 6
dispatch_width 6
execute_width 6
lq_width 2
sq_width 2
retire_width 6
scheduler_size 128
branch_mispredict_penalty 15
rob_size 352
lq_size 128
sq_size 72
ifetch_buffer_size 64
decode_buffer_size 32
dispatch_buffer_size 32
register_file_size 288
decode_latency 1
dispatch_latency 1
schedule_latency 1
execute_latency 1
page_size 4096
block_size 64
core_0_itlb_set 16
core_0_itlb_way 4
core_0_itlb_rq_size 16
core_0_itlb_wq_size 16
core_0_itlb_pq_size 0
core_0_itlb_mshr_size 8
core_0_itlb_hit_latency 1
core_0_itlb_fill_latency 1
core_0_itlb_max_tag_check 2
core_0_itlb_max_fill 2
core_0_dtlb_set 16
core_0_dtlb_way 4
core_0_dtlb_rq_size 16
core_0_dtlb_wq_size 16
core_0_dtlb_pq_size 0
core_0_dtlb_mshr_size 8
core_0_dtlb_hit_latency 1
core_0_dtlb_fill_latency 1
core_0_dtlb_max_tag_check 2
core_0_dtlb_max_fill 2
core_0_stlb_set 128
core_0_stlb_way 12
core_0_stlb_rq_size 32
core_0_stlb_wq_size 32
core_0_stlb_pq_size 0
core_0_stlb_mshr_size 16
core_0_stlb_hit_latency 4
core_0_stlb_fill_latency 4
core_0_stlb_max_tag_check 1
core_0_stlb_max_fill 1
core_0_l1i_set 64
core_0_l1i_way 8
core_0_l1i_rq_size 64
core_0_l1i_wq_size 64
core_0_l1i_pq_size 32
core_0_l1i_mshr_size 8
core_0_l1i_hit_latency 2
core_0_l1i_fill_latency 2
core_0_l1i_max_tag_check 2
core_0_l1i_max_fill 2
core_0_l1d_set 64
core_0_l1d_way 12
core_0_l1d_rq_size 64
core_0_l1d_wq_size 64
core_0_l1d_pq_size 8
core_0_l1d_mshr_size 16
core_0_l1d_hit_latency 2
core_0_l1d_fill_latency 3
core_0_l1d_max_tag_check 2
core_0_l1d_max_fill 2
core_0_l2c_set 1024
core_0_l2c_way 8
core_0_l2c_rq_size 32
core_0_l2c_wq_size 32
core_0_l2c_pq_size 16
core_0_l2c_mshr_size 32
core_0_l2c_hit_latency 5
core_0_l2c_fill_latency 5
core_0_l2c_max_tag_check 1
core_0_l2c_max_fill 1
llc_set 2048
llc_way 16
llc_rq_size 32
llc_wq_size 32
llc_pq_size 32
llc_mshr_size 64
llc_hit_latency 10
llc_fill_latency 10
llc_max_tag_check 1
llc_max_fill 1
dram_channels 1
dram_ranks 1
dram_bankgroups 8
dram_banks 4
dram_rows 65536
dram_columns 1024
dram_channel_width 8
dram_rq_size 64
dram_wq_size 64
dram_size 17179869184
core_0_itlb_prefetcher no
core_0_dtlb_prefetcher no
core_0_stlb_prefetcher no
core_0_l1i_prefetcher next_line
core_0_l1d_prefetcher vberti
core_0_l2c_prefetcher ip_stride
llc_prefetcher no
llc_replacement drrip

Core_0_instructions 100000000
Core_0_cycles 500293291
Core_0_IPC 0.199883
Core_0_branch_prediction_accuracy 86.398
Core_0_branch_MPKI 23.5787
Core_0_average_ROB_occupancy_at_mispredict 20.069

Core_0_ITLB_total_access 7185472
Core_0_ITLB_total_hit 7182276
Core_0_ITLB_total_miss 3196
Core_0_ITLB_total_MPKI 0.03196
Core_0_ITLB_total_miss_rate 0.000444786
Core_0_ITLB_demand_access 7185472
Core_0_ITLB_demand_hit 7182276
Core_0_ITLB_demand_miss 3196
Core_0_ITLB_demand_MPKI 0.03196
Core_0_ITLB_demand_miss_rate 0.000444786
Core_0_ITLB_load_access 7185472
Core_0_ITLB_load_hit 7182276
Core_0_ITLB_load_miss 3196
Core_0_ITLB_load_MPKI 0.03196
Core_0_ITLB_load_miss_rate 0.000444786
Core_0_ITLB_rfo_access 0
Core_0_ITLB_rfo_hit 0
Core_0_ITLB_rfo_miss 0
Core_0_ITLB_rfo_MPKI 0
Core_0_ITLB_rfo_miss_rate 0
Core_0_ITLB_prefetch_access 0
Core_0_ITLB_prefetch_hit 0
Core_0_ITLB_prefetch_miss 0
Core_0_ITLB_prefetch_MPKI 0
Core_0_ITLB_prefetch_miss_rate 0
Core_0_ITLB_writeback_access 0
Core_0_ITLB_writeback_hit 0
Core_0_ITLB_writeback_miss 0
Core_0_ITLB_writeback_MPKI 0
Core_0_ITLB_writeback_miss_rate 0
Core_0_ITLB_prefetch_requested 0
Core_0_ITLB_prefetch_issued 0
Core_0_ITLB_prefetch_useful 0
Core_0_ITLB_prefetch_useless 0
Core_0_ITLB_prefetch_late 0
Core_0_ITLB_prefetch_accuracy 0
Core_0_ITLB_prefetch_coverage 0
Core_0_ITLB_total_eviction 1796

Core_0_DTLB_total_access 73724470
Core_0_DTLB_total_hit 72060469
Core_0_DTLB_total_miss 1664001
Core_0_DTLB_total_MPKI 16.64
Core_0_DTLB_total_miss_rate 0.0225705
Core_0_DTLB_demand_access 73724470
Core_0_DTLB_demand_hit 72060469
Core_0_DTLB_demand_miss 1664001
Core_0_DTLB_demand_MPKI 16.64
Core_0_DTLB_demand_miss_rate 0.0225705
Core_0_DTLB_load_access 73724470
Core_0_DTLB_load_hit 72060469
Core_0_DTLB_load_miss 1664001
Core_0_DTLB_load_MPKI 16.64
Core_0_DTLB_load_miss_rate 0.0225705
Core_0_DTLB_rfo_access 0
Core_0_DTLB_rfo_hit 0
Core_0_DTLB_rfo_miss 0
Core_0_DTLB_rfo_MPKI 0
Core_0_DTLB_rfo_miss_rate 0
Core_0_DTLB_prefetch_access 0
Core_0_DTLB_prefetch_hit 0
Core_0_DTLB_prefetch_miss 0
Core_0_DTLB_prefetch_MPKI 0
Core_0_DTLB_prefetch_miss_rate 0
Core_0_DTLB_writeback_access 0
Core_0_DTLB_writeback_hit 0
Core_0_DTLB_writeback_miss 0
Core_0_DTLB_writeback_MPKI 0
Core_0_DTLB_writeback_miss_rate 0
Core_0_DTLB_prefetch_requested 0
Core_0_DTLB_prefetch_issued 0
Core_0_DTLB_prefetch_useful 0
Core_0_DTLB_prefetch_useless 0
Core_0_DTLB_prefetch_late 0
Core_0_DTLB_prefetch_accuracy 0
Core_0_DTLB_prefetch_coverage 0
Core_0_DTLB_total_eviction 1299963

Core_0_STLB_total_access 1301759
Core_0_STLB_total_hit 1297172
Core_0_STLB_total_miss 4587
Core_0_STLB_total_MPKI 0.04587
Core_0_STLB_total_miss_rate 0.00352369
Core_0_STLB_demand_access 1301759
Core_0_STLB_demand_hit 1297172
Core_0_STLB_demand_miss 4587
Core_0_STLB_demand_MPKI 0.04587
Core_0_STLB_demand_miss_rate 0.00352369
Core_0_STLB_load_access 1301759
Core_0_STLB_load_hit 1297172
Core_0_STLB_load_miss 4587
Core_0_STLB_load_MPKI 0.04587
Core_0_STLB_load_miss_rate 0.00352369
Core_0_STLB_rfo_access 0
Core_0_STLB_rfo_hit 0
Core_0_STLB_rfo_miss 0
Core_0_STLB_rfo_MPKI 0
Core_0_STLB_rfo_miss_rate 0
Core_0_STLB_prefetch_access 0
Core_0_STLB_prefetch_hit 0
Core_0_STLB_prefetch_miss 0
Core_0_STLB_prefetch_MPKI 0
Core_0_STLB_prefetch_miss_rate 0
Core_0_STLB_writeback_access 0
Core_0_STLB_writeback_hit 0
Core_0_STLB_writeback_miss 0
Core_0_STLB_writeback_MPKI 0
Core_0_STLB_writeback_miss_rate 0
Core_0_STLB_prefetch_requested 0
Core_0_STLB_prefetch_issued 0
Core_0_STLB_prefetch_useful 0
Core_0_STLB_prefetch_useless 0
Core_0_STLB_prefetch_late 0
Core_0_STLB_prefetch_accuracy 0
Core_0_STLB_prefetch_coverage 0
Core_0_STLB_total_eviction 790495

Core_0_L1I_total_access 7237607
Core_0_L1I_total_hit 7214623
Core_0_L1I_total_miss 22984
Core_0_L1I_total_MPKI 0.22984
Core_0_L1I_total_miss_rate 0.00317564
Core_0_L1I_demand_access 7237607
Core_0_L1I_demand_hit 7214623
Core_0_L1I_demand_miss 22984
Core_0_L1I_demand_MPKI 0.22984
Core_0_L1I_demand_miss_rate 0.00317564
Core_0_L1I_load_access 7237607
Core_0_L1I_load_hit 7214623
Core_0_L1I_load_miss 22984
Core_0_L1I_load_MPKI 0.22984
Core_0_L1I_load_miss_rate 0.00317564
Core_0_L1I_rfo_access 0
Core_0_L1I_rfo_hit 0
Core_0_L1I_rfo_miss 0
Core_0_L1I_rfo_MPKI 0
Core_0_L1I_rfo_miss_rate 0
Core_0_L1I_prefetch_access 0
Core_0_L1I_prefetch_hit 0
Core_0_L1I_prefetch_miss 0
Core_0_L1I_prefetch_MPKI 0
Core_0_L1I_prefetch_miss_rate 0
Core_0_L1I_writeback_access 0
Core_0_L1I_writeback_hit 0
Core_0_L1I_writeback_miss 0
Core_0_L1I_writeback_MPKI 0
Core_0_L1I_writeback_miss_rate 0
Core_0_L1I_prefetch_requested 0
Core_0_L1I_prefetch_issued 0
Core_0_L1I_prefetch_useful 0
Core_0_L1I_prefetch_useless 0
Core_0_L1I_prefetch_late 0
Core_0_L1I_prefetch_accuracy 0
Core_0_L1I_prefetch_coverage 0
Core_0_L1I_total_eviction 16221

Core_0_L1D_total_access 95913757
Core_0_L1D_total_hit 87339018
Core_0_L1D_total_miss 8574739
Core_0_L1D_total_MPKI 85.7474
Core_0_L1D_total_miss_rate 0.0894005
Core_0_L1D_demand_access 31482056
Core_0_L1D_demand_hit 25629541
Core_0_L1D_demand_miss 5852515
Core_0_L1D_demand_MPKI 58.5251
Core_0_L1D_demand_miss_rate 0.1859
Core_0_L1D_load_access 31482056
Core_0_L1D_load_hit 25629541
Core_0_L1D_load_miss 5852515
Core_0_L1D_load_MPKI 58.5251
Core_0_L1D_load_miss_rate 0.1859
Core_0_L1D_rfo_access 0
Core_0_L1D_rfo_hit 0
Core_0_L1D_rfo_miss 0
Core_0_L1D_rfo_MPKI 0
Core_0_L1D_rfo_miss_rate 0
Core_0_L1D_prefetch_access 53719768
Core_0_L1D_prefetch_hit 51025044
Core_0_L1D_prefetch_miss 2694724
Core_0_L1D_prefetch_MPKI 26.9472
Core_0_L1D_prefetch_miss_rate 0.0501626
Core_0_L1D_writeback_access 10711933
Core_0_L1D_writeback_hit 10684433
Core_0_L1D_writeback_miss 27500
Core_0_L1D_writeback_MPKI 0.275
Core_0_L1D_writeback_miss_rate 0.00256723
Core_0_L1D_prefetch_requested 126187471
Core_0_L1D_prefetch_issued 53719760
Core_0_L1D_prefetch_useful 421818
Core_0_L1D_prefetch_useless 10770
Core_0_L1D_prefetch_late 23
Core_0_L1D_prefetch_accuracy 0.00785219
Core_0_L1D_prefetch_coverage 0.0672291
Core_0_L1D_total_eviction 5371797

Core_0_L2C_total_access 9958339
Core_0_L2C_total_hit 4857704
Core_0_L2C_total_miss 5100635
Core_0_L2C_total_MPKI 51.0063
Core_0_L2C_total_miss_rate 0.512197
Core_0_L2C_demand_access 4952018
Core_0_L2C_demand_hit 377301
Core_0_L2C_demand_miss 4574717
Core_0_L2C_demand_MPKI 45.7472
Core_0_L2C_demand_miss_rate 0.923809
Core_0_L2C_load_access 4938721
Core_0_L2C_load_hit 375765
Core_0_L2C_load_miss 4562956
Core_0_L2C_load_MPKI 45.6296
Core_0_L2C_load_miss_rate 0.923915
Core_0_L2C_rfo_access 13297
Core_0_L2C_rfo_hit 1536
Core_0_L2C_rfo_miss 11761
Core_0_L2C_rfo_MPKI 0.11761
Core_0_L2C_rfo_miss_rate 0.884485
Core_0_L2C_prefetch_access 3531791
Core_0_L2C_prefetch_hit 3005876
Core_0_L2C_prefetch_miss 525915
Core_0_L2C_prefetch_MPKI 5.25915
Core_0_L2C_prefetch_miss_rate 0.148909
Core_0_L2C_writeback_access 1474530
Core_0_L2C_writeback_hit 1474527
Core_0_L2C_writeback_miss 3
Core_0_L2C_writeback_MPKI 3e-05
Core_0_L2C_writeback_miss_rate 2.03455e-06
Core_0_L2C_prefetch_requested 869153
Core_0_L2C_prefetch_issued 854253
Core_0_L2C_prefetch_useful 132051
Core_0_L2C_prefetch_useless 52216
Core_0_L2C_prefetch_late 384
Core_0_L2C_prefetch_accuracy 0.154581
Core_0_L2C_prefetch_coverage 0.0280556
Core_0_L2C_total_eviction 4988347

Core_0_LLC_total_access 6326525
Core_0_LLC_total_hit 4607382
Core_0_LLC_total_miss 1719143
Core_0_LLC_total_MPKI 17.1914
Core_0_LLC_total_miss_rate 0.271736
Core_0_LLC_demand_access 4573649
Core_0_LLC_demand_hit 3086778
Core_0_LLC_demand_miss 1486871
Core_0_LLC_demand_MPKI 14.8687
Core_0_LLC_demand_miss_rate 0.325095
Core_0_LLC_load_access 4561888
Core_0_LLC_load_hit 3075148
Core_0_LLC_load_miss 1486740
Core_0_LLC_load_MPKI 14.8674
Core_0_LLC_load_miss_rate 0.325905
Core_0_LLC_rfo_access 11761
Core_0_LLC_rfo_hit 11630
Core_0_LLC_rfo_miss 131
Core_0_LLC_rfo_MPKI 0.00131
Core_0_LLC_rfo_miss_rate 0.0111385
Core_0_LLC_prefetch_access 412243
Core_0_LLC_prefetch_hit 218139
Core_0_LLC_prefetch_miss 194104
Core_0_LLC_prefetch_MPKI 1.94104
Core_0_LLC_prefetch_miss_rate 0.470849
Core_0_LLC_writeback_access 1340633
Core_0_LLC_writeback_hit 1302465
Core_0_LLC_writeback_miss 38168
Core_0_LLC_writeback_MPKI 0.38168
Core_0_LLC_writeback_miss_rate 0.0284701
Core_0_LLC_prefetch_requested 0
Core_0_LLC_prefetch_issued 0
Core_0_LLC_prefetch_useful 0
Core_0_LLC_prefetch_useless 0
Core_0_LLC_prefetch_late 0
Core_0_LLC_prefetch_accuracy 0
Core_0_LLC_prefetch_coverage 0
Core_0_LLC_total_eviction 1720539

[DRAM Statistics]
Channel_0_RQ_row_buffer_hit 6315
Channel_0_RQ_row_buffer_miss 1676002
Channel_0_WQ_row_buffer_hit 112715
Channel_0_WQ_row_buffer_miss 245313
Channel_0_WQ_full 0
Channel_0_dbus_congested 5366282
DRAM_total_RQ_row_buffer_hit 6315
DRAM_total_RQ_row_buffer_miss 1676002
DRAM_total_WQ_row_buffer_hit 112715
DRAM_total_WQ_row_buffer_miss 245313
DRAM_total_WQ_full 0
DRAM_total_dbus_congested 5366282
DRAM_avg_congested_cycle 21.3969

======STLB miss causes ========
Core_0_STLB_miss_cause_breakdown
Core_0_STLB_cause_Demand_Data_miss 0
Core_0_STLB_cause_Demand_Data_miss_rate 0
Core_0_STLB_cause_Demand_Instruction_miss 0
Core_0_STLB_cause_Demand_Instruction_miss_rate 0
Core_0_STLB_cause_L1D_Prefetch_miss 4587
Core_0_STLB_cause_L1D_Prefetch_miss_rate 0.00352369
Core_0_STLB_cause_L1I_Prefetch_miss 0
Core_0_STLB_cause_L1I_Prefetch_miss_rate 0
Core_0_STLB_cause_Other_miss 0
Core_0_STLB_cause_Other_miss_rate 0
Core_0_STLB_Demand_miss 0
Core_0_STLB_Demand_miss_rate 0
Core_0_STLB_L1D_Prefetch_miss 4587
Core_0_STLB_L1D_Prefetch_miss_rate 0.00352369
Core_0_STLB_Other_miss 0
Core_0_STLB_Other_miss_rate 0
BERTI TO_L1: 147947701 TO_L2: 13836689 TO_L2_BC_MSHR: 64
BERTI AVG_LAT: 53.5484 NUM_TRACK_LATENCY: 8032967 NUM_CANT_TRACK_LATENCY: 0
BERTI CROSS_PAGE 11927557 NO_CROSS_PAGE: 149856833
BERTI FOUND_BERTI: 41555490 NO_FOUND_BERTI: 14261889
BERTI AVERAGE_ISSUED: 3.07521
