[VMEM] WARNING: physical memory size is smaller than virtual memory size.

*** ChampSim Multicore Out-of-Order Simulator ***
Warmup Instructions: 50000000
Simulation Instructions: 100000000
Number of CPUs: 1
Page size: 4096
STLB ideal mode: demand
STLB ideal fill: on
Core 0: /data2/zcq/champsim_traces_gap/bfs.twitter-163B.champsimtrace.xz
VBerti Prefetcher
BERTI HASH ENTANGLING
BERTI IP MASK ffff
Off-chip DRAM Size: 16 GiB Channels: 1 Width: 64-bit Data Rate: 3205 MT/s
Warmup halting CPU 0 at instruction 50000001 cycle 11242138 for remainder of phase
Warmup finished CPU 0 instructions: 50000001 cycles: 11242138 cumulative IPC: 4.448 (Simulation time: 00 hr 02 min 08 sec)
Warmup complete CPU 0 instructions: 50000001 cycles: 11242138 cumulative IPC: 4.448 (Simulation time: 00 hr 02 min 08 sec)
Simulation finished CPU 0 instructions: 100000000 cycles: 266671742 cumulative IPC: 0.375 (Simulation time: 00 hr 19 min 44 sec)
Simulation complete CPU 0 instructions: 100000000 cycles: 266671742 cumulative IPC: 0.375 (Simulation time: 00 hr 19 min 44 sec)

ChampSim completed all CPUs

=== Simulation ===
CPU 0 runs /data2/zcq/champsim_traces_gap/bfs.twitter-163B.champsimtrace.xz

Region of Interest Statistics

CPU 0 cumulative IPC: 0.375 instructions: 100000000 cycles: 266671742
CPU 0 Branch Prediction Accuracy: 86.16% MPKI: 29.69 Average ROB Occupancy at Mispredict: 17.06
Branch type MPKI
BRANCH_DIRECT_JUMP: 0
BRANCH_INDIRECT: 0
BRANCH_CONDITIONAL: 29.69
BRANCH_DIRECT_CALL: 0
BRANCH_INDIRECT_CALL: 0
BRANCH_RETURN: 0

cpu0->cpu0_STLB TOTAL        ACCESS:     558713 HIT:     531469 MISS:      27244 MSHR_MERGE:          0
cpu0->cpu0_STLB LOAD         ACCESS:     558713 HIT:     531469 MISS:      27244 MSHR_MERGE:          0
cpu0->cpu0_STLB RFO          ACCESS:          0 HIT:          0 MISS:          0 MSHR_MERGE:          0
cpu0->cpu0_STLB PREFETCH     ACCESS:          0 HIT:          0 MISS:          0 MSHR_MERGE:          0
cpu0->cpu0_STLB WRITE        ACCESS:          0 HIT:          0 MISS:          0 MSHR_MERGE:          0
cpu0->cpu0_STLB TRANSLATION  ACCESS:          0 HIT:          0 MISS:          0 MSHR_MERGE:          0
cpu0->cpu0_STLB PREFETCH REQUESTED:          0 ISSUED:          0 USEFUL:          0 USELESS:          0 LATE:          0
cpu0->cpu0_STLB AVERAGE MISS LATENCY: 240.7 cycles
cpu0->cpu0_L2C TOTAL        ACCESS:    5049327 HIT:    1628402 MISS:    3420925 MSHR_MERGE:    1005043
cpu0->cpu0_L2C LOAD         ACCESS:     703254 HIT:      55424 MISS:     647830 MSHR_MERGE:         87
cpu0->cpu0_L2C RFO          ACCESS:          0 HIT:          0 MISS:          0 MSHR_MERGE:          0
cpu0->cpu0_L2C PREFETCH     ACCESS:    4148938 HIT:    1379572 MISS:    2769366 MSHR_MERGE:    1004956
cpu0->cpu0_L2C WRITE        ACCESS:     193403 HIT:     193309 MISS:         94 MSHR_MERGE:          0
cpu0->cpu0_L2C TRANSLATION  ACCESS:       3732 HIT:         97 MISS:       3635 MSHR_MERGE:          0
cpu0->cpu0_L2C PREFETCH REQUESTED:    1918408 ISSUED:    1918408 USEFUL:     783246 USELESS:     256008 LATE:         52
cpu0->cpu0_L2C AVERAGE MISS LATENCY: 206.1 cycles
cpu0->cpu0_L1I TOTAL        ACCESS:         91 HIT:         91 MISS:          0 MSHR_MERGE:          0
cpu0->cpu0_L1I LOAD         ACCESS:         91 HIT:         91 MISS:          0 MSHR_MERGE:          0
cpu0->cpu0_L1I RFO          ACCESS:          0 HIT:          0 MISS:          0 MSHR_MERGE:          0
cpu0->cpu0_L1I PREFETCH     ACCESS:          0 HIT:          0 MISS:          0 MSHR_MERGE:          0
cpu0->cpu0_L1I WRITE        ACCESS:          0 HIT:          0 MISS:          0 MSHR_MERGE:          0
cpu0->cpu0_L1I TRANSLATION  ACCESS:          0 HIT:          0 MISS:          0 MSHR_MERGE:          0
cpu0->cpu0_L1I PREFETCH REQUESTED:          0 ISSUED:          0 USEFUL:          0 USELESS:          0 LATE:          0
cpu0->cpu0_L1I AVERAGE MISS LATENCY: - cycles
cpu0->cpu0_L1D TOTAL        ACCESS:   57395768 HIT:   54443806 MISS:    2951962 MSHR_MERGE:      11378
cpu0->cpu0_L1D LOAD         ACCESS:   16015227 HIT:   15306154 MISS:     709073 MSHR_MERGE:       5819
cpu0->cpu0_L1D RFO          ACCESS:          0 HIT:          0 MISS:          0 MSHR_MERGE:          0
cpu0->cpu0_L1D PREFETCH     ACCESS:   40667131 HIT:   38427974 MISS:    2239157 MSHR_MERGE:       5559
cpu0->cpu0_L1D WRITE        ACCESS:     658862 HIT:     658862 MISS:          0 MSHR_MERGE:          0
cpu0->cpu0_L1D TRANSLATION  ACCESS:      54548 HIT:      50816 MISS:       3732 MSHR_MERGE:          0
cpu0->cpu0_L1D PREFETCH REQUESTED:  163638067 ISSUED:   40667130 USEFUL:    1656463 USELESS:      81203 LATE:       2904
cpu0->cpu0_L1D AVERAGE MISS LATENCY: 198.5 cycles
cpu0->cpu0_ITLB TOTAL        ACCESS:         91 HIT:         91 MISS:          0 MSHR_MERGE:          0
cpu0->cpu0_ITLB LOAD         ACCESS:         91 HIT:         91 MISS:          0 MSHR_MERGE:          0
cpu0->cpu0_ITLB RFO          ACCESS:          0 HIT:          0 MISS:          0 MSHR_MERGE:          0
cpu0->cpu0_ITLB PREFETCH     ACCESS:          0 HIT:          0 MISS:          0 MSHR_MERGE:          0
cpu0->cpu0_ITLB WRITE        ACCESS:          0 HIT:          0 MISS:          0 MSHR_MERGE:          0
cpu0->cpu0_ITLB TRANSLATION  ACCESS:          0 HIT:          0 MISS:          0 MSHR_MERGE:          0
cpu0->cpu0_ITLB PREFETCH REQUESTED:          0 ISSUED:          0 USEFUL:          0 USELESS:          0 LATE:          0
cpu0->cpu0_ITLB AVERAGE MISS LATENCY: - cycles
cpu0->cpu0_DTLB TOTAL        ACCESS:   42883531 HIT:   42261829 MISS:     621702 MSHR_MERGE:      62989
cpu0->cpu0_DTLB LOAD         ACCESS:   42883531 HIT:   42261829 MISS:     621702 MSHR_MERGE:      62989
cpu0->cpu0_DTLB RFO          ACCESS:          0 HIT:          0 MISS:          0 MSHR_MERGE:          0
cpu0->cpu0_DTLB PREFETCH     ACCESS:          0 HIT:          0 MISS:          0 MSHR_MERGE:          0
cpu0->cpu0_DTLB WRITE        ACCESS:          0 HIT:          0 MISS:          0 MSHR_MERGE:          0
cpu0->cpu0_DTLB TRANSLATION  ACCESS:          0 HIT:          0 MISS:          0 MSHR_MERGE:          0
cpu0->cpu0_DTLB PREFETCH REQUESTED:          0 ISSUED:          0 USEFUL:          0 USELESS:          0 LATE:          0
cpu0->cpu0_DTLB AVERAGE MISS LATENCY: 16.79 cycles
cpu0->LLC TOTAL        ACCESS:    2609380 HIT:     236638 MISS:    2372742 MSHR_MERGE:       6027
cpu0->LLC LOAD         ACCESS:     647743 HIT:      58830 MISS:     588913 MSHR_MERGE:          5
cpu0->LLC RFO          ACCESS:          0 HIT:          0 MISS:          0 MSHR_MERGE:          0
cpu0->LLC PREFETCH     ACCESS:    1764410 HIT:       7460 MISS:    1756950 MSHR_MERGE:       6022
cpu0->LLC WRITE        ACCESS:     193592 HIT:     170215 MISS:      23377 MSHR_MERGE:          0
cpu0->LLC TRANSLATION  ACCESS:       3635 HIT:        133 MISS:       3502 MSHR_MERGE:          0
cpu0->LLC PREFETCH REQUESTED:          0 ISSUED:          0 USEFUL:          0 USELESS:          0 LATE:          0
cpu0->LLC AVERAGE MISS LATENCY: 201.6 cycles

DRAM Statistics

Channel 0 RQ ROW_BUFFER_HIT:      65597
  ROW_BUFFER_MISS:    2277741
  AVG DBUS CONGESTED CYCLE: 12.86
Channel 0 WQ ROW_BUFFER_HIT:      83212
  ROW_BUFFER_MISS:     110857
  FULL:          0
Channel 0 REFRESHES ISSUED:      22223

[ROI Statistics]
[System Configuration]
num_cpus 1
cpu_freq 4000
fetch_width 6
decode_width 6
dispatch_width 6
execute_width 6
lq_width 2
sq_width 2
retire_width 6
scheduler_size 128
branch_mispredict_penalty 15
rob_size 352
lq_size 128
sq_size 72
ifetch_buffer_size 64
decode_buffer_size 32
dispatch_buffer_size 32
register_file_size 288
decode_latency 1
dispatch_latency 1
schedule_latency 1
execute_latency 1
page_size 4096
block_size 64
core_0_itlb_set 16
core_0_itlb_way 4
core_0_itlb_rq_size 16
core_0_itlb_wq_size 16
core_0_itlb_pq_size 0
core_0_itlb_mshr_size 8
core_0_itlb_hit_latency 1
core_0_itlb_fill_latency 1
core_0_itlb_max_tag_check 2
core_0_itlb_max_fill 2
core_0_dtlb_set 16
core_0_dtlb_way 4
core_0_dtlb_rq_size 16
core_0_dtlb_wq_size 16
core_0_dtlb_pq_size 0
core_0_dtlb_mshr_size 8
core_0_dtlb_hit_latency 1
core_0_dtlb_fill_latency 1
core_0_dtlb_max_tag_check 2
core_0_dtlb_max_fill 2
core_0_stlb_set 128
core_0_stlb_way 12
core_0_stlb_rq_size 32
core_0_stlb_wq_size 32
core_0_stlb_pq_size 0
core_0_stlb_mshr_size 16
core_0_stlb_hit_latency 4
core_0_stlb_fill_latency 4
core_0_stlb_max_tag_check 1
core_0_stlb_max_fill 1
core_0_l1i_set 64
core_0_l1i_way 8
core_0_l1i_rq_size 64
core_0_l1i_wq_size 64
core_0_l1i_pq_size 32
core_0_l1i_mshr_size 8
core_0_l1i_hit_latency 2
core_0_l1i_fill_latency 2
core_0_l1i_max_tag_check 2
core_0_l1i_max_fill 2
core_0_l1d_set 64
core_0_l1d_way 12
core_0_l1d_rq_size 64
core_0_l1d_wq_size 64
core_0_l1d_pq_size 8
core_0_l1d_mshr_size 16
core_0_l1d_hit_latency 2
core_0_l1d_fill_latency 3
core_0_l1d_max_tag_check 2
core_0_l1d_max_fill 2
core_0_l2c_set 1024
core_0_l2c_way 8
core_0_l2c_rq_size 32
core_0_l2c_wq_size 32
core_0_l2c_pq_size 16
core_0_l2c_mshr_size 32
core_0_l2c_hit_latency 5
core_0_l2c_fill_latency 5
core_0_l2c_max_tag_check 1
core_0_l2c_max_fill 1
llc_set 2048
llc_way 16
llc_rq_size 32
llc_wq_size 32
llc_pq_size 32
llc_mshr_size 64
llc_hit_latency 10
llc_fill_latency 10
llc_max_tag_check 1
llc_max_fill 1
dram_channels 1
dram_ranks 1
dram_bankgroups 8
dram_banks 4
dram_rows 65536
dram_columns 1024
dram_channel_width 8
dram_rq_size 64
dram_wq_size 64
dram_size 17179869184
core_0_itlb_prefetcher no
core_0_dtlb_prefetcher no
core_0_stlb_prefetcher no
core_0_l1i_prefetcher next_line
core_0_l1d_prefetcher vberti
core_0_l2c_prefetcher ip_stride
llc_prefetcher no
llc_replacement drrip

Core_0_instructions 100000000
Core_0_cycles 266671742
Core_0_IPC 0.374993
Core_0_branch_prediction_accuracy 86.1572
Core_0_branch_MPKI 29.6932
Core_0_average_ROB_occupancy_at_mispredict 17.0608

Core_0_ITLB_total_access 91
Core_0_ITLB_total_hit 91
Core_0_ITLB_total_miss 0
Core_0_ITLB_total_MPKI 0
Core_0_ITLB_total_miss_rate 0
Core_0_ITLB_demand_access 91
Core_0_ITLB_demand_hit 91
Core_0_ITLB_demand_miss 0
Core_0_ITLB_demand_MPKI 0
Core_0_ITLB_demand_miss_rate 0
Core_0_ITLB_load_access 91
Core_0_ITLB_load_hit 91
Core_0_ITLB_load_miss 0
Core_0_ITLB_load_MPKI 0
Core_0_ITLB_load_miss_rate 0
Core_0_ITLB_rfo_access 0
Core_0_ITLB_rfo_hit 0
Core_0_ITLB_rfo_miss 0
Core_0_ITLB_rfo_MPKI 0
Core_0_ITLB_rfo_miss_rate 0
Core_0_ITLB_prefetch_access 0
Core_0_ITLB_prefetch_hit 0
Core_0_ITLB_prefetch_miss 0
Core_0_ITLB_prefetch_MPKI 0
Core_0_ITLB_prefetch_miss_rate 0
Core_0_ITLB_writeback_access 0
Core_0_ITLB_writeback_hit 0
Core_0_ITLB_writeback_miss 0
Core_0_ITLB_writeback_MPKI 0
Core_0_ITLB_writeback_miss_rate 0
Core_0_ITLB_prefetch_requested 0
Core_0_ITLB_prefetch_issued 0
Core_0_ITLB_prefetch_useful 0
Core_0_ITLB_prefetch_useless 0
Core_0_ITLB_prefetch_late 0
Core_0_ITLB_prefetch_accuracy 0
Core_0_ITLB_prefetch_coverage 0
Core_0_ITLB_total_eviction 0

Core_0_DTLB_total_access 42883531
Core_0_DTLB_total_hit 42261829
Core_0_DTLB_total_miss 621702
Core_0_DTLB_total_MPKI 6.21702
Core_0_DTLB_total_miss_rate 0.0144975
Core_0_DTLB_demand_access 42883531
Core_0_DTLB_demand_hit 42261829
Core_0_DTLB_demand_miss 621702
Core_0_DTLB_demand_MPKI 6.21702
Core_0_DTLB_demand_miss_rate 0.0144975
Core_0_DTLB_load_access 42883531
Core_0_DTLB_load_hit 42261829
Core_0_DTLB_load_miss 621702
Core_0_DTLB_load_MPKI 6.21702
Core_0_DTLB_load_miss_rate 0.0144975
Core_0_DTLB_rfo_access 0
Core_0_DTLB_rfo_hit 0
Core_0_DTLB_rfo_miss 0
Core_0_DTLB_rfo_MPKI 0
Core_0_DTLB_rfo_miss_rate 0
Core_0_DTLB_prefetch_access 0
Core_0_DTLB_prefetch_hit 0
Core_0_DTLB_prefetch_miss 0
Core_0_DTLB_prefetch_MPKI 0
Core_0_DTLB_prefetch_miss_rate 0
Core_0_DTLB_writeback_access 0
Core_0_DTLB_writeback_hit 0
Core_0_DTLB_writeback_miss 0
Core_0_DTLB_writeback_MPKI 0
Core_0_DTLB_writeback_miss_rate 0
Core_0_DTLB_prefetch_requested 0
Core_0_DTLB_prefetch_issued 0
Core_0_DTLB_prefetch_useful 0
Core_0_DTLB_prefetch_useless 0
Core_0_DTLB_prefetch_late 0
Core_0_DTLB_prefetch_accuracy 0
Core_0_DTLB_prefetch_coverage 0
Core_0_DTLB_total_eviction 558713

Core_0_STLB_total_access 558713
Core_0_STLB_total_hit 531469
Core_0_STLB_total_miss 27244
Core_0_STLB_total_MPKI 0.27244
Core_0_STLB_total_miss_rate 0.0487621
Core_0_STLB_demand_access 558713
Core_0_STLB_demand_hit 531469
Core_0_STLB_demand_miss 27244
Core_0_STLB_demand_MPKI 0.27244
Core_0_STLB_demand_miss_rate 0.0487621
Core_0_STLB_load_access 558713
Core_0_STLB_load_hit 531469
Core_0_STLB_load_miss 27244
Core_0_STLB_load_MPKI 0.27244
Core_0_STLB_load_miss_rate 0.0487621
Core_0_STLB_rfo_access 0
Core_0_STLB_rfo_hit 0
Core_0_STLB_rfo_miss 0
Core_0_STLB_rfo_MPKI 0
Core_0_STLB_rfo_miss_rate 0
Core_0_STLB_prefetch_access 0
Core_0_STLB_prefetch_hit 0
Core_0_STLB_prefetch_miss 0
Core_0_STLB_prefetch_MPKI 0
Core_0_STLB_prefetch_miss_rate 0
Core_0_STLB_writeback_access 0
Core_0_STLB_writeback_hit 0
Core_0_STLB_writeback_miss 0
Core_0_STLB_writeback_MPKI 0
Core_0_STLB_writeback_miss_rate 0
Core_0_STLB_prefetch_requested 0
Core_0_STLB_prefetch_issued 0
Core_0_STLB_prefetch_useful 0
Core_0_STLB_prefetch_useless 0
Core_0_STLB_prefetch_late 0
Core_0_STLB_prefetch_accuracy 0
Core_0_STLB_prefetch_coverage 0
Core_0_STLB_total_eviction 309892

Core_0_L1I_total_access 91
Core_0_L1I_total_hit 91
Core_0_L1I_total_miss 0
Core_0_L1I_total_MPKI 0
Core_0_L1I_total_miss_rate 0
Core_0_L1I_demand_access 91
Core_0_L1I_demand_hit 91
Core_0_L1I_demand_miss 0
Core_0_L1I_demand_MPKI 0
Core_0_L1I_demand_miss_rate 0
Core_0_L1I_load_access 91
Core_0_L1I_load_hit 91
Core_0_L1I_load_miss 0
Core_0_L1I_load_MPKI 0
Core_0_L1I_load_miss_rate 0
Core_0_L1I_rfo_access 0
Core_0_L1I_rfo_hit 0
Core_0_L1I_rfo_miss 0
Core_0_L1I_rfo_MPKI 0
Core_0_L1I_rfo_miss_rate 0
Core_0_L1I_prefetch_access 0
Core_0_L1I_prefetch_hit 0
Core_0_L1I_prefetch_miss 0
Core_0_L1I_prefetch_MPKI 0
Core_0_L1I_prefetch_miss_rate 0
Core_0_L1I_writeback_access 0
Core_0_L1I_writeback_hit 0
Core_0_L1I_writeback_miss 0
Core_0_L1I_writeback_MPKI 0
Core_0_L1I_writeback_miss_rate 0
Core_0_L1I_prefetch_requested 0
Core_0_L1I_prefetch_issued 0
Core_0_L1I_prefetch_useful 0
Core_0_L1I_prefetch_useless 0
Core_0_L1I_prefetch_late 0
Core_0_L1I_prefetch_accuracy 0
Core_0_L1I_prefetch_coverage 0
Core_0_L1I_total_eviction 0

Core_0_L1D_total_access 57341220
Core_0_L1D_total_hit 54392990
Core_0_L1D_total_miss 2948230
Core_0_L1D_total_MPKI 29.4823
Core_0_L1D_total_miss_rate 0.0514155
Core_0_L1D_demand_access 16015227
Core_0_L1D_demand_hit 15306154
Core_0_L1D_demand_miss 709073
Core_0_L1D_demand_MPKI 7.09073
Core_0_L1D_demand_miss_rate 0.0442749
Core_0_L1D_load_access 16015227
Core_0_L1D_load_hit 15306154
Core_0_L1D_load_miss 709073
Core_0_L1D_load_MPKI 7.09073
Core_0_L1D_load_miss_rate 0.0442749
Core_0_L1D_rfo_access 0
Core_0_L1D_rfo_hit 0
Core_0_L1D_rfo_miss 0
Core_0_L1D_rfo_MPKI 0
Core_0_L1D_rfo_miss_rate 0
Core_0_L1D_prefetch_access 40667131
Core_0_L1D_prefetch_hit 38427974
Core_0_L1D_prefetch_miss 2239157
Core_0_L1D_prefetch_MPKI 22.3916
Core_0_L1D_prefetch_miss_rate 0.0550606
Core_0_L1D_writeback_access 658862
Core_0_L1D_writeback_hit 658862
Core_0_L1D_writeback_miss 0
Core_0_L1D_writeback_MPKI 0
Core_0_L1D_writeback_miss_rate 0
Core_0_L1D_prefetch_requested 163638067
Core_0_L1D_prefetch_issued 40667130
Core_0_L1D_prefetch_useful 1656463
Core_0_L1D_prefetch_useless 81203
Core_0_L1D_prefetch_late 2904
Core_0_L1D_prefetch_accuracy 0.0407322
Core_0_L1D_prefetch_coverage 0.700248
Core_0_L1D_total_eviction 2444663

Core_0_L2C_total_access 5045595
Core_0_L2C_total_hit 1628305
Core_0_L2C_total_miss 3417290
Core_0_L2C_total_MPKI 34.1729
Core_0_L2C_total_miss_rate 0.677282
Core_0_L2C_demand_access 703254
Core_0_L2C_demand_hit 55424
Core_0_L2C_demand_miss 647830
Core_0_L2C_demand_MPKI 6.4783
Core_0_L2C_demand_miss_rate 0.921189
Core_0_L2C_load_access 703254
Core_0_L2C_load_hit 55424
Core_0_L2C_load_miss 647830
Core_0_L2C_load_MPKI 6.4783
Core_0_L2C_load_miss_rate 0.921189
Core_0_L2C_rfo_access 0
Core_0_L2C_rfo_hit 0
Core_0_L2C_rfo_miss 0
Core_0_L2C_rfo_MPKI 0
Core_0_L2C_rfo_miss_rate 0
Core_0_L2C_prefetch_access 4148938
Core_0_L2C_prefetch_hit 1379572
Core_0_L2C_prefetch_miss 2769366
Core_0_L2C_prefetch_MPKI 27.6937
Core_0_L2C_prefetch_miss_rate 0.667488
Core_0_L2C_writeback_access 193403
Core_0_L2C_writeback_hit 193309
Core_0_L2C_writeback_miss 94
Core_0_L2C_writeback_MPKI 0.00094
Core_0_L2C_writeback_miss_rate 0.000486032
Core_0_L2C_prefetch_requested 1918408
Core_0_L2C_prefetch_issued 1918408
Core_0_L2C_prefetch_useful 783246
Core_0_L2C_prefetch_useless 256008
Core_0_L2C_prefetch_late 52
Core_0_L2C_prefetch_accuracy 0.408279
Core_0_L2C_prefetch_coverage 0.547313
Core_0_L2C_total_eviction 2402394

Core_0_LLC_total_access 2605745
Core_0_LLC_total_hit 236505
Core_0_LLC_total_miss 2369240
Core_0_LLC_total_MPKI 23.6924
Core_0_LLC_total_miss_rate 0.909237
Core_0_LLC_demand_access 647743
Core_0_LLC_demand_hit 58830
Core_0_LLC_demand_miss 588913
Core_0_LLC_demand_MPKI 5.88913
Core_0_LLC_demand_miss_rate 0.909177
Core_0_LLC_load_access 647743
Core_0_LLC_load_hit 58830
Core_0_LLC_load_miss 588913
Core_0_LLC_load_MPKI 5.88913
Core_0_LLC_load_miss_rate 0.909177
Core_0_LLC_rfo_access 0
Core_0_LLC_rfo_hit 0
Core_0_LLC_rfo_miss 0
Core_0_LLC_rfo_MPKI 0
Core_0_LLC_rfo_miss_rate 0
Core_0_LLC_prefetch_access 1764410
Core_0_LLC_prefetch_hit 7460
Core_0_LLC_prefetch_miss 1756950
Core_0_LLC_prefetch_MPKI 17.5695
Core_0_LLC_prefetch_miss_rate 0.995772
Core_0_LLC_writeback_access 193592
Core_0_LLC_writeback_hit 170215
Core_0_LLC_writeback_miss 23377
Core_0_LLC_writeback_MPKI 0.23377
Core_0_LLC_writeback_miss_rate 0.120754
Core_0_LLC_prefetch_requested 0
Core_0_LLC_prefetch_issued 0
Core_0_LLC_prefetch_useful 0
Core_0_LLC_prefetch_useless 0
Core_0_LLC_prefetch_late 0
Core_0_LLC_prefetch_accuracy 0
Core_0_LLC_prefetch_coverage 0
Core_0_LLC_total_eviction 2366715

[DRAM Statistics]
Channel_0_RQ_row_buffer_hit 65597
Channel_0_RQ_row_buffer_miss 2277741
Channel_0_WQ_row_buffer_hit 83212
Channel_0_WQ_row_buffer_miss 110857
Channel_0_WQ_full 0
Channel_0_dbus_congested 5539361
DRAM_total_RQ_row_buffer_hit 65597
DRAM_total_RQ_row_buffer_miss 2277741
DRAM_total_WQ_row_buffer_hit 83212
DRAM_total_WQ_row_buffer_miss 110857
DRAM_total_WQ_full 0
DRAM_total_dbus_congested 5539361
DRAM_avg_congested_cycle 12.8588

======STLB miss causes ========
Core_0_STLB_miss_cause_breakdown
Core_0_STLB_cause_Demand_Data_miss 0
Core_0_STLB_cause_Demand_Data_miss_rate 0
Core_0_STLB_cause_Demand_Instruction_miss 0
Core_0_STLB_cause_Demand_Instruction_miss_rate 0
Core_0_STLB_cause_L1D_Prefetch_miss 27244
Core_0_STLB_cause_L1D_Prefetch_miss_rate 0.0487621
Core_0_STLB_cause_L1I_Prefetch_miss 0
Core_0_STLB_cause_L1I_Prefetch_miss_rate 0
Core_0_STLB_cause_Other_miss 0
Core_0_STLB_cause_Other_miss_rate 0
Core_0_STLB_Demand_miss 0
Core_0_STLB_Demand_miss_rate 0
Core_0_STLB_L1D_Prefetch_miss 27244
Core_0_STLB_L1D_Prefetch_miss_rate 0.0487621
Core_0_STLB_Other_miss 0
Core_0_STLB_Other_miss_rate 0
BERTI TO_L1: 205927815 TO_L2: 23021661 TO_L2_BC_MSHR: 321014
BERTI AVG_LAT: 110.156 NUM_TRACK_LATENCY: 3646025 NUM_CANT_TRACK_LATENCY: 0
BERTI CROSS_PAGE 27454705 NO_CROSS_PAGE: 201494771
BERTI FOUND_BERTI: 18384764 NO_FOUND_BERTI: 5318316
BERTI AVERAGE_ISSUED: 3.13592
