[VMEM] WARNING: physical memory size is smaller than virtual memory size.

*** ChampSim Multicore Out-of-Order Simulator ***
Warmup Instructions: 50000000
Simulation Instructions: 100000000
Number of CPUs: 1
Page size: 4096
STLB ideal mode: demand
STLB ideal fill: on
Core 0: /data2/zcq/champsim_traces_gap/cc.kron-17B.champsimtrace.xz
VBerti Prefetcher
BERTI HASH ENTANGLING
BERTI IP MASK ffff
Off-chip DRAM Size: 16 GiB Channels: 1 Width: 64-bit Data Rate: 3205 MT/s
Warmup halting CPU 0 at instruction 50000001 cycle 10433399 for remainder of phase
Warmup finished CPU 0 instructions: 50000001 cycles: 10433399 cumulative IPC: 4.792 (Simulation time: 00 hr 02 min 30 sec)
Warmup complete CPU 0 instructions: 50000001 cycles: 10433399 cumulative IPC: 4.792 (Simulation time: 00 hr 02 min 30 sec)
Simulation finished CPU 0 instructions: 100000004 cycles: 541319353 cumulative IPC: 0.1847 (Simulation time: 00 hr 43 min 15 sec)
Simulation complete CPU 0 instructions: 100000004 cycles: 541319353 cumulative IPC: 0.1847 (Simulation time: 00 hr 43 min 15 sec)

ChampSim completed all CPUs

=== Simulation ===
CPU 0 runs /data2/zcq/champsim_traces_gap/cc.kron-17B.champsimtrace.xz

Region of Interest Statistics

CPU 0 cumulative IPC: 0.1847 instructions: 100000004 cycles: 541319353
CPU 0 Branch Prediction Accuracy: 90.29% MPKI: 17.63 Average ROB Occupancy at Mispredict: 33.55
Branch type MPKI
BRANCH_DIRECT_JUMP: 0
BRANCH_INDIRECT: 0
BRANCH_CONDITIONAL: 17.63
BRANCH_DIRECT_CALL: 0
BRANCH_INDIRECT_CALL: 0
BRANCH_RETURN: 0

cpu0->cpu0_STLB TOTAL        ACCESS:    1940991 HIT:    1899210 MISS:      41781 MSHR_MERGE:          0
cpu0->cpu0_STLB LOAD         ACCESS:    1940991 HIT:    1899210 MISS:      41781 MSHR_MERGE:          0
cpu0->cpu0_STLB RFO          ACCESS:          0 HIT:          0 MISS:          0 MSHR_MERGE:          0
cpu0->cpu0_STLB PREFETCH     ACCESS:          0 HIT:          0 MISS:          0 MSHR_MERGE:          0
cpu0->cpu0_STLB WRITE        ACCESS:          0 HIT:          0 MISS:          0 MSHR_MERGE:          0
cpu0->cpu0_STLB TRANSLATION  ACCESS:          0 HIT:          0 MISS:          0 MSHR_MERGE:          0
cpu0->cpu0_STLB PREFETCH REQUESTED:          0 ISSUED:          0 USEFUL:          0 USELESS:          0 LATE:          0
cpu0->cpu0_STLB AVERAGE MISS LATENCY: 263.4 cycles
cpu0->cpu0_L2C TOTAL        ACCESS:   11654487 HIT:    7170513 MISS:    4483974 MSHR_MERGE:     236131
cpu0->cpu0_L2C LOAD         ACCESS:    2546449 HIT:     485132 MISS:    2061317 MSHR_MERGE:       7086
cpu0->cpu0_L2C RFO          ACCESS:          0 HIT:          0 MISS:          0 MSHR_MERGE:          0
cpu0->cpu0_L2C PREFETCH     ACCESS:    8619062 HIT:    6208518 MISS:    2410544 MSHR_MERGE:     229045
cpu0->cpu0_L2C WRITE        ACCESS:     473721 HIT:     473721 MISS:          0 MSHR_MERGE:          0
cpu0->cpu0_L2C TRANSLATION  ACCESS:      15255 HIT:       3142 MISS:      12113 MSHR_MERGE:          0
cpu0->cpu0_L2C PREFETCH REQUESTED:    1928988 ISSUED:    1928988 USEFUL:     408218 USELESS:     152970 LATE:       1033
cpu0->cpu0_L2C AVERAGE MISS LATENCY: 195.4 cycles
cpu0->cpu0_L1I TOTAL        ACCESS:       1556 HIT:       1556 MISS:          0 MSHR_MERGE:          0
cpu0->cpu0_L1I LOAD         ACCESS:       1556 HIT:       1556 MISS:          0 MSHR_MERGE:          0
cpu0->cpu0_L1I RFO          ACCESS:          0 HIT:          0 MISS:          0 MSHR_MERGE:          0
cpu0->cpu0_L1I PREFETCH     ACCESS:          0 HIT:          0 MISS:          0 MSHR_MERGE:          0
cpu0->cpu0_L1I WRITE        ACCESS:          0 HIT:          0 MISS:          0 MSHR_MERGE:          0
cpu0->cpu0_L1I TRANSLATION  ACCESS:          0 HIT:          0 MISS:          0 MSHR_MERGE:          0
cpu0->cpu0_L1I PREFETCH REQUESTED:          0 ISSUED:          0 USEFUL:          0 USELESS:          0 LATE:          0
cpu0->cpu0_L1I AVERAGE MISS LATENCY: - cycles
cpu0->cpu0_L1D TOTAL        ACCESS:   56264637 HIT:   47004330 MISS:    9260307 MSHR_MERGE:       3539
cpu0->cpu0_L1D LOAD         ACCESS:   21718764 HIT:   19171027 MISS:    2547737 MSHR_MERGE:       1288
cpu0->cpu0_L1D RFO          ACCESS:          0 HIT:          0 MISS:          0 MSHR_MERGE:          0
cpu0->cpu0_L1D PREFETCH     ACCESS:   32722084 HIT:   26024794 MISS:    6697290 MSHR_MERGE:       2226
cpu0->cpu0_L1D WRITE        ACCESS:    1740029 HIT:    1740029 MISS:          0 MSHR_MERGE:          0
cpu0->cpu0_L1D TRANSLATION  ACCESS:      83760 HIT:      68480 MISS:      15280 MSHR_MERGE:         25
cpu0->cpu0_L1D PREFETCH REQUESTED:   82238784 ISSUED:   32722076 USEFUL:     765290 USELESS:      92812 LATE:        704
cpu0->cpu0_L1D AVERAGE MISS LATENCY: 167 cycles
cpu0->cpu0_ITLB TOTAL        ACCESS:       1555 HIT:       1555 MISS:          0 MSHR_MERGE:          0
cpu0->cpu0_ITLB LOAD         ACCESS:       1555 HIT:       1555 MISS:          0 MSHR_MERGE:          0
cpu0->cpu0_ITLB RFO          ACCESS:          0 HIT:          0 MISS:          0 MSHR_MERGE:          0
cpu0->cpu0_ITLB PREFETCH     ACCESS:          0 HIT:          0 MISS:          0 MSHR_MERGE:          0
cpu0->cpu0_ITLB WRITE        ACCESS:          0 HIT:          0 MISS:          0 MSHR_MERGE:          0
cpu0->cpu0_ITLB TRANSLATION  ACCESS:          0 HIT:          0 MISS:          0 MSHR_MERGE:          0
cpu0->cpu0_ITLB PREFETCH REQUESTED:          0 ISSUED:          0 USEFUL:          0 USELESS:          0 LATE:          0
cpu0->cpu0_ITLB AVERAGE MISS LATENCY: - cycles
cpu0->cpu0_DTLB TOTAL        ACCESS:   44443589 HIT:   42472983 MISS:    1970606 MSHR_MERGE:      29615
cpu0->cpu0_DTLB LOAD         ACCESS:   44443589 HIT:   42472983 MISS:    1970606 MSHR_MERGE:      29615
cpu0->cpu0_DTLB RFO          ACCESS:          0 HIT:          0 MISS:          0 MSHR_MERGE:          0
cpu0->cpu0_DTLB PREFETCH     ACCESS:          0 HIT:          0 MISS:          0 MSHR_MERGE:          0
cpu0->cpu0_DTLB WRITE        ACCESS:          0 HIT:          0 MISS:          0 MSHR_MERGE:          0
cpu0->cpu0_DTLB TRANSLATION  ACCESS:          0 HIT:          0 MISS:          0 MSHR_MERGE:          0
cpu0->cpu0_DTLB PREFETCH REQUESTED:          0 ISSUED:          0 USEFUL:          0 USELESS:          0 LATE:          0
cpu0->cpu0_DTLB AVERAGE MISS LATENCY: 10.69 cycles
cpu0->LLC TOTAL        ACCESS:    4721678 HIT:     268462 MISS:    4453216 MSHR_MERGE:         19
cpu0->LLC LOAD         ACCESS:    2054231 HIT:     192714 MISS:    1861517 MSHR_MERGE:          0
cpu0->LLC RFO          ACCESS:          0 HIT:          0 MISS:          0 MSHR_MERGE:          0
cpu0->LLC PREFETCH     ACCESS:    2181499 HIT:        756 MISS:    2180743 MSHR_MERGE:         19
cpu0->LLC WRITE        ACCESS:     473835 HIT:      74955 MISS:     398880 MSHR_MERGE:          0
cpu0->LLC TRANSLATION  ACCESS:      12113 HIT:         37 MISS:      12076 MSHR_MERGE:          0
cpu0->LLC PREFETCH REQUESTED:          0 ISSUED:          0 USEFUL:          0 USELESS:          0 LATE:          0
cpu0->LLC AVERAGE MISS LATENCY: 165 cycles

DRAM Statistics

Channel 0 RQ ROW_BUFFER_HIT:      55506
  ROW_BUFFER_MISS:    3998802
  AVG DBUS CONGESTED CYCLE: 14.27
Channel 0 WQ ROW_BUFFER_HIT:     139157
  ROW_BUFFER_MISS:     334854
  FULL:          0
Channel 0 REFRESHES ISSUED:      45110

[ROI Statistics]
[System Configuration]
num_cpus 1
cpu_freq 4000
fetch_width 6
decode_width 6
dispatch_width 6
execute_width 6
lq_width 2
sq_width 2
retire_width 6
scheduler_size 128
branch_mispredict_penalty 15
rob_size 352
lq_size 128
sq_size 72
ifetch_buffer_size 64
decode_buffer_size 32
dispatch_buffer_size 32
register_file_size 288
decode_latency 1
dispatch_latency 1
schedule_latency 1
execute_latency 1
page_size 4096
block_size 64
core_0_itlb_set 16
core_0_itlb_way 4
core_0_itlb_rq_size 16
core_0_itlb_wq_size 16
core_0_itlb_pq_size 0
core_0_itlb_mshr_size 8
core_0_itlb_hit_latency 1
core_0_itlb_fill_latency 1
core_0_itlb_max_tag_check 2
core_0_itlb_max_fill 2
core_0_dtlb_set 16
core_0_dtlb_way 4
core_0_dtlb_rq_size 16
core_0_dtlb_wq_size 16
core_0_dtlb_pq_size 0
core_0_dtlb_mshr_size 8
core_0_dtlb_hit_latency 1
core_0_dtlb_fill_latency 1
core_0_dtlb_max_tag_check 2
core_0_dtlb_max_fill 2
core_0_stlb_set 128
core_0_stlb_way 12
core_0_stlb_rq_size 32
core_0_stlb_wq_size 32
core_0_stlb_pq_size 0
core_0_stlb_mshr_size 16
core_0_stlb_hit_latency 4
core_0_stlb_fill_latency 4
core_0_stlb_max_tag_check 1
core_0_stlb_max_fill 1
core_0_l1i_set 64
core_0_l1i_way 8
core_0_l1i_rq_size 64
core_0_l1i_wq_size 64
core_0_l1i_pq_size 32
core_0_l1i_mshr_size 8
core_0_l1i_hit_latency 2
core_0_l1i_fill_latency 2
core_0_l1i_max_tag_check 2
core_0_l1i_max_fill 2
core_0_l1d_set 64
core_0_l1d_way 12
core_0_l1d_rq_size 64
core_0_l1d_wq_size 64
core_0_l1d_pq_size 8
core_0_l1d_mshr_size 16
core_0_l1d_hit_latency 2
core_0_l1d_fill_latency 3
core_0_l1d_max_tag_check 2
core_0_l1d_max_fill 2
core_0_l2c_set 1024
core_0_l2c_way 8
core_0_l2c_rq_size 32
core_0_l2c_wq_size 32
core_0_l2c_pq_size 16
core_0_l2c_mshr_size 32
core_0_l2c_hit_latency 5
core_0_l2c_fill_latency 5
core_0_l2c_max_tag_check 1
core_0_l2c_max_fill 1
llc_set 2048
llc_way 16
llc_rq_size 32
llc_wq_size 32
llc_pq_size 32
llc_mshr_size 64
llc_hit_latency 10
llc_fill_latency 10
llc_max_tag_check 1
llc_max_fill 1
dram_channels 1
dram_ranks 1
dram_bankgroups 8
dram_banks 4
dram_rows 65536
dram_columns 1024
dram_channel_width 8
dram_rq_size 64
dram_wq_size 64
dram_size 17179869184
core_0_itlb_prefetcher no
core_0_dtlb_prefetcher no
core_0_stlb_prefetcher no
core_0_l1i_prefetcher next_line
core_0_l1d_prefetcher vberti
core_0_l2c_prefetcher ip_stride
llc_prefetcher no
llc_replacement drrip

Core_0_instructions 100000004
Core_0_cycles 541319353
Core_0_IPC 0.184734
Core_0_branch_prediction_accuracy 90.2913
Core_0_branch_MPKI 17.6274
Core_0_average_ROB_occupancy_at_mispredict 33.5463

Core_0_ITLB_total_access 1555
Core_0_ITLB_total_hit 1555
Core_0_ITLB_total_miss 0
Core_0_ITLB_total_MPKI 0
Core_0_ITLB_total_miss_rate 0
Core_0_ITLB_demand_access 1555
Core_0_ITLB_demand_hit 1555
Core_0_ITLB_demand_miss 0
Core_0_ITLB_demand_MPKI 0
Core_0_ITLB_demand_miss_rate 0
Core_0_ITLB_load_access 1555
Core_0_ITLB_load_hit 1555
Core_0_ITLB_load_miss 0
Core_0_ITLB_load_MPKI 0
Core_0_ITLB_load_miss_rate 0
Core_0_ITLB_rfo_access 0
Core_0_ITLB_rfo_hit 0
Core_0_ITLB_rfo_miss 0
Core_0_ITLB_rfo_MPKI 0
Core_0_ITLB_rfo_miss_rate 0
Core_0_ITLB_prefetch_access 0
Core_0_ITLB_prefetch_hit 0
Core_0_ITLB_prefetch_miss 0
Core_0_ITLB_prefetch_MPKI 0
Core_0_ITLB_prefetch_miss_rate 0
Core_0_ITLB_writeback_access 0
Core_0_ITLB_writeback_hit 0
Core_0_ITLB_writeback_miss 0
Core_0_ITLB_writeback_MPKI 0
Core_0_ITLB_writeback_miss_rate 0
Core_0_ITLB_prefetch_requested 0
Core_0_ITLB_prefetch_issued 0
Core_0_ITLB_prefetch_useful 0
Core_0_ITLB_prefetch_useless 0
Core_0_ITLB_prefetch_late 0
Core_0_ITLB_prefetch_accuracy 0
Core_0_ITLB_prefetch_coverage 0
Core_0_ITLB_total_eviction 0

Core_0_DTLB_total_access 44443589
Core_0_DTLB_total_hit 42472983
Core_0_DTLB_total_miss 1970606
Core_0_DTLB_total_MPKI 19.7061
Core_0_DTLB_total_miss_rate 0.0443395
Core_0_DTLB_demand_access 44443589
Core_0_DTLB_demand_hit 42472983
Core_0_DTLB_demand_miss 1970606
Core_0_DTLB_demand_MPKI 19.7061
Core_0_DTLB_demand_miss_rate 0.0443395
Core_0_DTLB_load_access 44443589
Core_0_DTLB_load_hit 42472983
Core_0_DTLB_load_miss 1970606
Core_0_DTLB_load_MPKI 19.7061
Core_0_DTLB_load_miss_rate 0.0443395
Core_0_DTLB_rfo_access 0
Core_0_DTLB_rfo_hit 0
Core_0_DTLB_rfo_miss 0
Core_0_DTLB_rfo_MPKI 0
Core_0_DTLB_rfo_miss_rate 0
Core_0_DTLB_prefetch_access 0
Core_0_DTLB_prefetch_hit 0
Core_0_DTLB_prefetch_miss 0
Core_0_DTLB_prefetch_MPKI 0
Core_0_DTLB_prefetch_miss_rate 0
Core_0_DTLB_writeback_access 0
Core_0_DTLB_writeback_hit 0
Core_0_DTLB_writeback_miss 0
Core_0_DTLB_writeback_MPKI 0
Core_0_DTLB_writeback_miss_rate 0
Core_0_DTLB_prefetch_requested 0
Core_0_DTLB_prefetch_issued 0
Core_0_DTLB_prefetch_useful 0
Core_0_DTLB_prefetch_useless 0
Core_0_DTLB_prefetch_late 0
Core_0_DTLB_prefetch_accuracy 0
Core_0_DTLB_prefetch_coverage 0
Core_0_DTLB_total_eviction 1940991

Core_0_STLB_total_access 1940991
Core_0_STLB_total_hit 1899210
Core_0_STLB_total_miss 41781
Core_0_STLB_total_MPKI 0.41781
Core_0_STLB_total_miss_rate 0.0215256
Core_0_STLB_demand_access 1940991
Core_0_STLB_demand_hit 1899210
Core_0_STLB_demand_miss 41781
Core_0_STLB_demand_MPKI 0.41781
Core_0_STLB_demand_miss_rate 0.0215256
Core_0_STLB_load_access 1940991
Core_0_STLB_load_hit 1899210
Core_0_STLB_load_miss 41781
Core_0_STLB_load_MPKI 0.41781
Core_0_STLB_load_miss_rate 0.0215256
Core_0_STLB_rfo_access 0
Core_0_STLB_rfo_hit 0
Core_0_STLB_rfo_miss 0
Core_0_STLB_rfo_MPKI 0
Core_0_STLB_rfo_miss_rate 0
Core_0_STLB_prefetch_access 0
Core_0_STLB_prefetch_hit 0
Core_0_STLB_prefetch_miss 0
Core_0_STLB_prefetch_MPKI 0
Core_0_STLB_prefetch_miss_rate 0
Core_0_STLB_writeback_access 0
Core_0_STLB_writeback_hit 0
Core_0_STLB_writeback_miss 0
Core_0_STLB_writeback_MPKI 0
Core_0_STLB_writeback_miss_rate 0
Core_0_STLB_prefetch_requested 0
Core_0_STLB_prefetch_issued 0
Core_0_STLB_prefetch_useful 0
Core_0_STLB_prefetch_useless 0
Core_0_STLB_prefetch_late 0
Core_0_STLB_prefetch_accuracy 0
Core_0_STLB_prefetch_coverage 0
Core_0_STLB_total_eviction 1821782

Core_0_L1I_total_access 1556
Core_0_L1I_total_hit 1556
Core_0_L1I_total_miss 0
Core_0_L1I_total_MPKI 0
Core_0_L1I_total_miss_rate 0
Core_0_L1I_demand_access 1556
Core_0_L1I_demand_hit 1556
Core_0_L1I_demand_miss 0
Core_0_L1I_demand_MPKI 0
Core_0_L1I_demand_miss_rate 0
Core_0_L1I_load_access 1556
Core_0_L1I_load_hit 1556
Core_0_L1I_load_miss 0
Core_0_L1I_load_MPKI 0
Core_0_L1I_load_miss_rate 0
Core_0_L1I_rfo_access 0
Core_0_L1I_rfo_hit 0
Core_0_L1I_rfo_miss 0
Core_0_L1I_rfo_MPKI 0
Core_0_L1I_rfo_miss_rate 0
Core_0_L1I_prefetch_access 0
Core_0_L1I_prefetch_hit 0
Core_0_L1I_prefetch_miss 0
Core_0_L1I_prefetch_MPKI 0
Core_0_L1I_prefetch_miss_rate 0
Core_0_L1I_writeback_access 0
Core_0_L1I_writeback_hit 0
Core_0_L1I_writeback_miss 0
Core_0_L1I_writeback_MPKI 0
Core_0_L1I_writeback_miss_rate 0
Core_0_L1I_prefetch_requested 0
Core_0_L1I_prefetch_issued 0
Core_0_L1I_prefetch_useful 0
Core_0_L1I_prefetch_useless 0
Core_0_L1I_prefetch_late 0
Core_0_L1I_prefetch_accuracy 0
Core_0_L1I_prefetch_coverage 0
Core_0_L1I_total_eviction 0

Core_0_L1D_total_access 56180877
Core_0_L1D_total_hit 46935850
Core_0_L1D_total_miss 9245027
Core_0_L1D_total_MPKI 92.4503
Core_0_L1D_total_miss_rate 0.164558
Core_0_L1D_demand_access 21718764
Core_0_L1D_demand_hit 19171027
Core_0_L1D_demand_miss 2547737
Core_0_L1D_demand_MPKI 25.4774
Core_0_L1D_demand_miss_rate 0.117306
Core_0_L1D_load_access 21718764
Core_0_L1D_load_hit 19171027
Core_0_L1D_load_miss 2547737
Core_0_L1D_load_MPKI 25.4774
Core_0_L1D_load_miss_rate 0.117306
Core_0_L1D_rfo_access 0
Core_0_L1D_rfo_hit 0
Core_0_L1D_rfo_miss 0
Core_0_L1D_rfo_MPKI 0
Core_0_L1D_rfo_miss_rate 0
Core_0_L1D_prefetch_access 32722084
Core_0_L1D_prefetch_hit 26024794
Core_0_L1D_prefetch_miss 6697290
Core_0_L1D_prefetch_MPKI 66.9729
Core_0_L1D_prefetch_miss_rate 0.204672
Core_0_L1D_writeback_access 1740029
Core_0_L1D_writeback_hit 1740029
Core_0_L1D_writeback_miss 0
Core_0_L1D_writeback_MPKI 0
Core_0_L1D_writeback_miss_rate 0
Core_0_L1D_prefetch_requested 82238784
Core_0_L1D_prefetch_issued 32722076
Core_0_L1D_prefetch_useful 765290
Core_0_L1D_prefetch_useless 92812
Core_0_L1D_prefetch_late 704
Core_0_L1D_prefetch_accuracy 0.0233876
Core_0_L1D_prefetch_coverage 0.230994
Core_0_L1D_total_eviction 3419826

Core_0_L2C_total_access 11639232
Core_0_L2C_total_hit 7167371
Core_0_L2C_total_miss 4471861
Core_0_L2C_total_MPKI 44.7186
Core_0_L2C_total_miss_rate 0.384206
Core_0_L2C_demand_access 2546449
Core_0_L2C_demand_hit 485132
Core_0_L2C_demand_miss 2061317
Core_0_L2C_demand_MPKI 20.6132
Core_0_L2C_demand_miss_rate 0.809487
Core_0_L2C_load_access 2546449
Core_0_L2C_load_hit 485132
Core_0_L2C_load_miss 2061317
Core_0_L2C_load_MPKI 20.6132
Core_0_L2C_load_miss_rate 0.809487
Core_0_L2C_rfo_access 0
Core_0_L2C_rfo_hit 0
Core_0_L2C_rfo_miss 0
Core_0_L2C_rfo_MPKI 0
Core_0_L2C_rfo_miss_rate 0
Core_0_L2C_prefetch_access 8619062
Core_0_L2C_prefetch_hit 6208518
Core_0_L2C_prefetch_miss 2410544
Core_0_L2C_prefetch_MPKI 24.1054
Core_0_L2C_prefetch_miss_rate 0.279676
Core_0_L2C_writeback_access 473721
Core_0_L2C_writeback_hit 473721
Core_0_L2C_writeback_miss 0
Core_0_L2C_writeback_MPKI 0
Core_0_L2C_writeback_miss_rate 0
Core_0_L2C_prefetch_requested 1928988
Core_0_L2C_prefetch_issued 1928988
Core_0_L2C_prefetch_useful 408218
Core_0_L2C_prefetch_useless 152970
Core_0_L2C_prefetch_late 1033
Core_0_L2C_prefetch_accuracy 0.211623
Core_0_L2C_prefetch_coverage 0.165302
Core_0_L2C_total_eviction 4247407

Core_0_LLC_total_access 4709565
Core_0_LLC_total_hit 268425
Core_0_LLC_total_miss 4441140
Core_0_LLC_total_MPKI 44.4114
Core_0_LLC_total_miss_rate 0.943004
Core_0_LLC_demand_access 2054231
Core_0_LLC_demand_hit 192714
Core_0_LLC_demand_miss 1861517
Core_0_LLC_demand_MPKI 18.6152
Core_0_LLC_demand_miss_rate 0.906187
Core_0_LLC_load_access 2054231
Core_0_LLC_load_hit 192714
Core_0_LLC_load_miss 1861517
Core_0_LLC_load_MPKI 18.6152
Core_0_LLC_load_miss_rate 0.906187
Core_0_LLC_rfo_access 0
Core_0_LLC_rfo_hit 0
Core_0_LLC_rfo_miss 0
Core_0_LLC_rfo_MPKI 0
Core_0_LLC_rfo_miss_rate 0
Core_0_LLC_prefetch_access 2181499
Core_0_LLC_prefetch_hit 756
Core_0_LLC_prefetch_miss 2180743
Core_0_LLC_prefetch_MPKI 21.8074
Core_0_LLC_prefetch_miss_rate 0.999653
Core_0_LLC_writeback_access 473835
Core_0_LLC_writeback_hit 74955
Core_0_LLC_writeback_miss 398880
Core_0_LLC_writeback_MPKI 3.9888
Core_0_LLC_writeback_miss_rate 0.841812
Core_0_LLC_prefetch_requested 0
Core_0_LLC_prefetch_issued 0
Core_0_LLC_prefetch_useful 0
Core_0_LLC_prefetch_useless 0
Core_0_LLC_prefetch_late 0
Core_0_LLC_prefetch_accuracy 0
Core_0_LLC_prefetch_coverage 0
Core_0_LLC_total_eviction 4453192

[DRAM Statistics]
Channel_0_RQ_row_buffer_hit 55506
Channel_0_RQ_row_buffer_miss 3998802
Channel_0_WQ_row_buffer_hit 139157
Channel_0_WQ_row_buffer_miss 334854
Channel_0_WQ_full 0
Channel_0_dbus_congested 12551831
DRAM_total_RQ_row_buffer_hit 55506
DRAM_total_RQ_row_buffer_miss 3998802
DRAM_total_WQ_row_buffer_hit 139157
DRAM_total_WQ_row_buffer_miss 334854
DRAM_total_WQ_full 0
DRAM_total_dbus_congested 12551831
DRAM_avg_congested_cycle 14.2705

======STLB miss causes ========
Core_0_STLB_miss_cause_breakdown
Core_0_STLB_cause_Demand_Data_miss 0
Core_0_STLB_cause_Demand_Data_miss_rate 0
Core_0_STLB_cause_Demand_Instruction_miss 0
Core_0_STLB_cause_Demand_Instruction_miss_rate 0
Core_0_STLB_cause_L1D_Prefetch_miss 41781
Core_0_STLB_cause_L1D_Prefetch_miss_rate 0.0215256
Core_0_STLB_cause_L1I_Prefetch_miss 0
Core_0_STLB_cause_L1I_Prefetch_miss_rate 0
Core_0_STLB_cause_Other_miss 0
Core_0_STLB_cause_Other_miss_rate 0
Core_0_STLB_Demand_miss 0
Core_0_STLB_Demand_miss_rate 0
Core_0_STLB_L1D_Prefetch_miss 41781
Core_0_STLB_L1D_Prefetch_miss_rate 0.0215256
Core_0_STLB_Other_miss 0
Core_0_STLB_Other_miss_rate 0
BERTI TO_L1: 88574249 TO_L2: 20286790 TO_L2_BC_MSHR: 1011
BERTI AVG_LAT: 116.68 NUM_TRACK_LATENCY: 5063660 NUM_CANT_TRACK_LATENCY: 0
BERTI CROSS_PAGE 14237737 NO_CROSS_PAGE: 94623302
BERTI FOUND_BERTI: 17578255 NO_FOUND_BERTI: 14196629
BERTI AVERAGE_ISSUED: 4.47187
