[VMEM] WARNING: physical memory size is smaller than virtual memory size.

*** ChampSim Multicore Out-of-Order Simulator ***
Warmup Instructions: 50000000
Simulation Instructions: 100000000
Number of CPUs: 1
Page size: 4096
STLB ideal mode: demand
STLB ideal fill: on
Core 0: /data2/zcq/champsim_traces_gap/cc.kron-10B.champsimtrace.xz
VBerti Prefetcher
BERTI HASH ENTANGLING
BERTI IP MASK ffff
Off-chip DRAM Size: 16 GiB Channels: 1 Width: 64-bit Data Rate: 3205 MT/s
Warmup halting CPU 0 at instruction 50000005 cycle 10193501 for remainder of phase
Warmup finished CPU 0 instructions: 50000005 cycles: 10193501 cumulative IPC: 4.905 (Simulation time: 00 hr 02 min 13 sec)
Warmup complete CPU 0 instructions: 50000005 cycles: 10193501 cumulative IPC: 4.905 (Simulation time: 00 hr 02 min 13 sec)
Simulation finished CPU 0 instructions: 100000004 cycles: 424373266 cumulative IPC: 0.2356 (Simulation time: 00 hr 30 min 49 sec)
Simulation complete CPU 0 instructions: 100000004 cycles: 424373266 cumulative IPC: 0.2356 (Simulation time: 00 hr 30 min 49 sec)

ChampSim completed all CPUs

=== Simulation ===
CPU 0 runs /data2/zcq/champsim_traces_gap/cc.kron-10B.champsimtrace.xz

Region of Interest Statistics

CPU 0 cumulative IPC: 0.2356 instructions: 100000004 cycles: 424373266
CPU 0 Branch Prediction Accuracy: 88.45% MPKI: 19.16 Average ROB Occupancy at Mispredict: 25.57
Branch type MPKI
BRANCH_DIRECT_JUMP: 0
BRANCH_INDIRECT: 0
BRANCH_CONDITIONAL: 19.16
BRANCH_DIRECT_CALL: 0
BRANCH_INDIRECT_CALL: 0
BRANCH_RETURN: 0

cpu0->cpu0_STLB TOTAL        ACCESS:    1712210 HIT:    1677513 MISS:      34697 MSHR_MERGE:          0
cpu0->cpu0_STLB LOAD         ACCESS:    1712210 HIT:    1677513 MISS:      34697 MSHR_MERGE:          0
cpu0->cpu0_STLB RFO          ACCESS:          0 HIT:          0 MISS:          0 MSHR_MERGE:          0
cpu0->cpu0_STLB PREFETCH     ACCESS:          0 HIT:          0 MISS:          0 MSHR_MERGE:          0
cpu0->cpu0_STLB WRITE        ACCESS:          0 HIT:          0 MISS:          0 MSHR_MERGE:          0
cpu0->cpu0_STLB TRANSLATION  ACCESS:          0 HIT:          0 MISS:          0 MSHR_MERGE:          0
cpu0->cpu0_STLB PREFETCH REQUESTED:          0 ISSUED:          0 USEFUL:          0 USELESS:          0 LATE:          0
cpu0->cpu0_STLB AVERAGE MISS LATENCY: 265.6 cycles
cpu0->cpu0_L2C TOTAL        ACCESS:    8587821 HIT:    4972833 MISS:    3614988 MSHR_MERGE:     158840
cpu0->cpu0_L2C LOAD         ACCESS:    2561505 HIT:     904525 MISS:    1656980 MSHR_MERGE:       4946
cpu0->cpu0_L2C RFO          ACCESS:          0 HIT:          0 MISS:          0 MSHR_MERGE:          0
cpu0->cpu0_L2C PREFETCH     ACCESS:    6009293 HIT:    4061399 MISS:    1947894 MSHR_MERGE:     153894
cpu0->cpu0_L2C WRITE        ACCESS:       2751 HIT:       2751 MISS:          0 MSHR_MERGE:          0
cpu0->cpu0_L2C TRANSLATION  ACCESS:      14272 HIT:       4158 MISS:      10114 MSHR_MERGE:          0
cpu0->cpu0_L2C PREFETCH REQUESTED:    1513086 ISSUED:    1513086 USEFUL:     339797 USELESS:     129287 LATE:        652
cpu0->cpu0_L2C AVERAGE MISS LATENCY: 164 cycles
cpu0->cpu0_L1I TOTAL        ACCESS:      40236 HIT:      40236 MISS:          0 MSHR_MERGE:          0
cpu0->cpu0_L1I LOAD         ACCESS:      40236 HIT:      40236 MISS:          0 MSHR_MERGE:          0
cpu0->cpu0_L1I RFO          ACCESS:          0 HIT:          0 MISS:          0 MSHR_MERGE:          0
cpu0->cpu0_L1I PREFETCH     ACCESS:          0 HIT:          0 MISS:          0 MSHR_MERGE:          0
cpu0->cpu0_L1I WRITE        ACCESS:          0 HIT:          0 MISS:          0 MSHR_MERGE:          0
cpu0->cpu0_L1I TRANSLATION  ACCESS:          0 HIT:          0 MISS:          0 MSHR_MERGE:          0
cpu0->cpu0_L1I PREFETCH REQUESTED:          0 ISSUED:          0 USEFUL:          0 USELESS:          0 LATE:          0
cpu0->cpu0_L1I AVERAGE MISS LATENCY: - cycles
cpu0->cpu0_L1D TOTAL        ACCESS:   47438658 HIT:   40358264 MISS:    7080394 MSHR_MERGE:       5508
cpu0->cpu0_L1D LOAD         ACCESS:   21225114 HIT:   18660380 MISS:    2564734 MSHR_MERGE:       3229
cpu0->cpu0_L1D RFO          ACCESS:          0 HIT:          0 MISS:          0 MSHR_MERGE:          0
cpu0->cpu0_L1D PREFETCH     ACCESS:   26141258 HIT:   21639906 MISS:    4501352 MSHR_MERGE:       2243
cpu0->cpu0_L1D WRITE        ACCESS:       2752 HIT:       2752 MISS:          0 MSHR_MERGE:          0
cpu0->cpu0_L1D TRANSLATION  ACCESS:      69534 HIT:      55226 MISS:      14308 MSHR_MERGE:         36
cpu0->cpu0_L1D PREFETCH REQUESTED:   59883931 ISSUED:   26141250 USEFUL:     634987 USELESS:      68468 LATE:        416
cpu0->cpu0_L1D AVERAGE MISS LATENCY: 114.8 cycles
cpu0->cpu0_ITLB TOTAL        ACCESS:      40235 HIT:      40235 MISS:          0 MSHR_MERGE:          0
cpu0->cpu0_ITLB LOAD         ACCESS:      40235 HIT:      40235 MISS:          0 MSHR_MERGE:          0
cpu0->cpu0_ITLB RFO          ACCESS:          0 HIT:          0 MISS:          0 MSHR_MERGE:          0
cpu0->cpu0_ITLB PREFETCH     ACCESS:          0 HIT:          0 MISS:          0 MSHR_MERGE:          0
cpu0->cpu0_ITLB WRITE        ACCESS:          0 HIT:          0 MISS:          0 MSHR_MERGE:          0
cpu0->cpu0_ITLB TRANSLATION  ACCESS:          0 HIT:          0 MISS:          0 MSHR_MERGE:          0
cpu0->cpu0_ITLB PREFETCH REQUESTED:          0 ISSUED:          0 USEFUL:          0 USELESS:          0 LATE:          0
cpu0->cpu0_ITLB AVERAGE MISS LATENCY: - cycles
cpu0->cpu0_DTLB TOTAL        ACCESS:   36151065 HIT:   34416386 MISS:    1734679 MSHR_MERGE:      22469
cpu0->cpu0_DTLB LOAD         ACCESS:   36151065 HIT:   34416386 MISS:    1734679 MSHR_MERGE:      22469
cpu0->cpu0_DTLB RFO          ACCESS:          0 HIT:          0 MISS:          0 MSHR_MERGE:          0
cpu0->cpu0_DTLB PREFETCH     ACCESS:          0 HIT:          0 MISS:          0 MSHR_MERGE:          0
cpu0->cpu0_DTLB WRITE        ACCESS:          0 HIT:          0 MISS:          0 MSHR_MERGE:          0
cpu0->cpu0_DTLB TRANSLATION  ACCESS:          0 HIT:          0 MISS:          0 MSHR_MERGE:          0
cpu0->cpu0_DTLB PREFETCH REQUESTED:          0 ISSUED:          0 USEFUL:          0 USELESS:          0 LATE:          0
cpu0->cpu0_DTLB AVERAGE MISS LATENCY: 10.4 cycles
cpu0->LLC TOTAL        ACCESS:    3458899 HIT:     391895 MISS:    3067004 MSHR_MERGE:         33
cpu0->LLC LOAD         ACCESS:    1652034 HIT:     391082 MISS:    1260952 MSHR_MERGE:          0
cpu0->LLC RFO          ACCESS:          0 HIT:          0 MISS:          0 MSHR_MERGE:          0
cpu0->LLC PREFETCH     ACCESS:    1794000 HIT:        332 MISS:    1793668 MSHR_MERGE:         33
cpu0->LLC WRITE        ACCESS:       2751 HIT:        449 MISS:       2302 MSHR_MERGE:          0
cpu0->LLC TRANSLATION  ACCESS:      10114 HIT:         32 MISS:      10082 MSHR_MERGE:          0
cpu0->LLC PREFETCH REQUESTED:          0 ISSUED:          0 USEFUL:          0 USELESS:          0 LATE:          0
cpu0->LLC AVERAGE MISS LATENCY: 193.8 cycles

DRAM Statistics

Channel 0 RQ ROW_BUFFER_HIT:      92711
  ROW_BUFFER_MISS:    2971958
  AVG DBUS CONGESTED CYCLE: 3.352
Channel 0 WQ ROW_BUFFER_HIT:        979
  ROW_BUFFER_MISS:       1956
  FULL:          0
Channel 0 REFRESHES ISSUED:      35364

[ROI Statistics]
[System Configuration]
num_cpus 1
cpu_freq 4000
fetch_width 6
decode_width 6
dispatch_width 6
execute_width 6
lq_width 2
sq_width 2
retire_width 6
scheduler_size 128
branch_mispredict_penalty 15
rob_size 352
lq_size 128
sq_size 72
ifetch_buffer_size 64
decode_buffer_size 32
dispatch_buffer_size 32
register_file_size 288
decode_latency 1
dispatch_latency 1
schedule_latency 1
execute_latency 1
page_size 4096
block_size 64
core_0_itlb_set 16
core_0_itlb_way 4
core_0_itlb_rq_size 16
core_0_itlb_wq_size 16
core_0_itlb_pq_size 0
core_0_itlb_mshr_size 8
core_0_itlb_hit_latency 1
core_0_itlb_fill_latency 1
core_0_itlb_max_tag_check 2
core_0_itlb_max_fill 2
core_0_dtlb_set 16
core_0_dtlb_way 4
core_0_dtlb_rq_size 16
core_0_dtlb_wq_size 16
core_0_dtlb_pq_size 0
core_0_dtlb_mshr_size 8
core_0_dtlb_hit_latency 1
core_0_dtlb_fill_latency 1
core_0_dtlb_max_tag_check 2
core_0_dtlb_max_fill 2
core_0_stlb_set 128
core_0_stlb_way 12
core_0_stlb_rq_size 32
core_0_stlb_wq_size 32
core_0_stlb_pq_size 0
core_0_stlb_mshr_size 16
core_0_stlb_hit_latency 4
core_0_stlb_fill_latency 4
core_0_stlb_max_tag_check 1
core_0_stlb_max_fill 1
core_0_l1i_set 64
core_0_l1i_way 8
core_0_l1i_rq_size 64
core_0_l1i_wq_size 64
core_0_l1i_pq_size 32
core_0_l1i_mshr_size 8
core_0_l1i_hit_latency 2
core_0_l1i_fill_latency 2
core_0_l1i_max_tag_check 2
core_0_l1i_max_fill 2
core_0_l1d_set 64
core_0_l1d_way 12
core_0_l1d_rq_size 64
core_0_l1d_wq_size 64
core_0_l1d_pq_size 8
core_0_l1d_mshr_size 16
core_0_l1d_hit_latency 2
core_0_l1d_fill_latency 3
core_0_l1d_max_tag_check 2
core_0_l1d_max_fill 2
core_0_l2c_set 1024
core_0_l2c_way 8
core_0_l2c_rq_size 32
core_0_l2c_wq_size 32
core_0_l2c_pq_size 16
core_0_l2c_mshr_size 32
core_0_l2c_hit_latency 5
core_0_l2c_fill_latency 5
core_0_l2c_max_tag_check 1
core_0_l2c_max_fill 1
llc_set 2048
llc_way 16
llc_rq_size 32
llc_wq_size 32
llc_pq_size 32
llc_mshr_size 64
llc_hit_latency 10
llc_fill_latency 10
llc_max_tag_check 1
llc_max_fill 1
dram_channels 1
dram_ranks 1
dram_bankgroups 8
dram_banks 4
dram_rows 65536
dram_columns 1024
dram_channel_width 8
dram_rq_size 64
dram_wq_size 64
dram_size 17179869184
core_0_itlb_prefetcher no
core_0_dtlb_prefetcher no
core_0_stlb_prefetcher no
core_0_l1i_prefetcher next_line
core_0_l1d_prefetcher vberti
core_0_l2c_prefetcher ip_stride
llc_prefetcher no
llc_replacement drrip

Core_0_instructions 100000004
Core_0_cycles 424373266
Core_0_IPC 0.235642
Core_0_branch_prediction_accuracy 88.4534
Core_0_branch_MPKI 19.1622
Core_0_average_ROB_occupancy_at_mispredict 25.5737

Core_0_ITLB_total_access 40235
Core_0_ITLB_total_hit 40235
Core_0_ITLB_total_miss 0
Core_0_ITLB_total_MPKI 0
Core_0_ITLB_total_miss_rate 0
Core_0_ITLB_demand_access 40235
Core_0_ITLB_demand_hit 40235
Core_0_ITLB_demand_miss 0
Core_0_ITLB_demand_MPKI 0
Core_0_ITLB_demand_miss_rate 0
Core_0_ITLB_load_access 40235
Core_0_ITLB_load_hit 40235
Core_0_ITLB_load_miss 0
Core_0_ITLB_load_MPKI 0
Core_0_ITLB_load_miss_rate 0
Core_0_ITLB_rfo_access 0
Core_0_ITLB_rfo_hit 0
Core_0_ITLB_rfo_miss 0
Core_0_ITLB_rfo_MPKI 0
Core_0_ITLB_rfo_miss_rate 0
Core_0_ITLB_prefetch_access 0
Core_0_ITLB_prefetch_hit 0
Core_0_ITLB_prefetch_miss 0
Core_0_ITLB_prefetch_MPKI 0
Core_0_ITLB_prefetch_miss_rate 0
Core_0_ITLB_writeback_access 0
Core_0_ITLB_writeback_hit 0
Core_0_ITLB_writeback_miss 0
Core_0_ITLB_writeback_MPKI 0
Core_0_ITLB_writeback_miss_rate 0
Core_0_ITLB_prefetch_requested 0
Core_0_ITLB_prefetch_issued 0
Core_0_ITLB_prefetch_useful 0
Core_0_ITLB_prefetch_useless 0
Core_0_ITLB_prefetch_late 0
Core_0_ITLB_prefetch_accuracy 0
Core_0_ITLB_prefetch_coverage 0
Core_0_ITLB_total_eviction 0

Core_0_DTLB_total_access 36151065
Core_0_DTLB_total_hit 34416386
Core_0_DTLB_total_miss 1734679
Core_0_DTLB_total_MPKI 17.3468
Core_0_DTLB_total_miss_rate 0.0479842
Core_0_DTLB_demand_access 36151065
Core_0_DTLB_demand_hit 34416386
Core_0_DTLB_demand_miss 1734679
Core_0_DTLB_demand_MPKI 17.3468
Core_0_DTLB_demand_miss_rate 0.0479842
Core_0_DTLB_load_access 36151065
Core_0_DTLB_load_hit 34416386
Core_0_DTLB_load_miss 1734679
Core_0_DTLB_load_MPKI 17.3468
Core_0_DTLB_load_miss_rate 0.0479842
Core_0_DTLB_rfo_access 0
Core_0_DTLB_rfo_hit 0
Core_0_DTLB_rfo_miss 0
Core_0_DTLB_rfo_MPKI 0
Core_0_DTLB_rfo_miss_rate 0
Core_0_DTLB_prefetch_access 0
Core_0_DTLB_prefetch_hit 0
Core_0_DTLB_prefetch_miss 0
Core_0_DTLB_prefetch_MPKI 0
Core_0_DTLB_prefetch_miss_rate 0
Core_0_DTLB_writeback_access 0
Core_0_DTLB_writeback_hit 0
Core_0_DTLB_writeback_miss 0
Core_0_DTLB_writeback_MPKI 0
Core_0_DTLB_writeback_miss_rate 0
Core_0_DTLB_prefetch_requested 0
Core_0_DTLB_prefetch_issued 0
Core_0_DTLB_prefetch_useful 0
Core_0_DTLB_prefetch_useless 0
Core_0_DTLB_prefetch_late 0
Core_0_DTLB_prefetch_accuracy 0
Core_0_DTLB_prefetch_coverage 0
Core_0_DTLB_total_eviction 1712210

Core_0_STLB_total_access 1712210
Core_0_STLB_total_hit 1677513
Core_0_STLB_total_miss 34697
Core_0_STLB_total_MPKI 0.34697
Core_0_STLB_total_miss_rate 0.0202645
Core_0_STLB_demand_access 1712210
Core_0_STLB_demand_hit 1677513
Core_0_STLB_demand_miss 34697
Core_0_STLB_demand_MPKI 0.34697
Core_0_STLB_demand_miss_rate 0.0202645
Core_0_STLB_load_access 1712210
Core_0_STLB_load_hit 1677513
Core_0_STLB_load_miss 34697
Core_0_STLB_load_MPKI 0.34697
Core_0_STLB_load_miss_rate 0.0202645
Core_0_STLB_rfo_access 0
Core_0_STLB_rfo_hit 0
Core_0_STLB_rfo_miss 0
Core_0_STLB_rfo_MPKI 0
Core_0_STLB_rfo_miss_rate 0
Core_0_STLB_prefetch_access 0
Core_0_STLB_prefetch_hit 0
Core_0_STLB_prefetch_miss 0
Core_0_STLB_prefetch_MPKI 0
Core_0_STLB_prefetch_miss_rate 0
Core_0_STLB_writeback_access 0
Core_0_STLB_writeback_hit 0
Core_0_STLB_writeback_miss 0
Core_0_STLB_writeback_MPKI 0
Core_0_STLB_writeback_miss_rate 0
Core_0_STLB_prefetch_requested 0
Core_0_STLB_prefetch_issued 0
Core_0_STLB_prefetch_useful 0
Core_0_STLB_prefetch_useless 0
Core_0_STLB_prefetch_late 0
Core_0_STLB_prefetch_accuracy 0
Core_0_STLB_prefetch_coverage 0
Core_0_STLB_total_eviction 1177489

Core_0_L1I_total_access 40236
Core_0_L1I_total_hit 40236
Core_0_L1I_total_miss 0
Core_0_L1I_total_MPKI 0
Core_0_L1I_total_miss_rate 0
Core_0_L1I_demand_access 40236
Core_0_L1I_demand_hit 40236
Core_0_L1I_demand_miss 0
Core_0_L1I_demand_MPKI 0
Core_0_L1I_demand_miss_rate 0
Core_0_L1I_load_access 40236
Core_0_L1I_load_hit 40236
Core_0_L1I_load_miss 0
Core_0_L1I_load_MPKI 0
Core_0_L1I_load_miss_rate 0
Core_0_L1I_rfo_access 0
Core_0_L1I_rfo_hit 0
Core_0_L1I_rfo_miss 0
Core_0_L1I_rfo_MPKI 0
Core_0_L1I_rfo_miss_rate 0
Core_0_L1I_prefetch_access 0
Core_0_L1I_prefetch_hit 0
Core_0_L1I_prefetch_miss 0
Core_0_L1I_prefetch_MPKI 0
Core_0_L1I_prefetch_miss_rate 0
Core_0_L1I_writeback_access 0
Core_0_L1I_writeback_hit 0
Core_0_L1I_writeback_miss 0
Core_0_L1I_writeback_MPKI 0
Core_0_L1I_writeback_miss_rate 0
Core_0_L1I_prefetch_requested 0
Core_0_L1I_prefetch_issued 0
Core_0_L1I_prefetch_useful 0
Core_0_L1I_prefetch_useless 0
Core_0_L1I_prefetch_late 0
Core_0_L1I_prefetch_accuracy 0
Core_0_L1I_prefetch_coverage 0
Core_0_L1I_total_eviction 0

Core_0_L1D_total_access 47369124
Core_0_L1D_total_hit 40303038
Core_0_L1D_total_miss 7066086
Core_0_L1D_total_MPKI 70.6609
Core_0_L1D_total_miss_rate 0.149171
Core_0_L1D_demand_access 21225114
Core_0_L1D_demand_hit 18660380
Core_0_L1D_demand_miss 2564734
Core_0_L1D_demand_MPKI 25.6473
Core_0_L1D_demand_miss_rate 0.120835
Core_0_L1D_load_access 21225114
Core_0_L1D_load_hit 18660380
Core_0_L1D_load_miss 2564734
Core_0_L1D_load_MPKI 25.6473
Core_0_L1D_load_miss_rate 0.120835
Core_0_L1D_rfo_access 0
Core_0_L1D_rfo_hit 0
Core_0_L1D_rfo_miss 0
Core_0_L1D_rfo_MPKI 0
Core_0_L1D_rfo_miss_rate 0
Core_0_L1D_prefetch_access 26141258
Core_0_L1D_prefetch_hit 21639906
Core_0_L1D_prefetch_miss 4501352
Core_0_L1D_prefetch_MPKI 45.0135
Core_0_L1D_prefetch_miss_rate 0.172193
Core_0_L1D_writeback_access 2752
Core_0_L1D_writeback_hit 2752
Core_0_L1D_writeback_miss 0
Core_0_L1D_writeback_MPKI 0
Core_0_L1D_writeback_miss_rate 0
Core_0_L1D_prefetch_requested 59883931
Core_0_L1D_prefetch_issued 26141250
Core_0_L1D_prefetch_useful 634987
Core_0_L1D_prefetch_useless 68468
Core_0_L1D_prefetch_late 416
Core_0_L1D_prefetch_accuracy 0.0242906
Core_0_L1D_prefetch_coverage 0.198451
Core_0_L1D_total_eviction 3279274

Core_0_L2C_total_access 8573549
Core_0_L2C_total_hit 4968675
Core_0_L2C_total_miss 3604874
Core_0_L2C_total_MPKI 36.0487
Core_0_L2C_total_miss_rate 0.420465
Core_0_L2C_demand_access 2561505
Core_0_L2C_demand_hit 904525
Core_0_L2C_demand_miss 1656980
Core_0_L2C_demand_MPKI 16.5698
Core_0_L2C_demand_miss_rate 0.646878
Core_0_L2C_load_access 2561505
Core_0_L2C_load_hit 904525
Core_0_L2C_load_miss 1656980
Core_0_L2C_load_MPKI 16.5698
Core_0_L2C_load_miss_rate 0.646878
Core_0_L2C_rfo_access 0
Core_0_L2C_rfo_hit 0
Core_0_L2C_rfo_miss 0
Core_0_L2C_rfo_MPKI 0
Core_0_L2C_rfo_miss_rate 0
Core_0_L2C_prefetch_access 6009293
Core_0_L2C_prefetch_hit 4061399
Core_0_L2C_prefetch_miss 1947894
Core_0_L2C_prefetch_MPKI 19.4789
Core_0_L2C_prefetch_miss_rate 0.324147
Core_0_L2C_writeback_access 2751
Core_0_L2C_writeback_hit 2751
Core_0_L2C_writeback_miss 0
Core_0_L2C_writeback_MPKI 0
Core_0_L2C_writeback_miss_rate 0
Core_0_L2C_prefetch_requested 1513086
Core_0_L2C_prefetch_issued 1513086
Core_0_L2C_prefetch_useful 339797
Core_0_L2C_prefetch_useless 129287
Core_0_L2C_prefetch_late 652
Core_0_L2C_prefetch_accuracy 0.224572
Core_0_L2C_prefetch_coverage 0.170173
Core_0_L2C_total_eviction 3455825

Core_0_LLC_total_access 3448785
Core_0_LLC_total_hit 391863
Core_0_LLC_total_miss 3056922
Core_0_LLC_total_MPKI 30.5692
Core_0_LLC_total_miss_rate 0.886377
Core_0_LLC_demand_access 1652034
Core_0_LLC_demand_hit 391082
Core_0_LLC_demand_miss 1260952
Core_0_LLC_demand_MPKI 12.6095
Core_0_LLC_demand_miss_rate 0.763272
Core_0_LLC_load_access 1652034
Core_0_LLC_load_hit 391082
Core_0_LLC_load_miss 1260952
Core_0_LLC_load_MPKI 12.6095
Core_0_LLC_load_miss_rate 0.763272
Core_0_LLC_rfo_access 0
Core_0_LLC_rfo_hit 0
Core_0_LLC_rfo_miss 0
Core_0_LLC_rfo_MPKI 0
Core_0_LLC_rfo_miss_rate 0
Core_0_LLC_prefetch_access 1794000
Core_0_LLC_prefetch_hit 332
Core_0_LLC_prefetch_miss 1793668
Core_0_LLC_prefetch_MPKI 17.9367
Core_0_LLC_prefetch_miss_rate 0.999815
Core_0_LLC_writeback_access 2751
Core_0_LLC_writeback_hit 449
Core_0_LLC_writeback_miss 2302
Core_0_LLC_writeback_MPKI 0.02302
Core_0_LLC_writeback_miss_rate 0.836787
Core_0_LLC_prefetch_requested 0
Core_0_LLC_prefetch_issued 0
Core_0_LLC_prefetch_useful 0
Core_0_LLC_prefetch_useless 0
Core_0_LLC_prefetch_late 0
Core_0_LLC_prefetch_accuracy 0
Core_0_LLC_prefetch_coverage 0
Core_0_LLC_total_eviction 3066971

[DRAM Statistics]
Channel_0_RQ_row_buffer_hit 92711
Channel_0_RQ_row_buffer_miss 2971958
Channel_0_WQ_row_buffer_hit 979
Channel_0_WQ_row_buffer_miss 1956
Channel_0_WQ_full 0
Channel_0_dbus_congested 2562708
DRAM_total_RQ_row_buffer_hit 92711
DRAM_total_RQ_row_buffer_miss 2971958
DRAM_total_WQ_row_buffer_hit 979
DRAM_total_WQ_row_buffer_miss 1956
DRAM_total_WQ_full 0
DRAM_total_dbus_congested 2562708
DRAM_avg_congested_cycle 3.35164

======STLB miss causes ========
Core_0_STLB_miss_cause_breakdown
Core_0_STLB_cause_Demand_Data_miss 0
Core_0_STLB_cause_Demand_Data_miss_rate 0
Core_0_STLB_cause_Demand_Instruction_miss 0
Core_0_STLB_cause_Demand_Instruction_miss_rate 0
Core_0_STLB_cause_L1D_Prefetch_miss 34697
Core_0_STLB_cause_L1D_Prefetch_miss_rate 0.0202645
Core_0_STLB_cause_L1I_Prefetch_miss 0
Core_0_STLB_cause_L1I_Prefetch_miss_rate 0
Core_0_STLB_cause_Other_miss 0
Core_0_STLB_cause_Other_miss_rate 0
Core_0_STLB_Demand_miss 0
Core_0_STLB_Demand_miss_rate 0
Core_0_STLB_L1D_Prefetch_miss 34697
Core_0_STLB_L1D_Prefetch_miss_rate 0.0202645
Core_0_STLB_Other_miss 0
Core_0_STLB_Other_miss_rate 0
BERTI TO_L1: 67650066 TO_L2: 14474748 TO_L2_BC_MSHR: 325
BERTI AVG_LAT: 89.3844 NUM_TRACK_LATENCY: 4853686 NUM_CANT_TRACK_LATENCY: 0
BERTI CROSS_PAGE 10091886 NO_CROSS_PAGE: 72032928
BERTI FOUND_BERTI: 18095786 NO_FOUND_BERTI: 12173022
BERTI AVERAGE_ISSUED: 4.76529
