[VMEM] WARNING: physical memory size is smaller than virtual memory size.

*** ChampSim Multicore Out-of-Order Simulator ***
Warmup Instructions: 50000000
Simulation Instructions: 100000000
Number of CPUs: 1
Page size: 4096
STLB ideal mode: demand
STLB ideal fill: on
Core 0: /data2/zcq/champsim_traces_gap/cc.urand-353B.champsimtrace.xz
VBerti Prefetcher
BERTI HASH ENTANGLING
BERTI IP MASK ffff
Off-chip DRAM Size: 16 GiB Channels: 1 Width: 64-bit Data Rate: 3205 MT/s
Warmup halting CPU 0 at instruction 50000001 cycle 11877134 for remainder of phase
Warmup finished CPU 0 instructions: 50000001 cycles: 11877134 cumulative IPC: 4.21 (Simulation time: 00 hr 03 min 00 sec)
Warmup complete CPU 0 instructions: 50000001 cycles: 11877134 cumulative IPC: 4.21 (Simulation time: 00 hr 03 min 00 sec)
Simulation finished CPU 0 instructions: 100000002 cycles: 181828021 cumulative IPC: 0.55 (Simulation time: 00 hr 27 min 29 sec)
Simulation complete CPU 0 instructions: 100000002 cycles: 181828021 cumulative IPC: 0.55 (Simulation time: 00 hr 27 min 29 sec)

ChampSim completed all CPUs

=== Simulation ===
CPU 0 runs /data2/zcq/champsim_traces_gap/cc.urand-353B.champsimtrace.xz

Region of Interest Statistics

CPU 0 cumulative IPC: 0.55 instructions: 100000002 cycles: 181828021
CPU 0 Branch Prediction Accuracy: 100% MPKI: 0 Average ROB Occupancy at Mispredict: -
Branch type MPKI
BRANCH_DIRECT_JUMP: 0
BRANCH_INDIRECT: 0
BRANCH_CONDITIONAL: 0
BRANCH_DIRECT_CALL: 0
BRANCH_INDIRECT_CALL: 0
BRANCH_RETURN: 0

cpu0->cpu0_STLB TOTAL        ACCESS:    2703587 HIT:    2613621 MISS:      89966 MSHR_MERGE:          0
cpu0->cpu0_STLB LOAD         ACCESS:    2703587 HIT:    2613621 MISS:      89966 MSHR_MERGE:          0
cpu0->cpu0_STLB RFO          ACCESS:          0 HIT:          0 MISS:          0 MSHR_MERGE:          0
cpu0->cpu0_STLB PREFETCH     ACCESS:          0 HIT:          0 MISS:          0 MSHR_MERGE:          0
cpu0->cpu0_STLB WRITE        ACCESS:          0 HIT:          0 MISS:          0 MSHR_MERGE:          0
cpu0->cpu0_STLB TRANSLATION  ACCESS:          0 HIT:          0 MISS:          0 MSHR_MERGE:          0
cpu0->cpu0_STLB PREFETCH REQUESTED:          0 ISSUED:          0 USEFUL:          0 USELESS:          0 LATE:          0
cpu0->cpu0_STLB AVERAGE MISS LATENCY: 247.8 cycles
cpu0->cpu0_L2C TOTAL        ACCESS:   19961213 HIT:    7626199 MISS:   12335014 MSHR_MERGE:    3793965
cpu0->cpu0_L2C LOAD         ACCESS:    4181608 HIT:    1325768 MISS:    2855840 MSHR_MERGE:     119490
cpu0->cpu0_L2C RFO          ACCESS:          0 HIT:          0 MISS:          0 MSHR_MERGE:          0
cpu0->cpu0_L2C PREFETCH     ACCESS:   15596928 HIT:    6129261 MISS:    9467667 MSHR_MERGE:    3674475
cpu0->cpu0_L2C WRITE        ACCESS:     164474 HIT:     164468 MISS:          6 MSHR_MERGE:          0
cpu0->cpu0_L2C TRANSLATION  ACCESS:      18203 HIT:       6702 MISS:      11501 MSHR_MERGE:          0
cpu0->cpu0_L2C PREFETCH REQUESTED:    3968488 ISSUED:    3968379 USEFUL:     630920 USELESS:     206472 LATE:      23017
cpu0->cpu0_L2C AVERAGE MISS LATENCY: 274.4 cycles
cpu0->cpu0_L1I TOTAL        ACCESS:   18680463 HIT:   18680463 MISS:          0 MSHR_MERGE:          0
cpu0->cpu0_L1I LOAD         ACCESS:   18680463 HIT:   18680463 MISS:          0 MSHR_MERGE:          0
cpu0->cpu0_L1I RFO          ACCESS:          0 HIT:          0 MISS:          0 MSHR_MERGE:          0
cpu0->cpu0_L1I PREFETCH     ACCESS:          0 HIT:          0 MISS:          0 MSHR_MERGE:          0
cpu0->cpu0_L1I WRITE        ACCESS:          0 HIT:          0 MISS:          0 MSHR_MERGE:          0
cpu0->cpu0_L1I TRANSLATION  ACCESS:          0 HIT:          0 MISS:          0 MSHR_MERGE:          0
cpu0->cpu0_L1I PREFETCH REQUESTED:          0 ISSUED:          0 USEFUL:          0 USELESS:          0 LATE:          0
cpu0->cpu0_L1I AVERAGE MISS LATENCY: - cycles
cpu0->cpu0_L1D TOTAL        ACCESS:   62856454 HIT:   46881011 MISS:   15975443 MSHR_MERGE:      87231
cpu0->cpu0_L1D LOAD         ACCESS:   23318766 HIT:   19096473 MISS:    4222293 MSHR_MERGE:      40685
cpu0->cpu0_L1D RFO          ACCESS:          0 HIT:          0 MISS:          0 MSHR_MERGE:          0
cpu0->cpu0_L1D PREFETCH     ACCESS:   36725980 HIT:   24991042 MISS:   11734938 MSHR_MERGE:      46537
cpu0->cpu0_L1D WRITE        ACCESS:    2631579 HIT:    2631579 MISS:          0 MSHR_MERGE:          0
cpu0->cpu0_L1D TRANSLATION  ACCESS:     180129 HIT:     161917 MISS:      18212 MSHR_MERGE:          9
cpu0->cpu0_L1D PREFETCH REQUESTED:  100604185 ISSUED:   36725978 USEFUL:    1573383 USELESS:    1044805 LATE:      40641
cpu0->cpu0_L1D AVERAGE MISS LATENCY: 195.2 cycles
cpu0->cpu0_ITLB TOTAL        ACCESS:   16048875 HIT:   16048875 MISS:          0 MSHR_MERGE:          0
cpu0->cpu0_ITLB LOAD         ACCESS:   16048875 HIT:   16048875 MISS:          0 MSHR_MERGE:          0
cpu0->cpu0_ITLB RFO          ACCESS:          0 HIT:          0 MISS:          0 MSHR_MERGE:          0
cpu0->cpu0_ITLB PREFETCH     ACCESS:          0 HIT:          0 MISS:          0 MSHR_MERGE:          0
cpu0->cpu0_ITLB WRITE        ACCESS:          0 HIT:          0 MISS:          0 MSHR_MERGE:          0
cpu0->cpu0_ITLB TRANSLATION  ACCESS:          0 HIT:          0 MISS:          0 MSHR_MERGE:          0
cpu0->cpu0_ITLB PREFETCH REQUESTED:          0 ISSUED:          0 USEFUL:          0 USELESS:          0 LATE:          0
cpu0->cpu0_ITLB AVERAGE MISS LATENCY: - cycles
cpu0->cpu0_DTLB TOTAL        ACCESS:   50151253 HIT:   47046494 MISS:    3104759 MSHR_MERGE:     401172
cpu0->cpu0_DTLB LOAD         ACCESS:   50151253 HIT:   47046494 MISS:    3104759 MSHR_MERGE:     401172
cpu0->cpu0_DTLB RFO          ACCESS:          0 HIT:          0 MISS:          0 MSHR_MERGE:          0
cpu0->cpu0_DTLB PREFETCH     ACCESS:          0 HIT:          0 MISS:          0 MSHR_MERGE:          0
cpu0->cpu0_DTLB WRITE        ACCESS:          0 HIT:          0 MISS:          0 MSHR_MERGE:          0
cpu0->cpu0_DTLB TRANSLATION  ACCESS:          0 HIT:          0 MISS:          0 MSHR_MERGE:          0
cpu0->cpu0_DTLB PREFETCH REQUESTED:          0 ISSUED:          0 USEFUL:          0 USELESS:          0 LATE:          0
cpu0->cpu0_DTLB AVERAGE MISS LATENCY: 13.28 cycles
cpu0->LLC TOTAL        ACCESS:    8705504 HIT:     228597 MISS:    8476907 MSHR_MERGE:     161773
cpu0->LLC LOAD         ACCESS:    2736350 HIT:      43501 MISS:    2692849 MSHR_MERGE:       1842
cpu0->LLC RFO          ACCESS:          0 HIT:          0 MISS:          0 MSHR_MERGE:          0
cpu0->LLC PREFETCH     ACCESS:    5793183 HIT:     128169 MISS:    5665014 MSHR_MERGE:     159931
cpu0->LLC WRITE        ACCESS:     164470 HIT:      56891 MISS:     107579 MSHR_MERGE:          0
cpu0->LLC TRANSLATION  ACCESS:      11501 HIT:         36 MISS:      11465 MSHR_MERGE:          0
cpu0->LLC PREFETCH REQUESTED:          0 ISSUED:          0 USEFUL:          0 USELESS:          0 LATE:          0
cpu0->LLC AVERAGE MISS LATENCY: 259 cycles

DRAM Statistics

Channel 0 RQ ROW_BUFFER_HIT:    1074155
  ROW_BUFFER_MISS:    7133399
  AVG DBUS CONGESTED CYCLE: 3.318
Channel 0 WQ ROW_BUFFER_HIT:       3149
  ROW_BUFFER_MISS:     164127
  FULL:          0
Channel 0 REFRESHES ISSUED:      15153

[ROI Statistics]
[System Configuration]
num_cpus 1
cpu_freq 4000
fetch_width 6
decode_width 6
dispatch_width 6
execute_width 6
lq_width 2
sq_width 2
retire_width 6
scheduler_size 128
branch_mispredict_penalty 15
rob_size 352
lq_size 128
sq_size 72
ifetch_buffer_size 64
decode_buffer_size 32
dispatch_buffer_size 32
register_file_size 288
decode_latency 1
dispatch_latency 1
schedule_latency 1
execute_latency 1
page_size 4096
block_size 64
core_0_itlb_set 16
core_0_itlb_way 4
core_0_itlb_rq_size 16
core_0_itlb_wq_size 16
core_0_itlb_pq_size 0
core_0_itlb_mshr_size 8
core_0_itlb_hit_latency 1
core_0_itlb_fill_latency 1
core_0_itlb_max_tag_check 2
core_0_itlb_max_fill 2
core_0_dtlb_set 16
core_0_dtlb_way 4
core_0_dtlb_rq_size 16
core_0_dtlb_wq_size 16
core_0_dtlb_pq_size 0
core_0_dtlb_mshr_size 8
core_0_dtlb_hit_latency 1
core_0_dtlb_fill_latency 1
core_0_dtlb_max_tag_check 2
core_0_dtlb_max_fill 2
core_0_stlb_set 128
core_0_stlb_way 12
core_0_stlb_rq_size 32
core_0_stlb_wq_size 32
core_0_stlb_pq_size 0
core_0_stlb_mshr_size 16
core_0_stlb_hit_latency 4
core_0_stlb_fill_latency 4
core_0_stlb_max_tag_check 1
core_0_stlb_max_fill 1
core_0_l1i_set 64
core_0_l1i_way 8
core_0_l1i_rq_size 64
core_0_l1i_wq_size 64
core_0_l1i_pq_size 32
core_0_l1i_mshr_size 8
core_0_l1i_hit_latency 2
core_0_l1i_fill_latency 2
core_0_l1i_max_tag_check 2
core_0_l1i_max_fill 2
core_0_l1d_set 64
core_0_l1d_way 12
core_0_l1d_rq_size 64
core_0_l1d_wq_size 64
core_0_l1d_pq_size 8
core_0_l1d_mshr_size 16
core_0_l1d_hit_latency 2
core_0_l1d_fill_latency 3
core_0_l1d_max_tag_check 2
core_0_l1d_max_fill 2
core_0_l2c_set 1024
core_0_l2c_way 8
core_0_l2c_rq_size 32
core_0_l2c_wq_size 32
core_0_l2c_pq_size 16
core_0_l2c_mshr_size 32
core_0_l2c_hit_latency 5
core_0_l2c_fill_latency 5
core_0_l2c_max_tag_check 1
core_0_l2c_max_fill 1
llc_set 2048
llc_way 16
llc_rq_size 32
llc_wq_size 32
llc_pq_size 32
llc_mshr_size 64
llc_hit_latency 10
llc_fill_latency 10
llc_max_tag_check 1
llc_max_fill 1
dram_channels 1
dram_ranks 1
dram_bankgroups 8
dram_banks 4
dram_rows 65536
dram_columns 1024
dram_channel_width 8
dram_rq_size 64
dram_wq_size 64
dram_size 17179869184
core_0_itlb_prefetcher no
core_0_dtlb_prefetcher no
core_0_stlb_prefetcher no
core_0_l1i_prefetcher next_line
core_0_l1d_prefetcher vberti
core_0_l2c_prefetcher ip_stride
llc_prefetcher no
llc_replacement drrip

Core_0_instructions 100000002
Core_0_cycles 181828021
Core_0_IPC 0.54997
Core_0_branch_prediction_accuracy 100
Core_0_branch_MPKI 0
Core_0_average_ROB_occupancy_at_mispredict 0

Core_0_ITLB_total_access 16048875
Core_0_ITLB_total_hit 16048875
Core_0_ITLB_total_miss 0
Core_0_ITLB_total_MPKI 0
Core_0_ITLB_total_miss_rate 0
Core_0_ITLB_demand_access 16048875
Core_0_ITLB_demand_hit 16048875
Core_0_ITLB_demand_miss 0
Core_0_ITLB_demand_MPKI 0
Core_0_ITLB_demand_miss_rate 0
Core_0_ITLB_load_access 16048875
Core_0_ITLB_load_hit 16048875
Core_0_ITLB_load_miss 0
Core_0_ITLB_load_MPKI 0
Core_0_ITLB_load_miss_rate 0
Core_0_ITLB_rfo_access 0
Core_0_ITLB_rfo_hit 0
Core_0_ITLB_rfo_miss 0
Core_0_ITLB_rfo_MPKI 0
Core_0_ITLB_rfo_miss_rate 0
Core_0_ITLB_prefetch_access 0
Core_0_ITLB_prefetch_hit 0
Core_0_ITLB_prefetch_miss 0
Core_0_ITLB_prefetch_MPKI 0
Core_0_ITLB_prefetch_miss_rate 0
Core_0_ITLB_writeback_access 0
Core_0_ITLB_writeback_hit 0
Core_0_ITLB_writeback_miss 0
Core_0_ITLB_writeback_MPKI 0
Core_0_ITLB_writeback_miss_rate 0
Core_0_ITLB_prefetch_requested 0
Core_0_ITLB_prefetch_issued 0
Core_0_ITLB_prefetch_useful 0
Core_0_ITLB_prefetch_useless 0
Core_0_ITLB_prefetch_late 0
Core_0_ITLB_prefetch_accuracy 0
Core_0_ITLB_prefetch_coverage 0
Core_0_ITLB_total_eviction 0

Core_0_DTLB_total_access 50151253
Core_0_DTLB_total_hit 47046494
Core_0_DTLB_total_miss 3104759
Core_0_DTLB_total_MPKI 31.0476
Core_0_DTLB_total_miss_rate 0.0619079
Core_0_DTLB_demand_access 50151253
Core_0_DTLB_demand_hit 47046494
Core_0_DTLB_demand_miss 3104759
Core_0_DTLB_demand_MPKI 31.0476
Core_0_DTLB_demand_miss_rate 0.0619079
Core_0_DTLB_load_access 50151253
Core_0_DTLB_load_hit 47046494
Core_0_DTLB_load_miss 3104759
Core_0_DTLB_load_MPKI 31.0476
Core_0_DTLB_load_miss_rate 0.0619079
Core_0_DTLB_rfo_access 0
Core_0_DTLB_rfo_hit 0
Core_0_DTLB_rfo_miss 0
Core_0_DTLB_rfo_MPKI 0
Core_0_DTLB_rfo_miss_rate 0
Core_0_DTLB_prefetch_access 0
Core_0_DTLB_prefetch_hit 0
Core_0_DTLB_prefetch_miss 0
Core_0_DTLB_prefetch_MPKI 0
Core_0_DTLB_prefetch_miss_rate 0
Core_0_DTLB_writeback_access 0
Core_0_DTLB_writeback_hit 0
Core_0_DTLB_writeback_miss 0
Core_0_DTLB_writeback_MPKI 0
Core_0_DTLB_writeback_miss_rate 0
Core_0_DTLB_prefetch_requested 0
Core_0_DTLB_prefetch_issued 0
Core_0_DTLB_prefetch_useful 0
Core_0_DTLB_prefetch_useless 0
Core_0_DTLB_prefetch_late 0
Core_0_DTLB_prefetch_accuracy 0
Core_0_DTLB_prefetch_coverage 0
Core_0_DTLB_total_eviction 2703587

Core_0_STLB_total_access 2703587
Core_0_STLB_total_hit 2613621
Core_0_STLB_total_miss 89966
Core_0_STLB_total_MPKI 0.89966
Core_0_STLB_total_miss_rate 0.0332765
Core_0_STLB_demand_access 2703587
Core_0_STLB_demand_hit 2613621
Core_0_STLB_demand_miss 89966
Core_0_STLB_demand_MPKI 0.89966
Core_0_STLB_demand_miss_rate 0.0332765
Core_0_STLB_load_access 2703587
Core_0_STLB_load_hit 2613621
Core_0_STLB_load_miss 89966
Core_0_STLB_load_MPKI 0.89966
Core_0_STLB_load_miss_rate 0.0332765
Core_0_STLB_rfo_access 0
Core_0_STLB_rfo_hit 0
Core_0_STLB_rfo_miss 0
Core_0_STLB_rfo_MPKI 0
Core_0_STLB_rfo_miss_rate 0
Core_0_STLB_prefetch_access 0
Core_0_STLB_prefetch_hit 0
Core_0_STLB_prefetch_miss 0
Core_0_STLB_prefetch_MPKI 0
Core_0_STLB_prefetch_miss_rate 0
Core_0_STLB_writeback_access 0
Core_0_STLB_writeback_hit 0
Core_0_STLB_writeback_miss 0
Core_0_STLB_writeback_MPKI 0
Core_0_STLB_writeback_miss_rate 0
Core_0_STLB_prefetch_requested 0
Core_0_STLB_prefetch_issued 0
Core_0_STLB_prefetch_useful 0
Core_0_STLB_prefetch_useless 0
Core_0_STLB_prefetch_late 0
Core_0_STLB_prefetch_accuracy 0
Core_0_STLB_prefetch_coverage 0
Core_0_STLB_total_eviction 2261138

Core_0_L1I_total_access 18680463
Core_0_L1I_total_hit 18680463
Core_0_L1I_total_miss 0
Core_0_L1I_total_MPKI 0
Core_0_L1I_total_miss_rate 0
Core_0_L1I_demand_access 18680463
Core_0_L1I_demand_hit 18680463
Core_0_L1I_demand_miss 0
Core_0_L1I_demand_MPKI 0
Core_0_L1I_demand_miss_rate 0
Core_0_L1I_load_access 18680463
Core_0_L1I_load_hit 18680463
Core_0_L1I_load_miss 0
Core_0_L1I_load_MPKI 0
Core_0_L1I_load_miss_rate 0
Core_0_L1I_rfo_access 0
Core_0_L1I_rfo_hit 0
Core_0_L1I_rfo_miss 0
Core_0_L1I_rfo_MPKI 0
Core_0_L1I_rfo_miss_rate 0
Core_0_L1I_prefetch_access 0
Core_0_L1I_prefetch_hit 0
Core_0_L1I_prefetch_miss 0
Core_0_L1I_prefetch_MPKI 0
Core_0_L1I_prefetch_miss_rate 0
Core_0_L1I_writeback_access 0
Core_0_L1I_writeback_hit 0
Core_0_L1I_writeback_miss 0
Core_0_L1I_writeback_MPKI 0
Core_0_L1I_writeback_miss_rate 0
Core_0_L1I_prefetch_requested 0
Core_0_L1I_prefetch_issued 0
Core_0_L1I_prefetch_useful 0
Core_0_L1I_prefetch_useless 0
Core_0_L1I_prefetch_late 0
Core_0_L1I_prefetch_accuracy 0
Core_0_L1I_prefetch_coverage 0
Core_0_L1I_total_eviction 0

Core_0_L1D_total_access 62676325
Core_0_L1D_total_hit 46719094
Core_0_L1D_total_miss 15957231
Core_0_L1D_total_MPKI 159.572
Core_0_L1D_total_miss_rate 0.254597
Core_0_L1D_demand_access 23318766
Core_0_L1D_demand_hit 19096473
Core_0_L1D_demand_miss 4222293
Core_0_L1D_demand_MPKI 42.2229
Core_0_L1D_demand_miss_rate 0.181068
Core_0_L1D_load_access 23318766
Core_0_L1D_load_hit 19096473
Core_0_L1D_load_miss 4222293
Core_0_L1D_load_MPKI 42.2229
Core_0_L1D_load_miss_rate 0.181068
Core_0_L1D_rfo_access 0
Core_0_L1D_rfo_hit 0
Core_0_L1D_rfo_miss 0
Core_0_L1D_rfo_MPKI 0
Core_0_L1D_rfo_miss_rate 0
Core_0_L1D_prefetch_access 36725980
Core_0_L1D_prefetch_hit 24991042
Core_0_L1D_prefetch_miss 11734938
Core_0_L1D_prefetch_MPKI 117.349
Core_0_L1D_prefetch_miss_rate 0.319527
Core_0_L1D_writeback_access 2631579
Core_0_L1D_writeback_hit 2631579
Core_0_L1D_writeback_miss 0
Core_0_L1D_writeback_MPKI 0
Core_0_L1D_writeback_miss_rate 0
Core_0_L1D_prefetch_requested 100604185
Core_0_L1D_prefetch_issued 36725978
Core_0_L1D_prefetch_useful 1573383
Core_0_L1D_prefetch_useless 1044805
Core_0_L1D_prefetch_late 40641
Core_0_L1D_prefetch_accuracy 0.0428411
Core_0_L1D_prefetch_coverage 0.271475
Core_0_L1D_total_eviction 6818100

Core_0_L2C_total_access 19943010
Core_0_L2C_total_hit 7619497
Core_0_L2C_total_miss 12323513
Core_0_L2C_total_MPKI 123.235
Core_0_L2C_total_miss_rate 0.617936
Core_0_L2C_demand_access 4181608
Core_0_L2C_demand_hit 1325768
Core_0_L2C_demand_miss 2855840
Core_0_L2C_demand_MPKI 28.5584
Core_0_L2C_demand_miss_rate 0.682953
Core_0_L2C_load_access 4181608
Core_0_L2C_load_hit 1325768
Core_0_L2C_load_miss 2855840
Core_0_L2C_load_MPKI 28.5584
Core_0_L2C_load_miss_rate 0.682953
Core_0_L2C_rfo_access 0
Core_0_L2C_rfo_hit 0
Core_0_L2C_rfo_miss 0
Core_0_L2C_rfo_MPKI 0
Core_0_L2C_rfo_miss_rate 0
Core_0_L2C_prefetch_access 15596928
Core_0_L2C_prefetch_hit 6129261
Core_0_L2C_prefetch_miss 9467667
Core_0_L2C_prefetch_MPKI 94.6767
Core_0_L2C_prefetch_miss_rate 0.607021
Core_0_L2C_writeback_access 164474
Core_0_L2C_writeback_hit 164468
Core_0_L2C_writeback_miss 6
Core_0_L2C_writeback_MPKI 6e-05
Core_0_L2C_writeback_miss_rate 3.64799e-05
Core_0_L2C_prefetch_requested 3968488
Core_0_L2C_prefetch_issued 3968379
Core_0_L2C_prefetch_useful 630920
Core_0_L2C_prefetch_useless 206472
Core_0_L2C_prefetch_late 23017
Core_0_L2C_prefetch_accuracy 0.158987
Core_0_L2C_prefetch_coverage 0.180947
Core_0_L2C_total_eviction 8236842

Core_0_LLC_total_access 8694003
Core_0_LLC_total_hit 228561
Core_0_LLC_total_miss 8465442
Core_0_LLC_total_MPKI 84.6544
Core_0_LLC_total_miss_rate 0.97371
Core_0_LLC_demand_access 2736350
Core_0_LLC_demand_hit 43501
Core_0_LLC_demand_miss 2692849
Core_0_LLC_demand_MPKI 26.9285
Core_0_LLC_demand_miss_rate 0.984103
Core_0_LLC_load_access 2736350
Core_0_LLC_load_hit 43501
Core_0_LLC_load_miss 2692849
Core_0_LLC_load_MPKI 26.9285
Core_0_LLC_load_miss_rate 0.984103
Core_0_LLC_rfo_access 0
Core_0_LLC_rfo_hit 0
Core_0_LLC_rfo_miss 0
Core_0_LLC_rfo_MPKI 0
Core_0_LLC_rfo_miss_rate 0
Core_0_LLC_prefetch_access 5793183
Core_0_LLC_prefetch_hit 128169
Core_0_LLC_prefetch_miss 5665014
Core_0_LLC_prefetch_MPKI 56.6501
Core_0_LLC_prefetch_miss_rate 0.977876
Core_0_LLC_writeback_access 164470
Core_0_LLC_writeback_hit 56891
Core_0_LLC_writeback_miss 107579
Core_0_LLC_writeback_MPKI 1.07579
Core_0_LLC_writeback_miss_rate 0.654095
Core_0_LLC_prefetch_requested 0
Core_0_LLC_prefetch_issued 0
Core_0_LLC_prefetch_useful 0
Core_0_LLC_prefetch_useless 0
Core_0_LLC_prefetch_late 0
Core_0_LLC_prefetch_accuracy 0
Core_0_LLC_prefetch_coverage 0
Core_0_LLC_total_eviction 8315133

[DRAM Statistics]
Channel_0_RQ_row_buffer_hit 1074155
Channel_0_RQ_row_buffer_miss 7133399
Channel_0_WQ_row_buffer_hit 3149
Channel_0_WQ_row_buffer_miss 164127
Channel_0_WQ_full 0
Channel_0_dbus_congested 15729464
DRAM_total_RQ_row_buffer_hit 1074155
DRAM_total_RQ_row_buffer_miss 7133399
DRAM_total_WQ_row_buffer_hit 3149
DRAM_total_WQ_row_buffer_miss 164127
DRAM_total_WQ_full 0
DRAM_total_dbus_congested 15729464
DRAM_avg_congested_cycle 3.31833

======STLB miss causes ========
Core_0_STLB_miss_cause_breakdown
Core_0_STLB_cause_Demand_Data_miss 0
Core_0_STLB_cause_Demand_Data_miss_rate 0
Core_0_STLB_cause_Demand_Instruction_miss 0
Core_0_STLB_cause_Demand_Instruction_miss_rate 0
Core_0_STLB_cause_L1D_Prefetch_miss 89966
Core_0_STLB_cause_L1D_Prefetch_miss_rate 0.0332765
Core_0_STLB_cause_L1I_Prefetch_miss 0
Core_0_STLB_cause_L1I_Prefetch_miss_rate 0
Core_0_STLB_cause_Other_miss 0
Core_0_STLB_cause_Other_miss_rate 0
Core_0_STLB_Demand_miss 0
Core_0_STLB_Demand_miss_rate 0
Core_0_STLB_L1D_Prefetch_miss 89966
Core_0_STLB_L1D_Prefetch_miss_rate 0.0332765
Core_0_STLB_Other_miss 0
Core_0_STLB_Other_miss_rate 0
BERTI TO_L1: 91578946 TO_L2: 41207088 TO_L2_BC_MSHR: 4547188
BERTI AVG_LAT: 135.982 NUM_TRACK_LATENCY: 9815753 NUM_CANT_TRACK_LATENCY: 0
BERTI CROSS_PAGE 21059853 NO_CROSS_PAGE: 111726181
BERTI FOUND_BERTI: 22586669 NO_FOUND_BERTI: 11837178
BERTI AVERAGE_ISSUED: 4.51334
