[VMEM] WARNING: physical memory size is smaller than virtual memory size.

*** ChampSim Multicore Out-of-Order Simulator ***
Warmup Instructions: 50000000
Simulation Instructions: 100000000
Number of CPUs: 1
Page size: 4096
STLB ideal mode: demand
STLB ideal fill: on
Core 0: /data0/tzh/champsim_traces/QMM/compute_int_38_new.xz
VBerti Prefetcher
BERTI HASH ENTANGLING
BERTI IP MASK ffff
Off-chip DRAM Size: 16 GiB Channels: 1 Width: 64-bit Data Rate: 3205 MT/s
*** Reached end of trace: (0, "/data0/tzh/champsim_traces/QMM/compute_int_38_new.xz")
Warmup halting CPU 0 at instruction 50000004 cycle 11381825 for remainder of phase
Warmup finished CPU 0 instructions: 50000004 cycles: 11381825 cumulative IPC: 4.393 (Simulation time: 00 hr 03 min 16 sec)
Warmup complete CPU 0 instructions: 50000004 cycles: 11381825 cumulative IPC: 4.393 (Simulation time: 00 hr 03 min 16 sec)
*** Reached end of trace: (0, "/data0/tzh/champsim_traces/QMM/compute_int_38_new.xz")
*** Reached end of trace: (0, "/data0/tzh/champsim_traces/QMM/compute_int_38_new.xz")
*** Reached end of trace: (0, "/data0/tzh/champsim_traces/QMM/compute_int_38_new.xz")
Simulation finished CPU 0 instructions: 100000002 cycles: 137051428 cumulative IPC: 0.7297 (Simulation time: 00 hr 20 min 59 sec)
Simulation complete CPU 0 instructions: 100000002 cycles: 137051428 cumulative IPC: 0.7297 (Simulation time: 00 hr 20 min 59 sec)

ChampSim completed all CPUs

=== Simulation ===
CPU 0 runs /data0/tzh/champsim_traces/QMM/compute_int_38_new.xz

Region of Interest Statistics

CPU 0 cumulative IPC: 0.7297 instructions: 100000002 cycles: 137051428
CPU 0 Branch Prediction Accuracy: 98% MPKI: 4.018 Average ROB Occupancy at Mispredict: 97.71
Branch type MPKI
BRANCH_DIRECT_JUMP: 0
BRANCH_INDIRECT: 0.1155
BRANCH_CONDITIONAL: 3.744
BRANCH_DIRECT_CALL: 0
BRANCH_INDIRECT_CALL: 0.1584
BRANCH_RETURN: 3e-05

cpu0->cpu0_STLB TOTAL        ACCESS:    2020647 HIT:    1995659 MISS:      24988 MSHR_MERGE:          0
cpu0->cpu0_STLB LOAD         ACCESS:    2020647 HIT:    1995659 MISS:      24988 MSHR_MERGE:          0
cpu0->cpu0_STLB RFO          ACCESS:          0 HIT:          0 MISS:          0 MSHR_MERGE:          0
cpu0->cpu0_STLB PREFETCH     ACCESS:          0 HIT:          0 MISS:          0 MSHR_MERGE:          0
cpu0->cpu0_STLB WRITE        ACCESS:          0 HIT:          0 MISS:          0 MSHR_MERGE:          0
cpu0->cpu0_STLB TRANSLATION  ACCESS:          0 HIT:          0 MISS:          0 MSHR_MERGE:          0
cpu0->cpu0_STLB PREFETCH REQUESTED:          0 ISSUED:          0 USEFUL:          0 USELESS:          0 LATE:          0
cpu0->cpu0_STLB AVERAGE MISS LATENCY: 108 cycles
cpu0->cpu0_L2C TOTAL        ACCESS:    3090887 HIT:    1711171 MISS:    1379716 MSHR_MERGE:       3706
cpu0->cpu0_L2C LOAD         ACCESS:    1678547 HIT:     583826 MISS:    1094721 MSHR_MERGE:        280
cpu0->cpu0_L2C RFO          ACCESS:     271048 HIT:     100112 MISS:     170936 MSHR_MERGE:          1
cpu0->cpu0_L2C PREFETCH     ACCESS:     151991 HIT:      49712 MISS:     102279 MSHR_MERGE:       3425
cpu0->cpu0_L2C WRITE        ACCESS:     976899 HIT:     975713 MISS:       1186 MSHR_MERGE:          0
cpu0->cpu0_L2C TRANSLATION  ACCESS:      12402 HIT:       1808 MISS:      10594 MSHR_MERGE:          0
cpu0->cpu0_L2C PREFETCH REQUESTED:      40085 ISSUED:      40085 USEFUL:      11114 USELESS:       6706 LATE:          0
cpu0->cpu0_L2C AVERAGE MISS LATENCY: 166.5 cycles
cpu0->cpu0_L1I TOTAL        ACCESS:   15585359 HIT:   15544788 MISS:      40571 MSHR_MERGE:      11789
cpu0->cpu0_L1I LOAD         ACCESS:   15585359 HIT:   15544788 MISS:      40571 MSHR_MERGE:      11789
cpu0->cpu0_L1I RFO          ACCESS:          0 HIT:          0 MISS:          0 MSHR_MERGE:          0
cpu0->cpu0_L1I PREFETCH     ACCESS:          0 HIT:          0 MISS:          0 MSHR_MERGE:          0
cpu0->cpu0_L1I WRITE        ACCESS:          0 HIT:          0 MISS:          0 MSHR_MERGE:          0
cpu0->cpu0_L1I TRANSLATION  ACCESS:          0 HIT:          0 MISS:          0 MSHR_MERGE:          0
cpu0->cpu0_L1I PREFETCH REQUESTED:          0 ISSUED:          0 USEFUL:          0 USELESS:          0 LATE:          0
cpu0->cpu0_L1I AVERAGE MISS LATENCY: 34.26 cycles
cpu0->cpu0_L1D TOTAL        ACCESS:   29027982 HIT:   25972724 MISS:    3055258 MSHR_MERGE:    1009229
cpu0->cpu0_L1D LOAD         ACCESS:   16583992 HIT:   14362051 MISS:    2221941 MSHR_MERGE:     572167
cpu0->cpu0_L1D RFO          ACCESS:          0 HIT:          0 MISS:          0 MSHR_MERGE:          0
cpu0->cpu0_L1D PREFETCH     ACCESS:     121160 HIT:       8147 MISS:     113013 MSHR_MERGE:        240
cpu0->cpu0_L1D WRITE        ACCESS:   12272882 HIT:   11566430 MISS:     706452 MSHR_MERGE:     435372
cpu0->cpu0_L1D TRANSLATION  ACCESS:      49948 HIT:      36096 MISS:      13852 MSHR_MERGE:       1450
cpu0->cpu0_L1D PREFETCH REQUESTED:     121476 ISSUED:     121160 USEFUL:       5616 USELESS:       8432 LATE:         26
cpu0->cpu0_L1D AVERAGE MISS LATENCY: 118.3 cycles
cpu0->cpu0_ITLB TOTAL        ACCESS:   13402906 HIT:   13317830 MISS:      85076 MSHR_MERGE:      50809
cpu0->cpu0_ITLB LOAD         ACCESS:   13402906 HIT:   13317830 MISS:      85076 MSHR_MERGE:      50809
cpu0->cpu0_ITLB RFO          ACCESS:          0 HIT:          0 MISS:          0 MSHR_MERGE:          0
cpu0->cpu0_ITLB PREFETCH     ACCESS:          0 HIT:          0 MISS:          0 MSHR_MERGE:          0
cpu0->cpu0_ITLB WRITE        ACCESS:          0 HIT:          0 MISS:          0 MSHR_MERGE:          0
cpu0->cpu0_ITLB TRANSLATION  ACCESS:          0 HIT:          0 MISS:          0 MSHR_MERGE:          0
cpu0->cpu0_ITLB PREFETCH REQUESTED:          0 ISSUED:          0 USEFUL:          0 USELESS:          0 LATE:          0
cpu0->cpu0_ITLB AVERAGE MISS LATENCY: 5.021 cycles
cpu0->cpu0_DTLB TOTAL        ACCESS:   27591723 HIT:   25047472 MISS:    2544251 MSHR_MERGE:     557871
cpu0->cpu0_DTLB LOAD         ACCESS:   27591723 HIT:   25047472 MISS:    2544251 MSHR_MERGE:     557871
cpu0->cpu0_DTLB RFO          ACCESS:          0 HIT:          0 MISS:          0 MSHR_MERGE:          0
cpu0->cpu0_DTLB PREFETCH     ACCESS:          0 HIT:          0 MISS:          0 MSHR_MERGE:          0
cpu0->cpu0_DTLB WRITE        ACCESS:          0 HIT:          0 MISS:          0 MSHR_MERGE:          0
cpu0->cpu0_DTLB TRANSLATION  ACCESS:          0 HIT:          0 MISS:          0 MSHR_MERGE:          0
cpu0->cpu0_DTLB PREFETCH REQUESTED:          0 ISSUED:          0 USEFUL:          0 USELESS:          0 LATE:          0
cpu0->cpu0_DTLB AVERAGE MISS LATENCY: 6.375 cycles
cpu0->LLC TOTAL        ACCESS:    2033546 HIT:     891409 MISS:    1142137 MSHR_MERGE:          0
cpu0->LLC LOAD         ACCESS:    1094441 HIT:     250744 MISS:     843697 MSHR_MERGE:          0
cpu0->LLC RFO          ACCESS:     170935 HIT:      69944 MISS:     100991 MSHR_MERGE:          0
cpu0->LLC PREFETCH     ACCESS:      98854 HIT:       7552 MISS:      91302 MSHR_MERGE:          0
cpu0->LLC WRITE        ACCESS:     658722 HIT:     561062 MISS:      97660 MSHR_MERGE:          0
cpu0->LLC TRANSLATION  ACCESS:      10594 HIT:       2107 MISS:       8487 MSHR_MERGE:          0
cpu0->LLC PREFETCH REQUESTED:          0 ISSUED:          0 USEFUL:          0 USELESS:          0 LATE:          0
cpu0->LLC AVERAGE MISS LATENCY: 184.1 cycles

DRAM Statistics

Channel 0 RQ ROW_BUFFER_HIT:       7740
  ROW_BUFFER_MISS:    1036689
  AVG DBUS CONGESTED CYCLE: 13.96
Channel 0 WQ ROW_BUFFER_HIT:     130433
  ROW_BUFFER_MISS:     323916
  FULL:          0
Channel 0 REFRESHES ISSUED:      11421

[ROI Statistics]
[System Configuration]
num_cpus 1
cpu_freq 4000
fetch_width 6
decode_width 6
dispatch_width 6
execute_width 6
lq_width 2
sq_width 2
retire_width 6
scheduler_size 128
branch_mispredict_penalty 15
rob_size 352
lq_size 128
sq_size 72
ifetch_buffer_size 64
decode_buffer_size 32
dispatch_buffer_size 32
register_file_size 288
decode_latency 1
dispatch_latency 1
schedule_latency 1
execute_latency 1
page_size 4096
block_size 64
core_0_itlb_set 16
core_0_itlb_way 4
core_0_itlb_rq_size 16
core_0_itlb_wq_size 16
core_0_itlb_pq_size 0
core_0_itlb_mshr_size 8
core_0_itlb_hit_latency 1
core_0_itlb_fill_latency 1
core_0_itlb_max_tag_check 2
core_0_itlb_max_fill 2
core_0_dtlb_set 16
core_0_dtlb_way 4
core_0_dtlb_rq_size 16
core_0_dtlb_wq_size 16
core_0_dtlb_pq_size 0
core_0_dtlb_mshr_size 8
core_0_dtlb_hit_latency 1
core_0_dtlb_fill_latency 1
core_0_dtlb_max_tag_check 2
core_0_dtlb_max_fill 2
core_0_stlb_set 128
core_0_stlb_way 12
core_0_stlb_rq_size 32
core_0_stlb_wq_size 32
core_0_stlb_pq_size 0
core_0_stlb_mshr_size 16
core_0_stlb_hit_latency 4
core_0_stlb_fill_latency 4
core_0_stlb_max_tag_check 1
core_0_stlb_max_fill 1
core_0_l1i_set 64
core_0_l1i_way 8
core_0_l1i_rq_size 64
core_0_l1i_wq_size 64
core_0_l1i_pq_size 32
core_0_l1i_mshr_size 8
core_0_l1i_hit_latency 2
core_0_l1i_fill_latency 2
core_0_l1i_max_tag_check 2
core_0_l1i_max_fill 2
core_0_l1d_set 64
core_0_l1d_way 12
core_0_l1d_rq_size 64
core_0_l1d_wq_size 64
core_0_l1d_pq_size 8
core_0_l1d_mshr_size 16
core_0_l1d_hit_latency 2
core_0_l1d_fill_latency 3
core_0_l1d_max_tag_check 2
core_0_l1d_max_fill 2
core_0_l2c_set 1024
core_0_l2c_way 8
core_0_l2c_rq_size 32
core_0_l2c_wq_size 32
core_0_l2c_pq_size 16
core_0_l2c_mshr_size 32
core_0_l2c_hit_latency 5
core_0_l2c_fill_latency 5
core_0_l2c_max_tag_check 1
core_0_l2c_max_fill 1
llc_set 2048
llc_way 16
llc_rq_size 32
llc_wq_size 32
llc_pq_size 32
llc_mshr_size 64
llc_hit_latency 10
llc_fill_latency 10
llc_max_tag_check 1
llc_max_fill 1
dram_channels 1
dram_ranks 1
dram_bankgroups 8
dram_banks 4
dram_rows 65536
dram_columns 1024
dram_channel_width 8
dram_rq_size 64
dram_wq_size 64
dram_size 17179869184
core_0_itlb_prefetcher no
core_0_dtlb_prefetcher no
core_0_stlb_prefetcher no
core_0_l1i_prefetcher next_line
core_0_l1d_prefetcher vberti
core_0_l2c_prefetcher ip_stride
llc_prefetcher no
llc_replacement drrip

Core_0_instructions 100000002
Core_0_cycles 137051428
Core_0_IPC 0.729653
Core_0_branch_prediction_accuracy 98.0022
Core_0_branch_MPKI 4.01814
Core_0_average_ROB_occupancy_at_mispredict 97.7098

Core_0_ITLB_total_access 13402906
Core_0_ITLB_total_hit 13317830
Core_0_ITLB_total_miss 85076
Core_0_ITLB_total_MPKI 0.85076
Core_0_ITLB_total_miss_rate 0.00634758
Core_0_ITLB_demand_access 13402906
Core_0_ITLB_demand_hit 13317830
Core_0_ITLB_demand_miss 85076
Core_0_ITLB_demand_MPKI 0.85076
Core_0_ITLB_demand_miss_rate 0.00634758
Core_0_ITLB_load_access 13402906
Core_0_ITLB_load_hit 13317830
Core_0_ITLB_load_miss 85076
Core_0_ITLB_load_MPKI 0.85076
Core_0_ITLB_load_miss_rate 0.00634758
Core_0_ITLB_rfo_access 0
Core_0_ITLB_rfo_hit 0
Core_0_ITLB_rfo_miss 0
Core_0_ITLB_rfo_MPKI 0
Core_0_ITLB_rfo_miss_rate 0
Core_0_ITLB_prefetch_access 0
Core_0_ITLB_prefetch_hit 0
Core_0_ITLB_prefetch_miss 0
Core_0_ITLB_prefetch_MPKI 0
Core_0_ITLB_prefetch_miss_rate 0
Core_0_ITLB_writeback_access 0
Core_0_ITLB_writeback_hit 0
Core_0_ITLB_writeback_miss 0
Core_0_ITLB_writeback_MPKI 0
Core_0_ITLB_writeback_miss_rate 0
Core_0_ITLB_prefetch_requested 0
Core_0_ITLB_prefetch_issued 0
Core_0_ITLB_prefetch_useful 0
Core_0_ITLB_prefetch_useless 0
Core_0_ITLB_prefetch_late 0
Core_0_ITLB_prefetch_accuracy 0
Core_0_ITLB_prefetch_coverage 0
Core_0_ITLB_total_eviction 34267

Core_0_DTLB_total_access 27591723
Core_0_DTLB_total_hit 25047472
Core_0_DTLB_total_miss 2544251
Core_0_DTLB_total_MPKI 25.4425
Core_0_DTLB_total_miss_rate 0.0922107
Core_0_DTLB_demand_access 27591723
Core_0_DTLB_demand_hit 25047472
Core_0_DTLB_demand_miss 2544251
Core_0_DTLB_demand_MPKI 25.4425
Core_0_DTLB_demand_miss_rate 0.0922107
Core_0_DTLB_load_access 27591723
Core_0_DTLB_load_hit 25047472
Core_0_DTLB_load_miss 2544251
Core_0_DTLB_load_MPKI 25.4425
Core_0_DTLB_load_miss_rate 0.0922107
Core_0_DTLB_rfo_access 0
Core_0_DTLB_rfo_hit 0
Core_0_DTLB_rfo_miss 0
Core_0_DTLB_rfo_MPKI 0
Core_0_DTLB_rfo_miss_rate 0
Core_0_DTLB_prefetch_access 0
Core_0_DTLB_prefetch_hit 0
Core_0_DTLB_prefetch_miss 0
Core_0_DTLB_prefetch_MPKI 0
Core_0_DTLB_prefetch_miss_rate 0
Core_0_DTLB_writeback_access 0
Core_0_DTLB_writeback_hit 0
Core_0_DTLB_writeback_miss 0
Core_0_DTLB_writeback_MPKI 0
Core_0_DTLB_writeback_miss_rate 0
Core_0_DTLB_prefetch_requested 0
Core_0_DTLB_prefetch_issued 0
Core_0_DTLB_prefetch_useful 0
Core_0_DTLB_prefetch_useless 0
Core_0_DTLB_prefetch_late 0
Core_0_DTLB_prefetch_accuracy 0
Core_0_DTLB_prefetch_coverage 0
Core_0_DTLB_total_eviction 1986380

Core_0_STLB_total_access 2020647
Core_0_STLB_total_hit 1995659
Core_0_STLB_total_miss 24988
Core_0_STLB_total_MPKI 0.24988
Core_0_STLB_total_miss_rate 0.0123663
Core_0_STLB_demand_access 2020647
Core_0_STLB_demand_hit 1995659
Core_0_STLB_demand_miss 24988
Core_0_STLB_demand_MPKI 0.24988
Core_0_STLB_demand_miss_rate 0.0123663
Core_0_STLB_load_access 2020647
Core_0_STLB_load_hit 1995659
Core_0_STLB_load_miss 24988
Core_0_STLB_load_MPKI 0.24988
Core_0_STLB_load_miss_rate 0.0123663
Core_0_STLB_rfo_access 0
Core_0_STLB_rfo_hit 0
Core_0_STLB_rfo_miss 0
Core_0_STLB_rfo_MPKI 0
Core_0_STLB_rfo_miss_rate 0
Core_0_STLB_prefetch_access 0
Core_0_STLB_prefetch_hit 0
Core_0_STLB_prefetch_miss 0
Core_0_STLB_prefetch_MPKI 0
Core_0_STLB_prefetch_miss_rate 0
Core_0_STLB_writeback_access 0
Core_0_STLB_writeback_hit 0
Core_0_STLB_writeback_miss 0
Core_0_STLB_writeback_MPKI 0
Core_0_STLB_writeback_miss_rate 0
Core_0_STLB_prefetch_requested 0
Core_0_STLB_prefetch_issued 0
Core_0_STLB_prefetch_useful 0
Core_0_STLB_prefetch_useless 0
Core_0_STLB_prefetch_late 0
Core_0_STLB_prefetch_accuracy 0
Core_0_STLB_prefetch_coverage 0
Core_0_STLB_total_eviction 459018

Core_0_L1I_total_access 15585359
Core_0_L1I_total_hit 15544788
Core_0_L1I_total_miss 40571
Core_0_L1I_total_MPKI 0.40571
Core_0_L1I_total_miss_rate 0.00260315
Core_0_L1I_demand_access 15585359
Core_0_L1I_demand_hit 15544788
Core_0_L1I_demand_miss 40571
Core_0_L1I_demand_MPKI 0.40571
Core_0_L1I_demand_miss_rate 0.00260315
Core_0_L1I_load_access 15585359
Core_0_L1I_load_hit 15544788
Core_0_L1I_load_miss 40571
Core_0_L1I_load_MPKI 0.40571
Core_0_L1I_load_miss_rate 0.00260315
Core_0_L1I_rfo_access 0
Core_0_L1I_rfo_hit 0
Core_0_L1I_rfo_miss 0
Core_0_L1I_rfo_MPKI 0
Core_0_L1I_rfo_miss_rate 0
Core_0_L1I_prefetch_access 0
Core_0_L1I_prefetch_hit 0
Core_0_L1I_prefetch_miss 0
Core_0_L1I_prefetch_MPKI 0
Core_0_L1I_prefetch_miss_rate 0
Core_0_L1I_writeback_access 0
Core_0_L1I_writeback_hit 0
Core_0_L1I_writeback_miss 0
Core_0_L1I_writeback_MPKI 0
Core_0_L1I_writeback_miss_rate 0
Core_0_L1I_prefetch_requested 0
Core_0_L1I_prefetch_issued 0
Core_0_L1I_prefetch_useful 0
Core_0_L1I_prefetch_useless 0
Core_0_L1I_prefetch_late 0
Core_0_L1I_prefetch_accuracy 0
Core_0_L1I_prefetch_coverage 0
Core_0_L1I_total_eviction 28782

Core_0_L1D_total_access 28978034
Core_0_L1D_total_hit 25936628
Core_0_L1D_total_miss 3041406
Core_0_L1D_total_MPKI 30.4141
Core_0_L1D_total_miss_rate 0.104956
Core_0_L1D_demand_access 16583992
Core_0_L1D_demand_hit 14362051
Core_0_L1D_demand_miss 2221941
Core_0_L1D_demand_MPKI 22.2194
Core_0_L1D_demand_miss_rate 0.133981
Core_0_L1D_load_access 16583992
Core_0_L1D_load_hit 14362051
Core_0_L1D_load_miss 2221941
Core_0_L1D_load_MPKI 22.2194
Core_0_L1D_load_miss_rate 0.133981
Core_0_L1D_rfo_access 0
Core_0_L1D_rfo_hit 0
Core_0_L1D_rfo_miss 0
Core_0_L1D_rfo_MPKI 0
Core_0_L1D_rfo_miss_rate 0
Core_0_L1D_prefetch_access 121160
Core_0_L1D_prefetch_hit 8147
Core_0_L1D_prefetch_miss 113013
Core_0_L1D_prefetch_MPKI 1.13013
Core_0_L1D_prefetch_miss_rate 0.932758
Core_0_L1D_writeback_access 12272882
Core_0_L1D_writeback_hit 11566430
Core_0_L1D_writeback_miss 706452
Core_0_L1D_writeback_MPKI 7.06452
Core_0_L1D_writeback_miss_rate 0.057562
Core_0_L1D_prefetch_requested 121476
Core_0_L1D_prefetch_issued 121160
Core_0_L1D_prefetch_useful 5616
Core_0_L1D_prefetch_useless 8432
Core_0_L1D_prefetch_late 26
Core_0_L1D_prefetch_accuracy 0.0463519
Core_0_L1D_prefetch_coverage 0.00252115
Core_0_L1D_total_eviction 1947304

Core_0_L2C_total_access 3078485
Core_0_L2C_total_hit 1709363
Core_0_L2C_total_miss 1369122
Core_0_L2C_total_MPKI 13.6912
Core_0_L2C_total_miss_rate 0.444739
Core_0_L2C_demand_access 1949595
Core_0_L2C_demand_hit 683938
Core_0_L2C_demand_miss 1265657
Core_0_L2C_demand_MPKI 12.6566
Core_0_L2C_demand_miss_rate 0.64919
Core_0_L2C_load_access 1678547
Core_0_L2C_load_hit 583826
Core_0_L2C_load_miss 1094721
Core_0_L2C_load_MPKI 10.9472
Core_0_L2C_load_miss_rate 0.652184
Core_0_L2C_rfo_access 271048
Core_0_L2C_rfo_hit 100112
Core_0_L2C_rfo_miss 170936
Core_0_L2C_rfo_MPKI 1.70936
Core_0_L2C_rfo_miss_rate 0.630648
Core_0_L2C_prefetch_access 151991
Core_0_L2C_prefetch_hit 49712
Core_0_L2C_prefetch_miss 102279
Core_0_L2C_prefetch_MPKI 1.02279
Core_0_L2C_prefetch_miss_rate 0.672928
Core_0_L2C_writeback_access 976899
Core_0_L2C_writeback_hit 975713
Core_0_L2C_writeback_miss 1186
Core_0_L2C_writeback_MPKI 0.01186
Core_0_L2C_writeback_miss_rate 0.00121405
Core_0_L2C_prefetch_requested 40085
Core_0_L2C_prefetch_issued 40085
Core_0_L2C_prefetch_useful 11114
Core_0_L2C_prefetch_useless 6706
Core_0_L2C_prefetch_late 0
Core_0_L2C_prefetch_accuracy 0.277261
Core_0_L2C_prefetch_coverage 0.00870477
Core_0_L2C_total_eviction 1376010

Core_0_LLC_total_access 2022952
Core_0_LLC_total_hit 889302
Core_0_LLC_total_miss 1133650
Core_0_LLC_total_MPKI 11.3365
Core_0_LLC_total_miss_rate 0.560394
Core_0_LLC_demand_access 1265376
Core_0_LLC_demand_hit 320688
Core_0_LLC_demand_miss 944688
Core_0_LLC_demand_MPKI 9.44688
Core_0_LLC_demand_miss_rate 0.746567
Core_0_LLC_load_access 1094441
Core_0_LLC_load_hit 250744
Core_0_LLC_load_miss 843697
Core_0_LLC_load_MPKI 8.43697
Core_0_LLC_load_miss_rate 0.770893
Core_0_LLC_rfo_access 170935
Core_0_LLC_rfo_hit 69944
Core_0_LLC_rfo_miss 100991
Core_0_LLC_rfo_MPKI 1.00991
Core_0_LLC_rfo_miss_rate 0.590815
Core_0_LLC_prefetch_access 98854
Core_0_LLC_prefetch_hit 7552
Core_0_LLC_prefetch_miss 91302
Core_0_LLC_prefetch_MPKI 0.91302
Core_0_LLC_prefetch_miss_rate 0.923605
Core_0_LLC_writeback_access 658722
Core_0_LLC_writeback_hit 561062
Core_0_LLC_writeback_miss 97660
Core_0_LLC_writeback_MPKI 0.9766
Core_0_LLC_writeback_miss_rate 0.148257
Core_0_LLC_prefetch_requested 0
Core_0_LLC_prefetch_issued 0
Core_0_LLC_prefetch_useful 0
Core_0_LLC_prefetch_useless 0
Core_0_LLC_prefetch_late 0
Core_0_LLC_prefetch_accuracy 0
Core_0_LLC_prefetch_coverage 0
Core_0_LLC_total_eviction 1142137

[DRAM Statistics]
Channel_0_RQ_row_buffer_hit 7740
Channel_0_RQ_row_buffer_miss 1036689
Channel_0_WQ_row_buffer_hit 130433
Channel_0_WQ_row_buffer_miss 323916
Channel_0_WQ_full 0
Channel_0_dbus_congested 4061354
DRAM_total_RQ_row_buffer_hit 7740
DRAM_total_RQ_row_buffer_miss 1036689
DRAM_total_WQ_row_buffer_hit 130433
DRAM_total_WQ_row_buffer_miss 323916
DRAM_total_WQ_full 0
DRAM_total_dbus_congested 4061354
DRAM_avg_congested_cycle 13.9562

======STLB miss causes ========
Core_0_STLB_miss_cause_breakdown
Core_0_STLB_cause_Demand_Data_miss 0
Core_0_STLB_cause_Demand_Data_miss_rate 0
Core_0_STLB_cause_Demand_Instruction_miss 0
Core_0_STLB_cause_Demand_Instruction_miss_rate 0
Core_0_STLB_cause_L1D_Prefetch_miss 24988
Core_0_STLB_cause_L1D_Prefetch_miss_rate 0.0123663
Core_0_STLB_cause_L1I_Prefetch_miss 0
Core_0_STLB_cause_L1I_Prefetch_miss_rate 0
Core_0_STLB_cause_Other_miss 0
Core_0_STLB_cause_Other_miss_rate 0
Core_0_STLB_Demand_miss 0
Core_0_STLB_Demand_miss_rate 0
Core_0_STLB_L1D_Prefetch_miss 24988
Core_0_STLB_L1D_Prefetch_miss_rate 0.0123663
Core_0_STLB_Other_miss 0
Core_0_STLB_Other_miss_rate 0
BERTI TO_L1: 35838 TO_L2: 194338 TO_L2_BC_MSHR: 0
BERTI AVG_LAT: 80.9223 NUM_TRACK_LATENCY: 2911705 NUM_CANT_TRACK_LATENCY: 0
BERTI CROSS_PAGE 210017 NO_CROSS_PAGE: 20159
BERTI FOUND_BERTI: 7395768 NO_FOUND_BERTI: 32371334
BERTI AVERAGE_ISSUED: 1.47934
