[VMEM] WARNING: physical memory size is smaller than virtual memory size.

*** ChampSim Multicore Out-of-Order Simulator ***
Warmup Instructions: 50000000
Simulation Instructions: 100000000
Number of CPUs: 1
Page size: 4096
STLB ideal mode: demand
STLB ideal fill: on
Core 0: /data0/tzh/champsim_traces/QMM/compute_fp_7_new.xz
VBerti Prefetcher
BERTI HASH ENTANGLING
BERTI IP MASK ffff
Off-chip DRAM Size: 16 GiB Channels: 1 Width: 64-bit Data Rate: 3205 MT/s
*** Reached end of trace: (0, "/data0/tzh/champsim_traces/QMM/compute_fp_7_new.xz")
[BTB] WARNING: target of return is a lower address than the corresponding call. This is usually a problem with your trace.
Warmup halting CPU 0 at instruction 50000005 cycle 13230278 for remainder of phase
Warmup finished CPU 0 instructions: 50000005 cycles: 13230278 cumulative IPC: 3.779 (Simulation time: 00 hr 03 min 08 sec)
Warmup complete CPU 0 instructions: 50000005 cycles: 13230278 cumulative IPC: 3.779 (Simulation time: 00 hr 03 min 08 sec)
*** Reached end of trace: (0, "/data0/tzh/champsim_traces/QMM/compute_fp_7_new.xz")
[BTB] WARNING: target of return is a lower address than the corresponding call. This is usually a problem with your trace.
*** Reached end of trace: (0, "/data0/tzh/champsim_traces/QMM/compute_fp_7_new.xz")
[BTB] WARNING: target of return is a lower address than the corresponding call. This is usually a problem with your trace.
*** Reached end of trace: (0, "/data0/tzh/champsim_traces/QMM/compute_fp_7_new.xz")
[BTB] WARNING: target of return is a lower address than the corresponding call. This is usually a problem with your trace.
Simulation finished CPU 0 instructions: 100000002 cycles: 214878680 cumulative IPC: 0.4654 (Simulation time: 00 hr 27 min 49 sec)
Simulation complete CPU 0 instructions: 100000002 cycles: 214878680 cumulative IPC: 0.4654 (Simulation time: 00 hr 27 min 49 sec)

ChampSim completed all CPUs

=== Simulation ===
CPU 0 runs /data0/tzh/champsim_traces/QMM/compute_fp_7_new.xz

Region of Interest Statistics

CPU 0 cumulative IPC: 0.4654 instructions: 100000002 cycles: 214878680
CPU 0 Branch Prediction Accuracy: 93.53% MPKI: 10.54 Average ROB Occupancy at Mispredict: 67.22
Branch type MPKI
BRANCH_DIRECT_JUMP: 0
BRANCH_INDIRECT: 7e-05
BRANCH_CONDITIONAL: 10.54
BRANCH_DIRECT_CALL: 0
BRANCH_INDIRECT_CALL: 0
BRANCH_RETURN: 3e-05

cpu0->cpu0_STLB TOTAL        ACCESS:    1542381 HIT:    1505265 MISS:      37116 MSHR_MERGE:          0
cpu0->cpu0_STLB LOAD         ACCESS:    1542381 HIT:    1505265 MISS:      37116 MSHR_MERGE:          0
cpu0->cpu0_STLB RFO          ACCESS:          0 HIT:          0 MISS:          0 MSHR_MERGE:          0
cpu0->cpu0_STLB PREFETCH     ACCESS:          0 HIT:          0 MISS:          0 MSHR_MERGE:          0
cpu0->cpu0_STLB WRITE        ACCESS:          0 HIT:          0 MISS:          0 MSHR_MERGE:          0
cpu0->cpu0_STLB TRANSLATION  ACCESS:          0 HIT:          0 MISS:          0 MSHR_MERGE:          0
cpu0->cpu0_STLB PREFETCH REQUESTED:          0 ISSUED:          0 USEFUL:          0 USELESS:          0 LATE:          0
cpu0->cpu0_STLB AVERAGE MISS LATENCY: 136.4 cycles
cpu0->cpu0_L2C TOTAL        ACCESS:   15796976 HIT:    8407957 MISS:    7389019 MSHR_MERGE:    1422420
cpu0->cpu0_L2C LOAD         ACCESS:    4313776 HIT:    1754304 MISS:    2559472 MSHR_MERGE:     124364
cpu0->cpu0_L2C RFO          ACCESS:    1205994 HIT:     341644 MISS:     864350 MSHR_MERGE:      51094
cpu0->cpu0_L2C PREFETCH     ACCESS:    6982687 HIT:    3030940 MISS:    3951747 MSHR_MERGE:    1246962
cpu0->cpu0_L2C WRITE        ACCESS:    3276227 HIT:    3276068 MISS:        159 MSHR_MERGE:          0
cpu0->cpu0_L2C TRANSLATION  ACCESS:      18292 HIT:       5001 MISS:      13291 MSHR_MERGE:          0
cpu0->cpu0_L2C PREFETCH REQUESTED:    2497746 ISSUED:    2475355 USEFUL:     547923 USELESS:     200361 LATE:      95075
cpu0->cpu0_L2C AVERAGE MISS LATENCY: 198.9 cycles
cpu0->cpu0_L1I TOTAL        ACCESS:    5119819 HIT:    5113212 MISS:       6607 MSHR_MERGE:       2704
cpu0->cpu0_L1I LOAD         ACCESS:    5119819 HIT:    5113212 MISS:       6607 MSHR_MERGE:       2704
cpu0->cpu0_L1I RFO          ACCESS:          0 HIT:          0 MISS:          0 MSHR_MERGE:          0
cpu0->cpu0_L1I PREFETCH     ACCESS:          0 HIT:          0 MISS:          0 MSHR_MERGE:          0
cpu0->cpu0_L1I WRITE        ACCESS:          0 HIT:          0 MISS:          0 MSHR_MERGE:          0
cpu0->cpu0_L1I TRANSLATION  ACCESS:          0 HIT:          0 MISS:          0 MSHR_MERGE:          0
cpu0->cpu0_L1I PREFETCH REQUESTED:          0 ISSUED:          0 USEFUL:          0 USELESS:          0 LATE:          0
cpu0->cpu0_L1I AVERAGE MISS LATENCY: 292.2 cycles
cpu0->cpu0_L1D TOTAL        ACCESS:   46410372 HIT:   32773670 MISS:   13636702 MSHR_MERGE:    3536551
cpu0->cpu0_L1D LOAD         ACCESS:   19137937 HIT:   13159040 MISS:    5978897 MSHR_MERGE:    1668874
cpu0->cpu0_L1D RFO          ACCESS:          0 HIT:          0 MISS:          0 MSHR_MERGE:          0
cpu0->cpu0_L1D PREFETCH     ACCESS:   16853642 HIT:   12178979 MISS:    4674663 MSHR_MERGE:     108947
cpu0->cpu0_L1D WRITE        ACCESS:   10346660 HIT:    7383749 MISS:    2962911 MSHR_MERGE:    1756791
cpu0->cpu0_L1D TRANSLATION  ACCESS:      72133 HIT:      51902 MISS:      20231 MSHR_MERGE:       1939
cpu0->cpu0_L1D PREFETCH REQUESTED:  159630860 ISSUED:   16853637 USEFUL:    1207898 USELESS:     249135 LATE:      78892
cpu0->cpu0_L1D AVERAGE MISS LATENCY: 133 cycles
cpu0->cpu0_ITLB TOTAL        ACCESS:    4556400 HIT:    4555754 MISS:        646 MSHR_MERGE:        371
cpu0->cpu0_ITLB LOAD         ACCESS:    4556400 HIT:    4555754 MISS:        646 MSHR_MERGE:        371
cpu0->cpu0_ITLB RFO          ACCESS:          0 HIT:          0 MISS:          0 MSHR_MERGE:          0
cpu0->cpu0_ITLB PREFETCH     ACCESS:          0 HIT:          0 MISS:          0 MSHR_MERGE:          0
cpu0->cpu0_ITLB WRITE        ACCESS:          0 HIT:          0 MISS:          0 MSHR_MERGE:          0
cpu0->cpu0_ITLB TRANSLATION  ACCESS:          0 HIT:          0 MISS:          0 MSHR_MERGE:          0
cpu0->cpu0_ITLB PREFETCH REQUESTED:          0 ISSUED:          0 USEFUL:          0 USELESS:          0 LATE:          0
cpu0->cpu0_ITLB AVERAGE MISS LATENCY: 5.004 cycles
cpu0->cpu0_DTLB TOTAL        ACCESS:   40447337 HIT:   38433010 MISS:    2014327 MSHR_MERGE:     472221
cpu0->cpu0_DTLB LOAD         ACCESS:   40447337 HIT:   38433010 MISS:    2014327 MSHR_MERGE:     472221
cpu0->cpu0_DTLB RFO          ACCESS:          0 HIT:          0 MISS:          0 MSHR_MERGE:          0
cpu0->cpu0_DTLB PREFETCH     ACCESS:          0 HIT:          0 MISS:          0 MSHR_MERGE:          0
cpu0->cpu0_DTLB WRITE        ACCESS:          0 HIT:          0 MISS:          0 MSHR_MERGE:          0
cpu0->cpu0_DTLB TRANSLATION  ACCESS:          0 HIT:          0 MISS:          0 MSHR_MERGE:          0
cpu0->cpu0_DTLB PREFETCH REQUESTED:          0 ISSUED:          0 USEFUL:          0 USELESS:          0 LATE:          0
cpu0->cpu0_DTLB AVERAGE MISS LATENCY: 8.315 cycles
cpu0->LLC TOTAL        ACCESS:    8231752 HIT:    3712597 MISS:    4519155 MSHR_MERGE:     113224
cpu0->LLC LOAD         ACCESS:    2435103 HIT:    1018350 MISS:    1416753 MSHR_MERGE:      11716
cpu0->LLC RFO          ACCESS:     813256 HIT:     267555 MISS:     545701 MSHR_MERGE:       2113
cpu0->LLC PREFETCH     ACCESS:    2704689 HIT:     693545 MISS:    2011144 MSHR_MERGE:      99395
cpu0->LLC WRITE        ACCESS:    2265413 HIT:    1729964 MISS:     535449 MSHR_MERGE:          0
cpu0->LLC TRANSLATION  ACCESS:      13291 HIT:       3183 MISS:      10108 MSHR_MERGE:          0
cpu0->LLC PREFETCH REQUESTED:          0 ISSUED:          0 USEFUL:          0 USELESS:          0 LATE:          0
cpu0->LLC AVERAGE MISS LATENCY: 235.7 cycles

DRAM Statistics

Channel 0 RQ ROW_BUFFER_HIT:     151339
  ROW_BUFFER_MISS:    3715360
  AVG DBUS CONGESTED CYCLE: 6.77
Channel 0 WQ ROW_BUFFER_HIT:     212156
  ROW_BUFFER_MISS:     998664
  FULL:       2231
Channel 0 REFRESHES ISSUED:      17907

[ROI Statistics]
[System Configuration]
num_cpus 1
cpu_freq 4000
fetch_width 6
decode_width 6
dispatch_width 6
execute_width 6
lq_width 2
sq_width 2
retire_width 6
scheduler_size 128
branch_mispredict_penalty 15
rob_size 352
lq_size 128
sq_size 72
ifetch_buffer_size 64
decode_buffer_size 32
dispatch_buffer_size 32
register_file_size 288
decode_latency 1
dispatch_latency 1
schedule_latency 1
execute_latency 1
page_size 4096
block_size 64
core_0_itlb_set 16
core_0_itlb_way 4
core_0_itlb_rq_size 16
core_0_itlb_wq_size 16
core_0_itlb_pq_size 0
core_0_itlb_mshr_size 8
core_0_itlb_hit_latency 1
core_0_itlb_fill_latency 1
core_0_itlb_max_tag_check 2
core_0_itlb_max_fill 2
core_0_dtlb_set 16
core_0_dtlb_way 4
core_0_dtlb_rq_size 16
core_0_dtlb_wq_size 16
core_0_dtlb_pq_size 0
core_0_dtlb_mshr_size 8
core_0_dtlb_hit_latency 1
core_0_dtlb_fill_latency 1
core_0_dtlb_max_tag_check 2
core_0_dtlb_max_fill 2
core_0_stlb_set 128
core_0_stlb_way 12
core_0_stlb_rq_size 32
core_0_stlb_wq_size 32
core_0_stlb_pq_size 0
core_0_stlb_mshr_size 16
core_0_stlb_hit_latency 4
core_0_stlb_fill_latency 4
core_0_stlb_max_tag_check 1
core_0_stlb_max_fill 1
core_0_l1i_set 64
core_0_l1i_way 8
core_0_l1i_rq_size 64
core_0_l1i_wq_size 64
core_0_l1i_pq_size 32
core_0_l1i_mshr_size 8
core_0_l1i_hit_latency 2
core_0_l1i_fill_latency 2
core_0_l1i_max_tag_check 2
core_0_l1i_max_fill 2
core_0_l1d_set 64
core_0_l1d_way 12
core_0_l1d_rq_size 64
core_0_l1d_wq_size 64
core_0_l1d_pq_size 8
core_0_l1d_mshr_size 16
core_0_l1d_hit_latency 2
core_0_l1d_fill_latency 3
core_0_l1d_max_tag_check 2
core_0_l1d_max_fill 2
core_0_l2c_set 1024
core_0_l2c_way 8
core_0_l2c_rq_size 32
core_0_l2c_wq_size 32
core_0_l2c_pq_size 16
core_0_l2c_mshr_size 32
core_0_l2c_hit_latency 5
core_0_l2c_fill_latency 5
core_0_l2c_max_tag_check 1
core_0_l2c_max_fill 1
llc_set 2048
llc_way 16
llc_rq_size 32
llc_wq_size 32
llc_pq_size 32
llc_mshr_size 64
llc_hit_latency 10
llc_fill_latency 10
llc_max_tag_check 1
llc_max_fill 1
dram_channels 1
dram_ranks 1
dram_bankgroups 8
dram_banks 4
dram_rows 65536
dram_columns 1024
dram_channel_width 8
dram_rq_size 64
dram_wq_size 64
dram_size 17179869184
core_0_itlb_prefetcher no
core_0_dtlb_prefetcher no
core_0_stlb_prefetcher no
core_0_l1i_prefetcher next_line
core_0_l1d_prefetcher vberti
core_0_l2c_prefetcher ip_stride
llc_prefetcher no
llc_replacement drrip

Core_0_instructions 100000002
Core_0_cycles 214878680
Core_0_IPC 0.465379
Core_0_branch_prediction_accuracy 93.5273
Core_0_branch_MPKI 10.5389
Core_0_average_ROB_occupancy_at_mispredict 67.2217

Core_0_ITLB_total_access 4556400
Core_0_ITLB_total_hit 4555754
Core_0_ITLB_total_miss 646
Core_0_ITLB_total_MPKI 0.00646
Core_0_ITLB_total_miss_rate 0.000141779
Core_0_ITLB_demand_access 4556400
Core_0_ITLB_demand_hit 4555754
Core_0_ITLB_demand_miss 646
Core_0_ITLB_demand_MPKI 0.00646
Core_0_ITLB_demand_miss_rate 0.000141779
Core_0_ITLB_load_access 4556400
Core_0_ITLB_load_hit 4555754
Core_0_ITLB_load_miss 646
Core_0_ITLB_load_MPKI 0.00646
Core_0_ITLB_load_miss_rate 0.000141779
Core_0_ITLB_rfo_access 0
Core_0_ITLB_rfo_hit 0
Core_0_ITLB_rfo_miss 0
Core_0_ITLB_rfo_MPKI 0
Core_0_ITLB_rfo_miss_rate 0
Core_0_ITLB_prefetch_access 0
Core_0_ITLB_prefetch_hit 0
Core_0_ITLB_prefetch_miss 0
Core_0_ITLB_prefetch_MPKI 0
Core_0_ITLB_prefetch_miss_rate 0
Core_0_ITLB_writeback_access 0
Core_0_ITLB_writeback_hit 0
Core_0_ITLB_writeback_miss 0
Core_0_ITLB_writeback_MPKI 0
Core_0_ITLB_writeback_miss_rate 0
Core_0_ITLB_prefetch_requested 0
Core_0_ITLB_prefetch_issued 0
Core_0_ITLB_prefetch_useful 0
Core_0_ITLB_prefetch_useless 0
Core_0_ITLB_prefetch_late 0
Core_0_ITLB_prefetch_accuracy 0
Core_0_ITLB_prefetch_coverage 0
Core_0_ITLB_total_eviction 275

Core_0_DTLB_total_access 40447337
Core_0_DTLB_total_hit 38433010
Core_0_DTLB_total_miss 2014327
Core_0_DTLB_total_MPKI 20.1433
Core_0_DTLB_total_miss_rate 0.0498012
Core_0_DTLB_demand_access 40447337
Core_0_DTLB_demand_hit 38433010
Core_0_DTLB_demand_miss 2014327
Core_0_DTLB_demand_MPKI 20.1433
Core_0_DTLB_demand_miss_rate 0.0498012
Core_0_DTLB_load_access 40447337
Core_0_DTLB_load_hit 38433010
Core_0_DTLB_load_miss 2014327
Core_0_DTLB_load_MPKI 20.1433
Core_0_DTLB_load_miss_rate 0.0498012
Core_0_DTLB_rfo_access 0
Core_0_DTLB_rfo_hit 0
Core_0_DTLB_rfo_miss 0
Core_0_DTLB_rfo_MPKI 0
Core_0_DTLB_rfo_miss_rate 0
Core_0_DTLB_prefetch_access 0
Core_0_DTLB_prefetch_hit 0
Core_0_DTLB_prefetch_miss 0
Core_0_DTLB_prefetch_MPKI 0
Core_0_DTLB_prefetch_miss_rate 0
Core_0_DTLB_writeback_access 0
Core_0_DTLB_writeback_hit 0
Core_0_DTLB_writeback_miss 0
Core_0_DTLB_writeback_MPKI 0
Core_0_DTLB_writeback_miss_rate 0
Core_0_DTLB_prefetch_requested 0
Core_0_DTLB_prefetch_issued 0
Core_0_DTLB_prefetch_useful 0
Core_0_DTLB_prefetch_useless 0
Core_0_DTLB_prefetch_late 0
Core_0_DTLB_prefetch_accuracy 0
Core_0_DTLB_prefetch_coverage 0
Core_0_DTLB_total_eviction 1542106

Core_0_STLB_total_access 1542381
Core_0_STLB_total_hit 1505265
Core_0_STLB_total_miss 37116
Core_0_STLB_total_MPKI 0.37116
Core_0_STLB_total_miss_rate 0.0240641
Core_0_STLB_demand_access 1542381
Core_0_STLB_demand_hit 1505265
Core_0_STLB_demand_miss 37116
Core_0_STLB_demand_MPKI 0.37116
Core_0_STLB_demand_miss_rate 0.0240641
Core_0_STLB_load_access 1542381
Core_0_STLB_load_hit 1505265
Core_0_STLB_load_miss 37116
Core_0_STLB_load_MPKI 0.37116
Core_0_STLB_load_miss_rate 0.0240641
Core_0_STLB_rfo_access 0
Core_0_STLB_rfo_hit 0
Core_0_STLB_rfo_miss 0
Core_0_STLB_rfo_MPKI 0
Core_0_STLB_rfo_miss_rate 0
Core_0_STLB_prefetch_access 0
Core_0_STLB_prefetch_hit 0
Core_0_STLB_prefetch_miss 0
Core_0_STLB_prefetch_MPKI 0
Core_0_STLB_prefetch_miss_rate 0
Core_0_STLB_writeback_access 0
Core_0_STLB_writeback_hit 0
Core_0_STLB_writeback_miss 0
Core_0_STLB_writeback_MPKI 0
Core_0_STLB_writeback_miss_rate 0
Core_0_STLB_prefetch_requested 0
Core_0_STLB_prefetch_issued 0
Core_0_STLB_prefetch_useful 0
Core_0_STLB_prefetch_useless 0
Core_0_STLB_prefetch_late 0
Core_0_STLB_prefetch_accuracy 0
Core_0_STLB_prefetch_coverage 0
Core_0_STLB_total_eviction 198165

Core_0_L1I_total_access 5119819
Core_0_L1I_total_hit 5113212
Core_0_L1I_total_miss 6607
Core_0_L1I_total_MPKI 0.06607
Core_0_L1I_total_miss_rate 0.00129048
Core_0_L1I_demand_access 5119819
Core_0_L1I_demand_hit 5113212
Core_0_L1I_demand_miss 6607
Core_0_L1I_demand_MPKI 0.06607
Core_0_L1I_demand_miss_rate 0.00129048
Core_0_L1I_load_access 5119819
Core_0_L1I_load_hit 5113212
Core_0_L1I_load_miss 6607
Core_0_L1I_load_MPKI 0.06607
Core_0_L1I_load_miss_rate 0.00129048
Core_0_L1I_rfo_access 0
Core_0_L1I_rfo_hit 0
Core_0_L1I_rfo_miss 0
Core_0_L1I_rfo_MPKI 0
Core_0_L1I_rfo_miss_rate 0
Core_0_L1I_prefetch_access 0
Core_0_L1I_prefetch_hit 0
Core_0_L1I_prefetch_miss 0
Core_0_L1I_prefetch_MPKI 0
Core_0_L1I_prefetch_miss_rate 0
Core_0_L1I_writeback_access 0
Core_0_L1I_writeback_hit 0
Core_0_L1I_writeback_miss 0
Core_0_L1I_writeback_MPKI 0
Core_0_L1I_writeback_miss_rate 0
Core_0_L1I_prefetch_requested 0
Core_0_L1I_prefetch_issued 0
Core_0_L1I_prefetch_useful 0
Core_0_L1I_prefetch_useless 0
Core_0_L1I_prefetch_late 0
Core_0_L1I_prefetch_accuracy 0
Core_0_L1I_prefetch_coverage 0
Core_0_L1I_total_eviction 3903

Core_0_L1D_total_access 46338239
Core_0_L1D_total_hit 32721768
Core_0_L1D_total_miss 13616471
Core_0_L1D_total_MPKI 136.165
Core_0_L1D_total_miss_rate 0.29385
Core_0_L1D_demand_access 19137937
Core_0_L1D_demand_hit 13159040
Core_0_L1D_demand_miss 5978897
Core_0_L1D_demand_MPKI 59.789
Core_0_L1D_demand_miss_rate 0.312411
Core_0_L1D_load_access 19137937
Core_0_L1D_load_hit 13159040
Core_0_L1D_load_miss 5978897
Core_0_L1D_load_MPKI 59.789
Core_0_L1D_load_miss_rate 0.312411
Core_0_L1D_rfo_access 0
Core_0_L1D_rfo_hit 0
Core_0_L1D_rfo_miss 0
Core_0_L1D_rfo_MPKI 0
Core_0_L1D_rfo_miss_rate 0
Core_0_L1D_prefetch_access 16853642
Core_0_L1D_prefetch_hit 12178979
Core_0_L1D_prefetch_miss 4674663
Core_0_L1D_prefetch_MPKI 46.7466
Core_0_L1D_prefetch_miss_rate 0.277368
Core_0_L1D_writeback_access 10346660
Core_0_L1D_writeback_hit 7383749
Core_0_L1D_writeback_miss 2962911
Core_0_L1D_writeback_MPKI 29.6291
Core_0_L1D_writeback_miss_rate 0.286364
Core_0_L1D_prefetch_requested 159630860
Core_0_L1D_prefetch_issued 16853637
Core_0_L1D_prefetch_useful 1207898
Core_0_L1D_prefetch_useless 249135
Core_0_L1D_prefetch_late 78892
Core_0_L1D_prefetch_accuracy 0.0716699
Core_0_L1D_prefetch_coverage 0.168072
Core_0_L1D_total_eviction 6991603

Core_0_L2C_total_access 15778684
Core_0_L2C_total_hit 8402956
Core_0_L2C_total_miss 7375728
Core_0_L2C_total_MPKI 73.7573
Core_0_L2C_total_miss_rate 0.467449
Core_0_L2C_demand_access 5519770
Core_0_L2C_demand_hit 2095948
Core_0_L2C_demand_miss 3423822
Core_0_L2C_demand_MPKI 34.2382
Core_0_L2C_demand_miss_rate 0.620283
Core_0_L2C_load_access 4313776
Core_0_L2C_load_hit 1754304
Core_0_L2C_load_miss 2559472
Core_0_L2C_load_MPKI 25.5947
Core_0_L2C_load_miss_rate 0.593325
Core_0_L2C_rfo_access 1205994
Core_0_L2C_rfo_hit 341644
Core_0_L2C_rfo_miss 864350
Core_0_L2C_rfo_MPKI 8.6435
Core_0_L2C_rfo_miss_rate 0.716712
Core_0_L2C_prefetch_access 6982687
Core_0_L2C_prefetch_hit 3030940
Core_0_L2C_prefetch_miss 3951747
Core_0_L2C_prefetch_MPKI 39.5175
Core_0_L2C_prefetch_miss_rate 0.565935
Core_0_L2C_writeback_access 3276227
Core_0_L2C_writeback_hit 3276068
Core_0_L2C_writeback_miss 159
Core_0_L2C_writeback_MPKI 0.00159
Core_0_L2C_writeback_miss_rate 4.85314e-05
Core_0_L2C_prefetch_requested 2497746
Core_0_L2C_prefetch_issued 2475355
Core_0_L2C_prefetch_useful 547923
Core_0_L2C_prefetch_useless 200361
Core_0_L2C_prefetch_late 95075
Core_0_L2C_prefetch_accuracy 0.221351
Core_0_L2C_prefetch_coverage 0.137955
Core_0_L2C_total_eviction 5753313

Core_0_LLC_total_access 8218461
Core_0_LLC_total_hit 3709414
Core_0_LLC_total_miss 4509047
Core_0_LLC_total_MPKI 45.0905
Core_0_LLC_total_miss_rate 0.548649
Core_0_LLC_demand_access 3248359
Core_0_LLC_demand_hit 1285905
Core_0_LLC_demand_miss 1962454
Core_0_LLC_demand_MPKI 19.6245
Core_0_LLC_demand_miss_rate 0.604137
Core_0_LLC_load_access 2435103
Core_0_LLC_load_hit 1018350
Core_0_LLC_load_miss 1416753
Core_0_LLC_load_MPKI 14.1675
Core_0_LLC_load_miss_rate 0.581804
Core_0_LLC_rfo_access 813256
Core_0_LLC_rfo_hit 267555
Core_0_LLC_rfo_miss 545701
Core_0_LLC_rfo_MPKI 5.45701
Core_0_LLC_rfo_miss_rate 0.671008
Core_0_LLC_prefetch_access 2704689
Core_0_LLC_prefetch_hit 693545
Core_0_LLC_prefetch_miss 2011144
Core_0_LLC_prefetch_MPKI 20.1114
Core_0_LLC_prefetch_miss_rate 0.743577
Core_0_LLC_writeback_access 2265413
Core_0_LLC_writeback_hit 1729964
Core_0_LLC_writeback_miss 535449
Core_0_LLC_writeback_MPKI 5.35449
Core_0_LLC_writeback_miss_rate 0.236358
Core_0_LLC_prefetch_requested 0
Core_0_LLC_prefetch_issued 0
Core_0_LLC_prefetch_useful 0
Core_0_LLC_prefetch_useless 0
Core_0_LLC_prefetch_late 0
Core_0_LLC_prefetch_accuracy 0
Core_0_LLC_prefetch_coverage 0
Core_0_LLC_total_eviction 4405918

[DRAM Statistics]
Channel_0_RQ_row_buffer_hit 151339
Channel_0_RQ_row_buffer_miss 3715360
Channel_0_WQ_row_buffer_hit 212156
Channel_0_WQ_row_buffer_miss 998664
Channel_0_WQ_full 2231
Channel_0_dbus_congested 13876544
DRAM_total_RQ_row_buffer_hit 151339
DRAM_total_RQ_row_buffer_miss 3715360
DRAM_total_WQ_row_buffer_hit 212156
DRAM_total_WQ_row_buffer_miss 998664
DRAM_total_WQ_full 2231
DRAM_total_dbus_congested 13876544
DRAM_avg_congested_cycle 6.77017

======STLB miss causes ========
Core_0_STLB_miss_cause_breakdown
Core_0_STLB_cause_Demand_Data_miss 0
Core_0_STLB_cause_Demand_Data_miss_rate 0
Core_0_STLB_cause_Demand_Instruction_miss 0
Core_0_STLB_cause_Demand_Instruction_miss_rate 0
Core_0_STLB_cause_L1D_Prefetch_miss 37116
Core_0_STLB_cause_L1D_Prefetch_miss_rate 0.0240641
Core_0_STLB_cause_L1I_Prefetch_miss 0
Core_0_STLB_cause_L1I_Prefetch_miss_rate 0
Core_0_STLB_cause_Other_miss 0
Core_0_STLB_cause_Other_miss_rate 0
Core_0_STLB_Demand_miss 0
Core_0_STLB_Demand_miss_rate 0
Core_0_STLB_L1D_Prefetch_miss 37116
Core_0_STLB_L1D_Prefetch_miss_rate 0.0240641
Core_0_STLB_Other_miss 0
Core_0_STLB_Other_miss_rate 0
BERTI TO_L1: 117884429 TO_L2: 97520456 TO_L2_BC_MSHR: 51909417
BERTI AVG_LAT: 101.543 NUM_TRACK_LATENCY: 10320047 NUM_CANT_TRACK_LATENCY: 67
BERTI CROSS_PAGE 28738465 NO_CROSS_PAGE: 186666420
BERTI FOUND_BERTI: 43263213 NO_FOUND_BERTI: 15857415
BERTI AVERAGE_ISSUED: 2.28097
