[VMEM] WARNING: physical memory size is smaller than virtual memory size.

*** ChampSim Multicore Out-of-Order Simulator ***
Warmup Instructions: 50000000
Simulation Instructions: 100000000
Number of CPUs: 1
Page size: 4096
STLB ideal mode: demand
STLB ideal fill: on
Core 0: /data0/tzh/champsim_traces/QMM/compute_int_34_new.xz
VBerti Prefetcher
BERTI HASH ENTANGLING
BERTI IP MASK ffff
Off-chip DRAM Size: 16 GiB Channels: 1 Width: 64-bit Data Rate: 3205 MT/s
*** Reached end of trace: (0, "/data0/tzh/champsim_traces/QMM/compute_int_34_new.xz")
Warmup halting CPU 0 at instruction 50000001 cycle 14331466 for remainder of phase
Warmup finished CPU 0 instructions: 50000001 cycles: 14331466 cumulative IPC: 3.489 (Simulation time: 00 hr 03 min 56 sec)
Warmup complete CPU 0 instructions: 50000001 cycles: 14331466 cumulative IPC: 3.489 (Simulation time: 00 hr 03 min 56 sec)
*** Reached end of trace: (0, "/data0/tzh/champsim_traces/QMM/compute_int_34_new.xz")
*** Reached end of trace: (0, "/data0/tzh/champsim_traces/QMM/compute_int_34_new.xz")
*** Reached end of trace: (0, "/data0/tzh/champsim_traces/QMM/compute_int_34_new.xz")
Simulation finished CPU 0 instructions: 100000000 cycles: 120625517 cumulative IPC: 0.829 (Simulation time: 00 hr 21 min 51 sec)
Simulation complete CPU 0 instructions: 100000000 cycles: 120625517 cumulative IPC: 0.829 (Simulation time: 00 hr 21 min 51 sec)

ChampSim completed all CPUs

=== Simulation ===
CPU 0 runs /data0/tzh/champsim_traces/QMM/compute_int_34_new.xz

Region of Interest Statistics

CPU 0 cumulative IPC: 0.829 instructions: 100000000 cycles: 120625517
CPU 0 Branch Prediction Accuracy: 97.4% MPKI: 3.235 Average ROB Occupancy at Mispredict: 98.05
Branch type MPKI
BRANCH_DIRECT_JUMP: 0
BRANCH_INDIRECT: 0
BRANCH_CONDITIONAL: 3.235
BRANCH_DIRECT_CALL: 0
BRANCH_INDIRECT_CALL: 0
BRANCH_RETURN: 0

cpu0->cpu0_STLB TOTAL        ACCESS:     249423 HIT:     119096 MISS:     130327 MSHR_MERGE:          0
cpu0->cpu0_STLB LOAD         ACCESS:     249423 HIT:     119096 MISS:     130327 MSHR_MERGE:          0
cpu0->cpu0_STLB RFO          ACCESS:          0 HIT:          0 MISS:          0 MSHR_MERGE:          0
cpu0->cpu0_STLB PREFETCH     ACCESS:          0 HIT:          0 MISS:          0 MSHR_MERGE:          0
cpu0->cpu0_STLB WRITE        ACCESS:          0 HIT:          0 MISS:          0 MSHR_MERGE:          0
cpu0->cpu0_STLB TRANSLATION  ACCESS:          0 HIT:          0 MISS:          0 MSHR_MERGE:          0
cpu0->cpu0_STLB PREFETCH REQUESTED:          0 ISSUED:          0 USEFUL:          0 USELESS:          0 LATE:          0
cpu0->cpu0_STLB AVERAGE MISS LATENCY: 65.05 cycles
cpu0->cpu0_L2C TOTAL        ACCESS:   16939544 HIT:    6918021 MISS:   10021523 MSHR_MERGE:    3004591
cpu0->cpu0_L2C LOAD         ACCESS:    2337456 HIT:    1289886 MISS:    1047570 MSHR_MERGE:     556093
cpu0->cpu0_L2C RFO          ACCESS:     258982 HIT:     177827 MISS:      81155 MSHR_MERGE:      34900
cpu0->cpu0_L2C PREFETCH     ACCESS:   13586468 HIT:    4713440 MISS:    8873028 MSHR_MERGE:    2413598
cpu0->cpu0_L2C WRITE        ACCESS:     734962 HIT:     732864 MISS:       2098 MSHR_MERGE:          0
cpu0->cpu0_L2C TRANSLATION  ACCESS:      21676 HIT:       4004 MISS:      17672 MSHR_MERGE:          0
cpu0->cpu0_L2C PREFETCH REQUESTED:    2111283 ISSUED:    1403653 USEFUL:     138329 USELESS:      50965 LATE:       7483
cpu0->cpu0_L2C AVERAGE MISS LATENCY: 246.4 cycles
cpu0->cpu0_L1I TOTAL        ACCESS:   11455325 HIT:   11454680 MISS:        645 MSHR_MERGE:        236
cpu0->cpu0_L1I LOAD         ACCESS:   11455325 HIT:   11454680 MISS:        645 MSHR_MERGE:        236
cpu0->cpu0_L1I RFO          ACCESS:          0 HIT:          0 MISS:          0 MSHR_MERGE:          0
cpu0->cpu0_L1I PREFETCH     ACCESS:          0 HIT:          0 MISS:          0 MSHR_MERGE:          0
cpu0->cpu0_L1I WRITE        ACCESS:          0 HIT:          0 MISS:          0 MSHR_MERGE:          0
cpu0->cpu0_L1I TRANSLATION  ACCESS:          0 HIT:          0 MISS:          0 MSHR_MERGE:          0
cpu0->cpu0_L1I PREFETCH REQUESTED:          0 ISSUED:          0 USEFUL:          0 USELESS:          0 LATE:          0
cpu0->cpu0_L1I AVERAGE MISS LATENCY: 257 cycles
cpu0->cpu0_L1D TOTAL        ACCESS:   47610378 HIT:   30995369 MISS:   16615009 MSHR_MERGE:    1504093
cpu0->cpu0_L1D LOAD         ACCESS:   17136304 HIT:   14010679 MISS:    3125625 MSHR_MERGE:     788563
cpu0->cpu0_L1D RFO          ACCESS:          0 HIT:          0 MISS:          0 MSHR_MERGE:          0
cpu0->cpu0_L1D PREFETCH     ACCESS:   16881068 HIT:    4212819 MISS:   12668249 MSHR_MERGE:     175094
cpu0->cpu0_L1D WRITE        ACCESS:   13332327 HIT:   12532885 MISS:     799442 MSHR_MERGE:     540419
cpu0->cpu0_L1D TRANSLATION  ACCESS:     260679 HIT:     238986 MISS:      21693 MSHR_MERGE:         17
cpu0->cpu0_L1D PREFETCH REQUESTED:   57428374 ISSUED:   16881068 USEFUL:    3091280 USELESS:     234597 LATE:     604486
cpu0->cpu0_L1D AVERAGE MISS LATENCY: 137.3 cycles
cpu0->cpu0_ITLB TOTAL        ACCESS:    9108450 HIT:    9108108 MISS:        342 MSHR_MERGE:        206
cpu0->cpu0_ITLB LOAD         ACCESS:    9108450 HIT:    9108108 MISS:        342 MSHR_MERGE:        206
cpu0->cpu0_ITLB RFO          ACCESS:          0 HIT:          0 MISS:          0 MSHR_MERGE:          0
cpu0->cpu0_ITLB PREFETCH     ACCESS:          0 HIT:          0 MISS:          0 MSHR_MERGE:          0
cpu0->cpu0_ITLB WRITE        ACCESS:          0 HIT:          0 MISS:          0 MSHR_MERGE:          0
cpu0->cpu0_ITLB TRANSLATION  ACCESS:          0 HIT:          0 MISS:          0 MSHR_MERGE:          0
cpu0->cpu0_ITLB PREFETCH REQUESTED:          0 ISSUED:          0 USEFUL:          0 USELESS:          0 LATE:          0
cpu0->cpu0_ITLB AVERAGE MISS LATENCY: 5.022 cycles
cpu0->cpu0_DTLB TOTAL        ACCESS:   39636662 HIT:   39072819 MISS:     563843 MSHR_MERGE:     314556
cpu0->cpu0_DTLB LOAD         ACCESS:   39636662 HIT:   39072819 MISS:     563843 MSHR_MERGE:     314556
cpu0->cpu0_DTLB RFO          ACCESS:          0 HIT:          0 MISS:          0 MSHR_MERGE:          0
cpu0->cpu0_DTLB PREFETCH     ACCESS:          0 HIT:          0 MISS:          0 MSHR_MERGE:          0
cpu0->cpu0_DTLB WRITE        ACCESS:          0 HIT:          0 MISS:          0 MSHR_MERGE:          0
cpu0->cpu0_DTLB TRANSLATION  ACCESS:          0 HIT:          0 MISS:          0 MSHR_MERGE:          0
cpu0->cpu0_DTLB PREFETCH REQUESTED:          0 ISSUED:          0 USEFUL:          0 USELESS:          0 LATE:          0
cpu0->cpu0_DTLB AVERAGE MISS LATENCY: 39.53 cycles
cpu0->LLC TOTAL        ACCESS:    7696648 HIT:    1793466 MISS:    5903182 MSHR_MERGE:     139796
cpu0->LLC LOAD         ACCESS:     491477 HIT:      98953 MISS:     392524 MSHR_MERGE:      11478
cpu0->LLC RFO          ACCESS:      46255 HIT:       8010 MISS:      38245 MSHR_MERGE:       1308
cpu0->LLC PREFETCH     ACCESS:    6459368 HIT:    1534762 MISS:    4924606 MSHR_MERGE:     127010
cpu0->LLC WRITE        ACCESS:     681876 HIT:     150017 MISS:     531859 MSHR_MERGE:          0
cpu0->LLC TRANSLATION  ACCESS:      17672 HIT:       1724 MISS:      15948 MSHR_MERGE:          0
cpu0->LLC PREFETCH REQUESTED:          0 ISSUED:          0 USEFUL:          0 USELESS:          0 LATE:          0
cpu0->LLC AVERAGE MISS LATENCY: 147.5 cycles

DRAM Statistics

Channel 0 RQ ROW_BUFFER_HIT:     331954
  ROW_BUFFER_MISS:    4899507
  AVG DBUS CONGESTED CYCLE: 4.426
Channel 0 WQ ROW_BUFFER_HIT:      43292
  ROW_BUFFER_MISS:     621898
  FULL:          0
Channel 0 REFRESHES ISSUED:      10052

[ROI Statistics]
[System Configuration]
num_cpus 1
cpu_freq 4000
fetch_width 6
decode_width 6
dispatch_width 6
execute_width 6
lq_width 2
sq_width 2
retire_width 6
scheduler_size 128
branch_mispredict_penalty 15
rob_size 352
lq_size 128
sq_size 72
ifetch_buffer_size 64
decode_buffer_size 32
dispatch_buffer_size 32
register_file_size 288
decode_latency 1
dispatch_latency 1
schedule_latency 1
execute_latency 1
page_size 4096
block_size 64
core_0_itlb_set 16
core_0_itlb_way 4
core_0_itlb_rq_size 16
core_0_itlb_wq_size 16
core_0_itlb_pq_size 0
core_0_itlb_mshr_size 8
core_0_itlb_hit_latency 1
core_0_itlb_fill_latency 1
core_0_itlb_max_tag_check 2
core_0_itlb_max_fill 2
core_0_dtlb_set 16
core_0_dtlb_way 4
core_0_dtlb_rq_size 16
core_0_dtlb_wq_size 16
core_0_dtlb_pq_size 0
core_0_dtlb_mshr_size 8
core_0_dtlb_hit_latency 1
core_0_dtlb_fill_latency 1
core_0_dtlb_max_tag_check 2
core_0_dtlb_max_fill 2
core_0_stlb_set 128
core_0_stlb_way 12
core_0_stlb_rq_size 32
core_0_stlb_wq_size 32
core_0_stlb_pq_size 0
core_0_stlb_mshr_size 16
core_0_stlb_hit_latency 4
core_0_stlb_fill_latency 4
core_0_stlb_max_tag_check 1
core_0_stlb_max_fill 1
core_0_l1i_set 64
core_0_l1i_way 8
core_0_l1i_rq_size 64
core_0_l1i_wq_size 64
core_0_l1i_pq_size 32
core_0_l1i_mshr_size 8
core_0_l1i_hit_latency 2
core_0_l1i_fill_latency 2
core_0_l1i_max_tag_check 2
core_0_l1i_max_fill 2
core_0_l1d_set 64
core_0_l1d_way 12
core_0_l1d_rq_size 64
core_0_l1d_wq_size 64
core_0_l1d_pq_size 8
core_0_l1d_mshr_size 16
core_0_l1d_hit_latency 2
core_0_l1d_fill_latency 3
core_0_l1d_max_tag_check 2
core_0_l1d_max_fill 2
core_0_l2c_set 1024
core_0_l2c_way 8
core_0_l2c_rq_size 32
core_0_l2c_wq_size 32
core_0_l2c_pq_size 16
core_0_l2c_mshr_size 32
core_0_l2c_hit_latency 5
core_0_l2c_fill_latency 5
core_0_l2c_max_tag_check 1
core_0_l2c_max_fill 1
llc_set 2048
llc_way 16
llc_rq_size 32
llc_wq_size 32
llc_pq_size 32
llc_mshr_size 64
llc_hit_latency 10
llc_fill_latency 10
llc_max_tag_check 1
llc_max_fill 1
dram_channels 1
dram_ranks 1
dram_bankgroups 8
dram_banks 4
dram_rows 65536
dram_columns 1024
dram_channel_width 8
dram_rq_size 64
dram_wq_size 64
dram_size 17179869184
core_0_itlb_prefetcher no
core_0_dtlb_prefetcher no
core_0_stlb_prefetcher no
core_0_l1i_prefetcher next_line
core_0_l1d_prefetcher vberti
core_0_l2c_prefetcher ip_stride
llc_prefetcher no
llc_replacement drrip

Core_0_instructions 100000000
Core_0_cycles 120625517
Core_0_IPC 0.829012
Core_0_branch_prediction_accuracy 97.3965
Core_0_branch_MPKI 3.23504
Core_0_average_ROB_occupancy_at_mispredict 98.0548

Core_0_ITLB_total_access 9108450
Core_0_ITLB_total_hit 9108108
Core_0_ITLB_total_miss 342
Core_0_ITLB_total_MPKI 0.00342
Core_0_ITLB_total_miss_rate 3.75476e-05
Core_0_ITLB_demand_access 9108450
Core_0_ITLB_demand_hit 9108108
Core_0_ITLB_demand_miss 342
Core_0_ITLB_demand_MPKI 0.00342
Core_0_ITLB_demand_miss_rate 3.75476e-05
Core_0_ITLB_load_access 9108450
Core_0_ITLB_load_hit 9108108
Core_0_ITLB_load_miss 342
Core_0_ITLB_load_MPKI 0.00342
Core_0_ITLB_load_miss_rate 3.75476e-05
Core_0_ITLB_rfo_access 0
Core_0_ITLB_rfo_hit 0
Core_0_ITLB_rfo_miss 0
Core_0_ITLB_rfo_MPKI 0
Core_0_ITLB_rfo_miss_rate 0
Core_0_ITLB_prefetch_access 0
Core_0_ITLB_prefetch_hit 0
Core_0_ITLB_prefetch_miss 0
Core_0_ITLB_prefetch_MPKI 0
Core_0_ITLB_prefetch_miss_rate 0
Core_0_ITLB_writeback_access 0
Core_0_ITLB_writeback_hit 0
Core_0_ITLB_writeback_miss 0
Core_0_ITLB_writeback_MPKI 0
Core_0_ITLB_writeback_miss_rate 0
Core_0_ITLB_prefetch_requested 0
Core_0_ITLB_prefetch_issued 0
Core_0_ITLB_prefetch_useful 0
Core_0_ITLB_prefetch_useless 0
Core_0_ITLB_prefetch_late 0
Core_0_ITLB_prefetch_accuracy 0
Core_0_ITLB_prefetch_coverage 0
Core_0_ITLB_total_eviction 136

Core_0_DTLB_total_access 39636662
Core_0_DTLB_total_hit 39072819
Core_0_DTLB_total_miss 563843
Core_0_DTLB_total_MPKI 5.63843
Core_0_DTLB_total_miss_rate 0.0142253
Core_0_DTLB_demand_access 39636662
Core_0_DTLB_demand_hit 39072819
Core_0_DTLB_demand_miss 563843
Core_0_DTLB_demand_MPKI 5.63843
Core_0_DTLB_demand_miss_rate 0.0142253
Core_0_DTLB_load_access 39636662
Core_0_DTLB_load_hit 39072819
Core_0_DTLB_load_miss 563843
Core_0_DTLB_load_MPKI 5.63843
Core_0_DTLB_load_miss_rate 0.0142253
Core_0_DTLB_rfo_access 0
Core_0_DTLB_rfo_hit 0
Core_0_DTLB_rfo_miss 0
Core_0_DTLB_rfo_MPKI 0
Core_0_DTLB_rfo_miss_rate 0
Core_0_DTLB_prefetch_access 0
Core_0_DTLB_prefetch_hit 0
Core_0_DTLB_prefetch_miss 0
Core_0_DTLB_prefetch_MPKI 0
Core_0_DTLB_prefetch_miss_rate 0
Core_0_DTLB_writeback_access 0
Core_0_DTLB_writeback_hit 0
Core_0_DTLB_writeback_miss 0
Core_0_DTLB_writeback_MPKI 0
Core_0_DTLB_writeback_miss_rate 0
Core_0_DTLB_prefetch_requested 0
Core_0_DTLB_prefetch_issued 0
Core_0_DTLB_prefetch_useful 0
Core_0_DTLB_prefetch_useless 0
Core_0_DTLB_prefetch_late 0
Core_0_DTLB_prefetch_accuracy 0
Core_0_DTLB_prefetch_coverage 0
Core_0_DTLB_total_eviction 249287

Core_0_STLB_total_access 249423
Core_0_STLB_total_hit 119096
Core_0_STLB_total_miss 130327
Core_0_STLB_total_MPKI 1.30327
Core_0_STLB_total_miss_rate 0.522514
Core_0_STLB_demand_access 249423
Core_0_STLB_demand_hit 119096
Core_0_STLB_demand_miss 130327
Core_0_STLB_demand_MPKI 1.30327
Core_0_STLB_demand_miss_rate 0.522514
Core_0_STLB_load_access 249423
Core_0_STLB_load_hit 119096
Core_0_STLB_load_miss 130327
Core_0_STLB_load_MPKI 1.30327
Core_0_STLB_load_miss_rate 0.522514
Core_0_STLB_rfo_access 0
Core_0_STLB_rfo_hit 0
Core_0_STLB_rfo_miss 0
Core_0_STLB_rfo_MPKI 0
Core_0_STLB_rfo_miss_rate 0
Core_0_STLB_prefetch_access 0
Core_0_STLB_prefetch_hit 0
Core_0_STLB_prefetch_miss 0
Core_0_STLB_prefetch_MPKI 0
Core_0_STLB_prefetch_miss_rate 0
Core_0_STLB_writeback_access 0
Core_0_STLB_writeback_hit 0
Core_0_STLB_writeback_miss 0
Core_0_STLB_writeback_MPKI 0
Core_0_STLB_writeback_miss_rate 0
Core_0_STLB_prefetch_requested 0
Core_0_STLB_prefetch_issued 0
Core_0_STLB_prefetch_useful 0
Core_0_STLB_prefetch_useless 0
Core_0_STLB_prefetch_late 0
Core_0_STLB_prefetch_accuracy 0
Core_0_STLB_prefetch_coverage 0
Core_0_STLB_total_eviction 140713

Core_0_L1I_total_access 11455325
Core_0_L1I_total_hit 11454680
Core_0_L1I_total_miss 645
Core_0_L1I_total_MPKI 0.00645
Core_0_L1I_total_miss_rate 5.63057e-05
Core_0_L1I_demand_access 11455325
Core_0_L1I_demand_hit 11454680
Core_0_L1I_demand_miss 645
Core_0_L1I_demand_MPKI 0.00645
Core_0_L1I_demand_miss_rate 5.63057e-05
Core_0_L1I_load_access 11455325
Core_0_L1I_load_hit 11454680
Core_0_L1I_load_miss 645
Core_0_L1I_load_MPKI 0.00645
Core_0_L1I_load_miss_rate 5.63057e-05
Core_0_L1I_rfo_access 0
Core_0_L1I_rfo_hit 0
Core_0_L1I_rfo_miss 0
Core_0_L1I_rfo_MPKI 0
Core_0_L1I_rfo_miss_rate 0
Core_0_L1I_prefetch_access 0
Core_0_L1I_prefetch_hit 0
Core_0_L1I_prefetch_miss 0
Core_0_L1I_prefetch_MPKI 0
Core_0_L1I_prefetch_miss_rate 0
Core_0_L1I_writeback_access 0
Core_0_L1I_writeback_hit 0
Core_0_L1I_writeback_miss 0
Core_0_L1I_writeback_MPKI 0
Core_0_L1I_writeback_miss_rate 0
Core_0_L1I_prefetch_requested 0
Core_0_L1I_prefetch_issued 0
Core_0_L1I_prefetch_useful 0
Core_0_L1I_prefetch_useless 0
Core_0_L1I_prefetch_late 0
Core_0_L1I_prefetch_accuracy 0
Core_0_L1I_prefetch_coverage 0
Core_0_L1I_total_eviction 409

Core_0_L1D_total_access 47349699
Core_0_L1D_total_hit 30756383
Core_0_L1D_total_miss 16593316
Core_0_L1D_total_MPKI 165.933
Core_0_L1D_total_miss_rate 0.350442
Core_0_L1D_demand_access 17136304
Core_0_L1D_demand_hit 14010679
Core_0_L1D_demand_miss 3125625
Core_0_L1D_demand_MPKI 31.2563
Core_0_L1D_demand_miss_rate 0.182398
Core_0_L1D_load_access 17136304
Core_0_L1D_load_hit 14010679
Core_0_L1D_load_miss 3125625
Core_0_L1D_load_MPKI 31.2563
Core_0_L1D_load_miss_rate 0.182398
Core_0_L1D_rfo_access 0
Core_0_L1D_rfo_hit 0
Core_0_L1D_rfo_miss 0
Core_0_L1D_rfo_MPKI 0
Core_0_L1D_rfo_miss_rate 0
Core_0_L1D_prefetch_access 16881068
Core_0_L1D_prefetch_hit 4212819
Core_0_L1D_prefetch_miss 12668249
Core_0_L1D_prefetch_MPKI 126.682
Core_0_L1D_prefetch_miss_rate 0.750441
Core_0_L1D_writeback_access 13332327
Core_0_L1D_writeback_hit 12532885
Core_0_L1D_writeback_miss 799442
Core_0_L1D_writeback_MPKI 7.99442
Core_0_L1D_writeback_miss_rate 0.0599627
Core_0_L1D_prefetch_requested 57428374
Core_0_L1D_prefetch_issued 16881068
Core_0_L1D_prefetch_useful 3091280
Core_0_L1D_prefetch_useless 234597
Core_0_L1D_prefetch_late 604486
Core_0_L1D_prefetch_accuracy 0.183121
Core_0_L1D_prefetch_coverage 0.497238
Core_0_L1D_total_eviction 5943766

Core_0_L2C_total_access 16917868
Core_0_L2C_total_hit 6914017
Core_0_L2C_total_miss 10003851
Core_0_L2C_total_MPKI 100.039
Core_0_L2C_total_miss_rate 0.591319
Core_0_L2C_demand_access 2596438
Core_0_L2C_demand_hit 1467713
Core_0_L2C_demand_miss 1128725
Core_0_L2C_demand_MPKI 11.2873
Core_0_L2C_demand_miss_rate 0.434721
Core_0_L2C_load_access 2337456
Core_0_L2C_load_hit 1289886
Core_0_L2C_load_miss 1047570
Core_0_L2C_load_MPKI 10.4757
Core_0_L2C_load_miss_rate 0.448167
Core_0_L2C_rfo_access 258982
Core_0_L2C_rfo_hit 177827
Core_0_L2C_rfo_miss 81155
Core_0_L2C_rfo_MPKI 0.81155
Core_0_L2C_rfo_miss_rate 0.313362
Core_0_L2C_prefetch_access 13586468
Core_0_L2C_prefetch_hit 4713440
Core_0_L2C_prefetch_miss 8873028
Core_0_L2C_prefetch_MPKI 88.7303
Core_0_L2C_prefetch_miss_rate 0.653078
Core_0_L2C_writeback_access 734962
Core_0_L2C_writeback_hit 732864
Core_0_L2C_writeback_miss 2098
Core_0_L2C_writeback_MPKI 0.02098
Core_0_L2C_writeback_miss_rate 0.00285457
Core_0_L2C_prefetch_requested 2111283
Core_0_L2C_prefetch_issued 1403653
Core_0_L2C_prefetch_useful 138329
Core_0_L2C_prefetch_useless 50965
Core_0_L2C_prefetch_late 7483
Core_0_L2C_prefetch_accuracy 0.0985493
Core_0_L2C_prefetch_coverage 0.109174
Core_0_L2C_total_eviction 6602726

Core_0_LLC_total_access 7678976
Core_0_LLC_total_hit 1791742
Core_0_LLC_total_miss 5887234
Core_0_LLC_total_MPKI 58.8723
Core_0_LLC_total_miss_rate 0.766669
Core_0_LLC_demand_access 537732
Core_0_LLC_demand_hit 106963
Core_0_LLC_demand_miss 430769
Core_0_LLC_demand_MPKI 4.30769
Core_0_LLC_demand_miss_rate 0.801085
Core_0_LLC_load_access 491477
Core_0_LLC_load_hit 98953
Core_0_LLC_load_miss 392524
Core_0_LLC_load_MPKI 3.92524
Core_0_LLC_load_miss_rate 0.798662
Core_0_LLC_rfo_access 46255
Core_0_LLC_rfo_hit 8010
Core_0_LLC_rfo_miss 38245
Core_0_LLC_rfo_MPKI 0.38245
Core_0_LLC_rfo_miss_rate 0.82683
Core_0_LLC_prefetch_access 6459368
Core_0_LLC_prefetch_hit 1534762
Core_0_LLC_prefetch_miss 4924606
Core_0_LLC_prefetch_MPKI 49.2461
Core_0_LLC_prefetch_miss_rate 0.762397
Core_0_LLC_writeback_access 681876
Core_0_LLC_writeback_hit 150017
Core_0_LLC_writeback_miss 531859
Core_0_LLC_writeback_MPKI 5.31859
Core_0_LLC_writeback_miss_rate 0.779994
Core_0_LLC_prefetch_requested 0
Core_0_LLC_prefetch_issued 0
Core_0_LLC_prefetch_useful 0
Core_0_LLC_prefetch_useless 0
Core_0_LLC_prefetch_late 0
Core_0_LLC_prefetch_accuracy 0
Core_0_LLC_prefetch_coverage 0
Core_0_LLC_total_eviction 5763382

[DRAM Statistics]
Channel_0_RQ_row_buffer_hit 331954
Channel_0_RQ_row_buffer_miss 4899507
Channel_0_WQ_row_buffer_hit 43292
Channel_0_WQ_row_buffer_miss 621898
Channel_0_WQ_full 0
Channel_0_dbus_congested 15498716
DRAM_total_RQ_row_buffer_hit 331954
DRAM_total_RQ_row_buffer_miss 4899507
DRAM_total_WQ_row_buffer_hit 43292
DRAM_total_WQ_row_buffer_miss 621898
DRAM_total_WQ_full 0
DRAM_total_dbus_congested 15498716
DRAM_avg_congested_cycle 4.42579

======STLB miss causes ========
Core_0_STLB_miss_cause_breakdown
Core_0_STLB_cause_Demand_Data_miss 0
Core_0_STLB_cause_Demand_Data_miss_rate 0
Core_0_STLB_cause_Demand_Instruction_miss 0
Core_0_STLB_cause_Demand_Instruction_miss_rate 0
Core_0_STLB_cause_L1D_Prefetch_miss 130327
Core_0_STLB_cause_L1D_Prefetch_miss_rate 0.522514
Core_0_STLB_cause_L1I_Prefetch_miss 0
Core_0_STLB_cause_L1I_Prefetch_miss_rate 0
Core_0_STLB_cause_Other_miss 0
Core_0_STLB_cause_Other_miss_rate 0
Core_0_STLB_Demand_miss 0
Core_0_STLB_Demand_miss_rate 0
Core_0_STLB_L1D_Prefetch_miss 130327
Core_0_STLB_L1D_Prefetch_miss_rate 0.522514
Core_0_STLB_Other_miss 0
Core_0_STLB_Other_miss_rate 0
BERTI TO_L1: 20419516 TO_L2: 58999199 TO_L2_BC_MSHR: 10619661
BERTI AVG_LAT: 111.529 NUM_TRACK_LATENCY: 9172555 NUM_CANT_TRACK_LATENCY: 404
BERTI CROSS_PAGE 19661269 NO_CROSS_PAGE: 59757446
BERTI FOUND_BERTI: 26112195 NO_FOUND_BERTI: 21326598
BERTI AVERAGE_ISSUED: 2.19752
