[VMEM] WARNING: physical memory size is smaller than virtual memory size.

*** ChampSim Multicore Out-of-Order Simulator ***
Warmup Instructions: 50000000
Simulation Instructions: 100000000
Number of CPUs: 1
Page size: 4096
STLB ideal mode: demand
STLB ideal fill: on
Core 0: /data0/tzh/champsim_traces/Ligra/ligra_Radii.com-lj.ungraph.gcc_6.3.0_O3.drop_36000M.length_250M.champsimtrace.xz
VBerti Prefetcher
BERTI HASH ENTANGLING
BERTI IP MASK ffff
Off-chip DRAM Size: 16 GiB Channels: 1 Width: 64-bit Data Rate: 3205 MT/s
Warmup halting CPU 0 at instruction 50000005 cycle 10492060 for remainder of phase
Warmup finished CPU 0 instructions: 50000005 cycles: 10492060 cumulative IPC: 4.766 (Simulation time: 00 hr 03 min 05 sec)
Warmup complete CPU 0 instructions: 50000005 cycles: 10492060 cumulative IPC: 4.766 (Simulation time: 00 hr 03 min 05 sec)
Simulation finished CPU 0 instructions: 100000004 cycles: 349331322 cumulative IPC: 0.2863 (Simulation time: 00 hr 26 min 55 sec)
Simulation complete CPU 0 instructions: 100000004 cycles: 349331322 cumulative IPC: 0.2863 (Simulation time: 00 hr 26 min 55 sec)

ChampSim completed all CPUs

=== Simulation ===
CPU 0 runs /data0/tzh/champsim_traces/Ligra/ligra_Radii.com-lj.ungraph.gcc_6.3.0_O3.drop_36000M.length_250M.champsimtrace.xz

Region of Interest Statistics

CPU 0 cumulative IPC: 0.2863 instructions: 100000004 cycles: 349331322
CPU 0 Branch Prediction Accuracy: 88.95% MPKI: 26.21 Average ROB Occupancy at Mispredict: 14.06
Branch type MPKI
BRANCH_DIRECT_JUMP: 9e-05
BRANCH_INDIRECT: 0
BRANCH_CONDITIONAL: 26.21
BRANCH_DIRECT_CALL: 7e-05
BRANCH_INDIRECT_CALL: 0
BRANCH_RETURN: 6e-05

cpu0->cpu0_STLB TOTAL        ACCESS:    2365014 HIT:    2340416 MISS:      24598 MSHR_MERGE:          0
cpu0->cpu0_STLB LOAD         ACCESS:    2365014 HIT:    2340416 MISS:      24598 MSHR_MERGE:          0
cpu0->cpu0_STLB RFO          ACCESS:          0 HIT:          0 MISS:          0 MSHR_MERGE:          0
cpu0->cpu0_STLB PREFETCH     ACCESS:          0 HIT:          0 MISS:          0 MSHR_MERGE:          0
cpu0->cpu0_STLB WRITE        ACCESS:          0 HIT:          0 MISS:          0 MSHR_MERGE:          0
cpu0->cpu0_STLB TRANSLATION  ACCESS:          0 HIT:          0 MISS:          0 MSHR_MERGE:          0
cpu0->cpu0_STLB PREFETCH REQUESTED:          0 ISSUED:          0 USEFUL:          0 USELESS:          0 LATE:          0
cpu0->cpu0_STLB AVERAGE MISS LATENCY: 243.1 cycles
cpu0->cpu0_L2C TOTAL        ACCESS:   10687372 HIT:    6072155 MISS:    4615217 MSHR_MERGE:     704843
cpu0->cpu0_L2C LOAD         ACCESS:    2598963 HIT:     275894 MISS:    2323069 MSHR_MERGE:       1394
cpu0->cpu0_L2C RFO          ACCESS:        158 HIT:        145 MISS:         13 MSHR_MERGE:          0
cpu0->cpu0_L2C PREFETCH     ACCESS:    7811462 HIT:    5523103 MISS:    2288359 MSHR_MERGE:     703449
cpu0->cpu0_L2C WRITE        ACCESS:     262785 HIT:     262551 MISS:        234 MSHR_MERGE:          0
cpu0->cpu0_L2C TRANSLATION  ACCESS:      14004 HIT:      10462 MISS:       3542 MSHR_MERGE:          0
cpu0->cpu0_L2C PREFETCH REQUESTED:    2022505 ISSUED:    2022153 USEFUL:     486938 USELESS:      48329 LATE:        778
cpu0->cpu0_L2C AVERAGE MISS LATENCY: 124.8 cycles
cpu0->cpu0_L1I TOTAL        ACCESS:    1139129 HIT:    1139070 MISS:         59 MSHR_MERGE:          8
cpu0->cpu0_L1I LOAD         ACCESS:    1139129 HIT:    1139070 MISS:         59 MSHR_MERGE:          8
cpu0->cpu0_L1I RFO          ACCESS:          0 HIT:          0 MISS:          0 MSHR_MERGE:          0
cpu0->cpu0_L1I PREFETCH     ACCESS:          0 HIT:          0 MISS:          0 MSHR_MERGE:          0
cpu0->cpu0_L1I WRITE        ACCESS:          0 HIT:          0 MISS:          0 MSHR_MERGE:          0
cpu0->cpu0_L1I TRANSLATION  ACCESS:          0 HIT:          0 MISS:          0 MSHR_MERGE:          0
cpu0->cpu0_L1I PREFETCH REQUESTED:          0 ISSUED:          0 USEFUL:          0 USELESS:          0 LATE:          0
cpu0->cpu0_L1I AVERAGE MISS LATENCY: 204.4 cycles
cpu0->cpu0_L1D TOTAL        ACCESS:   68616637 HIT:   60058010 MISS:    8558627 MSHR_MERGE:     136049
cpu0->cpu0_L1D LOAD         ACCESS:   26953820 HIT:   24231434 MISS:    2722386 MSHR_MERGE:     123474
cpu0->cpu0_L1D RFO          ACCESS:          0 HIT:          0 MISS:          0 MSHR_MERGE:          0
cpu0->cpu0_L1D PREFETCH     ACCESS:   37078837 HIT:   31256789 MISS:    5822048 MSHR_MERGE:      12544
cpu0->cpu0_L1D WRITE        ACCESS:    4534741 HIT:    4534565 MISS:        176 MSHR_MERGE:         18
cpu0->cpu0_L1D TRANSLATION  ACCESS:      49239 HIT:      35222 MISS:      14017 MSHR_MERGE:         13
cpu0->cpu0_L1D PREFETCH REQUESTED:  126143724 ISSUED:   37078838 USEFUL:    1445366 USELESS:      88474 LATE:       6545
cpu0->cpu0_L1D AVERAGE MISS LATENCY: 120 cycles
cpu0->cpu0_ITLB TOTAL        ACCESS:     984502 HIT:     984490 MISS:         12 MSHR_MERGE:          6
cpu0->cpu0_ITLB LOAD         ACCESS:     984502 HIT:     984490 MISS:         12 MSHR_MERGE:          6
cpu0->cpu0_ITLB RFO          ACCESS:          0 HIT:          0 MISS:          0 MSHR_MERGE:          0
cpu0->cpu0_ITLB PREFETCH     ACCESS:          0 HIT:          0 MISS:          0 MSHR_MERGE:          0
cpu0->cpu0_ITLB WRITE        ACCESS:          0 HIT:          0 MISS:          0 MSHR_MERGE:          0
cpu0->cpu0_ITLB TRANSLATION  ACCESS:          0 HIT:          0 MISS:          0 MSHR_MERGE:          0
cpu0->cpu0_ITLB PREFETCH REQUESTED:          0 ISSUED:          0 USEFUL:          0 USELESS:          0 LATE:          0
cpu0->cpu0_ITLB AVERAGE MISS LATENCY: 5 cycles
cpu0->cpu0_DTLB TOTAL        ACCESS:   56123854 HIT:   53636366 MISS:    2487488 MSHR_MERGE:     122480
cpu0->cpu0_DTLB LOAD         ACCESS:   56123854 HIT:   53636366 MISS:    2487488 MSHR_MERGE:     122480
cpu0->cpu0_DTLB RFO          ACCESS:          0 HIT:          0 MISS:          0 MSHR_MERGE:          0
cpu0->cpu0_DTLB PREFETCH     ACCESS:          0 HIT:          0 MISS:          0 MSHR_MERGE:          0
cpu0->cpu0_DTLB WRITE        ACCESS:          0 HIT:          0 MISS:          0 MSHR_MERGE:          0
cpu0->cpu0_DTLB TRANSLATION  ACCESS:          0 HIT:          0 MISS:          0 MSHR_MERGE:          0
cpu0->cpu0_DTLB PREFETCH REQUESTED:          0 ISSUED:          0 USEFUL:          0 USELESS:          0 LATE:          0
cpu0->cpu0_DTLB AVERAGE MISS LATENCY: 7.541 cycles
cpu0->LLC TOTAL        ACCESS:    4173235 HIT:    1118611 MISS:    3054624 MSHR_MERGE:       3615
cpu0->LLC LOAD         ACCESS:    2321675 HIT:    1066513 MISS:    1255162 MSHR_MERGE:        284
cpu0->LLC RFO          ACCESS:         13 HIT:          1 MISS:         12 MSHR_MERGE:          0
cpu0->LLC PREFETCH     ACCESS:    1584908 HIT:       5949 MISS:    1578959 MSHR_MERGE:       3331
cpu0->LLC WRITE        ACCESS:     263097 HIT:      46083 MISS:     217014 MSHR_MERGE:          0
cpu0->LLC TRANSLATION  ACCESS:       3542 HIT:         65 MISS:       3477 MSHR_MERGE:          0
cpu0->LLC PREFETCH REQUESTED:          0 ISSUED:          0 USEFUL:          0 USELESS:          0 LATE:          0
cpu0->LLC AVERAGE MISS LATENCY: 173.4 cycles

DRAM Statistics

Channel 0 RQ ROW_BUFFER_HIT:      37908
  ROW_BUFFER_MISS:    2796077
  AVG DBUS CONGESTED CYCLE: 15.94
Channel 0 WQ ROW_BUFFER_HIT:      62911
  ROW_BUFFER_MISS:     197986
  FULL:          0
Channel 0 REFRESHES ISSUED:      29111

[ROI Statistics]
[System Configuration]
num_cpus 1
cpu_freq 4000
fetch_width 6
decode_width 6
dispatch_width 6
execute_width 6
lq_width 2
sq_width 2
retire_width 6
scheduler_size 128
branch_mispredict_penalty 15
rob_size 352
lq_size 128
sq_size 72
ifetch_buffer_size 64
decode_buffer_size 32
dispatch_buffer_size 32
register_file_size 288
decode_latency 1
dispatch_latency 1
schedule_latency 1
execute_latency 1
page_size 4096
block_size 64
core_0_itlb_set 16
core_0_itlb_way 4
core_0_itlb_rq_size 16
core_0_itlb_wq_size 16
core_0_itlb_pq_size 0
core_0_itlb_mshr_size 8
core_0_itlb_hit_latency 1
core_0_itlb_fill_latency 1
core_0_itlb_max_tag_check 2
core_0_itlb_max_fill 2
core_0_dtlb_set 16
core_0_dtlb_way 4
core_0_dtlb_rq_size 16
core_0_dtlb_wq_size 16
core_0_dtlb_pq_size 0
core_0_dtlb_mshr_size 8
core_0_dtlb_hit_latency 1
core_0_dtlb_fill_latency 1
core_0_dtlb_max_tag_check 2
core_0_dtlb_max_fill 2
core_0_stlb_set 128
core_0_stlb_way 12
core_0_stlb_rq_size 32
core_0_stlb_wq_size 32
core_0_stlb_pq_size 0
core_0_stlb_mshr_size 16
core_0_stlb_hit_latency 4
core_0_stlb_fill_latency 4
core_0_stlb_max_tag_check 1
core_0_stlb_max_fill 1
core_0_l1i_set 64
core_0_l1i_way 8
core_0_l1i_rq_size 64
core_0_l1i_wq_size 64
core_0_l1i_pq_size 32
core_0_l1i_mshr_size 8
core_0_l1i_hit_latency 2
core_0_l1i_fill_latency 2
core_0_l1i_max_tag_check 2
core_0_l1i_max_fill 2
core_0_l1d_set 64
core_0_l1d_way 12
core_0_l1d_rq_size 64
core_0_l1d_wq_size 64
core_0_l1d_pq_size 8
core_0_l1d_mshr_size 16
core_0_l1d_hit_latency 2
core_0_l1d_fill_latency 3
core_0_l1d_max_tag_check 2
core_0_l1d_max_fill 2
core_0_l2c_set 1024
core_0_l2c_way 8
core_0_l2c_rq_size 32
core_0_l2c_wq_size 32
core_0_l2c_pq_size 16
core_0_l2c_mshr_size 32
core_0_l2c_hit_latency 5
core_0_l2c_fill_latency 5
core_0_l2c_max_tag_check 1
core_0_l2c_max_fill 1
llc_set 2048
llc_way 16
llc_rq_size 32
llc_wq_size 32
llc_pq_size 32
llc_mshr_size 64
llc_hit_latency 10
llc_fill_latency 10
llc_max_tag_check 1
llc_max_fill 1
dram_channels 1
dram_ranks 1
dram_bankgroups 8
dram_banks 4
dram_rows 65536
dram_columns 1024
dram_channel_width 8
dram_rq_size 64
dram_wq_size 64
dram_size 17179869184
core_0_itlb_prefetcher no
core_0_dtlb_prefetcher no
core_0_stlb_prefetcher no
core_0_l1i_prefetcher next_line
core_0_l1d_prefetcher vberti
core_0_l2c_prefetcher ip_stride
llc_prefetcher no
llc_replacement drrip

Core_0_instructions 100000004
Core_0_cycles 349331322
Core_0_IPC 0.286261
Core_0_branch_prediction_accuracy 88.9538
Core_0_branch_MPKI 26.2093
Core_0_average_ROB_occupancy_at_mispredict 14.0638

Core_0_ITLB_total_access 984502
Core_0_ITLB_total_hit 984490
Core_0_ITLB_total_miss 12
Core_0_ITLB_total_MPKI 0.00012
Core_0_ITLB_total_miss_rate 1.21889e-05
Core_0_ITLB_demand_access 984502
Core_0_ITLB_demand_hit 984490
Core_0_ITLB_demand_miss 12
Core_0_ITLB_demand_MPKI 0.00012
Core_0_ITLB_demand_miss_rate 1.21889e-05
Core_0_ITLB_load_access 984502
Core_0_ITLB_load_hit 984490
Core_0_ITLB_load_miss 12
Core_0_ITLB_load_MPKI 0.00012
Core_0_ITLB_load_miss_rate 1.21889e-05
Core_0_ITLB_rfo_access 0
Core_0_ITLB_rfo_hit 0
Core_0_ITLB_rfo_miss 0
Core_0_ITLB_rfo_MPKI 0
Core_0_ITLB_rfo_miss_rate 0
Core_0_ITLB_prefetch_access 0
Core_0_ITLB_prefetch_hit 0
Core_0_ITLB_prefetch_miss 0
Core_0_ITLB_prefetch_MPKI 0
Core_0_ITLB_prefetch_miss_rate 0
Core_0_ITLB_writeback_access 0
Core_0_ITLB_writeback_hit 0
Core_0_ITLB_writeback_miss 0
Core_0_ITLB_writeback_MPKI 0
Core_0_ITLB_writeback_miss_rate 0
Core_0_ITLB_prefetch_requested 0
Core_0_ITLB_prefetch_issued 0
Core_0_ITLB_prefetch_useful 0
Core_0_ITLB_prefetch_useless 0
Core_0_ITLB_prefetch_late 0
Core_0_ITLB_prefetch_accuracy 0
Core_0_ITLB_prefetch_coverage 0
Core_0_ITLB_total_eviction 0

Core_0_DTLB_total_access 56123854
Core_0_DTLB_total_hit 53636366
Core_0_DTLB_total_miss 2487488
Core_0_DTLB_total_MPKI 24.8749
Core_0_DTLB_total_miss_rate 0.0443214
Core_0_DTLB_demand_access 56123854
Core_0_DTLB_demand_hit 53636366
Core_0_DTLB_demand_miss 2487488
Core_0_DTLB_demand_MPKI 24.8749
Core_0_DTLB_demand_miss_rate 0.0443214
Core_0_DTLB_load_access 56123854
Core_0_DTLB_load_hit 53636366
Core_0_DTLB_load_miss 2487488
Core_0_DTLB_load_MPKI 24.8749
Core_0_DTLB_load_miss_rate 0.0443214
Core_0_DTLB_rfo_access 0
Core_0_DTLB_rfo_hit 0
Core_0_DTLB_rfo_miss 0
Core_0_DTLB_rfo_MPKI 0
Core_0_DTLB_rfo_miss_rate 0
Core_0_DTLB_prefetch_access 0
Core_0_DTLB_prefetch_hit 0
Core_0_DTLB_prefetch_miss 0
Core_0_DTLB_prefetch_MPKI 0
Core_0_DTLB_prefetch_miss_rate 0
Core_0_DTLB_writeback_access 0
Core_0_DTLB_writeback_hit 0
Core_0_DTLB_writeback_miss 0
Core_0_DTLB_writeback_MPKI 0
Core_0_DTLB_writeback_miss_rate 0
Core_0_DTLB_prefetch_requested 0
Core_0_DTLB_prefetch_issued 0
Core_0_DTLB_prefetch_useful 0
Core_0_DTLB_prefetch_useless 0
Core_0_DTLB_prefetch_late 0
Core_0_DTLB_prefetch_accuracy 0
Core_0_DTLB_prefetch_coverage 0
Core_0_DTLB_total_eviction 2365008

Core_0_STLB_total_access 2365014
Core_0_STLB_total_hit 2340416
Core_0_STLB_total_miss 24598
Core_0_STLB_total_MPKI 0.24598
Core_0_STLB_total_miss_rate 0.0104008
Core_0_STLB_demand_access 2365014
Core_0_STLB_demand_hit 2340416
Core_0_STLB_demand_miss 24598
Core_0_STLB_demand_MPKI 0.24598
Core_0_STLB_demand_miss_rate 0.0104008
Core_0_STLB_load_access 2365014
Core_0_STLB_load_hit 2340416
Core_0_STLB_load_miss 24598
Core_0_STLB_load_MPKI 0.24598
Core_0_STLB_load_miss_rate 0.0104008
Core_0_STLB_rfo_access 0
Core_0_STLB_rfo_hit 0
Core_0_STLB_rfo_miss 0
Core_0_STLB_rfo_MPKI 0
Core_0_STLB_rfo_miss_rate 0
Core_0_STLB_prefetch_access 0
Core_0_STLB_prefetch_hit 0
Core_0_STLB_prefetch_miss 0
Core_0_STLB_prefetch_MPKI 0
Core_0_STLB_prefetch_miss_rate 0
Core_0_STLB_writeback_access 0
Core_0_STLB_writeback_hit 0
Core_0_STLB_writeback_miss 0
Core_0_STLB_writeback_MPKI 0
Core_0_STLB_writeback_miss_rate 0
Core_0_STLB_prefetch_requested 0
Core_0_STLB_prefetch_issued 0
Core_0_STLB_prefetch_useful 0
Core_0_STLB_prefetch_useless 0
Core_0_STLB_prefetch_late 0
Core_0_STLB_prefetch_accuracy 0
Core_0_STLB_prefetch_coverage 0
Core_0_STLB_total_eviction 355824

Core_0_L1I_total_access 1139129
Core_0_L1I_total_hit 1139070
Core_0_L1I_total_miss 59
Core_0_L1I_total_MPKI 0.00059
Core_0_L1I_total_miss_rate 5.1794e-05
Core_0_L1I_demand_access 1139129
Core_0_L1I_demand_hit 1139070
Core_0_L1I_demand_miss 59
Core_0_L1I_demand_MPKI 0.00059
Core_0_L1I_demand_miss_rate 5.1794e-05
Core_0_L1I_load_access 1139129
Core_0_L1I_load_hit 1139070
Core_0_L1I_load_miss 59
Core_0_L1I_load_MPKI 0.00059
Core_0_L1I_load_miss_rate 5.1794e-05
Core_0_L1I_rfo_access 0
Core_0_L1I_rfo_hit 0
Core_0_L1I_rfo_miss 0
Core_0_L1I_rfo_MPKI 0
Core_0_L1I_rfo_miss_rate 0
Core_0_L1I_prefetch_access 0
Core_0_L1I_prefetch_hit 0
Core_0_L1I_prefetch_miss 0
Core_0_L1I_prefetch_MPKI 0
Core_0_L1I_prefetch_miss_rate 0
Core_0_L1I_writeback_access 0
Core_0_L1I_writeback_hit 0
Core_0_L1I_writeback_miss 0
Core_0_L1I_writeback_MPKI 0
Core_0_L1I_writeback_miss_rate 0
Core_0_L1I_prefetch_requested 0
Core_0_L1I_prefetch_issued 0
Core_0_L1I_prefetch_useful 0
Core_0_L1I_prefetch_useless 0
Core_0_L1I_prefetch_late 0
Core_0_L1I_prefetch_accuracy 0
Core_0_L1I_prefetch_coverage 0
Core_0_L1I_total_eviction 0

Core_0_L1D_total_access 68567398
Core_0_L1D_total_hit 60022788
Core_0_L1D_total_miss 8544610
Core_0_L1D_total_MPKI 85.4461
Core_0_L1D_total_miss_rate 0.124616
Core_0_L1D_demand_access 26953820
Core_0_L1D_demand_hit 24231434
Core_0_L1D_demand_miss 2722386
Core_0_L1D_demand_MPKI 27.2239
Core_0_L1D_demand_miss_rate 0.101002
Core_0_L1D_load_access 26953820
Core_0_L1D_load_hit 24231434
Core_0_L1D_load_miss 2722386
Core_0_L1D_load_MPKI 27.2239
Core_0_L1D_load_miss_rate 0.101002
Core_0_L1D_rfo_access 0
Core_0_L1D_rfo_hit 0
Core_0_L1D_rfo_miss 0
Core_0_L1D_rfo_MPKI 0
Core_0_L1D_rfo_miss_rate 0
Core_0_L1D_prefetch_access 37078837
Core_0_L1D_prefetch_hit 31256789
Core_0_L1D_prefetch_miss 5822048
Core_0_L1D_prefetch_MPKI 58.2205
Core_0_L1D_prefetch_miss_rate 0.157018
Core_0_L1D_writeback_access 4534741
Core_0_L1D_writeback_hit 4534565
Core_0_L1D_writeback_miss 176
Core_0_L1D_writeback_MPKI 0.00176
Core_0_L1D_writeback_miss_rate 3.88115e-05
Core_0_L1D_prefetch_requested 126143724
Core_0_L1D_prefetch_issued 37078838
Core_0_L1D_prefetch_useful 1445366
Core_0_L1D_prefetch_useless 88474
Core_0_L1D_prefetch_late 6545
Core_0_L1D_prefetch_accuracy 0.0389809
Core_0_L1D_prefetch_coverage 0.346798
Core_0_L1D_total_eviction 4146909

Core_0_L2C_total_access 10673368
Core_0_L2C_total_hit 6061693
Core_0_L2C_total_miss 4611675
Core_0_L2C_total_MPKI 46.1167
Core_0_L2C_total_miss_rate 0.432073
Core_0_L2C_demand_access 2599121
Core_0_L2C_demand_hit 276039
Core_0_L2C_demand_miss 2323082
Core_0_L2C_demand_MPKI 23.2308
Core_0_L2C_demand_miss_rate 0.893795
Core_0_L2C_load_access 2598963
Core_0_L2C_load_hit 275894
Core_0_L2C_load_miss 2323069
Core_0_L2C_load_MPKI 23.2307
Core_0_L2C_load_miss_rate 0.893845
Core_0_L2C_rfo_access 158
Core_0_L2C_rfo_hit 145
Core_0_L2C_rfo_miss 13
Core_0_L2C_rfo_MPKI 0.00013
Core_0_L2C_rfo_miss_rate 0.0822785
Core_0_L2C_prefetch_access 7811462
Core_0_L2C_prefetch_hit 5523103
Core_0_L2C_prefetch_miss 2288359
Core_0_L2C_prefetch_MPKI 22.8836
Core_0_L2C_prefetch_miss_rate 0.292949
Core_0_L2C_writeback_access 262785
Core_0_L2C_writeback_hit 262551
Core_0_L2C_writeback_miss 234
Core_0_L2C_writeback_MPKI 0.00234
Core_0_L2C_writeback_miss_rate 0.000890462
Core_0_L2C_prefetch_requested 2022505
Core_0_L2C_prefetch_issued 2022153
Core_0_L2C_prefetch_useful 486938
Core_0_L2C_prefetch_useless 48329
Core_0_L2C_prefetch_late 778
Core_0_L2C_prefetch_accuracy 0.240802
Core_0_L2C_prefetch_coverage 0.173286
Core_0_L2C_total_eviction 3903332

Core_0_LLC_total_access 4169693
Core_0_LLC_total_hit 1118546
Core_0_LLC_total_miss 3051147
Core_0_LLC_total_MPKI 30.5115
Core_0_LLC_total_miss_rate 0.731744
Core_0_LLC_demand_access 2321688
Core_0_LLC_demand_hit 1066514
Core_0_LLC_demand_miss 1255174
Core_0_LLC_demand_MPKI 12.5517
Core_0_LLC_demand_miss_rate 0.54063
Core_0_LLC_load_access 2321675
Core_0_LLC_load_hit 1066513
Core_0_LLC_load_miss 1255162
Core_0_LLC_load_MPKI 12.5516
Core_0_LLC_load_miss_rate 0.540628
Core_0_LLC_rfo_access 13
Core_0_LLC_rfo_hit 1
Core_0_LLC_rfo_miss 12
Core_0_LLC_rfo_MPKI 0.00012
Core_0_LLC_rfo_miss_rate 0.923077
Core_0_LLC_prefetch_access 1584908
Core_0_LLC_prefetch_hit 5949
Core_0_LLC_prefetch_miss 1578959
Core_0_LLC_prefetch_MPKI 15.7896
Core_0_LLC_prefetch_miss_rate 0.996246
Core_0_LLC_writeback_access 263097
Core_0_LLC_writeback_hit 46083
Core_0_LLC_writeback_miss 217014
Core_0_LLC_writeback_MPKI 2.17014
Core_0_LLC_writeback_miss_rate 0.824844
Core_0_LLC_prefetch_requested 0
Core_0_LLC_prefetch_issued 0
Core_0_LLC_prefetch_useful 0
Core_0_LLC_prefetch_useless 0
Core_0_LLC_prefetch_late 0
Core_0_LLC_prefetch_accuracy 0
Core_0_LLC_prefetch_coverage 0
Core_0_LLC_total_eviction 3051000

[DRAM Statistics]
Channel_0_RQ_row_buffer_hit 37908
Channel_0_RQ_row_buffer_miss 2796077
Channel_0_WQ_row_buffer_hit 62911
Channel_0_WQ_row_buffer_miss 197986
Channel_0_WQ_full 0
Channel_0_dbus_congested 6779301
DRAM_total_RQ_row_buffer_hit 37908
DRAM_total_RQ_row_buffer_miss 2796077
DRAM_total_WQ_row_buffer_hit 62911
DRAM_total_WQ_row_buffer_miss 197986
DRAM_total_WQ_full 0
DRAM_total_dbus_congested 6779301
DRAM_avg_congested_cycle 15.9382

======STLB miss causes ========
Core_0_STLB_miss_cause_breakdown
Core_0_STLB_cause_Demand_Data_miss 0
Core_0_STLB_cause_Demand_Data_miss_rate 0
Core_0_STLB_cause_Demand_Instruction_miss 0
Core_0_STLB_cause_Demand_Instruction_miss_rate 0
Core_0_STLB_cause_L1D_Prefetch_miss 24598
Core_0_STLB_cause_L1D_Prefetch_miss_rate 0.0104008
Core_0_STLB_cause_L1I_Prefetch_miss 0
Core_0_STLB_cause_L1I_Prefetch_miss_rate 0
Core_0_STLB_cause_Other_miss 0
Core_0_STLB_cause_Other_miss_rate 0
Core_0_STLB_Demand_miss 0
Core_0_STLB_Demand_miss_rate 0
Core_0_STLB_L1D_Prefetch_miss 24598
Core_0_STLB_L1D_Prefetch_miss_rate 0.0104008
Core_0_STLB_Other_miss 0
Core_0_STLB_Other_miss_rate 0
BERTI TO_L1: 119987918 TO_L2: 33846610 TO_L2_BC_MSHR: 483882
BERTI AVG_LAT: 75.2751 NUM_TRACK_LATENCY: 6945626 NUM_CANT_TRACK_LATENCY: 4
BERTI CROSS_PAGE 17332590 NO_CROSS_PAGE: 136501938
BERTI FOUND_BERTI: 26231525 NO_FOUND_BERTI: 14136167
BERTI AVERAGE_ISSUED: 3.62232
