[VMEM] WARNING: physical memory size is smaller than virtual memory size.

*** ChampSim Multicore Out-of-Order Simulator ***
Warmup Instructions: 50000000
Simulation Instructions: 100000000
Number of CPUs: 1
Page size: 4096
STLB ideal mode: demand
STLB ideal fill: on
Core 0: /data0/tzh/champsim_traces/Ligra/ligra_PageRankDelta.com-lj.ungraph.gcc_6.3.0_O3.drop_24500M.length_250M.champsimtrace.xz
VBerti Prefetcher
BERTI HASH ENTANGLING
BERTI IP MASK ffff
Off-chip DRAM Size: 16 GiB Channels: 1 Width: 64-bit Data Rate: 3205 MT/s
Warmup halting CPU 0 at instruction 50000001 cycle 10041841 for remainder of phase
Warmup finished CPU 0 instructions: 50000001 cycles: 10041841 cumulative IPC: 4.979 (Simulation time: 00 hr 02 min 48 sec)
Warmup complete CPU 0 instructions: 50000001 cycles: 10041841 cumulative IPC: 4.979 (Simulation time: 00 hr 02 min 48 sec)
Simulation finished CPU 0 instructions: 100000001 cycles: 142704751 cumulative IPC: 0.7007 (Simulation time: 00 hr 22 min 08 sec)
Simulation complete CPU 0 instructions: 100000001 cycles: 142704751 cumulative IPC: 0.7007 (Simulation time: 00 hr 22 min 08 sec)

ChampSim completed all CPUs

=== Simulation ===
CPU 0 runs /data0/tzh/champsim_traces/Ligra/ligra_PageRankDelta.com-lj.ungraph.gcc_6.3.0_O3.drop_24500M.length_250M.champsimtrace.xz

Region of Interest Statistics

CPU 0 cumulative IPC: 0.7007 instructions: 100000001 cycles: 142704751
CPU 0 Branch Prediction Accuracy: 96.3% MPKI: 3.146 Average ROB Occupancy at Mispredict: 155.9
Branch type MPKI
BRANCH_DIRECT_JUMP: 0
BRANCH_INDIRECT: 0
BRANCH_CONDITIONAL: 3.146
BRANCH_DIRECT_CALL: 0
BRANCH_INDIRECT_CALL: 0
BRANCH_RETURN: 0

cpu0->cpu0_STLB TOTAL        ACCESS:    1570395 HIT:    1563936 MISS:       6459 MSHR_MERGE:          0
cpu0->cpu0_STLB LOAD         ACCESS:    1570395 HIT:    1563936 MISS:       6459 MSHR_MERGE:          0
cpu0->cpu0_STLB RFO          ACCESS:          0 HIT:          0 MISS:          0 MSHR_MERGE:          0
cpu0->cpu0_STLB PREFETCH     ACCESS:          0 HIT:          0 MISS:          0 MSHR_MERGE:          0
cpu0->cpu0_STLB WRITE        ACCESS:          0 HIT:          0 MISS:          0 MSHR_MERGE:          0
cpu0->cpu0_STLB TRANSLATION  ACCESS:          0 HIT:          0 MISS:          0 MSHR_MERGE:          0
cpu0->cpu0_STLB PREFETCH REQUESTED:          0 ISSUED:          0 USEFUL:          0 USELESS:          0 LATE:          0
cpu0->cpu0_STLB AVERAGE MISS LATENCY: 259.8 cycles
cpu0->cpu0_L2C TOTAL        ACCESS:    5319163 HIT:    2999625 MISS:    2319538 MSHR_MERGE:     170225
cpu0->cpu0_L2C LOAD         ACCESS:    1906137 HIT:     227298 MISS:    1678839 MSHR_MERGE:       7792
cpu0->cpu0_L2C RFO          ACCESS:       3054 HIT:       3054 MISS:          0 MSHR_MERGE:          0
cpu0->cpu0_L2C PREFETCH     ACCESS:    1496000 HIT:     856446 MISS:     639554 MSHR_MERGE:     162433
cpu0->cpu0_L2C WRITE        ACCESS:    1909587 HIT:    1909573 MISS:         14 MSHR_MERGE:          0
cpu0->cpu0_L2C TRANSLATION  ACCESS:       4385 HIT:       3254 MISS:       1131 MSHR_MERGE:          0
cpu0->cpu0_L2C PREFETCH REQUESTED:     582685 ISSUED:     582680 USEFUL:     183131 USELESS:      74529 LATE:       7637
cpu0->cpu0_L2C AVERAGE MISS LATENCY: 227.3 cycles
cpu0->cpu0_L1I TOTAL        ACCESS:    4822714 HIT:    4822714 MISS:          0 MSHR_MERGE:          0
cpu0->cpu0_L1I LOAD         ACCESS:    4822714 HIT:    4822714 MISS:          0 MSHR_MERGE:          0
cpu0->cpu0_L1I RFO          ACCESS:          0 HIT:          0 MISS:          0 MSHR_MERGE:          0
cpu0->cpu0_L1I PREFETCH     ACCESS:          0 HIT:          0 MISS:          0 MSHR_MERGE:          0
cpu0->cpu0_L1I WRITE        ACCESS:          0 HIT:          0 MISS:          0 MSHR_MERGE:          0
cpu0->cpu0_L1I TRANSLATION  ACCESS:          0 HIT:          0 MISS:          0 MSHR_MERGE:          0
cpu0->cpu0_L1I PREFETCH REQUESTED:          0 ISSUED:          0 USEFUL:          0 USELESS:          0 LATE:          0
cpu0->cpu0_L1I AVERAGE MISS LATENCY: - cycles
cpu0->cpu0_L1D TOTAL        ACCESS:   39738249 HIT:   36645399 MISS:    3092850 MSHR_MERGE:     264846
cpu0->cpu0_L1D LOAD         ACCESS:   19501018 HIT:   17336874 MISS:    2164144 MSHR_MERGE:     258004
cpu0->cpu0_L1D RFO          ACCESS:          0 HIT:          0 MISS:          0 MSHR_MERGE:          0
cpu0->cpu0_L1D PREFETCH     ACCESS:    9313866 HIT:    8396826 MISS:     917040 MSHR_MERGE:       3005
cpu0->cpu0_L1D WRITE        ACCESS:   10910430 HIT:   10903150 MISS:       7280 MSHR_MERGE:       3836
cpu0->cpu0_L1D TRANSLATION  ACCESS:      12935 HIT:       8549 MISS:       4386 MSHR_MERGE:          1
cpu0->cpu0_L1D PREFETCH REQUESTED:   66242991 ISSUED:    9313866 USEFUL:     394299 USELESS:       5715 LATE:        826
cpu0->cpu0_L1D AVERAGE MISS LATENCY: 208.4 cycles
cpu0->cpu0_ITLB TOTAL        ACCESS:    3889102 HIT:    3889102 MISS:          0 MSHR_MERGE:          0
cpu0->cpu0_ITLB LOAD         ACCESS:    3889102 HIT:    3889102 MISS:          0 MSHR_MERGE:          0
cpu0->cpu0_ITLB RFO          ACCESS:          0 HIT:          0 MISS:          0 MSHR_MERGE:          0
cpu0->cpu0_ITLB PREFETCH     ACCESS:          0 HIT:          0 MISS:          0 MSHR_MERGE:          0
cpu0->cpu0_ITLB WRITE        ACCESS:          0 HIT:          0 MISS:          0 MSHR_MERGE:          0
cpu0->cpu0_ITLB TRANSLATION  ACCESS:          0 HIT:          0 MISS:          0 MSHR_MERGE:          0
cpu0->cpu0_ITLB PREFETCH REQUESTED:          0 ISSUED:          0 USEFUL:          0 USELESS:          0 LATE:          0
cpu0->cpu0_ITLB AVERAGE MISS LATENCY: - cycles
cpu0->cpu0_DTLB TOTAL        ACCESS:   36526561 HIT:   34879415 MISS:    1647146 MSHR_MERGE:      76751
cpu0->cpu0_DTLB LOAD         ACCESS:   36526561 HIT:   34879415 MISS:    1647146 MSHR_MERGE:      76751
cpu0->cpu0_DTLB RFO          ACCESS:          0 HIT:          0 MISS:          0 MSHR_MERGE:          0
cpu0->cpu0_DTLB PREFETCH     ACCESS:          0 HIT:          0 MISS:          0 MSHR_MERGE:          0
cpu0->cpu0_DTLB WRITE        ACCESS:          0 HIT:          0 MISS:          0 MSHR_MERGE:          0
cpu0->cpu0_DTLB TRANSLATION  ACCESS:          0 HIT:          0 MISS:          0 MSHR_MERGE:          0
cpu0->cpu0_DTLB PREFETCH REQUESTED:          0 ISSUED:          0 USEFUL:          0 USELESS:          0 LATE:          0
cpu0->cpu0_DTLB AVERAGE MISS LATENCY: 6.074 cycles
cpu0->LLC TOTAL        ACCESS:    3842040 HIT:     889669 MISS:    2952371 MSHR_MERGE:       1891
cpu0->LLC LOAD         ACCESS:    1671047 HIT:     325983 MISS:    1345064 MSHR_MERGE:         17
cpu0->LLC RFO          ACCESS:          0 HIT:          0 MISS:          0 MSHR_MERGE:          0
cpu0->LLC PREFETCH     ACCESS:     477115 HIT:      15614 MISS:     461501 MSHR_MERGE:       1874
cpu0->LLC WRITE        ACCESS:    1692747 HIT:     548055 MISS:    1144692 MSHR_MERGE:          0
cpu0->LLC TRANSLATION  ACCESS:       1131 HIT:         17 MISS:       1114 MSHR_MERGE:          0
cpu0->LLC PREFETCH REQUESTED:          0 ISSUED:          0 USEFUL:          0 USELESS:          0 LATE:          0
cpu0->LLC AVERAGE MISS LATENCY: 146.2 cycles

DRAM Statistics

Channel 0 RQ ROW_BUFFER_HIT:      15208
  ROW_BUFFER_MISS:    1790170
  AVG DBUS CONGESTED CYCLE: 6.593
Channel 0 WQ ROW_BUFFER_HIT:     326394
  ROW_BUFFER_MISS:    1036180
  FULL:          0
Channel 0 REFRESHES ISSUED:      11892

[ROI Statistics]
[System Configuration]
num_cpus 1
cpu_freq 4000
fetch_width 6
decode_width 6
dispatch_width 6
execute_width 6
lq_width 2
sq_width 2
retire_width 6
scheduler_size 128
branch_mispredict_penalty 15
rob_size 352
lq_size 128
sq_size 72
ifetch_buffer_size 64
decode_buffer_size 32
dispatch_buffer_size 32
register_file_size 288
decode_latency 1
dispatch_latency 1
schedule_latency 1
execute_latency 1
page_size 4096
block_size 64
core_0_itlb_set 16
core_0_itlb_way 4
core_0_itlb_rq_size 16
core_0_itlb_wq_size 16
core_0_itlb_pq_size 0
core_0_itlb_mshr_size 8
core_0_itlb_hit_latency 1
core_0_itlb_fill_latency 1
core_0_itlb_max_tag_check 2
core_0_itlb_max_fill 2
core_0_dtlb_set 16
core_0_dtlb_way 4
core_0_dtlb_rq_size 16
core_0_dtlb_wq_size 16
core_0_dtlb_pq_size 0
core_0_dtlb_mshr_size 8
core_0_dtlb_hit_latency 1
core_0_dtlb_fill_latency 1
core_0_dtlb_max_tag_check 2
core_0_dtlb_max_fill 2
core_0_stlb_set 128
core_0_stlb_way 12
core_0_stlb_rq_size 32
core_0_stlb_wq_size 32
core_0_stlb_pq_size 0
core_0_stlb_mshr_size 16
core_0_stlb_hit_latency 4
core_0_stlb_fill_latency 4
core_0_stlb_max_tag_check 1
core_0_stlb_max_fill 1
core_0_l1i_set 64
core_0_l1i_way 8
core_0_l1i_rq_size 64
core_0_l1i_wq_size 64
core_0_l1i_pq_size 32
core_0_l1i_mshr_size 8
core_0_l1i_hit_latency 2
core_0_l1i_fill_latency 2
core_0_l1i_max_tag_check 2
core_0_l1i_max_fill 2
core_0_l1d_set 64
core_0_l1d_way 12
core_0_l1d_rq_size 64
core_0_l1d_wq_size 64
core_0_l1d_pq_size 8
core_0_l1d_mshr_size 16
core_0_l1d_hit_latency 2
core_0_l1d_fill_latency 3
core_0_l1d_max_tag_check 2
core_0_l1d_max_fill 2
core_0_l2c_set 1024
core_0_l2c_way 8
core_0_l2c_rq_size 32
core_0_l2c_wq_size 32
core_0_l2c_pq_size 16
core_0_l2c_mshr_size 32
core_0_l2c_hit_latency 5
core_0_l2c_fill_latency 5
core_0_l2c_max_tag_check 1
core_0_l2c_max_fill 1
llc_set 2048
llc_way 16
llc_rq_size 32
llc_wq_size 32
llc_pq_size 32
llc_mshr_size 64
llc_hit_latency 10
llc_fill_latency 10
llc_max_tag_check 1
llc_max_fill 1
dram_channels 1
dram_ranks 1
dram_bankgroups 8
dram_banks 4
dram_rows 65536
dram_columns 1024
dram_channel_width 8
dram_rq_size 64
dram_wq_size 64
dram_size 17179869184
core_0_itlb_prefetcher no
core_0_dtlb_prefetcher no
core_0_stlb_prefetcher no
core_0_l1i_prefetcher next_line
core_0_l1d_prefetcher vberti
core_0_l2c_prefetcher ip_stride
llc_prefetcher no
llc_replacement drrip

Core_0_instructions 100000001
Core_0_cycles 142704751
Core_0_IPC 0.700748
Core_0_branch_prediction_accuracy 96.3049
Core_0_branch_MPKI 3.14571
Core_0_average_ROB_occupancy_at_mispredict 155.86

Core_0_ITLB_total_access 3889102
Core_0_ITLB_total_hit 3889102
Core_0_ITLB_total_miss 0
Core_0_ITLB_total_MPKI 0
Core_0_ITLB_total_miss_rate 0
Core_0_ITLB_demand_access 3889102
Core_0_ITLB_demand_hit 3889102
Core_0_ITLB_demand_miss 0
Core_0_ITLB_demand_MPKI 0
Core_0_ITLB_demand_miss_rate 0
Core_0_ITLB_load_access 3889102
Core_0_ITLB_load_hit 3889102
Core_0_ITLB_load_miss 0
Core_0_ITLB_load_MPKI 0
Core_0_ITLB_load_miss_rate 0
Core_0_ITLB_rfo_access 0
Core_0_ITLB_rfo_hit 0
Core_0_ITLB_rfo_miss 0
Core_0_ITLB_rfo_MPKI 0
Core_0_ITLB_rfo_miss_rate 0
Core_0_ITLB_prefetch_access 0
Core_0_ITLB_prefetch_hit 0
Core_0_ITLB_prefetch_miss 0
Core_0_ITLB_prefetch_MPKI 0
Core_0_ITLB_prefetch_miss_rate 0
Core_0_ITLB_writeback_access 0
Core_0_ITLB_writeback_hit 0
Core_0_ITLB_writeback_miss 0
Core_0_ITLB_writeback_MPKI 0
Core_0_ITLB_writeback_miss_rate 0
Core_0_ITLB_prefetch_requested 0
Core_0_ITLB_prefetch_issued 0
Core_0_ITLB_prefetch_useful 0
Core_0_ITLB_prefetch_useless 0
Core_0_ITLB_prefetch_late 0
Core_0_ITLB_prefetch_accuracy 0
Core_0_ITLB_prefetch_coverage 0
Core_0_ITLB_total_eviction 0

Core_0_DTLB_total_access 36526561
Core_0_DTLB_total_hit 34879415
Core_0_DTLB_total_miss 1647146
Core_0_DTLB_total_MPKI 16.4715
Core_0_DTLB_total_miss_rate 0.0450945
Core_0_DTLB_demand_access 36526561
Core_0_DTLB_demand_hit 34879415
Core_0_DTLB_demand_miss 1647146
Core_0_DTLB_demand_MPKI 16.4715
Core_0_DTLB_demand_miss_rate 0.0450945
Core_0_DTLB_load_access 36526561
Core_0_DTLB_load_hit 34879415
Core_0_DTLB_load_miss 1647146
Core_0_DTLB_load_MPKI 16.4715
Core_0_DTLB_load_miss_rate 0.0450945
Core_0_DTLB_rfo_access 0
Core_0_DTLB_rfo_hit 0
Core_0_DTLB_rfo_miss 0
Core_0_DTLB_rfo_MPKI 0
Core_0_DTLB_rfo_miss_rate 0
Core_0_DTLB_prefetch_access 0
Core_0_DTLB_prefetch_hit 0
Core_0_DTLB_prefetch_miss 0
Core_0_DTLB_prefetch_MPKI 0
Core_0_DTLB_prefetch_miss_rate 0
Core_0_DTLB_writeback_access 0
Core_0_DTLB_writeback_hit 0
Core_0_DTLB_writeback_miss 0
Core_0_DTLB_writeback_MPKI 0
Core_0_DTLB_writeback_miss_rate 0
Core_0_DTLB_prefetch_requested 0
Core_0_DTLB_prefetch_issued 0
Core_0_DTLB_prefetch_useful 0
Core_0_DTLB_prefetch_useless 0
Core_0_DTLB_prefetch_late 0
Core_0_DTLB_prefetch_accuracy 0
Core_0_DTLB_prefetch_coverage 0
Core_0_DTLB_total_eviction 1570395

Core_0_STLB_total_access 1570395
Core_0_STLB_total_hit 1563936
Core_0_STLB_total_miss 6459
Core_0_STLB_total_MPKI 0.06459
Core_0_STLB_total_miss_rate 0.00411298
Core_0_STLB_demand_access 1570395
Core_0_STLB_demand_hit 1563936
Core_0_STLB_demand_miss 6459
Core_0_STLB_demand_MPKI 0.06459
Core_0_STLB_demand_miss_rate 0.00411298
Core_0_STLB_load_access 1570395
Core_0_STLB_load_hit 1563936
Core_0_STLB_load_miss 6459
Core_0_STLB_load_MPKI 0.06459
Core_0_STLB_load_miss_rate 0.00411298
Core_0_STLB_rfo_access 0
Core_0_STLB_rfo_hit 0
Core_0_STLB_rfo_miss 0
Core_0_STLB_rfo_MPKI 0
Core_0_STLB_rfo_miss_rate 0
Core_0_STLB_prefetch_access 0
Core_0_STLB_prefetch_hit 0
Core_0_STLB_prefetch_miss 0
Core_0_STLB_prefetch_MPKI 0
Core_0_STLB_prefetch_miss_rate 0
Core_0_STLB_writeback_access 0
Core_0_STLB_writeback_hit 0
Core_0_STLB_writeback_miss 0
Core_0_STLB_writeback_MPKI 0
Core_0_STLB_writeback_miss_rate 0
Core_0_STLB_prefetch_requested 0
Core_0_STLB_prefetch_issued 0
Core_0_STLB_prefetch_useful 0
Core_0_STLB_prefetch_useless 0
Core_0_STLB_prefetch_late 0
Core_0_STLB_prefetch_accuracy 0
Core_0_STLB_prefetch_coverage 0
Core_0_STLB_total_eviction 723828

Core_0_L1I_total_access 4822714
Core_0_L1I_total_hit 4822714
Core_0_L1I_total_miss 0
Core_0_L1I_total_MPKI 0
Core_0_L1I_total_miss_rate 0
Core_0_L1I_demand_access 4822714
Core_0_L1I_demand_hit 4822714
Core_0_L1I_demand_miss 0
Core_0_L1I_demand_MPKI 0
Core_0_L1I_demand_miss_rate 0
Core_0_L1I_load_access 4822714
Core_0_L1I_load_hit 4822714
Core_0_L1I_load_miss 0
Core_0_L1I_load_MPKI 0
Core_0_L1I_load_miss_rate 0
Core_0_L1I_rfo_access 0
Core_0_L1I_rfo_hit 0
Core_0_L1I_rfo_miss 0
Core_0_L1I_rfo_MPKI 0
Core_0_L1I_rfo_miss_rate 0
Core_0_L1I_prefetch_access 0
Core_0_L1I_prefetch_hit 0
Core_0_L1I_prefetch_miss 0
Core_0_L1I_prefetch_MPKI 0
Core_0_L1I_prefetch_miss_rate 0
Core_0_L1I_writeback_access 0
Core_0_L1I_writeback_hit 0
Core_0_L1I_writeback_miss 0
Core_0_L1I_writeback_MPKI 0
Core_0_L1I_writeback_miss_rate 0
Core_0_L1I_prefetch_requested 0
Core_0_L1I_prefetch_issued 0
Core_0_L1I_prefetch_useful 0
Core_0_L1I_prefetch_useless 0
Core_0_L1I_prefetch_late 0
Core_0_L1I_prefetch_accuracy 0
Core_0_L1I_prefetch_coverage 0
Core_0_L1I_total_eviction 0

Core_0_L1D_total_access 39725314
Core_0_L1D_total_hit 36636850
Core_0_L1D_total_miss 3088464
Core_0_L1D_total_MPKI 30.8846
Core_0_L1D_total_miss_rate 0.0777455
Core_0_L1D_demand_access 19501018
Core_0_L1D_demand_hit 17336874
Core_0_L1D_demand_miss 2164144
Core_0_L1D_demand_MPKI 21.6414
Core_0_L1D_demand_miss_rate 0.110976
Core_0_L1D_load_access 19501018
Core_0_L1D_load_hit 17336874
Core_0_L1D_load_miss 2164144
Core_0_L1D_load_MPKI 21.6414
Core_0_L1D_load_miss_rate 0.110976
Core_0_L1D_rfo_access 0
Core_0_L1D_rfo_hit 0
Core_0_L1D_rfo_miss 0
Core_0_L1D_rfo_MPKI 0
Core_0_L1D_rfo_miss_rate 0
Core_0_L1D_prefetch_access 9313866
Core_0_L1D_prefetch_hit 8396826
Core_0_L1D_prefetch_miss 917040
Core_0_L1D_prefetch_MPKI 9.1704
Core_0_L1D_prefetch_miss_rate 0.0984597
Core_0_L1D_writeback_access 10910430
Core_0_L1D_writeback_hit 10903150
Core_0_L1D_writeback_miss 7280
Core_0_L1D_writeback_MPKI 0.0728
Core_0_L1D_writeback_miss_rate 0.000667251
Core_0_L1D_prefetch_requested 66242991
Core_0_L1D_prefetch_issued 9313866
Core_0_L1D_prefetch_useful 394299
Core_0_L1D_prefetch_useless 5715
Core_0_L1D_prefetch_late 826
Core_0_L1D_prefetch_accuracy 0.0423346
Core_0_L1D_prefetch_coverage 0.154117
Core_0_L1D_total_eviction 2313993

Core_0_L2C_total_access 5314778
Core_0_L2C_total_hit 2996371
Core_0_L2C_total_miss 2318407
Core_0_L2C_total_MPKI 23.1841
Core_0_L2C_total_miss_rate 0.436219
Core_0_L2C_demand_access 1909191
Core_0_L2C_demand_hit 230352
Core_0_L2C_demand_miss 1678839
Core_0_L2C_demand_MPKI 16.7884
Core_0_L2C_demand_miss_rate 0.879346
Core_0_L2C_load_access 1906137
Core_0_L2C_load_hit 227298
Core_0_L2C_load_miss 1678839
Core_0_L2C_load_MPKI 16.7884
Core_0_L2C_load_miss_rate 0.880755
Core_0_L2C_rfo_access 3054
Core_0_L2C_rfo_hit 3054
Core_0_L2C_rfo_miss 0
Core_0_L2C_rfo_MPKI 0
Core_0_L2C_rfo_miss_rate 0
Core_0_L2C_prefetch_access 1496000
Core_0_L2C_prefetch_hit 856446
Core_0_L2C_prefetch_miss 639554
Core_0_L2C_prefetch_MPKI 6.39554
Core_0_L2C_prefetch_miss_rate 0.427509
Core_0_L2C_writeback_access 1909587
Core_0_L2C_writeback_hit 1909573
Core_0_L2C_writeback_miss 14
Core_0_L2C_writeback_MPKI 0.00014
Core_0_L2C_writeback_miss_rate 7.33143e-06
Core_0_L2C_prefetch_requested 582685
Core_0_L2C_prefetch_issued 582680
Core_0_L2C_prefetch_useful 183131
Core_0_L2C_prefetch_useless 74529
Core_0_L2C_prefetch_late 7637
Core_0_L2C_prefetch_accuracy 0.314291
Core_0_L2C_prefetch_coverage 0.0983534
Core_0_L2C_total_eviction 2144112

Core_0_LLC_total_access 3840909
Core_0_LLC_total_hit 889652
Core_0_LLC_total_miss 2951257
Core_0_LLC_total_MPKI 29.5126
Core_0_LLC_total_miss_rate 0.768375
Core_0_LLC_demand_access 1671047
Core_0_LLC_demand_hit 325983
Core_0_LLC_demand_miss 1345064
Core_0_LLC_demand_MPKI 13.4506
Core_0_LLC_demand_miss_rate 0.804923
Core_0_LLC_load_access 1671047
Core_0_LLC_load_hit 325983
Core_0_LLC_load_miss 1345064
Core_0_LLC_load_MPKI 13.4506
Core_0_LLC_load_miss_rate 0.804923
Core_0_LLC_rfo_access 0
Core_0_LLC_rfo_hit 0
Core_0_LLC_rfo_miss 0
Core_0_LLC_rfo_MPKI 0
Core_0_LLC_rfo_miss_rate 0
Core_0_LLC_prefetch_access 477115
Core_0_LLC_prefetch_hit 15614
Core_0_LLC_prefetch_miss 461501
Core_0_LLC_prefetch_MPKI 4.61501
Core_0_LLC_prefetch_miss_rate 0.967274
Core_0_LLC_writeback_access 1692747
Core_0_LLC_writeback_hit 548055
Core_0_LLC_writeback_miss 1144692
Core_0_LLC_writeback_MPKI 11.4469
Core_0_LLC_writeback_miss_rate 0.676233
Core_0_LLC_prefetch_requested 0
Core_0_LLC_prefetch_issued 0
Core_0_LLC_prefetch_useful 0
Core_0_LLC_prefetch_useless 0
Core_0_LLC_prefetch_late 0
Core_0_LLC_prefetch_accuracy 0
Core_0_LLC_prefetch_coverage 0
Core_0_LLC_total_eviction 2950480

[DRAM Statistics]
Channel_0_RQ_row_buffer_hit 15208
Channel_0_RQ_row_buffer_miss 1790170
Channel_0_WQ_row_buffer_hit 326394
Channel_0_WQ_row_buffer_miss 1036180
Channel_0_WQ_full 0
Channel_0_dbus_congested 10099960
DRAM_total_RQ_row_buffer_hit 15208
DRAM_total_RQ_row_buffer_miss 1790170
DRAM_total_WQ_row_buffer_hit 326394
DRAM_total_WQ_row_buffer_miss 1036180
DRAM_total_WQ_full 0
DRAM_total_dbus_congested 10099960
DRAM_avg_congested_cycle 6.59304

======STLB miss causes ========
Core_0_STLB_miss_cause_breakdown
Core_0_STLB_cause_Demand_Data_miss 0
Core_0_STLB_cause_Demand_Data_miss_rate 0
Core_0_STLB_cause_Demand_Instruction_miss 0
Core_0_STLB_cause_Demand_Instruction_miss_rate 0
Core_0_STLB_cause_L1D_Prefetch_miss 6459
Core_0_STLB_cause_L1D_Prefetch_miss_rate 0.00411298
Core_0_STLB_cause_L1I_Prefetch_miss 0
Core_0_STLB_cause_L1I_Prefetch_miss_rate 0
Core_0_STLB_cause_Other_miss 0
Core_0_STLB_cause_Other_miss_rate 0
Core_0_STLB_Demand_miss 0
Core_0_STLB_Demand_miss_rate 0
Core_0_STLB_L1D_Prefetch_miss 6459
Core_0_STLB_L1D_Prefetch_miss_rate 0.00411298
Core_0_STLB_Other_miss 0
Core_0_STLB_Other_miss_rate 0
BERTI TO_L1: 67982386 TO_L2: 15719590 TO_L2_BC_MSHR: 85220
BERTI AVG_LAT: 141.873 NUM_TRACK_LATENCY: 3523609 NUM_CANT_TRACK_LATENCY: 4
BERTI CROSS_PAGE 9829671 NO_CROSS_PAGE: 73872305
BERTI FOUND_BERTI: 24663055 NO_FOUND_BERTI: 15457053
BERTI AVERAGE_ISSUED: 2.4416
