[VMEM] WARNING: physical memory size is smaller than virtual memory size.

*** ChampSim Multicore Out-of-Order Simulator ***
Warmup Instructions: 50000000
Simulation Instructions: 100000000
Number of CPUs: 1
Page size: 4096
STLB ideal mode: demand
STLB ideal fill: on
Core 0: /data0/tzh/champsim_traces/QMM/srv_60_new.xz
VBerti Prefetcher
BERTI HASH ENTANGLING
BERTI IP MASK ffff
Off-chip DRAM Size: 16 GiB Channels: 1 Width: 64-bit Data Rate: 3205 MT/s
[BTB] WARNING: target of return is a lower address than the corresponding call. This is usually a problem with your trace.
[BTB] WARNING: target of return is a lower address than the corresponding call. This is usually a problem with your trace.
[BTB] WARNING: target of return is a lower address than the corresponding call. This is usually a problem with your trace.
[BTB] WARNING: target of return is a lower address than the corresponding call. This is usually a problem with your trace.
[BTB] WARNING: target of return is a lower address than the corresponding call. This is usually a problem with your trace.
[BTB] WARNING: target of return is a lower address than the corresponding call. This is usually a problem with your trace.
[BTB] WARNING: target of return is a lower address than the corresponding call. This is usually a problem with your trace.
[BTB] WARNING: target of return is a lower address than the corresponding call. This is usually a problem with your trace.
[BTB] WARNING: target of return is a lower address than the corresponding call. This is usually a problem with your trace.
[BTB] WARNING: target of return is a lower address than the corresponding call. This is usually a problem with your trace.
*** Reached end of trace: (0, "/data0/tzh/champsim_traces/QMM/srv_60_new.xz")
Warmup halting CPU 0 at instruction 50000001 cycle 10228169 for remainder of phase
Warmup finished CPU 0 instructions: 50000001 cycles: 10228169 cumulative IPC: 4.888 (Simulation time: 00 hr 02 min 40 sec)
Warmup complete CPU 0 instructions: 50000001 cycles: 10228169 cumulative IPC: 4.888 (Simulation time: 00 hr 02 min 40 sec)
*** Reached end of trace: (0, "/data0/tzh/champsim_traces/QMM/srv_60_new.xz")
*** Reached end of trace: (0, "/data0/tzh/champsim_traces/QMM/srv_60_new.xz")
*** Reached end of trace: (0, "/data0/tzh/champsim_traces/QMM/srv_60_new.xz")
Simulation finished CPU 0 instructions: 100000003 cycles: 59366488 cumulative IPC: 1.684 (Simulation time: 00 hr 11 min 47 sec)
Simulation complete CPU 0 instructions: 100000003 cycles: 59366488 cumulative IPC: 1.684 (Simulation time: 00 hr 11 min 47 sec)

ChampSim completed all CPUs

=== Simulation ===
CPU 0 runs /data0/tzh/champsim_traces/QMM/srv_60_new.xz

Region of Interest Statistics

CPU 0 cumulative IPC: 1.684 instructions: 100000003 cycles: 59366488
CPU 0 Branch Prediction Accuracy: 97.19% MPKI: 5.043 Average ROB Occupancy at Mispredict: 88.86
Branch type MPKI
BRANCH_DIRECT_JUMP: 0.4409
BRANCH_INDIRECT: 0.5526
BRANCH_CONDITIONAL: 2.432
BRANCH_DIRECT_CALL: 0.7451
BRANCH_INDIRECT_CALL: 0.1981
BRANCH_RETURN: 0.6741

cpu0->cpu0_STLB TOTAL        ACCESS:    1669104 HIT:    1669014 MISS:         90 MSHR_MERGE:          0
cpu0->cpu0_STLB LOAD         ACCESS:    1669104 HIT:    1669014 MISS:         90 MSHR_MERGE:          0
cpu0->cpu0_STLB RFO          ACCESS:          0 HIT:          0 MISS:          0 MSHR_MERGE:          0
cpu0->cpu0_STLB PREFETCH     ACCESS:          0 HIT:          0 MISS:          0 MSHR_MERGE:          0
cpu0->cpu0_STLB WRITE        ACCESS:          0 HIT:          0 MISS:          0 MSHR_MERGE:          0
cpu0->cpu0_STLB TRANSLATION  ACCESS:          0 HIT:          0 MISS:          0 MSHR_MERGE:          0
cpu0->cpu0_STLB PREFETCH REQUESTED:          0 ISSUED:          0 USEFUL:          0 USELESS:          0 LATE:          0
cpu0->cpu0_STLB AVERAGE MISS LATENCY: 66.44 cycles
cpu0->cpu0_L2C TOTAL        ACCESS:    4545795 HIT:    2553519 MISS:    1992276 MSHR_MERGE:       3703
cpu0->cpu0_L2C LOAD         ACCESS:    3797067 HIT:    1932644 MISS:    1864423 MSHR_MERGE:        834
cpu0->cpu0_L2C RFO          ACCESS:     171337 HIT:      71936 MISS:      99401 MSHR_MERGE:          6
cpu0->cpu0_L2C PREFETCH     ACCESS:      53284 HIT:      29004 MISS:      24280 MSHR_MERGE:       2863
cpu0->cpu0_L2C WRITE        ACCESS:     524019 HIT:     519932 MISS:       4087 MSHR_MERGE:          0
cpu0->cpu0_L2C TRANSLATION  ACCESS:         88 HIT:          3 MISS:         85 MSHR_MERGE:          0
cpu0->cpu0_L2C PREFETCH REQUESTED:      69990 ISSUED:      46420 USEFUL:       8846 USELESS:       9009 LATE:        435
cpu0->cpu0_L2C AVERAGE MISS LATENCY: 25.87 cycles
cpu0->cpu0_L1I TOTAL        ACCESS:   15174517 HIT:   11009010 MISS:    4165507 MSHR_MERGE:    1534423
cpu0->cpu0_L1I LOAD         ACCESS:   15174517 HIT:   11009010 MISS:    4165507 MSHR_MERGE:    1534423
cpu0->cpu0_L1I RFO          ACCESS:          0 HIT:          0 MISS:          0 MSHR_MERGE:          0
cpu0->cpu0_L1I PREFETCH     ACCESS:          0 HIT:          0 MISS:          0 MSHR_MERGE:          0
cpu0->cpu0_L1I WRITE        ACCESS:          0 HIT:          0 MISS:          0 MSHR_MERGE:          0
cpu0->cpu0_L1I TRANSLATION  ACCESS:          0 HIT:          0 MISS:          0 MSHR_MERGE:          0
cpu0->cpu0_L1I PREFETCH REQUESTED:          0 ISSUED:          0 USEFUL:          0 USELESS:          0 LATE:          0
cpu0->cpu0_L1I AVERAGE MISS LATENCY: 14.96 cycles
cpu0->cpu0_L1D TOTAL        ACCESS:   23425992 HIT:   21399771 MISS:    2026221 MSHR_MERGE:     680721
cpu0->cpu0_L1D LOAD         ACCESS:   13510148 HIT:   11952669 MISS:    1557479 MSHR_MERGE:     391481
cpu0->cpu0_L1D RFO          ACCESS:          0 HIT:          0 MISS:          0 MSHR_MERGE:          0
cpu0->cpu0_L1D PREFETCH     ACCESS:      28745 HIT:      19072 MISS:       9673 MSHR_MERGE:       1599
cpu0->cpu0_L1D WRITE        ACCESS:    9886915 HIT:    9427934 MISS:     458981 MSHR_MERGE:     287641
cpu0->cpu0_L1D TRANSLATION  ACCESS:        184 HIT:         96 MISS:         88 MSHR_MERGE:          0
cpu0->cpu0_L1D PREFETCH REQUESTED:     141772 ISSUED:      28745 USEFUL:       2483 USELESS:        958 LATE:        725
cpu0->cpu0_L1D AVERAGE MISS LATENCY: 32.57 cycles
cpu0->cpu0_ITLB TOTAL        ACCESS:   12848870 HIT:   11900502 MISS:     948368 MSHR_MERGE:     556375
cpu0->cpu0_ITLB LOAD         ACCESS:   12848870 HIT:   11900502 MISS:     948368 MSHR_MERGE:     556375
cpu0->cpu0_ITLB RFO          ACCESS:          0 HIT:          0 MISS:          0 MSHR_MERGE:          0
cpu0->cpu0_ITLB PREFETCH     ACCESS:          0 HIT:          0 MISS:          0 MSHR_MERGE:          0
cpu0->cpu0_ITLB WRITE        ACCESS:          0 HIT:          0 MISS:          0 MSHR_MERGE:          0
cpu0->cpu0_ITLB TRANSLATION  ACCESS:          0 HIT:          0 MISS:          0 MSHR_MERGE:          0
cpu0->cpu0_ITLB PREFETCH REQUESTED:          0 ISSUED:          0 USEFUL:          0 USELESS:          0 LATE:          0
cpu0->cpu0_ITLB AVERAGE MISS LATENCY: 5.024 cycles
cpu0->cpu0_DTLB TOTAL        ACCESS:   22087618 HIT:   20392905 MISS:    1694713 MSHR_MERGE:     417601
cpu0->cpu0_DTLB LOAD         ACCESS:   22087618 HIT:   20392905 MISS:    1694713 MSHR_MERGE:     417601
cpu0->cpu0_DTLB RFO          ACCESS:          0 HIT:          0 MISS:          0 MSHR_MERGE:          0
cpu0->cpu0_DTLB PREFETCH     ACCESS:          0 HIT:          0 MISS:          0 MSHR_MERGE:          0
cpu0->cpu0_DTLB WRITE        ACCESS:          0 HIT:          0 MISS:          0 MSHR_MERGE:          0
cpu0->cpu0_DTLB TRANSLATION  ACCESS:          0 HIT:          0 MISS:          0 MSHR_MERGE:          0
cpu0->cpu0_DTLB PREFETCH REQUESTED:          0 ISSUED:          0 USEFUL:          0 USELESS:          0 LATE:          0
cpu0->cpu0_DTLB AVERAGE MISS LATENCY: 5.01 cycles
cpu0->LLC TOTAL        ACCESS:    2298193 HIT:    2170824 MISS:     127369 MSHR_MERGE:          0
cpu0->LLC LOAD         ACCESS:    1863586 HIT:    1764567 MISS:      99019 MSHR_MERGE:          0
cpu0->LLC RFO          ACCESS:      99395 HIT:      80971 MISS:      18424 MSHR_MERGE:          0
cpu0->LLC PREFETCH     ACCESS:      21417 HIT:      15364 MISS:       6053 MSHR_MERGE:          0
cpu0->LLC WRITE        ACCESS:     313710 HIT:     309845 MISS:       3865 MSHR_MERGE:          0
cpu0->LLC TRANSLATION  ACCESS:         85 HIT:         77 MISS:          8 MSHR_MERGE:          0
cpu0->LLC PREFETCH REQUESTED:          0 ISSUED:          0 USEFUL:          0 USELESS:          0 LATE:          0
cpu0->LLC AVERAGE MISS LATENCY: 175.8 cycles

DRAM Statistics

Channel 0 RQ ROW_BUFFER_HIT:       3275
  ROW_BUFFER_MISS:     120228
  AVG DBUS CONGESTED CYCLE: 15.69
Channel 0 WQ ROW_BUFFER_HIT:      19291
  ROW_BUFFER_MISS:      81097
  FULL:          0
Channel 0 REFRESHES ISSUED:       4947

[ROI Statistics]
[System Configuration]
num_cpus 1
cpu_freq 4000
fetch_width 6
decode_width 6
dispatch_width 6
execute_width 6
lq_width 2
sq_width 2
retire_width 6
scheduler_size 128
branch_mispredict_penalty 15
rob_size 352
lq_size 128
sq_size 72
ifetch_buffer_size 64
decode_buffer_size 32
dispatch_buffer_size 32
register_file_size 288
decode_latency 1
dispatch_latency 1
schedule_latency 1
execute_latency 1
page_size 4096
block_size 64
core_0_itlb_set 16
core_0_itlb_way 4
core_0_itlb_rq_size 16
core_0_itlb_wq_size 16
core_0_itlb_pq_size 0
core_0_itlb_mshr_size 8
core_0_itlb_hit_latency 1
core_0_itlb_fill_latency 1
core_0_itlb_max_tag_check 2
core_0_itlb_max_fill 2
core_0_dtlb_set 16
core_0_dtlb_way 4
core_0_dtlb_rq_size 16
core_0_dtlb_wq_size 16
core_0_dtlb_pq_size 0
core_0_dtlb_mshr_size 8
core_0_dtlb_hit_latency 1
core_0_dtlb_fill_latency 1
core_0_dtlb_max_tag_check 2
core_0_dtlb_max_fill 2
core_0_stlb_set 128
core_0_stlb_way 12
core_0_stlb_rq_size 32
core_0_stlb_wq_size 32
core_0_stlb_pq_size 0
core_0_stlb_mshr_size 16
core_0_stlb_hit_latency 4
core_0_stlb_fill_latency 4
core_0_stlb_max_tag_check 1
core_0_stlb_max_fill 1
core_0_l1i_set 64
core_0_l1i_way 8
core_0_l1i_rq_size 64
core_0_l1i_wq_size 64
core_0_l1i_pq_size 32
core_0_l1i_mshr_size 8
core_0_l1i_hit_latency 2
core_0_l1i_fill_latency 2
core_0_l1i_max_tag_check 2
core_0_l1i_max_fill 2
core_0_l1d_set 64
core_0_l1d_way 12
core_0_l1d_rq_size 64
core_0_l1d_wq_size 64
core_0_l1d_pq_size 8
core_0_l1d_mshr_size 16
core_0_l1d_hit_latency 2
core_0_l1d_fill_latency 3
core_0_l1d_max_tag_check 2
core_0_l1d_max_fill 2
core_0_l2c_set 1024
core_0_l2c_way 8
core_0_l2c_rq_size 32
core_0_l2c_wq_size 32
core_0_l2c_pq_size 16
core_0_l2c_mshr_size 32
core_0_l2c_hit_latency 5
core_0_l2c_fill_latency 5
core_0_l2c_max_tag_check 1
core_0_l2c_max_fill 1
llc_set 2048
llc_way 16
llc_rq_size 32
llc_wq_size 32
llc_pq_size 32
llc_mshr_size 64
llc_hit_latency 10
llc_fill_latency 10
llc_max_tag_check 1
llc_max_fill 1
dram_channels 1
dram_ranks 1
dram_bankgroups 8
dram_banks 4
dram_rows 65536
dram_columns 1024
dram_channel_width 8
dram_rq_size 64
dram_wq_size 64
dram_size 17179869184
core_0_itlb_prefetcher no
core_0_dtlb_prefetcher no
core_0_stlb_prefetcher no
core_0_l1i_prefetcher next_line
core_0_l1d_prefetcher vberti
core_0_l2c_prefetcher ip_stride
llc_prefetcher no
llc_replacement drrip

Core_0_instructions 100000003
Core_0_cycles 59366488
Core_0_IPC 1.68445
Core_0_branch_prediction_accuracy 97.1939
Core_0_branch_MPKI 5.04251
Core_0_average_ROB_occupancy_at_mispredict 88.8627

Core_0_ITLB_total_access 12848870
Core_0_ITLB_total_hit 11900502
Core_0_ITLB_total_miss 948368
Core_0_ITLB_total_MPKI 9.48368
Core_0_ITLB_total_miss_rate 0.0738094
Core_0_ITLB_demand_access 12848870
Core_0_ITLB_demand_hit 11900502
Core_0_ITLB_demand_miss 948368
Core_0_ITLB_demand_MPKI 9.48368
Core_0_ITLB_demand_miss_rate 0.0738094
Core_0_ITLB_load_access 12848870
Core_0_ITLB_load_hit 11900502
Core_0_ITLB_load_miss 948368
Core_0_ITLB_load_MPKI 9.48368
Core_0_ITLB_load_miss_rate 0.0738094
Core_0_ITLB_rfo_access 0
Core_0_ITLB_rfo_hit 0
Core_0_ITLB_rfo_miss 0
Core_0_ITLB_rfo_MPKI 0
Core_0_ITLB_rfo_miss_rate 0
Core_0_ITLB_prefetch_access 0
Core_0_ITLB_prefetch_hit 0
Core_0_ITLB_prefetch_miss 0
Core_0_ITLB_prefetch_MPKI 0
Core_0_ITLB_prefetch_miss_rate 0
Core_0_ITLB_writeback_access 0
Core_0_ITLB_writeback_hit 0
Core_0_ITLB_writeback_miss 0
Core_0_ITLB_writeback_MPKI 0
Core_0_ITLB_writeback_miss_rate 0
Core_0_ITLB_prefetch_requested 0
Core_0_ITLB_prefetch_issued 0
Core_0_ITLB_prefetch_useful 0
Core_0_ITLB_prefetch_useless 0
Core_0_ITLB_prefetch_late 0
Core_0_ITLB_prefetch_accuracy 0
Core_0_ITLB_prefetch_coverage 0
Core_0_ITLB_total_eviction 391993

Core_0_DTLB_total_access 22087618
Core_0_DTLB_total_hit 20392905
Core_0_DTLB_total_miss 1694713
Core_0_DTLB_total_MPKI 16.9471
Core_0_DTLB_total_miss_rate 0.0767268
Core_0_DTLB_demand_access 22087618
Core_0_DTLB_demand_hit 20392905
Core_0_DTLB_demand_miss 1694713
Core_0_DTLB_demand_MPKI 16.9471
Core_0_DTLB_demand_miss_rate 0.0767268
Core_0_DTLB_load_access 22087618
Core_0_DTLB_load_hit 20392905
Core_0_DTLB_load_miss 1694713
Core_0_DTLB_load_MPKI 16.9471
Core_0_DTLB_load_miss_rate 0.0767268
Core_0_DTLB_rfo_access 0
Core_0_DTLB_rfo_hit 0
Core_0_DTLB_rfo_miss 0
Core_0_DTLB_rfo_MPKI 0
Core_0_DTLB_rfo_miss_rate 0
Core_0_DTLB_prefetch_access 0
Core_0_DTLB_prefetch_hit 0
Core_0_DTLB_prefetch_miss 0
Core_0_DTLB_prefetch_MPKI 0
Core_0_DTLB_prefetch_miss_rate 0
Core_0_DTLB_writeback_access 0
Core_0_DTLB_writeback_hit 0
Core_0_DTLB_writeback_miss 0
Core_0_DTLB_writeback_MPKI 0
Core_0_DTLB_writeback_miss_rate 0
Core_0_DTLB_prefetch_requested 0
Core_0_DTLB_prefetch_issued 0
Core_0_DTLB_prefetch_useful 0
Core_0_DTLB_prefetch_useless 0
Core_0_DTLB_prefetch_late 0
Core_0_DTLB_prefetch_accuracy 0
Core_0_DTLB_prefetch_coverage 0
Core_0_DTLB_total_eviction 1277111

Core_0_STLB_total_access 1669104
Core_0_STLB_total_hit 1669014
Core_0_STLB_total_miss 90
Core_0_STLB_total_MPKI 0.0009
Core_0_STLB_total_miss_rate 5.39211e-05
Core_0_STLB_demand_access 1669104
Core_0_STLB_demand_hit 1669014
Core_0_STLB_demand_miss 90
Core_0_STLB_demand_MPKI 0.0009
Core_0_STLB_demand_miss_rate 5.39211e-05
Core_0_STLB_load_access 1669104
Core_0_STLB_load_hit 1669014
Core_0_STLB_load_miss 90
Core_0_STLB_load_MPKI 0.0009
Core_0_STLB_load_miss_rate 5.39211e-05
Core_0_STLB_rfo_access 0
Core_0_STLB_rfo_hit 0
Core_0_STLB_rfo_miss 0
Core_0_STLB_rfo_MPKI 0
Core_0_STLB_rfo_miss_rate 0
Core_0_STLB_prefetch_access 0
Core_0_STLB_prefetch_hit 0
Core_0_STLB_prefetch_miss 0
Core_0_STLB_prefetch_MPKI 0
Core_0_STLB_prefetch_miss_rate 0
Core_0_STLB_writeback_access 0
Core_0_STLB_writeback_hit 0
Core_0_STLB_writeback_miss 0
Core_0_STLB_writeback_MPKI 0
Core_0_STLB_writeback_miss_rate 0
Core_0_STLB_prefetch_requested 0
Core_0_STLB_prefetch_issued 0
Core_0_STLB_prefetch_useful 0
Core_0_STLB_prefetch_useless 0
Core_0_STLB_prefetch_late 0
Core_0_STLB_prefetch_accuracy 0
Core_0_STLB_prefetch_coverage 0
Core_0_STLB_total_eviction 253410

Core_0_L1I_total_access 15174517
Core_0_L1I_total_hit 11009010
Core_0_L1I_total_miss 4165507
Core_0_L1I_total_MPKI 41.6551
Core_0_L1I_total_miss_rate 0.274507
Core_0_L1I_demand_access 15174517
Core_0_L1I_demand_hit 11009010
Core_0_L1I_demand_miss 4165507
Core_0_L1I_demand_MPKI 41.6551
Core_0_L1I_demand_miss_rate 0.274507
Core_0_L1I_load_access 15174517
Core_0_L1I_load_hit 11009010
Core_0_L1I_load_miss 4165507
Core_0_L1I_load_MPKI 41.6551
Core_0_L1I_load_miss_rate 0.274507
Core_0_L1I_rfo_access 0
Core_0_L1I_rfo_hit 0
Core_0_L1I_rfo_miss 0
Core_0_L1I_rfo_MPKI 0
Core_0_L1I_rfo_miss_rate 0
Core_0_L1I_prefetch_access 0
Core_0_L1I_prefetch_hit 0
Core_0_L1I_prefetch_miss 0
Core_0_L1I_prefetch_MPKI 0
Core_0_L1I_prefetch_miss_rate 0
Core_0_L1I_writeback_access 0
Core_0_L1I_writeback_hit 0
Core_0_L1I_writeback_miss 0
Core_0_L1I_writeback_MPKI 0
Core_0_L1I_writeback_miss_rate 0
Core_0_L1I_prefetch_requested 0
Core_0_L1I_prefetch_issued 0
Core_0_L1I_prefetch_useful 0
Core_0_L1I_prefetch_useless 0
Core_0_L1I_prefetch_late 0
Core_0_L1I_prefetch_accuracy 0
Core_0_L1I_prefetch_coverage 0
Core_0_L1I_total_eviction 2631084

Core_0_L1D_total_access 23425808
Core_0_L1D_total_hit 21399675
Core_0_L1D_total_miss 2026133
Core_0_L1D_total_MPKI 20.2613
Core_0_L1D_total_miss_rate 0.0864915
Core_0_L1D_demand_access 13510148
Core_0_L1D_demand_hit 11952669
Core_0_L1D_demand_miss 1557479
Core_0_L1D_demand_MPKI 15.5748
Core_0_L1D_demand_miss_rate 0.115282
Core_0_L1D_load_access 13510148
Core_0_L1D_load_hit 11952669
Core_0_L1D_load_miss 1557479
Core_0_L1D_load_MPKI 15.5748
Core_0_L1D_load_miss_rate 0.115282
Core_0_L1D_rfo_access 0
Core_0_L1D_rfo_hit 0
Core_0_L1D_rfo_miss 0
Core_0_L1D_rfo_MPKI 0
Core_0_L1D_rfo_miss_rate 0
Core_0_L1D_prefetch_access 28745
Core_0_L1D_prefetch_hit 19072
Core_0_L1D_prefetch_miss 9673
Core_0_L1D_prefetch_MPKI 0.09673
Core_0_L1D_prefetch_miss_rate 0.336511
Core_0_L1D_writeback_access 9886915
Core_0_L1D_writeback_hit 9427934
Core_0_L1D_writeback_miss 458981
Core_0_L1D_writeback_MPKI 4.58981
Core_0_L1D_writeback_miss_rate 0.0464231
Core_0_L1D_prefetch_requested 141772
Core_0_L1D_prefetch_issued 28745
Core_0_L1D_prefetch_useful 2483
Core_0_L1D_prefetch_useless 958
Core_0_L1D_prefetch_late 725
Core_0_L1D_prefetch_accuracy 0.0863802
Core_0_L1D_prefetch_coverage 0.00159171
Core_0_L1D_total_eviction 1340867

Core_0_L2C_total_access 4545707
Core_0_L2C_total_hit 2553516
Core_0_L2C_total_miss 1992191
Core_0_L2C_total_MPKI 19.9219
Core_0_L2C_total_miss_rate 0.438258
Core_0_L2C_demand_access 3968404
Core_0_L2C_demand_hit 2004580
Core_0_L2C_demand_miss 1963824
Core_0_L2C_demand_MPKI 19.6382
Core_0_L2C_demand_miss_rate 0.494865
Core_0_L2C_load_access 3797067
Core_0_L2C_load_hit 1932644
Core_0_L2C_load_miss 1864423
Core_0_L2C_load_MPKI 18.6442
Core_0_L2C_load_miss_rate 0.491017
Core_0_L2C_rfo_access 171337
Core_0_L2C_rfo_hit 71936
Core_0_L2C_rfo_miss 99401
Core_0_L2C_rfo_MPKI 0.99401
Core_0_L2C_rfo_miss_rate 0.580149
Core_0_L2C_prefetch_access 53284
Core_0_L2C_prefetch_hit 29004
Core_0_L2C_prefetch_miss 24280
Core_0_L2C_prefetch_MPKI 0.2428
Core_0_L2C_prefetch_miss_rate 0.455671
Core_0_L2C_writeback_access 524019
Core_0_L2C_writeback_hit 519932
Core_0_L2C_writeback_miss 4087
Core_0_L2C_writeback_MPKI 0.04087
Core_0_L2C_writeback_miss_rate 0.00779934
Core_0_L2C_prefetch_requested 69990
Core_0_L2C_prefetch_issued 46420
Core_0_L2C_prefetch_useful 8846
Core_0_L2C_prefetch_useless 9009
Core_0_L2C_prefetch_late 435
Core_0_L2C_prefetch_accuracy 0.190564
Core_0_L2C_prefetch_coverage 0.00448428
Core_0_L2C_total_eviction 1988573

Core_0_LLC_total_access 2298108
Core_0_LLC_total_hit 2170747
Core_0_LLC_total_miss 127361
Core_0_LLC_total_MPKI 1.27361
Core_0_LLC_total_miss_rate 0.0554199
Core_0_LLC_demand_access 1962981
Core_0_LLC_demand_hit 1845538
Core_0_LLC_demand_miss 117443
Core_0_LLC_demand_MPKI 1.17443
Core_0_LLC_demand_miss_rate 0.0598289
Core_0_LLC_load_access 1863586
Core_0_LLC_load_hit 1764567
Core_0_LLC_load_miss 99019
Core_0_LLC_load_MPKI 0.99019
Core_0_LLC_load_miss_rate 0.0531336
Core_0_LLC_rfo_access 99395
Core_0_LLC_rfo_hit 80971
Core_0_LLC_rfo_miss 18424
Core_0_LLC_rfo_MPKI 0.18424
Core_0_LLC_rfo_miss_rate 0.185361
Core_0_LLC_prefetch_access 21417
Core_0_LLC_prefetch_hit 15364
Core_0_LLC_prefetch_miss 6053
Core_0_LLC_prefetch_MPKI 0.06053
Core_0_LLC_prefetch_miss_rate 0.282626
Core_0_LLC_writeback_access 313710
Core_0_LLC_writeback_hit 309845
Core_0_LLC_writeback_miss 3865
Core_0_LLC_writeback_MPKI 0.03865
Core_0_LLC_writeback_miss_rate 0.0123203
Core_0_LLC_prefetch_requested 0
Core_0_LLC_prefetch_issued 0
Core_0_LLC_prefetch_useful 0
Core_0_LLC_prefetch_useless 0
Core_0_LLC_prefetch_late 0
Core_0_LLC_prefetch_accuracy 0
Core_0_LLC_prefetch_coverage 0
Core_0_LLC_total_eviction 127369

[DRAM Statistics]
Channel_0_RQ_row_buffer_hit 3275
Channel_0_RQ_row_buffer_miss 120228
Channel_0_WQ_row_buffer_hit 19291
Channel_0_WQ_row_buffer_miss 81097
Channel_0_WQ_full 0
Channel_0_dbus_congested 663289
DRAM_total_RQ_row_buffer_hit 3275
DRAM_total_RQ_row_buffer_miss 120228
DRAM_total_WQ_row_buffer_hit 19291
DRAM_total_WQ_row_buffer_miss 81097
DRAM_total_WQ_full 0
DRAM_total_dbus_congested 663289
DRAM_avg_congested_cycle 15.6859

======STLB miss causes ========
Core_0_STLB_miss_cause_breakdown
Core_0_STLB_cause_Demand_Data_miss 0
Core_0_STLB_cause_Demand_Data_miss_rate 0
Core_0_STLB_cause_Demand_Instruction_miss 0
Core_0_STLB_cause_Demand_Instruction_miss_rate 0
Core_0_STLB_cause_L1D_Prefetch_miss 90
Core_0_STLB_cause_L1D_Prefetch_miss_rate 5.39211e-05
Core_0_STLB_cause_L1I_Prefetch_miss 0
Core_0_STLB_cause_L1I_Prefetch_miss_rate 0
Core_0_STLB_cause_Other_miss 0
Core_0_STLB_cause_Other_miss_rate 0
Core_0_STLB_Demand_miss 0
Core_0_STLB_Demand_miss_rate 0
Core_0_STLB_L1D_Prefetch_miss 90
Core_0_STLB_L1D_Prefetch_miss_rate 5.39211e-05
Core_0_STLB_Other_miss 0
Core_0_STLB_Other_miss_rate 0
BERTI TO_L1: 281686 TO_L2: 181678 TO_L2_BC_MSHR: 12798
BERTI AVG_LAT: 23.6206 NUM_TRACK_LATENCY: 2012034 NUM_CANT_TRACK_LATENCY: 0
BERTI CROSS_PAGE 50811 NO_CROSS_PAGE: 412553
BERTI FOUND_BERTI: 1131444 NO_FOUND_BERTI: 31896553
BERTI AVERAGE_ISSUED: 2.19435
