[VMEM] WARNING: physical memory size is smaller than virtual memory size.

*** ChampSim Multicore Out-of-Order Simulator ***
Warmup Instructions: 50000000
Simulation Instructions: 100000000
Number of CPUs: 1
Page size: 4096
STLB ideal mode: demand
STLB ideal fill: on
Core 0: /data0/tzh/champsim_traces/QMM/srv_6_new.xz
VBerti Prefetcher
BERTI HASH ENTANGLING
BERTI IP MASK ffff
Off-chip DRAM Size: 16 GiB Channels: 1 Width: 64-bit Data Rate: 3205 MT/s
[BTB] WARNING: target of return is a lower address than the corresponding call. This is usually a problem with your trace.
[BTB] WARNING: target of return is a lower address than the corresponding call. This is usually a problem with your trace.
[BTB] WARNING: target of return is a lower address than the corresponding call. This is usually a problem with your trace.
[BTB] WARNING: target of return is a lower address than the corresponding call. This is usually a problem with your trace.
[BTB] WARNING: target of return is a lower address than the corresponding call. This is usually a problem with your trace.
[BTB] WARNING: target of return is a lower address than the corresponding call. This is usually a problem with your trace.
[BTB] WARNING: target of return is a lower address than the corresponding call. This is usually a problem with your trace.
[BTB] WARNING: target of return is a lower address than the corresponding call. This is usually a problem with your trace.
[BTB] WARNING: target of return is a lower address than the corresponding call. This is usually a problem with your trace.
[BTB] WARNING: target of return is a lower address than the corresponding call. This is usually a problem with your trace.
*** Reached end of trace: (0, "/data0/tzh/champsim_traces/QMM/srv_6_new.xz")
Warmup halting CPU 0 at instruction 50000005 cycle 10241223 for remainder of phase
Warmup finished CPU 0 instructions: 50000005 cycles: 10241223 cumulative IPC: 4.882 (Simulation time: 00 hr 02 min 48 sec)
Warmup complete CPU 0 instructions: 50000005 cycles: 10241223 cumulative IPC: 4.882 (Simulation time: 00 hr 02 min 48 sec)
*** Reached end of trace: (0, "/data0/tzh/champsim_traces/QMM/srv_6_new.xz")
*** Reached end of trace: (0, "/data0/tzh/champsim_traces/QMM/srv_6_new.xz")
*** Reached end of trace: (0, "/data0/tzh/champsim_traces/QMM/srv_6_new.xz")
Simulation finished CPU 0 instructions: 100000001 cycles: 49576564 cumulative IPC: 2.017 (Simulation time: 00 hr 12 min 22 sec)
Simulation complete CPU 0 instructions: 100000001 cycles: 49576564 cumulative IPC: 2.017 (Simulation time: 00 hr 12 min 22 sec)

ChampSim completed all CPUs

=== Simulation ===
CPU 0 runs /data0/tzh/champsim_traces/QMM/srv_6_new.xz

Region of Interest Statistics

CPU 0 cumulative IPC: 2.017 instructions: 100000001 cycles: 49576564
CPU 0 Branch Prediction Accuracy: 98.74% MPKI: 2.249 Average ROB Occupancy at Mispredict: 148.2
Branch type MPKI
BRANCH_DIRECT_JUMP: 0.1464
BRANCH_INDIRECT: 0.1665
BRANCH_CONDITIONAL: 1.327
BRANCH_DIRECT_CALL: 0.2688
BRANCH_INDIRECT_CALL: 0.07991
BRANCH_RETURN: 0.2602

cpu0->cpu0_STLB TOTAL        ACCESS:    1613486 HIT:    1613486 MISS:          0 MSHR_MERGE:          0
cpu0->cpu0_STLB LOAD         ACCESS:    1613486 HIT:    1613486 MISS:          0 MSHR_MERGE:          0
cpu0->cpu0_STLB RFO          ACCESS:          0 HIT:          0 MISS:          0 MSHR_MERGE:          0
cpu0->cpu0_STLB PREFETCH     ACCESS:          0 HIT:          0 MISS:          0 MSHR_MERGE:          0
cpu0->cpu0_STLB WRITE        ACCESS:          0 HIT:          0 MISS:          0 MSHR_MERGE:          0
cpu0->cpu0_STLB TRANSLATION  ACCESS:          0 HIT:          0 MISS:          0 MSHR_MERGE:          0
cpu0->cpu0_STLB PREFETCH REQUESTED:          0 ISSUED:          0 USEFUL:          0 USELESS:          0 LATE:          0
cpu0->cpu0_STLB AVERAGE MISS LATENCY: - cycles
cpu0->cpu0_L2C TOTAL        ACCESS:    4267877 HIT:    2882269 MISS:    1385608 MSHR_MERGE:       1306
cpu0->cpu0_L2C LOAD         ACCESS:    3565473 HIT:    2281878 MISS:    1283595 MSHR_MERGE:        165
cpu0->cpu0_L2C RFO          ACCESS:     159886 HIT:      79915 MISS:      79971 MSHR_MERGE:         11
cpu0->cpu0_L2C PREFETCH     ACCESS:      35773 HIT:      17017 MISS:      18756 MSHR_MERGE:       1130
cpu0->cpu0_L2C WRITE        ACCESS:     506745 HIT:     503459 MISS:       3286 MSHR_MERGE:          0
cpu0->cpu0_L2C TRANSLATION  ACCESS:          0 HIT:          0 MISS:          0 MSHR_MERGE:          0
cpu0->cpu0_L2C PREFETCH REQUESTED:      35610 ISSUED:      35497 USEFUL:      11207 USELESS:       6336 LATE:        165
cpu0->cpu0_L2C AVERAGE MISS LATENCY: 33.56 cycles
cpu0->cpu0_L1I TOTAL        ACCESS:   15845301 HIT:   11778662 MISS:    4066639 MSHR_MERGE:    1560029
cpu0->cpu0_L1I LOAD         ACCESS:   15845301 HIT:   11778662 MISS:    4066639 MSHR_MERGE:    1560029
cpu0->cpu0_L1I RFO          ACCESS:          0 HIT:          0 MISS:          0 MSHR_MERGE:          0
cpu0->cpu0_L1I PREFETCH     ACCESS:          0 HIT:          0 MISS:          0 MSHR_MERGE:          0
cpu0->cpu0_L1I WRITE        ACCESS:          0 HIT:          0 MISS:          0 MSHR_MERGE:          0
cpu0->cpu0_L1I TRANSLATION  ACCESS:          0 HIT:          0 MISS:          0 MSHR_MERGE:          0
cpu0->cpu0_L1I PREFETCH REQUESTED:          0 ISSUED:          0 USEFUL:          0 USELESS:          0 LATE:          0
cpu0->cpu0_L1I AVERAGE MISS LATENCY: 13.24 cycles
cpu0->cpu0_L1D TOTAL        ACCESS:   22686223 HIT:   20809380 MISS:    1876843 MSHR_MERGE:     657776
cpu0->cpu0_L1D LOAD         ACCESS:   12738347 HIT:   11308552 MISS:    1429795 MSHR_MERGE:     370916
cpu0->cpu0_L1D RFO          ACCESS:          0 HIT:          0 MISS:          0 MSHR_MERGE:          0
cpu0->cpu0_L1D PREFETCH     ACCESS:       3308 HIT:       3013 MISS:        295 MSHR_MERGE:          8
cpu0->cpu0_L1D WRITE        ACCESS:    9944568 HIT:    9497815 MISS:     446753 MSHR_MERGE:     286852
cpu0->cpu0_L1D TRANSLATION  ACCESS:          0 HIT:          0 MISS:          0 MSHR_MERGE:          0
cpu0->cpu0_L1D PREFETCH REQUESTED:       3537 ISSUED:       3308 USEFUL:          7 USELESS:         36 LATE:          6
cpu0->cpu0_L1D AVERAGE MISS LATENCY: 34.74 cycles
cpu0->cpu0_ITLB TOTAL        ACCESS:   13468381 HIT:   12554538 MISS:     913843 MSHR_MERGE:     537477
cpu0->cpu0_ITLB LOAD         ACCESS:   13468381 HIT:   12554538 MISS:     913843 MSHR_MERGE:     537477
cpu0->cpu0_ITLB RFO          ACCESS:          0 HIT:          0 MISS:          0 MSHR_MERGE:          0
cpu0->cpu0_ITLB PREFETCH     ACCESS:          0 HIT:          0 MISS:          0 MSHR_MERGE:          0
cpu0->cpu0_ITLB WRITE        ACCESS:          0 HIT:          0 MISS:          0 MSHR_MERGE:          0
cpu0->cpu0_ITLB TRANSLATION  ACCESS:          0 HIT:          0 MISS:          0 MSHR_MERGE:          0
cpu0->cpu0_ITLB PREFETCH REQUESTED:          0 ISSUED:          0 USEFUL:          0 USELESS:          0 LATE:          0
cpu0->cpu0_ITLB AVERAGE MISS LATENCY: 5.032 cycles
cpu0->cpu0_DTLB TOTAL        ACCESS:   21302144 HIT:   19655421 MISS:    1646723 MSHR_MERGE:     409603
cpu0->cpu0_DTLB LOAD         ACCESS:   21302144 HIT:   19655421 MISS:    1646723 MSHR_MERGE:     409603
cpu0->cpu0_DTLB RFO          ACCESS:          0 HIT:          0 MISS:          0 MSHR_MERGE:          0
cpu0->cpu0_DTLB PREFETCH     ACCESS:          0 HIT:          0 MISS:          0 MSHR_MERGE:          0
cpu0->cpu0_DTLB WRITE        ACCESS:          0 HIT:          0 MISS:          0 MSHR_MERGE:          0
cpu0->cpu0_DTLB TRANSLATION  ACCESS:          0 HIT:          0 MISS:          0 MSHR_MERGE:          0
cpu0->cpu0_DTLB PREFETCH REQUESTED:          0 ISSUED:          0 USEFUL:          0 USELESS:          0 LATE:          0
cpu0->cpu0_DTLB AVERAGE MISS LATENCY: 5.006 cycles
cpu0->LLC TOTAL        ACCESS:    1642361 HIT:    1493803 MISS:     148558 MSHR_MERGE:          0
cpu0->LLC LOAD         ACCESS:    1283425 HIT:    1171802 MISS:     111623 MSHR_MERGE:          0
cpu0->LLC RFO          ACCESS:      79960 HIT:      57863 MISS:      22097 MSHR_MERGE:          0
cpu0->LLC PREFETCH     ACCESS:      17626 HIT:       7739 MISS:       9887 MSHR_MERGE:          0
cpu0->LLC WRITE        ACCESS:     261350 HIT:     256399 MISS:       4951 MSHR_MERGE:          0
cpu0->LLC TRANSLATION  ACCESS:          0 HIT:          0 MISS:          0 MSHR_MERGE:          0
cpu0->LLC PREFETCH REQUESTED:          0 ISSUED:          0 USEFUL:          0 USELESS:          0 LATE:          0
cpu0->LLC AVERAGE MISS LATENCY: 182.4 cycles

DRAM Statistics

Channel 0 RQ ROW_BUFFER_HIT:       5922
  ROW_BUFFER_MISS:     137684
  AVG DBUS CONGESTED CYCLE: 15.34
Channel 0 WQ ROW_BUFFER_HIT:      21917
  ROW_BUFFER_MISS:      82229
  FULL:          0
Channel 0 REFRESHES ISSUED:       4131

[ROI Statistics]
[System Configuration]
num_cpus 1
cpu_freq 4000
fetch_width 6
decode_width 6
dispatch_width 6
execute_width 6
lq_width 2
sq_width 2
retire_width 6
scheduler_size 128
branch_mispredict_penalty 15
rob_size 352
lq_size 128
sq_size 72
ifetch_buffer_size 64
decode_buffer_size 32
dispatch_buffer_size 32
register_file_size 288
decode_latency 1
dispatch_latency 1
schedule_latency 1
execute_latency 1
page_size 4096
block_size 64
core_0_itlb_set 16
core_0_itlb_way 4
core_0_itlb_rq_size 16
core_0_itlb_wq_size 16
core_0_itlb_pq_size 0
core_0_itlb_mshr_size 8
core_0_itlb_hit_latency 1
core_0_itlb_fill_latency 1
core_0_itlb_max_tag_check 2
core_0_itlb_max_fill 2
core_0_dtlb_set 16
core_0_dtlb_way 4
core_0_dtlb_rq_size 16
core_0_dtlb_wq_size 16
core_0_dtlb_pq_size 0
core_0_dtlb_mshr_size 8
core_0_dtlb_hit_latency 1
core_0_dtlb_fill_latency 1
core_0_dtlb_max_tag_check 2
core_0_dtlb_max_fill 2
core_0_stlb_set 128
core_0_stlb_way 12
core_0_stlb_rq_size 32
core_0_stlb_wq_size 32
core_0_stlb_pq_size 0
core_0_stlb_mshr_size 16
core_0_stlb_hit_latency 4
core_0_stlb_fill_latency 4
core_0_stlb_max_tag_check 1
core_0_stlb_max_fill 1
core_0_l1i_set 64
core_0_l1i_way 8
core_0_l1i_rq_size 64
core_0_l1i_wq_size 64
core_0_l1i_pq_size 32
core_0_l1i_mshr_size 8
core_0_l1i_hit_latency 2
core_0_l1i_fill_latency 2
core_0_l1i_max_tag_check 2
core_0_l1i_max_fill 2
core_0_l1d_set 64
core_0_l1d_way 12
core_0_l1d_rq_size 64
core_0_l1d_wq_size 64
core_0_l1d_pq_size 8
core_0_l1d_mshr_size 16
core_0_l1d_hit_latency 2
core_0_l1d_fill_latency 3
core_0_l1d_max_tag_check 2
core_0_l1d_max_fill 2
core_0_l2c_set 1024
core_0_l2c_way 8
core_0_l2c_rq_size 32
core_0_l2c_wq_size 32
core_0_l2c_pq_size 16
core_0_l2c_mshr_size 32
core_0_l2c_hit_latency 5
core_0_l2c_fill_latency 5
core_0_l2c_max_tag_check 1
core_0_l2c_max_fill 1
llc_set 2048
llc_way 16
llc_rq_size 32
llc_wq_size 32
llc_pq_size 32
llc_mshr_size 64
llc_hit_latency 10
llc_fill_latency 10
llc_max_tag_check 1
llc_max_fill 1
dram_channels 1
dram_ranks 1
dram_bankgroups 8
dram_banks 4
dram_rows 65536
dram_columns 1024
dram_channel_width 8
dram_rq_size 64
dram_wq_size 64
dram_size 17179869184
core_0_itlb_prefetcher no
core_0_dtlb_prefetcher no
core_0_stlb_prefetcher no
core_0_l1i_prefetcher next_line
core_0_l1d_prefetcher vberti
core_0_l2c_prefetcher ip_stride
llc_prefetcher no
llc_replacement drrip

Core_0_instructions 100000001
Core_0_cycles 49576564
Core_0_IPC 2.01708
Core_0_branch_prediction_accuracy 98.7414
Core_0_branch_MPKI 2.24872
Core_0_average_ROB_occupancy_at_mispredict 148.166

Core_0_ITLB_total_access 13468381
Core_0_ITLB_total_hit 12554538
Core_0_ITLB_total_miss 913843
Core_0_ITLB_total_MPKI 9.13843
Core_0_ITLB_total_miss_rate 0.067851
Core_0_ITLB_demand_access 13468381
Core_0_ITLB_demand_hit 12554538
Core_0_ITLB_demand_miss 913843
Core_0_ITLB_demand_MPKI 9.13843
Core_0_ITLB_demand_miss_rate 0.067851
Core_0_ITLB_load_access 13468381
Core_0_ITLB_load_hit 12554538
Core_0_ITLB_load_miss 913843
Core_0_ITLB_load_MPKI 9.13843
Core_0_ITLB_load_miss_rate 0.067851
Core_0_ITLB_rfo_access 0
Core_0_ITLB_rfo_hit 0
Core_0_ITLB_rfo_miss 0
Core_0_ITLB_rfo_MPKI 0
Core_0_ITLB_rfo_miss_rate 0
Core_0_ITLB_prefetch_access 0
Core_0_ITLB_prefetch_hit 0
Core_0_ITLB_prefetch_miss 0
Core_0_ITLB_prefetch_MPKI 0
Core_0_ITLB_prefetch_miss_rate 0
Core_0_ITLB_writeback_access 0
Core_0_ITLB_writeback_hit 0
Core_0_ITLB_writeback_miss 0
Core_0_ITLB_writeback_MPKI 0
Core_0_ITLB_writeback_miss_rate 0
Core_0_ITLB_prefetch_requested 0
Core_0_ITLB_prefetch_issued 0
Core_0_ITLB_prefetch_useful 0
Core_0_ITLB_prefetch_useless 0
Core_0_ITLB_prefetch_late 0
Core_0_ITLB_prefetch_accuracy 0
Core_0_ITLB_prefetch_coverage 0
Core_0_ITLB_total_eviction 376366

Core_0_DTLB_total_access 21302144
Core_0_DTLB_total_hit 19655421
Core_0_DTLB_total_miss 1646723
Core_0_DTLB_total_MPKI 16.4672
Core_0_DTLB_total_miss_rate 0.0773032
Core_0_DTLB_demand_access 21302144
Core_0_DTLB_demand_hit 19655421
Core_0_DTLB_demand_miss 1646723
Core_0_DTLB_demand_MPKI 16.4672
Core_0_DTLB_demand_miss_rate 0.0773032
Core_0_DTLB_load_access 21302144
Core_0_DTLB_load_hit 19655421
Core_0_DTLB_load_miss 1646723
Core_0_DTLB_load_MPKI 16.4672
Core_0_DTLB_load_miss_rate 0.0773032
Core_0_DTLB_rfo_access 0
Core_0_DTLB_rfo_hit 0
Core_0_DTLB_rfo_miss 0
Core_0_DTLB_rfo_MPKI 0
Core_0_DTLB_rfo_miss_rate 0
Core_0_DTLB_prefetch_access 0
Core_0_DTLB_prefetch_hit 0
Core_0_DTLB_prefetch_miss 0
Core_0_DTLB_prefetch_MPKI 0
Core_0_DTLB_prefetch_miss_rate 0
Core_0_DTLB_writeback_access 0
Core_0_DTLB_writeback_hit 0
Core_0_DTLB_writeback_miss 0
Core_0_DTLB_writeback_MPKI 0
Core_0_DTLB_writeback_miss_rate 0
Core_0_DTLB_prefetch_requested 0
Core_0_DTLB_prefetch_issued 0
Core_0_DTLB_prefetch_useful 0
Core_0_DTLB_prefetch_useless 0
Core_0_DTLB_prefetch_late 0
Core_0_DTLB_prefetch_accuracy 0
Core_0_DTLB_prefetch_coverage 0
Core_0_DTLB_total_eviction 1237120

Core_0_STLB_total_access 1613486
Core_0_STLB_total_hit 1613486
Core_0_STLB_total_miss 0
Core_0_STLB_total_MPKI 0
Core_0_STLB_total_miss_rate 0
Core_0_STLB_demand_access 1613486
Core_0_STLB_demand_hit 1613486
Core_0_STLB_demand_miss 0
Core_0_STLB_demand_MPKI 0
Core_0_STLB_demand_miss_rate 0
Core_0_STLB_load_access 1613486
Core_0_STLB_load_hit 1613486
Core_0_STLB_load_miss 0
Core_0_STLB_load_MPKI 0
Core_0_STLB_load_miss_rate 0
Core_0_STLB_rfo_access 0
Core_0_STLB_rfo_hit 0
Core_0_STLB_rfo_miss 0
Core_0_STLB_rfo_MPKI 0
Core_0_STLB_rfo_miss_rate 0
Core_0_STLB_prefetch_access 0
Core_0_STLB_prefetch_hit 0
Core_0_STLB_prefetch_miss 0
Core_0_STLB_prefetch_MPKI 0
Core_0_STLB_prefetch_miss_rate 0
Core_0_STLB_writeback_access 0
Core_0_STLB_writeback_hit 0
Core_0_STLB_writeback_miss 0
Core_0_STLB_writeback_MPKI 0
Core_0_STLB_writeback_miss_rate 0
Core_0_STLB_prefetch_requested 0
Core_0_STLB_prefetch_issued 0
Core_0_STLB_prefetch_useful 0
Core_0_STLB_prefetch_useless 0
Core_0_STLB_prefetch_late 0
Core_0_STLB_prefetch_accuracy 0
Core_0_STLB_prefetch_coverage 0
Core_0_STLB_total_eviction 172074

Core_0_L1I_total_access 15845301
Core_0_L1I_total_hit 11778662
Core_0_L1I_total_miss 4066639
Core_0_L1I_total_MPKI 40.6664
Core_0_L1I_total_miss_rate 0.256646
Core_0_L1I_demand_access 15845301
Core_0_L1I_demand_hit 11778662
Core_0_L1I_demand_miss 4066639
Core_0_L1I_demand_MPKI 40.6664
Core_0_L1I_demand_miss_rate 0.256646
Core_0_L1I_load_access 15845301
Core_0_L1I_load_hit 11778662
Core_0_L1I_load_miss 4066639
Core_0_L1I_load_MPKI 40.6664
Core_0_L1I_load_miss_rate 0.256646
Core_0_L1I_rfo_access 0
Core_0_L1I_rfo_hit 0
Core_0_L1I_rfo_miss 0
Core_0_L1I_rfo_MPKI 0
Core_0_L1I_rfo_miss_rate 0
Core_0_L1I_prefetch_access 0
Core_0_L1I_prefetch_hit 0
Core_0_L1I_prefetch_miss 0
Core_0_L1I_prefetch_MPKI 0
Core_0_L1I_prefetch_miss_rate 0
Core_0_L1I_writeback_access 0
Core_0_L1I_writeback_hit 0
Core_0_L1I_writeback_miss 0
Core_0_L1I_writeback_MPKI 0
Core_0_L1I_writeback_miss_rate 0
Core_0_L1I_prefetch_requested 0
Core_0_L1I_prefetch_issued 0
Core_0_L1I_prefetch_useful 0
Core_0_L1I_prefetch_useless 0
Core_0_L1I_prefetch_late 0
Core_0_L1I_prefetch_accuracy 0
Core_0_L1I_prefetch_coverage 0
Core_0_L1I_total_eviction 2506606

Core_0_L1D_total_access 22686223
Core_0_L1D_total_hit 20809380
Core_0_L1D_total_miss 1876843
Core_0_L1D_total_MPKI 18.7684
Core_0_L1D_total_miss_rate 0.0827305
Core_0_L1D_demand_access 12738347
Core_0_L1D_demand_hit 11308552
Core_0_L1D_demand_miss 1429795
Core_0_L1D_demand_MPKI 14.2979
Core_0_L1D_demand_miss_rate 0.112243
Core_0_L1D_load_access 12738347
Core_0_L1D_load_hit 11308552
Core_0_L1D_load_miss 1429795
Core_0_L1D_load_MPKI 14.2979
Core_0_L1D_load_miss_rate 0.112243
Core_0_L1D_rfo_access 0
Core_0_L1D_rfo_hit 0
Core_0_L1D_rfo_miss 0
Core_0_L1D_rfo_MPKI 0
Core_0_L1D_rfo_miss_rate 0
Core_0_L1D_prefetch_access 3308
Core_0_L1D_prefetch_hit 3013
Core_0_L1D_prefetch_miss 295
Core_0_L1D_prefetch_MPKI 0.00295
Core_0_L1D_prefetch_miss_rate 0.0891778
Core_0_L1D_writeback_access 9944568
Core_0_L1D_writeback_hit 9497815
Core_0_L1D_writeback_miss 446753
Core_0_L1D_writeback_MPKI 4.46753
Core_0_L1D_writeback_miss_rate 0.0449243
Core_0_L1D_prefetch_requested 3537
Core_0_L1D_prefetch_issued 3308
Core_0_L1D_prefetch_useful 7
Core_0_L1D_prefetch_useless 36
Core_0_L1D_prefetch_late 6
Core_0_L1D_prefetch_accuracy 0.00211608
Core_0_L1D_prefetch_coverage 4.89578e-06
Core_0_L1D_total_eviction 1218822

Core_0_L2C_total_access 4267877
Core_0_L2C_total_hit 2882269
Core_0_L2C_total_miss 1385608
Core_0_L2C_total_MPKI 13.8561
Core_0_L2C_total_miss_rate 0.32466
Core_0_L2C_demand_access 3725359
Core_0_L2C_demand_hit 2361793
Core_0_L2C_demand_miss 1363566
Core_0_L2C_demand_MPKI 13.6357
Core_0_L2C_demand_miss_rate 0.366023
Core_0_L2C_load_access 3565473
Core_0_L2C_load_hit 2281878
Core_0_L2C_load_miss 1283595
Core_0_L2C_load_MPKI 12.8359
Core_0_L2C_load_miss_rate 0.360007
Core_0_L2C_rfo_access 159886
Core_0_L2C_rfo_hit 79915
Core_0_L2C_rfo_miss 79971
Core_0_L2C_rfo_MPKI 0.79971
Core_0_L2C_rfo_miss_rate 0.500175
Core_0_L2C_prefetch_access 35773
Core_0_L2C_prefetch_hit 17017
Core_0_L2C_prefetch_miss 18756
Core_0_L2C_prefetch_MPKI 0.18756
Core_0_L2C_prefetch_miss_rate 0.524306
Core_0_L2C_writeback_access 506745
Core_0_L2C_writeback_hit 503459
Core_0_L2C_writeback_miss 3286
Core_0_L2C_writeback_MPKI 0.03286
Core_0_L2C_writeback_miss_rate 0.00648452
Core_0_L2C_prefetch_requested 35610
Core_0_L2C_prefetch_issued 35497
Core_0_L2C_prefetch_useful 11207
Core_0_L2C_prefetch_useless 6336
Core_0_L2C_prefetch_late 165
Core_0_L2C_prefetch_accuracy 0.315717
Core_0_L2C_prefetch_coverage 0.00815189
Core_0_L2C_total_eviction 1384299

Core_0_LLC_total_access 1642361
Core_0_LLC_total_hit 1493803
Core_0_LLC_total_miss 148558
Core_0_LLC_total_MPKI 1.48558
Core_0_LLC_total_miss_rate 0.0904539
Core_0_LLC_demand_access 1363385
Core_0_LLC_demand_hit 1229665
Core_0_LLC_demand_miss 133720
Core_0_LLC_demand_MPKI 1.3372
Core_0_LLC_demand_miss_rate 0.0980794
Core_0_LLC_load_access 1283425
Core_0_LLC_load_hit 1171802
Core_0_LLC_load_miss 111623
Core_0_LLC_load_MPKI 1.11623
Core_0_LLC_load_miss_rate 0.0869727
Core_0_LLC_rfo_access 79960
Core_0_LLC_rfo_hit 57863
Core_0_LLC_rfo_miss 22097
Core_0_LLC_rfo_MPKI 0.22097
Core_0_LLC_rfo_miss_rate 0.276351
Core_0_LLC_prefetch_access 17626
Core_0_LLC_prefetch_hit 7739
Core_0_LLC_prefetch_miss 9887
Core_0_LLC_prefetch_MPKI 0.09887
Core_0_LLC_prefetch_miss_rate 0.560933
Core_0_LLC_writeback_access 261350
Core_0_LLC_writeback_hit 256399
Core_0_LLC_writeback_miss 4951
Core_0_LLC_writeback_MPKI 0.04951
Core_0_LLC_writeback_miss_rate 0.0189439
Core_0_LLC_prefetch_requested 0
Core_0_LLC_prefetch_issued 0
Core_0_LLC_prefetch_useful 0
Core_0_LLC_prefetch_useless 0
Core_0_LLC_prefetch_late 0
Core_0_LLC_prefetch_accuracy 0
Core_0_LLC_prefetch_coverage 0
Core_0_LLC_total_eviction 148556

[DRAM Statistics]
Channel_0_RQ_row_buffer_hit 5922
Channel_0_RQ_row_buffer_miss 137684
Channel_0_WQ_row_buffer_hit 21917
Channel_0_WQ_row_buffer_miss 82229
Channel_0_WQ_full 0
Channel_0_dbus_congested 777870
DRAM_total_RQ_row_buffer_hit 5922
DRAM_total_RQ_row_buffer_miss 137684
DRAM_total_WQ_row_buffer_hit 21917
DRAM_total_WQ_row_buffer_miss 82229
DRAM_total_WQ_full 0
DRAM_total_dbus_congested 777870
DRAM_avg_congested_cycle 15.3428

======STLB miss causes ========
Core_0_STLB_miss_cause_breakdown
Core_0_STLB_cause_Demand_Data_miss 0
Core_0_STLB_cause_Demand_Data_miss_rate 0
Core_0_STLB_cause_Demand_Instruction_miss 0
Core_0_STLB_cause_Demand_Instruction_miss_rate 0
Core_0_STLB_cause_L1D_Prefetch_miss 0
Core_0_STLB_cause_L1D_Prefetch_miss_rate 0
Core_0_STLB_cause_L1I_Prefetch_miss 0
Core_0_STLB_cause_L1I_Prefetch_miss_rate 0
Core_0_STLB_cause_Other_miss 0
Core_0_STLB_cause_Other_miss_rate 0
Core_0_STLB_Demand_miss 0
Core_0_STLB_Demand_miss_rate 0
Core_0_STLB_L1D_Prefetch_miss 0
Core_0_STLB_L1D_Prefetch_miss_rate 0
Core_0_STLB_Other_miss 0
Core_0_STLB_Other_miss_rate 0
BERTI TO_L1: 81550 TO_L2: 72329 TO_L2_BC_MSHR: 0
BERTI AVG_LAT: 24.9069 NUM_TRACK_LATENCY: 1830725 NUM_CANT_TRACK_LATENCY: 0
BERTI CROSS_PAGE 18156 NO_CROSS_PAGE: 135723
BERTI FOUND_BERTI: 948946 NO_FOUND_BERTI: 31431579
BERTI AVERAGE_ISSUED: 3.46174
