[VMEM] WARNING: physical memory size is smaller than virtual memory size.

*** ChampSim Multicore Out-of-Order Simulator ***
Warmup Instructions: 50000000
Simulation Instructions: 100000000
Number of CPUs: 1
Page size: 4096
STLB ideal mode: demand
STLB ideal fill: on
Core 0: /data2/zcq/champsim_traces_gap/sssp.road-66B.champsimtrace.xz
VBerti Prefetcher
BERTI HASH ENTANGLING
BERTI IP MASK ffff
Off-chip DRAM Size: 16 GiB Channels: 1 Width: 64-bit Data Rate: 3205 MT/s
Warmup halting CPU 0 at instruction 50000005 cycle 11971928 for remainder of phase
Warmup finished CPU 0 instructions: 50000005 cycles: 11971928 cumulative IPC: 4.176 (Simulation time: 00 hr 02 min 28 sec)
Warmup complete CPU 0 instructions: 50000005 cycles: 11971928 cumulative IPC: 4.176 (Simulation time: 00 hr 02 min 28 sec)
Simulation finished CPU 0 instructions: 100000002 cycles: 271539913 cumulative IPC: 0.3683 (Simulation time: 00 hr 22 min 36 sec)
Simulation complete CPU 0 instructions: 100000002 cycles: 271539913 cumulative IPC: 0.3683 (Simulation time: 00 hr 22 min 36 sec)

ChampSim completed all CPUs

=== Simulation ===
CPU 0 runs /data2/zcq/champsim_traces_gap/sssp.road-66B.champsimtrace.xz

Region of Interest Statistics

CPU 0 cumulative IPC: 0.3683 instructions: 100000002 cycles: 271539913
CPU 0 Branch Prediction Accuracy: 89.78% MPKI: 14.22 Average ROB Occupancy at Mispredict: 41.69
Branch type MPKI
BRANCH_DIRECT_JUMP: 0.01094
BRANCH_INDIRECT: 0.02186
BRANCH_CONDITIONAL: 14.17
BRANCH_DIRECT_CALL: 0
BRANCH_INDIRECT_CALL: 0.01093
BRANCH_RETURN: 0

cpu0->cpu0_STLB TOTAL        ACCESS:    1977897 HIT:    1976647 MISS:       1250 MSHR_MERGE:          0
cpu0->cpu0_STLB LOAD         ACCESS:    1977897 HIT:    1976647 MISS:       1250 MSHR_MERGE:          0
cpu0->cpu0_STLB RFO          ACCESS:          0 HIT:          0 MISS:          0 MSHR_MERGE:          0
cpu0->cpu0_STLB PREFETCH     ACCESS:          0 HIT:          0 MISS:          0 MSHR_MERGE:          0
cpu0->cpu0_STLB WRITE        ACCESS:          0 HIT:          0 MISS:          0 MSHR_MERGE:          0
cpu0->cpu0_STLB TRANSLATION  ACCESS:          0 HIT:          0 MISS:          0 MSHR_MERGE:          0
cpu0->cpu0_STLB PREFETCH REQUESTED:          0 ISSUED:          0 USEFUL:          0 USELESS:          0 LATE:          0
cpu0->cpu0_STLB AVERAGE MISS LATENCY: 71.85 cycles
cpu0->cpu0_L2C TOTAL        ACCESS:    6451047 HIT:    4598572 MISS:    1852475 MSHR_MERGE:      21269
cpu0->cpu0_L2C LOAD         ACCESS:    3274515 HIT:    1525714 MISS:    1748801 MSHR_MERGE:        174
cpu0->cpu0_L2C RFO          ACCESS:      22777 HIT:      18751 MISS:       4026 MSHR_MERGE:         14
cpu0->cpu0_L2C PREFETCH     ACCESS:    2274738 HIT:    2176010 MISS:      98728 MSHR_MERGE:      21081
cpu0->cpu0_L2C WRITE        ACCESS:     877834 HIT:     877494 MISS:        340 MSHR_MERGE:          0
cpu0->cpu0_L2C TRANSLATION  ACCESS:       1183 HIT:        603 MISS:        580 MSHR_MERGE:          0
cpu0->cpu0_L2C PREFETCH REQUESTED:     584813 ISSUED:     543717 USEFUL:      25529 USELESS:      16881 LATE:        118
cpu0->cpu0_L2C AVERAGE MISS LATENCY: 85.69 cycles
cpu0->cpu0_L1I TOTAL        ACCESS:    4804039 HIT:    4791942 MISS:      12097 MSHR_MERGE:       3874
cpu0->cpu0_L1I LOAD         ACCESS:    4804039 HIT:    4791942 MISS:      12097 MSHR_MERGE:       3874
cpu0->cpu0_L1I RFO          ACCESS:          0 HIT:          0 MISS:          0 MSHR_MERGE:          0
cpu0->cpu0_L1I PREFETCH     ACCESS:          0 HIT:          0 MISS:          0 MSHR_MERGE:          0
cpu0->cpu0_L1I WRITE        ACCESS:          0 HIT:          0 MISS:          0 MSHR_MERGE:          0
cpu0->cpu0_L1I TRANSLATION  ACCESS:          0 HIT:          0 MISS:          0 MSHR_MERGE:          0
cpu0->cpu0_L1I PREFETCH REQUESTED:          0 ISSUED:          0 USEFUL:          0 USELESS:          0 LATE:          0
cpu0->cpu0_L1I AVERAGE MISS LATENCY: 17.64 cycles
cpu0->cpu0_L1D TOTAL        ACCESS:   72779318 HIT:   66914382 MISS:    5864936 MSHR_MERGE:     840055
cpu0->cpu0_L1D LOAD         ACCESS:   30063933 HIT:   25993309 MISS:    4070624 MSHR_MERGE:     804333
cpu0->cpu0_L1D RFO          ACCESS:          0 HIT:          0 MISS:          0 MSHR_MERGE:          0
cpu0->cpu0_L1D PREFETCH     ACCESS:   31833601 HIT:   30095332 MISS:    1738269 MSHR_MERGE:       3639
cpu0->cpu0_L1D WRITE        ACCESS:   10879270 HIT:   10824410 MISS:      54860 MSHR_MERGE:      32083
cpu0->cpu0_L1D TRANSLATION  ACCESS:       2514 HIT:       1331 MISS:       1183 MSHR_MERGE:          0
cpu0->cpu0_L1D PREFETCH REQUESTED:   75162145 ISSUED:   31833593 USEFUL:     223650 USELESS:      13773 LATE:        573
cpu0->cpu0_L1D AVERAGE MISS LATENCY: 54.21 cycles
cpu0->cpu0_ITLB TOTAL        ACCESS:    4705370 HIT:    4694503 MISS:      10867 MSHR_MERGE:       6431
cpu0->cpu0_ITLB LOAD         ACCESS:    4705370 HIT:    4694503 MISS:      10867 MSHR_MERGE:       6431
cpu0->cpu0_ITLB RFO          ACCESS:          0 HIT:          0 MISS:          0 MSHR_MERGE:          0
cpu0->cpu0_ITLB PREFETCH     ACCESS:          0 HIT:          0 MISS:          0 MSHR_MERGE:          0
cpu0->cpu0_ITLB WRITE        ACCESS:          0 HIT:          0 MISS:          0 MSHR_MERGE:          0
cpu0->cpu0_ITLB TRANSLATION  ACCESS:          0 HIT:          0 MISS:          0 MSHR_MERGE:          0
cpu0->cpu0_ITLB PREFETCH REQUESTED:          0 ISSUED:          0 USEFUL:          0 USELESS:          0 LATE:          0
cpu0->cpu0_ITLB AVERAGE MISS LATENCY: 5 cycles
cpu0->cpu0_DTLB TOTAL        ACCESS:   59984217 HIT:   57475696 MISS:    2508521 MSHR_MERGE:     535060
cpu0->cpu0_DTLB LOAD         ACCESS:   59984217 HIT:   57475696 MISS:    2508521 MSHR_MERGE:     535060
cpu0->cpu0_DTLB RFO          ACCESS:          0 HIT:          0 MISS:          0 MSHR_MERGE:          0
cpu0->cpu0_DTLB PREFETCH     ACCESS:          0 HIT:          0 MISS:          0 MSHR_MERGE:          0
cpu0->cpu0_DTLB WRITE        ACCESS:          0 HIT:          0 MISS:          0 MSHR_MERGE:          0
cpu0->cpu0_DTLB TRANSLATION  ACCESS:          0 HIT:          0 MISS:          0 MSHR_MERGE:          0
cpu0->cpu0_DTLB PREFETCH REQUESTED:          0 ISSUED:          0 USEFUL:          0 USELESS:          0 LATE:          0
cpu0->cpu0_DTLB AVERAGE MISS LATENCY: 5.047 cycles
cpu0->LLC TOTAL        ACCESS:    2246437 HIT:    1513507 MISS:     732930 MSHR_MERGE:          0
cpu0->LLC LOAD         ACCESS:    1748626 HIT:    1054971 MISS:     693655 MSHR_MERGE:          0
cpu0->LLC RFO          ACCESS:       4012 HIT:       3510 MISS:        502 MSHR_MERGE:          0
cpu0->LLC PREFETCH     ACCESS:      77647 HIT:      52120 MISS:      25527 MSHR_MERGE:          0
cpu0->LLC WRITE        ACCESS:     415572 HIT:     402529 MISS:      13043 MSHR_MERGE:          0
cpu0->LLC TRANSLATION  ACCESS:        580 HIT:        377 MISS:        203 MSHR_MERGE:          0
cpu0->LLC PREFETCH REQUESTED:          0 ISSUED:          0 USEFUL:          0 USELESS:          0 LATE:          0
cpu0->LLC AVERAGE MISS LATENCY: 174.4 cycles

DRAM Statistics

Channel 0 RQ ROW_BUFFER_HIT:        730
  ROW_BUFFER_MISS:     719149
  AVG DBUS CONGESTED CYCLE: 21.41
Channel 0 WQ ROW_BUFFER_HIT:      31805
  ROW_BUFFER_MISS:      70889
  FULL:          0
Channel 0 REFRESHES ISSUED:      22628

[ROI Statistics]
[System Configuration]
num_cpus 1
cpu_freq 4000
fetch_width 6
decode_width 6
dispatch_width 6
execute_width 6
lq_width 2
sq_width 2
retire_width 6
scheduler_size 128
branch_mispredict_penalty 15
rob_size 352
lq_size 128
sq_size 72
ifetch_buffer_size 64
decode_buffer_size 32
dispatch_buffer_size 32
register_file_size 288
decode_latency 1
dispatch_latency 1
schedule_latency 1
execute_latency 1
page_size 4096
block_size 64
core_0_itlb_set 16
core_0_itlb_way 4
core_0_itlb_rq_size 16
core_0_itlb_wq_size 16
core_0_itlb_pq_size 0
core_0_itlb_mshr_size 8
core_0_itlb_hit_latency 1
core_0_itlb_fill_latency 1
core_0_itlb_max_tag_check 2
core_0_itlb_max_fill 2
core_0_dtlb_set 16
core_0_dtlb_way 4
core_0_dtlb_rq_size 16
core_0_dtlb_wq_size 16
core_0_dtlb_pq_size 0
core_0_dtlb_mshr_size 8
core_0_dtlb_hit_latency 1
core_0_dtlb_fill_latency 1
core_0_dtlb_max_tag_check 2
core_0_dtlb_max_fill 2
core_0_stlb_set 128
core_0_stlb_way 12
core_0_stlb_rq_size 32
core_0_stlb_wq_size 32
core_0_stlb_pq_size 0
core_0_stlb_mshr_size 16
core_0_stlb_hit_latency 4
core_0_stlb_fill_latency 4
core_0_stlb_max_tag_check 1
core_0_stlb_max_fill 1
core_0_l1i_set 64
core_0_l1i_way 8
core_0_l1i_rq_size 64
core_0_l1i_wq_size 64
core_0_l1i_pq_size 32
core_0_l1i_mshr_size 8
core_0_l1i_hit_latency 2
core_0_l1i_fill_latency 2
core_0_l1i_max_tag_check 2
core_0_l1i_max_fill 2
core_0_l1d_set 64
core_0_l1d_way 12
core_0_l1d_rq_size 64
core_0_l1d_wq_size 64
core_0_l1d_pq_size 8
core_0_l1d_mshr_size 16
core_0_l1d_hit_latency 2
core_0_l1d_fill_latency 3
core_0_l1d_max_tag_check 2
core_0_l1d_max_fill 2
core_0_l2c_set 1024
core_0_l2c_way 8
core_0_l2c_rq_size 32
core_0_l2c_wq_size 32
core_0_l2c_pq_size 16
core_0_l2c_mshr_size 32
core_0_l2c_hit_latency 5
core_0_l2c_fill_latency 5
core_0_l2c_max_tag_check 1
core_0_l2c_max_fill 1
llc_set 2048
llc_way 16
llc_rq_size 32
llc_wq_size 32
llc_pq_size 32
llc_mshr_size 64
llc_hit_latency 10
llc_fill_latency 10
llc_max_tag_check 1
llc_max_fill 1
dram_channels 1
dram_ranks 1
dram_bankgroups 8
dram_banks 4
dram_rows 65536
dram_columns 1024
dram_channel_width 8
dram_rq_size 64
dram_wq_size 64
dram_size 17179869184
core_0_itlb_prefetcher no
core_0_dtlb_prefetcher no
core_0_stlb_prefetcher no
core_0_l1i_prefetcher next_line
core_0_l1d_prefetcher vberti
core_0_l2c_prefetcher ip_stride
llc_prefetcher no
llc_replacement drrip

Core_0_instructions 100000002
Core_0_cycles 271539913
Core_0_IPC 0.36827
Core_0_branch_prediction_accuracy 89.7813
Core_0_branch_MPKI 14.2186
Core_0_average_ROB_occupancy_at_mispredict 41.6923

Core_0_ITLB_total_access 4705370
Core_0_ITLB_total_hit 4694503
Core_0_ITLB_total_miss 10867
Core_0_ITLB_total_MPKI 0.10867
Core_0_ITLB_total_miss_rate 0.00230949
Core_0_ITLB_demand_access 4705370
Core_0_ITLB_demand_hit 4694503
Core_0_ITLB_demand_miss 10867
Core_0_ITLB_demand_MPKI 0.10867
Core_0_ITLB_demand_miss_rate 0.00230949
Core_0_ITLB_load_access 4705370
Core_0_ITLB_load_hit 4694503
Core_0_ITLB_load_miss 10867
Core_0_ITLB_load_MPKI 0.10867
Core_0_ITLB_load_miss_rate 0.00230949
Core_0_ITLB_rfo_access 0
Core_0_ITLB_rfo_hit 0
Core_0_ITLB_rfo_miss 0
Core_0_ITLB_rfo_MPKI 0
Core_0_ITLB_rfo_miss_rate 0
Core_0_ITLB_prefetch_access 0
Core_0_ITLB_prefetch_hit 0
Core_0_ITLB_prefetch_miss 0
Core_0_ITLB_prefetch_MPKI 0
Core_0_ITLB_prefetch_miss_rate 0
Core_0_ITLB_writeback_access 0
Core_0_ITLB_writeback_hit 0
Core_0_ITLB_writeback_miss 0
Core_0_ITLB_writeback_MPKI 0
Core_0_ITLB_writeback_miss_rate 0
Core_0_ITLB_prefetch_requested 0
Core_0_ITLB_prefetch_issued 0
Core_0_ITLB_prefetch_useful 0
Core_0_ITLB_prefetch_useless 0
Core_0_ITLB_prefetch_late 0
Core_0_ITLB_prefetch_accuracy 0
Core_0_ITLB_prefetch_coverage 0
Core_0_ITLB_total_eviction 4436

Core_0_DTLB_total_access 59984217
Core_0_DTLB_total_hit 57475696
Core_0_DTLB_total_miss 2508521
Core_0_DTLB_total_MPKI 25.0852
Core_0_DTLB_total_miss_rate 0.0418197
Core_0_DTLB_demand_access 59984217
Core_0_DTLB_demand_hit 57475696
Core_0_DTLB_demand_miss 2508521
Core_0_DTLB_demand_MPKI 25.0852
Core_0_DTLB_demand_miss_rate 0.0418197
Core_0_DTLB_load_access 59984217
Core_0_DTLB_load_hit 57475696
Core_0_DTLB_load_miss 2508521
Core_0_DTLB_load_MPKI 25.0852
Core_0_DTLB_load_miss_rate 0.0418197
Core_0_DTLB_rfo_access 0
Core_0_DTLB_rfo_hit 0
Core_0_DTLB_rfo_miss 0
Core_0_DTLB_rfo_MPKI 0
Core_0_DTLB_rfo_miss_rate 0
Core_0_DTLB_prefetch_access 0
Core_0_DTLB_prefetch_hit 0
Core_0_DTLB_prefetch_miss 0
Core_0_DTLB_prefetch_MPKI 0
Core_0_DTLB_prefetch_miss_rate 0
Core_0_DTLB_writeback_access 0
Core_0_DTLB_writeback_hit 0
Core_0_DTLB_writeback_miss 0
Core_0_DTLB_writeback_MPKI 0
Core_0_DTLB_writeback_miss_rate 0
Core_0_DTLB_prefetch_requested 0
Core_0_DTLB_prefetch_issued 0
Core_0_DTLB_prefetch_useful 0
Core_0_DTLB_prefetch_useless 0
Core_0_DTLB_prefetch_late 0
Core_0_DTLB_prefetch_accuracy 0
Core_0_DTLB_prefetch_coverage 0
Core_0_DTLB_total_eviction 1973461

Core_0_STLB_total_access 1977897
Core_0_STLB_total_hit 1976647
Core_0_STLB_total_miss 1250
Core_0_STLB_total_MPKI 0.0125
Core_0_STLB_total_miss_rate 0.000631984
Core_0_STLB_demand_access 1977897
Core_0_STLB_demand_hit 1976647
Core_0_STLB_demand_miss 1250
Core_0_STLB_demand_MPKI 0.0125
Core_0_STLB_demand_miss_rate 0.000631984
Core_0_STLB_load_access 1977897
Core_0_STLB_load_hit 1976647
Core_0_STLB_load_miss 1250
Core_0_STLB_load_MPKI 0.0125
Core_0_STLB_load_miss_rate 0.000631984
Core_0_STLB_rfo_access 0
Core_0_STLB_rfo_hit 0
Core_0_STLB_rfo_miss 0
Core_0_STLB_rfo_MPKI 0
Core_0_STLB_rfo_miss_rate 0
Core_0_STLB_prefetch_access 0
Core_0_STLB_prefetch_hit 0
Core_0_STLB_prefetch_miss 0
Core_0_STLB_prefetch_MPKI 0
Core_0_STLB_prefetch_miss_rate 0
Core_0_STLB_writeback_access 0
Core_0_STLB_writeback_hit 0
Core_0_STLB_writeback_miss 0
Core_0_STLB_writeback_MPKI 0
Core_0_STLB_writeback_miss_rate 0
Core_0_STLB_prefetch_requested 0
Core_0_STLB_prefetch_issued 0
Core_0_STLB_prefetch_useful 0
Core_0_STLB_prefetch_useless 0
Core_0_STLB_prefetch_late 0
Core_0_STLB_prefetch_accuracy 0
Core_0_STLB_prefetch_coverage 0
Core_0_STLB_total_eviction 446287

Core_0_L1I_total_access 4804039
Core_0_L1I_total_hit 4791942
Core_0_L1I_total_miss 12097
Core_0_L1I_total_MPKI 0.12097
Core_0_L1I_total_miss_rate 0.00251809
Core_0_L1I_demand_access 4804039
Core_0_L1I_demand_hit 4791942
Core_0_L1I_demand_miss 12097
Core_0_L1I_demand_MPKI 0.12097
Core_0_L1I_demand_miss_rate 0.00251809
Core_0_L1I_load_access 4804039
Core_0_L1I_load_hit 4791942
Core_0_L1I_load_miss 12097
Core_0_L1I_load_MPKI 0.12097
Core_0_L1I_load_miss_rate 0.00251809
Core_0_L1I_rfo_access 0
Core_0_L1I_rfo_hit 0
Core_0_L1I_rfo_miss 0
Core_0_L1I_rfo_MPKI 0
Core_0_L1I_rfo_miss_rate 0
Core_0_L1I_prefetch_access 0
Core_0_L1I_prefetch_hit 0
Core_0_L1I_prefetch_miss 0
Core_0_L1I_prefetch_MPKI 0
Core_0_L1I_prefetch_miss_rate 0
Core_0_L1I_writeback_access 0
Core_0_L1I_writeback_hit 0
Core_0_L1I_writeback_miss 0
Core_0_L1I_writeback_MPKI 0
Core_0_L1I_writeback_miss_rate 0
Core_0_L1I_prefetch_requested 0
Core_0_L1I_prefetch_issued 0
Core_0_L1I_prefetch_useful 0
Core_0_L1I_prefetch_useless 0
Core_0_L1I_prefetch_late 0
Core_0_L1I_prefetch_accuracy 0
Core_0_L1I_prefetch_coverage 0
Core_0_L1I_total_eviction 8223

Core_0_L1D_total_access 72776804
Core_0_L1D_total_hit 66913051
Core_0_L1D_total_miss 5863753
Core_0_L1D_total_MPKI 58.6375
Core_0_L1D_total_miss_rate 0.0805717
Core_0_L1D_demand_access 30063933
Core_0_L1D_demand_hit 25993309
Core_0_L1D_demand_miss 4070624
Core_0_L1D_demand_MPKI 40.7062
Core_0_L1D_demand_miss_rate 0.135399
Core_0_L1D_load_access 30063933
Core_0_L1D_load_hit 25993309
Core_0_L1D_load_miss 4070624
Core_0_L1D_load_MPKI 40.7062
Core_0_L1D_load_miss_rate 0.135399
Core_0_L1D_rfo_access 0
Core_0_L1D_rfo_hit 0
Core_0_L1D_rfo_miss 0
Core_0_L1D_rfo_MPKI 0
Core_0_L1D_rfo_miss_rate 0
Core_0_L1D_prefetch_access 31833601
Core_0_L1D_prefetch_hit 30095332
Core_0_L1D_prefetch_miss 1738269
Core_0_L1D_prefetch_MPKI 17.3827
Core_0_L1D_prefetch_miss_rate 0.0546048
Core_0_L1D_writeback_access 10879270
Core_0_L1D_writeback_hit 10824410
Core_0_L1D_writeback_miss 54860
Core_0_L1D_writeback_MPKI 0.5486
Core_0_L1D_writeback_miss_rate 0.00504262
Core_0_L1D_prefetch_requested 75162145
Core_0_L1D_prefetch_issued 31833593
Core_0_L1D_prefetch_useful 223650
Core_0_L1D_prefetch_useless 13773
Core_0_L1D_prefetch_late 573
Core_0_L1D_prefetch_accuracy 0.0070256
Core_0_L1D_prefetch_coverage 0.052081
Core_0_L1D_total_eviction 3527688

Core_0_L2C_total_access 6449864
Core_0_L2C_total_hit 4597969
Core_0_L2C_total_miss 1851895
Core_0_L2C_total_MPKI 18.5189
Core_0_L2C_total_miss_rate 0.287122
Core_0_L2C_demand_access 3297292
Core_0_L2C_demand_hit 1544465
Core_0_L2C_demand_miss 1752827
Core_0_L2C_demand_MPKI 17.5283
Core_0_L2C_demand_miss_rate 0.531596
Core_0_L2C_load_access 3274515
Core_0_L2C_load_hit 1525714
Core_0_L2C_load_miss 1748801
Core_0_L2C_load_MPKI 17.488
Core_0_L2C_load_miss_rate 0.534064
Core_0_L2C_rfo_access 22777
Core_0_L2C_rfo_hit 18751
Core_0_L2C_rfo_miss 4026
Core_0_L2C_rfo_MPKI 0.04026
Core_0_L2C_rfo_miss_rate 0.176757
Core_0_L2C_prefetch_access 2274738
Core_0_L2C_prefetch_hit 2176010
Core_0_L2C_prefetch_miss 98728
Core_0_L2C_prefetch_MPKI 0.98728
Core_0_L2C_prefetch_miss_rate 0.0434019
Core_0_L2C_writeback_access 877834
Core_0_L2C_writeback_hit 877494
Core_0_L2C_writeback_miss 340
Core_0_L2C_writeback_MPKI 0.0034
Core_0_L2C_writeback_miss_rate 0.000387317
Core_0_L2C_prefetch_requested 584813
Core_0_L2C_prefetch_issued 543717
Core_0_L2C_prefetch_useful 25529
Core_0_L2C_prefetch_useless 16881
Core_0_L2C_prefetch_late 118
Core_0_L2C_prefetch_accuracy 0.0469527
Core_0_L2C_prefetch_coverage 0.0143554
Core_0_L2C_total_eviction 1831184

Core_0_LLC_total_access 2245857
Core_0_LLC_total_hit 1513130
Core_0_LLC_total_miss 732727
Core_0_LLC_total_MPKI 7.32727
Core_0_LLC_total_miss_rate 0.326257
Core_0_LLC_demand_access 1752638
Core_0_LLC_demand_hit 1058481
Core_0_LLC_demand_miss 694157
Core_0_LLC_demand_MPKI 6.94157
Core_0_LLC_demand_miss_rate 0.396064
Core_0_LLC_load_access 1748626
Core_0_LLC_load_hit 1054971
Core_0_LLC_load_miss 693655
Core_0_LLC_load_MPKI 6.93655
Core_0_LLC_load_miss_rate 0.396686
Core_0_LLC_rfo_access 4012
Core_0_LLC_rfo_hit 3510
Core_0_LLC_rfo_miss 502
Core_0_LLC_rfo_MPKI 0.00502
Core_0_LLC_rfo_miss_rate 0.125125
Core_0_LLC_prefetch_access 77647
Core_0_LLC_prefetch_hit 52120
Core_0_LLC_prefetch_miss 25527
Core_0_LLC_prefetch_MPKI 0.25527
Core_0_LLC_prefetch_miss_rate 0.328757
Core_0_LLC_writeback_access 415572
Core_0_LLC_writeback_hit 402529
Core_0_LLC_writeback_miss 13043
Core_0_LLC_writeback_MPKI 0.13043
Core_0_LLC_writeback_miss_rate 0.0313857
Core_0_LLC_prefetch_requested 0
Core_0_LLC_prefetch_issued 0
Core_0_LLC_prefetch_useful 0
Core_0_LLC_prefetch_useless 0
Core_0_LLC_prefetch_late 0
Core_0_LLC_prefetch_accuracy 0
Core_0_LLC_prefetch_coverage 0
Core_0_LLC_total_eviction 732930

[DRAM Statistics]
Channel_0_RQ_row_buffer_hit 730
Channel_0_RQ_row_buffer_miss 719149
Channel_0_WQ_row_buffer_hit 31805
Channel_0_WQ_row_buffer_miss 70889
Channel_0_WQ_full 0
Channel_0_dbus_congested 1526883
DRAM_total_RQ_row_buffer_hit 730
DRAM_total_RQ_row_buffer_miss 719149
DRAM_total_WQ_row_buffer_hit 31805
DRAM_total_WQ_row_buffer_miss 70889
DRAM_total_WQ_full 0
DRAM_total_dbus_congested 1526883
DRAM_avg_congested_cycle 21.4091

======STLB miss causes ========
Core_0_STLB_miss_cause_breakdown
Core_0_STLB_cause_Demand_Data_miss 0
Core_0_STLB_cause_Demand_Data_miss_rate 0
Core_0_STLB_cause_Demand_Instruction_miss 0
Core_0_STLB_cause_Demand_Instruction_miss_rate 0
Core_0_STLB_cause_L1D_Prefetch_miss 1250
Core_0_STLB_cause_L1D_Prefetch_miss_rate 0.000631984
Core_0_STLB_cause_L1I_Prefetch_miss 0
Core_0_STLB_cause_L1I_Prefetch_miss_rate 0
Core_0_STLB_cause_Other_miss 0
Core_0_STLB_cause_Other_miss_rate 0
Core_0_STLB_Demand_miss 0
Core_0_STLB_Demand_miss_rate 0
Core_0_STLB_L1D_Prefetch_miss 1250
Core_0_STLB_L1D_Prefetch_miss_rate 0.000631984
Core_0_STLB_Other_miss 0
Core_0_STLB_Other_miss_rate 0
BERTI TO_L1: 76057777 TO_L2: 11995707 TO_L2_BC_MSHR: 1033
BERTI AVG_LAT: 38.5858 NUM_TRACK_LATENCY: 5246851 NUM_CANT_TRACK_LATENCY: 0
BERTI CROSS_PAGE 7149527 NO_CROSS_PAGE: 80903957
BERTI FOUND_BERTI: 28103252 NO_FOUND_BERTI: 24191498
BERTI AVERAGE_ISSUED: 3.10739
