[VMEM] WARNING: physical memory size is smaller than virtual memory size.

*** ChampSim Multicore Out-of-Order Simulator ***
Warmup Instructions: 50000000
Simulation Instructions: 100000000
Number of CPUs: 1
Page size: 4096
STLB ideal mode: demand
STLB ideal fill: on
Core 0: /data2/zcq/champsim_traces_gap/sssp.twitter-1116B.champsimtrace.xz
VBerti Prefetcher
BERTI HASH ENTANGLING
BERTI IP MASK ffff
Off-chip DRAM Size: 16 GiB Channels: 1 Width: 64-bit Data Rate: 3205 MT/s
Warmup halting CPU 0 at instruction 50000003 cycle 15695305 for remainder of phase
Warmup finished CPU 0 instructions: 50000003 cycles: 15695305 cumulative IPC: 3.186 (Simulation time: 00 hr 03 min 25 sec)
Warmup complete CPU 0 instructions: 50000003 cycles: 15695305 cumulative IPC: 3.186 (Simulation time: 00 hr 03 min 25 sec)
Simulation finished CPU 0 instructions: 100000001 cycles: 328639256 cumulative IPC: 0.3043 (Simulation time: 00 hr 35 min 08 sec)
Simulation complete CPU 0 instructions: 100000001 cycles: 328639256 cumulative IPC: 0.3043 (Simulation time: 00 hr 35 min 08 sec)

ChampSim completed all CPUs

=== Simulation ===
CPU 0 runs /data2/zcq/champsim_traces_gap/sssp.twitter-1116B.champsimtrace.xz

Region of Interest Statistics

CPU 0 cumulative IPC: 0.3043 instructions: 100000001 cycles: 328639256
CPU 0 Branch Prediction Accuracy: 95% MPKI: 6.898 Average ROB Occupancy at Mispredict: 74.33
Branch type MPKI
BRANCH_DIRECT_JUMP: 6e-05
BRANCH_INDIRECT: 0
BRANCH_CONDITIONAL: 6.898
BRANCH_DIRECT_CALL: 0
BRANCH_INDIRECT_CALL: 0
BRANCH_RETURN: 0

cpu0->cpu0_STLB TOTAL        ACCESS:    2986554 HIT:    2902954 MISS:      83600 MSHR_MERGE:          0
cpu0->cpu0_STLB LOAD         ACCESS:    2986554 HIT:    2902954 MISS:      83600 MSHR_MERGE:          0
cpu0->cpu0_STLB RFO          ACCESS:          0 HIT:          0 MISS:          0 MSHR_MERGE:          0
cpu0->cpu0_STLB PREFETCH     ACCESS:          0 HIT:          0 MISS:          0 MSHR_MERGE:          0
cpu0->cpu0_STLB WRITE        ACCESS:          0 HIT:          0 MISS:          0 MSHR_MERGE:          0
cpu0->cpu0_STLB TRANSLATION  ACCESS:          0 HIT:          0 MISS:          0 MSHR_MERGE:          0
cpu0->cpu0_STLB PREFETCH REQUESTED:          0 ISSUED:          0 USEFUL:          0 USELESS:          0 LATE:          0
cpu0->cpu0_STLB AVERAGE MISS LATENCY: 144.9 cycles
cpu0->cpu0_L2C TOTAL        ACCESS:   13908127 HIT:    6743085 MISS:    7165042 MSHR_MERGE:     958750
cpu0->cpu0_L2C LOAD         ACCESS:    4036359 HIT:     615673 MISS:    3420686 MSHR_MERGE:      77615
cpu0->cpu0_L2C RFO          ACCESS:     404275 HIT:     307366 MISS:      96909 MSHR_MERGE:          0
cpu0->cpu0_L2C PREFETCH     ACCESS:    7677668 HIT:    4054433 MISS:    3623235 MSHR_MERGE:     881135
cpu0->cpu0_L2C WRITE        ACCESS:    1766203 HIT:    1763541 MISS:       2662 MSHR_MERGE:          0
cpu0->cpu0_L2C TRANSLATION  ACCESS:      23622 HIT:       2072 MISS:      21550 MSHR_MERGE:          0
cpu0->cpu0_L2C PREFETCH REQUESTED:    2089258 ISSUED:    2074135 USEFUL:     664063 USELESS:     320622 LATE:      46652
cpu0->cpu0_L2C AVERAGE MISS LATENCY: 235.3 cycles
cpu0->cpu0_L1I TOTAL        ACCESS:   14435353 HIT:   14435348 MISS:          5 MSHR_MERGE:          0
cpu0->cpu0_L1I LOAD         ACCESS:   14435353 HIT:   14435348 MISS:          5 MSHR_MERGE:          0
cpu0->cpu0_L1I RFO          ACCESS:          0 HIT:          0 MISS:          0 MSHR_MERGE:          0
cpu0->cpu0_L1I PREFETCH     ACCESS:          0 HIT:          0 MISS:          0 MSHR_MERGE:          0
cpu0->cpu0_L1I WRITE        ACCESS:          0 HIT:          0 MISS:          0 MSHR_MERGE:          0
cpu0->cpu0_L1I TRANSLATION  ACCESS:          0 HIT:          0 MISS:          0 MSHR_MERGE:          0
cpu0->cpu0_L1I PREFETCH REQUESTED:          0 ISSUED:          0 USEFUL:          0 USELESS:          0 LATE:          0
cpu0->cpu0_L1I AVERAGE MISS LATENCY: 208 cycles
cpu0->cpu0_L1D TOTAL        ACCESS:  138261160 HIT:  127989703 MISS:   10271457 MSHR_MERGE:     178845
cpu0->cpu0_L1D LOAD         ACCESS:   37029313 HIT:   32855394 MISS:    4173919 MSHR_MERGE:     137565
cpu0->cpu0_L1D RFO          ACCESS:          0 HIT:          0 MISS:          0 MSHR_MERGE:          0
cpu0->cpu0_L1D PREFETCH     ACCESS:   85683960 HIT:   80023598 MISS:    5660362 MSHR_MERGE:      32037
cpu0->cpu0_L1D WRITE        ACCESS:   15381671 HIT:   14973159 MISS:     408512 MSHR_MERGE:       4201
cpu0->cpu0_L1D TRANSLATION  ACCESS:     166216 HIT:     137552 MISS:      28664 MSHR_MERGE:       5042
cpu0->cpu0_L1D PREFETCH REQUESTED:  253746752 ISSUED:   85683960 USEFUL:     951399 USELESS:      58486 LATE:       6203
cpu0->cpu0_L1D AVERAGE MISS LATENCY: 195.5 cycles
cpu0->cpu0_ITLB TOTAL        ACCESS:   14379048 HIT:   14379048 MISS:          0 MSHR_MERGE:          0
cpu0->cpu0_ITLB LOAD         ACCESS:   14379048 HIT:   14379048 MISS:          0 MSHR_MERGE:          0
cpu0->cpu0_ITLB RFO          ACCESS:          0 HIT:          0 MISS:          0 MSHR_MERGE:          0
cpu0->cpu0_ITLB PREFETCH     ACCESS:          0 HIT:          0 MISS:          0 MSHR_MERGE:          0
cpu0->cpu0_ITLB WRITE        ACCESS:          0 HIT:          0 MISS:          0 MSHR_MERGE:          0
cpu0->cpu0_ITLB TRANSLATION  ACCESS:          0 HIT:          0 MISS:          0 MSHR_MERGE:          0
cpu0->cpu0_ITLB PREFETCH REQUESTED:          0 ISSUED:          0 USEFUL:          0 USELESS:          0 LATE:          0
cpu0->cpu0_ITLB AVERAGE MISS LATENCY: - cycles
cpu0->cpu0_DTLB TOTAL        ACCESS:  101095159 HIT:   97853585 MISS:    3241574 MSHR_MERGE:     255020
cpu0->cpu0_DTLB LOAD         ACCESS:  101095159 HIT:   97853585 MISS:    3241574 MSHR_MERGE:     255020
cpu0->cpu0_DTLB RFO          ACCESS:          0 HIT:          0 MISS:          0 MSHR_MERGE:          0
cpu0->cpu0_DTLB PREFETCH     ACCESS:          0 HIT:          0 MISS:          0 MSHR_MERGE:          0
cpu0->cpu0_DTLB WRITE        ACCESS:          0 HIT:          0 MISS:          0 MSHR_MERGE:          0
cpu0->cpu0_DTLB TRANSLATION  ACCESS:          0 HIT:          0 MISS:          0 MSHR_MERGE:          0
cpu0->cpu0_DTLB PREFETCH REQUESTED:          0 ISSUED:          0 USEFUL:          0 USELESS:          0 LATE:          0
cpu0->cpu0_DTLB AVERAGE MISS LATENCY: 9.097 cycles
cpu0->LLC TOTAL        ACCESS:    7633480 HIT:     885854 MISS:    6747626 MSHR_MERGE:      21303
cpu0->LLC LOAD         ACCESS:    3343071 HIT:     507187 MISS:    2835884 MSHR_MERGE:        466
cpu0->LLC RFO          ACCESS:      96909 HIT:      15790 MISS:      81119 MSHR_MERGE:          0
cpu0->LLC PREFETCH     ACCESS:    2742097 HIT:      24031 MISS:    2718066 MSHR_MERGE:      20837
cpu0->LLC WRITE        ACCESS:    1429853 HIT:     338478 MISS:    1091375 MSHR_MERGE:          0
cpu0->LLC TRANSLATION  ACCESS:      21550 HIT:        368 MISS:      21182 MSHR_MERGE:          0
cpu0->LLC PREFETCH REQUESTED:          0 ISSUED:          0 USEFUL:          0 USELESS:          0 LATE:          0
cpu0->LLC AVERAGE MISS LATENCY: 191.4 cycles

DRAM Statistics

Channel 0 RQ ROW_BUFFER_HIT:     235705
  ROW_BUFFER_MISS:    5399055
  AVG DBUS CONGESTED CYCLE: 6.785
Channel 0 WQ ROW_BUFFER_HIT:     340610
  ROW_BUFFER_MISS:    1070246
  FULL:          0
Channel 0 REFRESHES ISSUED:      27387

[ROI Statistics]
[System Configuration]
num_cpus 1
cpu_freq 4000
fetch_width 6
decode_width 6
dispatch_width 6
execute_width 6
lq_width 2
sq_width 2
retire_width 6
scheduler_size 128
branch_mispredict_penalty 15
rob_size 352
lq_size 128
sq_size 72
ifetch_buffer_size 64
decode_buffer_size 32
dispatch_buffer_size 32
register_file_size 288
decode_latency 1
dispatch_latency 1
schedule_latency 1
execute_latency 1
page_size 4096
block_size 64
core_0_itlb_set 16
core_0_itlb_way 4
core_0_itlb_rq_size 16
core_0_itlb_wq_size 16
core_0_itlb_pq_size 0
core_0_itlb_mshr_size 8
core_0_itlb_hit_latency 1
core_0_itlb_fill_latency 1
core_0_itlb_max_tag_check 2
core_0_itlb_max_fill 2
core_0_dtlb_set 16
core_0_dtlb_way 4
core_0_dtlb_rq_size 16
core_0_dtlb_wq_size 16
core_0_dtlb_pq_size 0
core_0_dtlb_mshr_size 8
core_0_dtlb_hit_latency 1
core_0_dtlb_fill_latency 1
core_0_dtlb_max_tag_check 2
core_0_dtlb_max_fill 2
core_0_stlb_set 128
core_0_stlb_way 12
core_0_stlb_rq_size 32
core_0_stlb_wq_size 32
core_0_stlb_pq_size 0
core_0_stlb_mshr_size 16
core_0_stlb_hit_latency 4
core_0_stlb_fill_latency 4
core_0_stlb_max_tag_check 1
core_0_stlb_max_fill 1
core_0_l1i_set 64
core_0_l1i_way 8
core_0_l1i_rq_size 64
core_0_l1i_wq_size 64
core_0_l1i_pq_size 32
core_0_l1i_mshr_size 8
core_0_l1i_hit_latency 2
core_0_l1i_fill_latency 2
core_0_l1i_max_tag_check 2
core_0_l1i_max_fill 2
core_0_l1d_set 64
core_0_l1d_way 12
core_0_l1d_rq_size 64
core_0_l1d_wq_size 64
core_0_l1d_pq_size 8
core_0_l1d_mshr_size 16
core_0_l1d_hit_latency 2
core_0_l1d_fill_latency 3
core_0_l1d_max_tag_check 2
core_0_l1d_max_fill 2
core_0_l2c_set 1024
core_0_l2c_way 8
core_0_l2c_rq_size 32
core_0_l2c_wq_size 32
core_0_l2c_pq_size 16
core_0_l2c_mshr_size 32
core_0_l2c_hit_latency 5
core_0_l2c_fill_latency 5
core_0_l2c_max_tag_check 1
core_0_l2c_max_fill 1
llc_set 2048
llc_way 16
llc_rq_size 32
llc_wq_size 32
llc_pq_size 32
llc_mshr_size 64
llc_hit_latency 10
llc_fill_latency 10
llc_max_tag_check 1
llc_max_fill 1
dram_channels 1
dram_ranks 1
dram_bankgroups 8
dram_banks 4
dram_rows 65536
dram_columns 1024
dram_channel_width 8
dram_rq_size 64
dram_wq_size 64
dram_size 17179869184
core_0_itlb_prefetcher no
core_0_dtlb_prefetcher no
core_0_stlb_prefetcher no
core_0_l1i_prefetcher next_line
core_0_l1d_prefetcher vberti
core_0_l2c_prefetcher ip_stride
llc_prefetcher no
llc_replacement drrip

Core_0_instructions 100000001
Core_0_cycles 328639256
Core_0_IPC 0.304285
Core_0_branch_prediction_accuracy 95.0046
Core_0_branch_MPKI 6.89796
Core_0_average_ROB_occupancy_at_mispredict 74.3292

Core_0_ITLB_total_access 14379048
Core_0_ITLB_total_hit 14379048
Core_0_ITLB_total_miss 0
Core_0_ITLB_total_MPKI 0
Core_0_ITLB_total_miss_rate 0
Core_0_ITLB_demand_access 14379048
Core_0_ITLB_demand_hit 14379048
Core_0_ITLB_demand_miss 0
Core_0_ITLB_demand_MPKI 0
Core_0_ITLB_demand_miss_rate 0
Core_0_ITLB_load_access 14379048
Core_0_ITLB_load_hit 14379048
Core_0_ITLB_load_miss 0
Core_0_ITLB_load_MPKI 0
Core_0_ITLB_load_miss_rate 0
Core_0_ITLB_rfo_access 0
Core_0_ITLB_rfo_hit 0
Core_0_ITLB_rfo_miss 0
Core_0_ITLB_rfo_MPKI 0
Core_0_ITLB_rfo_miss_rate 0
Core_0_ITLB_prefetch_access 0
Core_0_ITLB_prefetch_hit 0
Core_0_ITLB_prefetch_miss 0
Core_0_ITLB_prefetch_MPKI 0
Core_0_ITLB_prefetch_miss_rate 0
Core_0_ITLB_writeback_access 0
Core_0_ITLB_writeback_hit 0
Core_0_ITLB_writeback_miss 0
Core_0_ITLB_writeback_MPKI 0
Core_0_ITLB_writeback_miss_rate 0
Core_0_ITLB_prefetch_requested 0
Core_0_ITLB_prefetch_issued 0
Core_0_ITLB_prefetch_useful 0
Core_0_ITLB_prefetch_useless 0
Core_0_ITLB_prefetch_late 0
Core_0_ITLB_prefetch_accuracy 0
Core_0_ITLB_prefetch_coverage 0
Core_0_ITLB_total_eviction 0

Core_0_DTLB_total_access 101095159
Core_0_DTLB_total_hit 97853585
Core_0_DTLB_total_miss 3241574
Core_0_DTLB_total_MPKI 32.4157
Core_0_DTLB_total_miss_rate 0.0320646
Core_0_DTLB_demand_access 101095159
Core_0_DTLB_demand_hit 97853585
Core_0_DTLB_demand_miss 3241574
Core_0_DTLB_demand_MPKI 32.4157
Core_0_DTLB_demand_miss_rate 0.0320646
Core_0_DTLB_load_access 101095159
Core_0_DTLB_load_hit 97853585
Core_0_DTLB_load_miss 3241574
Core_0_DTLB_load_MPKI 32.4157
Core_0_DTLB_load_miss_rate 0.0320646
Core_0_DTLB_rfo_access 0
Core_0_DTLB_rfo_hit 0
Core_0_DTLB_rfo_miss 0
Core_0_DTLB_rfo_MPKI 0
Core_0_DTLB_rfo_miss_rate 0
Core_0_DTLB_prefetch_access 0
Core_0_DTLB_prefetch_hit 0
Core_0_DTLB_prefetch_miss 0
Core_0_DTLB_prefetch_MPKI 0
Core_0_DTLB_prefetch_miss_rate 0
Core_0_DTLB_writeback_access 0
Core_0_DTLB_writeback_hit 0
Core_0_DTLB_writeback_miss 0
Core_0_DTLB_writeback_MPKI 0
Core_0_DTLB_writeback_miss_rate 0
Core_0_DTLB_prefetch_requested 0
Core_0_DTLB_prefetch_issued 0
Core_0_DTLB_prefetch_useful 0
Core_0_DTLB_prefetch_useless 0
Core_0_DTLB_prefetch_late 0
Core_0_DTLB_prefetch_accuracy 0
Core_0_DTLB_prefetch_coverage 0
Core_0_DTLB_total_eviction 2986554

Core_0_STLB_total_access 2986554
Core_0_STLB_total_hit 2902954
Core_0_STLB_total_miss 83600
Core_0_STLB_total_MPKI 0.836
Core_0_STLB_total_miss_rate 0.0279921
Core_0_STLB_demand_access 2986554
Core_0_STLB_demand_hit 2902954
Core_0_STLB_demand_miss 83600
Core_0_STLB_demand_MPKI 0.836
Core_0_STLB_demand_miss_rate 0.0279921
Core_0_STLB_load_access 2986554
Core_0_STLB_load_hit 2902954
Core_0_STLB_load_miss 83600
Core_0_STLB_load_MPKI 0.836
Core_0_STLB_load_miss_rate 0.0279921
Core_0_STLB_rfo_access 0
Core_0_STLB_rfo_hit 0
Core_0_STLB_rfo_miss 0
Core_0_STLB_rfo_MPKI 0
Core_0_STLB_rfo_miss_rate 0
Core_0_STLB_prefetch_access 0
Core_0_STLB_prefetch_hit 0
Core_0_STLB_prefetch_miss 0
Core_0_STLB_prefetch_MPKI 0
Core_0_STLB_prefetch_miss_rate 0
Core_0_STLB_writeback_access 0
Core_0_STLB_writeback_hit 0
Core_0_STLB_writeback_miss 0
Core_0_STLB_writeback_MPKI 0
Core_0_STLB_writeback_miss_rate 0
Core_0_STLB_prefetch_requested 0
Core_0_STLB_prefetch_issued 0
Core_0_STLB_prefetch_useful 0
Core_0_STLB_prefetch_useless 0
Core_0_STLB_prefetch_late 0
Core_0_STLB_prefetch_accuracy 0
Core_0_STLB_prefetch_coverage 0
Core_0_STLB_total_eviction 2184589

Core_0_L1I_total_access 14435353
Core_0_L1I_total_hit 14435348
Core_0_L1I_total_miss 5
Core_0_L1I_total_MPKI 5e-05
Core_0_L1I_total_miss_rate 3.46372e-07
Core_0_L1I_demand_access 14435353
Core_0_L1I_demand_hit 14435348
Core_0_L1I_demand_miss 5
Core_0_L1I_demand_MPKI 5e-05
Core_0_L1I_demand_miss_rate 3.46372e-07
Core_0_L1I_load_access 14435353
Core_0_L1I_load_hit 14435348
Core_0_L1I_load_miss 5
Core_0_L1I_load_MPKI 5e-05
Core_0_L1I_load_miss_rate 3.46372e-07
Core_0_L1I_rfo_access 0
Core_0_L1I_rfo_hit 0
Core_0_L1I_rfo_miss 0
Core_0_L1I_rfo_MPKI 0
Core_0_L1I_rfo_miss_rate 0
Core_0_L1I_prefetch_access 0
Core_0_L1I_prefetch_hit 0
Core_0_L1I_prefetch_miss 0
Core_0_L1I_prefetch_MPKI 0
Core_0_L1I_prefetch_miss_rate 0
Core_0_L1I_writeback_access 0
Core_0_L1I_writeback_hit 0
Core_0_L1I_writeback_miss 0
Core_0_L1I_writeback_MPKI 0
Core_0_L1I_writeback_miss_rate 0
Core_0_L1I_prefetch_requested 0
Core_0_L1I_prefetch_issued 0
Core_0_L1I_prefetch_useful 0
Core_0_L1I_prefetch_useless 0
Core_0_L1I_prefetch_late 0
Core_0_L1I_prefetch_accuracy 0
Core_0_L1I_prefetch_coverage 0
Core_0_L1I_total_eviction 0

Core_0_L1D_total_access 138094944
Core_0_L1D_total_hit 127852151
Core_0_L1D_total_miss 10242793
Core_0_L1D_total_MPKI 102.428
Core_0_L1D_total_miss_rate 0.0741721
Core_0_L1D_demand_access 37029313
Core_0_L1D_demand_hit 32855394
Core_0_L1D_demand_miss 4173919
Core_0_L1D_demand_MPKI 41.7392
Core_0_L1D_demand_miss_rate 0.112719
Core_0_L1D_load_access 37029313
Core_0_L1D_load_hit 32855394
Core_0_L1D_load_miss 4173919
Core_0_L1D_load_MPKI 41.7392
Core_0_L1D_load_miss_rate 0.112719
Core_0_L1D_rfo_access 0
Core_0_L1D_rfo_hit 0
Core_0_L1D_rfo_miss 0
Core_0_L1D_rfo_MPKI 0
Core_0_L1D_rfo_miss_rate 0
Core_0_L1D_prefetch_access 85683960
Core_0_L1D_prefetch_hit 80023598
Core_0_L1D_prefetch_miss 5660362
Core_0_L1D_prefetch_MPKI 56.6036
Core_0_L1D_prefetch_miss_rate 0.0660609
Core_0_L1D_writeback_access 15381671
Core_0_L1D_writeback_hit 14973159
Core_0_L1D_writeback_miss 408512
Core_0_L1D_writeback_MPKI 4.08512
Core_0_L1D_writeback_miss_rate 0.0265584
Core_0_L1D_prefetch_requested 253746752
Core_0_L1D_prefetch_issued 85683960
Core_0_L1D_prefetch_useful 951399
Core_0_L1D_prefetch_useless 58486
Core_0_L1D_prefetch_late 6203
Core_0_L1D_prefetch_accuracy 0.0111036
Core_0_L1D_prefetch_coverage 0.185627
Core_0_L1D_total_eviction 5474167

Core_0_L2C_total_access 13884505
Core_0_L2C_total_hit 6741013
Core_0_L2C_total_miss 7143492
Core_0_L2C_total_MPKI 71.4349
Core_0_L2C_total_miss_rate 0.514494
Core_0_L2C_demand_access 4440634
Core_0_L2C_demand_hit 923039
Core_0_L2C_demand_miss 3517595
Core_0_L2C_demand_MPKI 35.1759
Core_0_L2C_demand_miss_rate 0.792138
Core_0_L2C_load_access 4036359
Core_0_L2C_load_hit 615673
Core_0_L2C_load_miss 3420686
Core_0_L2C_load_MPKI 34.2069
Core_0_L2C_load_miss_rate 0.847468
Core_0_L2C_rfo_access 404275
Core_0_L2C_rfo_hit 307366
Core_0_L2C_rfo_miss 96909
Core_0_L2C_rfo_MPKI 0.96909
Core_0_L2C_rfo_miss_rate 0.239711
Core_0_L2C_prefetch_access 7677668
Core_0_L2C_prefetch_hit 4054433
Core_0_L2C_prefetch_miss 3623235
Core_0_L2C_prefetch_MPKI 36.2323
Core_0_L2C_prefetch_miss_rate 0.471919
Core_0_L2C_writeback_access 1766203
Core_0_L2C_writeback_hit 1763541
Core_0_L2C_writeback_miss 2662
Core_0_L2C_writeback_MPKI 0.02662
Core_0_L2C_writeback_miss_rate 0.00150719
Core_0_L2C_prefetch_requested 2089258
Core_0_L2C_prefetch_issued 2074135
Core_0_L2C_prefetch_useful 664063
Core_0_L2C_prefetch_useless 320622
Core_0_L2C_prefetch_late 46652
Core_0_L2C_prefetch_accuracy 0.320164
Core_0_L2C_prefetch_coverage 0.158804
Core_0_L2C_total_eviction 6161648

Core_0_LLC_total_access 7611930
Core_0_LLC_total_hit 885486
Core_0_LLC_total_miss 6726444
Core_0_LLC_total_MPKI 67.2644
Core_0_LLC_total_miss_rate 0.883671
Core_0_LLC_demand_access 3439980
Core_0_LLC_demand_hit 522977
Core_0_LLC_demand_miss 2917003
Core_0_LLC_demand_MPKI 29.17
Core_0_LLC_demand_miss_rate 0.847971
Core_0_LLC_load_access 3343071
Core_0_LLC_load_hit 507187
Core_0_LLC_load_miss 2835884
Core_0_LLC_load_MPKI 28.3588
Core_0_LLC_load_miss_rate 0.848287
Core_0_LLC_rfo_access 96909
Core_0_LLC_rfo_hit 15790
Core_0_LLC_rfo_miss 81119
Core_0_LLC_rfo_MPKI 0.81119
Core_0_LLC_rfo_miss_rate 0.837064
Core_0_LLC_prefetch_access 2742097
Core_0_LLC_prefetch_hit 24031
Core_0_LLC_prefetch_miss 2718066
Core_0_LLC_prefetch_MPKI 27.1807
Core_0_LLC_prefetch_miss_rate 0.991236
Core_0_LLC_writeback_access 1429853
Core_0_LLC_writeback_hit 338478
Core_0_LLC_writeback_miss 1091375
Core_0_LLC_writeback_MPKI 10.9137
Core_0_LLC_writeback_miss_rate 0.763278
Core_0_LLC_prefetch_requested 0
Core_0_LLC_prefetch_issued 0
Core_0_LLC_prefetch_useful 0
Core_0_LLC_prefetch_useless 0
Core_0_LLC_prefetch_late 0
Core_0_LLC_prefetch_accuracy 0
Core_0_LLC_prefetch_coverage 0
Core_0_LLC_total_eviction 6726312

[DRAM Statistics]
Channel_0_RQ_row_buffer_hit 235705
Channel_0_RQ_row_buffer_miss 5399055
Channel_0_WQ_row_buffer_hit 340610
Channel_0_WQ_row_buffer_miss 1070246
Channel_0_WQ_full 0
Channel_0_dbus_congested 20038681
DRAM_total_RQ_row_buffer_hit 235705
DRAM_total_RQ_row_buffer_miss 5399055
DRAM_total_WQ_row_buffer_hit 340610
DRAM_total_WQ_row_buffer_miss 1070246
DRAM_total_WQ_full 0
DRAM_total_dbus_congested 20038681
DRAM_avg_congested_cycle 6.78494

======STLB miss causes ========
Core_0_STLB_miss_cause_breakdown
Core_0_STLB_cause_Demand_Data_miss 0
Core_0_STLB_cause_Demand_Data_miss_rate 0
Core_0_STLB_cause_Demand_Instruction_miss 0
Core_0_STLB_cause_Demand_Instruction_miss_rate 0
Core_0_STLB_cause_L1D_Prefetch_miss 83600
Core_0_STLB_cause_L1D_Prefetch_miss_rate 0.0279921
Core_0_STLB_cause_L1I_Prefetch_miss 0
Core_0_STLB_cause_L1I_Prefetch_miss_rate 0
Core_0_STLB_cause_Other_miss 0
Core_0_STLB_cause_Other_miss_rate 0
Core_0_STLB_Demand_miss 0
Core_0_STLB_Demand_miss_rate 0
Core_0_STLB_L1D_Prefetch_miss 83600
Core_0_STLB_L1D_Prefetch_miss_rate 0.0279921
Core_0_STLB_Other_miss 0
Core_0_STLB_Other_miss_rate 0
BERTI TO_L1: 260503038 TO_L2: 35730557 TO_L2_BC_MSHR: 2560910
BERTI AVG_LAT: 113.947 NUM_TRACK_LATENCY: 9051923 NUM_CANT_TRACK_LATENCY: 0
BERTI CROSS_PAGE 35681155 NO_CROSS_PAGE: 260552440
BERTI FOUND_BERTI: 52960832 NO_FOUND_BERTI: 14559714
BERTI AVERAGE_ISSUED: 2.98349
