[VMEM] WARNING: physical memory size is smaller than virtual memory size.

*** ChampSim Multicore Out-of-Order Simulator ***
Warmup Instructions: 50000000
Simulation Instructions: 100000000
Number of CPUs: 1
Page size: 4096
STLB ideal mode: demand
STLB ideal fill: on
Core 0: /data2/zcq/champsim_traces_gap/sssp.twitter-792B.champsimtrace.xz
VBerti Prefetcher
BERTI HASH ENTANGLING
BERTI IP MASK ffff
Off-chip DRAM Size: 16 GiB Channels: 1 Width: 64-bit Data Rate: 3205 MT/s
Warmup halting CPU 0 at instruction 50000000 cycle 19633449 for remainder of phase
Warmup finished CPU 0 instructions: 50000000 cycles: 19633449 cumulative IPC: 2.547 (Simulation time: 00 hr 03 min 59 sec)
Warmup complete CPU 0 instructions: 50000000 cycles: 19633449 cumulative IPC: 2.547 (Simulation time: 00 hr 03 min 59 sec)
Simulation finished CPU 0 instructions: 100000001 cycles: 677671755 cumulative IPC: 0.1476 (Simulation time: 00 hr 56 min 31 sec)
Simulation complete CPU 0 instructions: 100000001 cycles: 677671755 cumulative IPC: 0.1476 (Simulation time: 00 hr 56 min 31 sec)

ChampSim completed all CPUs

=== Simulation ===
CPU 0 runs /data2/zcq/champsim_traces_gap/sssp.twitter-792B.champsimtrace.xz

Region of Interest Statistics

CPU 0 cumulative IPC: 0.1476 instructions: 100000001 cycles: 677671755
CPU 0 Branch Prediction Accuracy: 92.17% MPKI: 9.686 Average ROB Occupancy at Mispredict: 53.7
Branch type MPKI
BRANCH_DIRECT_JUMP: 0.00028
BRANCH_INDIRECT: 0.00032
BRANCH_CONDITIONAL: 9.685
BRANCH_DIRECT_CALL: 3e-05
BRANCH_INDIRECT_CALL: 0.00016
BRANCH_RETURN: 3e-05

cpu0->cpu0_STLB TOTAL        ACCESS:    6499378 HIT:    6488834 MISS:      10544 MSHR_MERGE:          0
cpu0->cpu0_STLB LOAD         ACCESS:    6499378 HIT:    6488834 MISS:      10544 MSHR_MERGE:          0
cpu0->cpu0_STLB RFO          ACCESS:          0 HIT:          0 MISS:          0 MSHR_MERGE:          0
cpu0->cpu0_STLB PREFETCH     ACCESS:          0 HIT:          0 MISS:          0 MSHR_MERGE:          0
cpu0->cpu0_STLB WRITE        ACCESS:          0 HIT:          0 MISS:          0 MSHR_MERGE:          0
cpu0->cpu0_STLB TRANSLATION  ACCESS:          0 HIT:          0 MISS:          0 MSHR_MERGE:          0
cpu0->cpu0_STLB PREFETCH REQUESTED:          0 ISSUED:          0 USEFUL:          0 USELESS:          0 LATE:          0
cpu0->cpu0_STLB AVERAGE MISS LATENCY: 270.6 cycles
cpu0->cpu0_L2C TOTAL        ACCESS:    9825147 HIT:    2104690 MISS:    7720457 MSHR_MERGE:     298647
cpu0->cpu0_L2C LOAD         ACCESS:    6778348 HIT:      99551 MISS:    6678797 MSHR_MERGE:       1501
cpu0->cpu0_L2C RFO          ACCESS:      51181 HIT:      19895 MISS:      31286 MSHR_MERGE:         37
cpu0->cpu0_L2C PREFETCH     ACCESS:    2672593 HIT:    1668961 MISS:    1003632 MSHR_MERGE:     297109
cpu0->cpu0_L2C WRITE        ACCESS:     314630 HIT:     314130 MISS:        500 MSHR_MERGE:          0
cpu0->cpu0_L2C TRANSLATION  ACCESS:       8395 HIT:       2153 MISS:       6242 MSHR_MERGE:          0
cpu0->cpu0_L2C PREFETCH REQUESTED:    1082287 ISSUED:    1063702 USEFUL:     426588 USELESS:      58778 LATE:       1140
cpu0->cpu0_L2C AVERAGE MISS LATENCY: 231.1 cycles
cpu0->cpu0_L1I TOTAL        ACCESS:   13224853 HIT:   13224449 MISS:        404 MSHR_MERGE:        115
cpu0->cpu0_L1I LOAD         ACCESS:   13224853 HIT:   13224449 MISS:        404 MSHR_MERGE:        115
cpu0->cpu0_L1I RFO          ACCESS:          0 HIT:          0 MISS:          0 MSHR_MERGE:          0
cpu0->cpu0_L1I PREFETCH     ACCESS:          0 HIT:          0 MISS:          0 MSHR_MERGE:          0
cpu0->cpu0_L1I WRITE        ACCESS:          0 HIT:          0 MISS:          0 MSHR_MERGE:          0
cpu0->cpu0_L1I TRANSLATION  ACCESS:          0 HIT:          0 MISS:          0 MSHR_MERGE:          0
cpu0->cpu0_L1I PREFETCH REQUESTED:          0 ISSUED:          0 USEFUL:          0 USELESS:          0 LATE:          0
cpu0->cpu0_L1I AVERAGE MISS LATENCY: 185 cycles
cpu0->cpu0_L1D TOTAL        ACCESS:  124948665 HIT:  114433608 MISS:   10515057 MSHR_MERGE:    2057583
cpu0->cpu0_L1D LOAD         ACCESS:   40657995 HIT:   31841357 MISS:    8816638 MSHR_MERGE:    2038579
cpu0->cpu0_L1D RFO          ACCESS:          0 HIT:          0 MISS:          0 MSHR_MERGE:          0
cpu0->cpu0_L1D PREFETCH     ACCESS:   71757003 HIT:   70122135 MISS:    1634868 MSHR_MERGE:      15029
cpu0->cpu0_L1D WRITE        ACCESS:   12509746 HIT:   12454714 MISS:      55032 MSHR_MERGE:       3851
cpu0->cpu0_L1D TRANSLATION  ACCESS:      23921 HIT:      15402 MISS:       8519 MSHR_MERGE:        124
cpu0->cpu0_L1D PREFETCH REQUESTED:  193377359 ISSUED:   71756998 USEFUL:     523202 USELESS:      61530 LATE:        342
cpu0->cpu0_L1D AVERAGE MISS LATENCY: 236 cycles
cpu0->cpu0_ITLB TOTAL        ACCESS:   13199137 HIT:   13199017 MISS:        120 MSHR_MERGE:         56
cpu0->cpu0_ITLB LOAD         ACCESS:   13199137 HIT:   13199017 MISS:        120 MSHR_MERGE:         56
cpu0->cpu0_ITLB RFO          ACCESS:          0 HIT:          0 MISS:          0 MSHR_MERGE:          0
cpu0->cpu0_ITLB PREFETCH     ACCESS:          0 HIT:          0 MISS:          0 MSHR_MERGE:          0
cpu0->cpu0_ITLB WRITE        ACCESS:          0 HIT:          0 MISS:          0 MSHR_MERGE:          0
cpu0->cpu0_ITLB TRANSLATION  ACCESS:          0 HIT:          0 MISS:          0 MSHR_MERGE:          0
cpu0->cpu0_ITLB PREFETCH REQUESTED:          0 ISSUED:          0 USEFUL:          0 USELESS:          0 LATE:          0
cpu0->cpu0_ITLB AVERAGE MISS LATENCY: 5 cycles
cpu0->cpu0_DTLB TOTAL        ACCESS:   92283868 HIT:   84346310 MISS:    7937558 MSHR_MERGE:    1438245
cpu0->cpu0_DTLB LOAD         ACCESS:   92283868 HIT:   84346310 MISS:    7937558 MSHR_MERGE:    1438245
cpu0->cpu0_DTLB RFO          ACCESS:          0 HIT:          0 MISS:          0 MSHR_MERGE:          0
cpu0->cpu0_DTLB PREFETCH     ACCESS:          0 HIT:          0 MISS:          0 MSHR_MERGE:          0
cpu0->cpu0_DTLB WRITE        ACCESS:          0 HIT:          0 MISS:          0 MSHR_MERGE:          0
cpu0->cpu0_DTLB TRANSLATION  ACCESS:          0 HIT:          0 MISS:          0 MSHR_MERGE:          0
cpu0->cpu0_DTLB PREFETCH REQUESTED:          0 ISSUED:          0 USEFUL:          0 USELESS:          0 LATE:          0
cpu0->cpu0_DTLB AVERAGE MISS LATENCY: 5.5 cycles
cpu0->LLC TOTAL        ACCESS:    7685610 HIT:     474544 MISS:    7211066 MSHR_MERGE:       5204
cpu0->LLC LOAD         ACCESS:    6677296 HIT:     234325 MISS:    6442971 MSHR_MERGE:         17
cpu0->LLC RFO          ACCESS:      31249 HIT:      26173 MISS:       5076 MSHR_MERGE:          0
cpu0->LLC PREFETCH     ACCESS:     706523 HIT:      96573 MISS:     609950 MSHR_MERGE:       5187
cpu0->LLC WRITE        ACCESS:     264300 HIT:     116894 MISS:     147406 MSHR_MERGE:          0
cpu0->LLC TRANSLATION  ACCESS:       6242 HIT:        579 MISS:       5663 MSHR_MERGE:          0
cpu0->LLC PREFETCH REQUESTED:          0 ISSUED:          0 USEFUL:          0 USELESS:          0 LATE:          0
cpu0->LLC AVERAGE MISS LATENCY: 219 cycles

DRAM Statistics

Channel 0 RQ ROW_BUFFER_HIT:       3844
  ROW_BUFFER_MISS:    7054030
  AVG DBUS CONGESTED CYCLE: 7.445
Channel 0 WQ ROW_BUFFER_HIT:      39723
  ROW_BUFFER_MISS:     137543
  FULL:          0
Channel 0 REFRESHES ISSUED:      56472

[ROI Statistics]
[System Configuration]
num_cpus 1
cpu_freq 4000
fetch_width 6
decode_width 6
dispatch_width 6
execute_width 6
lq_width 2
sq_width 2
retire_width 6
scheduler_size 128
branch_mispredict_penalty 15
rob_size 352
lq_size 128
sq_size 72
ifetch_buffer_size 64
decode_buffer_size 32
dispatch_buffer_size 32
register_file_size 288
decode_latency 1
dispatch_latency 1
schedule_latency 1
execute_latency 1
page_size 4096
block_size 64
core_0_itlb_set 16
core_0_itlb_way 4
core_0_itlb_rq_size 16
core_0_itlb_wq_size 16
core_0_itlb_pq_size 0
core_0_itlb_mshr_size 8
core_0_itlb_hit_latency 1
core_0_itlb_fill_latency 1
core_0_itlb_max_tag_check 2
core_0_itlb_max_fill 2
core_0_dtlb_set 16
core_0_dtlb_way 4
core_0_dtlb_rq_size 16
core_0_dtlb_wq_size 16
core_0_dtlb_pq_size 0
core_0_dtlb_mshr_size 8
core_0_dtlb_hit_latency 1
core_0_dtlb_fill_latency 1
core_0_dtlb_max_tag_check 2
core_0_dtlb_max_fill 2
core_0_stlb_set 128
core_0_stlb_way 12
core_0_stlb_rq_size 32
core_0_stlb_wq_size 32
core_0_stlb_pq_size 0
core_0_stlb_mshr_size 16
core_0_stlb_hit_latency 4
core_0_stlb_fill_latency 4
core_0_stlb_max_tag_check 1
core_0_stlb_max_fill 1
core_0_l1i_set 64
core_0_l1i_way 8
core_0_l1i_rq_size 64
core_0_l1i_wq_size 64
core_0_l1i_pq_size 32
core_0_l1i_mshr_size 8
core_0_l1i_hit_latency 2
core_0_l1i_fill_latency 2
core_0_l1i_max_tag_check 2
core_0_l1i_max_fill 2
core_0_l1d_set 64
core_0_l1d_way 12
core_0_l1d_rq_size 64
core_0_l1d_wq_size 64
core_0_l1d_pq_size 8
core_0_l1d_mshr_size 16
core_0_l1d_hit_latency 2
core_0_l1d_fill_latency 3
core_0_l1d_max_tag_check 2
core_0_l1d_max_fill 2
core_0_l2c_set 1024
core_0_l2c_way 8
core_0_l2c_rq_size 32
core_0_l2c_wq_size 32
core_0_l2c_pq_size 16
core_0_l2c_mshr_size 32
core_0_l2c_hit_latency 5
core_0_l2c_fill_latency 5
core_0_l2c_max_tag_check 1
core_0_l2c_max_fill 1
llc_set 2048
llc_way 16
llc_rq_size 32
llc_wq_size 32
llc_pq_size 32
llc_mshr_size 64
llc_hit_latency 10
llc_fill_latency 10
llc_max_tag_check 1
llc_max_fill 1
dram_channels 1
dram_ranks 1
dram_bankgroups 8
dram_banks 4
dram_rows 65536
dram_columns 1024
dram_channel_width 8
dram_rq_size 64
dram_wq_size 64
dram_size 17179869184
core_0_itlb_prefetcher no
core_0_dtlb_prefetcher no
core_0_stlb_prefetcher no
core_0_l1i_prefetcher next_line
core_0_l1d_prefetcher vberti
core_0_l2c_prefetcher ip_stride
llc_prefetcher no
llc_replacement drrip

Core_0_instructions 100000001
Core_0_cycles 677671755
Core_0_IPC 0.147564
Core_0_branch_prediction_accuracy 92.1731
Core_0_branch_MPKI 9.68624
Core_0_average_ROB_occupancy_at_mispredict 53.7033

Core_0_ITLB_total_access 13199137
Core_0_ITLB_total_hit 13199017
Core_0_ITLB_total_miss 120
Core_0_ITLB_total_MPKI 0.0012
Core_0_ITLB_total_miss_rate 9.0915e-06
Core_0_ITLB_demand_access 13199137
Core_0_ITLB_demand_hit 13199017
Core_0_ITLB_demand_miss 120
Core_0_ITLB_demand_MPKI 0.0012
Core_0_ITLB_demand_miss_rate 9.0915e-06
Core_0_ITLB_load_access 13199137
Core_0_ITLB_load_hit 13199017
Core_0_ITLB_load_miss 120
Core_0_ITLB_load_MPKI 0.0012
Core_0_ITLB_load_miss_rate 9.0915e-06
Core_0_ITLB_rfo_access 0
Core_0_ITLB_rfo_hit 0
Core_0_ITLB_rfo_miss 0
Core_0_ITLB_rfo_MPKI 0
Core_0_ITLB_rfo_miss_rate 0
Core_0_ITLB_prefetch_access 0
Core_0_ITLB_prefetch_hit 0
Core_0_ITLB_prefetch_miss 0
Core_0_ITLB_prefetch_MPKI 0
Core_0_ITLB_prefetch_miss_rate 0
Core_0_ITLB_writeback_access 0
Core_0_ITLB_writeback_hit 0
Core_0_ITLB_writeback_miss 0
Core_0_ITLB_writeback_MPKI 0
Core_0_ITLB_writeback_miss_rate 0
Core_0_ITLB_prefetch_requested 0
Core_0_ITLB_prefetch_issued 0
Core_0_ITLB_prefetch_useful 0
Core_0_ITLB_prefetch_useless 0
Core_0_ITLB_prefetch_late 0
Core_0_ITLB_prefetch_accuracy 0
Core_0_ITLB_prefetch_coverage 0
Core_0_ITLB_total_eviction 64

Core_0_DTLB_total_access 92283868
Core_0_DTLB_total_hit 84346310
Core_0_DTLB_total_miss 7937558
Core_0_DTLB_total_MPKI 79.3756
Core_0_DTLB_total_miss_rate 0.0860124
Core_0_DTLB_demand_access 92283868
Core_0_DTLB_demand_hit 84346310
Core_0_DTLB_demand_miss 7937558
Core_0_DTLB_demand_MPKI 79.3756
Core_0_DTLB_demand_miss_rate 0.0860124
Core_0_DTLB_load_access 92283868
Core_0_DTLB_load_hit 84346310
Core_0_DTLB_load_miss 7937558
Core_0_DTLB_load_MPKI 79.3756
Core_0_DTLB_load_miss_rate 0.0860124
Core_0_DTLB_rfo_access 0
Core_0_DTLB_rfo_hit 0
Core_0_DTLB_rfo_miss 0
Core_0_DTLB_rfo_MPKI 0
Core_0_DTLB_rfo_miss_rate 0
Core_0_DTLB_prefetch_access 0
Core_0_DTLB_prefetch_hit 0
Core_0_DTLB_prefetch_miss 0
Core_0_DTLB_prefetch_MPKI 0
Core_0_DTLB_prefetch_miss_rate 0
Core_0_DTLB_writeback_access 0
Core_0_DTLB_writeback_hit 0
Core_0_DTLB_writeback_miss 0
Core_0_DTLB_writeback_MPKI 0
Core_0_DTLB_writeback_miss_rate 0
Core_0_DTLB_prefetch_requested 0
Core_0_DTLB_prefetch_issued 0
Core_0_DTLB_prefetch_useful 0
Core_0_DTLB_prefetch_useless 0
Core_0_DTLB_prefetch_late 0
Core_0_DTLB_prefetch_accuracy 0
Core_0_DTLB_prefetch_coverage 0
Core_0_DTLB_total_eviction 6499314

Core_0_STLB_total_access 6499378
Core_0_STLB_total_hit 6488834
Core_0_STLB_total_miss 10544
Core_0_STLB_total_MPKI 0.10544
Core_0_STLB_total_miss_rate 0.00162231
Core_0_STLB_demand_access 6499378
Core_0_STLB_demand_hit 6488834
Core_0_STLB_demand_miss 10544
Core_0_STLB_demand_MPKI 0.10544
Core_0_STLB_demand_miss_rate 0.00162231
Core_0_STLB_load_access 6499378
Core_0_STLB_load_hit 6488834
Core_0_STLB_load_miss 10544
Core_0_STLB_load_MPKI 0.10544
Core_0_STLB_load_miss_rate 0.00162231
Core_0_STLB_rfo_access 0
Core_0_STLB_rfo_hit 0
Core_0_STLB_rfo_miss 0
Core_0_STLB_rfo_MPKI 0
Core_0_STLB_rfo_miss_rate 0
Core_0_STLB_prefetch_access 0
Core_0_STLB_prefetch_hit 0
Core_0_STLB_prefetch_miss 0
Core_0_STLB_prefetch_MPKI 0
Core_0_STLB_prefetch_miss_rate 0
Core_0_STLB_writeback_access 0
Core_0_STLB_writeback_hit 0
Core_0_STLB_writeback_miss 0
Core_0_STLB_writeback_MPKI 0
Core_0_STLB_writeback_miss_rate 0
Core_0_STLB_prefetch_requested 0
Core_0_STLB_prefetch_issued 0
Core_0_STLB_prefetch_useful 0
Core_0_STLB_prefetch_useless 0
Core_0_STLB_prefetch_late 0
Core_0_STLB_prefetch_accuracy 0
Core_0_STLB_prefetch_coverage 0
Core_0_STLB_total_eviction 6067595

Core_0_L1I_total_access 13224853
Core_0_L1I_total_hit 13224449
Core_0_L1I_total_miss 404
Core_0_L1I_total_MPKI 0.00404
Core_0_L1I_total_miss_rate 3.05485e-05
Core_0_L1I_demand_access 13224853
Core_0_L1I_demand_hit 13224449
Core_0_L1I_demand_miss 404
Core_0_L1I_demand_MPKI 0.00404
Core_0_L1I_demand_miss_rate 3.05485e-05
Core_0_L1I_load_access 13224853
Core_0_L1I_load_hit 13224449
Core_0_L1I_load_miss 404
Core_0_L1I_load_MPKI 0.00404
Core_0_L1I_load_miss_rate 3.05485e-05
Core_0_L1I_rfo_access 0
Core_0_L1I_rfo_hit 0
Core_0_L1I_rfo_miss 0
Core_0_L1I_rfo_MPKI 0
Core_0_L1I_rfo_miss_rate 0
Core_0_L1I_prefetch_access 0
Core_0_L1I_prefetch_hit 0
Core_0_L1I_prefetch_miss 0
Core_0_L1I_prefetch_MPKI 0
Core_0_L1I_prefetch_miss_rate 0
Core_0_L1I_writeback_access 0
Core_0_L1I_writeback_hit 0
Core_0_L1I_writeback_miss 0
Core_0_L1I_writeback_MPKI 0
Core_0_L1I_writeback_miss_rate 0
Core_0_L1I_prefetch_requested 0
Core_0_L1I_prefetch_issued 0
Core_0_L1I_prefetch_useful 0
Core_0_L1I_prefetch_useless 0
Core_0_L1I_prefetch_late 0
Core_0_L1I_prefetch_accuracy 0
Core_0_L1I_prefetch_coverage 0
Core_0_L1I_total_eviction 277

Core_0_L1D_total_access 124924744
Core_0_L1D_total_hit 114418206
Core_0_L1D_total_miss 10506538
Core_0_L1D_total_MPKI 105.065
Core_0_L1D_total_miss_rate 0.0841029
Core_0_L1D_demand_access 40657995
Core_0_L1D_demand_hit 31841357
Core_0_L1D_demand_miss 8816638
Core_0_L1D_demand_MPKI 88.1664
Core_0_L1D_demand_miss_rate 0.216849
Core_0_L1D_load_access 40657995
Core_0_L1D_load_hit 31841357
Core_0_L1D_load_miss 8816638
Core_0_L1D_load_MPKI 88.1664
Core_0_L1D_load_miss_rate 0.216849
Core_0_L1D_rfo_access 0
Core_0_L1D_rfo_hit 0
Core_0_L1D_rfo_miss 0
Core_0_L1D_rfo_MPKI 0
Core_0_L1D_rfo_miss_rate 0
Core_0_L1D_prefetch_access 71757003
Core_0_L1D_prefetch_hit 70122135
Core_0_L1D_prefetch_miss 1634868
Core_0_L1D_prefetch_MPKI 16.3487
Core_0_L1D_prefetch_miss_rate 0.0227834
Core_0_L1D_writeback_access 12509746
Core_0_L1D_writeback_hit 12454714
Core_0_L1D_writeback_miss 55032
Core_0_L1D_writeback_MPKI 0.55032
Core_0_L1D_writeback_miss_rate 0.00439913
Core_0_L1D_prefetch_requested 193377359
Core_0_L1D_prefetch_issued 71756998
Core_0_L1D_prefetch_useful 523202
Core_0_L1D_prefetch_useless 61530
Core_0_L1D_prefetch_late 342
Core_0_L1D_prefetch_accuracy 0.0072913
Core_0_L1D_prefetch_coverage 0.0560183
Core_0_L1D_total_eviction 7422366

Core_0_L2C_total_access 9816752
Core_0_L2C_total_hit 2102537
Core_0_L2C_total_miss 7714215
Core_0_L2C_total_MPKI 77.1421
Core_0_L2C_total_miss_rate 0.785822
Core_0_L2C_demand_access 6829529
Core_0_L2C_demand_hit 119446
Core_0_L2C_demand_miss 6710083
Core_0_L2C_demand_MPKI 67.1008
Core_0_L2C_demand_miss_rate 0.98251
Core_0_L2C_load_access 6778348
Core_0_L2C_load_hit 99551
Core_0_L2C_load_miss 6678797
Core_0_L2C_load_MPKI 66.788
Core_0_L2C_load_miss_rate 0.985313
Core_0_L2C_rfo_access 51181
Core_0_L2C_rfo_hit 19895
Core_0_L2C_rfo_miss 31286
Core_0_L2C_rfo_MPKI 0.31286
Core_0_L2C_rfo_miss_rate 0.611282
Core_0_L2C_prefetch_access 2672593
Core_0_L2C_prefetch_hit 1668961
Core_0_L2C_prefetch_miss 1003632
Core_0_L2C_prefetch_MPKI 10.0363
Core_0_L2C_prefetch_miss_rate 0.375527
Core_0_L2C_writeback_access 314630
Core_0_L2C_writeback_hit 314130
Core_0_L2C_writeback_miss 500
Core_0_L2C_writeback_MPKI 0.005
Core_0_L2C_writeback_miss_rate 0.00158917
Core_0_L2C_prefetch_requested 1082287
Core_0_L2C_prefetch_issued 1063702
Core_0_L2C_prefetch_useful 426588
Core_0_L2C_prefetch_useless 58778
Core_0_L2C_prefetch_late 1140
Core_0_L2C_prefetch_accuracy 0.401041
Core_0_L2C_prefetch_coverage 0.0597741
Core_0_L2C_total_eviction 7413060

Core_0_LLC_total_access 7679368
Core_0_LLC_total_hit 473965
Core_0_LLC_total_miss 7205403
Core_0_LLC_total_MPKI 72.054
Core_0_LLC_total_miss_rate 0.938281
Core_0_LLC_demand_access 6708545
Core_0_LLC_demand_hit 260498
Core_0_LLC_demand_miss 6448047
Core_0_LLC_demand_MPKI 64.4805
Core_0_LLC_demand_miss_rate 0.961169
Core_0_LLC_load_access 6677296
Core_0_LLC_load_hit 234325
Core_0_LLC_load_miss 6442971
Core_0_LLC_load_MPKI 64.4297
Core_0_LLC_load_miss_rate 0.964907
Core_0_LLC_rfo_access 31249
Core_0_LLC_rfo_hit 26173
Core_0_LLC_rfo_miss 5076
Core_0_LLC_rfo_MPKI 0.05076
Core_0_LLC_rfo_miss_rate 0.162437
Core_0_LLC_prefetch_access 706523
Core_0_LLC_prefetch_hit 96573
Core_0_LLC_prefetch_miss 609950
Core_0_LLC_prefetch_MPKI 6.0995
Core_0_LLC_prefetch_miss_rate 0.863312
Core_0_LLC_writeback_access 264300
Core_0_LLC_writeback_hit 116894
Core_0_LLC_writeback_miss 147406
Core_0_LLC_writeback_MPKI 1.47406
Core_0_LLC_writeback_miss_rate 0.557722
Core_0_LLC_prefetch_requested 0
Core_0_LLC_prefetch_issued 0
Core_0_LLC_prefetch_useful 0
Core_0_LLC_prefetch_useless 0
Core_0_LLC_prefetch_late 0
Core_0_LLC_prefetch_accuracy 0
Core_0_LLC_prefetch_coverage 0
Core_0_LLC_total_eviction 7205861

[DRAM Statistics]
Channel_0_RQ_row_buffer_hit 3844
Channel_0_RQ_row_buffer_miss 7054030
Channel_0_WQ_row_buffer_hit 39723
Channel_0_WQ_row_buffer_miss 137543
Channel_0_WQ_full 0
Channel_0_dbus_congested 14171014
DRAM_total_RQ_row_buffer_hit 3844
DRAM_total_RQ_row_buffer_miss 7054030
DRAM_total_WQ_row_buffer_hit 39723
DRAM_total_WQ_row_buffer_miss 137543
DRAM_total_WQ_full 0
DRAM_total_dbus_congested 14171014
DRAM_avg_congested_cycle 7.44541

======STLB miss causes ========
Core_0_STLB_miss_cause_breakdown
Core_0_STLB_cause_Demand_Data_miss 0
Core_0_STLB_cause_Demand_Data_miss_rate 0
Core_0_STLB_cause_Demand_Instruction_miss 0
Core_0_STLB_cause_Demand_Instruction_miss_rate 0
Core_0_STLB_cause_L1D_Prefetch_miss 10544
Core_0_STLB_cause_L1D_Prefetch_miss_rate 0.00162231
Core_0_STLB_cause_L1I_Prefetch_miss 0
Core_0_STLB_cause_L1I_Prefetch_miss_rate 0
Core_0_STLB_cause_Other_miss 0
Core_0_STLB_cause_Other_miss_rate 0
Core_0_STLB_Demand_miss 0
Core_0_STLB_Demand_miss_rate 0
Core_0_STLB_L1D_Prefetch_miss 10544
Core_0_STLB_L1D_Prefetch_miss_rate 0.00162231
Core_0_STLB_Other_miss 0
Core_0_STLB_Other_miss_rate 0
BERTI TO_L1: 247783406 TO_L2: 12865204 TO_L2_BC_MSHR: 773480
BERTI AVG_LAT: 152.389 NUM_TRACK_LATENCY: 11169493 NUM_CANT_TRACK_LATENCY: 0
BERTI CROSS_PAGE 19021482 NO_CROSS_PAGE: 241627128
BERTI FOUND_BERTI: 47485533 NO_FOUND_BERTI: 23030403
BERTI AVERAGE_ISSUED: 3.16498
