[VMEM] WARNING: physical memory size is smaller than virtual memory size.

*** ChampSim Multicore Out-of-Order Simulator ***
Warmup Instructions: 50000000
Simulation Instructions: 100000000
Number of CPUs: 1
Page size: 4096
STLB ideal mode: demand
STLB ideal fill: on
Core 0: /data2/zcq/champsim_traces_gap/tc.twitter-34B.champsimtrace.xz
VBerti Prefetcher
BERTI HASH ENTANGLING
BERTI IP MASK ffff
Off-chip DRAM Size: 16 GiB Channels: 1 Width: 64-bit Data Rate: 3205 MT/s
Warmup halting CPU 0 at instruction 50000000 cycle 11341727 for remainder of phase
Warmup finished CPU 0 instructions: 50000000 cycles: 11341727 cumulative IPC: 4.408 (Simulation time: 00 hr 02 min 12 sec)
Warmup complete CPU 0 instructions: 50000000 cycles: 11341727 cumulative IPC: 4.408 (Simulation time: 00 hr 02 min 12 sec)
Simulation finished CPU 0 instructions: 100000000 cycles: 167699330 cumulative IPC: 0.5963 (Simulation time: 00 hr 16 min 39 sec)
Simulation complete CPU 0 instructions: 100000000 cycles: 167699330 cumulative IPC: 0.5963 (Simulation time: 00 hr 16 min 39 sec)

ChampSim completed all CPUs

=== Simulation ===
CPU 0 runs /data2/zcq/champsim_traces_gap/tc.twitter-34B.champsimtrace.xz

Region of Interest Statistics

CPU 0 cumulative IPC: 0.5963 instructions: 100000000 cycles: 167699330
CPU 0 Branch Prediction Accuracy: 81.82% MPKI: 44.18 Average ROB Occupancy at Mispredict: 6.366
Branch type MPKI
BRANCH_DIRECT_JUMP: 0.00818
BRANCH_INDIRECT: 0
BRANCH_CONDITIONAL: 44.17
BRANCH_DIRECT_CALL: 2e-05
BRANCH_INDIRECT_CALL: 0
BRANCH_RETURN: 2e-05

cpu0->cpu0_STLB TOTAL        ACCESS:     453647 HIT:     399429 MISS:      54218 MSHR_MERGE:          0
cpu0->cpu0_STLB LOAD         ACCESS:     453647 HIT:     399429 MISS:      54218 MSHR_MERGE:          0
cpu0->cpu0_STLB RFO          ACCESS:          0 HIT:          0 MISS:          0 MSHR_MERGE:          0
cpu0->cpu0_STLB PREFETCH     ACCESS:          0 HIT:          0 MISS:          0 MSHR_MERGE:          0
cpu0->cpu0_STLB WRITE        ACCESS:          0 HIT:          0 MISS:          0 MSHR_MERGE:          0
cpu0->cpu0_STLB TRANSLATION  ACCESS:          0 HIT:          0 MISS:          0 MSHR_MERGE:          0
cpu0->cpu0_STLB PREFETCH REQUESTED:          0 ISSUED:          0 USEFUL:          0 USELESS:          0 LATE:          0
cpu0->cpu0_STLB AVERAGE MISS LATENCY: 297.7 cycles
cpu0->cpu0_L2C TOTAL        ACCESS:    4115255 HIT:    2690658 MISS:    1424597 MSHR_MERGE:     171995
cpu0->cpu0_L2C LOAD         ACCESS:     788687 HIT:      48020 MISS:     740667 MSHR_MERGE:       7168
cpu0->cpu0_L2C RFO          ACCESS:       8062 HIT:       5286 MISS:       2776 MSHR_MERGE:        618
cpu0->cpu0_L2C PREFETCH     ACCESS:    3006927 HIT:    2362499 MISS:     644428 MSHR_MERGE:     164209
cpu0->cpu0_L2C WRITE        ACCESS:     267759 HIT:     267730 MISS:         29 MSHR_MERGE:          0
cpu0->cpu0_L2C TRANSLATION  ACCESS:      43820 HIT:       7123 MISS:      36697 MSHR_MERGE:          0
cpu0->cpu0_L2C PREFETCH REQUESTED:     865926 ISSUED:     865150 USEFUL:      89991 USELESS:      12589 LATE:        764
cpu0->cpu0_L2C AVERAGE MISS LATENCY: 307.9 cycles
cpu0->cpu0_L1I TOTAL        ACCESS:    1307596 HIT:    1307590 MISS:          6 MSHR_MERGE:          0
cpu0->cpu0_L1I LOAD         ACCESS:    1307596 HIT:    1307590 MISS:          6 MSHR_MERGE:          0
cpu0->cpu0_L1I RFO          ACCESS:          0 HIT:          0 MISS:          0 MSHR_MERGE:          0
cpu0->cpu0_L1I PREFETCH     ACCESS:          0 HIT:          0 MISS:          0 MSHR_MERGE:          0
cpu0->cpu0_L1I WRITE        ACCESS:          0 HIT:          0 MISS:          0 MSHR_MERGE:          0
cpu0->cpu0_L1I TRANSLATION  ACCESS:          0 HIT:          0 MISS:          0 MSHR_MERGE:          0
cpu0->cpu0_L1I PREFETCH REQUESTED:          0 ISSUED:          0 USEFUL:          0 USELESS:          0 LATE:          0
cpu0->cpu0_L1I AVERAGE MISS LATENCY: 189.5 cycles
cpu0->cpu0_L1D TOTAL        ACCESS:   66591697 HIT:   63464602 MISS:    3127095 MSHR_MERGE:      92313
cpu0->cpu0_L1D LOAD         ACCESS:   17028599 HIT:   16204468 MISS:     824131 MSHR_MERGE:      35450
cpu0->cpu0_L1D RFO          ACCESS:          0 HIT:          0 MISS:          0 MSHR_MERGE:          0
cpu0->cpu0_L1D PREFETCH     ACCESS:   40363586 HIT:   38152949 MISS:    2210637 MSHR_MERGE:      16443
cpu0->cpu0_L1D WRITE        ACCESS:    9093653 HIT:    9052832 MISS:      40821 MSHR_MERGE:      32734
cpu0->cpu0_L1D TRANSLATION  ACCESS:     105859 HIT:      54353 MISS:      51506 MSHR_MERGE:       7686
cpu0->cpu0_L1D PREFETCH REQUESTED:  150653010 ISSUED:   40363587 USEFUL:     297961 USELESS:      23269 LATE:       2372
cpu0->cpu0_L1D AVERAGE MISS LATENCY: 294.5 cycles
cpu0->cpu0_ITLB TOTAL        ACCESS:    1268453 HIT:    1268452 MISS:          1 MSHR_MERGE:          0
cpu0->cpu0_ITLB LOAD         ACCESS:    1268453 HIT:    1268452 MISS:          1 MSHR_MERGE:          0
cpu0->cpu0_ITLB RFO          ACCESS:          0 HIT:          0 MISS:          0 MSHR_MERGE:          0
cpu0->cpu0_ITLB PREFETCH     ACCESS:          0 HIT:          0 MISS:          0 MSHR_MERGE:          0
cpu0->cpu0_ITLB WRITE        ACCESS:          0 HIT:          0 MISS:          0 MSHR_MERGE:          0
cpu0->cpu0_ITLB TRANSLATION  ACCESS:          0 HIT:          0 MISS:          0 MSHR_MERGE:          0
cpu0->cpu0_ITLB PREFETCH REQUESTED:          0 ISSUED:          0 USEFUL:          0 USELESS:          0 LATE:          0
cpu0->cpu0_ITLB AVERAGE MISS LATENCY: 5 cycles
cpu0->cpu0_DTLB TOTAL        ACCESS:   48517473 HIT:   47949667 MISS:     567806 MSHR_MERGE:     114160
cpu0->cpu0_DTLB LOAD         ACCESS:   48517473 HIT:   47949667 MISS:     567806 MSHR_MERGE:     114160
cpu0->cpu0_DTLB RFO          ACCESS:          0 HIT:          0 MISS:          0 MSHR_MERGE:          0
cpu0->cpu0_DTLB PREFETCH     ACCESS:          0 HIT:          0 MISS:          0 MSHR_MERGE:          0
cpu0->cpu0_DTLB WRITE        ACCESS:          0 HIT:          0 MISS:          0 MSHR_MERGE:          0
cpu0->cpu0_DTLB TRANSLATION  ACCESS:          0 HIT:          0 MISS:          0 MSHR_MERGE:          0
cpu0->cpu0_DTLB PREFETCH REQUESTED:          0 ISSUED:          0 USEFUL:          0 USELESS:          0 LATE:          0
cpu0->cpu0_DTLB AVERAGE MISS LATENCY: 40.74 cycles
cpu0->LLC TOTAL        ACCESS:    1398081 HIT:     285022 MISS:    1113059 MSHR_MERGE:      34185
cpu0->LLC LOAD         ACCESS:     733499 HIT:      20934 MISS:     712565 MSHR_MERGE:       2193
cpu0->LLC RFO          ACCESS:       2158 HIT:        377 MISS:       1781 MSHR_MERGE:          0
cpu0->LLC PREFETCH     ACCESS:     480215 HIT:     128908 MISS:     351307 MSHR_MERGE:      31992
cpu0->LLC WRITE        ACCESS:     145512 HIT:     124353 MISS:      21159 MSHR_MERGE:          0
cpu0->LLC TRANSLATION  ACCESS:      36697 HIT:      10450 MISS:      26247 MSHR_MERGE:          0
cpu0->LLC PREFETCH REQUESTED:          0 ISSUED:          0 USEFUL:          0 USELESS:          0 LATE:          0
cpu0->LLC AVERAGE MISS LATENCY: 297.1 cycles

DRAM Statistics

Channel 0 RQ ROW_BUFFER_HIT:      43923
  ROW_BUFFER_MISS:    1013790
  AVG DBUS CONGESTED CYCLE: 3.919
Channel 0 WQ ROW_BUFFER_HIT:       3479
  ROW_BUFFER_MISS:      72041
  FULL:          0
Channel 0 REFRESHES ISSUED:      13975

[ROI Statistics]
[System Configuration]
num_cpus 1
cpu_freq 4000
fetch_width 6
decode_width 6
dispatch_width 6
execute_width 6
lq_width 2
sq_width 2
retire_width 6
scheduler_size 128
branch_mispredict_penalty 15
rob_size 352
lq_size 128
sq_size 72
ifetch_buffer_size 64
decode_buffer_size 32
dispatch_buffer_size 32
register_file_size 288
decode_latency 1
dispatch_latency 1
schedule_latency 1
execute_latency 1
page_size 4096
block_size 64
core_0_itlb_set 16
core_0_itlb_way 4
core_0_itlb_rq_size 16
core_0_itlb_wq_size 16
core_0_itlb_pq_size 0
core_0_itlb_mshr_size 8
core_0_itlb_hit_latency 1
core_0_itlb_fill_latency 1
core_0_itlb_max_tag_check 2
core_0_itlb_max_fill 2
core_0_dtlb_set 16
core_0_dtlb_way 4
core_0_dtlb_rq_size 16
core_0_dtlb_wq_size 16
core_0_dtlb_pq_size 0
core_0_dtlb_mshr_size 8
core_0_dtlb_hit_latency 1
core_0_dtlb_fill_latency 1
core_0_dtlb_max_tag_check 2
core_0_dtlb_max_fill 2
core_0_stlb_set 128
core_0_stlb_way 12
core_0_stlb_rq_size 32
core_0_stlb_wq_size 32
core_0_stlb_pq_size 0
core_0_stlb_mshr_size 16
core_0_stlb_hit_latency 4
core_0_stlb_fill_latency 4
core_0_stlb_max_tag_check 1
core_0_stlb_max_fill 1
core_0_l1i_set 64
core_0_l1i_way 8
core_0_l1i_rq_size 64
core_0_l1i_wq_size 64
core_0_l1i_pq_size 32
core_0_l1i_mshr_size 8
core_0_l1i_hit_latency 2
core_0_l1i_fill_latency 2
core_0_l1i_max_tag_check 2
core_0_l1i_max_fill 2
core_0_l1d_set 64
core_0_l1d_way 12
core_0_l1d_rq_size 64
core_0_l1d_wq_size 64
core_0_l1d_pq_size 8
core_0_l1d_mshr_size 16
core_0_l1d_hit_latency 2
core_0_l1d_fill_latency 3
core_0_l1d_max_tag_check 2
core_0_l1d_max_fill 2
core_0_l2c_set 1024
core_0_l2c_way 8
core_0_l2c_rq_size 32
core_0_l2c_wq_size 32
core_0_l2c_pq_size 16
core_0_l2c_mshr_size 32
core_0_l2c_hit_latency 5
core_0_l2c_fill_latency 5
core_0_l2c_max_tag_check 1
core_0_l2c_max_fill 1
llc_set 2048
llc_way 16
llc_rq_size 32
llc_wq_size 32
llc_pq_size 32
llc_mshr_size 64
llc_hit_latency 10
llc_fill_latency 10
llc_max_tag_check 1
llc_max_fill 1
dram_channels 1
dram_ranks 1
dram_bankgroups 8
dram_banks 4
dram_rows 65536
dram_columns 1024
dram_channel_width 8
dram_rq_size 64
dram_wq_size 64
dram_size 17179869184
core_0_itlb_prefetcher no
core_0_dtlb_prefetcher no
core_0_stlb_prefetcher no
core_0_l1i_prefetcher next_line
core_0_l1d_prefetcher vberti
core_0_l2c_prefetcher ip_stride
llc_prefetcher no
llc_replacement drrip

Core_0_instructions 100000000
Core_0_cycles 167699330
Core_0_IPC 0.596305
Core_0_branch_prediction_accuracy 81.8171
Core_0_branch_MPKI 44.1768
Core_0_average_ROB_occupancy_at_mispredict 6.36586

Core_0_ITLB_total_access 1268453
Core_0_ITLB_total_hit 1268452
Core_0_ITLB_total_miss 1
Core_0_ITLB_total_MPKI 1e-05
Core_0_ITLB_total_miss_rate 7.88362e-07
Core_0_ITLB_demand_access 1268453
Core_0_ITLB_demand_hit 1268452
Core_0_ITLB_demand_miss 1
Core_0_ITLB_demand_MPKI 1e-05
Core_0_ITLB_demand_miss_rate 7.88362e-07
Core_0_ITLB_load_access 1268453
Core_0_ITLB_load_hit 1268452
Core_0_ITLB_load_miss 1
Core_0_ITLB_load_MPKI 1e-05
Core_0_ITLB_load_miss_rate 7.88362e-07
Core_0_ITLB_rfo_access 0
Core_0_ITLB_rfo_hit 0
Core_0_ITLB_rfo_miss 0
Core_0_ITLB_rfo_MPKI 0
Core_0_ITLB_rfo_miss_rate 0
Core_0_ITLB_prefetch_access 0
Core_0_ITLB_prefetch_hit 0
Core_0_ITLB_prefetch_miss 0
Core_0_ITLB_prefetch_MPKI 0
Core_0_ITLB_prefetch_miss_rate 0
Core_0_ITLB_writeback_access 0
Core_0_ITLB_writeback_hit 0
Core_0_ITLB_writeback_miss 0
Core_0_ITLB_writeback_MPKI 0
Core_0_ITLB_writeback_miss_rate 0
Core_0_ITLB_prefetch_requested 0
Core_0_ITLB_prefetch_issued 0
Core_0_ITLB_prefetch_useful 0
Core_0_ITLB_prefetch_useless 0
Core_0_ITLB_prefetch_late 0
Core_0_ITLB_prefetch_accuracy 0
Core_0_ITLB_prefetch_coverage 0
Core_0_ITLB_total_eviction 0

Core_0_DTLB_total_access 48517473
Core_0_DTLB_total_hit 47949667
Core_0_DTLB_total_miss 567806
Core_0_DTLB_total_MPKI 5.67806
Core_0_DTLB_total_miss_rate 0.0117031
Core_0_DTLB_demand_access 48517473
Core_0_DTLB_demand_hit 47949667
Core_0_DTLB_demand_miss 567806
Core_0_DTLB_demand_MPKI 5.67806
Core_0_DTLB_demand_miss_rate 0.0117031
Core_0_DTLB_load_access 48517473
Core_0_DTLB_load_hit 47949667
Core_0_DTLB_load_miss 567806
Core_0_DTLB_load_MPKI 5.67806
Core_0_DTLB_load_miss_rate 0.0117031
Core_0_DTLB_rfo_access 0
Core_0_DTLB_rfo_hit 0
Core_0_DTLB_rfo_miss 0
Core_0_DTLB_rfo_MPKI 0
Core_0_DTLB_rfo_miss_rate 0
Core_0_DTLB_prefetch_access 0
Core_0_DTLB_prefetch_hit 0
Core_0_DTLB_prefetch_miss 0
Core_0_DTLB_prefetch_MPKI 0
Core_0_DTLB_prefetch_miss_rate 0
Core_0_DTLB_writeback_access 0
Core_0_DTLB_writeback_hit 0
Core_0_DTLB_writeback_miss 0
Core_0_DTLB_writeback_MPKI 0
Core_0_DTLB_writeback_miss_rate 0
Core_0_DTLB_prefetch_requested 0
Core_0_DTLB_prefetch_issued 0
Core_0_DTLB_prefetch_useful 0
Core_0_DTLB_prefetch_useless 0
Core_0_DTLB_prefetch_late 0
Core_0_DTLB_prefetch_accuracy 0
Core_0_DTLB_prefetch_coverage 0
Core_0_DTLB_total_eviction 453646

Core_0_STLB_total_access 453647
Core_0_STLB_total_hit 399429
Core_0_STLB_total_miss 54218
Core_0_STLB_total_MPKI 0.54218
Core_0_STLB_total_miss_rate 0.119516
Core_0_STLB_demand_access 453647
Core_0_STLB_demand_hit 399429
Core_0_STLB_demand_miss 54218
Core_0_STLB_demand_MPKI 0.54218
Core_0_STLB_demand_miss_rate 0.119516
Core_0_STLB_load_access 453647
Core_0_STLB_load_hit 399429
Core_0_STLB_load_miss 54218
Core_0_STLB_load_MPKI 0.54218
Core_0_STLB_load_miss_rate 0.119516
Core_0_STLB_rfo_access 0
Core_0_STLB_rfo_hit 0
Core_0_STLB_rfo_miss 0
Core_0_STLB_rfo_MPKI 0
Core_0_STLB_rfo_miss_rate 0
Core_0_STLB_prefetch_access 0
Core_0_STLB_prefetch_hit 0
Core_0_STLB_prefetch_miss 0
Core_0_STLB_prefetch_MPKI 0
Core_0_STLB_prefetch_miss_rate 0
Core_0_STLB_writeback_access 0
Core_0_STLB_writeback_hit 0
Core_0_STLB_writeback_miss 0
Core_0_STLB_writeback_MPKI 0
Core_0_STLB_writeback_miss_rate 0
Core_0_STLB_prefetch_requested 0
Core_0_STLB_prefetch_issued 0
Core_0_STLB_prefetch_useful 0
Core_0_STLB_prefetch_useless 0
Core_0_STLB_prefetch_late 0
Core_0_STLB_prefetch_accuracy 0
Core_0_STLB_prefetch_coverage 0
Core_0_STLB_total_eviction 434448

Core_0_L1I_total_access 1307596
Core_0_L1I_total_hit 1307590
Core_0_L1I_total_miss 6
Core_0_L1I_total_MPKI 6e-05
Core_0_L1I_total_miss_rate 4.58857e-06
Core_0_L1I_demand_access 1307596
Core_0_L1I_demand_hit 1307590
Core_0_L1I_demand_miss 6
Core_0_L1I_demand_MPKI 6e-05
Core_0_L1I_demand_miss_rate 4.58857e-06
Core_0_L1I_load_access 1307596
Core_0_L1I_load_hit 1307590
Core_0_L1I_load_miss 6
Core_0_L1I_load_MPKI 6e-05
Core_0_L1I_load_miss_rate 4.58857e-06
Core_0_L1I_rfo_access 0
Core_0_L1I_rfo_hit 0
Core_0_L1I_rfo_miss 0
Core_0_L1I_rfo_MPKI 0
Core_0_L1I_rfo_miss_rate 0
Core_0_L1I_prefetch_access 0
Core_0_L1I_prefetch_hit 0
Core_0_L1I_prefetch_miss 0
Core_0_L1I_prefetch_MPKI 0
Core_0_L1I_prefetch_miss_rate 0
Core_0_L1I_writeback_access 0
Core_0_L1I_writeback_hit 0
Core_0_L1I_writeback_miss 0
Core_0_L1I_writeback_MPKI 0
Core_0_L1I_writeback_miss_rate 0
Core_0_L1I_prefetch_requested 0
Core_0_L1I_prefetch_issued 0
Core_0_L1I_prefetch_useful 0
Core_0_L1I_prefetch_useless 0
Core_0_L1I_prefetch_late 0
Core_0_L1I_prefetch_accuracy 0
Core_0_L1I_prefetch_coverage 0
Core_0_L1I_total_eviction 0

Core_0_L1D_total_access 66485838
Core_0_L1D_total_hit 63410249
Core_0_L1D_total_miss 3075589
Core_0_L1D_total_MPKI 30.7559
Core_0_L1D_total_miss_rate 0.0462593
Core_0_L1D_demand_access 17028599
Core_0_L1D_demand_hit 16204468
Core_0_L1D_demand_miss 824131
Core_0_L1D_demand_MPKI 8.24131
Core_0_L1D_demand_miss_rate 0.0483969
Core_0_L1D_load_access 17028599
Core_0_L1D_load_hit 16204468
Core_0_L1D_load_miss 824131
Core_0_L1D_load_MPKI 8.24131
Core_0_L1D_load_miss_rate 0.0483969
Core_0_L1D_rfo_access 0
Core_0_L1D_rfo_hit 0
Core_0_L1D_rfo_miss 0
Core_0_L1D_rfo_MPKI 0
Core_0_L1D_rfo_miss_rate 0
Core_0_L1D_prefetch_access 40363586
Core_0_L1D_prefetch_hit 38152949
Core_0_L1D_prefetch_miss 2210637
Core_0_L1D_prefetch_MPKI 22.1064
Core_0_L1D_prefetch_miss_rate 0.0547681
Core_0_L1D_writeback_access 9093653
Core_0_L1D_writeback_hit 9052832
Core_0_L1D_writeback_miss 40821
Core_0_L1D_writeback_MPKI 0.40821
Core_0_L1D_writeback_miss_rate 0.00448896
Core_0_L1D_prefetch_requested 150653010
Core_0_L1D_prefetch_issued 40363587
Core_0_L1D_prefetch_useful 297961
Core_0_L1D_prefetch_useless 23269
Core_0_L1D_prefetch_late 2372
Core_0_L1D_prefetch_accuracy 0.00738193
Core_0_L1D_prefetch_coverage 0.265541
Core_0_L1D_total_eviction 1161824

Core_0_L2C_total_access 4071435
Core_0_L2C_total_hit 2683535
Core_0_L2C_total_miss 1387900
Core_0_L2C_total_MPKI 13.879
Core_0_L2C_total_miss_rate 0.340887
Core_0_L2C_demand_access 796749
Core_0_L2C_demand_hit 53306
Core_0_L2C_demand_miss 743443
Core_0_L2C_demand_MPKI 7.43443
Core_0_L2C_demand_miss_rate 0.933096
Core_0_L2C_load_access 788687
Core_0_L2C_load_hit 48020
Core_0_L2C_load_miss 740667
Core_0_L2C_load_MPKI 7.40667
Core_0_L2C_load_miss_rate 0.939114
Core_0_L2C_rfo_access 8062
Core_0_L2C_rfo_hit 5286
Core_0_L2C_rfo_miss 2776
Core_0_L2C_rfo_MPKI 0.02776
Core_0_L2C_rfo_miss_rate 0.344331
Core_0_L2C_prefetch_access 3006927
Core_0_L2C_prefetch_hit 2362499
Core_0_L2C_prefetch_miss 644428
Core_0_L2C_prefetch_MPKI 6.44428
Core_0_L2C_prefetch_miss_rate 0.214314
Core_0_L2C_writeback_access 267759
Core_0_L2C_writeback_hit 267730
Core_0_L2C_writeback_miss 29
Core_0_L2C_writeback_MPKI 0.00029
Core_0_L2C_writeback_miss_rate 0.000108306
Core_0_L2C_prefetch_requested 865926
Core_0_L2C_prefetch_issued 865150
Core_0_L2C_prefetch_useful 89991
Core_0_L2C_prefetch_useless 12589
Core_0_L2C_prefetch_late 764
Core_0_L2C_prefetch_accuracy 0.104018
Core_0_L2C_prefetch_coverage 0.107976
Core_0_L2C_total_eviction 1153751

Core_0_LLC_total_access 1361384
Core_0_LLC_total_hit 274572
Core_0_LLC_total_miss 1086812
Core_0_LLC_total_MPKI 10.8681
Core_0_LLC_total_miss_rate 0.798314
Core_0_LLC_demand_access 735657
Core_0_LLC_demand_hit 21311
Core_0_LLC_demand_miss 714346
Core_0_LLC_demand_MPKI 7.14346
Core_0_LLC_demand_miss_rate 0.971031
Core_0_LLC_load_access 733499
Core_0_LLC_load_hit 20934
Core_0_LLC_load_miss 712565
Core_0_LLC_load_MPKI 7.12565
Core_0_LLC_load_miss_rate 0.97146
Core_0_LLC_rfo_access 2158
Core_0_LLC_rfo_hit 377
Core_0_LLC_rfo_miss 1781
Core_0_LLC_rfo_MPKI 0.01781
Core_0_LLC_rfo_miss_rate 0.825301
Core_0_LLC_prefetch_access 480215
Core_0_LLC_prefetch_hit 128908
Core_0_LLC_prefetch_miss 351307
Core_0_LLC_prefetch_MPKI 3.51307
Core_0_LLC_prefetch_miss_rate 0.731562
Core_0_LLC_writeback_access 145512
Core_0_LLC_writeback_hit 124353
Core_0_LLC_writeback_miss 21159
Core_0_LLC_writeback_MPKI 0.21159
Core_0_LLC_writeback_miss_rate 0.145411
Core_0_LLC_prefetch_requested 0
Core_0_LLC_prefetch_issued 0
Core_0_LLC_prefetch_useful 0
Core_0_LLC_prefetch_useless 0
Core_0_LLC_prefetch_late 0
Core_0_LLC_prefetch_accuracy 0
Core_0_LLC_prefetch_coverage 0
Core_0_LLC_total_eviction 1078874

[DRAM Statistics]
Channel_0_RQ_row_buffer_hit 43923
Channel_0_RQ_row_buffer_miss 1013790
Channel_0_WQ_row_buffer_hit 3479
Channel_0_WQ_row_buffer_miss 72041
Channel_0_WQ_full 0
Channel_0_dbus_congested 2324751
DRAM_total_RQ_row_buffer_hit 43923
DRAM_total_RQ_row_buffer_miss 1013790
DRAM_total_WQ_row_buffer_hit 3479
DRAM_total_WQ_row_buffer_miss 72041
DRAM_total_WQ_full 0
DRAM_total_dbus_congested 2324751
DRAM_avg_congested_cycle 3.91884

======STLB miss causes ========
Core_0_STLB_miss_cause_breakdown
Core_0_STLB_cause_Demand_Data_miss 0
Core_0_STLB_cause_Demand_Data_miss_rate 0
Core_0_STLB_cause_Demand_Instruction_miss 0
Core_0_STLB_cause_Demand_Instruction_miss_rate 0
Core_0_STLB_cause_L1D_Prefetch_miss 54218
Core_0_STLB_cause_L1D_Prefetch_miss_rate 0.119516
Core_0_STLB_cause_L1I_Prefetch_miss 0
Core_0_STLB_cause_L1I_Prefetch_miss_rate 0
Core_0_STLB_cause_Other_miss 0
Core_0_STLB_cause_Other_miss_rate 0
Core_0_STLB_Demand_miss 0
Core_0_STLB_Demand_miss_rate 0
Core_0_STLB_L1D_Prefetch_miss 54218
Core_0_STLB_L1D_Prefetch_miss_rate 0.119516
Core_0_STLB_Other_miss 0
Core_0_STLB_Other_miss_rate 0
BERTI TO_L1: 122789440 TO_L2: 63315278 TO_L2_BC_MSHR: 15929185
BERTI AVG_LAT: 181.336 NUM_TRACK_LATENCY: 1580448 NUM_CANT_TRACK_LATENCY: 1
BERTI CROSS_PAGE 28307440 NO_CROSS_PAGE: 157797278
BERTI FOUND_BERTI: 32240811 NO_FOUND_BERTI: 17681892
BERTI AVERAGE_ISSUED: 3.51608
