[VMEM] WARNING: physical memory size is smaller than virtual memory size.

*** ChampSim Multicore Out-of-Order Simulator ***
Warmup Instructions: 50000000
Simulation Instructions: 100000000
Number of CPUs: 1
Page size: 4096
STLB ideal mode: demand
STLB ideal fill: on
Core 0: /data2/zcq/champsim_traces_xsbench/xs.XXL100hash-94B.champsimtrace.xz
VBerti Prefetcher
BERTI HASH ENTANGLING
BERTI IP MASK ffff
Off-chip DRAM Size: 16 GiB Channels: 1 Width: 64-bit Data Rate: 3205 MT/s
Warmup halting CPU 0 at instruction 50000005 cycle 12382455 for remainder of phase
Warmup finished CPU 0 instructions: 50000005 cycles: 12382455 cumulative IPC: 4.038 (Simulation time: 00 hr 02 min 34 sec)
Warmup complete CPU 0 instructions: 50000005 cycles: 12382455 cumulative IPC: 4.038 (Simulation time: 00 hr 02 min 34 sec)
Simulation finished CPU 0 instructions: 100000000 cycles: 197452137 cumulative IPC: 0.5065 (Simulation time: 00 hr 19 min 15 sec)
Simulation complete CPU 0 instructions: 100000000 cycles: 197452137 cumulative IPC: 0.5065 (Simulation time: 00 hr 19 min 15 sec)

ChampSim completed all CPUs

=== Simulation ===
CPU 0 runs /data2/zcq/champsim_traces_xsbench/xs.XXL100hash-94B.champsimtrace.xz

Region of Interest Statistics

CPU 0 cumulative IPC: 0.5065 instructions: 100000000 cycles: 197452137
CPU 0 Branch Prediction Accuracy: 92.62% MPKI: 17.95 Average ROB Occupancy at Mispredict: 28.75
Branch type MPKI
BRANCH_DIRECT_JUMP: 0
BRANCH_INDIRECT: 0
BRANCH_CONDITIONAL: 17.95
BRANCH_DIRECT_CALL: 0
BRANCH_INDIRECT_CALL: 1e-05
BRANCH_RETURN: 0.00071

cpu0->cpu0_STLB TOTAL        ACCESS:    1039141 HIT:    1033142 MISS:       5999 MSHR_MERGE:          0
cpu0->cpu0_STLB LOAD         ACCESS:    1039141 HIT:    1033142 MISS:       5999 MSHR_MERGE:          0
cpu0->cpu0_STLB RFO          ACCESS:          0 HIT:          0 MISS:          0 MSHR_MERGE:          0
cpu0->cpu0_STLB PREFETCH     ACCESS:          0 HIT:          0 MISS:          0 MSHR_MERGE:          0
cpu0->cpu0_STLB WRITE        ACCESS:          0 HIT:          0 MISS:          0 MSHR_MERGE:          0
cpu0->cpu0_STLB TRANSLATION  ACCESS:          0 HIT:          0 MISS:          0 MSHR_MERGE:          0
cpu0->cpu0_STLB PREFETCH REQUESTED:          0 ISSUED:          0 USEFUL:          0 USELESS:          0 LATE:          0
cpu0->cpu0_STLB AVERAGE MISS LATENCY: 155.5 cycles
cpu0->cpu0_L2C TOTAL        ACCESS:    8470749 HIT:    6453832 MISS:    2016917 MSHR_MERGE:     248400
cpu0->cpu0_L2C LOAD         ACCESS:    1899863 HIT:     757329 MISS:    1142534 MSHR_MERGE:      39068
cpu0->cpu0_L2C RFO          ACCESS:      82081 HIT:      59087 MISS:      22994 MSHR_MERGE:       2505
cpu0->cpu0_L2C PREFETCH     ACCESS:    6011654 HIT:    5161200 MISS:     850454 MSHR_MERGE:     206827
cpu0->cpu0_L2C WRITE        ACCESS:     474764 HIT:     474698 MISS:         66 MSHR_MERGE:          0
cpu0->cpu0_L2C TRANSLATION  ACCESS:       2387 HIT:       1518 MISS:        869 MSHR_MERGE:          0
cpu0->cpu0_L2C PREFETCH REQUESTED:    1590453 ISSUED:    1549429 USEFUL:     201649 USELESS:       2596 LATE:      35473
cpu0->cpu0_L2C AVERAGE MISS LATENCY: 154.1 cycles
cpu0->cpu0_L1I TOTAL        ACCESS:    1433860 HIT:    1433860 MISS:          0 MSHR_MERGE:          0
cpu0->cpu0_L1I LOAD         ACCESS:    1433860 HIT:    1433860 MISS:          0 MSHR_MERGE:          0
cpu0->cpu0_L1I RFO          ACCESS:          0 HIT:          0 MISS:          0 MSHR_MERGE:          0
cpu0->cpu0_L1I PREFETCH     ACCESS:          0 HIT:          0 MISS:          0 MSHR_MERGE:          0
cpu0->cpu0_L1I WRITE        ACCESS:          0 HIT:          0 MISS:          0 MSHR_MERGE:          0
cpu0->cpu0_L1I TRANSLATION  ACCESS:          0 HIT:          0 MISS:          0 MSHR_MERGE:          0
cpu0->cpu0_L1I PREFETCH REQUESTED:          0 ISSUED:          0 USEFUL:          0 USELESS:          0 LATE:          0
cpu0->cpu0_L1I AVERAGE MISS LATENCY: - cycles
cpu0->cpu0_L1D TOTAL        ACCESS:   72705362 HIT:   65626872 MISS:    7078490 MSHR_MERGE:     612256
cpu0->cpu0_L1D LOAD         ACCESS:   23128201 HIT:   20900762 MISS:    2227439 MSHR_MERGE:     327576
cpu0->cpu0_L1D RFO          ACCESS:          0 HIT:          0 MISS:          0 MSHR_MERGE:          0
cpu0->cpu0_L1D PREFETCH     ACCESS:   37143906 HIT:   32641741 MISS:    4502165 MSHR_MERGE:      20262
cpu0->cpu0_L1D WRITE        ACCESS:   12421250 HIT:   12074751 MISS:     346499 MSHR_MERGE:     264418
cpu0->cpu0_L1D TRANSLATION  ACCESS:      12005 HIT:       9618 MISS:       2387 MSHR_MERGE:          0
cpu0->cpu0_L1D PREFETCH REQUESTED:  147784990 ISSUED:   37143898 USEFUL:     688477 USELESS:      12070 LATE:      15973
cpu0->cpu0_L1D AVERAGE MISS LATENCY: 100.1 cycles
cpu0->cpu0_ITLB TOTAL        ACCESS:    1360300 HIT:    1360300 MISS:          0 MSHR_MERGE:          0
cpu0->cpu0_ITLB LOAD         ACCESS:    1360300 HIT:    1360300 MISS:          0 MSHR_MERGE:          0
cpu0->cpu0_ITLB RFO          ACCESS:          0 HIT:          0 MISS:          0 MSHR_MERGE:          0
cpu0->cpu0_ITLB PREFETCH     ACCESS:          0 HIT:          0 MISS:          0 MSHR_MERGE:          0
cpu0->cpu0_ITLB WRITE        ACCESS:          0 HIT:          0 MISS:          0 MSHR_MERGE:          0
cpu0->cpu0_ITLB TRANSLATION  ACCESS:          0 HIT:          0 MISS:          0 MSHR_MERGE:          0
cpu0->cpu0_ITLB PREFETCH REQUESTED:          0 ISSUED:          0 USEFUL:          0 USELESS:          0 LATE:          0
cpu0->cpu0_ITLB AVERAGE MISS LATENCY: - cycles
cpu0->cpu0_DTLB TOTAL        ACCESS:   58032937 HIT:   56958132 MISS:    1074805 MSHR_MERGE:      35665
cpu0->cpu0_DTLB LOAD         ACCESS:   58032937 HIT:   56958132 MISS:    1074805 MSHR_MERGE:      35665
cpu0->cpu0_DTLB RFO          ACCESS:          0 HIT:          0 MISS:          0 MSHR_MERGE:          0
cpu0->cpu0_DTLB PREFETCH     ACCESS:          0 HIT:          0 MISS:          0 MSHR_MERGE:          0
cpu0->cpu0_DTLB WRITE        ACCESS:          0 HIT:          0 MISS:          0 MSHR_MERGE:          0
cpu0->cpu0_DTLB TRANSLATION  ACCESS:          0 HIT:          0 MISS:          0 MSHR_MERGE:          0
cpu0->cpu0_DTLB PREFETCH REQUESTED:          0 ISSUED:          0 USEFUL:          0 USELESS:          0 LATE:          0
cpu0->cpu0_DTLB AVERAGE MISS LATENCY: 5.909 cycles
cpu0->LLC TOTAL        ACCESS:    2081494 HIT:     823991 MISS:    1257503 MSHR_MERGE:      22881
cpu0->LLC LOAD         ACCESS:    1103465 HIT:     395199 MISS:     708266 MSHR_MERGE:       4728
cpu0->LLC RFO          ACCESS:      20489 HIT:       9119 MISS:      11370 MSHR_MERGE:        160
cpu0->LLC PREFETCH     ACCESS:     643608 HIT:     205742 MISS:     437866 MSHR_MERGE:      17993
cpu0->LLC WRITE        ACCESS:     313063 HIT:     213910 MISS:      99153 MSHR_MERGE:          0
cpu0->LLC TRANSLATION  ACCESS:        869 HIT:         21 MISS:        848 MSHR_MERGE:          0
cpu0->LLC PREFETCH REQUESTED:          0 ISSUED:          0 USEFUL:          0 USELESS:          0 LATE:          0
cpu0->LLC AVERAGE MISS LATENCY: 186.8 cycles

DRAM Statistics

Channel 0 RQ ROW_BUFFER_HIT:      26772
  ROW_BUFFER_MISS:    1107902
  AVG DBUS CONGESTED CYCLE: 11.82
Channel 0 WQ ROW_BUFFER_HIT:      40388
  ROW_BUFFER_MISS:     143962
  FULL:        356
Channel 0 REFRESHES ISSUED:      16455

[ROI Statistics]
[System Configuration]
num_cpus 1
cpu_freq 4000
fetch_width 6
decode_width 6
dispatch_width 6
execute_width 6
lq_width 2
sq_width 2
retire_width 6
scheduler_size 128
branch_mispredict_penalty 15
rob_size 352
lq_size 128
sq_size 72
ifetch_buffer_size 64
decode_buffer_size 32
dispatch_buffer_size 32
register_file_size 288
decode_latency 1
dispatch_latency 1
schedule_latency 1
execute_latency 1
page_size 4096
block_size 64
core_0_itlb_set 16
core_0_itlb_way 4
core_0_itlb_rq_size 16
core_0_itlb_wq_size 16
core_0_itlb_pq_size 0
core_0_itlb_mshr_size 8
core_0_itlb_hit_latency 1
core_0_itlb_fill_latency 1
core_0_itlb_max_tag_check 2
core_0_itlb_max_fill 2
core_0_dtlb_set 16
core_0_dtlb_way 4
core_0_dtlb_rq_size 16
core_0_dtlb_wq_size 16
core_0_dtlb_pq_size 0
core_0_dtlb_mshr_size 8
core_0_dtlb_hit_latency 1
core_0_dtlb_fill_latency 1
core_0_dtlb_max_tag_check 2
core_0_dtlb_max_fill 2
core_0_stlb_set 128
core_0_stlb_way 12
core_0_stlb_rq_size 32
core_0_stlb_wq_size 32
core_0_stlb_pq_size 0
core_0_stlb_mshr_size 16
core_0_stlb_hit_latency 4
core_0_stlb_fill_latency 4
core_0_stlb_max_tag_check 1
core_0_stlb_max_fill 1
core_0_l1i_set 64
core_0_l1i_way 8
core_0_l1i_rq_size 64
core_0_l1i_wq_size 64
core_0_l1i_pq_size 32
core_0_l1i_mshr_size 8
core_0_l1i_hit_latency 2
core_0_l1i_fill_latency 2
core_0_l1i_max_tag_check 2
core_0_l1i_max_fill 2
core_0_l1d_set 64
core_0_l1d_way 12
core_0_l1d_rq_size 64
core_0_l1d_wq_size 64
core_0_l1d_pq_size 8
core_0_l1d_mshr_size 16
core_0_l1d_hit_latency 2
core_0_l1d_fill_latency 3
core_0_l1d_max_tag_check 2
core_0_l1d_max_fill 2
core_0_l2c_set 1024
core_0_l2c_way 8
core_0_l2c_rq_size 32
core_0_l2c_wq_size 32
core_0_l2c_pq_size 16
core_0_l2c_mshr_size 32
core_0_l2c_hit_latency 5
core_0_l2c_fill_latency 5
core_0_l2c_max_tag_check 1
core_0_l2c_max_fill 1
llc_set 2048
llc_way 16
llc_rq_size 32
llc_wq_size 32
llc_pq_size 32
llc_mshr_size 64
llc_hit_latency 10
llc_fill_latency 10
llc_max_tag_check 1
llc_max_fill 1
dram_channels 1
dram_ranks 1
dram_bankgroups 8
dram_banks 4
dram_rows 65536
dram_columns 1024
dram_channel_width 8
dram_rq_size 64
dram_wq_size 64
dram_size 17179869184
core_0_itlb_prefetcher no
core_0_dtlb_prefetcher no
core_0_stlb_prefetcher no
core_0_l1i_prefetcher next_line
core_0_l1d_prefetcher vberti
core_0_l2c_prefetcher ip_stride
llc_prefetcher no
llc_replacement drrip

Core_0_instructions 100000000
Core_0_cycles 197452137
Core_0_IPC 0.506452
Core_0_branch_prediction_accuracy 92.6239
Core_0_branch_MPKI 17.9488
Core_0_average_ROB_occupancy_at_mispredict 28.7453

Core_0_ITLB_total_access 1360300
Core_0_ITLB_total_hit 1360300
Core_0_ITLB_total_miss 0
Core_0_ITLB_total_MPKI 0
Core_0_ITLB_total_miss_rate 0
Core_0_ITLB_demand_access 1360300
Core_0_ITLB_demand_hit 1360300
Core_0_ITLB_demand_miss 0
Core_0_ITLB_demand_MPKI 0
Core_0_ITLB_demand_miss_rate 0
Core_0_ITLB_load_access 1360300
Core_0_ITLB_load_hit 1360300
Core_0_ITLB_load_miss 0
Core_0_ITLB_load_MPKI 0
Core_0_ITLB_load_miss_rate 0
Core_0_ITLB_rfo_access 0
Core_0_ITLB_rfo_hit 0
Core_0_ITLB_rfo_miss 0
Core_0_ITLB_rfo_MPKI 0
Core_0_ITLB_rfo_miss_rate 0
Core_0_ITLB_prefetch_access 0
Core_0_ITLB_prefetch_hit 0
Core_0_ITLB_prefetch_miss 0
Core_0_ITLB_prefetch_MPKI 0
Core_0_ITLB_prefetch_miss_rate 0
Core_0_ITLB_writeback_access 0
Core_0_ITLB_writeback_hit 0
Core_0_ITLB_writeback_miss 0
Core_0_ITLB_writeback_MPKI 0
Core_0_ITLB_writeback_miss_rate 0
Core_0_ITLB_prefetch_requested 0
Core_0_ITLB_prefetch_issued 0
Core_0_ITLB_prefetch_useful 0
Core_0_ITLB_prefetch_useless 0
Core_0_ITLB_prefetch_late 0
Core_0_ITLB_prefetch_accuracy 0
Core_0_ITLB_prefetch_coverage 0
Core_0_ITLB_total_eviction 0

Core_0_DTLB_total_access 58032937
Core_0_DTLB_total_hit 56958132
Core_0_DTLB_total_miss 1074805
Core_0_DTLB_total_MPKI 10.748
Core_0_DTLB_total_miss_rate 0.0185206
Core_0_DTLB_demand_access 58032937
Core_0_DTLB_demand_hit 56958132
Core_0_DTLB_demand_miss 1074805
Core_0_DTLB_demand_MPKI 10.748
Core_0_DTLB_demand_miss_rate 0.0185206
Core_0_DTLB_load_access 58032937
Core_0_DTLB_load_hit 56958132
Core_0_DTLB_load_miss 1074805
Core_0_DTLB_load_MPKI 10.748
Core_0_DTLB_load_miss_rate 0.0185206
Core_0_DTLB_rfo_access 0
Core_0_DTLB_rfo_hit 0
Core_0_DTLB_rfo_miss 0
Core_0_DTLB_rfo_MPKI 0
Core_0_DTLB_rfo_miss_rate 0
Core_0_DTLB_prefetch_access 0
Core_0_DTLB_prefetch_hit 0
Core_0_DTLB_prefetch_miss 0
Core_0_DTLB_prefetch_MPKI 0
Core_0_DTLB_prefetch_miss_rate 0
Core_0_DTLB_writeback_access 0
Core_0_DTLB_writeback_hit 0
Core_0_DTLB_writeback_miss 0
Core_0_DTLB_writeback_MPKI 0
Core_0_DTLB_writeback_miss_rate 0
Core_0_DTLB_prefetch_requested 0
Core_0_DTLB_prefetch_issued 0
Core_0_DTLB_prefetch_useful 0
Core_0_DTLB_prefetch_useless 0
Core_0_DTLB_prefetch_late 0
Core_0_DTLB_prefetch_accuracy 0
Core_0_DTLB_prefetch_coverage 0
Core_0_DTLB_total_eviction 1039141

Core_0_STLB_total_access 1039141
Core_0_STLB_total_hit 1033142
Core_0_STLB_total_miss 5999
Core_0_STLB_total_MPKI 0.05999
Core_0_STLB_total_miss_rate 0.00577304
Core_0_STLB_demand_access 1039141
Core_0_STLB_demand_hit 1033142
Core_0_STLB_demand_miss 5999
Core_0_STLB_demand_MPKI 0.05999
Core_0_STLB_demand_miss_rate 0.00577304
Core_0_STLB_load_access 1039141
Core_0_STLB_load_hit 1033142
Core_0_STLB_load_miss 5999
Core_0_STLB_load_MPKI 0.05999
Core_0_STLB_load_miss_rate 0.00577304
Core_0_STLB_rfo_access 0
Core_0_STLB_rfo_hit 0
Core_0_STLB_rfo_miss 0
Core_0_STLB_rfo_MPKI 0
Core_0_STLB_rfo_miss_rate 0
Core_0_STLB_prefetch_access 0
Core_0_STLB_prefetch_hit 0
Core_0_STLB_prefetch_miss 0
Core_0_STLB_prefetch_MPKI 0
Core_0_STLB_prefetch_miss_rate 0
Core_0_STLB_writeback_access 0
Core_0_STLB_writeback_hit 0
Core_0_STLB_writeback_miss 0
Core_0_STLB_writeback_MPKI 0
Core_0_STLB_writeback_miss_rate 0
Core_0_STLB_prefetch_requested 0
Core_0_STLB_prefetch_issued 0
Core_0_STLB_prefetch_useful 0
Core_0_STLB_prefetch_useless 0
Core_0_STLB_prefetch_late 0
Core_0_STLB_prefetch_accuracy 0
Core_0_STLB_prefetch_coverage 0
Core_0_STLB_total_eviction 130998

Core_0_L1I_total_access 1433860
Core_0_L1I_total_hit 1433860
Core_0_L1I_total_miss 0
Core_0_L1I_total_MPKI 0
Core_0_L1I_total_miss_rate 0
Core_0_L1I_demand_access 1433860
Core_0_L1I_demand_hit 1433860
Core_0_L1I_demand_miss 0
Core_0_L1I_demand_MPKI 0
Core_0_L1I_demand_miss_rate 0
Core_0_L1I_load_access 1433860
Core_0_L1I_load_hit 1433860
Core_0_L1I_load_miss 0
Core_0_L1I_load_MPKI 0
Core_0_L1I_load_miss_rate 0
Core_0_L1I_rfo_access 0
Core_0_L1I_rfo_hit 0
Core_0_L1I_rfo_miss 0
Core_0_L1I_rfo_MPKI 0
Core_0_L1I_rfo_miss_rate 0
Core_0_L1I_prefetch_access 0
Core_0_L1I_prefetch_hit 0
Core_0_L1I_prefetch_miss 0
Core_0_L1I_prefetch_MPKI 0
Core_0_L1I_prefetch_miss_rate 0
Core_0_L1I_writeback_access 0
Core_0_L1I_writeback_hit 0
Core_0_L1I_writeback_miss 0
Core_0_L1I_writeback_MPKI 0
Core_0_L1I_writeback_miss_rate 0
Core_0_L1I_prefetch_requested 0
Core_0_L1I_prefetch_issued 0
Core_0_L1I_prefetch_useful 0
Core_0_L1I_prefetch_useless 0
Core_0_L1I_prefetch_late 0
Core_0_L1I_prefetch_accuracy 0
Core_0_L1I_prefetch_coverage 0
Core_0_L1I_total_eviction 0

Core_0_L1D_total_access 72693357
Core_0_L1D_total_hit 65617254
Core_0_L1D_total_miss 7076103
Core_0_L1D_total_MPKI 70.761
Core_0_L1D_total_miss_rate 0.0973418
Core_0_L1D_demand_access 23128201
Core_0_L1D_demand_hit 20900762
Core_0_L1D_demand_miss 2227439
Core_0_L1D_demand_MPKI 22.2744
Core_0_L1D_demand_miss_rate 0.0963084
Core_0_L1D_load_access 23128201
Core_0_L1D_load_hit 20900762
Core_0_L1D_load_miss 2227439
Core_0_L1D_load_MPKI 22.2744
Core_0_L1D_load_miss_rate 0.0963084
Core_0_L1D_rfo_access 0
Core_0_L1D_rfo_hit 0
Core_0_L1D_rfo_miss 0
Core_0_L1D_rfo_MPKI 0
Core_0_L1D_rfo_miss_rate 0
Core_0_L1D_prefetch_access 37143906
Core_0_L1D_prefetch_hit 32641741
Core_0_L1D_prefetch_miss 4502165
Core_0_L1D_prefetch_MPKI 45.0217
Core_0_L1D_prefetch_miss_rate 0.121209
Core_0_L1D_writeback_access 12421250
Core_0_L1D_writeback_hit 12074751
Core_0_L1D_writeback_miss 346499
Core_0_L1D_writeback_MPKI 3.46499
Core_0_L1D_writeback_miss_rate 0.0278957
Core_0_L1D_prefetch_requested 147784990
Core_0_L1D_prefetch_issued 37143898
Core_0_L1D_prefetch_useful 688477
Core_0_L1D_prefetch_useless 12070
Core_0_L1D_prefetch_late 15973
Core_0_L1D_prefetch_accuracy 0.0185354
Core_0_L1D_prefetch_coverage 0.23611
Core_0_L1D_total_eviction 2684883

Core_0_L2C_total_access 8468362
Core_0_L2C_total_hit 6452314
Core_0_L2C_total_miss 2016048
Core_0_L2C_total_MPKI 20.1605
Core_0_L2C_total_miss_rate 0.238068
Core_0_L2C_demand_access 1981944
Core_0_L2C_demand_hit 816416
Core_0_L2C_demand_miss 1165528
Core_0_L2C_demand_MPKI 11.6553
Core_0_L2C_demand_miss_rate 0.588073
Core_0_L2C_load_access 1899863
Core_0_L2C_load_hit 757329
Core_0_L2C_load_miss 1142534
Core_0_L2C_load_MPKI 11.4253
Core_0_L2C_load_miss_rate 0.601377
Core_0_L2C_rfo_access 82081
Core_0_L2C_rfo_hit 59087
Core_0_L2C_rfo_miss 22994
Core_0_L2C_rfo_MPKI 0.22994
Core_0_L2C_rfo_miss_rate 0.280138
Core_0_L2C_prefetch_access 6011654
Core_0_L2C_prefetch_hit 5161200
Core_0_L2C_prefetch_miss 850454
Core_0_L2C_prefetch_MPKI 8.50454
Core_0_L2C_prefetch_miss_rate 0.141468
Core_0_L2C_writeback_access 474764
Core_0_L2C_writeback_hit 474698
Core_0_L2C_writeback_miss 66
Core_0_L2C_writeback_MPKI 0.00066
Core_0_L2C_writeback_miss_rate 0.000139016
Core_0_L2C_prefetch_requested 1590453
Core_0_L2C_prefetch_issued 1549429
Core_0_L2C_prefetch_useful 201649
Core_0_L2C_prefetch_useless 2596
Core_0_L2C_prefetch_late 35473
Core_0_L2C_prefetch_accuracy 0.130144
Core_0_L2C_prefetch_coverage 0.147493
Core_0_L2C_total_eviction 1732823

Core_0_LLC_total_access 2080625
Core_0_LLC_total_hit 823970
Core_0_LLC_total_miss 1256655
Core_0_LLC_total_MPKI 12.5665
Core_0_LLC_total_miss_rate 0.60398
Core_0_LLC_demand_access 1123954
Core_0_LLC_demand_hit 404318
Core_0_LLC_demand_miss 719636
Core_0_LLC_demand_MPKI 7.19636
Core_0_LLC_demand_miss_rate 0.640272
Core_0_LLC_load_access 1103465
Core_0_LLC_load_hit 395199
Core_0_LLC_load_miss 708266
Core_0_LLC_load_MPKI 7.08266
Core_0_LLC_load_miss_rate 0.641856
Core_0_LLC_rfo_access 20489
Core_0_LLC_rfo_hit 9119
Core_0_LLC_rfo_miss 11370
Core_0_LLC_rfo_MPKI 0.1137
Core_0_LLC_rfo_miss_rate 0.554932
Core_0_LLC_prefetch_access 643608
Core_0_LLC_prefetch_hit 205742
Core_0_LLC_prefetch_miss 437866
Core_0_LLC_prefetch_MPKI 4.37866
Core_0_LLC_prefetch_miss_rate 0.68033
Core_0_LLC_writeback_access 313063
Core_0_LLC_writeback_hit 213910
Core_0_LLC_writeback_miss 99153
Core_0_LLC_writeback_MPKI 0.99153
Core_0_LLC_writeback_miss_rate 0.316719
Core_0_LLC_prefetch_requested 0
Core_0_LLC_prefetch_issued 0
Core_0_LLC_prefetch_useful 0
Core_0_LLC_prefetch_useless 0
Core_0_LLC_prefetch_late 0
Core_0_LLC_prefetch_accuracy 0
Core_0_LLC_prefetch_coverage 0
Core_0_LLC_total_eviction 1234622

[DRAM Statistics]
Channel_0_RQ_row_buffer_hit 26772
Channel_0_RQ_row_buffer_miss 1107902
Channel_0_WQ_row_buffer_hit 40388
Channel_0_WQ_row_buffer_miss 143962
Channel_0_WQ_full 356
Channel_0_dbus_congested 2888979
DRAM_total_RQ_row_buffer_hit 26772
DRAM_total_RQ_row_buffer_miss 1107902
DRAM_total_WQ_row_buffer_hit 40388
DRAM_total_WQ_row_buffer_miss 143962
DRAM_total_WQ_full 356
DRAM_total_dbus_congested 2888979
DRAM_avg_congested_cycle 11.825

======STLB miss causes ========
Core_0_STLB_miss_cause_breakdown
Core_0_STLB_cause_Demand_Data_miss 0
Core_0_STLB_cause_Demand_Data_miss_rate 0
Core_0_STLB_cause_Demand_Instruction_miss 0
Core_0_STLB_cause_Demand_Instruction_miss_rate 0
Core_0_STLB_cause_L1D_Prefetch_miss 5999
Core_0_STLB_cause_L1D_Prefetch_miss_rate 0.00577304
Core_0_STLB_cause_L1I_Prefetch_miss 0
Core_0_STLB_cause_L1I_Prefetch_miss_rate 0
Core_0_STLB_cause_Other_miss 0
Core_0_STLB_cause_Other_miss_rate 0
Core_0_STLB_Demand_miss 0
Core_0_STLB_Demand_miss_rate 0
Core_0_STLB_L1D_Prefetch_miss 5999
Core_0_STLB_L1D_Prefetch_miss_rate 0.00577304
Core_0_STLB_Other_miss 0
Core_0_STLB_Other_miss_rate 0
BERTI TO_L1: 98921030 TO_L2: 100958936 TO_L2_BC_MSHR: 2447548
BERTI AVG_LAT: 71.6001 NUM_TRACK_LATENCY: 3744668 NUM_CANT_TRACK_LATENCY: 112
BERTI CROSS_PAGE 23606050 NO_CROSS_PAGE: 176273916
BERTI FOUND_BERTI: 35282534 NO_FOUND_BERTI: 12496759
BERTI AVERAGE_ISSUED: 3.00936
