[VMEM] WARNING: physical memory size is smaller than virtual memory size.

*** ChampSim Multicore Out-of-Order Simulator ***
Warmup Instructions: 50000000
Simulation Instructions: 100000000
Number of CPUs: 1
Page size: 4096
STLB ideal mode: demand
STLB ideal fill: on
Core 0: /data2/zcq/champsim_traces_xsbench/xs.XL64unionized-28B.champsimtrace.xz
VBerti Prefetcher
BERTI HASH ENTANGLING
BERTI IP MASK ffff
Off-chip DRAM Size: 16 GiB Channels: 1 Width: 64-bit Data Rate: 3205 MT/s
Warmup halting CPU 0 at instruction 50000000 cycle 12432050 for remainder of phase
Warmup finished CPU 0 instructions: 50000000 cycles: 12432050 cumulative IPC: 4.022 (Simulation time: 00 hr 02 min 29 sec)
Warmup complete CPU 0 instructions: 50000000 cycles: 12432050 cumulative IPC: 4.022 (Simulation time: 00 hr 02 min 29 sec)
Simulation finished CPU 0 instructions: 100000001 cycles: 193390268 cumulative IPC: 0.5171 (Simulation time: 00 hr 18 min 58 sec)
Simulation complete CPU 0 instructions: 100000001 cycles: 193390268 cumulative IPC: 0.5171 (Simulation time: 00 hr 18 min 58 sec)

ChampSim completed all CPUs

=== Simulation ===
CPU 0 runs /data2/zcq/champsim_traces_xsbench/xs.XL64unionized-28B.champsimtrace.xz

Region of Interest Statistics

CPU 0 cumulative IPC: 0.5171 instructions: 100000001 cycles: 193390268
CPU 0 Branch Prediction Accuracy: 92.6% MPKI: 18.09 Average ROB Occupancy at Mispredict: 28.63
Branch type MPKI
BRANCH_DIRECT_JUMP: 0
BRANCH_INDIRECT: 0
BRANCH_CONDITIONAL: 18.09
BRANCH_DIRECT_CALL: 0
BRANCH_INDIRECT_CALL: 0
BRANCH_RETURN: 0.00051

cpu0->cpu0_STLB TOTAL        ACCESS:    1035256 HIT:    1030375 MISS:       4881 MSHR_MERGE:          0
cpu0->cpu0_STLB LOAD         ACCESS:    1035256 HIT:    1030375 MISS:       4881 MSHR_MERGE:          0
cpu0->cpu0_STLB RFO          ACCESS:          0 HIT:          0 MISS:          0 MSHR_MERGE:          0
cpu0->cpu0_STLB PREFETCH     ACCESS:          0 HIT:          0 MISS:          0 MSHR_MERGE:          0
cpu0->cpu0_STLB WRITE        ACCESS:          0 HIT:          0 MISS:          0 MSHR_MERGE:          0
cpu0->cpu0_STLB TRANSLATION  ACCESS:          0 HIT:          0 MISS:          0 MSHR_MERGE:          0
cpu0->cpu0_STLB PREFETCH REQUESTED:          0 ISSUED:          0 USEFUL:          0 USELESS:          0 LATE:          0
cpu0->cpu0_STLB AVERAGE MISS LATENCY: 139.1 cycles
cpu0->cpu0_L2C TOTAL        ACCESS:    8445714 HIT:    6572891 MISS:    1872823 MSHR_MERGE:     182709
cpu0->cpu0_L2C LOAD         ACCESS:    1909829 HIT:     793438 MISS:    1116391 MSHR_MERGE:      25435
cpu0->cpu0_L2C RFO          ACCESS:      73202 HIT:      61754 MISS:      11448 MSHR_MERGE:       1658
cpu0->cpu0_L2C PREFETCH     ACCESS:    6008607 HIT:    5264409 MISS:     744198 MSHR_MERGE:     155616
cpu0->cpu0_L2C WRITE        ACCESS:     452057 HIT:     451995 MISS:         62 MSHR_MERGE:          0
cpu0->cpu0_L2C TRANSLATION  ACCESS:       2019 HIT:       1295 MISS:        724 MSHR_MERGE:          0
cpu0->cpu0_L2C PREFETCH REQUESTED:    1546800 ISSUED:    1497779 USEFUL:     176519 USELESS:       2052 LATE:      23197
cpu0->cpu0_L2C AVERAGE MISS LATENCY: 141.8 cycles
cpu0->cpu0_L1I TOTAL        ACCESS:    1358064 HIT:    1358064 MISS:          0 MSHR_MERGE:          0
cpu0->cpu0_L1I LOAD         ACCESS:    1358064 HIT:    1358064 MISS:          0 MSHR_MERGE:          0
cpu0->cpu0_L1I RFO          ACCESS:          0 HIT:          0 MISS:          0 MSHR_MERGE:          0
cpu0->cpu0_L1I PREFETCH     ACCESS:          0 HIT:          0 MISS:          0 MSHR_MERGE:          0
cpu0->cpu0_L1I WRITE        ACCESS:          0 HIT:          0 MISS:          0 MSHR_MERGE:          0
cpu0->cpu0_L1I TRANSLATION  ACCESS:          0 HIT:          0 MISS:          0 MSHR_MERGE:          0
cpu0->cpu0_L1I PREFETCH REQUESTED:          0 ISSUED:          0 USEFUL:          0 USELESS:          0 LATE:          0
cpu0->cpu0_L1I AVERAGE MISS LATENCY: - cycles
cpu0->cpu0_L1D TOTAL        ACCESS:   73349628 HIT:   66346830 MISS:    7002798 MSHR_MERGE:     491867
cpu0->cpu0_L1D LOAD         ACCESS:   23382377 HIT:   21152820 MISS:    2229557 MSHR_MERGE:     319728
cpu0->cpu0_L1D RFO          ACCESS:          0 HIT:          0 MISS:          0 MSHR_MERGE:          0
cpu0->cpu0_L1D PREFETCH     ACCESS:   37665801 HIT:   33122950 MISS:    4542851 MSHR_MERGE:      16970
cpu0->cpu0_L1D WRITE        ACCESS:   12291688 HIT:   12063320 MISS:     228368 MSHR_MERGE:     155166
cpu0->cpu0_L1D TRANSLATION  ACCESS:       9762 HIT:       7740 MISS:       2022 MSHR_MERGE:          3
cpu0->cpu0_L1D PREFETCH REQUESTED:  147930392 ISSUED:   37665793 USEFUL:     655235 USELESS:      12824 LATE:      10341
cpu0->cpu0_L1D AVERAGE MISS LATENCY: 89.55 cycles
cpu0->cpu0_ITLB TOTAL        ACCESS:    1285833 HIT:    1285833 MISS:          0 MSHR_MERGE:          0
cpu0->cpu0_ITLB LOAD         ACCESS:    1285833 HIT:    1285833 MISS:          0 MSHR_MERGE:          0
cpu0->cpu0_ITLB RFO          ACCESS:          0 HIT:          0 MISS:          0 MSHR_MERGE:          0
cpu0->cpu0_ITLB PREFETCH     ACCESS:          0 HIT:          0 MISS:          0 MSHR_MERGE:          0
cpu0->cpu0_ITLB WRITE        ACCESS:          0 HIT:          0 MISS:          0 MSHR_MERGE:          0
cpu0->cpu0_ITLB TRANSLATION  ACCESS:          0 HIT:          0 MISS:          0 MSHR_MERGE:          0
cpu0->cpu0_ITLB PREFETCH REQUESTED:          0 ISSUED:          0 USEFUL:          0 USELESS:          0 LATE:          0
cpu0->cpu0_ITLB AVERAGE MISS LATENCY: - cycles
cpu0->cpu0_DTLB TOTAL        ACCESS:   58809411 HIT:   57743507 MISS:    1065904 MSHR_MERGE:      30648
cpu0->cpu0_DTLB LOAD         ACCESS:   58809411 HIT:   57743507 MISS:    1065904 MSHR_MERGE:      30648
cpu0->cpu0_DTLB RFO          ACCESS:          0 HIT:          0 MISS:          0 MSHR_MERGE:          0
cpu0->cpu0_DTLB PREFETCH     ACCESS:          0 HIT:          0 MISS:          0 MSHR_MERGE:          0
cpu0->cpu0_DTLB WRITE        ACCESS:          0 HIT:          0 MISS:          0 MSHR_MERGE:          0
cpu0->cpu0_DTLB TRANSLATION  ACCESS:          0 HIT:          0 MISS:          0 MSHR_MERGE:          0
cpu0->cpu0_DTLB PREFETCH REQUESTED:          0 ISSUED:          0 USEFUL:          0 USELESS:          0 LATE:          0
cpu0->cpu0_DTLB AVERAGE MISS LATENCY: 5.666 cycles
cpu0->LLC TOTAL        ACCESS:    1977012 HIT:     857567 MISS:    1119445 MSHR_MERGE:       6809
cpu0->LLC LOAD         ACCESS:    1090955 HIT:     418261 MISS:     672694 MSHR_MERGE:       1576
cpu0->LLC RFO          ACCESS:       9790 HIT:       6043 MISS:       3747 MSHR_MERGE:         16
cpu0->LLC PREFETCH     ACCESS:     588572 HIT:     215363 MISS:     373209 MSHR_MERGE:       5217
cpu0->LLC WRITE        ACCESS:     286971 HIT:     217861 MISS:      69110 MSHR_MERGE:          0
cpu0->LLC TRANSLATION  ACCESS:        724 HIT:         39 MISS:        685 MSHR_MERGE:          0
cpu0->LLC PREFETCH REQUESTED:          0 ISSUED:          0 USEFUL:          0 USELESS:          0 LATE:          0
cpu0->LLC AVERAGE MISS LATENCY: 185.9 cycles

DRAM Statistics

Channel 0 RQ ROW_BUFFER_HIT:      24048
  ROW_BUFFER_MISS:    1018778
  AVG DBUS CONGESTED CYCLE: 13.69
Channel 0 WQ ROW_BUFFER_HIT:      35964
  ROW_BUFFER_MISS:     110208
  FULL:        496
Channel 0 REFRESHES ISSUED:      16115

[ROI Statistics]
[System Configuration]
num_cpus 1
cpu_freq 4000
fetch_width 6
decode_width 6
dispatch_width 6
execute_width 6
lq_width 2
sq_width 2
retire_width 6
scheduler_size 128
branch_mispredict_penalty 15
rob_size 352
lq_size 128
sq_size 72
ifetch_buffer_size 64
decode_buffer_size 32
dispatch_buffer_size 32
register_file_size 288
decode_latency 1
dispatch_latency 1
schedule_latency 1
execute_latency 1
page_size 4096
block_size 64
core_0_itlb_set 16
core_0_itlb_way 4
core_0_itlb_rq_size 16
core_0_itlb_wq_size 16
core_0_itlb_pq_size 0
core_0_itlb_mshr_size 8
core_0_itlb_hit_latency 1
core_0_itlb_fill_latency 1
core_0_itlb_max_tag_check 2
core_0_itlb_max_fill 2
core_0_dtlb_set 16
core_0_dtlb_way 4
core_0_dtlb_rq_size 16
core_0_dtlb_wq_size 16
core_0_dtlb_pq_size 0
core_0_dtlb_mshr_size 8
core_0_dtlb_hit_latency 1
core_0_dtlb_fill_latency 1
core_0_dtlb_max_tag_check 2
core_0_dtlb_max_fill 2
core_0_stlb_set 128
core_0_stlb_way 12
core_0_stlb_rq_size 32
core_0_stlb_wq_size 32
core_0_stlb_pq_size 0
core_0_stlb_mshr_size 16
core_0_stlb_hit_latency 4
core_0_stlb_fill_latency 4
core_0_stlb_max_tag_check 1
core_0_stlb_max_fill 1
core_0_l1i_set 64
core_0_l1i_way 8
core_0_l1i_rq_size 64
core_0_l1i_wq_size 64
core_0_l1i_pq_size 32
core_0_l1i_mshr_size 8
core_0_l1i_hit_latency 2
core_0_l1i_fill_latency 2
core_0_l1i_max_tag_check 2
core_0_l1i_max_fill 2
core_0_l1d_set 64
core_0_l1d_way 12
core_0_l1d_rq_size 64
core_0_l1d_wq_size 64
core_0_l1d_pq_size 8
core_0_l1d_mshr_size 16
core_0_l1d_hit_latency 2
core_0_l1d_fill_latency 3
core_0_l1d_max_tag_check 2
core_0_l1d_max_fill 2
core_0_l2c_set 1024
core_0_l2c_way 8
core_0_l2c_rq_size 32
core_0_l2c_wq_size 32
core_0_l2c_pq_size 16
core_0_l2c_mshr_size 32
core_0_l2c_hit_latency 5
core_0_l2c_fill_latency 5
core_0_l2c_max_tag_check 1
core_0_l2c_max_fill 1
llc_set 2048
llc_way 16
llc_rq_size 32
llc_wq_size 32
llc_pq_size 32
llc_mshr_size 64
llc_hit_latency 10
llc_fill_latency 10
llc_max_tag_check 1
llc_max_fill 1
dram_channels 1
dram_ranks 1
dram_bankgroups 8
dram_banks 4
dram_rows 65536
dram_columns 1024
dram_channel_width 8
dram_rq_size 64
dram_wq_size 64
dram_size 17179869184
core_0_itlb_prefetcher no
core_0_dtlb_prefetcher no
core_0_stlb_prefetcher no
core_0_l1i_prefetcher next_line
core_0_l1d_prefetcher vberti
core_0_l2c_prefetcher ip_stride
llc_prefetcher no
llc_replacement drrip

Core_0_instructions 100000001
Core_0_cycles 193390268
Core_0_IPC 0.517089
Core_0_branch_prediction_accuracy 92.6026
Core_0_branch_MPKI 18.0948
Core_0_average_ROB_occupancy_at_mispredict 28.6294

Core_0_ITLB_total_access 1285833
Core_0_ITLB_total_hit 1285833
Core_0_ITLB_total_miss 0
Core_0_ITLB_total_MPKI 0
Core_0_ITLB_total_miss_rate 0
Core_0_ITLB_demand_access 1285833
Core_0_ITLB_demand_hit 1285833
Core_0_ITLB_demand_miss 0
Core_0_ITLB_demand_MPKI 0
Core_0_ITLB_demand_miss_rate 0
Core_0_ITLB_load_access 1285833
Core_0_ITLB_load_hit 1285833
Core_0_ITLB_load_miss 0
Core_0_ITLB_load_MPKI 0
Core_0_ITLB_load_miss_rate 0
Core_0_ITLB_rfo_access 0
Core_0_ITLB_rfo_hit 0
Core_0_ITLB_rfo_miss 0
Core_0_ITLB_rfo_MPKI 0
Core_0_ITLB_rfo_miss_rate 0
Core_0_ITLB_prefetch_access 0
Core_0_ITLB_prefetch_hit 0
Core_0_ITLB_prefetch_miss 0
Core_0_ITLB_prefetch_MPKI 0
Core_0_ITLB_prefetch_miss_rate 0
Core_0_ITLB_writeback_access 0
Core_0_ITLB_writeback_hit 0
Core_0_ITLB_writeback_miss 0
Core_0_ITLB_writeback_MPKI 0
Core_0_ITLB_writeback_miss_rate 0
Core_0_ITLB_prefetch_requested 0
Core_0_ITLB_prefetch_issued 0
Core_0_ITLB_prefetch_useful 0
Core_0_ITLB_prefetch_useless 0
Core_0_ITLB_prefetch_late 0
Core_0_ITLB_prefetch_accuracy 0
Core_0_ITLB_prefetch_coverage 0
Core_0_ITLB_total_eviction 0

Core_0_DTLB_total_access 58809411
Core_0_DTLB_total_hit 57743507
Core_0_DTLB_total_miss 1065904
Core_0_DTLB_total_MPKI 10.659
Core_0_DTLB_total_miss_rate 0.0181247
Core_0_DTLB_demand_access 58809411
Core_0_DTLB_demand_hit 57743507
Core_0_DTLB_demand_miss 1065904
Core_0_DTLB_demand_MPKI 10.659
Core_0_DTLB_demand_miss_rate 0.0181247
Core_0_DTLB_load_access 58809411
Core_0_DTLB_load_hit 57743507
Core_0_DTLB_load_miss 1065904
Core_0_DTLB_load_MPKI 10.659
Core_0_DTLB_load_miss_rate 0.0181247
Core_0_DTLB_rfo_access 0
Core_0_DTLB_rfo_hit 0
Core_0_DTLB_rfo_miss 0
Core_0_DTLB_rfo_MPKI 0
Core_0_DTLB_rfo_miss_rate 0
Core_0_DTLB_prefetch_access 0
Core_0_DTLB_prefetch_hit 0
Core_0_DTLB_prefetch_miss 0
Core_0_DTLB_prefetch_MPKI 0
Core_0_DTLB_prefetch_miss_rate 0
Core_0_DTLB_writeback_access 0
Core_0_DTLB_writeback_hit 0
Core_0_DTLB_writeback_miss 0
Core_0_DTLB_writeback_MPKI 0
Core_0_DTLB_writeback_miss_rate 0
Core_0_DTLB_prefetch_requested 0
Core_0_DTLB_prefetch_issued 0
Core_0_DTLB_prefetch_useful 0
Core_0_DTLB_prefetch_useless 0
Core_0_DTLB_prefetch_late 0
Core_0_DTLB_prefetch_accuracy 0
Core_0_DTLB_prefetch_coverage 0
Core_0_DTLB_total_eviction 1035256

Core_0_STLB_total_access 1035256
Core_0_STLB_total_hit 1030375
Core_0_STLB_total_miss 4881
Core_0_STLB_total_MPKI 0.04881
Core_0_STLB_total_miss_rate 0.00471478
Core_0_STLB_demand_access 1035256
Core_0_STLB_demand_hit 1030375
Core_0_STLB_demand_miss 4881
Core_0_STLB_demand_MPKI 0.04881
Core_0_STLB_demand_miss_rate 0.00471478
Core_0_STLB_load_access 1035256
Core_0_STLB_load_hit 1030375
Core_0_STLB_load_miss 4881
Core_0_STLB_load_MPKI 0.04881
Core_0_STLB_load_miss_rate 0.00471478
Core_0_STLB_rfo_access 0
Core_0_STLB_rfo_hit 0
Core_0_STLB_rfo_miss 0
Core_0_STLB_rfo_MPKI 0
Core_0_STLB_rfo_miss_rate 0
Core_0_STLB_prefetch_access 0
Core_0_STLB_prefetch_hit 0
Core_0_STLB_prefetch_miss 0
Core_0_STLB_prefetch_MPKI 0
Core_0_STLB_prefetch_miss_rate 0
Core_0_STLB_writeback_access 0
Core_0_STLB_writeback_hit 0
Core_0_STLB_writeback_miss 0
Core_0_STLB_writeback_MPKI 0
Core_0_STLB_writeback_miss_rate 0
Core_0_STLB_prefetch_requested 0
Core_0_STLB_prefetch_issued 0
Core_0_STLB_prefetch_useful 0
Core_0_STLB_prefetch_useless 0
Core_0_STLB_prefetch_late 0
Core_0_STLB_prefetch_accuracy 0
Core_0_STLB_prefetch_coverage 0
Core_0_STLB_total_eviction 102936

Core_0_L1I_total_access 1358064
Core_0_L1I_total_hit 1358064
Core_0_L1I_total_miss 0
Core_0_L1I_total_MPKI 0
Core_0_L1I_total_miss_rate 0
Core_0_L1I_demand_access 1358064
Core_0_L1I_demand_hit 1358064
Core_0_L1I_demand_miss 0
Core_0_L1I_demand_MPKI 0
Core_0_L1I_demand_miss_rate 0
Core_0_L1I_load_access 1358064
Core_0_L1I_load_hit 1358064
Core_0_L1I_load_miss 0
Core_0_L1I_load_MPKI 0
Core_0_L1I_load_miss_rate 0
Core_0_L1I_rfo_access 0
Core_0_L1I_rfo_hit 0
Core_0_L1I_rfo_miss 0
Core_0_L1I_rfo_MPKI 0
Core_0_L1I_rfo_miss_rate 0
Core_0_L1I_prefetch_access 0
Core_0_L1I_prefetch_hit 0
Core_0_L1I_prefetch_miss 0
Core_0_L1I_prefetch_MPKI 0
Core_0_L1I_prefetch_miss_rate 0
Core_0_L1I_writeback_access 0
Core_0_L1I_writeback_hit 0
Core_0_L1I_writeback_miss 0
Core_0_L1I_writeback_MPKI 0
Core_0_L1I_writeback_miss_rate 0
Core_0_L1I_prefetch_requested 0
Core_0_L1I_prefetch_issued 0
Core_0_L1I_prefetch_useful 0
Core_0_L1I_prefetch_useless 0
Core_0_L1I_prefetch_late 0
Core_0_L1I_prefetch_accuracy 0
Core_0_L1I_prefetch_coverage 0
Core_0_L1I_total_eviction 0

Core_0_L1D_total_access 73339866
Core_0_L1D_total_hit 66339090
Core_0_L1D_total_miss 7000776
Core_0_L1D_total_MPKI 70.0078
Core_0_L1D_total_miss_rate 0.0954566
Core_0_L1D_demand_access 23382377
Core_0_L1D_demand_hit 21152820
Core_0_L1D_demand_miss 2229557
Core_0_L1D_demand_MPKI 22.2956
Core_0_L1D_demand_miss_rate 0.095352
Core_0_L1D_load_access 23382377
Core_0_L1D_load_hit 21152820
Core_0_L1D_load_miss 2229557
Core_0_L1D_load_MPKI 22.2956
Core_0_L1D_load_miss_rate 0.095352
Core_0_L1D_rfo_access 0
Core_0_L1D_rfo_hit 0
Core_0_L1D_rfo_miss 0
Core_0_L1D_rfo_MPKI 0
Core_0_L1D_rfo_miss_rate 0
Core_0_L1D_prefetch_access 37665801
Core_0_L1D_prefetch_hit 33122950
Core_0_L1D_prefetch_miss 4542851
Core_0_L1D_prefetch_MPKI 45.4285
Core_0_L1D_prefetch_miss_rate 0.120609
Core_0_L1D_writeback_access 12291688
Core_0_L1D_writeback_hit 12063320
Core_0_L1D_writeback_miss 228368
Core_0_L1D_writeback_MPKI 2.28368
Core_0_L1D_writeback_miss_rate 0.0185791
Core_0_L1D_prefetch_requested 147930392
Core_0_L1D_prefetch_issued 37665793
Core_0_L1D_prefetch_useful 655235
Core_0_L1D_prefetch_useless 12824
Core_0_L1D_prefetch_late 10341
Core_0_L1D_prefetch_accuracy 0.017396
Core_0_L1D_prefetch_coverage 0.227134
Core_0_L1D_total_eviction 2653116

Core_0_L2C_total_access 8443695
Core_0_L2C_total_hit 6571596
Core_0_L2C_total_miss 1872099
Core_0_L2C_total_MPKI 18.721
Core_0_L2C_total_miss_rate 0.221716
Core_0_L2C_demand_access 1983031
Core_0_L2C_demand_hit 855192
Core_0_L2C_demand_miss 1127839
Core_0_L2C_demand_MPKI 11.2784
Core_0_L2C_demand_miss_rate 0.568745
Core_0_L2C_load_access 1909829
Core_0_L2C_load_hit 793438
Core_0_L2C_load_miss 1116391
Core_0_L2C_load_MPKI 11.1639
Core_0_L2C_load_miss_rate 0.58455
Core_0_L2C_rfo_access 73202
Core_0_L2C_rfo_hit 61754
Core_0_L2C_rfo_miss 11448
Core_0_L2C_rfo_MPKI 0.11448
Core_0_L2C_rfo_miss_rate 0.156389
Core_0_L2C_prefetch_access 6008607
Core_0_L2C_prefetch_hit 5264409
Core_0_L2C_prefetch_miss 744198
Core_0_L2C_prefetch_MPKI 7.44198
Core_0_L2C_prefetch_miss_rate 0.123855
Core_0_L2C_writeback_access 452057
Core_0_L2C_writeback_hit 451995
Core_0_L2C_writeback_miss 62
Core_0_L2C_writeback_MPKI 0.00062
Core_0_L2C_writeback_miss_rate 0.000137151
Core_0_L2C_prefetch_requested 1546800
Core_0_L2C_prefetch_issued 1497779
Core_0_L2C_prefetch_useful 176519
Core_0_L2C_prefetch_useless 2052
Core_0_L2C_prefetch_late 23197
Core_0_L2C_prefetch_accuracy 0.117854
Core_0_L2C_prefetch_coverage 0.13533
Core_0_L2C_total_eviction 1675934

Core_0_LLC_total_access 1976288
Core_0_LLC_total_hit 857528
Core_0_LLC_total_miss 1118760
Core_0_LLC_total_MPKI 11.1876
Core_0_LLC_total_miss_rate 0.566092
Core_0_LLC_demand_access 1100745
Core_0_LLC_demand_hit 424304
Core_0_LLC_demand_miss 676441
Core_0_LLC_demand_MPKI 6.76441
Core_0_LLC_demand_miss_rate 0.61453
Core_0_LLC_load_access 1090955
Core_0_LLC_load_hit 418261
Core_0_LLC_load_miss 672694
Core_0_LLC_load_MPKI 6.72694
Core_0_LLC_load_miss_rate 0.61661
Core_0_LLC_rfo_access 9790
Core_0_LLC_rfo_hit 6043
Core_0_LLC_rfo_miss 3747
Core_0_LLC_rfo_MPKI 0.03747
Core_0_LLC_rfo_miss_rate 0.382737
Core_0_LLC_prefetch_access 588572
Core_0_LLC_prefetch_hit 215363
Core_0_LLC_prefetch_miss 373209
Core_0_LLC_prefetch_MPKI 3.73209
Core_0_LLC_prefetch_miss_rate 0.634092
Core_0_LLC_writeback_access 286971
Core_0_LLC_writeback_hit 217861
Core_0_LLC_writeback_miss 69110
Core_0_LLC_writeback_MPKI 0.6911
Core_0_LLC_writeback_miss_rate 0.240826
Core_0_LLC_prefetch_requested 0
Core_0_LLC_prefetch_issued 0
Core_0_LLC_prefetch_useful 0
Core_0_LLC_prefetch_useless 0
Core_0_LLC_prefetch_late 0
Core_0_LLC_prefetch_accuracy 0
Core_0_LLC_prefetch_coverage 0
Core_0_LLC_total_eviction 1112635

[DRAM Statistics]
Channel_0_RQ_row_buffer_hit 24048
Channel_0_RQ_row_buffer_miss 1018778
Channel_0_WQ_row_buffer_hit 35964
Channel_0_WQ_row_buffer_miss 110208
Channel_0_WQ_full 496
Channel_0_dbus_congested 2537313
DRAM_total_RQ_row_buffer_hit 24048
DRAM_total_RQ_row_buffer_miss 1018778
DRAM_total_WQ_row_buffer_hit 35964
DRAM_total_WQ_row_buffer_miss 110208
DRAM_total_WQ_full 496
DRAM_total_dbus_congested 2537313
DRAM_avg_congested_cycle 13.6893

======STLB miss causes ========
Core_0_STLB_miss_cause_breakdown
Core_0_STLB_cause_Demand_Data_miss 0
Core_0_STLB_cause_Demand_Data_miss_rate 0
Core_0_STLB_cause_Demand_Instruction_miss 0
Core_0_STLB_cause_Demand_Instruction_miss_rate 0
Core_0_STLB_cause_L1D_Prefetch_miss 4881
Core_0_STLB_cause_L1D_Prefetch_miss_rate 0.00471478
Core_0_STLB_cause_L1I_Prefetch_miss 0
Core_0_STLB_cause_L1I_Prefetch_miss_rate 0
Core_0_STLB_cause_Other_miss 0
Core_0_STLB_cause_Other_miss_rate 0
Core_0_STLB_Demand_miss 0
Core_0_STLB_Demand_miss_rate 0
Core_0_STLB_L1D_Prefetch_miss 4881
Core_0_STLB_L1D_Prefetch_miss_rate 0.00471478
Core_0_STLB_Other_miss 0
Core_0_STLB_Other_miss_rate 0
BERTI TO_L1: 89485476 TO_L2: 92799407 TO_L2_BC_MSHR: 948084
BERTI AVG_LAT: 57.6015 NUM_TRACK_LATENCY: 4299731 NUM_CANT_TRACK_LATENCY: 39
BERTI CROSS_PAGE 20756654 NO_CROSS_PAGE: 161528229
BERTI FOUND_BERTI: 33160665 NO_FOUND_BERTI: 14143556
BERTI AVERAGE_ISSUED: 2.93895
