[VMEM] WARNING: physical memory size is smaller than virtual memory size.

*** ChampSim Multicore Out-of-Order Simulator ***
Warmup Instructions: 50000000
Simulation Instructions: 100000000
Number of CPUs: 1
Page size: 4096
STLB ideal mode: demand
STLB ideal fill: on
Core 0: /data2/zcq/champsim_traces_xsbench/xs.XXL64hash-24B.champsimtrace.xz
VBerti Prefetcher
BERTI HASH ENTANGLING
BERTI IP MASK ffff
Off-chip DRAM Size: 16 GiB Channels: 1 Width: 64-bit Data Rate: 3205 MT/s
Warmup halting CPU 0 at instruction 50000002 cycle 12509791 for remainder of phase
Warmup finished CPU 0 instructions: 50000002 cycles: 12509791 cumulative IPC: 3.997 (Simulation time: 00 hr 02 min 35 sec)
Warmup complete CPU 0 instructions: 50000002 cycles: 12509791 cumulative IPC: 3.997 (Simulation time: 00 hr 02 min 35 sec)
Simulation finished CPU 0 instructions: 100000000 cycles: 291924891 cumulative IPC: 0.3426 (Simulation time: 00 hr 28 min 04 sec)
Simulation complete CPU 0 instructions: 100000000 cycles: 291924891 cumulative IPC: 0.3426 (Simulation time: 00 hr 28 min 04 sec)

ChampSim completed all CPUs

=== Simulation ===
CPU 0 runs /data2/zcq/champsim_traces_xsbench/xs.XXL64hash-24B.champsimtrace.xz

Region of Interest Statistics

CPU 0 cumulative IPC: 0.3426 instructions: 100000000 cycles: 291924891
CPU 0 Branch Prediction Accuracy: 93.33% MPKI: 15.86 Average ROB Occupancy at Mispredict: 43.55
Branch type MPKI
BRANCH_DIRECT_JUMP: 0.00013
BRANCH_INDIRECT: 0
BRANCH_CONDITIONAL: 15.86
BRANCH_DIRECT_CALL: 8e-05
BRANCH_INDIRECT_CALL: 0
BRANCH_RETURN: 0.00053

cpu0->cpu0_STLB TOTAL        ACCESS:    1578359 HIT:    1573529 MISS:       4830 MSHR_MERGE:          0
cpu0->cpu0_STLB LOAD         ACCESS:    1578359 HIT:    1573529 MISS:       4830 MSHR_MERGE:          0
cpu0->cpu0_STLB RFO          ACCESS:          0 HIT:          0 MISS:          0 MSHR_MERGE:          0
cpu0->cpu0_STLB PREFETCH     ACCESS:          0 HIT:          0 MISS:          0 MSHR_MERGE:          0
cpu0->cpu0_STLB WRITE        ACCESS:          0 HIT:          0 MISS:          0 MSHR_MERGE:          0
cpu0->cpu0_STLB TRANSLATION  ACCESS:          0 HIT:          0 MISS:          0 MSHR_MERGE:          0
cpu0->cpu0_STLB PREFETCH REQUESTED:          0 ISSUED:          0 USEFUL:          0 USELESS:          0 LATE:          0
cpu0->cpu0_STLB AVERAGE MISS LATENCY: 160.9 cycles
cpu0->cpu0_L2C TOTAL        ACCESS:    7924489 HIT:    5227425 MISS:    2697064 MSHR_MERGE:     272493
cpu0->cpu0_L2C LOAD         ACCESS:    2390774 HIT:     499149 MISS:    1891625 MSHR_MERGE:      44525
cpu0->cpu0_L2C RFO          ACCESS:     121610 HIT:      40501 MISS:      81109 MSHR_MERGE:       5904
cpu0->cpu0_L2C PREFETCH     ACCESS:    3798606 HIT:    3075072 MISS:     723534 MSHR_MERGE:     222064
cpu0->cpu0_L2C WRITE        ACCESS:    1611782 HIT:    1611743 MISS:         39 MSHR_MERGE:          0
cpu0->cpu0_L2C TRANSLATION  ACCESS:       1717 HIT:        960 MISS:        757 MSHR_MERGE:          0
cpu0->cpu0_L2C PREFETCH REQUESTED:    1119680 ISSUED:    1092007 USEFUL:     156885 USELESS:       6808 LATE:      41624
cpu0->cpu0_L2C AVERAGE MISS LATENCY: 243.1 cycles
cpu0->cpu0_L1I TOTAL        ACCESS:    2625676 HIT:    2625618 MISS:         58 MSHR_MERGE:          8
cpu0->cpu0_L1I LOAD         ACCESS:    2625676 HIT:    2625618 MISS:         58 MSHR_MERGE:          8
cpu0->cpu0_L1I RFO          ACCESS:          0 HIT:          0 MISS:          0 MSHR_MERGE:          0
cpu0->cpu0_L1I PREFETCH     ACCESS:          0 HIT:          0 MISS:          0 MSHR_MERGE:          0
cpu0->cpu0_L1I WRITE        ACCESS:          0 HIT:          0 MISS:          0 MSHR_MERGE:          0
cpu0->cpu0_L1I TRANSLATION  ACCESS:          0 HIT:          0 MISS:          0 MSHR_MERGE:          0
cpu0->cpu0_L1I PREFETCH REQUESTED:          0 ISSUED:          0 USEFUL:          0 USELESS:          0 LATE:          0
cpu0->cpu0_L1I AVERAGE MISS LATENCY: 249.3 cycles
cpu0->cpu0_L1D TOTAL        ACCESS:   53848428 HIT:   46848175 MISS:    7000253 MSHR_MERGE:    1764771
cpu0->cpu0_L1D LOAD         ACCESS:   17473964 HIT:   14113567 MISS:    3360397 MSHR_MERGE:     969673
cpu0->cpu0_L1D RFO          ACCESS:          0 HIT:          0 MISS:          0 MSHR_MERGE:          0
cpu0->cpu0_L1D PREFETCH     ACCESS:   22650648 HIT:   19854083 MISS:    2796565 MSHR_MERGE:      75186
cpu0->cpu0_L1D WRITE        ACCESS:   13714151 HIT:   12872577 MISS:     841574 MSHR_MERGE:     719912
cpu0->cpu0_L1D TRANSLATION  ACCESS:       9665 HIT:       7948 MISS:       1717 MSHR_MERGE:          0
cpu0->cpu0_L1D PREFETCH REQUESTED:  122997948 ISSUED:   22650648 USEFUL:     458084 USELESS:       7456 LATE:      21748
cpu0->cpu0_L1D AVERAGE MISS LATENCY: 200.1 cycles
cpu0->cpu0_ITLB TOTAL        ACCESS:    2255302 HIT:    2255294 MISS:          8 MSHR_MERGE:          1
cpu0->cpu0_ITLB LOAD         ACCESS:    2255302 HIT:    2255294 MISS:          8 MSHR_MERGE:          1
cpu0->cpu0_ITLB RFO          ACCESS:          0 HIT:          0 MISS:          0 MSHR_MERGE:          0
cpu0->cpu0_ITLB PREFETCH     ACCESS:          0 HIT:          0 MISS:          0 MSHR_MERGE:          0
cpu0->cpu0_ITLB WRITE        ACCESS:          0 HIT:          0 MISS:          0 MSHR_MERGE:          0
cpu0->cpu0_ITLB TRANSLATION  ACCESS:          0 HIT:          0 MISS:          0 MSHR_MERGE:          0
cpu0->cpu0_ITLB PREFETCH REQUESTED:          0 ISSUED:          0 USEFUL:          0 USELESS:          0 LATE:          0
cpu0->cpu0_ITLB AVERAGE MISS LATENCY: 5 cycles
cpu0->cpu0_DTLB TOTAL        ACCESS:   44705793 HIT:   42107030 MISS:    2598763 MSHR_MERGE:    1020411
cpu0->cpu0_DTLB LOAD         ACCESS:   44705793 HIT:   42107030 MISS:    2598763 MSHR_MERGE:    1020411
cpu0->cpu0_DTLB RFO          ACCESS:          0 HIT:          0 MISS:          0 MSHR_MERGE:          0
cpu0->cpu0_DTLB PREFETCH     ACCESS:          0 HIT:          0 MISS:          0 MSHR_MERGE:          0
cpu0->cpu0_DTLB WRITE        ACCESS:          0 HIT:          0 MISS:          0 MSHR_MERGE:          0
cpu0->cpu0_DTLB TRANSLATION  ACCESS:          0 HIT:          0 MISS:          0 MSHR_MERGE:          0
cpu0->cpu0_DTLB PREFETCH REQUESTED:          0 ISSUED:          0 USEFUL:          0 USELESS:          0 LATE:          0
cpu0->cpu0_DTLB AVERAGE MISS LATENCY: 5.498 cycles
cpu0->LLC TOTAL        ACCESS:    3908189 HIT:     776511 MISS:    3131678 MSHR_MERGE:      43813
cpu0->LLC LOAD         ACCESS:    1847100 HIT:     269515 MISS:    1577585 MSHR_MERGE:       7906
cpu0->LLC RFO          ACCESS:      75205 HIT:      12186 MISS:      63019 MSHR_MERGE:        423
cpu0->LLC PREFETCH     ACCESS:     501459 HIT:      98679 MISS:     402780 MSHR_MERGE:      35484
cpu0->LLC WRITE        ACCESS:    1483668 HIT:     396124 MISS:    1087544 MSHR_MERGE:          0
cpu0->LLC TRANSLATION  ACCESS:        757 HIT:          7 MISS:        750 MSHR_MERGE:          0
cpu0->LLC PREFETCH REQUESTED:          0 ISSUED:          0 USEFUL:          0 USELESS:          0 LATE:          0
cpu0->LLC AVERAGE MISS LATENCY: 162.9 cycles

DRAM Statistics

Channel 0 RQ ROW_BUFFER_HIT:      40061
  ROW_BUFFER_MISS:    1959951
  AVG DBUS CONGESTED CYCLE: 6.004
Channel 0 WQ ROW_BUFFER_HIT:     386065
  ROW_BUFFER_MISS:     944843
  FULL:        676
Channel 0 REFRESHES ISSUED:      24327

[ROI Statistics]
[System Configuration]
num_cpus 1
cpu_freq 4000
fetch_width 6
decode_width 6
dispatch_width 6
execute_width 6
lq_width 2
sq_width 2
retire_width 6
scheduler_size 128
branch_mispredict_penalty 15
rob_size 352
lq_size 128
sq_size 72
ifetch_buffer_size 64
decode_buffer_size 32
dispatch_buffer_size 32
register_file_size 288
decode_latency 1
dispatch_latency 1
schedule_latency 1
execute_latency 1
page_size 4096
block_size 64
core_0_itlb_set 16
core_0_itlb_way 4
core_0_itlb_rq_size 16
core_0_itlb_wq_size 16
core_0_itlb_pq_size 0
core_0_itlb_mshr_size 8
core_0_itlb_hit_latency 1
core_0_itlb_fill_latency 1
core_0_itlb_max_tag_check 2
core_0_itlb_max_fill 2
core_0_dtlb_set 16
core_0_dtlb_way 4
core_0_dtlb_rq_size 16
core_0_dtlb_wq_size 16
core_0_dtlb_pq_size 0
core_0_dtlb_mshr_size 8
core_0_dtlb_hit_latency 1
core_0_dtlb_fill_latency 1
core_0_dtlb_max_tag_check 2
core_0_dtlb_max_fill 2
core_0_stlb_set 128
core_0_stlb_way 12
core_0_stlb_rq_size 32
core_0_stlb_wq_size 32
core_0_stlb_pq_size 0
core_0_stlb_mshr_size 16
core_0_stlb_hit_latency 4
core_0_stlb_fill_latency 4
core_0_stlb_max_tag_check 1
core_0_stlb_max_fill 1
core_0_l1i_set 64
core_0_l1i_way 8
core_0_l1i_rq_size 64
core_0_l1i_wq_size 64
core_0_l1i_pq_size 32
core_0_l1i_mshr_size 8
core_0_l1i_hit_latency 2
core_0_l1i_fill_latency 2
core_0_l1i_max_tag_check 2
core_0_l1i_max_fill 2
core_0_l1d_set 64
core_0_l1d_way 12
core_0_l1d_rq_size 64
core_0_l1d_wq_size 64
core_0_l1d_pq_size 8
core_0_l1d_mshr_size 16
core_0_l1d_hit_latency 2
core_0_l1d_fill_latency 3
core_0_l1d_max_tag_check 2
core_0_l1d_max_fill 2
core_0_l2c_set 1024
core_0_l2c_way 8
core_0_l2c_rq_size 32
core_0_l2c_wq_size 32
core_0_l2c_pq_size 16
core_0_l2c_mshr_size 32
core_0_l2c_hit_latency 5
core_0_l2c_fill_latency 5
core_0_l2c_max_tag_check 1
core_0_l2c_max_fill 1
llc_set 2048
llc_way 16
llc_rq_size 32
llc_wq_size 32
llc_pq_size 32
llc_mshr_size 64
llc_hit_latency 10
llc_fill_latency 10
llc_max_tag_check 1
llc_max_fill 1
dram_channels 1
dram_ranks 1
dram_bankgroups 8
dram_banks 4
dram_rows 65536
dram_columns 1024
dram_channel_width 8
dram_rq_size 64
dram_wq_size 64
dram_size 17179869184
core_0_itlb_prefetcher no
core_0_dtlb_prefetcher no
core_0_stlb_prefetcher no
core_0_l1i_prefetcher next_line
core_0_l1d_prefetcher vberti
core_0_l2c_prefetcher ip_stride
llc_prefetcher no
llc_replacement drrip

Core_0_instructions 100000000
Core_0_cycles 291924891
Core_0_IPC 0.342554
Core_0_branch_prediction_accuracy 93.3252
Core_0_branch_MPKI 15.8618
Core_0_average_ROB_occupancy_at_mispredict 43.5536

Core_0_ITLB_total_access 2255302
Core_0_ITLB_total_hit 2255294
Core_0_ITLB_total_miss 8
Core_0_ITLB_total_MPKI 8e-05
Core_0_ITLB_total_miss_rate 3.5472e-06
Core_0_ITLB_demand_access 2255302
Core_0_ITLB_demand_hit 2255294
Core_0_ITLB_demand_miss 8
Core_0_ITLB_demand_MPKI 8e-05
Core_0_ITLB_demand_miss_rate 3.5472e-06
Core_0_ITLB_load_access 2255302
Core_0_ITLB_load_hit 2255294
Core_0_ITLB_load_miss 8
Core_0_ITLB_load_MPKI 8e-05
Core_0_ITLB_load_miss_rate 3.5472e-06
Core_0_ITLB_rfo_access 0
Core_0_ITLB_rfo_hit 0
Core_0_ITLB_rfo_miss 0
Core_0_ITLB_rfo_MPKI 0
Core_0_ITLB_rfo_miss_rate 0
Core_0_ITLB_prefetch_access 0
Core_0_ITLB_prefetch_hit 0
Core_0_ITLB_prefetch_miss 0
Core_0_ITLB_prefetch_MPKI 0
Core_0_ITLB_prefetch_miss_rate 0
Core_0_ITLB_writeback_access 0
Core_0_ITLB_writeback_hit 0
Core_0_ITLB_writeback_miss 0
Core_0_ITLB_writeback_MPKI 0
Core_0_ITLB_writeback_miss_rate 0
Core_0_ITLB_prefetch_requested 0
Core_0_ITLB_prefetch_issued 0
Core_0_ITLB_prefetch_useful 0
Core_0_ITLB_prefetch_useless 0
Core_0_ITLB_prefetch_late 0
Core_0_ITLB_prefetch_accuracy 0
Core_0_ITLB_prefetch_coverage 0
Core_0_ITLB_total_eviction 0

Core_0_DTLB_total_access 44705793
Core_0_DTLB_total_hit 42107030
Core_0_DTLB_total_miss 2598763
Core_0_DTLB_total_MPKI 25.9876
Core_0_DTLB_total_miss_rate 0.0581303
Core_0_DTLB_demand_access 44705793
Core_0_DTLB_demand_hit 42107030
Core_0_DTLB_demand_miss 2598763
Core_0_DTLB_demand_MPKI 25.9876
Core_0_DTLB_demand_miss_rate 0.0581303
Core_0_DTLB_load_access 44705793
Core_0_DTLB_load_hit 42107030
Core_0_DTLB_load_miss 2598763
Core_0_DTLB_load_MPKI 25.9876
Core_0_DTLB_load_miss_rate 0.0581303
Core_0_DTLB_rfo_access 0
Core_0_DTLB_rfo_hit 0
Core_0_DTLB_rfo_miss 0
Core_0_DTLB_rfo_MPKI 0
Core_0_DTLB_rfo_miss_rate 0
Core_0_DTLB_prefetch_access 0
Core_0_DTLB_prefetch_hit 0
Core_0_DTLB_prefetch_miss 0
Core_0_DTLB_prefetch_MPKI 0
Core_0_DTLB_prefetch_miss_rate 0
Core_0_DTLB_writeback_access 0
Core_0_DTLB_writeback_hit 0
Core_0_DTLB_writeback_miss 0
Core_0_DTLB_writeback_MPKI 0
Core_0_DTLB_writeback_miss_rate 0
Core_0_DTLB_prefetch_requested 0
Core_0_DTLB_prefetch_issued 0
Core_0_DTLB_prefetch_useful 0
Core_0_DTLB_prefetch_useless 0
Core_0_DTLB_prefetch_late 0
Core_0_DTLB_prefetch_accuracy 0
Core_0_DTLB_prefetch_coverage 0
Core_0_DTLB_total_eviction 1578352

Core_0_STLB_total_access 1578359
Core_0_STLB_total_hit 1573529
Core_0_STLB_total_miss 4830
Core_0_STLB_total_MPKI 0.0483
Core_0_STLB_total_miss_rate 0.00306014
Core_0_STLB_demand_access 1578359
Core_0_STLB_demand_hit 1573529
Core_0_STLB_demand_miss 4830
Core_0_STLB_demand_MPKI 0.0483
Core_0_STLB_demand_miss_rate 0.00306014
Core_0_STLB_load_access 1578359
Core_0_STLB_load_hit 1573529
Core_0_STLB_load_miss 4830
Core_0_STLB_load_MPKI 0.0483
Core_0_STLB_load_miss_rate 0.00306014
Core_0_STLB_rfo_access 0
Core_0_STLB_rfo_hit 0
Core_0_STLB_rfo_miss 0
Core_0_STLB_rfo_MPKI 0
Core_0_STLB_rfo_miss_rate 0
Core_0_STLB_prefetch_access 0
Core_0_STLB_prefetch_hit 0
Core_0_STLB_prefetch_miss 0
Core_0_STLB_prefetch_MPKI 0
Core_0_STLB_prefetch_miss_rate 0
Core_0_STLB_writeback_access 0
Core_0_STLB_writeback_hit 0
Core_0_STLB_writeback_miss 0
Core_0_STLB_writeback_MPKI 0
Core_0_STLB_writeback_miss_rate 0
Core_0_STLB_prefetch_requested 0
Core_0_STLB_prefetch_issued 0
Core_0_STLB_prefetch_useful 0
Core_0_STLB_prefetch_useless 0
Core_0_STLB_prefetch_late 0
Core_0_STLB_prefetch_accuracy 0
Core_0_STLB_prefetch_coverage 0
Core_0_STLB_total_eviction 857647

Core_0_L1I_total_access 2625676
Core_0_L1I_total_hit 2625618
Core_0_L1I_total_miss 58
Core_0_L1I_total_MPKI 0.00058
Core_0_L1I_total_miss_rate 2.20895e-05
Core_0_L1I_demand_access 2625676
Core_0_L1I_demand_hit 2625618
Core_0_L1I_demand_miss 58
Core_0_L1I_demand_MPKI 0.00058
Core_0_L1I_demand_miss_rate 2.20895e-05
Core_0_L1I_load_access 2625676
Core_0_L1I_load_hit 2625618
Core_0_L1I_load_miss 58
Core_0_L1I_load_MPKI 0.00058
Core_0_L1I_load_miss_rate 2.20895e-05
Core_0_L1I_rfo_access 0
Core_0_L1I_rfo_hit 0
Core_0_L1I_rfo_miss 0
Core_0_L1I_rfo_MPKI 0
Core_0_L1I_rfo_miss_rate 0
Core_0_L1I_prefetch_access 0
Core_0_L1I_prefetch_hit 0
Core_0_L1I_prefetch_miss 0
Core_0_L1I_prefetch_MPKI 0
Core_0_L1I_prefetch_miss_rate 0
Core_0_L1I_writeback_access 0
Core_0_L1I_writeback_hit 0
Core_0_L1I_writeback_miss 0
Core_0_L1I_writeback_MPKI 0
Core_0_L1I_writeback_miss_rate 0
Core_0_L1I_prefetch_requested 0
Core_0_L1I_prefetch_issued 0
Core_0_L1I_prefetch_useful 0
Core_0_L1I_prefetch_useless 0
Core_0_L1I_prefetch_late 0
Core_0_L1I_prefetch_accuracy 0
Core_0_L1I_prefetch_coverage 0
Core_0_L1I_total_eviction 0

Core_0_L1D_total_access 53838763
Core_0_L1D_total_hit 46840227
Core_0_L1D_total_miss 6998536
Core_0_L1D_total_MPKI 69.9854
Core_0_L1D_total_miss_rate 0.129991
Core_0_L1D_demand_access 17473964
Core_0_L1D_demand_hit 14113567
Core_0_L1D_demand_miss 3360397
Core_0_L1D_demand_MPKI 33.604
Core_0_L1D_demand_miss_rate 0.192309
Core_0_L1D_load_access 17473964
Core_0_L1D_load_hit 14113567
Core_0_L1D_load_miss 3360397
Core_0_L1D_load_MPKI 33.604
Core_0_L1D_load_miss_rate 0.192309
Core_0_L1D_rfo_access 0
Core_0_L1D_rfo_hit 0
Core_0_L1D_rfo_miss 0
Core_0_L1D_rfo_MPKI 0
Core_0_L1D_rfo_miss_rate 0
Core_0_L1D_prefetch_access 22650648
Core_0_L1D_prefetch_hit 19854083
Core_0_L1D_prefetch_miss 2796565
Core_0_L1D_prefetch_MPKI 27.9657
Core_0_L1D_prefetch_miss_rate 0.123465
Core_0_L1D_writeback_access 13714151
Core_0_L1D_writeback_hit 12872577
Core_0_L1D_writeback_miss 841574
Core_0_L1D_writeback_MPKI 8.41574
Core_0_L1D_writeback_miss_rate 0.0613654
Core_0_L1D_prefetch_requested 122997948
Core_0_L1D_prefetch_issued 22650648
Core_0_L1D_prefetch_useful 458084
Core_0_L1D_prefetch_useless 7456
Core_0_L1D_prefetch_late 21748
Core_0_L1D_prefetch_accuracy 0.0202239
Core_0_L1D_prefetch_coverage 0.119965
Core_0_L1D_total_eviction 2979666

Core_0_L2C_total_access 7922772
Core_0_L2C_total_hit 5226465
Core_0_L2C_total_miss 2696307
Core_0_L2C_total_MPKI 26.9631
Core_0_L2C_total_miss_rate 0.340324
Core_0_L2C_demand_access 2512384
Core_0_L2C_demand_hit 539650
Core_0_L2C_demand_miss 1972734
Core_0_L2C_demand_MPKI 19.7273
Core_0_L2C_demand_miss_rate 0.785204
Core_0_L2C_load_access 2390774
Core_0_L2C_load_hit 499149
Core_0_L2C_load_miss 1891625
Core_0_L2C_load_MPKI 18.9163
Core_0_L2C_load_miss_rate 0.791219
Core_0_L2C_rfo_access 121610
Core_0_L2C_rfo_hit 40501
Core_0_L2C_rfo_miss 81109
Core_0_L2C_rfo_MPKI 0.81109
Core_0_L2C_rfo_miss_rate 0.66696
Core_0_L2C_prefetch_access 3798606
Core_0_L2C_prefetch_hit 3075072
Core_0_L2C_prefetch_miss 723534
Core_0_L2C_prefetch_MPKI 7.23534
Core_0_L2C_prefetch_miss_rate 0.190474
Core_0_L2C_writeback_access 1611782
Core_0_L2C_writeback_hit 1611743
Core_0_L2C_writeback_miss 39
Core_0_L2C_writeback_MPKI 0.00039
Core_0_L2C_writeback_miss_rate 2.41968e-05
Core_0_L2C_prefetch_requested 1119680
Core_0_L2C_prefetch_issued 1092007
Core_0_L2C_prefetch_useful 156885
Core_0_L2C_prefetch_useless 6808
Core_0_L2C_prefetch_late 41624
Core_0_L2C_prefetch_accuracy 0.143667
Core_0_L2C_prefetch_coverage 0.0736681
Core_0_L2C_total_eviction 2366536

Core_0_LLC_total_access 3907432
Core_0_LLC_total_hit 776504
Core_0_LLC_total_miss 3130928
Core_0_LLC_total_MPKI 31.3093
Core_0_LLC_total_miss_rate 0.801275
Core_0_LLC_demand_access 1922305
Core_0_LLC_demand_hit 281701
Core_0_LLC_demand_miss 1640604
Core_0_LLC_demand_MPKI 16.406
Core_0_LLC_demand_miss_rate 0.853457
Core_0_LLC_load_access 1847100
Core_0_LLC_load_hit 269515
Core_0_LLC_load_miss 1577585
Core_0_LLC_load_MPKI 15.7759
Core_0_LLC_load_miss_rate 0.854087
Core_0_LLC_rfo_access 75205
Core_0_LLC_rfo_hit 12186
Core_0_LLC_rfo_miss 63019
Core_0_LLC_rfo_MPKI 0.63019
Core_0_LLC_rfo_miss_rate 0.837963
Core_0_LLC_prefetch_access 501459
Core_0_LLC_prefetch_hit 98679
Core_0_LLC_prefetch_miss 402780
Core_0_LLC_prefetch_MPKI 4.0278
Core_0_LLC_prefetch_miss_rate 0.803216
Core_0_LLC_writeback_access 1483668
Core_0_LLC_writeback_hit 396124
Core_0_LLC_writeback_miss 1087544
Core_0_LLC_writeback_MPKI 10.8754
Core_0_LLC_writeback_miss_rate 0.73301
Core_0_LLC_prefetch_requested 0
Core_0_LLC_prefetch_issued 0
Core_0_LLC_prefetch_useful 0
Core_0_LLC_prefetch_useless 0
Core_0_LLC_prefetch_late 0
Core_0_LLC_prefetch_accuracy 0
Core_0_LLC_prefetch_coverage 0
Core_0_LLC_total_eviction 3087865

[DRAM Statistics]
Channel_0_RQ_row_buffer_hit 40061
Channel_0_RQ_row_buffer_miss 1959951
Channel_0_WQ_row_buffer_hit 386065
Channel_0_WQ_row_buffer_miss 944843
Channel_0_WQ_full 676
Channel_0_dbus_congested 11423809
DRAM_total_RQ_row_buffer_hit 40061
DRAM_total_RQ_row_buffer_miss 1959951
DRAM_total_WQ_row_buffer_hit 386065
DRAM_total_WQ_row_buffer_miss 944843
DRAM_total_WQ_full 676
DRAM_total_dbus_congested 11423809
DRAM_avg_congested_cycle 6.0041

======STLB miss causes ========
Core_0_STLB_miss_cause_breakdown
Core_0_STLB_cause_Demand_Data_miss 0
Core_0_STLB_cause_Demand_Data_miss_rate 0
Core_0_STLB_cause_Demand_Instruction_miss 0
Core_0_STLB_cause_Demand_Instruction_miss_rate 0
Core_0_STLB_cause_L1D_Prefetch_miss 4830
Core_0_STLB_cause_L1D_Prefetch_miss_rate 0.00306014
Core_0_STLB_cause_L1I_Prefetch_miss 0
Core_0_STLB_cause_L1I_Prefetch_miss_rate 0
Core_0_STLB_cause_Other_miss 0
Core_0_STLB_cause_Other_miss_rate 0
Core_0_STLB_Demand_miss 0
Core_0_STLB_Demand_miss_rate 0
Core_0_STLB_L1D_Prefetch_miss 4830
Core_0_STLB_L1D_Prefetch_miss_rate 0.00306014
Core_0_STLB_Other_miss 0
Core_0_STLB_Other_miss_rate 0
BERTI TO_L1: 73199241 TO_L2: 98524614 TO_L2_BC_MSHR: 30024152
BERTI AVG_LAT: 125.328 NUM_TRACK_LATENCY: 4628759 NUM_CANT_TRACK_LATENCY: 74
BERTI CROSS_PAGE 20694231 NO_CROSS_PAGE: 151029624
BERTI FOUND_BERTI: 30784041 NO_FOUND_BERTI: 15348680
BERTI AVERAGE_ISSUED: 2.87692
