[VMEM] WARNING: physical memory size is smaller than virtual memory size.

*** ChampSim Multicore Out-of-Order Simulator ***
Warmup Instructions: 50000000
Simulation Instructions: 100000000
Number of CPUs: 1
Page size: 4096
STLB ideal mode: demand
STLB ideal fill: on
Core 0: /data2/zcq/champsim_traces_xsbench/xs.XXL64nuclide-531B.champsimtrace.xz
VBerti Prefetcher
BERTI HASH ENTANGLING
BERTI IP MASK ffff
Off-chip DRAM Size: 16 GiB Channels: 1 Width: 64-bit Data Rate: 3205 MT/s
Warmup halting CPU 0 at instruction 50000005 cycle 10556104 for remainder of phase
Warmup finished CPU 0 instructions: 50000005 cycles: 10556104 cumulative IPC: 4.737 (Simulation time: 00 hr 02 min 06 sec)
Warmup complete CPU 0 instructions: 50000005 cycles: 10556104 cumulative IPC: 4.737 (Simulation time: 00 hr 02 min 06 sec)
Simulation finished CPU 0 instructions: 100000002 cycles: 512734474 cumulative IPC: 0.195 (Simulation time: 00 hr 32 min 56 sec)
Simulation complete CPU 0 instructions: 100000002 cycles: 512734474 cumulative IPC: 0.195 (Simulation time: 00 hr 32 min 56 sec)

ChampSim completed all CPUs

=== Simulation ===
CPU 0 runs /data2/zcq/champsim_traces_xsbench/xs.XXL64nuclide-531B.champsimtrace.xz

Region of Interest Statistics

CPU 0 cumulative IPC: 0.195 instructions: 100000002 cycles: 512734474
CPU 0 Branch Prediction Accuracy: 87.24% MPKI: 21.5 Average ROB Occupancy at Mispredict: 26.39
Branch type MPKI
BRANCH_DIRECT_JUMP: 0
BRANCH_INDIRECT: 0
BRANCH_CONDITIONAL: 21.5
BRANCH_DIRECT_CALL: 0
BRANCH_INDIRECT_CALL: 0
BRANCH_RETURN: 0

cpu0->cpu0_STLB TOTAL        ACCESS:    4001130 HIT:    3999487 MISS:       1643 MSHR_MERGE:          0
cpu0->cpu0_STLB LOAD         ACCESS:    4001130 HIT:    3999487 MISS:       1643 MSHR_MERGE:          0
cpu0->cpu0_STLB RFO          ACCESS:          0 HIT:          0 MISS:          0 MSHR_MERGE:          0
cpu0->cpu0_STLB PREFETCH     ACCESS:          0 HIT:          0 MISS:          0 MSHR_MERGE:          0
cpu0->cpu0_STLB WRITE        ACCESS:          0 HIT:          0 MISS:          0 MSHR_MERGE:          0
cpu0->cpu0_STLB TRANSLATION  ACCESS:          0 HIT:          0 MISS:          0 MSHR_MERGE:          0
cpu0->cpu0_STLB PREFETCH REQUESTED:          0 ISSUED:          0 USEFUL:          0 USELESS:          0 LATE:          0
cpu0->cpu0_STLB AVERAGE MISS LATENCY: 22.27 cycles
cpu0->cpu0_L2C TOTAL        ACCESS:    7051946 HIT:    1341602 MISS:    5710344 MSHR_MERGE:       6549
cpu0->cpu0_L2C LOAD         ACCESS:    5938992 HIT:     424828 MISS:    5514164 MSHR_MERGE:          0
cpu0->cpu0_L2C RFO          ACCESS:       8473 HIT:       7715 MISS:        758 MSHR_MERGE:          0
cpu0->cpu0_L2C PREFETCH     ACCESS:    1090444 HIT:     895508 MISS:     194936 MSHR_MERGE:       6549
cpu0->cpu0_L2C WRITE        ACCESS:      12675 HIT:      12597 MISS:         78 MSHR_MERGE:          0
cpu0->cpu0_L2C TRANSLATION  ACCESS:       1362 HIT:        954 MISS:        408 MSHR_MERGE:          0
cpu0->cpu0_L2C PREFETCH REQUESTED:     254255 ISSUED:     254255 USEFUL:       5193 USELESS:     134691 LATE:          0
cpu0->cpu0_L2C AVERAGE MISS LATENCY: 173.2 cycles
cpu0->cpu0_L1I TOTAL        ACCESS:      21122 HIT:      21122 MISS:          0 MSHR_MERGE:          0
cpu0->cpu0_L1I LOAD         ACCESS:      21122 HIT:      21122 MISS:          0 MSHR_MERGE:          0
cpu0->cpu0_L1I RFO          ACCESS:          0 HIT:          0 MISS:          0 MSHR_MERGE:          0
cpu0->cpu0_L1I PREFETCH     ACCESS:          0 HIT:          0 MISS:          0 MSHR_MERGE:          0
cpu0->cpu0_L1I WRITE        ACCESS:          0 HIT:          0 MISS:          0 MSHR_MERGE:          0
cpu0->cpu0_L1I TRANSLATION  ACCESS:          0 HIT:          0 MISS:          0 MSHR_MERGE:          0
cpu0->cpu0_L1I PREFETCH REQUESTED:          0 ISSUED:          0 USEFUL:          0 USELESS:          0 LATE:          0
cpu0->cpu0_L1I AVERAGE MISS LATENCY: - cycles
cpu0->cpu0_L1D TOTAL        ACCESS:   13575648 HIT:    6666509 MISS:    6909139 MSHR_MERGE:     124092
cpu0->cpu0_L1D LOAD         ACCESS:    9561567 HIT:    3524437 MISS:    6037130 MSHR_MERGE:      98138
cpu0->cpu0_L1D RFO          ACCESS:          0 HIT:          0 MISS:          0 MSHR_MERGE:          0
cpu0->cpu0_L1D PREFETCH     ACCESS:    2200679 HIT:    1363946 MISS:     836733 MSHR_MERGE:        544
cpu0->cpu0_L1D WRITE        ACCESS:    1810173 HIT:    1776279 MISS:      33894 MSHR_MERGE:      25390
cpu0->cpu0_L1D TRANSLATION  ACCESS:       3229 HIT:       1847 MISS:       1382 MSHR_MERGE:         20
cpu0->cpu0_L1D PREFETCH REQUESTED:    2466441 ISSUED:    2200679 USEFUL:      42630 USELESS:      41427 LATE:         53
cpu0->cpu0_L1D AVERAGE MISS LATENCY: 169.5 cycles
cpu0->cpu0_ITLB TOTAL        ACCESS:      17127 HIT:      17127 MISS:          0 MSHR_MERGE:          0
cpu0->cpu0_ITLB LOAD         ACCESS:      17127 HIT:      17127 MISS:          0 MSHR_MERGE:          0
cpu0->cpu0_ITLB RFO          ACCESS:          0 HIT:          0 MISS:          0 MSHR_MERGE:          0
cpu0->cpu0_ITLB PREFETCH     ACCESS:          0 HIT:          0 MISS:          0 MSHR_MERGE:          0
cpu0->cpu0_ITLB WRITE        ACCESS:          0 HIT:          0 MISS:          0 MSHR_MERGE:          0
cpu0->cpu0_ITLB TRANSLATION  ACCESS:          0 HIT:          0 MISS:          0 MSHR_MERGE:          0
cpu0->cpu0_ITLB PREFETCH REQUESTED:          0 ISSUED:          0 USEFUL:          0 USELESS:          0 LATE:          0
cpu0->cpu0_ITLB AVERAGE MISS LATENCY: - cycles
cpu0->cpu0_DTLB TOTAL        ACCESS:   12927714 HIT:    8792113 MISS:    4135601 MSHR_MERGE:     134471
cpu0->cpu0_DTLB LOAD         ACCESS:   12927714 HIT:    8792113 MISS:    4135601 MSHR_MERGE:     134471
cpu0->cpu0_DTLB RFO          ACCESS:          0 HIT:          0 MISS:          0 MSHR_MERGE:          0
cpu0->cpu0_DTLB PREFETCH     ACCESS:          0 HIT:          0 MISS:          0 MSHR_MERGE:          0
cpu0->cpu0_DTLB WRITE        ACCESS:          0 HIT:          0 MISS:          0 MSHR_MERGE:          0
cpu0->cpu0_DTLB TRANSLATION  ACCESS:          0 HIT:          0 MISS:          0 MSHR_MERGE:          0
cpu0->cpu0_DTLB PREFETCH REQUESTED:          0 ISSUED:          0 USEFUL:          0 USELESS:          0 LATE:          0
cpu0->cpu0_DTLB AVERAGE MISS LATENCY: 5.013 cycles
cpu0->LLC TOTAL        ACCESS:    5705880 HIT:    1332696 MISS:    4373184 MSHR_MERGE:          0
cpu0->LLC LOAD         ACCESS:    5514164 HIT:    1276884 MISS:    4237280 MSHR_MERGE:          0
cpu0->LLC RFO          ACCESS:        758 HIT:        758 MISS:          0 MSHR_MERGE:          0
cpu0->LLC PREFETCH     ACCESS:     188387 HIT:      52485 MISS:     135902 MSHR_MERGE:          0
cpu0->LLC WRITE        ACCESS:       2163 HIT:       2161 MISS:          2 MSHR_MERGE:          0
cpu0->LLC TRANSLATION  ACCESS:        408 HIT:        408 MISS:          0 MSHR_MERGE:          0
cpu0->LLC PREFETCH REQUESTED:          0 ISSUED:          0 USEFUL:          0 USELESS:          0 LATE:          0
cpu0->LLC AVERAGE MISS LATENCY: 204.9 cycles

DRAM Statistics

Channel 0 RQ ROW_BUFFER_HIT:      29377
  ROW_BUFFER_MISS:    4343805
  AVG DBUS CONGESTED CYCLE: 2.964
Channel 0 WQ ROW_BUFFER_HIT:          1
  ROW_BUFFER_MISS:          2
  FULL:          0
Channel 0 REFRESHES ISSUED:      42728

[ROI Statistics]
[System Configuration]
num_cpus 1
cpu_freq 4000
fetch_width 6
decode_width 6
dispatch_width 6
execute_width 6
lq_width 2
sq_width 2
retire_width 6
scheduler_size 128
branch_mispredict_penalty 15
rob_size 352
lq_size 128
sq_size 72
ifetch_buffer_size 64
decode_buffer_size 32
dispatch_buffer_size 32
register_file_size 288
decode_latency 1
dispatch_latency 1
schedule_latency 1
execute_latency 1
page_size 4096
block_size 64
core_0_itlb_set 16
core_0_itlb_way 4
core_0_itlb_rq_size 16
core_0_itlb_wq_size 16
core_0_itlb_pq_size 0
core_0_itlb_mshr_size 8
core_0_itlb_hit_latency 1
core_0_itlb_fill_latency 1
core_0_itlb_max_tag_check 2
core_0_itlb_max_fill 2
core_0_dtlb_set 16
core_0_dtlb_way 4
core_0_dtlb_rq_size 16
core_0_dtlb_wq_size 16
core_0_dtlb_pq_size 0
core_0_dtlb_mshr_size 8
core_0_dtlb_hit_latency 1
core_0_dtlb_fill_latency 1
core_0_dtlb_max_tag_check 2
core_0_dtlb_max_fill 2
core_0_stlb_set 128
core_0_stlb_way 12
core_0_stlb_rq_size 32
core_0_stlb_wq_size 32
core_0_stlb_pq_size 0
core_0_stlb_mshr_size 16
core_0_stlb_hit_latency 4
core_0_stlb_fill_latency 4
core_0_stlb_max_tag_check 1
core_0_stlb_max_fill 1
core_0_l1i_set 64
core_0_l1i_way 8
core_0_l1i_rq_size 64
core_0_l1i_wq_size 64
core_0_l1i_pq_size 32
core_0_l1i_mshr_size 8
core_0_l1i_hit_latency 2
core_0_l1i_fill_latency 2
core_0_l1i_max_tag_check 2
core_0_l1i_max_fill 2
core_0_l1d_set 64
core_0_l1d_way 12
core_0_l1d_rq_size 64
core_0_l1d_wq_size 64
core_0_l1d_pq_size 8
core_0_l1d_mshr_size 16
core_0_l1d_hit_latency 2
core_0_l1d_fill_latency 3
core_0_l1d_max_tag_check 2
core_0_l1d_max_fill 2
core_0_l2c_set 1024
core_0_l2c_way 8
core_0_l2c_rq_size 32
core_0_l2c_wq_size 32
core_0_l2c_pq_size 16
core_0_l2c_mshr_size 32
core_0_l2c_hit_latency 5
core_0_l2c_fill_latency 5
core_0_l2c_max_tag_check 1
core_0_l2c_max_fill 1
llc_set 2048
llc_way 16
llc_rq_size 32
llc_wq_size 32
llc_pq_size 32
llc_mshr_size 64
llc_hit_latency 10
llc_fill_latency 10
llc_max_tag_check 1
llc_max_fill 1
dram_channels 1
dram_ranks 1
dram_bankgroups 8
dram_banks 4
dram_rows 65536
dram_columns 1024
dram_channel_width 8
dram_rq_size 64
dram_wq_size 64
dram_size 17179869184
core_0_itlb_prefetcher no
core_0_dtlb_prefetcher no
core_0_stlb_prefetcher no
core_0_l1i_prefetcher next_line
core_0_l1d_prefetcher vberti
core_0_l2c_prefetcher ip_stride
llc_prefetcher no
llc_replacement drrip

Core_0_instructions 100000002
Core_0_cycles 512734474
Core_0_IPC 0.195033
Core_0_branch_prediction_accuracy 87.2432
Core_0_branch_MPKI 21.4969
Core_0_average_ROB_occupancy_at_mispredict 26.3908

Core_0_ITLB_total_access 17127
Core_0_ITLB_total_hit 17127
Core_0_ITLB_total_miss 0
Core_0_ITLB_total_MPKI 0
Core_0_ITLB_total_miss_rate 0
Core_0_ITLB_demand_access 17127
Core_0_ITLB_demand_hit 17127
Core_0_ITLB_demand_miss 0
Core_0_ITLB_demand_MPKI 0
Core_0_ITLB_demand_miss_rate 0
Core_0_ITLB_load_access 17127
Core_0_ITLB_load_hit 17127
Core_0_ITLB_load_miss 0
Core_0_ITLB_load_MPKI 0
Core_0_ITLB_load_miss_rate 0
Core_0_ITLB_rfo_access 0
Core_0_ITLB_rfo_hit 0
Core_0_ITLB_rfo_miss 0
Core_0_ITLB_rfo_MPKI 0
Core_0_ITLB_rfo_miss_rate 0
Core_0_ITLB_prefetch_access 0
Core_0_ITLB_prefetch_hit 0
Core_0_ITLB_prefetch_miss 0
Core_0_ITLB_prefetch_MPKI 0
Core_0_ITLB_prefetch_miss_rate 0
Core_0_ITLB_writeback_access 0
Core_0_ITLB_writeback_hit 0
Core_0_ITLB_writeback_miss 0
Core_0_ITLB_writeback_MPKI 0
Core_0_ITLB_writeback_miss_rate 0
Core_0_ITLB_prefetch_requested 0
Core_0_ITLB_prefetch_issued 0
Core_0_ITLB_prefetch_useful 0
Core_0_ITLB_prefetch_useless 0
Core_0_ITLB_prefetch_late 0
Core_0_ITLB_prefetch_accuracy 0
Core_0_ITLB_prefetch_coverage 0
Core_0_ITLB_total_eviction 0

Core_0_DTLB_total_access 12927714
Core_0_DTLB_total_hit 8792113
Core_0_DTLB_total_miss 4135601
Core_0_DTLB_total_MPKI 41.356
Core_0_DTLB_total_miss_rate 0.319902
Core_0_DTLB_demand_access 12927714
Core_0_DTLB_demand_hit 8792113
Core_0_DTLB_demand_miss 4135601
Core_0_DTLB_demand_MPKI 41.356
Core_0_DTLB_demand_miss_rate 0.319902
Core_0_DTLB_load_access 12927714
Core_0_DTLB_load_hit 8792113
Core_0_DTLB_load_miss 4135601
Core_0_DTLB_load_MPKI 41.356
Core_0_DTLB_load_miss_rate 0.319902
Core_0_DTLB_rfo_access 0
Core_0_DTLB_rfo_hit 0
Core_0_DTLB_rfo_miss 0
Core_0_DTLB_rfo_MPKI 0
Core_0_DTLB_rfo_miss_rate 0
Core_0_DTLB_prefetch_access 0
Core_0_DTLB_prefetch_hit 0
Core_0_DTLB_prefetch_miss 0
Core_0_DTLB_prefetch_MPKI 0
Core_0_DTLB_prefetch_miss_rate 0
Core_0_DTLB_writeback_access 0
Core_0_DTLB_writeback_hit 0
Core_0_DTLB_writeback_miss 0
Core_0_DTLB_writeback_MPKI 0
Core_0_DTLB_writeback_miss_rate 0
Core_0_DTLB_prefetch_requested 0
Core_0_DTLB_prefetch_issued 0
Core_0_DTLB_prefetch_useful 0
Core_0_DTLB_prefetch_useless 0
Core_0_DTLB_prefetch_late 0
Core_0_DTLB_prefetch_accuracy 0
Core_0_DTLB_prefetch_coverage 0
Core_0_DTLB_total_eviction 4001130

Core_0_STLB_total_access 4001130
Core_0_STLB_total_hit 3999487
Core_0_STLB_total_miss 1643
Core_0_STLB_total_MPKI 0.01643
Core_0_STLB_total_miss_rate 0.000410634
Core_0_STLB_demand_access 4001130
Core_0_STLB_demand_hit 3999487
Core_0_STLB_demand_miss 1643
Core_0_STLB_demand_MPKI 0.01643
Core_0_STLB_demand_miss_rate 0.000410634
Core_0_STLB_load_access 4001130
Core_0_STLB_load_hit 3999487
Core_0_STLB_load_miss 1643
Core_0_STLB_load_MPKI 0.01643
Core_0_STLB_load_miss_rate 0.000410634
Core_0_STLB_rfo_access 0
Core_0_STLB_rfo_hit 0
Core_0_STLB_rfo_miss 0
Core_0_STLB_rfo_MPKI 0
Core_0_STLB_rfo_miss_rate 0
Core_0_STLB_prefetch_access 0
Core_0_STLB_prefetch_hit 0
Core_0_STLB_prefetch_miss 0
Core_0_STLB_prefetch_MPKI 0
Core_0_STLB_prefetch_miss_rate 0
Core_0_STLB_writeback_access 0
Core_0_STLB_writeback_hit 0
Core_0_STLB_writeback_miss 0
Core_0_STLB_writeback_MPKI 0
Core_0_STLB_writeback_miss_rate 0
Core_0_STLB_prefetch_requested 0
Core_0_STLB_prefetch_issued 0
Core_0_STLB_prefetch_useful 0
Core_0_STLB_prefetch_useless 0
Core_0_STLB_prefetch_late 0
Core_0_STLB_prefetch_accuracy 0
Core_0_STLB_prefetch_coverage 0
Core_0_STLB_total_eviction 3858232

Core_0_L1I_total_access 21122
Core_0_L1I_total_hit 21122
Core_0_L1I_total_miss 0
Core_0_L1I_total_MPKI 0
Core_0_L1I_total_miss_rate 0
Core_0_L1I_demand_access 21122
Core_0_L1I_demand_hit 21122
Core_0_L1I_demand_miss 0
Core_0_L1I_demand_MPKI 0
Core_0_L1I_demand_miss_rate 0
Core_0_L1I_load_access 21122
Core_0_L1I_load_hit 21122
Core_0_L1I_load_miss 0
Core_0_L1I_load_MPKI 0
Core_0_L1I_load_miss_rate 0
Core_0_L1I_rfo_access 0
Core_0_L1I_rfo_hit 0
Core_0_L1I_rfo_miss 0
Core_0_L1I_rfo_MPKI 0
Core_0_L1I_rfo_miss_rate 0
Core_0_L1I_prefetch_access 0
Core_0_L1I_prefetch_hit 0
Core_0_L1I_prefetch_miss 0
Core_0_L1I_prefetch_MPKI 0
Core_0_L1I_prefetch_miss_rate 0
Core_0_L1I_writeback_access 0
Core_0_L1I_writeback_hit 0
Core_0_L1I_writeback_miss 0
Core_0_L1I_writeback_MPKI 0
Core_0_L1I_writeback_miss_rate 0
Core_0_L1I_prefetch_requested 0
Core_0_L1I_prefetch_issued 0
Core_0_L1I_prefetch_useful 0
Core_0_L1I_prefetch_useless 0
Core_0_L1I_prefetch_late 0
Core_0_L1I_prefetch_accuracy 0
Core_0_L1I_prefetch_coverage 0
Core_0_L1I_total_eviction 0

Core_0_L1D_total_access 13572419
Core_0_L1D_total_hit 6664662
Core_0_L1D_total_miss 6907757
Core_0_L1D_total_MPKI 69.0776
Core_0_L1D_total_miss_rate 0.508955
Core_0_L1D_demand_access 9561567
Core_0_L1D_demand_hit 3524437
Core_0_L1D_demand_miss 6037130
Core_0_L1D_demand_MPKI 60.3713
Core_0_L1D_demand_miss_rate 0.631395
Core_0_L1D_load_access 9561567
Core_0_L1D_load_hit 3524437
Core_0_L1D_load_miss 6037130
Core_0_L1D_load_MPKI 60.3713
Core_0_L1D_load_miss_rate 0.631395
Core_0_L1D_rfo_access 0
Core_0_L1D_rfo_hit 0
Core_0_L1D_rfo_miss 0
Core_0_L1D_rfo_MPKI 0
Core_0_L1D_rfo_miss_rate 0
Core_0_L1D_prefetch_access 2200679
Core_0_L1D_prefetch_hit 1363946
Core_0_L1D_prefetch_miss 836733
Core_0_L1D_prefetch_MPKI 8.36733
Core_0_L1D_prefetch_miss_rate 0.380216
Core_0_L1D_writeback_access 1810173
Core_0_L1D_writeback_hit 1776279
Core_0_L1D_writeback_miss 33894
Core_0_L1D_writeback_MPKI 0.33894
Core_0_L1D_writeback_miss_rate 0.0187242
Core_0_L1D_prefetch_requested 2466441
Core_0_L1D_prefetch_issued 2200679
Core_0_L1D_prefetch_useful 42630
Core_0_L1D_prefetch_useless 41427
Core_0_L1D_prefetch_late 53
Core_0_L1D_prefetch_accuracy 0.0193713
Core_0_L1D_prefetch_coverage 0.00701179
Core_0_L1D_total_eviction 6032906

Core_0_L2C_total_access 7050584
Core_0_L2C_total_hit 1340648
Core_0_L2C_total_miss 5709936
Core_0_L2C_total_MPKI 57.0994
Core_0_L2C_total_miss_rate 0.809853
Core_0_L2C_demand_access 5947465
Core_0_L2C_demand_hit 432543
Core_0_L2C_demand_miss 5514922
Core_0_L2C_demand_MPKI 55.1492
Core_0_L2C_demand_miss_rate 0.927273
Core_0_L2C_load_access 5938992
Core_0_L2C_load_hit 424828
Core_0_L2C_load_miss 5514164
Core_0_L2C_load_MPKI 55.1416
Core_0_L2C_load_miss_rate 0.928468
Core_0_L2C_rfo_access 8473
Core_0_L2C_rfo_hit 7715
Core_0_L2C_rfo_miss 758
Core_0_L2C_rfo_MPKI 0.00758
Core_0_L2C_rfo_miss_rate 0.0894606
Core_0_L2C_prefetch_access 1090444
Core_0_L2C_prefetch_hit 895508
Core_0_L2C_prefetch_miss 194936
Core_0_L2C_prefetch_MPKI 1.94936
Core_0_L2C_prefetch_miss_rate 0.178768
Core_0_L2C_writeback_access 12675
Core_0_L2C_writeback_hit 12597
Core_0_L2C_writeback_miss 78
Core_0_L2C_writeback_MPKI 0.00078
Core_0_L2C_writeback_miss_rate 0.00615385
Core_0_L2C_prefetch_requested 254255
Core_0_L2C_prefetch_issued 254255
Core_0_L2C_prefetch_useful 5193
Core_0_L2C_prefetch_useless 134691
Core_0_L2C_prefetch_late 0
Core_0_L2C_prefetch_accuracy 0.0204244
Core_0_L2C_prefetch_coverage 0.000940741
Core_0_L2C_total_eviction 5703792

Core_0_LLC_total_access 5705472
Core_0_LLC_total_hit 1332288
Core_0_LLC_total_miss 4373184
Core_0_LLC_total_MPKI 43.7318
Core_0_LLC_total_miss_rate 0.766489
Core_0_LLC_demand_access 5514922
Core_0_LLC_demand_hit 1277642
Core_0_LLC_demand_miss 4237280
Core_0_LLC_demand_MPKI 42.3728
Core_0_LLC_demand_miss_rate 0.76833
Core_0_LLC_load_access 5514164
Core_0_LLC_load_hit 1276884
Core_0_LLC_load_miss 4237280
Core_0_LLC_load_MPKI 42.3728
Core_0_LLC_load_miss_rate 0.768436
Core_0_LLC_rfo_access 758
Core_0_LLC_rfo_hit 758
Core_0_LLC_rfo_miss 0
Core_0_LLC_rfo_MPKI 0
Core_0_LLC_rfo_miss_rate 0
Core_0_LLC_prefetch_access 188387
Core_0_LLC_prefetch_hit 52485
Core_0_LLC_prefetch_miss 135902
Core_0_LLC_prefetch_MPKI 1.35902
Core_0_LLC_prefetch_miss_rate 0.721398
Core_0_LLC_writeback_access 2163
Core_0_LLC_writeback_hit 2161
Core_0_LLC_writeback_miss 2
Core_0_LLC_writeback_MPKI 2e-05
Core_0_LLC_writeback_miss_rate 0.000924642
Core_0_LLC_prefetch_requested 0
Core_0_LLC_prefetch_issued 0
Core_0_LLC_prefetch_useful 0
Core_0_LLC_prefetch_useless 0
Core_0_LLC_prefetch_late 0
Core_0_LLC_prefetch_accuracy 0
Core_0_LLC_prefetch_coverage 0
Core_0_LLC_total_eviction 4373183

[DRAM Statistics]
Channel_0_RQ_row_buffer_hit 29377
Channel_0_RQ_row_buffer_miss 4343805
Channel_0_WQ_row_buffer_hit 1
Channel_0_WQ_row_buffer_miss 2
Channel_0_WQ_full 0
Channel_0_dbus_congested 5660194
DRAM_total_RQ_row_buffer_hit 29377
DRAM_total_RQ_row_buffer_miss 4343805
DRAM_total_WQ_row_buffer_hit 1
DRAM_total_WQ_row_buffer_miss 2
DRAM_total_WQ_full 0
DRAM_total_dbus_congested 5660194
DRAM_avg_congested_cycle 2.96382

======STLB miss causes ========
Core_0_STLB_miss_cause_breakdown
Core_0_STLB_cause_Demand_Data_miss 0
Core_0_STLB_cause_Demand_Data_miss_rate 0
Core_0_STLB_cause_Demand_Instruction_miss 0
Core_0_STLB_cause_Demand_Instruction_miss_rate 0
Core_0_STLB_cause_L1D_Prefetch_miss 1643
Core_0_STLB_cause_L1D_Prefetch_miss_rate 0.000410634
Core_0_STLB_cause_L1I_Prefetch_miss 0
Core_0_STLB_cause_L1I_Prefetch_miss_rate 0
Core_0_STLB_cause_Other_miss 0
Core_0_STLB_cause_Other_miss_rate 0
Core_0_STLB_Demand_miss 0
Core_0_STLB_Demand_miss_rate 0
Core_0_STLB_L1D_Prefetch_miss 1643
Core_0_STLB_L1D_Prefetch_miss_rate 0.000410634
Core_0_STLB_Other_miss 0
Core_0_STLB_Other_miss_rate 0
BERTI TO_L1: 2647097 TO_L2: 1910257 TO_L2_BC_MSHR: 0
BERTI AVG_LAT: 114.597 NUM_TRACK_LATENCY: 9021739 NUM_CANT_TRACK_LATENCY: 0
BERTI CROSS_PAGE 477678 NO_CROSS_PAGE: 4079676
BERTI FOUND_BERTI: 12245385 NO_FOUND_BERTI: 4774444
BERTI AVERAGE_ISSUED: 3.55637
