[VMEM] WARNING: physical memory size is smaller than virtual memory size.

*** ChampSim Multicore Out-of-Order Simulator ***
Warmup Instructions: 50000000
Simulation Instructions: 100000000
Number of CPUs: 1
Page size: 4096
Core 0: /data0/tzh/champsim_traces/SPEC17/605.mcf_s-1536B.champsimtrace.xz
VBerti Prefetcher
BERTI HASH ENTANGLING
BERTI IP MASK ffff
Off-chip DRAM Size: 16 GiB Channels: 1 Width: 64-bit Data Rate: 3205 MT/s
Warmup halting CPU 0 at instruction 50000003 cycle 13719012 for remainder of phase
Warmup finished CPU 0 instructions: 50000003 cycles: 13719012 cumulative IPC: 3.645 (Simulation time: 00 hr 02 min 49 sec)
Warmup complete CPU 0 instructions: 50000003 cycles: 13719012 cumulative IPC: 3.645 (Simulation time: 00 hr 02 min 49 sec)
Simulation finished CPU 0 instructions: 100000003 cycles: 199933707 cumulative IPC: 0.5002 (Simulation time: 00 hr 26 min 50 sec)
Simulation complete CPU 0 instructions: 100000003 cycles: 199933707 cumulative IPC: 0.5002 (Simulation time: 00 hr 26 min 50 sec)

ChampSim completed all CPUs

=== Simulation ===
CPU 0 runs /data0/tzh/champsim_traces/SPEC17/605.mcf_s-1536B.champsimtrace.xz

Region of Interest Statistics

CPU 0 cumulative IPC: 0.5002 instructions: 100000003 cycles: 199933707
CPU 0 Branch Prediction Accuracy: 99.99% MPKI: 0.02047 Average ROB Occupancy at Mispredict: 317.5
Branch type MPKI
BRANCH_DIRECT_JUMP: 0
BRANCH_INDIRECT: 0
BRANCH_CONDITIONAL: 0.02047
BRANCH_DIRECT_CALL: 0
BRANCH_INDIRECT_CALL: 0
BRANCH_RETURN: 0

cpu0->cpu0_STLB TOTAL        ACCESS:    2446238 HIT:     206723 MISS:    2239515 MSHR_MERGE:          0
cpu0->cpu0_STLB LOAD         ACCESS:    2446238 HIT:     206723 MISS:    2239515 MSHR_MERGE:          0
cpu0->cpu0_STLB RFO          ACCESS:          0 HIT:          0 MISS:          0 MSHR_MERGE:          0
cpu0->cpu0_STLB PREFETCH     ACCESS:          0 HIT:          0 MISS:          0 MSHR_MERGE:          0
cpu0->cpu0_STLB WRITE        ACCESS:          0 HIT:          0 MISS:          0 MSHR_MERGE:          0
cpu0->cpu0_STLB TRANSLATION  ACCESS:          0 HIT:          0 MISS:          0 MSHR_MERGE:          0
cpu0->cpu0_STLB PREFETCH REQUESTED:          0 ISSUED:          0 USEFUL:          0 USELESS:          0 LATE:          0
cpu0->cpu0_STLB AVERAGE MISS LATENCY: 42.97 cycles
cpu0->cpu0_L2C TOTAL        ACCESS:   22311173 HIT:   17161880 MISS:    5149293 MSHR_MERGE:      45724
cpu0->cpu0_L2C LOAD         ACCESS:    5172423 HIT:    2199909 MISS:    2972514 MSHR_MERGE:       3698
cpu0->cpu0_L2C RFO          ACCESS:     287255 HIT:     102828 MISS:     184427 MSHR_MERGE:          0
cpu0->cpu0_L2C PREFETCH     ACCESS:   12363048 HIT:   11845298 MISS:     517750 MSHR_MERGE:      42026
cpu0->cpu0_L2C WRITE        ACCESS:    2227333 HIT:    2227332 MISS:          1 MSHR_MERGE:          0
cpu0->cpu0_L2C TRANSLATION  ACCESS:    2261114 HIT:     786513 MISS:    1474601 MSHR_MERGE:          0
cpu0->cpu0_L2C PREFETCH REQUESTED:     651760 ISSUED:     651628 USEFUL:      29070 USELESS:      54757 LATE:        126
cpu0->cpu0_L2C AVERAGE MISS LATENCY: 181.1 cycles
cpu0->cpu0_L1I TOTAL        ACCESS:   21483483 HIT:   21483483 MISS:          0 MSHR_MERGE:          0
cpu0->cpu0_L1I LOAD         ACCESS:   21483483 HIT:   21483483 MISS:          0 MSHR_MERGE:          0
cpu0->cpu0_L1I RFO          ACCESS:          0 HIT:          0 MISS:          0 MSHR_MERGE:          0
cpu0->cpu0_L1I PREFETCH     ACCESS:          0 HIT:          0 MISS:          0 MSHR_MERGE:          0
cpu0->cpu0_L1I WRITE        ACCESS:          0 HIT:          0 MISS:          0 MSHR_MERGE:          0
cpu0->cpu0_L1I TRANSLATION  ACCESS:          0 HIT:          0 MISS:          0 MSHR_MERGE:          0
cpu0->cpu0_L1I PREFETCH REQUESTED:          0 ISSUED:          0 USEFUL:          0 USELESS:          0 LATE:          0
cpu0->cpu0_L1I AVERAGE MISS LATENCY: - cycles
cpu0->cpu0_L1D TOTAL        ACCESS:   40206660 HIT:   18408639 MISS:   21798021 MSHR_MERGE:    2346052
cpu0->cpu0_L1D LOAD         ACCESS:   17865489 HIT:   10385397 MISS:    7480092 MSHR_MERGE:    2307668
cpu0->cpu0_L1D RFO          ACCESS:          0 HIT:          0 MISS:          0 MSHR_MERGE:          0
cpu0->cpu0_L1D PREFETCH     ACCESS:   13121223 HIT:    1387119 MISS:   11734104 MSHR_MERGE:       3078
cpu0->cpu0_L1D WRITE        ACCESS:    4434244 HIT:    4143380 MISS:     290864 MSHR_MERGE:       3460
cpu0->cpu0_L1D TRANSLATION  ACCESS:    4785704 HIT:    2492743 MISS:    2292961 MSHR_MERGE:      31846
cpu0->cpu0_L1D PREFETCH REQUESTED:   13744480 ISSUED:   13121229 USEFUL:      95355 USELESS:      85156 LATE:       1975
cpu0->cpu0_L1D AVERAGE MISS LATENCY: 117.4 cycles
cpu0->cpu0_ITLB TOTAL        ACCESS:   19208259 HIT:   19208259 MISS:          0 MSHR_MERGE:          0
cpu0->cpu0_ITLB LOAD         ACCESS:   19208259 HIT:   19208259 MISS:          0 MSHR_MERGE:          0
cpu0->cpu0_ITLB RFO          ACCESS:          0 HIT:          0 MISS:          0 MSHR_MERGE:          0
cpu0->cpu0_ITLB PREFETCH     ACCESS:          0 HIT:          0 MISS:          0 MSHR_MERGE:          0
cpu0->cpu0_ITLB WRITE        ACCESS:          0 HIT:          0 MISS:          0 MSHR_MERGE:          0
cpu0->cpu0_ITLB TRANSLATION  ACCESS:          0 HIT:          0 MISS:          0 MSHR_MERGE:          0
cpu0->cpu0_ITLB PREFETCH REQUESTED:          0 ISSUED:          0 USEFUL:          0 USELESS:          0 LATE:          0
cpu0->cpu0_ITLB AVERAGE MISS LATENCY: - cycles
cpu0->cpu0_DTLB TOTAL        ACCESS:   31067406 HIT:   25631314 MISS:    5436092 MSHR_MERGE:    2989854
cpu0->cpu0_DTLB LOAD         ACCESS:   31067406 HIT:   25631314 MISS:    5436092 MSHR_MERGE:    2989854
cpu0->cpu0_DTLB RFO          ACCESS:          0 HIT:          0 MISS:          0 MSHR_MERGE:          0
cpu0->cpu0_DTLB PREFETCH     ACCESS:          0 HIT:          0 MISS:          0 MSHR_MERGE:          0
cpu0->cpu0_DTLB WRITE        ACCESS:          0 HIT:          0 MISS:          0 MSHR_MERGE:          0
cpu0->cpu0_DTLB TRANSLATION  ACCESS:          0 HIT:          0 MISS:          0 MSHR_MERGE:          0
cpu0->cpu0_DTLB PREFETCH REQUESTED:          0 ISSUED:          0 USEFUL:          0 USELESS:          0 LATE:          0
cpu0->cpu0_DTLB AVERAGE MISS LATENCY: 45.25 cycles
cpu0->LLC TOTAL        ACCESS:    7321065 HIT:    4405139 MISS:    2915926 MSHR_MERGE:         44
cpu0->LLC LOAD         ACCESS:    2968816 HIT:     417635 MISS:    2551181 MSHR_MERGE:          0
cpu0->LLC RFO          ACCESS:     184427 HIT:     162950 MISS:      21477 MSHR_MERGE:          0
cpu0->LLC PREFETCH     ACCESS:     475724 HIT:     410917 MISS:      64807 MSHR_MERGE:         44
cpu0->LLC WRITE        ACCESS:    2217497 HIT:    1961732 MISS:     255765 MSHR_MERGE:          0
cpu0->LLC TRANSLATION  ACCESS:    1474601 HIT:    1451905 MISS:      22696 MSHR_MERGE:          0
cpu0->LLC PREFETCH REQUESTED:          0 ISSUED:          0 USEFUL:          0 USELESS:          0 LATE:          0
cpu0->LLC AVERAGE MISS LATENCY: 269.6 cycles

DRAM Statistics

Channel 0 RQ ROW_BUFFER_HIT:      33459
  ROW_BUFFER_MISS:    2626658
  AVG DBUS CONGESTED CYCLE: 5.932
Channel 0 WQ ROW_BUFFER_HIT:     506482
  ROW_BUFFER_MISS:    1711998
  FULL:          0
Channel 0 REFRESHES ISSUED:      16661

[ROI Statistics]
[System Configuration]
num_cpus 1
cpu_freq 4000
fetch_width 6
decode_width 6
dispatch_width 6
execute_width 6
lq_width 2
sq_width 2
retire_width 6
scheduler_size 128
branch_mispredict_penalty 15
rob_size 352
lq_size 128
sq_size 72
ifetch_buffer_size 64
decode_buffer_size 32
dispatch_buffer_size 32
register_file_size 288
decode_latency 1
dispatch_latency 1
schedule_latency 1
execute_latency 1
page_size 4096
block_size 64
core_0_itlb_set 16
core_0_itlb_way 4
core_0_itlb_rq_size 16
core_0_itlb_wq_size 16
core_0_itlb_pq_size 0
core_0_itlb_mshr_size 8
core_0_itlb_hit_latency 1
core_0_itlb_fill_latency 1
core_0_itlb_max_tag_check 2
core_0_itlb_max_fill 2
core_0_dtlb_set 16
core_0_dtlb_way 4
core_0_dtlb_rq_size 16
core_0_dtlb_wq_size 16
core_0_dtlb_pq_size 0
core_0_dtlb_mshr_size 8
core_0_dtlb_hit_latency 1
core_0_dtlb_fill_latency 1
core_0_dtlb_max_tag_check 2
core_0_dtlb_max_fill 2
core_0_stlb_set 128
core_0_stlb_way 12
core_0_stlb_rq_size 32
core_0_stlb_wq_size 32
core_0_stlb_pq_size 0
core_0_stlb_mshr_size 16
core_0_stlb_hit_latency 4
core_0_stlb_fill_latency 4
core_0_stlb_max_tag_check 1
core_0_stlb_max_fill 1
core_0_l1i_set 64
core_0_l1i_way 8
core_0_l1i_rq_size 64
core_0_l1i_wq_size 64
core_0_l1i_pq_size 32
core_0_l1i_mshr_size 8
core_0_l1i_hit_latency 2
core_0_l1i_fill_latency 2
core_0_l1i_max_tag_check 2
core_0_l1i_max_fill 2
core_0_l1d_set 64
core_0_l1d_way 12
core_0_l1d_rq_size 64
core_0_l1d_wq_size 64
core_0_l1d_pq_size 8
core_0_l1d_mshr_size 16
core_0_l1d_hit_latency 2
core_0_l1d_fill_latency 3
core_0_l1d_max_tag_check 2
core_0_l1d_max_fill 2
core_0_l2c_set 1024
core_0_l2c_way 8
core_0_l2c_rq_size 32
core_0_l2c_wq_size 32
core_0_l2c_pq_size 16
core_0_l2c_mshr_size 32
core_0_l2c_hit_latency 5
core_0_l2c_fill_latency 5
core_0_l2c_max_tag_check 1
core_0_l2c_max_fill 1
llc_set 2048
llc_way 16
llc_rq_size 32
llc_wq_size 32
llc_pq_size 32
llc_mshr_size 64
llc_hit_latency 10
llc_fill_latency 10
llc_max_tag_check 1
llc_max_fill 1
dram_channels 1
dram_ranks 1
dram_bankgroups 8
dram_banks 4
dram_rows 65536
dram_columns 1024
dram_channel_width 8
dram_rq_size 64
dram_wq_size 64
dram_size 17179869184
core_0_itlb_prefetcher no
core_0_dtlb_prefetcher no
core_0_stlb_prefetcher no
core_0_l1i_prefetcher next_line
core_0_l1d_prefetcher vberti
core_0_l2c_prefetcher ip_stride
llc_prefetcher no
llc_replacement drrip

Core_0_instructions 100000003
Core_0_cycles 199933707
Core_0_IPC 0.500166
Core_0_branch_prediction_accuracy 99.9869
Core_0_branch_MPKI 0.02047
Core_0_average_ROB_occupancy_at_mispredict 317.528

Core_0_ITLB_total_access 19208259
Core_0_ITLB_total_hit 19208259
Core_0_ITLB_total_miss 0
Core_0_ITLB_total_MPKI 0
Core_0_ITLB_total_miss_rate 0
Core_0_ITLB_demand_access 19208259
Core_0_ITLB_demand_hit 19208259
Core_0_ITLB_demand_miss 0
Core_0_ITLB_demand_MPKI 0
Core_0_ITLB_demand_miss_rate 0
Core_0_ITLB_load_access 19208259
Core_0_ITLB_load_hit 19208259
Core_0_ITLB_load_miss 0
Core_0_ITLB_load_MPKI 0
Core_0_ITLB_load_miss_rate 0
Core_0_ITLB_rfo_access 0
Core_0_ITLB_rfo_hit 0
Core_0_ITLB_rfo_miss 0
Core_0_ITLB_rfo_MPKI 0
Core_0_ITLB_rfo_miss_rate 0
Core_0_ITLB_prefetch_access 0
Core_0_ITLB_prefetch_hit 0
Core_0_ITLB_prefetch_miss 0
Core_0_ITLB_prefetch_MPKI 0
Core_0_ITLB_prefetch_miss_rate 0
Core_0_ITLB_writeback_access 0
Core_0_ITLB_writeback_hit 0
Core_0_ITLB_writeback_miss 0
Core_0_ITLB_writeback_MPKI 0
Core_0_ITLB_writeback_miss_rate 0
Core_0_ITLB_prefetch_requested 0
Core_0_ITLB_prefetch_issued 0
Core_0_ITLB_prefetch_useful 0
Core_0_ITLB_prefetch_useless 0
Core_0_ITLB_prefetch_late 0
Core_0_ITLB_prefetch_accuracy 0
Core_0_ITLB_prefetch_coverage 0

Core_0_DTLB_total_access 31067406
Core_0_DTLB_total_hit 25631314
Core_0_DTLB_total_miss 5436092
Core_0_DTLB_total_MPKI 54.3609
Core_0_DTLB_total_miss_rate 0.174977
Core_0_DTLB_demand_access 31067406
Core_0_DTLB_demand_hit 25631314
Core_0_DTLB_demand_miss 5436092
Core_0_DTLB_demand_MPKI 54.3609
Core_0_DTLB_demand_miss_rate 0.174977
Core_0_DTLB_load_access 31067406
Core_0_DTLB_load_hit 25631314
Core_0_DTLB_load_miss 5436092
Core_0_DTLB_load_MPKI 54.3609
Core_0_DTLB_load_miss_rate 0.174977
Core_0_DTLB_rfo_access 0
Core_0_DTLB_rfo_hit 0
Core_0_DTLB_rfo_miss 0
Core_0_DTLB_rfo_MPKI 0
Core_0_DTLB_rfo_miss_rate 0
Core_0_DTLB_prefetch_access 0
Core_0_DTLB_prefetch_hit 0
Core_0_DTLB_prefetch_miss 0
Core_0_DTLB_prefetch_MPKI 0
Core_0_DTLB_prefetch_miss_rate 0
Core_0_DTLB_writeback_access 0
Core_0_DTLB_writeback_hit 0
Core_0_DTLB_writeback_miss 0
Core_0_DTLB_writeback_MPKI 0
Core_0_DTLB_writeback_miss_rate 0
Core_0_DTLB_prefetch_requested 0
Core_0_DTLB_prefetch_issued 0
Core_0_DTLB_prefetch_useful 0
Core_0_DTLB_prefetch_useless 0
Core_0_DTLB_prefetch_late 0
Core_0_DTLB_prefetch_accuracy 0
Core_0_DTLB_prefetch_coverage 0

Core_0_STLB_total_access 2446238
Core_0_STLB_total_hit 206723
Core_0_STLB_total_miss 2239515
Core_0_STLB_total_MPKI 22.3951
Core_0_STLB_total_miss_rate 0.915494
Core_0_STLB_demand_access 2446238
Core_0_STLB_demand_hit 206723
Core_0_STLB_demand_miss 2239515
Core_0_STLB_demand_MPKI 22.3951
Core_0_STLB_demand_miss_rate 0.915494
Core_0_STLB_load_access 2446238
Core_0_STLB_load_hit 206723
Core_0_STLB_load_miss 2239515
Core_0_STLB_load_MPKI 22.3951
Core_0_STLB_load_miss_rate 0.915494
Core_0_STLB_rfo_access 0
Core_0_STLB_rfo_hit 0
Core_0_STLB_rfo_miss 0
Core_0_STLB_rfo_MPKI 0
Core_0_STLB_rfo_miss_rate 0
Core_0_STLB_prefetch_access 0
Core_0_STLB_prefetch_hit 0
Core_0_STLB_prefetch_miss 0
Core_0_STLB_prefetch_MPKI 0
Core_0_STLB_prefetch_miss_rate 0
Core_0_STLB_writeback_access 0
Core_0_STLB_writeback_hit 0
Core_0_STLB_writeback_miss 0
Core_0_STLB_writeback_MPKI 0
Core_0_STLB_writeback_miss_rate 0
Core_0_STLB_prefetch_requested 0
Core_0_STLB_prefetch_issued 0
Core_0_STLB_prefetch_useful 0
Core_0_STLB_prefetch_useless 0
Core_0_STLB_prefetch_late 0
Core_0_STLB_prefetch_accuracy 0
Core_0_STLB_prefetch_coverage 0

Core_0_L1I_total_access 21483483
Core_0_L1I_total_hit 21483483
Core_0_L1I_total_miss 0
Core_0_L1I_total_MPKI 0
Core_0_L1I_total_miss_rate 0
Core_0_L1I_demand_access 21483483
Core_0_L1I_demand_hit 21483483
Core_0_L1I_demand_miss 0
Core_0_L1I_demand_MPKI 0
Core_0_L1I_demand_miss_rate 0
Core_0_L1I_load_access 21483483
Core_0_L1I_load_hit 21483483
Core_0_L1I_load_miss 0
Core_0_L1I_load_MPKI 0
Core_0_L1I_load_miss_rate 0
Core_0_L1I_rfo_access 0
Core_0_L1I_rfo_hit 0
Core_0_L1I_rfo_miss 0
Core_0_L1I_rfo_MPKI 0
Core_0_L1I_rfo_miss_rate 0
Core_0_L1I_prefetch_access 0
Core_0_L1I_prefetch_hit 0
Core_0_L1I_prefetch_miss 0
Core_0_L1I_prefetch_MPKI 0
Core_0_L1I_prefetch_miss_rate 0
Core_0_L1I_writeback_access 0
Core_0_L1I_writeback_hit 0
Core_0_L1I_writeback_miss 0
Core_0_L1I_writeback_MPKI 0
Core_0_L1I_writeback_miss_rate 0
Core_0_L1I_prefetch_requested 0
Core_0_L1I_prefetch_issued 0
Core_0_L1I_prefetch_useful 0
Core_0_L1I_prefetch_useless 0
Core_0_L1I_prefetch_late 0
Core_0_L1I_prefetch_accuracy 0
Core_0_L1I_prefetch_coverage 0

Core_0_L1D_total_access 35420956
Core_0_L1D_total_hit 15915896
Core_0_L1D_total_miss 19505060
Core_0_L1D_total_MPKI 195.051
Core_0_L1D_total_miss_rate 0.550664
Core_0_L1D_demand_access 17865489
Core_0_L1D_demand_hit 10385397
Core_0_L1D_demand_miss 7480092
Core_0_L1D_demand_MPKI 74.8009
Core_0_L1D_demand_miss_rate 0.418689
Core_0_L1D_load_access 17865489
Core_0_L1D_load_hit 10385397
Core_0_L1D_load_miss 7480092
Core_0_L1D_load_MPKI 74.8009
Core_0_L1D_load_miss_rate 0.418689
Core_0_L1D_rfo_access 0
Core_0_L1D_rfo_hit 0
Core_0_L1D_rfo_miss 0
Core_0_L1D_rfo_MPKI 0
Core_0_L1D_rfo_miss_rate 0
Core_0_L1D_prefetch_access 13121223
Core_0_L1D_prefetch_hit 1387119
Core_0_L1D_prefetch_miss 11734104
Core_0_L1D_prefetch_MPKI 117.341
Core_0_L1D_prefetch_miss_rate 0.894284
Core_0_L1D_writeback_access 4434244
Core_0_L1D_writeback_hit 4143380
Core_0_L1D_writeback_miss 290864
Core_0_L1D_writeback_MPKI 2.90864
Core_0_L1D_writeback_miss_rate 0.0655949
Core_0_L1D_prefetch_requested 13744480
Core_0_L1D_prefetch_issued 13121229
Core_0_L1D_prefetch_useful 95355
Core_0_L1D_prefetch_useless 85156
Core_0_L1D_prefetch_late 1975
Core_0_L1D_prefetch_accuracy 0.00726723
Core_0_L1D_prefetch_coverage 0.0125874

Core_0_L2C_total_access 20050059
Core_0_L2C_total_hit 16375367
Core_0_L2C_total_miss 3674692
Core_0_L2C_total_MPKI 36.7469
Core_0_L2C_total_miss_rate 0.183276
Core_0_L2C_demand_access 5459678
Core_0_L2C_demand_hit 2302737
Core_0_L2C_demand_miss 3156941
Core_0_L2C_demand_MPKI 31.5694
Core_0_L2C_demand_miss_rate 0.578228
Core_0_L2C_load_access 5172423
Core_0_L2C_load_hit 2199909
Core_0_L2C_load_miss 2972514
Core_0_L2C_load_MPKI 29.7251
Core_0_L2C_load_miss_rate 0.574685
Core_0_L2C_rfo_access 287255
Core_0_L2C_rfo_hit 102828
Core_0_L2C_rfo_miss 184427
Core_0_L2C_rfo_MPKI 1.84427
Core_0_L2C_rfo_miss_rate 0.642032
Core_0_L2C_prefetch_access 12363048
Core_0_L2C_prefetch_hit 11845298
Core_0_L2C_prefetch_miss 517750
Core_0_L2C_prefetch_MPKI 5.1775
Core_0_L2C_prefetch_miss_rate 0.0418788
Core_0_L2C_writeback_access 2227333
Core_0_L2C_writeback_hit 2227332
Core_0_L2C_writeback_miss 1
Core_0_L2C_writeback_MPKI 1e-05
Core_0_L2C_writeback_miss_rate 4.48967e-07
Core_0_L2C_prefetch_requested 651760
Core_0_L2C_prefetch_issued 651628
Core_0_L2C_prefetch_useful 29070
Core_0_L2C_prefetch_useless 54757
Core_0_L2C_prefetch_late 126
Core_0_L2C_prefetch_accuracy 0.0446113
Core_0_L2C_prefetch_coverage 0.00912426

Core_0_LLC_total_access 5846464
Core_0_LLC_total_hit 2953234
Core_0_LLC_total_miss 2893230
Core_0_LLC_total_MPKI 28.9323
Core_0_LLC_total_miss_rate 0.494868
Core_0_LLC_demand_access 3153243
Core_0_LLC_demand_hit 580585
Core_0_LLC_demand_miss 2572658
Core_0_LLC_demand_MPKI 25.7266
Core_0_LLC_demand_miss_rate 0.815877
Core_0_LLC_load_access 2968816
Core_0_LLC_load_hit 417635
Core_0_LLC_load_miss 2551181
Core_0_LLC_load_MPKI 25.5118
Core_0_LLC_load_miss_rate 0.859326
Core_0_LLC_rfo_access 184427
Core_0_LLC_rfo_hit 162950
Core_0_LLC_rfo_miss 21477
Core_0_LLC_rfo_MPKI 0.21477
Core_0_LLC_rfo_miss_rate 0.116453
Core_0_LLC_prefetch_access 475724
Core_0_LLC_prefetch_hit 410917
Core_0_LLC_prefetch_miss 64807
Core_0_LLC_prefetch_MPKI 0.64807
Core_0_LLC_prefetch_miss_rate 0.136228
Core_0_LLC_writeback_access 2217497
Core_0_LLC_writeback_hit 1961732
Core_0_LLC_writeback_miss 255765
Core_0_LLC_writeback_MPKI 2.55765
Core_0_LLC_writeback_miss_rate 0.11534
Core_0_LLC_prefetch_requested 0
Core_0_LLC_prefetch_issued 0
Core_0_LLC_prefetch_useful 0
Core_0_LLC_prefetch_useless 0
Core_0_LLC_prefetch_late 0
Core_0_LLC_prefetch_accuracy 0
Core_0_LLC_prefetch_coverage 0

[DRAM Statistics]
Channel_0_RQ_row_buffer_hit 33459
Channel_0_RQ_row_buffer_miss 2626658
Channel_0_WQ_row_buffer_hit 506482
Channel_0_WQ_row_buffer_miss 1711998
Channel_0_WQ_full 0
Channel_0_dbus_congested 15395182
DRAM_total_RQ_row_buffer_hit 33459
DRAM_total_RQ_row_buffer_miss 2626658
DRAM_total_WQ_row_buffer_hit 506482
DRAM_total_WQ_row_buffer_miss 1711998
DRAM_total_WQ_full 0
DRAM_total_dbus_congested 15395182
DRAM_avg_congested_cycle 5.93238

====== DRAM_RQ_TRAFFIC ========
DRAM_RQ_READ_TRAFFIC_BREAKDOWN:
data_demand_read.count = 2572658
data_demand_read.share = 96.71%

inst_demand_read.count = 0
inst_demand_read.share = 0.00%

cache_inst_prefetch.count = 0
cache_inst_prefetch.share = 0.00%

cache_data_prefetch.count = 64763
cache_data_prefetch.share = 2.43%

stlb_data_demand.count = 22560
stlb_data_demand.share = 0.85%

stlb_inst_demand.count = 0
stlb_inst_demand.share = 0.00%

stlb_l1i_pref.count = 0
stlb_l1i_pref.share = 0.00%

stlb_l1d_pref.count = 136
stlb_l1d_pref.share = 0.01%

DRAM_RQ_READ_TRAFFIC_SUMMARY:
cache_demand.count = 2572658
cache_demand.share = 96.71%

cache_prefetch.count = 64763
cache_prefetch.share = 2.43%

stlb_demand.count = 22560
stlb_demand.share = 0.85%

stlb_prefetch.count = 136
stlb_prefetch.share = 0.01%

DRAM_RQ_READ_TRAFFIC_DEBUG:
total_classified_read.count = 2660117
unclassified_read.count = 0
total_read_with_other.count = 2660117

classified_plus_unclassified_check.count = 2660117
dram_rq_read_total_observed.count = 2660117
dram_rq_read_total_observed.per_1K_instructions = 26.6012

STLB_MISS_PTW_DRAM_TOUCH_BREAKDOWN:
stlb_miss_total.count = 2239514

stlb_miss_touch_dram.count = 22708
stlb_miss_touch_dram.share = 1.01%

stlb_miss_no_dram_touch.count = 2216806
stlb_miss_no_dram_touch.share = 98.99%

STLB_MISS_PTW_DRAM_TOUCH_DEBUG:
stlb_miss_touch_plus_no_touch.count = 2239514
stlb_miss_total_check.count = 2239514

======STLB miss causes ========
Core_0_STLB_miss_cause_breakdown
Core_0_STLB_cause_Demand_Data_miss 2238055
Core_0_STLB_cause_Demand_Data_miss_rate 0.914897
Core_0_STLB_cause_Demand_Instruction_miss 0
Core_0_STLB_cause_Demand_Instruction_miss_rate 0
Core_0_STLB_cause_L1D_Prefetch_miss 1460
Core_0_STLB_cause_L1D_Prefetch_miss_rate 0.000596835
Core_0_STLB_cause_L1I_Prefetch_miss 0
Core_0_STLB_cause_L1I_Prefetch_miss_rate 0
Core_0_STLB_cause_Other_miss 0
Core_0_STLB_cause_Other_miss_rate 0
Core_0_STLB_Demand_miss 2238055
Core_0_STLB_Demand_miss_rate 0.914897
Core_0_STLB_L1D_Prefetch_miss 1460
Core_0_STLB_L1D_Prefetch_miss_rate 0.000596835
Core_0_STLB_Other_miss 0
Core_0_STLB_Other_miss_rate 0
BERTI TO_L1: 2705596 TO_L2: 17194144 TO_L2_BC_MSHR: 99
BERTI AVG_LAT: 107.682 NUM_TRACK_LATENCY: 8047514 NUM_CANT_TRACK_LATENCY: 0
BERTI CROSS_PAGE 4110588 NO_CROSS_PAGE: 15789152
BERTI FOUND_BERTI: 6375186 NO_FOUND_BERTI: 24220507
BERTI AVERAGE_ISSUED: 3.46764
