[VMEM] WARNING: physical memory size is smaller than virtual memory size.

*** ChampSim Multicore Out-of-Order Simulator ***
Warmup Instructions: 50000000
Simulation Instructions: 100000000
Number of CPUs: 1
Page size: 4096
Core 0: /data2/zcq/champsim_traces_gap/cc.kron-78B.champsimtrace.xz
VBerti Prefetcher
BERTI HASH ENTANGLING
BERTI IP MASK ffff
Off-chip DRAM Size: 16 GiB Channels: 1 Width: 64-bit Data Rate: 3205 MT/s
Warmup halting CPU 0 at instruction 50000005 cycle 20814256 for remainder of phase
Warmup finished CPU 0 instructions: 50000005 cycles: 20814256 cumulative IPC: 2.402 (Simulation time: 00 hr 04 min 01 sec)
Warmup complete CPU 0 instructions: 50000005 cycles: 20814256 cumulative IPC: 2.402 (Simulation time: 00 hr 04 min 01 sec)
Simulation finished CPU 0 instructions: 100000001 cycles: 666300606 cumulative IPC: 0.1501 (Simulation time: 00 hr 46 min 36 sec)
Simulation complete CPU 0 instructions: 100000001 cycles: 666300606 cumulative IPC: 0.1501 (Simulation time: 00 hr 46 min 36 sec)

ChampSim completed all CPUs

=== Simulation ===
CPU 0 runs /data2/zcq/champsim_traces_gap/cc.kron-78B.champsimtrace.xz

Region of Interest Statistics

CPU 0 cumulative IPC: 0.1501 instructions: 100000001 cycles: 666300606
CPU 0 Branch Prediction Accuracy: 90.29% MPKI: 17.63 Average ROB Occupancy at Mispredict: 33.55
Branch type MPKI
BRANCH_DIRECT_JUMP: 0
BRANCH_INDIRECT: 0
BRANCH_CONDITIONAL: 17.63
BRANCH_DIRECT_CALL: 0
BRANCH_INDIRECT_CALL: 0
BRANCH_RETURN: 0

cpu0->cpu0_STLB TOTAL        ACCESS:    1941951 HIT:     119284 MISS:    1822667 MSHR_MERGE:          0
cpu0->cpu0_STLB LOAD         ACCESS:    1941951 HIT:     119284 MISS:    1822667 MSHR_MERGE:          0
cpu0->cpu0_STLB RFO          ACCESS:          0 HIT:          0 MISS:          0 MSHR_MERGE:          0
cpu0->cpu0_STLB PREFETCH     ACCESS:          0 HIT:          0 MISS:          0 MSHR_MERGE:          0
cpu0->cpu0_STLB WRITE        ACCESS:          0 HIT:          0 MISS:          0 MSHR_MERGE:          0
cpu0->cpu0_STLB TRANSLATION  ACCESS:          0 HIT:          0 MISS:          0 MSHR_MERGE:          0
cpu0->cpu0_STLB PREFETCH REQUESTED:          0 ISSUED:          0 USEFUL:          0 USELESS:          0 LATE:          0
cpu0->cpu0_STLB AVERAGE MISS LATENCY: 74.39 cycles
cpu0->cpu0_L2C TOTAL        ACCESS:   13797659 HIT:    8130710 MISS:    5666949 MSHR_MERGE:     187570
cpu0->cpu0_L2C LOAD         ACCESS:    2551538 HIT:     476418 MISS:    2075120 MSHR_MERGE:       5314
cpu0->cpu0_L2C RFO          ACCESS:          0 HIT:          0 MISS:          0 MSHR_MERGE:          0
cpu0->cpu0_L2C PREFETCH     ACCESS:    9048939 HIT:    6694186 MISS:    2354753 MSHR_MERGE:     182256
cpu0->cpu0_L2C WRITE        ACCESS:     469993 HIT:     469990 MISS:          3 MSHR_MERGE:          0
cpu0->cpu0_L2C TRANSLATION  ACCESS:    1727189 HIT:     490116 MISS:    1237073 MSHR_MERGE:          0
cpu0->cpu0_L2C PREFETCH REQUESTED:    1972031 ISSUED:    1972031 USEFUL:     433326 USELESS:     150248 LATE:        731
cpu0->cpu0_L2C AVERAGE MISS LATENCY: 143.5 cycles
cpu0->cpu0_L1I TOTAL        ACCESS:       1653 HIT:       1653 MISS:          0 MSHR_MERGE:          0
cpu0->cpu0_L1I LOAD         ACCESS:       1653 HIT:       1653 MISS:          0 MSHR_MERGE:          0
cpu0->cpu0_L1I RFO          ACCESS:          0 HIT:          0 MISS:          0 MSHR_MERGE:          0
cpu0->cpu0_L1I PREFETCH     ACCESS:          0 HIT:          0 MISS:          0 MSHR_MERGE:          0
cpu0->cpu0_L1I WRITE        ACCESS:          0 HIT:          0 MISS:          0 MSHR_MERGE:          0
cpu0->cpu0_L1I TRANSLATION  ACCESS:          0 HIT:          0 MISS:          0 MSHR_MERGE:          0
cpu0->cpu0_L1I PREFETCH REQUESTED:          0 ISSUED:          0 USEFUL:          0 USELESS:          0 LATE:          0
cpu0->cpu0_L1I AVERAGE MISS LATENCY: - cycles
cpu0->cpu0_L1D TOTAL        ACCESS:   60616580 HIT:   49256274 MISS:   11360306 MSHR_MERGE:       3318
cpu0->cpu0_L1D LOAD         ACCESS:   21745708 HIT:   19193049 MISS:    2552659 MSHR_MERGE:       1121
cpu0->cpu0_L1D RFO          ACCESS:          0 HIT:          0 MISS:          0 MSHR_MERGE:          0
cpu0->cpu0_L1D PREFETCH     ACCESS:   32226731 HIT:   25146283 MISS:    7080448 MSHR_MERGE:       2187
cpu0->cpu0_L1D WRITE        ACCESS:    1740587 HIT:    1740587 MISS:          0 MSHR_MERGE:          0
cpu0->cpu0_L1D TRANSLATION  ACCESS:    4903554 HIT:    3176355 MISS:    1727199 MSHR_MERGE:         10
cpu0->cpu0_L1D PREFETCH REQUESTED:   80208764 ISSUED:   32226723 USEFUL:     766116 USELESS:      91737 LATE:        502
cpu0->cpu0_L1D AVERAGE MISS LATENCY: 119.9 cycles
cpu0->cpu0_ITLB TOTAL        ACCESS:       1649 HIT:       1649 MISS:          0 MSHR_MERGE:          0
cpu0->cpu0_ITLB LOAD         ACCESS:       1649 HIT:       1649 MISS:          0 MSHR_MERGE:          0
cpu0->cpu0_ITLB RFO          ACCESS:          0 HIT:          0 MISS:          0 MSHR_MERGE:          0
cpu0->cpu0_ITLB PREFETCH     ACCESS:          0 HIT:          0 MISS:          0 MSHR_MERGE:          0
cpu0->cpu0_ITLB WRITE        ACCESS:          0 HIT:          0 MISS:          0 MSHR_MERGE:          0
cpu0->cpu0_ITLB TRANSLATION  ACCESS:          0 HIT:          0 MISS:          0 MSHR_MERGE:          0
cpu0->cpu0_ITLB PREFETCH REQUESTED:          0 ISSUED:          0 USEFUL:          0 USELESS:          0 LATE:          0
cpu0->cpu0_ITLB AVERAGE MISS LATENCY: - cycles
cpu0->cpu0_DTLB TOTAL        ACCESS:   44793500 HIT:   42832164 MISS:    1961336 MSHR_MERGE:      19385
cpu0->cpu0_DTLB LOAD         ACCESS:   44793500 HIT:   42832164 MISS:    1961336 MSHR_MERGE:      19385
cpu0->cpu0_DTLB RFO          ACCESS:          0 HIT:          0 MISS:          0 MSHR_MERGE:          0
cpu0->cpu0_DTLB PREFETCH     ACCESS:          0 HIT:          0 MISS:          0 MSHR_MERGE:          0
cpu0->cpu0_DTLB WRITE        ACCESS:          0 HIT:          0 MISS:          0 MSHR_MERGE:          0
cpu0->cpu0_DTLB TRANSLATION  ACCESS:          0 HIT:          0 MISS:          0 MSHR_MERGE:          0
cpu0->cpu0_DTLB PREFETCH REQUESTED:          0 ISSUED:          0 USEFUL:          0 USELESS:          0 LATE:          0
cpu0->cpu0_DTLB AVERAGE MISS LATENCY: 75.76 cycles
cpu0->LLC TOTAL        ACCESS:    5949412 HIT:    1196635 MISS:    4752777 MSHR_MERGE:         13
cpu0->LLC LOAD         ACCESS:    2069806 HIT:     170076 MISS:    1899730 MSHR_MERGE:          0
cpu0->LLC RFO          ACCESS:          0 HIT:          0 MISS:          0 MSHR_MERGE:          0
cpu0->LLC PREFETCH     ACCESS:    2172497 HIT:        485 MISS:    2172012 MSHR_MERGE:         13
cpu0->LLC WRITE        ACCESS:     470036 HIT:      78898 MISS:     391138 MSHR_MERGE:          0
cpu0->LLC TRANSLATION  ACCESS:    1237073 HIT:     947176 MISS:     289897 MSHR_MERGE:          0
cpu0->LLC PREFETCH REQUESTED:          0 ISSUED:          0 USEFUL:          0 USELESS:          0 LATE:          0
cpu0->LLC AVERAGE MISS LATENCY: 165.3 cycles

DRAM Statistics

Channel 0 RQ ROW_BUFFER_HIT:      73420
  ROW_BUFFER_MISS:    4288205
  AVG DBUS CONGESTED CYCLE: 19.75
Channel 0 WQ ROW_BUFFER_HIT:     160808
  ROW_BUFFER_MISS:     310258
  FULL:          0
Channel 0 REFRESHES ISSUED:      55525

[ROI Statistics]
[System Configuration]
num_cpus 1
cpu_freq 4000
fetch_width 6
decode_width 6
dispatch_width 6
execute_width 6
lq_width 2
sq_width 2
retire_width 6
scheduler_size 128
branch_mispredict_penalty 15
rob_size 352
lq_size 128
sq_size 72
ifetch_buffer_size 64
decode_buffer_size 32
dispatch_buffer_size 32
register_file_size 288
decode_latency 1
dispatch_latency 1
schedule_latency 1
execute_latency 1
page_size 4096
block_size 64
core_0_itlb_set 16
core_0_itlb_way 4
core_0_itlb_rq_size 16
core_0_itlb_wq_size 16
core_0_itlb_pq_size 0
core_0_itlb_mshr_size 8
core_0_itlb_hit_latency 1
core_0_itlb_fill_latency 1
core_0_itlb_max_tag_check 2
core_0_itlb_max_fill 2
core_0_dtlb_set 16
core_0_dtlb_way 4
core_0_dtlb_rq_size 16
core_0_dtlb_wq_size 16
core_0_dtlb_pq_size 0
core_0_dtlb_mshr_size 8
core_0_dtlb_hit_latency 1
core_0_dtlb_fill_latency 1
core_0_dtlb_max_tag_check 2
core_0_dtlb_max_fill 2
core_0_stlb_set 128
core_0_stlb_way 12
core_0_stlb_rq_size 32
core_0_stlb_wq_size 32
core_0_stlb_pq_size 0
core_0_stlb_mshr_size 16
core_0_stlb_hit_latency 4
core_0_stlb_fill_latency 4
core_0_stlb_max_tag_check 1
core_0_stlb_max_fill 1
core_0_l1i_set 64
core_0_l1i_way 8
core_0_l1i_rq_size 64
core_0_l1i_wq_size 64
core_0_l1i_pq_size 32
core_0_l1i_mshr_size 8
core_0_l1i_hit_latency 2
core_0_l1i_fill_latency 2
core_0_l1i_max_tag_check 2
core_0_l1i_max_fill 2
core_0_l1d_set 64
core_0_l1d_way 12
core_0_l1d_rq_size 64
core_0_l1d_wq_size 64
core_0_l1d_pq_size 8
core_0_l1d_mshr_size 16
core_0_l1d_hit_latency 2
core_0_l1d_fill_latency 3
core_0_l1d_max_tag_check 2
core_0_l1d_max_fill 2
core_0_l2c_set 1024
core_0_l2c_way 8
core_0_l2c_rq_size 32
core_0_l2c_wq_size 32
core_0_l2c_pq_size 16
core_0_l2c_mshr_size 32
core_0_l2c_hit_latency 5
core_0_l2c_fill_latency 5
core_0_l2c_max_tag_check 1
core_0_l2c_max_fill 1
llc_set 2048
llc_way 16
llc_rq_size 32
llc_wq_size 32
llc_pq_size 32
llc_mshr_size 64
llc_hit_latency 10
llc_fill_latency 10
llc_max_tag_check 1
llc_max_fill 1
dram_channels 1
dram_ranks 1
dram_bankgroups 8
dram_banks 4
dram_rows 65536
dram_columns 1024
dram_channel_width 8
dram_rq_size 64
dram_wq_size 64
dram_size 17179869184
core_0_itlb_prefetcher no
core_0_dtlb_prefetcher no
core_0_stlb_prefetcher no
core_0_l1i_prefetcher next_line
core_0_l1d_prefetcher vberti
core_0_l2c_prefetcher ip_stride
llc_prefetcher no
llc_replacement drrip

Core_0_instructions 100000001
Core_0_cycles 666300606
Core_0_IPC 0.150082
Core_0_branch_prediction_accuracy 90.2922
Core_0_branch_MPKI 17.626
Core_0_average_ROB_occupancy_at_mispredict 33.5477

Core_0_ITLB_total_access 1649
Core_0_ITLB_total_hit 1649
Core_0_ITLB_total_miss 0
Core_0_ITLB_total_MPKI 0
Core_0_ITLB_total_miss_rate 0
Core_0_ITLB_demand_access 1649
Core_0_ITLB_demand_hit 1649
Core_0_ITLB_demand_miss 0
Core_0_ITLB_demand_MPKI 0
Core_0_ITLB_demand_miss_rate 0
Core_0_ITLB_load_access 1649
Core_0_ITLB_load_hit 1649
Core_0_ITLB_load_miss 0
Core_0_ITLB_load_MPKI 0
Core_0_ITLB_load_miss_rate 0
Core_0_ITLB_rfo_access 0
Core_0_ITLB_rfo_hit 0
Core_0_ITLB_rfo_miss 0
Core_0_ITLB_rfo_MPKI 0
Core_0_ITLB_rfo_miss_rate 0
Core_0_ITLB_prefetch_access 0
Core_0_ITLB_prefetch_hit 0
Core_0_ITLB_prefetch_miss 0
Core_0_ITLB_prefetch_MPKI 0
Core_0_ITLB_prefetch_miss_rate 0
Core_0_ITLB_writeback_access 0
Core_0_ITLB_writeback_hit 0
Core_0_ITLB_writeback_miss 0
Core_0_ITLB_writeback_MPKI 0
Core_0_ITLB_writeback_miss_rate 0
Core_0_ITLB_prefetch_requested 0
Core_0_ITLB_prefetch_issued 0
Core_0_ITLB_prefetch_useful 0
Core_0_ITLB_prefetch_useless 0
Core_0_ITLB_prefetch_late 0
Core_0_ITLB_prefetch_accuracy 0
Core_0_ITLB_prefetch_coverage 0

Core_0_DTLB_total_access 44793500
Core_0_DTLB_total_hit 42832164
Core_0_DTLB_total_miss 1961336
Core_0_DTLB_total_MPKI 19.6134
Core_0_DTLB_total_miss_rate 0.0437862
Core_0_DTLB_demand_access 44793500
Core_0_DTLB_demand_hit 42832164
Core_0_DTLB_demand_miss 1961336
Core_0_DTLB_demand_MPKI 19.6134
Core_0_DTLB_demand_miss_rate 0.0437862
Core_0_DTLB_load_access 44793500
Core_0_DTLB_load_hit 42832164
Core_0_DTLB_load_miss 1961336
Core_0_DTLB_load_MPKI 19.6134
Core_0_DTLB_load_miss_rate 0.0437862
Core_0_DTLB_rfo_access 0
Core_0_DTLB_rfo_hit 0
Core_0_DTLB_rfo_miss 0
Core_0_DTLB_rfo_MPKI 0
Core_0_DTLB_rfo_miss_rate 0
Core_0_DTLB_prefetch_access 0
Core_0_DTLB_prefetch_hit 0
Core_0_DTLB_prefetch_miss 0
Core_0_DTLB_prefetch_MPKI 0
Core_0_DTLB_prefetch_miss_rate 0
Core_0_DTLB_writeback_access 0
Core_0_DTLB_writeback_hit 0
Core_0_DTLB_writeback_miss 0
Core_0_DTLB_writeback_MPKI 0
Core_0_DTLB_writeback_miss_rate 0
Core_0_DTLB_prefetch_requested 0
Core_0_DTLB_prefetch_issued 0
Core_0_DTLB_prefetch_useful 0
Core_0_DTLB_prefetch_useless 0
Core_0_DTLB_prefetch_late 0
Core_0_DTLB_prefetch_accuracy 0
Core_0_DTLB_prefetch_coverage 0

Core_0_STLB_total_access 1941951
Core_0_STLB_total_hit 119284
Core_0_STLB_total_miss 1822667
Core_0_STLB_total_MPKI 18.2267
Core_0_STLB_total_miss_rate 0.938575
Core_0_STLB_demand_access 1941951
Core_0_STLB_demand_hit 119284
Core_0_STLB_demand_miss 1822667
Core_0_STLB_demand_MPKI 18.2267
Core_0_STLB_demand_miss_rate 0.938575
Core_0_STLB_load_access 1941951
Core_0_STLB_load_hit 119284
Core_0_STLB_load_miss 1822667
Core_0_STLB_load_MPKI 18.2267
Core_0_STLB_load_miss_rate 0.938575
Core_0_STLB_rfo_access 0
Core_0_STLB_rfo_hit 0
Core_0_STLB_rfo_miss 0
Core_0_STLB_rfo_MPKI 0
Core_0_STLB_rfo_miss_rate 0
Core_0_STLB_prefetch_access 0
Core_0_STLB_prefetch_hit 0
Core_0_STLB_prefetch_miss 0
Core_0_STLB_prefetch_MPKI 0
Core_0_STLB_prefetch_miss_rate 0
Core_0_STLB_writeback_access 0
Core_0_STLB_writeback_hit 0
Core_0_STLB_writeback_miss 0
Core_0_STLB_writeback_MPKI 0
Core_0_STLB_writeback_miss_rate 0
Core_0_STLB_prefetch_requested 0
Core_0_STLB_prefetch_issued 0
Core_0_STLB_prefetch_useful 0
Core_0_STLB_prefetch_useless 0
Core_0_STLB_prefetch_late 0
Core_0_STLB_prefetch_accuracy 0
Core_0_STLB_prefetch_coverage 0

Core_0_L1I_total_access 1653
Core_0_L1I_total_hit 1653
Core_0_L1I_total_miss 0
Core_0_L1I_total_MPKI 0
Core_0_L1I_total_miss_rate 0
Core_0_L1I_demand_access 1653
Core_0_L1I_demand_hit 1653
Core_0_L1I_demand_miss 0
Core_0_L1I_demand_MPKI 0
Core_0_L1I_demand_miss_rate 0
Core_0_L1I_load_access 1653
Core_0_L1I_load_hit 1653
Core_0_L1I_load_miss 0
Core_0_L1I_load_MPKI 0
Core_0_L1I_load_miss_rate 0
Core_0_L1I_rfo_access 0
Core_0_L1I_rfo_hit 0
Core_0_L1I_rfo_miss 0
Core_0_L1I_rfo_MPKI 0
Core_0_L1I_rfo_miss_rate 0
Core_0_L1I_prefetch_access 0
Core_0_L1I_prefetch_hit 0
Core_0_L1I_prefetch_miss 0
Core_0_L1I_prefetch_MPKI 0
Core_0_L1I_prefetch_miss_rate 0
Core_0_L1I_writeback_access 0
Core_0_L1I_writeback_hit 0
Core_0_L1I_writeback_miss 0
Core_0_L1I_writeback_MPKI 0
Core_0_L1I_writeback_miss_rate 0
Core_0_L1I_prefetch_requested 0
Core_0_L1I_prefetch_issued 0
Core_0_L1I_prefetch_useful 0
Core_0_L1I_prefetch_useless 0
Core_0_L1I_prefetch_late 0
Core_0_L1I_prefetch_accuracy 0
Core_0_L1I_prefetch_coverage 0

Core_0_L1D_total_access 55713026
Core_0_L1D_total_hit 46079919
Core_0_L1D_total_miss 9633107
Core_0_L1D_total_MPKI 96.3311
Core_0_L1D_total_miss_rate 0.172906
Core_0_L1D_demand_access 21745708
Core_0_L1D_demand_hit 19193049
Core_0_L1D_demand_miss 2552659
Core_0_L1D_demand_MPKI 25.5266
Core_0_L1D_demand_miss_rate 0.117387
Core_0_L1D_load_access 21745708
Core_0_L1D_load_hit 19193049
Core_0_L1D_load_miss 2552659
Core_0_L1D_load_MPKI 25.5266
Core_0_L1D_load_miss_rate 0.117387
Core_0_L1D_rfo_access 0
Core_0_L1D_rfo_hit 0
Core_0_L1D_rfo_miss 0
Core_0_L1D_rfo_MPKI 0
Core_0_L1D_rfo_miss_rate 0
Core_0_L1D_prefetch_access 32226731
Core_0_L1D_prefetch_hit 25146283
Core_0_L1D_prefetch_miss 7080448
Core_0_L1D_prefetch_MPKI 70.8045
Core_0_L1D_prefetch_miss_rate 0.219707
Core_0_L1D_writeback_access 1740587
Core_0_L1D_writeback_hit 1740587
Core_0_L1D_writeback_miss 0
Core_0_L1D_writeback_MPKI 0
Core_0_L1D_writeback_miss_rate 0
Core_0_L1D_prefetch_requested 80208764
Core_0_L1D_prefetch_issued 32226723
Core_0_L1D_prefetch_useful 766116
Core_0_L1D_prefetch_useless 91737
Core_0_L1D_prefetch_late 502
Core_0_L1D_prefetch_accuracy 0.0237727
Core_0_L1D_prefetch_coverage 0.230843

Core_0_L2C_total_access 12070470
Core_0_L2C_total_hit 7640594
Core_0_L2C_total_miss 4429876
Core_0_L2C_total_MPKI 44.2988
Core_0_L2C_total_miss_rate 0.367001
Core_0_L2C_demand_access 2551538
Core_0_L2C_demand_hit 476418
Core_0_L2C_demand_miss 2075120
Core_0_L2C_demand_MPKI 20.7512
Core_0_L2C_demand_miss_rate 0.813282
Core_0_L2C_load_access 2551538
Core_0_L2C_load_hit 476418
Core_0_L2C_load_miss 2075120
Core_0_L2C_load_MPKI 20.7512
Core_0_L2C_load_miss_rate 0.813282
Core_0_L2C_rfo_access 0
Core_0_L2C_rfo_hit 0
Core_0_L2C_rfo_miss 0
Core_0_L2C_rfo_MPKI 0
Core_0_L2C_rfo_miss_rate 0
Core_0_L2C_prefetch_access 9048939
Core_0_L2C_prefetch_hit 6694186
Core_0_L2C_prefetch_miss 2354753
Core_0_L2C_prefetch_MPKI 23.5475
Core_0_L2C_prefetch_miss_rate 0.260224
Core_0_L2C_writeback_access 469993
Core_0_L2C_writeback_hit 469990
Core_0_L2C_writeback_miss 3
Core_0_L2C_writeback_MPKI 3e-05
Core_0_L2C_writeback_miss_rate 6.38307e-06
Core_0_L2C_prefetch_requested 1972031
Core_0_L2C_prefetch_issued 1972031
Core_0_L2C_prefetch_useful 433326
Core_0_L2C_prefetch_useless 150248
Core_0_L2C_prefetch_late 731
Core_0_L2C_prefetch_accuracy 0.219736
Core_0_L2C_prefetch_coverage 0.172747

Core_0_LLC_total_access 4712339
Core_0_LLC_total_hit 249459
Core_0_LLC_total_miss 4462880
Core_0_LLC_total_MPKI 44.6288
Core_0_LLC_total_miss_rate 0.947063
Core_0_LLC_demand_access 2069806
Core_0_LLC_demand_hit 170076
Core_0_LLC_demand_miss 1899730
Core_0_LLC_demand_MPKI 18.9973
Core_0_LLC_demand_miss_rate 0.91783
Core_0_LLC_load_access 2069806
Core_0_LLC_load_hit 170076
Core_0_LLC_load_miss 1899730
Core_0_LLC_load_MPKI 18.9973
Core_0_LLC_load_miss_rate 0.91783
Core_0_LLC_rfo_access 0
Core_0_LLC_rfo_hit 0
Core_0_LLC_rfo_miss 0
Core_0_LLC_rfo_MPKI 0
Core_0_LLC_rfo_miss_rate 0
Core_0_LLC_prefetch_access 2172497
Core_0_LLC_prefetch_hit 485
Core_0_LLC_prefetch_miss 2172012
Core_0_LLC_prefetch_MPKI 21.7201
Core_0_LLC_prefetch_miss_rate 0.999777
Core_0_LLC_writeback_access 470036
Core_0_LLC_writeback_hit 78898
Core_0_LLC_writeback_miss 391138
Core_0_LLC_writeback_MPKI 3.91138
Core_0_LLC_writeback_miss_rate 0.832145
Core_0_LLC_prefetch_requested 0
Core_0_LLC_prefetch_issued 0
Core_0_LLC_prefetch_useful 0
Core_0_LLC_prefetch_useless 0
Core_0_LLC_prefetch_late 0
Core_0_LLC_prefetch_accuracy 0
Core_0_LLC_prefetch_coverage 0

[DRAM Statistics]
Channel_0_RQ_row_buffer_hit 73420
Channel_0_RQ_row_buffer_miss 4288205
Channel_0_WQ_row_buffer_hit 160808
Channel_0_WQ_row_buffer_miss 310258
Channel_0_WQ_full 0
Channel_0_dbus_congested 14663365
DRAM_total_RQ_row_buffer_hit 73420
DRAM_total_RQ_row_buffer_miss 4288205
DRAM_total_WQ_row_buffer_hit 160808
DRAM_total_WQ_row_buffer_miss 310258
DRAM_total_WQ_full 0
DRAM_total_dbus_congested 14663365
DRAM_avg_congested_cycle 19.7519

====== DRAM_RQ_TRAFFIC ========
DRAM_RQ_READ_TRAFFIC_BREAKDOWN:
data_demand_read.count = 1899730
data_demand_read.share = 43.56%

inst_demand_read.count = 0
inst_demand_read.share = 0.00%

cache_inst_prefetch.count = 0
cache_inst_prefetch.share = 0.00%

cache_data_prefetch.count = 2171999
cache_data_prefetch.share = 49.80%

stlb_data_demand.count = 284886
stlb_data_demand.share = 6.53%

stlb_inst_demand.count = 0
stlb_inst_demand.share = 0.00%

stlb_l1i_pref.count = 0
stlb_l1i_pref.share = 0.00%

stlb_l1d_pref.count = 5011
stlb_l1d_pref.share = 0.11%

DRAM_RQ_READ_TRAFFIC_SUMMARY:
cache_demand.count = 1899730
cache_demand.share = 43.56%

cache_prefetch.count = 2171999
cache_prefetch.share = 49.80%

stlb_demand.count = 284886
stlb_demand.share = 6.53%

stlb_prefetch.count = 5011
stlb_prefetch.share = 0.11%

DRAM_RQ_READ_TRAFFIC_DEBUG:
total_classified_read.count = 4361626
unclassified_read.count = 0
total_read_with_other.count = 4361626

classified_plus_unclassified_check.count = 4361626
dram_rq_read_total_observed.count = 4361626
dram_rq_read_total_observed.per_1K_instructions = 43.6163

STLB_MISS_PTW_DRAM_TOUCH_BREAKDOWN:
stlb_miss_total.count = 1822667

stlb_miss_touch_dram.count = 289751
stlb_miss_touch_dram.share = 15.90%

stlb_miss_no_dram_touch.count = 1532916
stlb_miss_no_dram_touch.share = 84.10%

STLB_MISS_PTW_DRAM_TOUCH_DEBUG:
stlb_miss_touch_plus_no_touch.count = 1822667
stlb_miss_total_check.count = 1822667

======STLB miss causes ========
Core_0_STLB_miss_cause_breakdown
Core_0_STLB_cause_Demand_Data_miss 1781340
Core_0_STLB_cause_Demand_Data_miss_rate 0.917294
Core_0_STLB_cause_Demand_Instruction_miss 0
Core_0_STLB_cause_Demand_Instruction_miss_rate 0
Core_0_STLB_cause_L1D_Prefetch_miss 41327
Core_0_STLB_cause_L1D_Prefetch_miss_rate 0.0212812
Core_0_STLB_cause_L1I_Prefetch_miss 0
Core_0_STLB_cause_L1I_Prefetch_miss_rate 0
Core_0_STLB_cause_Other_miss 0
Core_0_STLB_cause_Other_miss_rate 0
Core_0_STLB_Demand_miss 1781340
Core_0_STLB_Demand_miss_rate 0.917294
Core_0_STLB_L1D_Prefetch_miss 41327
Core_0_STLB_L1D_Prefetch_miss_rate 0.0212812
Core_0_STLB_Other_miss 0
Core_0_STLB_Other_miss_rate 0
BERTI TO_L1: 82473648 TO_L2: 23236008 TO_L2_BC_MSHR: 245
BERTI AVG_LAT: 111.21 NUM_TRACK_LATENCY: 5073159 NUM_CANT_TRACK_LATENCY: 0
BERTI CROSS_PAGE 13217892 NO_CROSS_PAGE: 92491764
BERTI FOUND_BERTI: 17101453 NO_FOUND_BERTI: 13928889
BERTI AVERAGE_ISSUED: 4.41817
