[VMEM] WARNING: physical memory size is smaller than virtual memory size.

*** ChampSim Multicore Out-of-Order Simulator ***
Warmup Instructions: 50000000
Simulation Instructions: 100000000
Number of CPUs: 1
Page size: 4096
Core 0: /data2/zcq/champsim_traces_gap/tc.urand-504B.champsimtrace.xz
VBerti Prefetcher
BERTI HASH ENTANGLING
BERTI IP MASK ffff
Off-chip DRAM Size: 16 GiB Channels: 1 Width: 64-bit Data Rate: 3205 MT/s
Warmup halting CPU 0 at instruction 50000003 cycle 31872993 for remainder of phase
Warmup finished CPU 0 instructions: 50000003 cycles: 31872993 cumulative IPC: 1.569 (Simulation time: 00 hr 05 min 47 sec)
Warmup complete CPU 0 instructions: 50000003 cycles: 31872993 cumulative IPC: 1.569 (Simulation time: 00 hr 05 min 47 sec)
Simulation finished CPU 0 instructions: 100000000 cycles: 766524548 cumulative IPC: 0.1305 (Simulation time: 00 hr 53 min 35 sec)
Simulation complete CPU 0 instructions: 100000000 cycles: 766524548 cumulative IPC: 0.1305 (Simulation time: 00 hr 53 min 35 sec)

ChampSim completed all CPUs

=== Simulation ===
CPU 0 runs /data2/zcq/champsim_traces_gap/tc.urand-504B.champsimtrace.xz

Region of Interest Statistics

CPU 0 cumulative IPC: 0.1305 instructions: 100000000 cycles: 766524548
CPU 0 Branch Prediction Accuracy: 77.05% MPKI: 54.92 Average ROB Occupancy at Mispredict: 5.79
Branch type MPKI
BRANCH_DIRECT_JUMP: 0
BRANCH_INDIRECT: 0
BRANCH_CONDITIONAL: 54.92
BRANCH_DIRECT_CALL: 0
BRANCH_INDIRECT_CALL: 0
BRANCH_RETURN: 0

cpu0->cpu0_STLB TOTAL        ACCESS:    1184149 HIT:      19526 MISS:    1164623 MSHR_MERGE:          0
cpu0->cpu0_STLB LOAD         ACCESS:    1184149 HIT:      19526 MISS:    1164623 MSHR_MERGE:          0
cpu0->cpu0_STLB RFO          ACCESS:          0 HIT:          0 MISS:          0 MSHR_MERGE:          0
cpu0->cpu0_STLB PREFETCH     ACCESS:          0 HIT:          0 MISS:          0 MSHR_MERGE:          0
cpu0->cpu0_STLB WRITE        ACCESS:          0 HIT:          0 MISS:          0 MSHR_MERGE:          0
cpu0->cpu0_STLB TRANSLATION  ACCESS:          0 HIT:          0 MISS:          0 MSHR_MERGE:          0
cpu0->cpu0_STLB PREFETCH REQUESTED:          0 ISSUED:          0 USEFUL:          0 USELESS:          0 LATE:          0
cpu0->cpu0_STLB AVERAGE MISS LATENCY: 241.1 cycles
cpu0->cpu0_L2C TOTAL        ACCESS:    6671275 HIT:    3667651 MISS:    3003624 MSHR_MERGE:     145833
cpu0->cpu0_L2C LOAD         ACCESS:    1603329 HIT:      42148 MISS:    1561181 MSHR_MERGE:       6045
cpu0->cpu0_L2C RFO          ACCESS:          0 HIT:          0 MISS:          0 MSHR_MERGE:          0
cpu0->cpu0_L2C PREFETCH     ACCESS:    3407186 HIT:    3144360 MISS:     262826 MSHR_MERGE:     139788
cpu0->cpu0_L2C WRITE        ACCESS:        474 HIT:        474 MISS:          0 MSHR_MERGE:          0
cpu0->cpu0_L2C TRANSLATION  ACCESS:    1660286 HIT:     480669 MISS:    1179617 MSHR_MERGE:          0
cpu0->cpu0_L2C PREFETCH REQUESTED:     352762 ISSUED:     352762 USEFUL:      10955 USELESS:         63 LATE:          0
cpu0->cpu0_L2C AVERAGE MISS LATENCY: 163.8 cycles
cpu0->cpu0_L1I TOTAL        ACCESS:          3 HIT:          3 MISS:          0 MSHR_MERGE:          0
cpu0->cpu0_L1I LOAD         ACCESS:          3 HIT:          3 MISS:          0 MSHR_MERGE:          0
cpu0->cpu0_L1I RFO          ACCESS:          0 HIT:          0 MISS:          0 MSHR_MERGE:          0
cpu0->cpu0_L1I PREFETCH     ACCESS:          0 HIT:          0 MISS:          0 MSHR_MERGE:          0
cpu0->cpu0_L1I WRITE        ACCESS:          0 HIT:          0 MISS:          0 MSHR_MERGE:          0
cpu0->cpu0_L1I TRANSLATION  ACCESS:          0 HIT:          0 MISS:          0 MSHR_MERGE:          0
cpu0->cpu0_L1I PREFETCH REQUESTED:          0 ISSUED:          0 USEFUL:          0 USELESS:          0 LATE:          0
cpu0->cpu0_L1I AVERAGE MISS LATENCY: - cycles
cpu0->cpu0_L1D TOTAL        ACCESS:   19931886 HIT:   13008019 MISS:    6923867 MSHR_MERGE:     600694
cpu0->cpu0_L1D LOAD         ACCESS:   12379224 HIT:   10186359 MISS:    2192865 MSHR_MERGE:     589536
cpu0->cpu0_L1D RFO          ACCESS:          0 HIT:          0 MISS:          0 MSHR_MERGE:          0
cpu0->cpu0_L1D PREFETCH     ACCESS:    3903623 HIT:     833423 MISS:    3070200 MSHR_MERGE:      10641
cpu0->cpu0_L1D WRITE        ACCESS:       2370 HIT:       2370 MISS:          0 MSHR_MERGE:          0
cpu0->cpu0_L1D TRANSLATION  ACCESS:    3646669 HIT:    1985867 MISS:    1660802 MSHR_MERGE:        517
cpu0->cpu0_L1D PREFETCH REQUESTED:    4160955 ISSUED:    3903617 USEFUL:      37686 USELESS:       4251 LATE:         22
cpu0->cpu0_L1D AVERAGE MISS LATENCY: 146.4 cycles
cpu0->cpu0_ITLB TOTAL        ACCESS:          2 HIT:          2 MISS:          0 MSHR_MERGE:          0
cpu0->cpu0_ITLB LOAD         ACCESS:          2 HIT:          2 MISS:          0 MSHR_MERGE:          0
cpu0->cpu0_ITLB RFO          ACCESS:          0 HIT:          0 MISS:          0 MSHR_MERGE:          0
cpu0->cpu0_ITLB PREFETCH     ACCESS:          0 HIT:          0 MISS:          0 MSHR_MERGE:          0
cpu0->cpu0_ITLB WRITE        ACCESS:          0 HIT:          0 MISS:          0 MSHR_MERGE:          0
cpu0->cpu0_ITLB TRANSLATION  ACCESS:          0 HIT:          0 MISS:          0 MSHR_MERGE:          0
cpu0->cpu0_ITLB PREFETCH REQUESTED:          0 ISSUED:          0 USEFUL:          0 USELESS:          0 LATE:          0
cpu0->cpu0_ITLB AVERAGE MISS LATENCY: - cycles
cpu0->cpu0_DTLB TOTAL        ACCESS:   14611023 HIT:   12972752 MISS:    1638271 MSHR_MERGE:     454122
cpu0->cpu0_DTLB LOAD         ACCESS:   14611023 HIT:   12972752 MISS:    1638271 MSHR_MERGE:     454122
cpu0->cpu0_DTLB RFO          ACCESS:          0 HIT:          0 MISS:          0 MSHR_MERGE:          0
cpu0->cpu0_DTLB PREFETCH     ACCESS:          0 HIT:          0 MISS:          0 MSHR_MERGE:          0
cpu0->cpu0_DTLB WRITE        ACCESS:          0 HIT:          0 MISS:          0 MSHR_MERGE:          0
cpu0->cpu0_DTLB TRANSLATION  ACCESS:          0 HIT:          0 MISS:          0 MSHR_MERGE:          0
cpu0->cpu0_DTLB PREFETCH REQUESTED:          0 ISSUED:          0 USEFUL:          0 USELESS:          0 LATE:          0
cpu0->cpu0_DTLB AVERAGE MISS LATENCY: 243.1 cycles
cpu0->LLC TOTAL        ACCESS:    2857900 HIT:     421261 MISS:    2436639 MSHR_MERGE:          0
cpu0->LLC LOAD         ACCESS:    1555136 HIT:       1190 MISS:    1553946 MSHR_MERGE:          0
cpu0->LLC RFO          ACCESS:          0 HIT:          0 MISS:          0 MSHR_MERGE:          0
cpu0->LLC PREFETCH     ACCESS:     123038 HIT:         54 MISS:     122984 MSHR_MERGE:          0
cpu0->LLC WRITE        ACCESS:        109 HIT:        109 MISS:          0 MSHR_MERGE:          0
cpu0->LLC TRANSLATION  ACCESS:    1179617 HIT:     419908 MISS:     759709 MSHR_MERGE:          0
cpu0->LLC PREFETCH REQUESTED:          0 ISSUED:          0 USEFUL:          0 USELESS:          0 LATE:          0
cpu0->LLC AVERAGE MISS LATENCY: 175 cycles

DRAM Statistics

Channel 0 RQ ROW_BUFFER_HIT:         52
  ROW_BUFFER_MISS:    2436587
  AVG DBUS CONGESTED CYCLE: 2.903
Channel 0 WQ ROW_BUFFER_HIT:          0
  ROW_BUFFER_MISS:          0
  FULL:          0
Channel 0 REFRESHES ISSUED:      63877

[ROI Statistics]
[System Configuration]
num_cpus 1
cpu_freq 4000
fetch_width 6
decode_width 6
dispatch_width 6
execute_width 6
lq_width 2
sq_width 2
retire_width 6
scheduler_size 128
branch_mispredict_penalty 15
rob_size 352
lq_size 128
sq_size 72
ifetch_buffer_size 64
decode_buffer_size 32
dispatch_buffer_size 32
register_file_size 288
decode_latency 1
dispatch_latency 1
schedule_latency 1
execute_latency 1
page_size 4096
block_size 64
core_0_itlb_set 16
core_0_itlb_way 4
core_0_itlb_rq_size 16
core_0_itlb_wq_size 16
core_0_itlb_pq_size 0
core_0_itlb_mshr_size 8
core_0_itlb_hit_latency 1
core_0_itlb_fill_latency 1
core_0_itlb_max_tag_check 2
core_0_itlb_max_fill 2
core_0_dtlb_set 16
core_0_dtlb_way 4
core_0_dtlb_rq_size 16
core_0_dtlb_wq_size 16
core_0_dtlb_pq_size 0
core_0_dtlb_mshr_size 8
core_0_dtlb_hit_latency 1
core_0_dtlb_fill_latency 1
core_0_dtlb_max_tag_check 2
core_0_dtlb_max_fill 2
core_0_stlb_set 128
core_0_stlb_way 12
core_0_stlb_rq_size 32
core_0_stlb_wq_size 32
core_0_stlb_pq_size 0
core_0_stlb_mshr_size 16
core_0_stlb_hit_latency 4
core_0_stlb_fill_latency 4
core_0_stlb_max_tag_check 1
core_0_stlb_max_fill 1
core_0_l1i_set 64
core_0_l1i_way 8
core_0_l1i_rq_size 64
core_0_l1i_wq_size 64
core_0_l1i_pq_size 32
core_0_l1i_mshr_size 8
core_0_l1i_hit_latency 2
core_0_l1i_fill_latency 2
core_0_l1i_max_tag_check 2
core_0_l1i_max_fill 2
core_0_l1d_set 64
core_0_l1d_way 12
core_0_l1d_rq_size 64
core_0_l1d_wq_size 64
core_0_l1d_pq_size 8
core_0_l1d_mshr_size 16
core_0_l1d_hit_latency 2
core_0_l1d_fill_latency 3
core_0_l1d_max_tag_check 2
core_0_l1d_max_fill 2
core_0_l2c_set 1024
core_0_l2c_way 8
core_0_l2c_rq_size 32
core_0_l2c_wq_size 32
core_0_l2c_pq_size 16
core_0_l2c_mshr_size 32
core_0_l2c_hit_latency 5
core_0_l2c_fill_latency 5
core_0_l2c_max_tag_check 1
core_0_l2c_max_fill 1
llc_set 2048
llc_way 16
llc_rq_size 32
llc_wq_size 32
llc_pq_size 32
llc_mshr_size 64
llc_hit_latency 10
llc_fill_latency 10
llc_max_tag_check 1
llc_max_fill 1
dram_channels 1
dram_ranks 1
dram_bankgroups 8
dram_banks 4
dram_rows 65536
dram_columns 1024
dram_channel_width 8
dram_rq_size 64
dram_wq_size 64
dram_size 17179869184
core_0_itlb_prefetcher no
core_0_dtlb_prefetcher no
core_0_stlb_prefetcher no
core_0_l1i_prefetcher next_line
core_0_l1d_prefetcher vberti
core_0_l2c_prefetcher ip_stride
llc_prefetcher no
llc_replacement drrip

Core_0_instructions 100000000
Core_0_cycles 766524548
Core_0_IPC 0.130459
Core_0_branch_prediction_accuracy 77.0455
Core_0_branch_MPKI 54.9231
Core_0_average_ROB_occupancy_at_mispredict 5.78976

Core_0_ITLB_total_access 2
Core_0_ITLB_total_hit 2
Core_0_ITLB_total_miss 0
Core_0_ITLB_total_MPKI 0
Core_0_ITLB_total_miss_rate 0
Core_0_ITLB_demand_access 2
Core_0_ITLB_demand_hit 2
Core_0_ITLB_demand_miss 0
Core_0_ITLB_demand_MPKI 0
Core_0_ITLB_demand_miss_rate 0
Core_0_ITLB_load_access 2
Core_0_ITLB_load_hit 2
Core_0_ITLB_load_miss 0
Core_0_ITLB_load_MPKI 0
Core_0_ITLB_load_miss_rate 0
Core_0_ITLB_rfo_access 0
Core_0_ITLB_rfo_hit 0
Core_0_ITLB_rfo_miss 0
Core_0_ITLB_rfo_MPKI 0
Core_0_ITLB_rfo_miss_rate 0
Core_0_ITLB_prefetch_access 0
Core_0_ITLB_prefetch_hit 0
Core_0_ITLB_prefetch_miss 0
Core_0_ITLB_prefetch_MPKI 0
Core_0_ITLB_prefetch_miss_rate 0
Core_0_ITLB_writeback_access 0
Core_0_ITLB_writeback_hit 0
Core_0_ITLB_writeback_miss 0
Core_0_ITLB_writeback_MPKI 0
Core_0_ITLB_writeback_miss_rate 0
Core_0_ITLB_prefetch_requested 0
Core_0_ITLB_prefetch_issued 0
Core_0_ITLB_prefetch_useful 0
Core_0_ITLB_prefetch_useless 0
Core_0_ITLB_prefetch_late 0
Core_0_ITLB_prefetch_accuracy 0
Core_0_ITLB_prefetch_coverage 0

Core_0_DTLB_total_access 14611023
Core_0_DTLB_total_hit 12972752
Core_0_DTLB_total_miss 1638271
Core_0_DTLB_total_MPKI 16.3827
Core_0_DTLB_total_miss_rate 0.112126
Core_0_DTLB_demand_access 14611023
Core_0_DTLB_demand_hit 12972752
Core_0_DTLB_demand_miss 1638271
Core_0_DTLB_demand_MPKI 16.3827
Core_0_DTLB_demand_miss_rate 0.112126
Core_0_DTLB_load_access 14611023
Core_0_DTLB_load_hit 12972752
Core_0_DTLB_load_miss 1638271
Core_0_DTLB_load_MPKI 16.3827
Core_0_DTLB_load_miss_rate 0.112126
Core_0_DTLB_rfo_access 0
Core_0_DTLB_rfo_hit 0
Core_0_DTLB_rfo_miss 0
Core_0_DTLB_rfo_MPKI 0
Core_0_DTLB_rfo_miss_rate 0
Core_0_DTLB_prefetch_access 0
Core_0_DTLB_prefetch_hit 0
Core_0_DTLB_prefetch_miss 0
Core_0_DTLB_prefetch_MPKI 0
Core_0_DTLB_prefetch_miss_rate 0
Core_0_DTLB_writeback_access 0
Core_0_DTLB_writeback_hit 0
Core_0_DTLB_writeback_miss 0
Core_0_DTLB_writeback_MPKI 0
Core_0_DTLB_writeback_miss_rate 0
Core_0_DTLB_prefetch_requested 0
Core_0_DTLB_prefetch_issued 0
Core_0_DTLB_prefetch_useful 0
Core_0_DTLB_prefetch_useless 0
Core_0_DTLB_prefetch_late 0
Core_0_DTLB_prefetch_accuracy 0
Core_0_DTLB_prefetch_coverage 0

Core_0_STLB_total_access 1184149
Core_0_STLB_total_hit 19526
Core_0_STLB_total_miss 1164623
Core_0_STLB_total_MPKI 11.6462
Core_0_STLB_total_miss_rate 0.983511
Core_0_STLB_demand_access 1184149
Core_0_STLB_demand_hit 19526
Core_0_STLB_demand_miss 1164623
Core_0_STLB_demand_MPKI 11.6462
Core_0_STLB_demand_miss_rate 0.983511
Core_0_STLB_load_access 1184149
Core_0_STLB_load_hit 19526
Core_0_STLB_load_miss 1164623
Core_0_STLB_load_MPKI 11.6462
Core_0_STLB_load_miss_rate 0.983511
Core_0_STLB_rfo_access 0
Core_0_STLB_rfo_hit 0
Core_0_STLB_rfo_miss 0
Core_0_STLB_rfo_MPKI 0
Core_0_STLB_rfo_miss_rate 0
Core_0_STLB_prefetch_access 0
Core_0_STLB_prefetch_hit 0
Core_0_STLB_prefetch_miss 0
Core_0_STLB_prefetch_MPKI 0
Core_0_STLB_prefetch_miss_rate 0
Core_0_STLB_writeback_access 0
Core_0_STLB_writeback_hit 0
Core_0_STLB_writeback_miss 0
Core_0_STLB_writeback_MPKI 0
Core_0_STLB_writeback_miss_rate 0
Core_0_STLB_prefetch_requested 0
Core_0_STLB_prefetch_issued 0
Core_0_STLB_prefetch_useful 0
Core_0_STLB_prefetch_useless 0
Core_0_STLB_prefetch_late 0
Core_0_STLB_prefetch_accuracy 0
Core_0_STLB_prefetch_coverage 0

Core_0_L1I_total_access 3
Core_0_L1I_total_hit 3
Core_0_L1I_total_miss 0
Core_0_L1I_total_MPKI 0
Core_0_L1I_total_miss_rate 0
Core_0_L1I_demand_access 3
Core_0_L1I_demand_hit 3
Core_0_L1I_demand_miss 0
Core_0_L1I_demand_MPKI 0
Core_0_L1I_demand_miss_rate 0
Core_0_L1I_load_access 3
Core_0_L1I_load_hit 3
Core_0_L1I_load_miss 0
Core_0_L1I_load_MPKI 0
Core_0_L1I_load_miss_rate 0
Core_0_L1I_rfo_access 0
Core_0_L1I_rfo_hit 0
Core_0_L1I_rfo_miss 0
Core_0_L1I_rfo_MPKI 0
Core_0_L1I_rfo_miss_rate 0
Core_0_L1I_prefetch_access 0
Core_0_L1I_prefetch_hit 0
Core_0_L1I_prefetch_miss 0
Core_0_L1I_prefetch_MPKI 0
Core_0_L1I_prefetch_miss_rate 0
Core_0_L1I_writeback_access 0
Core_0_L1I_writeback_hit 0
Core_0_L1I_writeback_miss 0
Core_0_L1I_writeback_MPKI 0
Core_0_L1I_writeback_miss_rate 0
Core_0_L1I_prefetch_requested 0
Core_0_L1I_prefetch_issued 0
Core_0_L1I_prefetch_useful 0
Core_0_L1I_prefetch_useless 0
Core_0_L1I_prefetch_late 0
Core_0_L1I_prefetch_accuracy 0
Core_0_L1I_prefetch_coverage 0

Core_0_L1D_total_access 16285217
Core_0_L1D_total_hit 11022152
Core_0_L1D_total_miss 5263065
Core_0_L1D_total_MPKI 52.6307
Core_0_L1D_total_miss_rate 0.323181
Core_0_L1D_demand_access 12379224
Core_0_L1D_demand_hit 10186359
Core_0_L1D_demand_miss 2192865
Core_0_L1D_demand_MPKI 21.9287
Core_0_L1D_demand_miss_rate 0.177141
Core_0_L1D_load_access 12379224
Core_0_L1D_load_hit 10186359
Core_0_L1D_load_miss 2192865
Core_0_L1D_load_MPKI 21.9287
Core_0_L1D_load_miss_rate 0.177141
Core_0_L1D_rfo_access 0
Core_0_L1D_rfo_hit 0
Core_0_L1D_rfo_miss 0
Core_0_L1D_rfo_MPKI 0
Core_0_L1D_rfo_miss_rate 0
Core_0_L1D_prefetch_access 3903623
Core_0_L1D_prefetch_hit 833423
Core_0_L1D_prefetch_miss 3070200
Core_0_L1D_prefetch_MPKI 30.702
Core_0_L1D_prefetch_miss_rate 0.7865
Core_0_L1D_writeback_access 2370
Core_0_L1D_writeback_hit 2370
Core_0_L1D_writeback_miss 0
Core_0_L1D_writeback_MPKI 0
Core_0_L1D_writeback_miss_rate 0
Core_0_L1D_prefetch_requested 4160955
Core_0_L1D_prefetch_issued 3903617
Core_0_L1D_prefetch_useful 37686
Core_0_L1D_prefetch_useless 4251
Core_0_L1D_prefetch_late 22
Core_0_L1D_prefetch_accuracy 0.00965412
Core_0_L1D_prefetch_coverage 0.0168954

Core_0_L2C_total_access 5010989
Core_0_L2C_total_hit 3186982
Core_0_L2C_total_miss 1824007
Core_0_L2C_total_MPKI 18.2401
Core_0_L2C_total_miss_rate 0.364001
Core_0_L2C_demand_access 1603329
Core_0_L2C_demand_hit 42148
Core_0_L2C_demand_miss 1561181
Core_0_L2C_demand_MPKI 15.6118
Core_0_L2C_demand_miss_rate 0.973712
Core_0_L2C_load_access 1603329
Core_0_L2C_load_hit 42148
Core_0_L2C_load_miss 1561181
Core_0_L2C_load_MPKI 15.6118
Core_0_L2C_load_miss_rate 0.973712
Core_0_L2C_rfo_access 0
Core_0_L2C_rfo_hit 0
Core_0_L2C_rfo_miss 0
Core_0_L2C_rfo_MPKI 0
Core_0_L2C_rfo_miss_rate 0
Core_0_L2C_prefetch_access 3407186
Core_0_L2C_prefetch_hit 3144360
Core_0_L2C_prefetch_miss 262826
Core_0_L2C_prefetch_MPKI 2.62826
Core_0_L2C_prefetch_miss_rate 0.0771387
Core_0_L2C_writeback_access 474
Core_0_L2C_writeback_hit 474
Core_0_L2C_writeback_miss 0
Core_0_L2C_writeback_MPKI 0
Core_0_L2C_writeback_miss_rate 0
Core_0_L2C_prefetch_requested 352762
Core_0_L2C_prefetch_issued 352762
Core_0_L2C_prefetch_useful 10955
Core_0_L2C_prefetch_useless 63
Core_0_L2C_prefetch_late 0
Core_0_L2C_prefetch_accuracy 0.0310549
Core_0_L2C_prefetch_coverage 0.00696823

Core_0_LLC_total_access 1678283
Core_0_LLC_total_hit 1353
Core_0_LLC_total_miss 1676930
Core_0_LLC_total_MPKI 16.7693
Core_0_LLC_total_miss_rate 0.999194
Core_0_LLC_demand_access 1555136
Core_0_LLC_demand_hit 1190
Core_0_LLC_demand_miss 1553946
Core_0_LLC_demand_MPKI 15.5395
Core_0_LLC_demand_miss_rate 0.999235
Core_0_LLC_load_access 1555136
Core_0_LLC_load_hit 1190
Core_0_LLC_load_miss 1553946
Core_0_LLC_load_MPKI 15.5395
Core_0_LLC_load_miss_rate 0.999235
Core_0_LLC_rfo_access 0
Core_0_LLC_rfo_hit 0
Core_0_LLC_rfo_miss 0
Core_0_LLC_rfo_MPKI 0
Core_0_LLC_rfo_miss_rate 0
Core_0_LLC_prefetch_access 123038
Core_0_LLC_prefetch_hit 54
Core_0_LLC_prefetch_miss 122984
Core_0_LLC_prefetch_MPKI 1.22984
Core_0_LLC_prefetch_miss_rate 0.999561
Core_0_LLC_writeback_access 109
Core_0_LLC_writeback_hit 109
Core_0_LLC_writeback_miss 0
Core_0_LLC_writeback_MPKI 0
Core_0_LLC_writeback_miss_rate 0
Core_0_LLC_prefetch_requested 0
Core_0_LLC_prefetch_issued 0
Core_0_LLC_prefetch_useful 0
Core_0_LLC_prefetch_useless 0
Core_0_LLC_prefetch_late 0
Core_0_LLC_prefetch_accuracy 0
Core_0_LLC_prefetch_coverage 0

[DRAM Statistics]
Channel_0_RQ_row_buffer_hit 52
Channel_0_RQ_row_buffer_miss 2436587
Channel_0_WQ_row_buffer_hit 0
Channel_0_WQ_row_buffer_miss 0
Channel_0_WQ_full 0
Channel_0_dbus_congested 267556
DRAM_total_RQ_row_buffer_hit 52
DRAM_total_RQ_row_buffer_miss 2436587
DRAM_total_WQ_row_buffer_hit 0
DRAM_total_WQ_row_buffer_miss 0
DRAM_total_WQ_full 0
DRAM_total_dbus_congested 267556
DRAM_avg_congested_cycle 2.90268

====== DRAM_RQ_TRAFFIC ========
DRAM_RQ_READ_TRAFFIC_BREAKDOWN:
data_demand_read.count = 1553946
data_demand_read.share = 63.77%

inst_demand_read.count = 0
inst_demand_read.share = 0.00%

cache_inst_prefetch.count = 0
cache_inst_prefetch.share = 0.00%

cache_data_prefetch.count = 122984
cache_data_prefetch.share = 5.05%

stlb_data_demand.count = 759393
stlb_data_demand.share = 31.17%

stlb_inst_demand.count = 0
stlb_inst_demand.share = 0.00%

stlb_l1i_pref.count = 0
stlb_l1i_pref.share = 0.00%

stlb_l1d_pref.count = 316
stlb_l1d_pref.share = 0.01%

DRAM_RQ_READ_TRAFFIC_SUMMARY:
cache_demand.count = 1553946
cache_demand.share = 63.77%

cache_prefetch.count = 122984
cache_prefetch.share = 5.05%

stlb_demand.count = 759393
stlb_demand.share = 31.17%

stlb_prefetch.count = 316
stlb_prefetch.share = 0.01%

DRAM_RQ_READ_TRAFFIC_DEBUG:
total_classified_read.count = 2436639
unclassified_read.count = 0
total_read_with_other.count = 2436639

classified_plus_unclassified_check.count = 2436639
dram_rq_read_total_observed.count = 2436639
dram_rq_read_total_observed.per_1K_instructions = 24.3664

STLB_MISS_PTW_DRAM_TOUCH_BREAKDOWN:
stlb_miss_total.count = 1164623

stlb_miss_touch_dram.count = 759726
stlb_miss_touch_dram.share = 65.23%

stlb_miss_no_dram_touch.count = 404897
stlb_miss_no_dram_touch.share = 34.77%

STLB_MISS_PTW_DRAM_TOUCH_DEBUG:
stlb_miss_touch_plus_no_touch.count = 1164623
stlb_miss_total_check.count = 1164623

======STLB miss causes ========
Core_0_STLB_miss_cause_breakdown
Core_0_STLB_cause_Demand_Data_miss 1162695
Core_0_STLB_cause_Demand_Data_miss_rate 0.981882
Core_0_STLB_cause_Demand_Instruction_miss 0
Core_0_STLB_cause_Demand_Instruction_miss_rate 0
Core_0_STLB_cause_L1D_Prefetch_miss 1928
Core_0_STLB_cause_L1D_Prefetch_miss_rate 0.00162817
Core_0_STLB_cause_L1I_Prefetch_miss 0
Core_0_STLB_cause_L1I_Prefetch_miss_rate 0
Core_0_STLB_cause_Other_miss 0
Core_0_STLB_cause_Other_miss_rate 0
Core_0_STLB_Demand_miss 1162695
Core_0_STLB_Demand_miss_rate 0.981882
Core_0_STLB_L1D_Prefetch_miss 1928
Core_0_STLB_L1D_Prefetch_miss_rate 0.00162817
Core_0_STLB_Other_miss 0
Core_0_STLB_Other_miss_rate 0
BERTI TO_L1: 1144520 TO_L2: 5716712 TO_L2_BC_MSHR: 0
BERTI AVG_LAT: 130.028 NUM_TRACK_LATENCY: 2469934 NUM_CANT_TRACK_LATENCY: 0
BERTI CROSS_PAGE 943373 NO_CROSS_PAGE: 5917859
BERTI FOUND_BERTI: 16860427 NO_FOUND_BERTI: 64148
BERTI AVERAGE_ISSUED: 4.2247
