[VMEM] WARNING: physical memory size is smaller than virtual memory size.

*** ChampSim Multicore Out-of-Order Simulator ***
Warmup Instructions: 50000000
Simulation Instructions: 100000000
Number of CPUs: 1
Page size: 4096
Core 0: /data2/zcq/champsim_traces_xsbench/xs.XL64nuclide-355B.champsimtrace.xz
VBerti Prefetcher
BERTI HASH ENTANGLING
BERTI IP MASK ffff
Off-chip DRAM Size: 16 GiB Channels: 1 Width: 64-bit Data Rate: 3205 MT/s
Warmup halting CPU 0 at instruction 50000001 cycle 33995378 for remainder of phase
Warmup finished CPU 0 instructions: 50000001 cycles: 33995378 cumulative IPC: 1.471 (Simulation time: 00 hr 06 min 04 sec)
Warmup complete CPU 0 instructions: 50000001 cycles: 33995378 cumulative IPC: 1.471 (Simulation time: 00 hr 06 min 04 sec)
Simulation finished CPU 0 instructions: 100000002 cycles: 644716490 cumulative IPC: 0.1551 (Simulation time: 00 hr 48 min 29 sec)
Simulation complete CPU 0 instructions: 100000002 cycles: 644716490 cumulative IPC: 0.1551 (Simulation time: 00 hr 48 min 29 sec)

ChampSim completed all CPUs

=== Simulation ===
CPU 0 runs /data2/zcq/champsim_traces_xsbench/xs.XL64nuclide-355B.champsimtrace.xz

Region of Interest Statistics

CPU 0 cumulative IPC: 0.1551 instructions: 100000002 cycles: 644716490
CPU 0 Branch Prediction Accuracy: 87.18% MPKI: 21.44 Average ROB Occupancy at Mispredict: 25.88
Branch type MPKI
BRANCH_DIRECT_JUMP: 0
BRANCH_INDIRECT: 0
BRANCH_CONDITIONAL: 21.44
BRANCH_DIRECT_CALL: 0
BRANCH_INDIRECT_CALL: 0
BRANCH_RETURN: 0

cpu0->cpu0_STLB TOTAL        ACCESS:    3803292 HIT:     132329 MISS:    3670963 MSHR_MERGE:          0
cpu0->cpu0_STLB LOAD         ACCESS:    3803292 HIT:     132329 MISS:    3670963 MSHR_MERGE:          0
cpu0->cpu0_STLB RFO          ACCESS:          0 HIT:          0 MISS:          0 MSHR_MERGE:          0
cpu0->cpu0_STLB PREFETCH     ACCESS:          0 HIT:          0 MISS:          0 MSHR_MERGE:          0
cpu0->cpu0_STLB WRITE        ACCESS:          0 HIT:          0 MISS:          0 MSHR_MERGE:          0
cpu0->cpu0_STLB TRANSLATION  ACCESS:          0 HIT:          0 MISS:          0 MSHR_MERGE:          0
cpu0->cpu0_STLB PREFETCH REQUESTED:          0 ISSUED:          0 USEFUL:          0 USELESS:          0 LATE:          0
cpu0->cpu0_STLB AVERAGE MISS LATENCY: 146.3 cycles
cpu0->cpu0_L2C TOTAL        ACCESS:   10065067 HIT:    1504668 MISS:    8560399 MSHR_MERGE:       8368
cpu0->cpu0_L2C LOAD         ACCESS:    5877642 HIT:     253706 MISS:    5623936 MSHR_MERGE:         88
cpu0->cpu0_L2C RFO          ACCESS:       9946 HIT:       9946 MISS:          0 MSHR_MERGE:          0
cpu0->cpu0_L2C PREFETCH     ACCESS:    1266676 HIT:    1009833 MISS:     256843 MSHR_MERGE:       8280
cpu0->cpu0_L2C WRITE        ACCESS:      19372 HIT:      19354 MISS:         18 MSHR_MERGE:          0
cpu0->cpu0_L2C TRANSLATION  ACCESS:    2891431 HIT:     211829 MISS:    2679602 MSHR_MERGE:          0
cpu0->cpu0_L2C PREFETCH REQUESTED:     330572 ISSUED:     330572 USEFUL:      14002 USELESS:     162040 LATE:         88
cpu0->cpu0_L2C AVERAGE MISS LATENCY: 146.4 cycles
cpu0->cpu0_L1I TOTAL        ACCESS:      21825 HIT:      21825 MISS:          0 MSHR_MERGE:          0
cpu0->cpu0_L1I LOAD         ACCESS:      21825 HIT:      21825 MISS:          0 MSHR_MERGE:          0
cpu0->cpu0_L1I RFO          ACCESS:          0 HIT:          0 MISS:          0 MSHR_MERGE:          0
cpu0->cpu0_L1I PREFETCH     ACCESS:          0 HIT:          0 MISS:          0 MSHR_MERGE:          0
cpu0->cpu0_L1I WRITE        ACCESS:          0 HIT:          0 MISS:          0 MSHR_MERGE:          0
cpu0->cpu0_L1I TRANSLATION  ACCESS:          0 HIT:          0 MISS:          0 MSHR_MERGE:          0
cpu0->cpu0_L1I PREFETCH REQUESTED:          0 ISSUED:          0 USEFUL:          0 USELESS:          0 LATE:          0
cpu0->cpu0_L1I AVERAGE MISS LATENCY: - cycles
cpu0->cpu0_L1D TOTAL        ACCESS:   21519224 HIT:   10349159 MISS:   11170065 MSHR_MERGE:    1454903
cpu0->cpu0_L1D LOAD         ACCESS:    9618926 HIT:    3631505 MISS:    5987421 MSHR_MERGE:     109779
cpu0->cpu0_L1D RFO          ACCESS:          0 HIT:          0 MISS:          0 MSHR_MERGE:          0
cpu0->cpu0_L1D PREFETCH     ACCESS:    2189603 HIT:    1253497 MISS:     936106 MSHR_MERGE:          2
cpu0->cpu0_L1D WRITE        ACCESS:    1890359 HIT:    1840248 MISS:      50111 MSHR_MERGE:      40126
cpu0->cpu0_L1D TRANSLATION  ACCESS:    7820336 HIT:    3623909 MISS:    4196427 MSHR_MERGE:    1304996
cpu0->cpu0_L1D PREFETCH REQUESTED:    2457912 ISSUED:    2189599 USEFUL:      42289 USELESS:      47032 LATE:        705
cpu0->cpu0_L1D AVERAGE MISS LATENCY: 147.5 cycles
cpu0->cpu0_ITLB TOTAL        ACCESS:      17728 HIT:      17728 MISS:          0 MSHR_MERGE:          0
cpu0->cpu0_ITLB LOAD         ACCESS:      17728 HIT:      17728 MISS:          0 MSHR_MERGE:          0
cpu0->cpu0_ITLB RFO          ACCESS:          0 HIT:          0 MISS:          0 MSHR_MERGE:          0
cpu0->cpu0_ITLB PREFETCH     ACCESS:          0 HIT:          0 MISS:          0 MSHR_MERGE:          0
cpu0->cpu0_ITLB WRITE        ACCESS:          0 HIT:          0 MISS:          0 MSHR_MERGE:          0
cpu0->cpu0_ITLB TRANSLATION  ACCESS:          0 HIT:          0 MISS:          0 MSHR_MERGE:          0
cpu0->cpu0_ITLB PREFETCH REQUESTED:          0 ISSUED:          0 USEFUL:          0 USELESS:          0 LATE:          0
cpu0->cpu0_ITLB AVERAGE MISS LATENCY: - cycles
cpu0->cpu0_DTLB TOTAL        ACCESS:   13008871 HIT:    8989873 MISS:    4018998 MSHR_MERGE:     215706
cpu0->cpu0_DTLB LOAD         ACCESS:   13008871 HIT:    8989873 MISS:    4018998 MSHR_MERGE:     215706
cpu0->cpu0_DTLB RFO          ACCESS:          0 HIT:          0 MISS:          0 MSHR_MERGE:          0
cpu0->cpu0_DTLB PREFETCH     ACCESS:          0 HIT:          0 MISS:          0 MSHR_MERGE:          0
cpu0->cpu0_DTLB WRITE        ACCESS:          0 HIT:          0 MISS:          0 MSHR_MERGE:          0
cpu0->cpu0_DTLB TRANSLATION  ACCESS:          0 HIT:          0 MISS:          0 MSHR_MERGE:          0
cpu0->cpu0_DTLB PREFETCH REQUESTED:          0 ISSUED:          0 USEFUL:          0 USELESS:          0 LATE:          0
cpu0->cpu0_DTLB AVERAGE MISS LATENCY: 147.2 cycles
cpu0->LLC TOTAL        ACCESS:    8555701 HIT:    2978653 MISS:    5577048 MSHR_MERGE:          0
cpu0->LLC LOAD         ACCESS:    5623848 HIT:    1373421 MISS:    4250427 MSHR_MERGE:          0
cpu0->LLC RFO          ACCESS:          0 HIT:          0 MISS:          0 MSHR_MERGE:          0
cpu0->LLC PREFETCH     ACCESS:     248563 HIT:      81943 MISS:     166620 MSHR_MERGE:          0
cpu0->LLC WRITE        ACCESS:       3688 HIT:       3675 MISS:         13 MSHR_MERGE:          0
cpu0->LLC TRANSLATION  ACCESS:    2679602 HIT:    1519614 MISS:    1159988 MSHR_MERGE:          0
cpu0->LLC PREFETCH REQUESTED:          0 ISSUED:          0 USEFUL:          0 USELESS:          0 LATE:          0
cpu0->LLC AVERAGE MISS LATENCY: 200.6 cycles

DRAM Statistics

Channel 0 RQ ROW_BUFFER_HIT:      57584
  ROW_BUFFER_MISS:    5519451
  AVG DBUS CONGESTED CYCLE: 2.938
Channel 0 WQ ROW_BUFFER_HIT:          2
  ROW_BUFFER_MISS:         11
  FULL:          0
Channel 0 REFRESHES ISSUED:      53727

[ROI Statistics]
[System Configuration]
num_cpus 1
cpu_freq 4000
fetch_width 6
decode_width 6
dispatch_width 6
execute_width 6
lq_width 2
sq_width 2
retire_width 6
scheduler_size 128
branch_mispredict_penalty 15
rob_size 352
lq_size 128
sq_size 72
ifetch_buffer_size 64
decode_buffer_size 32
dispatch_buffer_size 32
register_file_size 288
decode_latency 1
dispatch_latency 1
schedule_latency 1
execute_latency 1
page_size 4096
block_size 64
core_0_itlb_set 16
core_0_itlb_way 4
core_0_itlb_rq_size 16
core_0_itlb_wq_size 16
core_0_itlb_pq_size 0
core_0_itlb_mshr_size 8
core_0_itlb_hit_latency 1
core_0_itlb_fill_latency 1
core_0_itlb_max_tag_check 2
core_0_itlb_max_fill 2
core_0_dtlb_set 16
core_0_dtlb_way 4
core_0_dtlb_rq_size 16
core_0_dtlb_wq_size 16
core_0_dtlb_pq_size 0
core_0_dtlb_mshr_size 8
core_0_dtlb_hit_latency 1
core_0_dtlb_fill_latency 1
core_0_dtlb_max_tag_check 2
core_0_dtlb_max_fill 2
core_0_stlb_set 128
core_0_stlb_way 12
core_0_stlb_rq_size 32
core_0_stlb_wq_size 32
core_0_stlb_pq_size 0
core_0_stlb_mshr_size 16
core_0_stlb_hit_latency 4
core_0_stlb_fill_latency 4
core_0_stlb_max_tag_check 1
core_0_stlb_max_fill 1
core_0_l1i_set 64
core_0_l1i_way 8
core_0_l1i_rq_size 64
core_0_l1i_wq_size 64
core_0_l1i_pq_size 32
core_0_l1i_mshr_size 8
core_0_l1i_hit_latency 2
core_0_l1i_fill_latency 2
core_0_l1i_max_tag_check 2
core_0_l1i_max_fill 2
core_0_l1d_set 64
core_0_l1d_way 12
core_0_l1d_rq_size 64
core_0_l1d_wq_size 64
core_0_l1d_pq_size 8
core_0_l1d_mshr_size 16
core_0_l1d_hit_latency 2
core_0_l1d_fill_latency 3
core_0_l1d_max_tag_check 2
core_0_l1d_max_fill 2
core_0_l2c_set 1024
core_0_l2c_way 8
core_0_l2c_rq_size 32
core_0_l2c_wq_size 32
core_0_l2c_pq_size 16
core_0_l2c_mshr_size 32
core_0_l2c_hit_latency 5
core_0_l2c_fill_latency 5
core_0_l2c_max_tag_check 1
core_0_l2c_max_fill 1
llc_set 2048
llc_way 16
llc_rq_size 32
llc_wq_size 32
llc_pq_size 32
llc_mshr_size 64
llc_hit_latency 10
llc_fill_latency 10
llc_max_tag_check 1
llc_max_fill 1
dram_channels 1
dram_ranks 1
dram_bankgroups 8
dram_banks 4
dram_rows 65536
dram_columns 1024
dram_channel_width 8
dram_rq_size 64
dram_wq_size 64
dram_size 17179869184
core_0_itlb_prefetcher no
core_0_dtlb_prefetcher no
core_0_stlb_prefetcher no
core_0_l1i_prefetcher next_line
core_0_l1d_prefetcher vberti
core_0_l2c_prefetcher ip_stride
llc_prefetcher no
llc_replacement drrip

Core_0_instructions 100000002
Core_0_cycles 644716490
Core_0_IPC 0.155107
Core_0_branch_prediction_accuracy 87.1805
Core_0_branch_MPKI 21.4373
Core_0_average_ROB_occupancy_at_mispredict 25.8835

Core_0_ITLB_total_access 17728
Core_0_ITLB_total_hit 17728
Core_0_ITLB_total_miss 0
Core_0_ITLB_total_MPKI 0
Core_0_ITLB_total_miss_rate 0
Core_0_ITLB_demand_access 17728
Core_0_ITLB_demand_hit 17728
Core_0_ITLB_demand_miss 0
Core_0_ITLB_demand_MPKI 0
Core_0_ITLB_demand_miss_rate 0
Core_0_ITLB_load_access 17728
Core_0_ITLB_load_hit 17728
Core_0_ITLB_load_miss 0
Core_0_ITLB_load_MPKI 0
Core_0_ITLB_load_miss_rate 0
Core_0_ITLB_rfo_access 0
Core_0_ITLB_rfo_hit 0
Core_0_ITLB_rfo_miss 0
Core_0_ITLB_rfo_MPKI 0
Core_0_ITLB_rfo_miss_rate 0
Core_0_ITLB_prefetch_access 0
Core_0_ITLB_prefetch_hit 0
Core_0_ITLB_prefetch_miss 0
Core_0_ITLB_prefetch_MPKI 0
Core_0_ITLB_prefetch_miss_rate 0
Core_0_ITLB_writeback_access 0
Core_0_ITLB_writeback_hit 0
Core_0_ITLB_writeback_miss 0
Core_0_ITLB_writeback_MPKI 0
Core_0_ITLB_writeback_miss_rate 0
Core_0_ITLB_prefetch_requested 0
Core_0_ITLB_prefetch_issued 0
Core_0_ITLB_prefetch_useful 0
Core_0_ITLB_prefetch_useless 0
Core_0_ITLB_prefetch_late 0
Core_0_ITLB_prefetch_accuracy 0
Core_0_ITLB_prefetch_coverage 0

Core_0_DTLB_total_access 13008871
Core_0_DTLB_total_hit 8989873
Core_0_DTLB_total_miss 4018998
Core_0_DTLB_total_MPKI 40.19
Core_0_DTLB_total_miss_rate 0.308943
Core_0_DTLB_demand_access 13008871
Core_0_DTLB_demand_hit 8989873
Core_0_DTLB_demand_miss 4018998
Core_0_DTLB_demand_MPKI 40.19
Core_0_DTLB_demand_miss_rate 0.308943
Core_0_DTLB_load_access 13008871
Core_0_DTLB_load_hit 8989873
Core_0_DTLB_load_miss 4018998
Core_0_DTLB_load_MPKI 40.19
Core_0_DTLB_load_miss_rate 0.308943
Core_0_DTLB_rfo_access 0
Core_0_DTLB_rfo_hit 0
Core_0_DTLB_rfo_miss 0
Core_0_DTLB_rfo_MPKI 0
Core_0_DTLB_rfo_miss_rate 0
Core_0_DTLB_prefetch_access 0
Core_0_DTLB_prefetch_hit 0
Core_0_DTLB_prefetch_miss 0
Core_0_DTLB_prefetch_MPKI 0
Core_0_DTLB_prefetch_miss_rate 0
Core_0_DTLB_writeback_access 0
Core_0_DTLB_writeback_hit 0
Core_0_DTLB_writeback_miss 0
Core_0_DTLB_writeback_MPKI 0
Core_0_DTLB_writeback_miss_rate 0
Core_0_DTLB_prefetch_requested 0
Core_0_DTLB_prefetch_issued 0
Core_0_DTLB_prefetch_useful 0
Core_0_DTLB_prefetch_useless 0
Core_0_DTLB_prefetch_late 0
Core_0_DTLB_prefetch_accuracy 0
Core_0_DTLB_prefetch_coverage 0

Core_0_STLB_total_access 3803292
Core_0_STLB_total_hit 132329
Core_0_STLB_total_miss 3670963
Core_0_STLB_total_MPKI 36.7096
Core_0_STLB_total_miss_rate 0.965207
Core_0_STLB_demand_access 3803292
Core_0_STLB_demand_hit 132329
Core_0_STLB_demand_miss 3670963
Core_0_STLB_demand_MPKI 36.7096
Core_0_STLB_demand_miss_rate 0.965207
Core_0_STLB_load_access 3803292
Core_0_STLB_load_hit 132329
Core_0_STLB_load_miss 3670963
Core_0_STLB_load_MPKI 36.7096
Core_0_STLB_load_miss_rate 0.965207
Core_0_STLB_rfo_access 0
Core_0_STLB_rfo_hit 0
Core_0_STLB_rfo_miss 0
Core_0_STLB_rfo_MPKI 0
Core_0_STLB_rfo_miss_rate 0
Core_0_STLB_prefetch_access 0
Core_0_STLB_prefetch_hit 0
Core_0_STLB_prefetch_miss 0
Core_0_STLB_prefetch_MPKI 0
Core_0_STLB_prefetch_miss_rate 0
Core_0_STLB_writeback_access 0
Core_0_STLB_writeback_hit 0
Core_0_STLB_writeback_miss 0
Core_0_STLB_writeback_MPKI 0
Core_0_STLB_writeback_miss_rate 0
Core_0_STLB_prefetch_requested 0
Core_0_STLB_prefetch_issued 0
Core_0_STLB_prefetch_useful 0
Core_0_STLB_prefetch_useless 0
Core_0_STLB_prefetch_late 0
Core_0_STLB_prefetch_accuracy 0
Core_0_STLB_prefetch_coverage 0

Core_0_L1I_total_access 21825
Core_0_L1I_total_hit 21825
Core_0_L1I_total_miss 0
Core_0_L1I_total_MPKI 0
Core_0_L1I_total_miss_rate 0
Core_0_L1I_demand_access 21825
Core_0_L1I_demand_hit 21825
Core_0_L1I_demand_miss 0
Core_0_L1I_demand_MPKI 0
Core_0_L1I_demand_miss_rate 0
Core_0_L1I_load_access 21825
Core_0_L1I_load_hit 21825
Core_0_L1I_load_miss 0
Core_0_L1I_load_MPKI 0
Core_0_L1I_load_miss_rate 0
Core_0_L1I_rfo_access 0
Core_0_L1I_rfo_hit 0
Core_0_L1I_rfo_miss 0
Core_0_L1I_rfo_MPKI 0
Core_0_L1I_rfo_miss_rate 0
Core_0_L1I_prefetch_access 0
Core_0_L1I_prefetch_hit 0
Core_0_L1I_prefetch_miss 0
Core_0_L1I_prefetch_MPKI 0
Core_0_L1I_prefetch_miss_rate 0
Core_0_L1I_writeback_access 0
Core_0_L1I_writeback_hit 0
Core_0_L1I_writeback_miss 0
Core_0_L1I_writeback_MPKI 0
Core_0_L1I_writeback_miss_rate 0
Core_0_L1I_prefetch_requested 0
Core_0_L1I_prefetch_issued 0
Core_0_L1I_prefetch_useful 0
Core_0_L1I_prefetch_useless 0
Core_0_L1I_prefetch_late 0
Core_0_L1I_prefetch_accuracy 0
Core_0_L1I_prefetch_coverage 0

Core_0_L1D_total_access 13698888
Core_0_L1D_total_hit 6725250
Core_0_L1D_total_miss 6973638
Core_0_L1D_total_MPKI 69.7364
Core_0_L1D_total_miss_rate 0.509066
Core_0_L1D_demand_access 9618926
Core_0_L1D_demand_hit 3631505
Core_0_L1D_demand_miss 5987421
Core_0_L1D_demand_MPKI 59.8742
Core_0_L1D_demand_miss_rate 0.622463
Core_0_L1D_load_access 9618926
Core_0_L1D_load_hit 3631505
Core_0_L1D_load_miss 5987421
Core_0_L1D_load_MPKI 59.8742
Core_0_L1D_load_miss_rate 0.622463
Core_0_L1D_rfo_access 0
Core_0_L1D_rfo_hit 0
Core_0_L1D_rfo_miss 0
Core_0_L1D_rfo_MPKI 0
Core_0_L1D_rfo_miss_rate 0
Core_0_L1D_prefetch_access 2189603
Core_0_L1D_prefetch_hit 1253497
Core_0_L1D_prefetch_miss 936106
Core_0_L1D_prefetch_MPKI 9.36106
Core_0_L1D_prefetch_miss_rate 0.427523
Core_0_L1D_writeback_access 1890359
Core_0_L1D_writeback_hit 1840248
Core_0_L1D_writeback_miss 50111
Core_0_L1D_writeback_MPKI 0.50111
Core_0_L1D_writeback_miss_rate 0.0265087
Core_0_L1D_prefetch_requested 2457912
Core_0_L1D_prefetch_issued 2189599
Core_0_L1D_prefetch_useful 42289
Core_0_L1D_prefetch_useless 47032
Core_0_L1D_prefetch_late 705
Core_0_L1D_prefetch_accuracy 0.0193136
Core_0_L1D_prefetch_coverage 0.00701344

Core_0_L2C_total_access 7173636
Core_0_L2C_total_hit 1292839
Core_0_L2C_total_miss 5880797
Core_0_L2C_total_MPKI 58.808
Core_0_L2C_total_miss_rate 0.819779
Core_0_L2C_demand_access 5887588
Core_0_L2C_demand_hit 263652
Core_0_L2C_demand_miss 5623936
Core_0_L2C_demand_MPKI 56.2394
Core_0_L2C_demand_miss_rate 0.955219
Core_0_L2C_load_access 5877642
Core_0_L2C_load_hit 253706
Core_0_L2C_load_miss 5623936
Core_0_L2C_load_MPKI 56.2394
Core_0_L2C_load_miss_rate 0.956835
Core_0_L2C_rfo_access 9946
Core_0_L2C_rfo_hit 9946
Core_0_L2C_rfo_miss 0
Core_0_L2C_rfo_MPKI 0
Core_0_L2C_rfo_miss_rate 0
Core_0_L2C_prefetch_access 1266676
Core_0_L2C_prefetch_hit 1009833
Core_0_L2C_prefetch_miss 256843
Core_0_L2C_prefetch_MPKI 2.56843
Core_0_L2C_prefetch_miss_rate 0.202769
Core_0_L2C_writeback_access 19372
Core_0_L2C_writeback_hit 19354
Core_0_L2C_writeback_miss 18
Core_0_L2C_writeback_MPKI 0.00018
Core_0_L2C_writeback_miss_rate 0.000929176
Core_0_L2C_prefetch_requested 330572
Core_0_L2C_prefetch_issued 330572
Core_0_L2C_prefetch_useful 14002
Core_0_L2C_prefetch_useless 162040
Core_0_L2C_prefetch_late 88
Core_0_L2C_prefetch_accuracy 0.0423569
Core_0_L2C_prefetch_coverage 0.00248353

Core_0_LLC_total_access 5876099
Core_0_LLC_total_hit 1459039
Core_0_LLC_total_miss 4417060
Core_0_LLC_total_MPKI 44.1706
Core_0_LLC_total_miss_rate 0.751699
Core_0_LLC_demand_access 5623848
Core_0_LLC_demand_hit 1373421
Core_0_LLC_demand_miss 4250427
Core_0_LLC_demand_MPKI 42.5043
Core_0_LLC_demand_miss_rate 0.755786
Core_0_LLC_load_access 5623848
Core_0_LLC_load_hit 1373421
Core_0_LLC_load_miss 4250427
Core_0_LLC_load_MPKI 42.5043
Core_0_LLC_load_miss_rate 0.755786
Core_0_LLC_rfo_access 0
Core_0_LLC_rfo_hit 0
Core_0_LLC_rfo_miss 0
Core_0_LLC_rfo_MPKI 0
Core_0_LLC_rfo_miss_rate 0
Core_0_LLC_prefetch_access 248563
Core_0_LLC_prefetch_hit 81943
Core_0_LLC_prefetch_miss 166620
Core_0_LLC_prefetch_MPKI 1.6662
Core_0_LLC_prefetch_miss_rate 0.670333
Core_0_LLC_writeback_access 3688
Core_0_LLC_writeback_hit 3675
Core_0_LLC_writeback_miss 13
Core_0_LLC_writeback_MPKI 0.00013
Core_0_LLC_writeback_miss_rate 0.00352495
Core_0_LLC_prefetch_requested 0
Core_0_LLC_prefetch_issued 0
Core_0_LLC_prefetch_useful 0
Core_0_LLC_prefetch_useless 0
Core_0_LLC_prefetch_late 0
Core_0_LLC_prefetch_accuracy 0
Core_0_LLC_prefetch_coverage 0

[DRAM Statistics]
Channel_0_RQ_row_buffer_hit 57584
Channel_0_RQ_row_buffer_miss 5519451
Channel_0_WQ_row_buffer_hit 2
Channel_0_WQ_row_buffer_miss 11
Channel_0_WQ_full 0
Channel_0_dbus_congested 5923454
DRAM_total_RQ_row_buffer_hit 57584
DRAM_total_RQ_row_buffer_miss 5519451
DRAM_total_WQ_row_buffer_hit 2
DRAM_total_WQ_row_buffer_miss 11
DRAM_total_WQ_full 0
DRAM_total_dbus_congested 5923454
DRAM_avg_congested_cycle 2.93774

====== DRAM_RQ_TRAFFIC ========
DRAM_RQ_READ_TRAFFIC_BREAKDOWN:
data_demand_read.count = 4250427
data_demand_read.share = 76.21%

inst_demand_read.count = 0
inst_demand_read.share = 0.00%

cache_inst_prefetch.count = 0
cache_inst_prefetch.share = 0.00%

cache_data_prefetch.count = 166620
cache_data_prefetch.share = 2.99%

stlb_data_demand.count = 1159988
stlb_data_demand.share = 20.80%

stlb_inst_demand.count = 0
stlb_inst_demand.share = 0.00%

stlb_l1i_pref.count = 0
stlb_l1i_pref.share = 0.00%

stlb_l1d_pref.count = 0
stlb_l1d_pref.share = 0.00%

DRAM_RQ_READ_TRAFFIC_SUMMARY:
cache_demand.count = 4250427
cache_demand.share = 76.21%

cache_prefetch.count = 166620
cache_prefetch.share = 2.99%

stlb_demand.count = 1159988
stlb_demand.share = 20.80%

stlb_prefetch.count = 0
stlb_prefetch.share = 0.00%

DRAM_RQ_READ_TRAFFIC_DEBUG:
total_classified_read.count = 5577035
unclassified_read.count = 0
total_read_with_other.count = 5577035

classified_plus_unclassified_check.count = 5577035
dram_rq_read_total_observed.count = 5577035
dram_rq_read_total_observed.per_1K_instructions = 55.7703

STLB_MISS_PTW_DRAM_TOUCH_BREAKDOWN:
stlb_miss_total.count = 3670963

stlb_miss_touch_dram.count = 1165446
stlb_miss_touch_dram.share = 31.75%

stlb_miss_no_dram_touch.count = 2505517
stlb_miss_no_dram_touch.share = 68.25%

STLB_MISS_PTW_DRAM_TOUCH_DEBUG:
stlb_miss_touch_plus_no_touch.count = 3670963
stlb_miss_total_check.count = 3670963

======STLB miss causes ========
Core_0_STLB_miss_cause_breakdown
Core_0_STLB_cause_Demand_Data_miss 3669066
Core_0_STLB_cause_Demand_Data_miss_rate 0.964708
Core_0_STLB_cause_Demand_Instruction_miss 0
Core_0_STLB_cause_Demand_Instruction_miss_rate 0
Core_0_STLB_cause_L1D_Prefetch_miss 1897
Core_0_STLB_cause_L1D_Prefetch_miss_rate 0.000498778
Core_0_STLB_cause_L1I_Prefetch_miss 0
Core_0_STLB_cause_L1I_Prefetch_miss_rate 0
Core_0_STLB_cause_Other_miss 0
Core_0_STLB_cause_Other_miss_rate 0
Core_0_STLB_Demand_miss 3669066
Core_0_STLB_Demand_miss_rate 0.964708
Core_0_STLB_L1D_Prefetch_miss 1897
Core_0_STLB_L1D_Prefetch_miss_rate 0.000498778
Core_0_STLB_Other_miss 0
Core_0_STLB_Other_miss_rate 0
BERTI TO_L1: 1630738 TO_L2: 1561662 TO_L2_BC_MSHR: 0
BERTI AVG_LAT: 115.82 NUM_TRACK_LATENCY: 8932124 NUM_CANT_TRACK_LATENCY: 0
BERTI CROSS_PAGE 329108 NO_CROSS_PAGE: 2863292
BERTI FOUND_BERTI: 12967284 NO_FOUND_BERTI: 3747930
BERTI AVERAGE_ISSUED: 2.84981
