[VMEM] WARNING: physical memory size is smaller than virtual memory size.

*** ChampSim Multicore Out-of-Order Simulator ***
Warmup Instructions: 20000000
Simulation Instructions: 50000000
Number of CPUs: 1
Page size: 4096
STLB ideal mode: l1pref
Core 0: /data0/tzh/champsim_traces/SPEC06/403.gcc-48B.champsimtrace.xz
 L1D Berti prefetcher
Off-chip DRAM Size: 4 GiB Channels: 1 Width: 64-bit Data Rate: 3205 MT/s
Warmup halting CPU 0 at instruction 20000005 cycle 4536253 for remainder of phase
Warmup finished CPU 0 instructions: 20000005 cycles: 4536253 cumulative IPC: 4.409 (Simulation time: 00 hr 00 min 50 sec)
Warmup complete CPU 0 instructions: 20000005 cycles: 4536253 cumulative IPC: 4.409 (Simulation time: 00 hr 00 min 50 sec)
Simulation finished CPU 0 instructions: 50000000 cycles: 15302343 cumulative IPC: 3.267 (Simulation time: 00 hr 04 min 11 sec)
Simulation complete CPU 0 instructions: 50000000 cycles: 15302343 cumulative IPC: 3.267 (Simulation time: 00 hr 04 min 11 sec)

ChampSim completed all CPUs

=== Simulation ===
CPU 0 runs /data0/tzh/champsim_traces/SPEC06/403.gcc-48B.champsimtrace.xz

Region of Interest Statistics

CPU 0 cumulative IPC: 3.267 instructions: 50000000 cycles: 15302343
CPU 0 Branch Prediction Accuracy: 99.68% MPKI: 0.7076 Average ROB Occupancy at Mispredict: 94.2
Branch type MPKI
BRANCH_DIRECT_JUMP: 0.0004
BRANCH_INDIRECT: 2e-05
BRANCH_CONDITIONAL: 0.6999
BRANCH_DIRECT_CALL: 0.00362
BRANCH_INDIRECT_CALL: 4e-05
BRANCH_RETURN: 0.00356

cpu0->cpu0_STLB TOTAL        ACCESS:      10007 HIT:       8952 MISS:       1055 MSHR_MERGE:          0
cpu0->cpu0_STLB LOAD         ACCESS:      10007 HIT:       8952 MISS:       1055 MSHR_MERGE:          0
cpu0->cpu0_STLB RFO          ACCESS:          0 HIT:          0 MISS:          0 MSHR_MERGE:          0
cpu0->cpu0_STLB PREFETCH     ACCESS:          0 HIT:          0 MISS:          0 MSHR_MERGE:          0
cpu0->cpu0_STLB WRITE        ACCESS:          0 HIT:          0 MISS:          0 MSHR_MERGE:          0
cpu0->cpu0_STLB TRANSLATION  ACCESS:          0 HIT:          0 MISS:          0 MSHR_MERGE:          0
cpu0->cpu0_STLB PREFETCH REQUESTED:          0 ISSUED:          0 USEFUL:          0 USELESS:          0 LATE:          0
cpu0->cpu0_STLB AVERAGE MISS LATENCY: 221.4 cycles
cpu0->cpu0_L2C TOTAL        ACCESS:     108848 HIT:      89753 MISS:      19095 MSHR_MERGE:        677
cpu0->cpu0_L2C LOAD         ACCESS:      41837 HIT:      36880 MISS:       4957 MSHR_MERGE:         68
cpu0->cpu0_L2C RFO          ACCESS:       1700 HIT:        200 MISS:       1500 MSHR_MERGE:          1
cpu0->cpu0_L2C PREFETCH     ACCESS:      59571 HIT:      47260 MISS:      12311 MSHR_MERGE:        608
cpu0->cpu0_L2C WRITE        ACCESS:       4781 HIT:       4776 MISS:          5 MSHR_MERGE:          0
cpu0->cpu0_L2C TRANSLATION  ACCESS:        959 HIT:        637 MISS:        322 MSHR_MERGE:          0
cpu0->cpu0_L2C PREFETCH REQUESTED:      39417 ISSUED:      39417 USEFUL:       5440 USELESS:       4437 LATE:         69
cpu0->cpu0_L2C AVERAGE MISS LATENCY: 166.3 cycles
cpu0->cpu0_L1I TOTAL        ACCESS:   10038868 HIT:   10038867 MISS:          1 MSHR_MERGE:          0
cpu0->cpu0_L1I LOAD         ACCESS:   10038868 HIT:   10038867 MISS:          1 MSHR_MERGE:          0
cpu0->cpu0_L1I RFO          ACCESS:          0 HIT:          0 MISS:          0 MSHR_MERGE:          0
cpu0->cpu0_L1I PREFETCH     ACCESS:          0 HIT:          0 MISS:          0 MSHR_MERGE:          0
cpu0->cpu0_L1I WRITE        ACCESS:          0 HIT:          0 MISS:          0 MSHR_MERGE:          0
cpu0->cpu0_L1I TRANSLATION  ACCESS:          0 HIT:          0 MISS:          0 MSHR_MERGE:          0
cpu0->cpu0_L1I PREFETCH REQUESTED:          0 ISSUED:          0 USEFUL:          0 USELESS:          0 LATE:          0
cpu0->cpu0_L1I AVERAGE MISS LATENCY: 226 cycles
cpu0->cpu0_L1D TOTAL        ACCESS:   13800931 HIT:   13719738 MISS:      81193 MSHR_MERGE:      16543
cpu0->cpu0_L1D LOAD         ACCESS:    5009273 HIT:    4959315 MISS:      49958 MSHR_MERGE:       8122
cpu0->cpu0_L1D RFO          ACCESS:          0 HIT:          0 MISS:          0 MSHR_MERGE:          0
cpu0->cpu0_L1D PREFETCH     ACCESS:     239707 HIT:     217792 MISS:      21915 MSHR_MERGE:       1761
cpu0->cpu0_L1D WRITE        ACCESS:    8549841 HIT:    8541480 MISS:       8361 MSHR_MERGE:       6660
cpu0->cpu0_L1D TRANSLATION  ACCESS:       2110 HIT:       1151 MISS:        959 MSHR_MERGE:          0
cpu0->cpu0_L1D PREFETCH REQUESTED:     418730 ISSUED:     239708 USEFUL:      11170 USELESS:       8934 LATE:       1144
cpu0->cpu0_L1D AVERAGE MISS LATENCY: 32.99 cycles
cpu0->cpu0_ITLB TOTAL        ACCESS:    8599324 HIT:    8599324 MISS:          0 MSHR_MERGE:          0
cpu0->cpu0_ITLB LOAD         ACCESS:    8599324 HIT:    8599324 MISS:          0 MSHR_MERGE:          0
cpu0->cpu0_ITLB RFO          ACCESS:          0 HIT:          0 MISS:          0 MSHR_MERGE:          0
cpu0->cpu0_ITLB PREFETCH     ACCESS:          0 HIT:          0 MISS:          0 MSHR_MERGE:          0
cpu0->cpu0_ITLB WRITE        ACCESS:          0 HIT:          0 MISS:          0 MSHR_MERGE:          0
cpu0->cpu0_ITLB TRANSLATION  ACCESS:          0 HIT:          0 MISS:          0 MSHR_MERGE:          0
cpu0->cpu0_ITLB PREFETCH REQUESTED:          0 ISSUED:          0 USEFUL:          0 USELESS:          0 LATE:          0
cpu0->cpu0_ITLB AVERAGE MISS LATENCY: - cycles
cpu0->cpu0_DTLB TOTAL        ACCESS:   12402872 HIT:   12390422 MISS:      12450 MSHR_MERGE:       2443
cpu0->cpu0_DTLB LOAD         ACCESS:   12402872 HIT:   12390422 MISS:      12450 MSHR_MERGE:       2443
cpu0->cpu0_DTLB RFO          ACCESS:          0 HIT:          0 MISS:          0 MSHR_MERGE:          0
cpu0->cpu0_DTLB PREFETCH     ACCESS:          0 HIT:          0 MISS:          0 MSHR_MERGE:          0
cpu0->cpu0_DTLB WRITE        ACCESS:          0 HIT:          0 MISS:          0 MSHR_MERGE:          0
cpu0->cpu0_DTLB TRANSLATION  ACCESS:          0 HIT:          0 MISS:          0 MSHR_MERGE:          0
cpu0->cpu0_DTLB PREFETCH REQUESTED:          0 ISSUED:          0 USEFUL:          0 USELESS:          0 LATE:          0
cpu0->cpu0_DTLB AVERAGE MISS LATENCY: 28.44 cycles
cpu0->LLC TOTAL        ACCESS:      21831 HIT:       4815 MISS:      17016 MSHR_MERGE:          0
cpu0->LLC LOAD         ACCESS:       4889 HIT:        149 MISS:       4740 MSHR_MERGE:          0
cpu0->LLC RFO          ACCESS:       1499 HIT:          0 MISS:       1499 MSHR_MERGE:          0
cpu0->LLC PREFETCH     ACCESS:      11703 HIT:       1002 MISS:      10701 MSHR_MERGE:          0
cpu0->LLC WRITE        ACCESS:       3418 HIT:       3407 MISS:         11 MSHR_MERGE:          0
cpu0->LLC TRANSLATION  ACCESS:        322 HIT:        257 MISS:         65 MSHR_MERGE:          0
cpu0->LLC PREFETCH REQUESTED:          0 ISSUED:          0 USEFUL:          0 USELESS:          0 LATE:          0
cpu0->LLC AVERAGE MISS LATENCY: 160.6 cycles

DRAM Statistics

Channel 0 RQ ROW_BUFFER_HIT:         63
  ROW_BUFFER_MISS:      16942
  AVG DBUS CONGESTED CYCLE: 2.938
Channel 0 WQ ROW_BUFFER_HIT:          3
  ROW_BUFFER_MISS:          4
  FULL:          0
Channel 0 REFRESHES ISSUED:       1275

[ROI Statistics]
[System Configuration]
num_cpus 1
cpu_freq 4000
fetch_width 6
decode_width 6
dispatch_width 6
execute_width 6
lq_width 2
sq_width 2
retire_width 6
scheduler_size 160
branch_mispredict_penalty 1
rob_size 352
lq_size 240
sq_size 112
ifetch_buffer_size 64
decode_buffer_size 32
dispatch_buffer_size 32
register_file_size 288
decode_latency 1
dispatch_latency 1
schedule_latency 0
execute_latency 0
page_size 4096
block_size 64
core_0_itlb_set 16
core_0_itlb_way 4
core_0_itlb_rq_size 16
core_0_itlb_wq_size 16
core_0_itlb_pq_size 0
core_0_itlb_mshr_size 8
core_0_itlb_hit_latency 1
core_0_itlb_fill_latency 1
core_0_itlb_max_tag_check 2
core_0_itlb_max_fill 2
core_0_dtlb_set 16
core_0_dtlb_way 4
core_0_dtlb_rq_size 16
core_0_dtlb_wq_size 16
core_0_dtlb_pq_size 0
core_0_dtlb_mshr_size 8
core_0_dtlb_hit_latency 1
core_0_dtlb_fill_latency 1
core_0_dtlb_max_tag_check 2
core_0_dtlb_max_fill 2
core_0_stlb_set 128
core_0_stlb_way 12
core_0_stlb_rq_size 32
core_0_stlb_wq_size 32
core_0_stlb_pq_size 0
core_0_stlb_mshr_size 16
core_0_stlb_hit_latency 4
core_0_stlb_fill_latency 4
core_0_stlb_max_tag_check 1
core_0_stlb_max_fill 1
core_0_l1i_set 64
core_0_l1i_way 8
core_0_l1i_rq_size 64
core_0_l1i_wq_size 64
core_0_l1i_pq_size 32
core_0_l1i_mshr_size 8
core_0_l1i_hit_latency 2
core_0_l1i_fill_latency 2
core_0_l1i_max_tag_check 2
core_0_l1i_max_fill 2
core_0_l1d_set 64
core_0_l1d_way 12
core_0_l1d_rq_size 64
core_0_l1d_wq_size 64
core_0_l1d_pq_size 8
core_0_l1d_mshr_size 16
core_0_l1d_hit_latency 2
core_0_l1d_fill_latency 3
core_0_l1d_max_tag_check 2
core_0_l1d_max_fill 2
core_0_l2c_set 1024
core_0_l2c_way 8
core_0_l2c_rq_size 32
core_0_l2c_wq_size 32
core_0_l2c_pq_size 16
core_0_l2c_mshr_size 32
core_0_l2c_hit_latency 5
core_0_l2c_fill_latency 5
core_0_l2c_max_tag_check 1
core_0_l2c_max_fill 1
llc_set 2048
llc_way 16
llc_rq_size 32
llc_wq_size 32
llc_pq_size 32
llc_mshr_size 64
llc_hit_latency 10
llc_fill_latency 10
llc_max_tag_check 1
llc_max_fill 1
dram_channels 1
dram_ranks 1
dram_bankgroups 8
dram_banks 4
dram_rows 16384
dram_columns 1024
dram_channel_width 8
dram_rq_size 64
dram_wq_size 64
dram_size 4294967296
core_0_itlb_prefetcher no
core_0_dtlb_prefetcher no
core_0_stlb_prefetcher no
core_0_l1i_prefetcher next_line
core_0_l1d_prefetcher berti
core_0_l2c_prefetcher pythia
llc_prefetcher no
llc_replacement drrip

Core_0_instructions 50000000
Core_0_cycles 15302343
Core_0_IPC 3.26747
Core_0_branch_prediction_accuracy 99.6824
Core_0_branch_MPKI 0.70756
Core_0_average_ROB_occupancy_at_mispredict 94.1998

Core_0_ITLB_total_access 8599324
Core_0_ITLB_total_hit 8599324
Core_0_ITLB_total_miss 0
Core_0_ITLB_total_MPKI 0
Core_0_ITLB_total_miss_rate 0
Core_0_ITLB_demand_access 8599324
Core_0_ITLB_demand_hit 8599324
Core_0_ITLB_demand_miss 0
Core_0_ITLB_demand_MPKI 0
Core_0_ITLB_demand_miss_rate 0
Core_0_ITLB_load_access 8599324
Core_0_ITLB_load_hit 8599324
Core_0_ITLB_load_miss 0
Core_0_ITLB_load_MPKI 0
Core_0_ITLB_load_miss_rate 0
Core_0_ITLB_rfo_access 0
Core_0_ITLB_rfo_hit 0
Core_0_ITLB_rfo_miss 0
Core_0_ITLB_rfo_MPKI 0
Core_0_ITLB_rfo_miss_rate 0
Core_0_ITLB_prefetch_access 0
Core_0_ITLB_prefetch_hit 0
Core_0_ITLB_prefetch_miss 0
Core_0_ITLB_prefetch_MPKI 0
Core_0_ITLB_prefetch_miss_rate 0
Core_0_ITLB_writeback_access 0
Core_0_ITLB_writeback_hit 0
Core_0_ITLB_writeback_miss 0
Core_0_ITLB_writeback_MPKI 0
Core_0_ITLB_writeback_miss_rate 0
Core_0_ITLB_prefetch_requested 0
Core_0_ITLB_prefetch_issued 0
Core_0_ITLB_prefetch_useful 0
Core_0_ITLB_prefetch_useless 0
Core_0_ITLB_prefetch_late 0
Core_0_ITLB_prefetch_accuracy 0
Core_0_ITLB_prefetch_coverage 0

Core_0_DTLB_total_access 12402872
Core_0_DTLB_total_hit 12390422
Core_0_DTLB_total_miss 12450
Core_0_DTLB_total_MPKI 0.249
Core_0_DTLB_total_miss_rate 0.0010038
Core_0_DTLB_demand_access 12402872
Core_0_DTLB_demand_hit 12390422
Core_0_DTLB_demand_miss 12450
Core_0_DTLB_demand_MPKI 0.249
Core_0_DTLB_demand_miss_rate 0.0010038
Core_0_DTLB_load_access 12402872
Core_0_DTLB_load_hit 12390422
Core_0_DTLB_load_miss 12450
Core_0_DTLB_load_MPKI 0.249
Core_0_DTLB_load_miss_rate 0.0010038
Core_0_DTLB_rfo_access 0
Core_0_DTLB_rfo_hit 0
Core_0_DTLB_rfo_miss 0
Core_0_DTLB_rfo_MPKI 0
Core_0_DTLB_rfo_miss_rate 0
Core_0_DTLB_prefetch_access 0
Core_0_DTLB_prefetch_hit 0
Core_0_DTLB_prefetch_miss 0
Core_0_DTLB_prefetch_MPKI 0
Core_0_DTLB_prefetch_miss_rate 0
Core_0_DTLB_writeback_access 0
Core_0_DTLB_writeback_hit 0
Core_0_DTLB_writeback_miss 0
Core_0_DTLB_writeback_MPKI 0
Core_0_DTLB_writeback_miss_rate 0
Core_0_DTLB_prefetch_requested 0
Core_0_DTLB_prefetch_issued 0
Core_0_DTLB_prefetch_useful 0
Core_0_DTLB_prefetch_useless 0
Core_0_DTLB_prefetch_late 0
Core_0_DTLB_prefetch_accuracy 0
Core_0_DTLB_prefetch_coverage 0

Core_0_STLB_total_access 10007
Core_0_STLB_total_hit 8952
Core_0_STLB_total_miss 1055
Core_0_STLB_total_MPKI 0.0211
Core_0_STLB_total_miss_rate 0.105426
Core_0_STLB_demand_access 10007
Core_0_STLB_demand_hit 8952
Core_0_STLB_demand_miss 1055
Core_0_STLB_demand_MPKI 0.0211
Core_0_STLB_demand_miss_rate 0.105426
Core_0_STLB_load_access 10007
Core_0_STLB_load_hit 8952
Core_0_STLB_load_miss 1055
Core_0_STLB_load_MPKI 0.0211
Core_0_STLB_load_miss_rate 0.105426
Core_0_STLB_rfo_access 0
Core_0_STLB_rfo_hit 0
Core_0_STLB_rfo_miss 0
Core_0_STLB_rfo_MPKI 0
Core_0_STLB_rfo_miss_rate 0
Core_0_STLB_prefetch_access 0
Core_0_STLB_prefetch_hit 0
Core_0_STLB_prefetch_miss 0
Core_0_STLB_prefetch_MPKI 0
Core_0_STLB_prefetch_miss_rate 0
Core_0_STLB_writeback_access 0
Core_0_STLB_writeback_hit 0
Core_0_STLB_writeback_miss 0
Core_0_STLB_writeback_MPKI 0
Core_0_STLB_writeback_miss_rate 0
Core_0_STLB_prefetch_requested 0
Core_0_STLB_prefetch_issued 0
Core_0_STLB_prefetch_useful 0
Core_0_STLB_prefetch_useless 0
Core_0_STLB_prefetch_late 0
Core_0_STLB_prefetch_accuracy 0
Core_0_STLB_prefetch_coverage 0

Core_0_L1I_total_access 10038868
Core_0_L1I_total_hit 10038867
Core_0_L1I_total_miss 1
Core_0_L1I_total_MPKI 2e-05
Core_0_L1I_total_miss_rate 9.96128e-08
Core_0_L1I_demand_access 10038868
Core_0_L1I_demand_hit 10038867
Core_0_L1I_demand_miss 1
Core_0_L1I_demand_MPKI 2e-05
Core_0_L1I_demand_miss_rate 9.96128e-08
Core_0_L1I_load_access 10038868
Core_0_L1I_load_hit 10038867
Core_0_L1I_load_miss 1
Core_0_L1I_load_MPKI 2e-05
Core_0_L1I_load_miss_rate 9.96128e-08
Core_0_L1I_rfo_access 0
Core_0_L1I_rfo_hit 0
Core_0_L1I_rfo_miss 0
Core_0_L1I_rfo_MPKI 0
Core_0_L1I_rfo_miss_rate 0
Core_0_L1I_prefetch_access 0
Core_0_L1I_prefetch_hit 0
Core_0_L1I_prefetch_miss 0
Core_0_L1I_prefetch_MPKI 0
Core_0_L1I_prefetch_miss_rate 0
Core_0_L1I_writeback_access 0
Core_0_L1I_writeback_hit 0
Core_0_L1I_writeback_miss 0
Core_0_L1I_writeback_MPKI 0
Core_0_L1I_writeback_miss_rate 0
Core_0_L1I_prefetch_requested 0
Core_0_L1I_prefetch_issued 0
Core_0_L1I_prefetch_useful 0
Core_0_L1I_prefetch_useless 0
Core_0_L1I_prefetch_late 0
Core_0_L1I_prefetch_accuracy 0
Core_0_L1I_prefetch_coverage 0

Core_0_L1D_total_access 13798821
Core_0_L1D_total_hit 13718587
Core_0_L1D_total_miss 80234
Core_0_L1D_total_MPKI 1.60468
Core_0_L1D_total_miss_rate 0.00581455
Core_0_L1D_demand_access 5009273
Core_0_L1D_demand_hit 4959315
Core_0_L1D_demand_miss 49958
Core_0_L1D_demand_MPKI 0.99916
Core_0_L1D_demand_miss_rate 0.0099731
Core_0_L1D_load_access 5009273
Core_0_L1D_load_hit 4959315
Core_0_L1D_load_miss 49958
Core_0_L1D_load_MPKI 0.99916
Core_0_L1D_load_miss_rate 0.0099731
Core_0_L1D_rfo_access 0
Core_0_L1D_rfo_hit 0
Core_0_L1D_rfo_miss 0
Core_0_L1D_rfo_MPKI 0
Core_0_L1D_rfo_miss_rate 0
Core_0_L1D_prefetch_access 239707
Core_0_L1D_prefetch_hit 217792
Core_0_L1D_prefetch_miss 21915
Core_0_L1D_prefetch_MPKI 0.4383
Core_0_L1D_prefetch_miss_rate 0.0914241
Core_0_L1D_writeback_access 8549841
Core_0_L1D_writeback_hit 8541480
Core_0_L1D_writeback_miss 8361
Core_0_L1D_writeback_MPKI 0.16722
Core_0_L1D_writeback_miss_rate 0.000977913
Core_0_L1D_prefetch_requested 418730
Core_0_L1D_prefetch_issued 239708
Core_0_L1D_prefetch_useful 11170
Core_0_L1D_prefetch_useless 8934
Core_0_L1D_prefetch_late 1144
Core_0_L1D_prefetch_accuracy 0.0465984
Core_0_L1D_prefetch_coverage 0.182731

Core_0_L2C_total_access 107889
Core_0_L2C_total_hit 89116
Core_0_L2C_total_miss 18773
Core_0_L2C_total_MPKI 0.37546
Core_0_L2C_total_miss_rate 0.174003
Core_0_L2C_demand_access 43537
Core_0_L2C_demand_hit 37080
Core_0_L2C_demand_miss 6457
Core_0_L2C_demand_MPKI 0.12914
Core_0_L2C_demand_miss_rate 0.148311
Core_0_L2C_load_access 41837
Core_0_L2C_load_hit 36880
Core_0_L2C_load_miss 4957
Core_0_L2C_load_MPKI 0.09914
Core_0_L2C_load_miss_rate 0.118484
Core_0_L2C_rfo_access 1700
Core_0_L2C_rfo_hit 200
Core_0_L2C_rfo_miss 1500
Core_0_L2C_rfo_MPKI 0.03
Core_0_L2C_rfo_miss_rate 0.882353
Core_0_L2C_prefetch_access 59571
Core_0_L2C_prefetch_hit 47260
Core_0_L2C_prefetch_miss 12311
Core_0_L2C_prefetch_MPKI 0.24622
Core_0_L2C_prefetch_miss_rate 0.206661
Core_0_L2C_writeback_access 4781
Core_0_L2C_writeback_hit 4776
Core_0_L2C_writeback_miss 5
Core_0_L2C_writeback_MPKI 0.0001
Core_0_L2C_writeback_miss_rate 0.00104581
Core_0_L2C_prefetch_requested 39417
Core_0_L2C_prefetch_issued 39417
Core_0_L2C_prefetch_useful 5440
Core_0_L2C_prefetch_useless 4437
Core_0_L2C_prefetch_late 69
Core_0_L2C_prefetch_accuracy 0.138012
Core_0_L2C_prefetch_coverage 0.457258

Core_0_LLC_total_access 21509
Core_0_LLC_total_hit 4558
Core_0_LLC_total_miss 16951
Core_0_LLC_total_MPKI 0.33902
Core_0_LLC_total_miss_rate 0.788089
Core_0_LLC_demand_access 6388
Core_0_LLC_demand_hit 149
Core_0_LLC_demand_miss 6239
Core_0_LLC_demand_MPKI 0.12478
Core_0_LLC_demand_miss_rate 0.976675
Core_0_LLC_load_access 4889
Core_0_LLC_load_hit 149
Core_0_LLC_load_miss 4740
Core_0_LLC_load_MPKI 0.0948
Core_0_LLC_load_miss_rate 0.969523
Core_0_LLC_rfo_access 1499
Core_0_LLC_rfo_hit 0
Core_0_LLC_rfo_miss 1499
Core_0_LLC_rfo_MPKI 0.02998
Core_0_LLC_rfo_miss_rate 1
Core_0_LLC_prefetch_access 11703
Core_0_LLC_prefetch_hit 1002
Core_0_LLC_prefetch_miss 10701
Core_0_LLC_prefetch_MPKI 0.21402
Core_0_LLC_prefetch_miss_rate 0.914381
Core_0_LLC_writeback_access 3418
Core_0_LLC_writeback_hit 3407
Core_0_LLC_writeback_miss 11
Core_0_LLC_writeback_MPKI 0.00022
Core_0_LLC_writeback_miss_rate 0.00321826
Core_0_LLC_prefetch_requested 0
Core_0_LLC_prefetch_issued 0
Core_0_LLC_prefetch_useful 0
Core_0_LLC_prefetch_useless 0
Core_0_LLC_prefetch_late 0
Core_0_LLC_prefetch_accuracy 0
Core_0_LLC_prefetch_coverage 0

[DRAM Statistics]
Channel_0_RQ_row_buffer_hit 63
Channel_0_RQ_row_buffer_miss 16942
Channel_0_WQ_row_buffer_hit 3
Channel_0_WQ_row_buffer_miss 4
Channel_0_WQ_full 0
Channel_0_dbus_congested 16581
DRAM_total_RQ_row_buffer_hit 63
DRAM_total_RQ_row_buffer_miss 16942
DRAM_total_WQ_row_buffer_hit 3
DRAM_total_WQ_row_buffer_miss 4
DRAM_total_WQ_full 0
DRAM_total_dbus_congested 16581
DRAM_avg_congested_cycle 2.93776

======STLB miss causes ========
Core_0_STLB_miss_cause_breakdown
Core_0_STLB_cause_Demand_Data_miss 1055
Core_0_STLB_cause_Demand_Data_miss_rate 0.105426
Core_0_STLB_cause_Demand_Instruction_miss 0
Core_0_STLB_cause_Demand_Instruction_miss_rate 0
Core_0_STLB_cause_L1D_Prefetch_miss 0
Core_0_STLB_cause_L1D_Prefetch_miss_rate 0
Core_0_STLB_cause_L1I_Prefetch_miss 0
Core_0_STLB_cause_L1I_Prefetch_miss_rate 0
Core_0_STLB_cause_Other_miss 0
Core_0_STLB_cause_Other_miss_rate 0
Core_0_STLB_Demand_miss 1055
Core_0_STLB_Demand_miss_rate 0.105426
Core_0_STLB_L1D_Prefetch_miss 0
Core_0_STLB_L1D_Prefetch_miss_rate 0
Core_0_STLB_Other_miss 0
Core_0_STLB_Other_miss_rate 0
