[VMEM] WARNING: physical memory size is smaller than virtual memory size.

*** ChampSim Multicore Out-of-Order Simulator ***
Warmup Instructions: 20000000
Simulation Instructions: 50000000
Number of CPUs: 1
Page size: 4096
STLB ideal mode: l1pref
Core 0: /data0/tzh/champsim_traces/SPEC06/410.bwaves-2097B.champsimtrace.xz
 L1D Berti prefetcher
Off-chip DRAM Size: 4 GiB Channels: 1 Width: 64-bit Data Rate: 3205 MT/s
Warmup halting CPU 0 at instruction 20000003 cycle 5154285 for remainder of phase
Warmup finished CPU 0 instructions: 20000003 cycles: 5154285 cumulative IPC: 3.88 (Simulation time: 00 hr 01 min 17 sec)
Warmup complete CPU 0 instructions: 20000003 cycles: 5154285 cumulative IPC: 3.88 (Simulation time: 00 hr 01 min 17 sec)
Simulation finished CPU 0 instructions: 50000000 cycles: 21511592 cumulative IPC: 2.324 (Simulation time: 00 hr 05 min 08 sec)
Simulation complete CPU 0 instructions: 50000000 cycles: 21511592 cumulative IPC: 2.324 (Simulation time: 00 hr 05 min 08 sec)

ChampSim completed all CPUs

=== Simulation ===
CPU 0 runs /data0/tzh/champsim_traces/SPEC06/410.bwaves-2097B.champsimtrace.xz

Region of Interest Statistics

CPU 0 cumulative IPC: 2.324 instructions: 50000000 cycles: 21511592
CPU 0 Branch Prediction Accuracy: 83.76% MPKI: 4.529 Average ROB Occupancy at Mispredict: 210.8
Branch type MPKI
BRANCH_DIRECT_JUMP: 0
BRANCH_INDIRECT: 0
BRANCH_CONDITIONAL: 4.529
BRANCH_DIRECT_CALL: 0
BRANCH_INDIRECT_CALL: 0
BRANCH_RETURN: 0

cpu0->cpu0_STLB TOTAL        ACCESS:      51358 HIT:      38120 MISS:      13238 MSHR_MERGE:          0
cpu0->cpu0_STLB LOAD         ACCESS:      51358 HIT:      38120 MISS:      13238 MSHR_MERGE:          0
cpu0->cpu0_STLB RFO          ACCESS:          0 HIT:          0 MISS:          0 MSHR_MERGE:          0
cpu0->cpu0_STLB PREFETCH     ACCESS:          0 HIT:          0 MISS:          0 MSHR_MERGE:          0
cpu0->cpu0_STLB WRITE        ACCESS:          0 HIT:          0 MISS:          0 MSHR_MERGE:          0
cpu0->cpu0_STLB TRANSLATION  ACCESS:          0 HIT:          0 MISS:          0 MSHR_MERGE:          0
cpu0->cpu0_STLB PREFETCH REQUESTED:          0 ISSUED:          0 USEFUL:          0 USELESS:          0 LATE:          0
cpu0->cpu0_STLB AVERAGE MISS LATENCY: 244.3 cycles
cpu0->cpu0_L2C TOTAL        ACCESS:    4758023 HIT:    3103095 MISS:    1654928 MSHR_MERGE:     734836
cpu0->cpu0_L2C LOAD         ACCESS:     192782 HIT:     158394 MISS:      34388 MSHR_MERGE:      12463
cpu0->cpu0_L2C RFO          ACCESS:      23527 HIT:          0 MISS:      23527 MSHR_MERGE:          0
cpu0->cpu0_L2C PREFETCH     ACCESS:    4515844 HIT:    2920619 MISS:    1595225 MSHR_MERGE:     722373
cpu0->cpu0_L2C WRITE        ACCESS:      23520 HIT:      23520 MISS:          0 MSHR_MERGE:          0
cpu0->cpu0_L2C TRANSLATION  ACCESS:       2350 HIT:        562 MISS:       1788 MSHR_MERGE:          0
cpu0->cpu0_L2C PREFETCH REQUESTED:    4880530 ISSUED:    3764263 USEFUL:     814660 USELESS:      37432 LATE:      12463
cpu0->cpu0_L2C AVERAGE MISS LATENCY: 253.1 cycles
cpu0->cpu0_L1I TOTAL        ACCESS:     721957 HIT:     721957 MISS:          0 MSHR_MERGE:          0
cpu0->cpu0_L1I LOAD         ACCESS:     721957 HIT:     721957 MISS:          0 MSHR_MERGE:          0
cpu0->cpu0_L1I RFO          ACCESS:          0 HIT:          0 MISS:          0 MSHR_MERGE:          0
cpu0->cpu0_L1I PREFETCH     ACCESS:          0 HIT:          0 MISS:          0 MSHR_MERGE:          0
cpu0->cpu0_L1I WRITE        ACCESS:          0 HIT:          0 MISS:          0 MSHR_MERGE:          0
cpu0->cpu0_L1I TRANSLATION  ACCESS:          0 HIT:          0 MISS:          0 MSHR_MERGE:          0
cpu0->cpu0_L1I PREFETCH REQUESTED:          0 ISSUED:          0 USEFUL:          0 USELESS:          0 LATE:          0
cpu0->cpu0_L1I AVERAGE MISS LATENCY: - cycles
cpu0->cpu0_L1D TOTAL        ACCESS:   19171175 HIT:   18082164 MISS:    1089011 MSHR_MERGE:     118763
cpu0->cpu0_L1D LOAD         ACCESS:   14551417 HIT:   14345089 MISS:     206328 MSHR_MERGE:      13546
cpu0->cpu0_L1D RFO          ACCESS:          0 HIT:          0 MISS:          0 MSHR_MERGE:          0
cpu0->cpu0_L1D PREFETCH     ACCESS:     849546 HIT:      92032 MISS:     757514 MSHR_MERGE:       5925
cpu0->cpu0_L1D WRITE        ACCESS:    3743708 HIT:    3620889 MISS:     122819 MSHR_MERGE:      99292
cpu0->cpu0_L1D TRANSLATION  ACCESS:      26504 HIT:      24154 MISS:       2350 MSHR_MERGE:          0
cpu0->cpu0_L1D PREFETCH REQUESTED:     980296 ISSUED:     849544 USEFUL:     748310 USELESS:       3261 LATE:       4611
cpu0->cpu0_L1D AVERAGE MISS LATENCY: 77.98 cycles
cpu0->cpu0_ITLB TOTAL        ACCESS:     531391 HIT:     531391 MISS:          0 MSHR_MERGE:          0
cpu0->cpu0_ITLB LOAD         ACCESS:     531391 HIT:     531391 MISS:          0 MSHR_MERGE:          0
cpu0->cpu0_ITLB RFO          ACCESS:          0 HIT:          0 MISS:          0 MSHR_MERGE:          0
cpu0->cpu0_ITLB PREFETCH     ACCESS:          0 HIT:          0 MISS:          0 MSHR_MERGE:          0
cpu0->cpu0_ITLB WRITE        ACCESS:          0 HIT:          0 MISS:          0 MSHR_MERGE:          0
cpu0->cpu0_ITLB TRANSLATION  ACCESS:          0 HIT:          0 MISS:          0 MSHR_MERGE:          0
cpu0->cpu0_ITLB PREFETCH REQUESTED:          0 ISSUED:          0 USEFUL:          0 USELESS:          0 LATE:          0
cpu0->cpu0_ITLB AVERAGE MISS LATENCY: - cycles
cpu0->cpu0_DTLB TOTAL        ACCESS:   17988630 HIT:   17918391 MISS:      70239 MSHR_MERGE:      18881
cpu0->cpu0_DTLB LOAD         ACCESS:   17988630 HIT:   17918391 MISS:      70239 MSHR_MERGE:      18881
cpu0->cpu0_DTLB RFO          ACCESS:          0 HIT:          0 MISS:          0 MSHR_MERGE:          0
cpu0->cpu0_DTLB PREFETCH     ACCESS:          0 HIT:          0 MISS:          0 MSHR_MERGE:          0
cpu0->cpu0_DTLB WRITE        ACCESS:          0 HIT:          0 MISS:          0 MSHR_MERGE:          0
cpu0->cpu0_DTLB TRANSLATION  ACCESS:          0 HIT:          0 MISS:          0 MSHR_MERGE:          0
cpu0->cpu0_DTLB PREFETCH REQUESTED:          0 ISSUED:          0 USEFUL:          0 USELESS:          0 LATE:          0
cpu0->cpu0_DTLB AVERAGE MISS LATENCY: 68.24 cycles
cpu0->LLC TOTAL        ACCESS:     943574 HIT:       5987 MISS:     937587 MSHR_MERGE:          0
cpu0->LLC LOAD         ACCESS:      21925 HIT:         10 MISS:      21915 MSHR_MERGE:          0
cpu0->LLC RFO          ACCESS:      23527 HIT:          0 MISS:      23527 MSHR_MERGE:          0
cpu0->LLC PREFETCH     ACCESS:     872852 HIT:       2273 MISS:     870579 MSHR_MERGE:          0
cpu0->LLC WRITE        ACCESS:      23482 HIT:       3696 MISS:      19786 MSHR_MERGE:          0
cpu0->LLC TRANSLATION  ACCESS:       1788 HIT:          8 MISS:       1780 MSHR_MERGE:          0
cpu0->LLC PREFETCH REQUESTED:          0 ISSUED:          0 USEFUL:          0 USELESS:          0 LATE:          0
cpu0->LLC AVERAGE MISS LATENCY: 177.5 cycles

DRAM Statistics

Channel 0 RQ ROW_BUFFER_HIT:         79
  ROW_BUFFER_MISS:     917717
  AVG DBUS CONGESTED CYCLE: 3.688
Channel 0 WQ ROW_BUFFER_HIT:       4801
  ROW_BUFFER_MISS:      13924
  FULL:          0
Channel 0 REFRESHES ISSUED:       1793

[ROI Statistics]
[System Configuration]
num_cpus 1
cpu_freq 4000
fetch_width 6
decode_width 6
dispatch_width 6
execute_width 6
lq_width 2
sq_width 2
retire_width 6
scheduler_size 160
branch_mispredict_penalty 1
rob_size 352
lq_size 240
sq_size 112
ifetch_buffer_size 64
decode_buffer_size 32
dispatch_buffer_size 32
register_file_size 288
decode_latency 1
dispatch_latency 1
schedule_latency 0
execute_latency 0
page_size 4096
block_size 64
core_0_itlb_set 16
core_0_itlb_way 4
core_0_itlb_rq_size 16
core_0_itlb_wq_size 16
core_0_itlb_pq_size 0
core_0_itlb_mshr_size 8
core_0_itlb_hit_latency 1
core_0_itlb_fill_latency 1
core_0_itlb_max_tag_check 2
core_0_itlb_max_fill 2
core_0_dtlb_set 16
core_0_dtlb_way 4
core_0_dtlb_rq_size 16
core_0_dtlb_wq_size 16
core_0_dtlb_pq_size 0
core_0_dtlb_mshr_size 8
core_0_dtlb_hit_latency 1
core_0_dtlb_fill_latency 1
core_0_dtlb_max_tag_check 2
core_0_dtlb_max_fill 2
core_0_stlb_set 128
core_0_stlb_way 12
core_0_stlb_rq_size 32
core_0_stlb_wq_size 32
core_0_stlb_pq_size 0
core_0_stlb_mshr_size 16
core_0_stlb_hit_latency 4
core_0_stlb_fill_latency 4
core_0_stlb_max_tag_check 1
core_0_stlb_max_fill 1
core_0_l1i_set 64
core_0_l1i_way 8
core_0_l1i_rq_size 64
core_0_l1i_wq_size 64
core_0_l1i_pq_size 32
core_0_l1i_mshr_size 8
core_0_l1i_hit_latency 2
core_0_l1i_fill_latency 2
core_0_l1i_max_tag_check 2
core_0_l1i_max_fill 2
core_0_l1d_set 64
core_0_l1d_way 12
core_0_l1d_rq_size 64
core_0_l1d_wq_size 64
core_0_l1d_pq_size 8
core_0_l1d_mshr_size 16
core_0_l1d_hit_latency 2
core_0_l1d_fill_latency 3
core_0_l1d_max_tag_check 2
core_0_l1d_max_fill 2
core_0_l2c_set 1024
core_0_l2c_way 8
core_0_l2c_rq_size 32
core_0_l2c_wq_size 32
core_0_l2c_pq_size 16
core_0_l2c_mshr_size 32
core_0_l2c_hit_latency 5
core_0_l2c_fill_latency 5
core_0_l2c_max_tag_check 1
core_0_l2c_max_fill 1
llc_set 2048
llc_way 16
llc_rq_size 32
llc_wq_size 32
llc_pq_size 32
llc_mshr_size 64
llc_hit_latency 10
llc_fill_latency 10
llc_max_tag_check 1
llc_max_fill 1
dram_channels 1
dram_ranks 1
dram_bankgroups 8
dram_banks 4
dram_rows 16384
dram_columns 1024
dram_channel_width 8
dram_rq_size 64
dram_wq_size 64
dram_size 4294967296
core_0_itlb_prefetcher no
core_0_dtlb_prefetcher no
core_0_stlb_prefetcher no
core_0_l1i_prefetcher next_line
core_0_l1d_prefetcher berti
core_0_l2c_prefetcher pythia
llc_prefetcher no
llc_replacement drrip

Core_0_instructions 50000000
Core_0_cycles 21511592
Core_0_IPC 2.32433
Core_0_branch_prediction_accuracy 83.7553
Core_0_branch_MPKI 4.52892
Core_0_average_ROB_occupancy_at_mispredict 210.777

Core_0_ITLB_total_access 531391
Core_0_ITLB_total_hit 531391
Core_0_ITLB_total_miss 0
Core_0_ITLB_total_MPKI 0
Core_0_ITLB_total_miss_rate 0
Core_0_ITLB_demand_access 531391
Core_0_ITLB_demand_hit 531391
Core_0_ITLB_demand_miss 0
Core_0_ITLB_demand_MPKI 0
Core_0_ITLB_demand_miss_rate 0
Core_0_ITLB_load_access 531391
Core_0_ITLB_load_hit 531391
Core_0_ITLB_load_miss 0
Core_0_ITLB_load_MPKI 0
Core_0_ITLB_load_miss_rate 0
Core_0_ITLB_rfo_access 0
Core_0_ITLB_rfo_hit 0
Core_0_ITLB_rfo_miss 0
Core_0_ITLB_rfo_MPKI 0
Core_0_ITLB_rfo_miss_rate 0
Core_0_ITLB_prefetch_access 0
Core_0_ITLB_prefetch_hit 0
Core_0_ITLB_prefetch_miss 0
Core_0_ITLB_prefetch_MPKI 0
Core_0_ITLB_prefetch_miss_rate 0
Core_0_ITLB_writeback_access 0
Core_0_ITLB_writeback_hit 0
Core_0_ITLB_writeback_miss 0
Core_0_ITLB_writeback_MPKI 0
Core_0_ITLB_writeback_miss_rate 0
Core_0_ITLB_prefetch_requested 0
Core_0_ITLB_prefetch_issued 0
Core_0_ITLB_prefetch_useful 0
Core_0_ITLB_prefetch_useless 0
Core_0_ITLB_prefetch_late 0
Core_0_ITLB_prefetch_accuracy 0
Core_0_ITLB_prefetch_coverage 0

Core_0_DTLB_total_access 17988630
Core_0_DTLB_total_hit 17918391
Core_0_DTLB_total_miss 70239
Core_0_DTLB_total_MPKI 1.40478
Core_0_DTLB_total_miss_rate 0.00390463
Core_0_DTLB_demand_access 17988630
Core_0_DTLB_demand_hit 17918391
Core_0_DTLB_demand_miss 70239
Core_0_DTLB_demand_MPKI 1.40478
Core_0_DTLB_demand_miss_rate 0.00390463
Core_0_DTLB_load_access 17988630
Core_0_DTLB_load_hit 17918391
Core_0_DTLB_load_miss 70239
Core_0_DTLB_load_MPKI 1.40478
Core_0_DTLB_load_miss_rate 0.00390463
Core_0_DTLB_rfo_access 0
Core_0_DTLB_rfo_hit 0
Core_0_DTLB_rfo_miss 0
Core_0_DTLB_rfo_MPKI 0
Core_0_DTLB_rfo_miss_rate 0
Core_0_DTLB_prefetch_access 0
Core_0_DTLB_prefetch_hit 0
Core_0_DTLB_prefetch_miss 0
Core_0_DTLB_prefetch_MPKI 0
Core_0_DTLB_prefetch_miss_rate 0
Core_0_DTLB_writeback_access 0
Core_0_DTLB_writeback_hit 0
Core_0_DTLB_writeback_miss 0
Core_0_DTLB_writeback_MPKI 0
Core_0_DTLB_writeback_miss_rate 0
Core_0_DTLB_prefetch_requested 0
Core_0_DTLB_prefetch_issued 0
Core_0_DTLB_prefetch_useful 0
Core_0_DTLB_prefetch_useless 0
Core_0_DTLB_prefetch_late 0
Core_0_DTLB_prefetch_accuracy 0
Core_0_DTLB_prefetch_coverage 0

Core_0_STLB_total_access 51358
Core_0_STLB_total_hit 38120
Core_0_STLB_total_miss 13238
Core_0_STLB_total_MPKI 0.26476
Core_0_STLB_total_miss_rate 0.257759
Core_0_STLB_demand_access 51358
Core_0_STLB_demand_hit 38120
Core_0_STLB_demand_miss 13238
Core_0_STLB_demand_MPKI 0.26476
Core_0_STLB_demand_miss_rate 0.257759
Core_0_STLB_load_access 51358
Core_0_STLB_load_hit 38120
Core_0_STLB_load_miss 13238
Core_0_STLB_load_MPKI 0.26476
Core_0_STLB_load_miss_rate 0.257759
Core_0_STLB_rfo_access 0
Core_0_STLB_rfo_hit 0
Core_0_STLB_rfo_miss 0
Core_0_STLB_rfo_MPKI 0
Core_0_STLB_rfo_miss_rate 0
Core_0_STLB_prefetch_access 0
Core_0_STLB_prefetch_hit 0
Core_0_STLB_prefetch_miss 0
Core_0_STLB_prefetch_MPKI 0
Core_0_STLB_prefetch_miss_rate 0
Core_0_STLB_writeback_access 0
Core_0_STLB_writeback_hit 0
Core_0_STLB_writeback_miss 0
Core_0_STLB_writeback_MPKI 0
Core_0_STLB_writeback_miss_rate 0
Core_0_STLB_prefetch_requested 0
Core_0_STLB_prefetch_issued 0
Core_0_STLB_prefetch_useful 0
Core_0_STLB_prefetch_useless 0
Core_0_STLB_prefetch_late 0
Core_0_STLB_prefetch_accuracy 0
Core_0_STLB_prefetch_coverage 0

Core_0_L1I_total_access 721957
Core_0_L1I_total_hit 721957
Core_0_L1I_total_miss 0
Core_0_L1I_total_MPKI 0
Core_0_L1I_total_miss_rate 0
Core_0_L1I_demand_access 721957
Core_0_L1I_demand_hit 721957
Core_0_L1I_demand_miss 0
Core_0_L1I_demand_MPKI 0
Core_0_L1I_demand_miss_rate 0
Core_0_L1I_load_access 721957
Core_0_L1I_load_hit 721957
Core_0_L1I_load_miss 0
Core_0_L1I_load_MPKI 0
Core_0_L1I_load_miss_rate 0
Core_0_L1I_rfo_access 0
Core_0_L1I_rfo_hit 0
Core_0_L1I_rfo_miss 0
Core_0_L1I_rfo_MPKI 0
Core_0_L1I_rfo_miss_rate 0
Core_0_L1I_prefetch_access 0
Core_0_L1I_prefetch_hit 0
Core_0_L1I_prefetch_miss 0
Core_0_L1I_prefetch_MPKI 0
Core_0_L1I_prefetch_miss_rate 0
Core_0_L1I_writeback_access 0
Core_0_L1I_writeback_hit 0
Core_0_L1I_writeback_miss 0
Core_0_L1I_writeback_MPKI 0
Core_0_L1I_writeback_miss_rate 0
Core_0_L1I_prefetch_requested 0
Core_0_L1I_prefetch_issued 0
Core_0_L1I_prefetch_useful 0
Core_0_L1I_prefetch_useless 0
Core_0_L1I_prefetch_late 0
Core_0_L1I_prefetch_accuracy 0
Core_0_L1I_prefetch_coverage 0

Core_0_L1D_total_access 19144671
Core_0_L1D_total_hit 18058010
Core_0_L1D_total_miss 1086661
Core_0_L1D_total_MPKI 21.7332
Core_0_L1D_total_miss_rate 0.0567605
Core_0_L1D_demand_access 14551417
Core_0_L1D_demand_hit 14345089
Core_0_L1D_demand_miss 206328
Core_0_L1D_demand_MPKI 4.12656
Core_0_L1D_demand_miss_rate 0.0141792
Core_0_L1D_load_access 14551417
Core_0_L1D_load_hit 14345089
Core_0_L1D_load_miss 206328
Core_0_L1D_load_MPKI 4.12656
Core_0_L1D_load_miss_rate 0.0141792
Core_0_L1D_rfo_access 0
Core_0_L1D_rfo_hit 0
Core_0_L1D_rfo_miss 0
Core_0_L1D_rfo_MPKI 0
Core_0_L1D_rfo_miss_rate 0
Core_0_L1D_prefetch_access 849546
Core_0_L1D_prefetch_hit 92032
Core_0_L1D_prefetch_miss 757514
Core_0_L1D_prefetch_MPKI 15.1503
Core_0_L1D_prefetch_miss_rate 0.891669
Core_0_L1D_writeback_access 3743708
Core_0_L1D_writeback_hit 3620889
Core_0_L1D_writeback_miss 122819
Core_0_L1D_writeback_MPKI 2.45638
Core_0_L1D_writeback_miss_rate 0.0328068
Core_0_L1D_prefetch_requested 980296
Core_0_L1D_prefetch_issued 849544
Core_0_L1D_prefetch_useful 748310
Core_0_L1D_prefetch_useless 3261
Core_0_L1D_prefetch_late 4611
Core_0_L1D_prefetch_accuracy 0.880837
Core_0_L1D_prefetch_coverage 0.783868

Core_0_L2C_total_access 4755673
Core_0_L2C_total_hit 3102533
Core_0_L2C_total_miss 1653140
Core_0_L2C_total_MPKI 33.0628
Core_0_L2C_total_miss_rate 0.347614
Core_0_L2C_demand_access 216309
Core_0_L2C_demand_hit 158394
Core_0_L2C_demand_miss 57915
Core_0_L2C_demand_MPKI 1.1583
Core_0_L2C_demand_miss_rate 0.267742
Core_0_L2C_load_access 192782
Core_0_L2C_load_hit 158394
Core_0_L2C_load_miss 34388
Core_0_L2C_load_MPKI 0.68776
Core_0_L2C_load_miss_rate 0.178378
Core_0_L2C_rfo_access 23527
Core_0_L2C_rfo_hit 0
Core_0_L2C_rfo_miss 23527
Core_0_L2C_rfo_MPKI 0.47054
Core_0_L2C_rfo_miss_rate 1
Core_0_L2C_prefetch_access 4515844
Core_0_L2C_prefetch_hit 2920619
Core_0_L2C_prefetch_miss 1595225
Core_0_L2C_prefetch_MPKI 31.9045
Core_0_L2C_prefetch_miss_rate 0.353251
Core_0_L2C_writeback_access 23520
Core_0_L2C_writeback_hit 23520
Core_0_L2C_writeback_miss 0
Core_0_L2C_writeback_MPKI 0
Core_0_L2C_writeback_miss_rate 0
Core_0_L2C_prefetch_requested 4880530
Core_0_L2C_prefetch_issued 3764263
Core_0_L2C_prefetch_useful 814660
Core_0_L2C_prefetch_useless 37432
Core_0_L2C_prefetch_late 12463
Core_0_L2C_prefetch_accuracy 0.21642
Core_0_L2C_prefetch_coverage 0.933627

Core_0_LLC_total_access 941786
Core_0_LLC_total_hit 5979
Core_0_LLC_total_miss 935807
Core_0_LLC_total_MPKI 18.7161
Core_0_LLC_total_miss_rate 0.993651
Core_0_LLC_demand_access 45452
Core_0_LLC_demand_hit 10
Core_0_LLC_demand_miss 45442
Core_0_LLC_demand_MPKI 0.90884
Core_0_LLC_demand_miss_rate 0.99978
Core_0_LLC_load_access 21925
Core_0_LLC_load_hit 10
Core_0_LLC_load_miss 21915
Core_0_LLC_load_MPKI 0.4383
Core_0_LLC_load_miss_rate 0.999544
Core_0_LLC_rfo_access 23527
Core_0_LLC_rfo_hit 0
Core_0_LLC_rfo_miss 23527
Core_0_LLC_rfo_MPKI 0.47054
Core_0_LLC_rfo_miss_rate 1
Core_0_LLC_prefetch_access 872852
Core_0_LLC_prefetch_hit 2273
Core_0_LLC_prefetch_miss 870579
Core_0_LLC_prefetch_MPKI 17.4116
Core_0_LLC_prefetch_miss_rate 0.997396
Core_0_LLC_writeback_access 23482
Core_0_LLC_writeback_hit 3696
Core_0_LLC_writeback_miss 19786
Core_0_LLC_writeback_MPKI 0.39572
Core_0_LLC_writeback_miss_rate 0.842603
Core_0_LLC_prefetch_requested 0
Core_0_LLC_prefetch_issued 0
Core_0_LLC_prefetch_useful 0
Core_0_LLC_prefetch_useless 0
Core_0_LLC_prefetch_late 0
Core_0_LLC_prefetch_accuracy 0
Core_0_LLC_prefetch_coverage 0

[DRAM Statistics]
Channel_0_RQ_row_buffer_hit 79
Channel_0_RQ_row_buffer_miss 917717
Channel_0_WQ_row_buffer_hit 4801
Channel_0_WQ_row_buffer_miss 13924
Channel_0_WQ_full 0
Channel_0_dbus_congested 1863702
DRAM_total_RQ_row_buffer_hit 79
DRAM_total_RQ_row_buffer_miss 917717
DRAM_total_WQ_row_buffer_hit 4801
DRAM_total_WQ_row_buffer_miss 13924
DRAM_total_WQ_full 0
DRAM_total_dbus_congested 1863702
DRAM_avg_congested_cycle 3.68804

======STLB miss causes ========
Core_0_STLB_miss_cause_breakdown
Core_0_STLB_cause_Demand_Data_miss 13238
Core_0_STLB_cause_Demand_Data_miss_rate 0.257759
Core_0_STLB_cause_Demand_Instruction_miss 0
Core_0_STLB_cause_Demand_Instruction_miss_rate 0
Core_0_STLB_cause_L1D_Prefetch_miss 0
Core_0_STLB_cause_L1D_Prefetch_miss_rate 0
Core_0_STLB_cause_L1I_Prefetch_miss 0
Core_0_STLB_cause_L1I_Prefetch_miss_rate 0
Core_0_STLB_cause_Other_miss 0
Core_0_STLB_cause_Other_miss_rate 0
Core_0_STLB_Demand_miss 13238
Core_0_STLB_Demand_miss_rate 0.257759
Core_0_STLB_L1D_Prefetch_miss 0
Core_0_STLB_L1D_Prefetch_miss_rate 0
Core_0_STLB_Other_miss 0
Core_0_STLB_Other_miss_rate 0
