[VMEM] WARNING: physical memory size is smaller than virtual memory size.

*** ChampSim Multicore Out-of-Order Simulator ***
Warmup Instructions: 20000000
Simulation Instructions: 50000000
Number of CPUs: 1
Page size: 4096
STLB ideal mode: l1pref
Core 0: /data0/tzh/champsim_traces/SPEC06/433.milc-127B.champsimtrace.xz
 L1D Berti prefetcher
Off-chip DRAM Size: 4 GiB Channels: 1 Width: 64-bit Data Rate: 3205 MT/s
Warmup halting CPU 0 at instruction 20000001 cycle 10938023 for remainder of phase
Warmup finished CPU 0 instructions: 20000001 cycles: 10938023 cumulative IPC: 1.828 (Simulation time: 00 hr 01 min 57 sec)
Warmup complete CPU 0 instructions: 20000001 cycles: 10938023 cumulative IPC: 1.828 (Simulation time: 00 hr 01 min 57 sec)
Simulation finished CPU 0 instructions: 50000003 cycles: 44252461 cumulative IPC: 1.13 (Simulation time: 00 hr 07 min 45 sec)
Simulation complete CPU 0 instructions: 50000003 cycles: 44252461 cumulative IPC: 1.13 (Simulation time: 00 hr 07 min 45 sec)

ChampSim completed all CPUs

=== Simulation ===
CPU 0 runs /data0/tzh/champsim_traces/SPEC06/433.milc-127B.champsimtrace.xz

Region of Interest Statistics

CPU 0 cumulative IPC: 1.13 instructions: 50000003 cycles: 44252461
CPU 0 Branch Prediction Accuracy: 78.76% MPKI: 16.44 Average ROB Occupancy at Mispredict: 51.65
Branch type MPKI
BRANCH_DIRECT_JUMP: 0.00012
BRANCH_INDIRECT: 0
BRANCH_CONDITIONAL: 14.32
BRANCH_DIRECT_CALL: 0.00016
BRANCH_INDIRECT_CALL: 0
BRANCH_RETURN: 2.12

cpu0->cpu0_STLB TOTAL        ACCESS:      59835 HIT:       2452 MISS:      57383 MSHR_MERGE:          0
cpu0->cpu0_STLB LOAD         ACCESS:      59835 HIT:       2452 MISS:      57383 MSHR_MERGE:          0
cpu0->cpu0_STLB RFO          ACCESS:          0 HIT:          0 MISS:          0 MSHR_MERGE:          0
cpu0->cpu0_STLB PREFETCH     ACCESS:          0 HIT:          0 MISS:          0 MSHR_MERGE:          0
cpu0->cpu0_STLB WRITE        ACCESS:          0 HIT:          0 MISS:          0 MSHR_MERGE:          0
cpu0->cpu0_STLB TRANSLATION  ACCESS:          0 HIT:          0 MISS:          0 MSHR_MERGE:          0
cpu0->cpu0_STLB PREFETCH REQUESTED:          0 ISSUED:          0 USEFUL:          0 USELESS:          0 LATE:          0
cpu0->cpu0_STLB AVERAGE MISS LATENCY: 94.28 cycles
cpu0->cpu0_L2C TOTAL        ACCESS:    2906136 HIT:    1318256 MISS:    1587880 MSHR_MERGE:     720358
cpu0->cpu0_L2C LOAD         ACCESS:     188302 HIT:      11066 MISS:     177236 MSHR_MERGE:      11106
cpu0->cpu0_L2C RFO          ACCESS:     130002 HIT:          0 MISS:     130002 MSHR_MERGE:          0
cpu0->cpu0_L2C PREFETCH     ACCESS:    2237913 HIT:     964628 MISS:    1273285 MSHR_MERGE:     709252
cpu0->cpu0_L2C WRITE        ACCESS:     342456 HIT:     342442 MISS:         14 MSHR_MERGE:          0
cpu0->cpu0_L2C TRANSLATION  ACCESS:       7463 HIT:        120 MISS:       7343 MSHR_MERGE:          0
cpu0->cpu0_L2C PREFETCH REQUESTED:    1829059 ISSUED:    1803998 USEFUL:     284632 USELESS:     214876 LATE:      11106
cpu0->cpu0_L2C AVERAGE MISS LATENCY: 328.2 cycles
cpu0->cpu0_L1I TOTAL        ACCESS:     833700 HIT:     833649 MISS:         51 MSHR_MERGE:          9
cpu0->cpu0_L1I LOAD         ACCESS:     833700 HIT:     833649 MISS:         51 MSHR_MERGE:          9
cpu0->cpu0_L1I RFO          ACCESS:          0 HIT:          0 MISS:          0 MSHR_MERGE:          0
cpu0->cpu0_L1I PREFETCH     ACCESS:          0 HIT:          0 MISS:          0 MSHR_MERGE:          0
cpu0->cpu0_L1I WRITE        ACCESS:          0 HIT:          0 MISS:          0 MSHR_MERGE:          0
cpu0->cpu0_L1I TRANSLATION  ACCESS:          0 HIT:          0 MISS:          0 MSHR_MERGE:          0
cpu0->cpu0_L1I PREFETCH REQUESTED:          0 ISSUED:          0 USEFUL:          0 USELESS:          0 LATE:          0
cpu0->cpu0_L1I AVERAGE MISS LATENCY: 243.6 cycles
cpu0->cpu0_L1D TOTAL        ACCESS:   17954030 HIT:   15791813 MISS:    2162217 MSHR_MERGE:    1402579
cpu0->cpu0_L1D LOAD         ACCESS:    9010153 HIT:    8431392 MISS:     578761 MSHR_MERGE:     390501
cpu0->cpu0_L1D RFO          ACCESS:          0 HIT:          0 MISS:          0 MSHR_MERGE:          0
cpu0->cpu0_L1D PREFETCH     ACCESS:     568206 HIT:      21396 MISS:     546810 MSHR_MERGE:     112897
cpu0->cpu0_L1D WRITE        ACCESS:    8260788 HIT:    7231605 MISS:    1029183 MSHR_MERGE:     899181
cpu0->cpu0_L1D TRANSLATION  ACCESS:     114883 HIT:     107420 MISS:       7463 MSHR_MERGE:          0
cpu0->cpu0_L1D PREFETCH REQUESTED:     573088 ISSUED:     568198 USEFUL:     433749 USELESS:        158 LATE:      36530
cpu0->cpu0_L1D AVERAGE MISS LATENCY: 320.1 cycles
cpu0->cpu0_ITLB TOTAL        ACCESS:     687415 HIT:     687407 MISS:          8 MSHR_MERGE:          4
cpu0->cpu0_ITLB LOAD         ACCESS:     687415 HIT:     687407 MISS:          8 MSHR_MERGE:          4
cpu0->cpu0_ITLB RFO          ACCESS:          0 HIT:          0 MISS:          0 MSHR_MERGE:          0
cpu0->cpu0_ITLB PREFETCH     ACCESS:          0 HIT:          0 MISS:          0 MSHR_MERGE:          0
cpu0->cpu0_ITLB WRITE        ACCESS:          0 HIT:          0 MISS:          0 MSHR_MERGE:          0
cpu0->cpu0_ITLB TRANSLATION  ACCESS:          0 HIT:          0 MISS:          0 MSHR_MERGE:          0
cpu0->cpu0_ITLB PREFETCH REQUESTED:          0 ISSUED:          0 USEFUL:          0 USELESS:          0 LATE:          0
cpu0->cpu0_ITLB AVERAGE MISS LATENCY: 494 cycles
cpu0->cpu0_DTLB TOTAL        ACCESS:   16372761 HIT:   15948649 MISS:     424112 MSHR_MERGE:     364281
cpu0->cpu0_DTLB LOAD         ACCESS:   16372761 HIT:   15948649 MISS:     424112 MSHR_MERGE:     364281
cpu0->cpu0_DTLB RFO          ACCESS:          0 HIT:          0 MISS:          0 MSHR_MERGE:          0
cpu0->cpu0_DTLB PREFETCH     ACCESS:          0 HIT:          0 MISS:          0 MSHR_MERGE:          0
cpu0->cpu0_DTLB WRITE        ACCESS:          0 HIT:          0 MISS:          0 MSHR_MERGE:          0
cpu0->cpu0_DTLB TRANSLATION  ACCESS:          0 HIT:          0 MISS:          0 MSHR_MERGE:          0
cpu0->cpu0_DTLB PREFETCH REQUESTED:          0 ISSUED:          0 USEFUL:          0 USELESS:          0 LATE:          0
cpu0->cpu0_DTLB AVERAGE MISS LATENCY: 96.35 cycles
cpu0->LLC TOTAL        ACCESS:    1214483 HIT:      93295 MISS:    1121188 MSHR_MERGE:          0
cpu0->LLC LOAD         ACCESS:     166130 HIT:         88 MISS:     166042 MSHR_MERGE:          0
cpu0->LLC RFO          ACCESS:     130002 HIT:          0 MISS:     130002 MSHR_MERGE:          0
cpu0->LLC PREFETCH     ACCESS:     564032 HIT:       2954 MISS:     561078 MSHR_MERGE:          0
cpu0->LLC WRITE        ACCESS:     346976 HIT:      90250 MISS:     256726 MSHR_MERGE:          0
cpu0->LLC TRANSLATION  ACCESS:       7343 HIT:          3 MISS:       7340 MSHR_MERGE:          0
cpu0->LLC PREFETCH REQUESTED:          0 ISSUED:          0 USEFUL:          0 USELESS:          0 LATE:          0
cpu0->LLC AVERAGE MISS LATENCY: 172.9 cycles

DRAM Statistics

Channel 0 RQ ROW_BUFFER_HIT:     171912
  ROW_BUFFER_MISS:     692534
  AVG DBUS CONGESTED CYCLE: 7.73
Channel 0 WQ ROW_BUFFER_HIT:      81094
  ROW_BUFFER_MISS:     260574
  FULL:          0
Channel 0 REFRESHES ISSUED:       3688

[ROI Statistics]
[System Configuration]
num_cpus 1
cpu_freq 4000
fetch_width 6
decode_width 6
dispatch_width 6
execute_width 6
lq_width 2
sq_width 2
retire_width 6
scheduler_size 160
branch_mispredict_penalty 1
rob_size 352
lq_size 240
sq_size 112
ifetch_buffer_size 64
decode_buffer_size 32
dispatch_buffer_size 32
register_file_size 288
decode_latency 1
dispatch_latency 1
schedule_latency 0
execute_latency 0
page_size 4096
block_size 64
core_0_itlb_set 16
core_0_itlb_way 4
core_0_itlb_rq_size 16
core_0_itlb_wq_size 16
core_0_itlb_pq_size 0
core_0_itlb_mshr_size 8
core_0_itlb_hit_latency 1
core_0_itlb_fill_latency 1
core_0_itlb_max_tag_check 2
core_0_itlb_max_fill 2
core_0_dtlb_set 16
core_0_dtlb_way 4
core_0_dtlb_rq_size 16
core_0_dtlb_wq_size 16
core_0_dtlb_pq_size 0
core_0_dtlb_mshr_size 8
core_0_dtlb_hit_latency 1
core_0_dtlb_fill_latency 1
core_0_dtlb_max_tag_check 2
core_0_dtlb_max_fill 2
core_0_stlb_set 128
core_0_stlb_way 12
core_0_stlb_rq_size 32
core_0_stlb_wq_size 32
core_0_stlb_pq_size 0
core_0_stlb_mshr_size 16
core_0_stlb_hit_latency 4
core_0_stlb_fill_latency 4
core_0_stlb_max_tag_check 1
core_0_stlb_max_fill 1
core_0_l1i_set 64
core_0_l1i_way 8
core_0_l1i_rq_size 64
core_0_l1i_wq_size 64
core_0_l1i_pq_size 32
core_0_l1i_mshr_size 8
core_0_l1i_hit_latency 2
core_0_l1i_fill_latency 2
core_0_l1i_max_tag_check 2
core_0_l1i_max_fill 2
core_0_l1d_set 64
core_0_l1d_way 12
core_0_l1d_rq_size 64
core_0_l1d_wq_size 64
core_0_l1d_pq_size 8
core_0_l1d_mshr_size 16
core_0_l1d_hit_latency 2
core_0_l1d_fill_latency 3
core_0_l1d_max_tag_check 2
core_0_l1d_max_fill 2
core_0_l2c_set 1024
core_0_l2c_way 8
core_0_l2c_rq_size 32
core_0_l2c_wq_size 32
core_0_l2c_pq_size 16
core_0_l2c_mshr_size 32
core_0_l2c_hit_latency 5
core_0_l2c_fill_latency 5
core_0_l2c_max_tag_check 1
core_0_l2c_max_fill 1
llc_set 2048
llc_way 16
llc_rq_size 32
llc_wq_size 32
llc_pq_size 32
llc_mshr_size 64
llc_hit_latency 10
llc_fill_latency 10
llc_max_tag_check 1
llc_max_fill 1
dram_channels 1
dram_ranks 1
dram_bankgroups 8
dram_banks 4
dram_rows 16384
dram_columns 1024
dram_channel_width 8
dram_rq_size 64
dram_wq_size 64
dram_size 4294967296
core_0_itlb_prefetcher no
core_0_dtlb_prefetcher no
core_0_stlb_prefetcher no
core_0_l1i_prefetcher next_line
core_0_l1d_prefetcher berti
core_0_l2c_prefetcher pythia
llc_prefetcher no
llc_replacement drrip

Core_0_instructions 50000003
Core_0_cycles 44252461
Core_0_IPC 1.12988
Core_0_branch_prediction_accuracy 78.7572
Core_0_branch_MPKI 16.4413
Core_0_average_ROB_occupancy_at_mispredict 51.6546

Core_0_ITLB_total_access 687415
Core_0_ITLB_total_hit 687407
Core_0_ITLB_total_miss 8
Core_0_ITLB_total_MPKI 0.00016
Core_0_ITLB_total_miss_rate 1.16378e-05
Core_0_ITLB_demand_access 687415
Core_0_ITLB_demand_hit 687407
Core_0_ITLB_demand_miss 8
Core_0_ITLB_demand_MPKI 0.00016
Core_0_ITLB_demand_miss_rate 1.16378e-05
Core_0_ITLB_load_access 687415
Core_0_ITLB_load_hit 687407
Core_0_ITLB_load_miss 8
Core_0_ITLB_load_MPKI 0.00016
Core_0_ITLB_load_miss_rate 1.16378e-05
Core_0_ITLB_rfo_access 0
Core_0_ITLB_rfo_hit 0
Core_0_ITLB_rfo_miss 0
Core_0_ITLB_rfo_MPKI 0
Core_0_ITLB_rfo_miss_rate 0
Core_0_ITLB_prefetch_access 0
Core_0_ITLB_prefetch_hit 0
Core_0_ITLB_prefetch_miss 0
Core_0_ITLB_prefetch_MPKI 0
Core_0_ITLB_prefetch_miss_rate 0
Core_0_ITLB_writeback_access 0
Core_0_ITLB_writeback_hit 0
Core_0_ITLB_writeback_miss 0
Core_0_ITLB_writeback_MPKI 0
Core_0_ITLB_writeback_miss_rate 0
Core_0_ITLB_prefetch_requested 0
Core_0_ITLB_prefetch_issued 0
Core_0_ITLB_prefetch_useful 0
Core_0_ITLB_prefetch_useless 0
Core_0_ITLB_prefetch_late 0
Core_0_ITLB_prefetch_accuracy 0
Core_0_ITLB_prefetch_coverage 0

Core_0_DTLB_total_access 16372761
Core_0_DTLB_total_hit 15948649
Core_0_DTLB_total_miss 424112
Core_0_DTLB_total_MPKI 8.48224
Core_0_DTLB_total_miss_rate 0.0259035
Core_0_DTLB_demand_access 16372761
Core_0_DTLB_demand_hit 15948649
Core_0_DTLB_demand_miss 424112
Core_0_DTLB_demand_MPKI 8.48224
Core_0_DTLB_demand_miss_rate 0.0259035
Core_0_DTLB_load_access 16372761
Core_0_DTLB_load_hit 15948649
Core_0_DTLB_load_miss 424112
Core_0_DTLB_load_MPKI 8.48224
Core_0_DTLB_load_miss_rate 0.0259035
Core_0_DTLB_rfo_access 0
Core_0_DTLB_rfo_hit 0
Core_0_DTLB_rfo_miss 0
Core_0_DTLB_rfo_MPKI 0
Core_0_DTLB_rfo_miss_rate 0
Core_0_DTLB_prefetch_access 0
Core_0_DTLB_prefetch_hit 0
Core_0_DTLB_prefetch_miss 0
Core_0_DTLB_prefetch_MPKI 0
Core_0_DTLB_prefetch_miss_rate 0
Core_0_DTLB_writeback_access 0
Core_0_DTLB_writeback_hit 0
Core_0_DTLB_writeback_miss 0
Core_0_DTLB_writeback_MPKI 0
Core_0_DTLB_writeback_miss_rate 0
Core_0_DTLB_prefetch_requested 0
Core_0_DTLB_prefetch_issued 0
Core_0_DTLB_prefetch_useful 0
Core_0_DTLB_prefetch_useless 0
Core_0_DTLB_prefetch_late 0
Core_0_DTLB_prefetch_accuracy 0
Core_0_DTLB_prefetch_coverage 0

Core_0_STLB_total_access 59835
Core_0_STLB_total_hit 2452
Core_0_STLB_total_miss 57383
Core_0_STLB_total_MPKI 1.14766
Core_0_STLB_total_miss_rate 0.959021
Core_0_STLB_demand_access 59835
Core_0_STLB_demand_hit 2452
Core_0_STLB_demand_miss 57383
Core_0_STLB_demand_MPKI 1.14766
Core_0_STLB_demand_miss_rate 0.959021
Core_0_STLB_load_access 59835
Core_0_STLB_load_hit 2452
Core_0_STLB_load_miss 57383
Core_0_STLB_load_MPKI 1.14766
Core_0_STLB_load_miss_rate 0.959021
Core_0_STLB_rfo_access 0
Core_0_STLB_rfo_hit 0
Core_0_STLB_rfo_miss 0
Core_0_STLB_rfo_MPKI 0
Core_0_STLB_rfo_miss_rate 0
Core_0_STLB_prefetch_access 0
Core_0_STLB_prefetch_hit 0
Core_0_STLB_prefetch_miss 0
Core_0_STLB_prefetch_MPKI 0
Core_0_STLB_prefetch_miss_rate 0
Core_0_STLB_writeback_access 0
Core_0_STLB_writeback_hit 0
Core_0_STLB_writeback_miss 0
Core_0_STLB_writeback_MPKI 0
Core_0_STLB_writeback_miss_rate 0
Core_0_STLB_prefetch_requested 0
Core_0_STLB_prefetch_issued 0
Core_0_STLB_prefetch_useful 0
Core_0_STLB_prefetch_useless 0
Core_0_STLB_prefetch_late 0
Core_0_STLB_prefetch_accuracy 0
Core_0_STLB_prefetch_coverage 0

Core_0_L1I_total_access 833700
Core_0_L1I_total_hit 833649
Core_0_L1I_total_miss 51
Core_0_L1I_total_MPKI 0.00102
Core_0_L1I_total_miss_rate 6.11731e-05
Core_0_L1I_demand_access 833700
Core_0_L1I_demand_hit 833649
Core_0_L1I_demand_miss 51
Core_0_L1I_demand_MPKI 0.00102
Core_0_L1I_demand_miss_rate 6.11731e-05
Core_0_L1I_load_access 833700
Core_0_L1I_load_hit 833649
Core_0_L1I_load_miss 51
Core_0_L1I_load_MPKI 0.00102
Core_0_L1I_load_miss_rate 6.11731e-05
Core_0_L1I_rfo_access 0
Core_0_L1I_rfo_hit 0
Core_0_L1I_rfo_miss 0
Core_0_L1I_rfo_MPKI 0
Core_0_L1I_rfo_miss_rate 0
Core_0_L1I_prefetch_access 0
Core_0_L1I_prefetch_hit 0
Core_0_L1I_prefetch_miss 0
Core_0_L1I_prefetch_MPKI 0
Core_0_L1I_prefetch_miss_rate 0
Core_0_L1I_writeback_access 0
Core_0_L1I_writeback_hit 0
Core_0_L1I_writeback_miss 0
Core_0_L1I_writeback_MPKI 0
Core_0_L1I_writeback_miss_rate 0
Core_0_L1I_prefetch_requested 0
Core_0_L1I_prefetch_issued 0
Core_0_L1I_prefetch_useful 0
Core_0_L1I_prefetch_useless 0
Core_0_L1I_prefetch_late 0
Core_0_L1I_prefetch_accuracy 0
Core_0_L1I_prefetch_coverage 0

Core_0_L1D_total_access 17839147
Core_0_L1D_total_hit 15684393
Core_0_L1D_total_miss 2154754
Core_0_L1D_total_MPKI 43.0951
Core_0_L1D_total_miss_rate 0.120788
Core_0_L1D_demand_access 9010153
Core_0_L1D_demand_hit 8431392
Core_0_L1D_demand_miss 578761
Core_0_L1D_demand_MPKI 11.5752
Core_0_L1D_demand_miss_rate 0.0642343
Core_0_L1D_load_access 9010153
Core_0_L1D_load_hit 8431392
Core_0_L1D_load_miss 578761
Core_0_L1D_load_MPKI 11.5752
Core_0_L1D_load_miss_rate 0.0642343
Core_0_L1D_rfo_access 0
Core_0_L1D_rfo_hit 0
Core_0_L1D_rfo_miss 0
Core_0_L1D_rfo_MPKI 0
Core_0_L1D_rfo_miss_rate 0
Core_0_L1D_prefetch_access 568206
Core_0_L1D_prefetch_hit 21396
Core_0_L1D_prefetch_miss 546810
Core_0_L1D_prefetch_MPKI 10.9362
Core_0_L1D_prefetch_miss_rate 0.962345
Core_0_L1D_writeback_access 8260788
Core_0_L1D_writeback_hit 7231605
Core_0_L1D_writeback_miss 1029183
Core_0_L1D_writeback_MPKI 20.5837
Core_0_L1D_writeback_miss_rate 0.124587
Core_0_L1D_prefetch_requested 573088
Core_0_L1D_prefetch_issued 568198
Core_0_L1D_prefetch_useful 433749
Core_0_L1D_prefetch_useless 158
Core_0_L1D_prefetch_late 36530
Core_0_L1D_prefetch_accuracy 0.763376
Core_0_L1D_prefetch_coverage 0.42839

Core_0_L2C_total_access 2898673
Core_0_L2C_total_hit 1318136
Core_0_L2C_total_miss 1580537
Core_0_L2C_total_MPKI 31.6107
Core_0_L2C_total_miss_rate 0.545262
Core_0_L2C_demand_access 318304
Core_0_L2C_demand_hit 11066
Core_0_L2C_demand_miss 307238
Core_0_L2C_demand_MPKI 6.14476
Core_0_L2C_demand_miss_rate 0.965234
Core_0_L2C_load_access 188302
Core_0_L2C_load_hit 11066
Core_0_L2C_load_miss 177236
Core_0_L2C_load_MPKI 3.54472
Core_0_L2C_load_miss_rate 0.941233
Core_0_L2C_rfo_access 130002
Core_0_L2C_rfo_hit 0
Core_0_L2C_rfo_miss 130002
Core_0_L2C_rfo_MPKI 2.60004
Core_0_L2C_rfo_miss_rate 1
Core_0_L2C_prefetch_access 2237913
Core_0_L2C_prefetch_hit 964628
Core_0_L2C_prefetch_miss 1273285
Core_0_L2C_prefetch_MPKI 25.4657
Core_0_L2C_prefetch_miss_rate 0.568961
Core_0_L2C_writeback_access 342456
Core_0_L2C_writeback_hit 342442
Core_0_L2C_writeback_miss 14
Core_0_L2C_writeback_MPKI 0.00028
Core_0_L2C_writeback_miss_rate 4.08812e-05
Core_0_L2C_prefetch_requested 1829059
Core_0_L2C_prefetch_issued 1803998
Core_0_L2C_prefetch_useful 284632
Core_0_L2C_prefetch_useless 214876
Core_0_L2C_prefetch_late 11106
Core_0_L2C_prefetch_accuracy 0.157778
Core_0_L2C_prefetch_coverage 0.480903

Core_0_LLC_total_access 1207140
Core_0_LLC_total_hit 93292
Core_0_LLC_total_miss 1113848
Core_0_LLC_total_MPKI 22.277
Core_0_LLC_total_miss_rate 0.922717
Core_0_LLC_demand_access 296132
Core_0_LLC_demand_hit 88
Core_0_LLC_demand_miss 296044
Core_0_LLC_demand_MPKI 5.92088
Core_0_LLC_demand_miss_rate 0.999703
Core_0_LLC_load_access 166130
Core_0_LLC_load_hit 88
Core_0_LLC_load_miss 166042
Core_0_LLC_load_MPKI 3.32084
Core_0_LLC_load_miss_rate 0.99947
Core_0_LLC_rfo_access 130002
Core_0_LLC_rfo_hit 0
Core_0_LLC_rfo_miss 130002
Core_0_LLC_rfo_MPKI 2.60004
Core_0_LLC_rfo_miss_rate 1
Core_0_LLC_prefetch_access 564032
Core_0_LLC_prefetch_hit 2954
Core_0_LLC_prefetch_miss 561078
Core_0_LLC_prefetch_MPKI 11.2216
Core_0_LLC_prefetch_miss_rate 0.994763
Core_0_LLC_writeback_access 346976
Core_0_LLC_writeback_hit 90250
Core_0_LLC_writeback_miss 256726
Core_0_LLC_writeback_MPKI 5.13452
Core_0_LLC_writeback_miss_rate 0.739896
Core_0_LLC_prefetch_requested 0
Core_0_LLC_prefetch_issued 0
Core_0_LLC_prefetch_useful 0
Core_0_LLC_prefetch_useless 0
Core_0_LLC_prefetch_late 0
Core_0_LLC_prefetch_accuracy 0
Core_0_LLC_prefetch_coverage 0

[DRAM Statistics]
Channel_0_RQ_row_buffer_hit 171912
Channel_0_RQ_row_buffer_miss 692534
Channel_0_WQ_row_buffer_hit 81094
Channel_0_WQ_row_buffer_miss 260574
Channel_0_WQ_full 0
Channel_0_dbus_congested 3333708
DRAM_total_RQ_row_buffer_hit 171912
DRAM_total_RQ_row_buffer_miss 692534
DRAM_total_WQ_row_buffer_hit 81094
DRAM_total_WQ_row_buffer_miss 260574
DRAM_total_WQ_full 0
DRAM_total_dbus_congested 3333708
DRAM_avg_congested_cycle 7.72953

======STLB miss causes ========
Core_0_STLB_miss_cause_breakdown
Core_0_STLB_cause_Demand_Data_miss 57379
Core_0_STLB_cause_Demand_Data_miss_rate 0.958954
Core_0_STLB_cause_Demand_Instruction_miss 4
Core_0_STLB_cause_Demand_Instruction_miss_rate 6.68505e-05
Core_0_STLB_cause_L1D_Prefetch_miss 0
Core_0_STLB_cause_L1D_Prefetch_miss_rate 0
Core_0_STLB_cause_L1I_Prefetch_miss 0
Core_0_STLB_cause_L1I_Prefetch_miss_rate 0
Core_0_STLB_cause_Other_miss 0
Core_0_STLB_cause_Other_miss_rate 0
Core_0_STLB_Demand_miss 57383
Core_0_STLB_Demand_miss_rate 0.959021
Core_0_STLB_L1D_Prefetch_miss 0
Core_0_STLB_L1D_Prefetch_miss_rate 0
Core_0_STLB_Other_miss 0
Core_0_STLB_Other_miss_rate 0
