[VMEM] WARNING: physical memory size is smaller than virtual memory size.

*** ChampSim Multicore Out-of-Order Simulator ***
Warmup Instructions: 20000000
Simulation Instructions: 50000000
Number of CPUs: 1
Page size: 4096
STLB ideal mode: l1pref
Core 0: /data0/tzh/champsim_traces/SPEC17/605.mcf_s-1536B.champsimtrace.xz
 L1D Berti prefetcher
Off-chip DRAM Size: 4 GiB Channels: 1 Width: 64-bit Data Rate: 3205 MT/s
Warmup halting CPU 0 at instruction 20000004 cycle 5535092 for remainder of phase
Warmup finished CPU 0 instructions: 20000004 cycles: 5535092 cumulative IPC: 3.613 (Simulation time: 00 hr 01 min 14 sec)
Warmup complete CPU 0 instructions: 20000004 cycles: 5535092 cumulative IPC: 3.613 (Simulation time: 00 hr 01 min 14 sec)
Simulation finished CPU 0 instructions: 50000005 cycles: 79658491 cumulative IPC: 0.6277 (Simulation time: 00 hr 12 min 19 sec)
Simulation complete CPU 0 instructions: 50000005 cycles: 79658491 cumulative IPC: 0.6277 (Simulation time: 00 hr 12 min 19 sec)

ChampSim completed all CPUs

=== Simulation ===
CPU 0 runs /data0/tzh/champsim_traces/SPEC17/605.mcf_s-1536B.champsimtrace.xz

Region of Interest Statistics

CPU 0 cumulative IPC: 0.6277 instructions: 50000005 cycles: 79658491
CPU 0 Branch Prediction Accuracy: 99.96% MPKI: 0.06756 Average ROB Occupancy at Mispredict: 143.8
Branch type MPKI
BRANCH_DIRECT_JUMP: 0
BRANCH_INDIRECT: 0
BRANCH_CONDITIONAL: 0.06756
BRANCH_DIRECT_CALL: 0
BRANCH_INDIRECT_CALL: 0
BRANCH_RETURN: 0

cpu0->cpu0_STLB TOTAL        ACCESS:    1286315 HIT:     166846 MISS:    1119469 MSHR_MERGE:          0
cpu0->cpu0_STLB LOAD         ACCESS:    1286315 HIT:     166846 MISS:    1119469 MSHR_MERGE:          0
cpu0->cpu0_STLB RFO          ACCESS:          0 HIT:          0 MISS:          0 MSHR_MERGE:          0
cpu0->cpu0_STLB PREFETCH     ACCESS:          0 HIT:          0 MISS:          0 MSHR_MERGE:          0
cpu0->cpu0_STLB WRITE        ACCESS:          0 HIT:          0 MISS:          0 MSHR_MERGE:          0
cpu0->cpu0_STLB TRANSLATION  ACCESS:          0 HIT:          0 MISS:          0 MSHR_MERGE:          0
cpu0->cpu0_STLB PREFETCH REQUESTED:          0 ISSUED:          0 USEFUL:          0 USELESS:          0 LATE:          0
cpu0->cpu0_STLB AVERAGE MISS LATENCY: 48.55 cycles
cpu0->cpu0_L2C TOTAL        ACCESS:   10817809 HIT:    6176257 MISS:    4641552 MSHR_MERGE:     454327
cpu0->cpu0_L2C LOAD         ACCESS:    2166677 HIT:     727481 MISS:    1439196 MSHR_MERGE:       5626
cpu0->cpu0_L2C RFO          ACCESS:     143255 HIT:      20188 MISS:     123067 MSHR_MERGE:          4
cpu0->cpu0_L2C PREFETCH     ACCESS:    6263447 HIT:    4199489 MISS:    2063958 MSHR_MERGE:     448697
cpu0->cpu0_L2C WRITE        ACCESS:    1113600 HIT:    1113582 MISS:         18 MSHR_MERGE:          0
cpu0->cpu0_L2C TRANSLATION  ACCESS:    1130830 HIT:     115517 MISS:    1015313 MSHR_MERGE:          0
cpu0->cpu0_L2C PREFETCH REQUESTED:    5808779 ISSUED:    5661508 USEFUL:     194594 USELESS:    1285297 LATE:       5630
cpu0->cpu0_L2C AVERAGE MISS LATENCY: 62.69 cycles
cpu0->cpu0_L1I TOTAL        ACCESS:    9767726 HIT:    9767726 MISS:          0 MSHR_MERGE:          0
cpu0->cpu0_L1I LOAD         ACCESS:    9767726 HIT:    9767726 MISS:          0 MSHR_MERGE:          0
cpu0->cpu0_L1I RFO          ACCESS:          0 HIT:          0 MISS:          0 MSHR_MERGE:          0
cpu0->cpu0_L1I PREFETCH     ACCESS:          0 HIT:          0 MISS:          0 MSHR_MERGE:          0
cpu0->cpu0_L1I WRITE        ACCESS:          0 HIT:          0 MISS:          0 MSHR_MERGE:          0
cpu0->cpu0_L1I TRANSLATION  ACCESS:          0 HIT:          0 MISS:          0 MSHR_MERGE:          0
cpu0->cpu0_L1I PREFETCH REQUESTED:          0 ISSUED:          0 USEFUL:          0 USELESS:          0 LATE:          0
cpu0->cpu0_L1I AVERAGE MISS LATENCY: - cycles
cpu0->cpu0_L1D TOTAL        ACCESS:   14259309 HIT:    9048489 MISS:    5210820 MSHR_MERGE:    1168014
cpu0->cpu0_L1D LOAD         ACCESS:    8916985 HIT:    5630401 MISS:    3286584 MSHR_MERGE:    1119907
cpu0->cpu0_L1D RFO          ACCESS:          0 HIT:          0 MISS:          0 MSHR_MERGE:          0
cpu0->cpu0_L1D PREFETCH     ACCESS:     727135 HIT:     102789 MISS:     624346 MSHR_MERGE:      22410
cpu0->cpu0_L1D WRITE        ACCESS:    2217260 HIT:    2072254 MISS:     145006 MSHR_MERGE:       1643
cpu0->cpu0_L1D TRANSLATION  ACCESS:    2397929 HIT:    1243045 MISS:    1154884 MSHR_MERGE:      24054
cpu0->cpu0_L1D PREFETCH REQUESTED:     727139 ISSUED:     727135 USEFUL:     359022 USELESS:     242898 LATE:      31027
cpu0->cpu0_L1D AVERAGE MISS LATENCY: 55.72 cycles
cpu0->cpu0_ITLB TOTAL        ACCESS:    8652333 HIT:    8652333 MISS:          0 MSHR_MERGE:          0
cpu0->cpu0_ITLB LOAD         ACCESS:    8652333 HIT:    8652333 MISS:          0 MSHR_MERGE:          0
cpu0->cpu0_ITLB RFO          ACCESS:          0 HIT:          0 MISS:          0 MSHR_MERGE:          0
cpu0->cpu0_ITLB PREFETCH     ACCESS:          0 HIT:          0 MISS:          0 MSHR_MERGE:          0
cpu0->cpu0_ITLB WRITE        ACCESS:          0 HIT:          0 MISS:          0 MSHR_MERGE:          0
cpu0->cpu0_ITLB TRANSLATION  ACCESS:          0 HIT:          0 MISS:          0 MSHR_MERGE:          0
cpu0->cpu0_ITLB PREFETCH REQUESTED:          0 ISSUED:          0 USEFUL:          0 USELESS:          0 LATE:          0
cpu0->cpu0_ITLB AVERAGE MISS LATENCY: - cycles
cpu0->cpu0_DTLB TOTAL        ACCESS:   11539555 HIT:    8796135 MISS:    2743420 MSHR_MERGE:    1457105
cpu0->cpu0_DTLB LOAD         ACCESS:   11539555 HIT:    8796135 MISS:    2743420 MSHR_MERGE:    1457105
cpu0->cpu0_DTLB RFO          ACCESS:          0 HIT:          0 MISS:          0 MSHR_MERGE:          0
cpu0->cpu0_DTLB PREFETCH     ACCESS:          0 HIT:          0 MISS:          0 MSHR_MERGE:          0
cpu0->cpu0_DTLB WRITE        ACCESS:          0 HIT:          0 MISS:          0 MSHR_MERGE:          0
cpu0->cpu0_DTLB TRANSLATION  ACCESS:          0 HIT:          0 MISS:          0 MSHR_MERGE:          0
cpu0->cpu0_DTLB PREFETCH REQUESTED:          0 ISSUED:          0 USEFUL:          0 USELESS:          0 LATE:          0
cpu0->cpu0_DTLB AVERAGE MISS LATENCY: 48.13 cycles
cpu0->LLC TOTAL        ACCESS:    5296604 HIT:    3659633 MISS:    1636971 MSHR_MERGE:          0
cpu0->LLC LOAD         ACCESS:    1433570 HIT:    1120458 MISS:     313112 MSHR_MERGE:          0
cpu0->LLC RFO          ACCESS:     123063 HIT:     109015 MISS:      14048 MSHR_MERGE:          0
cpu0->LLC PREFETCH     ACCESS:    1615261 HIT:     441726 MISS:    1173535 MSHR_MERGE:          0
cpu0->LLC WRITE        ACCESS:    1109398 HIT:     983474 MISS:     125924 MSHR_MERGE:          0
cpu0->LLC TRANSLATION  ACCESS:    1015312 HIT:    1004960 MISS:      10352 MSHR_MERGE:          0
cpu0->LLC PREFETCH REQUESTED:          0 ISSUED:          0 USEFUL:          0 USELESS:          0 LATE:          0
cpu0->LLC AVERAGE MISS LATENCY: 265.1 cycles

DRAM Statistics

Channel 0 RQ ROW_BUFFER_HIT:      51665
  ROW_BUFFER_MISS:    1459378
  AVG DBUS CONGESTED CYCLE: 7.211
Channel 0 WQ ROW_BUFFER_HIT:     188650
  ROW_BUFFER_MISS:     922734
  FULL:          0
Channel 0 REFRESHES ISSUED:       6638

[ROI Statistics]
[System Configuration]
num_cpus 1
cpu_freq 4000
fetch_width 6
decode_width 6
dispatch_width 6
execute_width 6
lq_width 2
sq_width 2
retire_width 6
scheduler_size 160
branch_mispredict_penalty 1
rob_size 352
lq_size 240
sq_size 112
ifetch_buffer_size 64
decode_buffer_size 32
dispatch_buffer_size 32
register_file_size 288
decode_latency 1
dispatch_latency 1
schedule_latency 0
execute_latency 0
page_size 4096
block_size 64
core_0_itlb_set 16
core_0_itlb_way 4
core_0_itlb_rq_size 16
core_0_itlb_wq_size 16
core_0_itlb_pq_size 0
core_0_itlb_mshr_size 8
core_0_itlb_hit_latency 1
core_0_itlb_fill_latency 1
core_0_itlb_max_tag_check 2
core_0_itlb_max_fill 2
core_0_dtlb_set 16
core_0_dtlb_way 4
core_0_dtlb_rq_size 16
core_0_dtlb_wq_size 16
core_0_dtlb_pq_size 0
core_0_dtlb_mshr_size 8
core_0_dtlb_hit_latency 1
core_0_dtlb_fill_latency 1
core_0_dtlb_max_tag_check 2
core_0_dtlb_max_fill 2
core_0_stlb_set 128
core_0_stlb_way 12
core_0_stlb_rq_size 32
core_0_stlb_wq_size 32
core_0_stlb_pq_size 0
core_0_stlb_mshr_size 16
core_0_stlb_hit_latency 4
core_0_stlb_fill_latency 4
core_0_stlb_max_tag_check 1
core_0_stlb_max_fill 1
core_0_l1i_set 64
core_0_l1i_way 8
core_0_l1i_rq_size 64
core_0_l1i_wq_size 64
core_0_l1i_pq_size 32
core_0_l1i_mshr_size 8
core_0_l1i_hit_latency 2
core_0_l1i_fill_latency 2
core_0_l1i_max_tag_check 2
core_0_l1i_max_fill 2
core_0_l1d_set 64
core_0_l1d_way 12
core_0_l1d_rq_size 64
core_0_l1d_wq_size 64
core_0_l1d_pq_size 8
core_0_l1d_mshr_size 16
core_0_l1d_hit_latency 2
core_0_l1d_fill_latency 3
core_0_l1d_max_tag_check 2
core_0_l1d_max_fill 2
core_0_l2c_set 1024
core_0_l2c_way 8
core_0_l2c_rq_size 32
core_0_l2c_wq_size 32
core_0_l2c_pq_size 16
core_0_l2c_mshr_size 32
core_0_l2c_hit_latency 5
core_0_l2c_fill_latency 5
core_0_l2c_max_tag_check 1
core_0_l2c_max_fill 1
llc_set 2048
llc_way 16
llc_rq_size 32
llc_wq_size 32
llc_pq_size 32
llc_mshr_size 64
llc_hit_latency 10
llc_fill_latency 10
llc_max_tag_check 1
llc_max_fill 1
dram_channels 1
dram_ranks 1
dram_bankgroups 8
dram_banks 4
dram_rows 16384
dram_columns 1024
dram_channel_width 8
dram_rq_size 64
dram_wq_size 64
dram_size 4294967296
core_0_itlb_prefetcher no
core_0_dtlb_prefetcher no
core_0_stlb_prefetcher no
core_0_l1i_prefetcher next_line
core_0_l1d_prefetcher berti
core_0_l2c_prefetcher pythia
llc_prefetcher no
llc_replacement drrip

Core_0_instructions 50000005
Core_0_cycles 79658491
Core_0_IPC 0.62768
Core_0_branch_prediction_accuracy 99.9566
Core_0_branch_MPKI 0.06756
Core_0_average_ROB_occupancy_at_mispredict 143.838

Core_0_ITLB_total_access 8652333
Core_0_ITLB_total_hit 8652333
Core_0_ITLB_total_miss 0
Core_0_ITLB_total_MPKI 0
Core_0_ITLB_total_miss_rate 0
Core_0_ITLB_demand_access 8652333
Core_0_ITLB_demand_hit 8652333
Core_0_ITLB_demand_miss 0
Core_0_ITLB_demand_MPKI 0
Core_0_ITLB_demand_miss_rate 0
Core_0_ITLB_load_access 8652333
Core_0_ITLB_load_hit 8652333
Core_0_ITLB_load_miss 0
Core_0_ITLB_load_MPKI 0
Core_0_ITLB_load_miss_rate 0
Core_0_ITLB_rfo_access 0
Core_0_ITLB_rfo_hit 0
Core_0_ITLB_rfo_miss 0
Core_0_ITLB_rfo_MPKI 0
Core_0_ITLB_rfo_miss_rate 0
Core_0_ITLB_prefetch_access 0
Core_0_ITLB_prefetch_hit 0
Core_0_ITLB_prefetch_miss 0
Core_0_ITLB_prefetch_MPKI 0
Core_0_ITLB_prefetch_miss_rate 0
Core_0_ITLB_writeback_access 0
Core_0_ITLB_writeback_hit 0
Core_0_ITLB_writeback_miss 0
Core_0_ITLB_writeback_MPKI 0
Core_0_ITLB_writeback_miss_rate 0
Core_0_ITLB_prefetch_requested 0
Core_0_ITLB_prefetch_issued 0
Core_0_ITLB_prefetch_useful 0
Core_0_ITLB_prefetch_useless 0
Core_0_ITLB_prefetch_late 0
Core_0_ITLB_prefetch_accuracy 0
Core_0_ITLB_prefetch_coverage 0

Core_0_DTLB_total_access 11539555
Core_0_DTLB_total_hit 8796135
Core_0_DTLB_total_miss 2743420
Core_0_DTLB_total_MPKI 54.8684
Core_0_DTLB_total_miss_rate 0.237741
Core_0_DTLB_demand_access 11539555
Core_0_DTLB_demand_hit 8796135
Core_0_DTLB_demand_miss 2743420
Core_0_DTLB_demand_MPKI 54.8684
Core_0_DTLB_demand_miss_rate 0.237741
Core_0_DTLB_load_access 11539555
Core_0_DTLB_load_hit 8796135
Core_0_DTLB_load_miss 2743420
Core_0_DTLB_load_MPKI 54.8684
Core_0_DTLB_load_miss_rate 0.237741
Core_0_DTLB_rfo_access 0
Core_0_DTLB_rfo_hit 0
Core_0_DTLB_rfo_miss 0
Core_0_DTLB_rfo_MPKI 0
Core_0_DTLB_rfo_miss_rate 0
Core_0_DTLB_prefetch_access 0
Core_0_DTLB_prefetch_hit 0
Core_0_DTLB_prefetch_miss 0
Core_0_DTLB_prefetch_MPKI 0
Core_0_DTLB_prefetch_miss_rate 0
Core_0_DTLB_writeback_access 0
Core_0_DTLB_writeback_hit 0
Core_0_DTLB_writeback_miss 0
Core_0_DTLB_writeback_MPKI 0
Core_0_DTLB_writeback_miss_rate 0
Core_0_DTLB_prefetch_requested 0
Core_0_DTLB_prefetch_issued 0
Core_0_DTLB_prefetch_useful 0
Core_0_DTLB_prefetch_useless 0
Core_0_DTLB_prefetch_late 0
Core_0_DTLB_prefetch_accuracy 0
Core_0_DTLB_prefetch_coverage 0

Core_0_STLB_total_access 1286315
Core_0_STLB_total_hit 166846
Core_0_STLB_total_miss 1119469
Core_0_STLB_total_MPKI 22.3894
Core_0_STLB_total_miss_rate 0.870291
Core_0_STLB_demand_access 1286315
Core_0_STLB_demand_hit 166846
Core_0_STLB_demand_miss 1119469
Core_0_STLB_demand_MPKI 22.3894
Core_0_STLB_demand_miss_rate 0.870291
Core_0_STLB_load_access 1286315
Core_0_STLB_load_hit 166846
Core_0_STLB_load_miss 1119469
Core_0_STLB_load_MPKI 22.3894
Core_0_STLB_load_miss_rate 0.870291
Core_0_STLB_rfo_access 0
Core_0_STLB_rfo_hit 0
Core_0_STLB_rfo_miss 0
Core_0_STLB_rfo_MPKI 0
Core_0_STLB_rfo_miss_rate 0
Core_0_STLB_prefetch_access 0
Core_0_STLB_prefetch_hit 0
Core_0_STLB_prefetch_miss 0
Core_0_STLB_prefetch_MPKI 0
Core_0_STLB_prefetch_miss_rate 0
Core_0_STLB_writeback_access 0
Core_0_STLB_writeback_hit 0
Core_0_STLB_writeback_miss 0
Core_0_STLB_writeback_MPKI 0
Core_0_STLB_writeback_miss_rate 0
Core_0_STLB_prefetch_requested 0
Core_0_STLB_prefetch_issued 0
Core_0_STLB_prefetch_useful 0
Core_0_STLB_prefetch_useless 0
Core_0_STLB_prefetch_late 0
Core_0_STLB_prefetch_accuracy 0
Core_0_STLB_prefetch_coverage 0

Core_0_L1I_total_access 9767726
Core_0_L1I_total_hit 9767726
Core_0_L1I_total_miss 0
Core_0_L1I_total_MPKI 0
Core_0_L1I_total_miss_rate 0
Core_0_L1I_demand_access 9767726
Core_0_L1I_demand_hit 9767726
Core_0_L1I_demand_miss 0
Core_0_L1I_demand_MPKI 0
Core_0_L1I_demand_miss_rate 0
Core_0_L1I_load_access 9767726
Core_0_L1I_load_hit 9767726
Core_0_L1I_load_miss 0
Core_0_L1I_load_MPKI 0
Core_0_L1I_load_miss_rate 0
Core_0_L1I_rfo_access 0
Core_0_L1I_rfo_hit 0
Core_0_L1I_rfo_miss 0
Core_0_L1I_rfo_MPKI 0
Core_0_L1I_rfo_miss_rate 0
Core_0_L1I_prefetch_access 0
Core_0_L1I_prefetch_hit 0
Core_0_L1I_prefetch_miss 0
Core_0_L1I_prefetch_MPKI 0
Core_0_L1I_prefetch_miss_rate 0
Core_0_L1I_writeback_access 0
Core_0_L1I_writeback_hit 0
Core_0_L1I_writeback_miss 0
Core_0_L1I_writeback_MPKI 0
Core_0_L1I_writeback_miss_rate 0
Core_0_L1I_prefetch_requested 0
Core_0_L1I_prefetch_issued 0
Core_0_L1I_prefetch_useful 0
Core_0_L1I_prefetch_useless 0
Core_0_L1I_prefetch_late 0
Core_0_L1I_prefetch_accuracy 0
Core_0_L1I_prefetch_coverage 0

Core_0_L1D_total_access 11861380
Core_0_L1D_total_hit 7805444
Core_0_L1D_total_miss 4055936
Core_0_L1D_total_MPKI 81.1187
Core_0_L1D_total_miss_rate 0.341945
Core_0_L1D_demand_access 8916985
Core_0_L1D_demand_hit 5630401
Core_0_L1D_demand_miss 3286584
Core_0_L1D_demand_MPKI 65.7317
Core_0_L1D_demand_miss_rate 0.368576
Core_0_L1D_load_access 8916985
Core_0_L1D_load_hit 5630401
Core_0_L1D_load_miss 3286584
Core_0_L1D_load_MPKI 65.7317
Core_0_L1D_load_miss_rate 0.368576
Core_0_L1D_rfo_access 0
Core_0_L1D_rfo_hit 0
Core_0_L1D_rfo_miss 0
Core_0_L1D_rfo_MPKI 0
Core_0_L1D_rfo_miss_rate 0
Core_0_L1D_prefetch_access 727135
Core_0_L1D_prefetch_hit 102789
Core_0_L1D_prefetch_miss 624346
Core_0_L1D_prefetch_MPKI 12.4869
Core_0_L1D_prefetch_miss_rate 0.858638
Core_0_L1D_writeback_access 2217260
Core_0_L1D_writeback_hit 2072254
Core_0_L1D_writeback_miss 145006
Core_0_L1D_writeback_MPKI 2.90012
Core_0_L1D_writeback_miss_rate 0.0653987
Core_0_L1D_prefetch_requested 727139
Core_0_L1D_prefetch_issued 727135
Core_0_L1D_prefetch_useful 359022
Core_0_L1D_prefetch_useless 242898
Core_0_L1D_prefetch_late 31027
Core_0_L1D_prefetch_accuracy 0.493749
Core_0_L1D_prefetch_coverage 0.0984807

Core_0_L2C_total_access 9686979
Core_0_L2C_total_hit 6060740
Core_0_L2C_total_miss 3626239
Core_0_L2C_total_MPKI 72.5248
Core_0_L2C_total_miss_rate 0.374342
Core_0_L2C_demand_access 2309932
Core_0_L2C_demand_hit 747669
Core_0_L2C_demand_miss 1562263
Core_0_L2C_demand_MPKI 31.2453
Core_0_L2C_demand_miss_rate 0.676324
Core_0_L2C_load_access 2166677
Core_0_L2C_load_hit 727481
Core_0_L2C_load_miss 1439196
Core_0_L2C_load_MPKI 28.7839
Core_0_L2C_load_miss_rate 0.664241
Core_0_L2C_rfo_access 143255
Core_0_L2C_rfo_hit 20188
Core_0_L2C_rfo_miss 123067
Core_0_L2C_rfo_MPKI 2.46134
Core_0_L2C_rfo_miss_rate 0.859076
Core_0_L2C_prefetch_access 6263447
Core_0_L2C_prefetch_hit 4199489
Core_0_L2C_prefetch_miss 2063958
Core_0_L2C_prefetch_MPKI 41.2792
Core_0_L2C_prefetch_miss_rate 0.329524
Core_0_L2C_writeback_access 1113600
Core_0_L2C_writeback_hit 1113582
Core_0_L2C_writeback_miss 18
Core_0_L2C_writeback_MPKI 0.00036
Core_0_L2C_writeback_miss_rate 1.61638e-05
Core_0_L2C_prefetch_requested 5808779
Core_0_L2C_prefetch_issued 5661508
Core_0_L2C_prefetch_useful 194594
Core_0_L2C_prefetch_useless 1285297
Core_0_L2C_prefetch_late 5630
Core_0_L2C_prefetch_accuracy 0.0343714
Core_0_L2C_prefetch_coverage 0.110763

Core_0_LLC_total_access 4281292
Core_0_LLC_total_hit 2654673
Core_0_LLC_total_miss 1626619
Core_0_LLC_total_MPKI 32.5324
Core_0_LLC_total_miss_rate 0.379936
Core_0_LLC_demand_access 1556633
Core_0_LLC_demand_hit 1229473
Core_0_LLC_demand_miss 327160
Core_0_LLC_demand_MPKI 6.5432
Core_0_LLC_demand_miss_rate 0.210172
Core_0_LLC_load_access 1433570
Core_0_LLC_load_hit 1120458
Core_0_LLC_load_miss 313112
Core_0_LLC_load_MPKI 6.26224
Core_0_LLC_load_miss_rate 0.218414
Core_0_LLC_rfo_access 123063
Core_0_LLC_rfo_hit 109015
Core_0_LLC_rfo_miss 14048
Core_0_LLC_rfo_MPKI 0.28096
Core_0_LLC_rfo_miss_rate 0.114153
Core_0_LLC_prefetch_access 1615261
Core_0_LLC_prefetch_hit 441726
Core_0_LLC_prefetch_miss 1173535
Core_0_LLC_prefetch_MPKI 23.4707
Core_0_LLC_prefetch_miss_rate 0.72653
Core_0_LLC_writeback_access 1109398
Core_0_LLC_writeback_hit 983474
Core_0_LLC_writeback_miss 125924
Core_0_LLC_writeback_MPKI 2.51848
Core_0_LLC_writeback_miss_rate 0.113507
Core_0_LLC_prefetch_requested 0
Core_0_LLC_prefetch_issued 0
Core_0_LLC_prefetch_useful 0
Core_0_LLC_prefetch_useless 0
Core_0_LLC_prefetch_late 0
Core_0_LLC_prefetch_accuracy 0
Core_0_LLC_prefetch_coverage 0

[DRAM Statistics]
Channel_0_RQ_row_buffer_hit 51665
Channel_0_RQ_row_buffer_miss 1459378
Channel_0_WQ_row_buffer_hit 188650
Channel_0_WQ_row_buffer_miss 922734
Channel_0_WQ_full 0
Channel_0_dbus_congested 8930933
DRAM_total_RQ_row_buffer_hit 51665
DRAM_total_RQ_row_buffer_miss 1459378
DRAM_total_WQ_row_buffer_hit 188650
DRAM_total_WQ_row_buffer_miss 922734
DRAM_total_WQ_full 0
DRAM_total_dbus_congested 8930933
DRAM_avg_congested_cycle 7.2111

======STLB miss causes ========
Core_0_STLB_miss_cause_breakdown
Core_0_STLB_cause_Demand_Data_miss 1119469
Core_0_STLB_cause_Demand_Data_miss_rate 0.870291
Core_0_STLB_cause_Demand_Instruction_miss 0
Core_0_STLB_cause_Demand_Instruction_miss_rate 0
Core_0_STLB_cause_L1D_Prefetch_miss 0
Core_0_STLB_cause_L1D_Prefetch_miss_rate 0
Core_0_STLB_cause_L1I_Prefetch_miss 0
Core_0_STLB_cause_L1I_Prefetch_miss_rate 0
Core_0_STLB_cause_Other_miss 0
Core_0_STLB_cause_Other_miss_rate 0
Core_0_STLB_Demand_miss 1119469
Core_0_STLB_Demand_miss_rate 0.870291
Core_0_STLB_L1D_Prefetch_miss 0
Core_0_STLB_L1D_Prefetch_miss_rate 0
Core_0_STLB_Other_miss 0
Core_0_STLB_Other_miss_rate 0
