[VMEM] WARNING: physical memory size is smaller than virtual memory size.

*** ChampSim Multicore Out-of-Order Simulator ***
Warmup Instructions: 20000000
Simulation Instructions: 50000000
Number of CPUs: 1
Page size: 4096
STLB ideal mode: l1pref
Core 0: /data0/tzh/champsim_traces/SPEC17/605.mcf_s-1644B.champsimtrace.xz
 L1D Berti prefetcher
Off-chip DRAM Size: 4 GiB Channels: 1 Width: 64-bit Data Rate: 3205 MT/s
Warmup halting CPU 0 at instruction 20000001 cycle 28106802 for remainder of phase
Warmup finished CPU 0 instructions: 20000001 cycles: 28106802 cumulative IPC: 0.7116 (Simulation time: 00 hr 03 min 10 sec)
Warmup complete CPU 0 instructions: 20000001 cycles: 28106802 cumulative IPC: 0.7116 (Simulation time: 00 hr 03 min 10 sec)
Simulation finished CPU 0 instructions: 50000003 cycles: 238041399 cumulative IPC: 0.21 (Simulation time: 00 hr 28 min 31 sec)
Simulation complete CPU 0 instructions: 50000003 cycles: 238041399 cumulative IPC: 0.21 (Simulation time: 00 hr 28 min 31 sec)

ChampSim completed all CPUs

=== Simulation ===
CPU 0 runs /data0/tzh/champsim_traces/SPEC17/605.mcf_s-1644B.champsimtrace.xz

Region of Interest Statistics

CPU 0 cumulative IPC: 0.21 instructions: 50000003 cycles: 238041399
CPU 0 Branch Prediction Accuracy: 94.91% MPKI: 6.321 Average ROB Occupancy at Mispredict: 110.3
Branch type MPKI
BRANCH_DIRECT_JUMP: 0
BRANCH_INDIRECT: 0
BRANCH_CONDITIONAL: 6.321
BRANCH_DIRECT_CALL: 0
BRANCH_INDIRECT_CALL: 0
BRANCH_RETURN: 0

cpu0->cpu0_STLB TOTAL        ACCESS:    1465860 HIT:     283574 MISS:    1182286 MSHR_MERGE:          0
cpu0->cpu0_STLB LOAD         ACCESS:    1465860 HIT:     283574 MISS:    1182286 MSHR_MERGE:          0
cpu0->cpu0_STLB RFO          ACCESS:          0 HIT:          0 MISS:          0 MSHR_MERGE:          0
cpu0->cpu0_STLB PREFETCH     ACCESS:          0 HIT:          0 MISS:          0 MSHR_MERGE:          0
cpu0->cpu0_STLB WRITE        ACCESS:          0 HIT:          0 MISS:          0 MSHR_MERGE:          0
cpu0->cpu0_STLB TRANSLATION  ACCESS:          0 HIT:          0 MISS:          0 MSHR_MERGE:          0
cpu0->cpu0_STLB PREFETCH REQUESTED:          0 ISSUED:          0 USEFUL:          0 USELESS:          0 LATE:          0
cpu0->cpu0_STLB AVERAGE MISS LATENCY: 358.9 cycles
cpu0->cpu0_L2C TOTAL        ACCESS:   19007018 HIT:    9872601 MISS:    9134417 MSHR_MERGE:    1407432
cpu0->cpu0_L2C LOAD         ACCESS:    1086422 HIT:     365009 MISS:     721413 MSHR_MERGE:      13783
cpu0->cpu0_L2C RFO          ACCESS:    2188940 HIT:       2382 MISS:    2186558 MSHR_MERGE:          0
cpu0->cpu0_L2C PREFETCH     ACCESS:    9972414 HIT:    4824079 MISS:    5148335 MSHR_MERGE:    1393649
cpu0->cpu0_L2C WRITE        ACCESS:    4514165 HIT:    4511604 MISS:       2561 MSHR_MERGE:          0
cpu0->cpu0_L2C TRANSLATION  ACCESS:    1245077 HIT:     169527 MISS:    1075550 MSHR_MERGE:          0
cpu0->cpu0_L2C PREFETCH REQUESTED:    9249084 ISSUED:    8014530 USEFUL:    1310913 USELESS:    1761975 LATE:      13783
cpu0->cpu0_L2C AVERAGE MISS LATENCY: 332.9 cycles
cpu0->cpu0_L1I TOTAL        ACCESS:    1612511 HIT:    1612511 MISS:          0 MSHR_MERGE:          0
cpu0->cpu0_L1I LOAD         ACCESS:    1612511 HIT:    1612511 MISS:          0 MSHR_MERGE:          0
cpu0->cpu0_L1I RFO          ACCESS:          0 HIT:          0 MISS:          0 MSHR_MERGE:          0
cpu0->cpu0_L1I PREFETCH     ACCESS:          0 HIT:          0 MISS:          0 MSHR_MERGE:          0
cpu0->cpu0_L1I WRITE        ACCESS:          0 HIT:          0 MISS:          0 MSHR_MERGE:          0
cpu0->cpu0_L1I TRANSLATION  ACCESS:          0 HIT:          0 MISS:          0 MSHR_MERGE:          0
cpu0->cpu0_L1I PREFETCH REQUESTED:          0 ISSUED:          0 USEFUL:          0 USELESS:          0 LATE:          0
cpu0->cpu0_L1I AVERAGE MISS LATENCY: - cycles
cpu0->cpu0_L1D TOTAL        ACCESS:   34055283 HIT:   19771011 MISS:   14284272 MSHR_MERGE:    7805933
cpu0->cpu0_L1D LOAD         ACCESS:   11624753 HIT:   10451911 MISS:    1172842 MSHR_MERGE:      86415
cpu0->cpu0_L1D RFO          ACCESS:          0 HIT:          0 MISS:          0 MSHR_MERGE:          0
cpu0->cpu0_L1D PREFETCH     ACCESS:    2053488 HIT:      41566 MISS:    2011922 MSHR_MERGE:      54041
cpu0->cpu0_L1D WRITE        ACCESS:   17492277 HIT:    7650711 MISS:    9841566 MSHR_MERGE:    7652611
cpu0->cpu0_L1D TRANSLATION  ACCESS:    2884765 HIT:    1626823 MISS:    1257942 MSHR_MERGE:      12866
cpu0->cpu0_L1D PREFETCH REQUESTED:    2061884 ISSUED:    2053480 USEFUL:    1238727 USELESS:     719091 LATE:      44018
cpu0->cpu0_L1D AVERAGE MISS LATENCY: 301.9 cycles
cpu0->cpu0_ITLB TOTAL        ACCESS:    1611698 HIT:    1611698 MISS:          0 MSHR_MERGE:          0
cpu0->cpu0_ITLB LOAD         ACCESS:    1611698 HIT:    1611698 MISS:          0 MSHR_MERGE:          0
cpu0->cpu0_ITLB RFO          ACCESS:          0 HIT:          0 MISS:          0 MSHR_MERGE:          0
cpu0->cpu0_ITLB PREFETCH     ACCESS:          0 HIT:          0 MISS:          0 MSHR_MERGE:          0
cpu0->cpu0_ITLB WRITE        ACCESS:          0 HIT:          0 MISS:          0 MSHR_MERGE:          0
cpu0->cpu0_ITLB TRANSLATION  ACCESS:          0 HIT:          0 MISS:          0 MSHR_MERGE:          0
cpu0->cpu0_ITLB PREFETCH REQUESTED:          0 ISSUED:          0 USEFUL:          0 USELESS:          0 LATE:          0
cpu0->cpu0_ITLB AVERAGE MISS LATENCY: - cycles
cpu0->cpu0_DTLB TOTAL        ACCESS:   28344271 HIT:   18857816 MISS:    9486455 MSHR_MERGE:    8020595
cpu0->cpu0_DTLB LOAD         ACCESS:   28344271 HIT:   18857816 MISS:    9486455 MSHR_MERGE:    8020595
cpu0->cpu0_DTLB RFO          ACCESS:          0 HIT:          0 MISS:          0 MSHR_MERGE:          0
cpu0->cpu0_DTLB PREFETCH     ACCESS:          0 HIT:          0 MISS:          0 MSHR_MERGE:          0
cpu0->cpu0_DTLB WRITE        ACCESS:          0 HIT:          0 MISS:          0 MSHR_MERGE:          0
cpu0->cpu0_DTLB TRANSLATION  ACCESS:          0 HIT:          0 MISS:          0 MSHR_MERGE:          0
cpu0->cpu0_DTLB PREFETCH REQUESTED:          0 ISSUED:          0 USEFUL:          0 USELESS:          0 LATE:          0
cpu0->cpu0_DTLB AVERAGE MISS LATENCY: 295.3 cycles
cpu0->LLC TOTAL        ACCESS:   12053186 HIT:    6801147 MISS:    5252039 MSHR_MERGE:          0
cpu0->LLC LOAD         ACCESS:     707629 HIT:     541912 MISS:     165717 MSHR_MERGE:          0
cpu0->LLC RFO          ACCESS:    2186558 HIT:       3049 MISS:    2183509 MSHR_MERGE:          0
cpu0->LLC PREFETCH     ACCESS:    3754684 HIT:    2153319 MISS:    1601365 MSHR_MERGE:          0
cpu0->LLC WRITE        ACCESS:    4328766 HIT:    3899345 MISS:     429421 MSHR_MERGE:          0
cpu0->LLC TRANSLATION  ACCESS:    1075549 HIT:     203522 MISS:     872027 MSHR_MERGE:          0
cpu0->LLC PREFETCH REQUESTED:          0 ISSUED:          0 USEFUL:          0 USELESS:          0 LATE:          0
cpu0->LLC AVERAGE MISS LATENCY: 346.2 cycles

DRAM Statistics

Channel 0 RQ ROW_BUFFER_HIT:     227825
  ROW_BUFFER_MISS:    4593660
  AVG DBUS CONGESTED CYCLE: 7.643
Channel 0 WQ ROW_BUFFER_HIT:     552217
  ROW_BUFFER_MISS:    3061730
  FULL:          0
Channel 0 REFRESHES ISSUED:      19837

[ROI Statistics]
[System Configuration]
num_cpus 1
cpu_freq 4000
fetch_width 6
decode_width 6
dispatch_width 6
execute_width 6
lq_width 2
sq_width 2
retire_width 6
scheduler_size 160
branch_mispredict_penalty 1
rob_size 352
lq_size 240
sq_size 112
ifetch_buffer_size 64
decode_buffer_size 32
dispatch_buffer_size 32
register_file_size 288
decode_latency 1
dispatch_latency 1
schedule_latency 0
execute_latency 0
page_size 4096
block_size 64
core_0_itlb_set 16
core_0_itlb_way 4
core_0_itlb_rq_size 16
core_0_itlb_wq_size 16
core_0_itlb_pq_size 0
core_0_itlb_mshr_size 8
core_0_itlb_hit_latency 1
core_0_itlb_fill_latency 1
core_0_itlb_max_tag_check 2
core_0_itlb_max_fill 2
core_0_dtlb_set 16
core_0_dtlb_way 4
core_0_dtlb_rq_size 16
core_0_dtlb_wq_size 16
core_0_dtlb_pq_size 0
core_0_dtlb_mshr_size 8
core_0_dtlb_hit_latency 1
core_0_dtlb_fill_latency 1
core_0_dtlb_max_tag_check 2
core_0_dtlb_max_fill 2
core_0_stlb_set 128
core_0_stlb_way 12
core_0_stlb_rq_size 32
core_0_stlb_wq_size 32
core_0_stlb_pq_size 0
core_0_stlb_mshr_size 16
core_0_stlb_hit_latency 4
core_0_stlb_fill_latency 4
core_0_stlb_max_tag_check 1
core_0_stlb_max_fill 1
core_0_l1i_set 64
core_0_l1i_way 8
core_0_l1i_rq_size 64
core_0_l1i_wq_size 64
core_0_l1i_pq_size 32
core_0_l1i_mshr_size 8
core_0_l1i_hit_latency 2
core_0_l1i_fill_latency 2
core_0_l1i_max_tag_check 2
core_0_l1i_max_fill 2
core_0_l1d_set 64
core_0_l1d_way 12
core_0_l1d_rq_size 64
core_0_l1d_wq_size 64
core_0_l1d_pq_size 8
core_0_l1d_mshr_size 16
core_0_l1d_hit_latency 2
core_0_l1d_fill_latency 3
core_0_l1d_max_tag_check 2
core_0_l1d_max_fill 2
core_0_l2c_set 1024
core_0_l2c_way 8
core_0_l2c_rq_size 32
core_0_l2c_wq_size 32
core_0_l2c_pq_size 16
core_0_l2c_mshr_size 32
core_0_l2c_hit_latency 5
core_0_l2c_fill_latency 5
core_0_l2c_max_tag_check 1
core_0_l2c_max_fill 1
llc_set 2048
llc_way 16
llc_rq_size 32
llc_wq_size 32
llc_pq_size 32
llc_mshr_size 64
llc_hit_latency 10
llc_fill_latency 10
llc_max_tag_check 1
llc_max_fill 1
dram_channels 1
dram_ranks 1
dram_bankgroups 8
dram_banks 4
dram_rows 16384
dram_columns 1024
dram_channel_width 8
dram_rq_size 64
dram_wq_size 64
dram_size 4294967296
core_0_itlb_prefetcher no
core_0_dtlb_prefetcher no
core_0_stlb_prefetcher no
core_0_l1i_prefetcher next_line
core_0_l1d_prefetcher berti
core_0_l2c_prefetcher pythia
llc_prefetcher no
llc_replacement drrip

Core_0_instructions 50000003
Core_0_cycles 238041399
Core_0_IPC 0.210048
Core_0_branch_prediction_accuracy 94.9139
Core_0_branch_MPKI 6.32068
Core_0_average_ROB_occupancy_at_mispredict 110.334

Core_0_ITLB_total_access 1611698
Core_0_ITLB_total_hit 1611698
Core_0_ITLB_total_miss 0
Core_0_ITLB_total_MPKI 0
Core_0_ITLB_total_miss_rate 0
Core_0_ITLB_demand_access 1611698
Core_0_ITLB_demand_hit 1611698
Core_0_ITLB_demand_miss 0
Core_0_ITLB_demand_MPKI 0
Core_0_ITLB_demand_miss_rate 0
Core_0_ITLB_load_access 1611698
Core_0_ITLB_load_hit 1611698
Core_0_ITLB_load_miss 0
Core_0_ITLB_load_MPKI 0
Core_0_ITLB_load_miss_rate 0
Core_0_ITLB_rfo_access 0
Core_0_ITLB_rfo_hit 0
Core_0_ITLB_rfo_miss 0
Core_0_ITLB_rfo_MPKI 0
Core_0_ITLB_rfo_miss_rate 0
Core_0_ITLB_prefetch_access 0
Core_0_ITLB_prefetch_hit 0
Core_0_ITLB_prefetch_miss 0
Core_0_ITLB_prefetch_MPKI 0
Core_0_ITLB_prefetch_miss_rate 0
Core_0_ITLB_writeback_access 0
Core_0_ITLB_writeback_hit 0
Core_0_ITLB_writeback_miss 0
Core_0_ITLB_writeback_MPKI 0
Core_0_ITLB_writeback_miss_rate 0
Core_0_ITLB_prefetch_requested 0
Core_0_ITLB_prefetch_issued 0
Core_0_ITLB_prefetch_useful 0
Core_0_ITLB_prefetch_useless 0
Core_0_ITLB_prefetch_late 0
Core_0_ITLB_prefetch_accuracy 0
Core_0_ITLB_prefetch_coverage 0

Core_0_DTLB_total_access 28344271
Core_0_DTLB_total_hit 18857816
Core_0_DTLB_total_miss 9486455
Core_0_DTLB_total_MPKI 189.729
Core_0_DTLB_total_miss_rate 0.334687
Core_0_DTLB_demand_access 28344271
Core_0_DTLB_demand_hit 18857816
Core_0_DTLB_demand_miss 9486455
Core_0_DTLB_demand_MPKI 189.729
Core_0_DTLB_demand_miss_rate 0.334687
Core_0_DTLB_load_access 28344271
Core_0_DTLB_load_hit 18857816
Core_0_DTLB_load_miss 9486455
Core_0_DTLB_load_MPKI 189.729
Core_0_DTLB_load_miss_rate 0.334687
Core_0_DTLB_rfo_access 0
Core_0_DTLB_rfo_hit 0
Core_0_DTLB_rfo_miss 0
Core_0_DTLB_rfo_MPKI 0
Core_0_DTLB_rfo_miss_rate 0
Core_0_DTLB_prefetch_access 0
Core_0_DTLB_prefetch_hit 0
Core_0_DTLB_prefetch_miss 0
Core_0_DTLB_prefetch_MPKI 0
Core_0_DTLB_prefetch_miss_rate 0
Core_0_DTLB_writeback_access 0
Core_0_DTLB_writeback_hit 0
Core_0_DTLB_writeback_miss 0
Core_0_DTLB_writeback_MPKI 0
Core_0_DTLB_writeback_miss_rate 0
Core_0_DTLB_prefetch_requested 0
Core_0_DTLB_prefetch_issued 0
Core_0_DTLB_prefetch_useful 0
Core_0_DTLB_prefetch_useless 0
Core_0_DTLB_prefetch_late 0
Core_0_DTLB_prefetch_accuracy 0
Core_0_DTLB_prefetch_coverage 0

Core_0_STLB_total_access 1465860
Core_0_STLB_total_hit 283574
Core_0_STLB_total_miss 1182286
Core_0_STLB_total_MPKI 23.6457
Core_0_STLB_total_miss_rate 0.806548
Core_0_STLB_demand_access 1465860
Core_0_STLB_demand_hit 283574
Core_0_STLB_demand_miss 1182286
Core_0_STLB_demand_MPKI 23.6457
Core_0_STLB_demand_miss_rate 0.806548
Core_0_STLB_load_access 1465860
Core_0_STLB_load_hit 283574
Core_0_STLB_load_miss 1182286
Core_0_STLB_load_MPKI 23.6457
Core_0_STLB_load_miss_rate 0.806548
Core_0_STLB_rfo_access 0
Core_0_STLB_rfo_hit 0
Core_0_STLB_rfo_miss 0
Core_0_STLB_rfo_MPKI 0
Core_0_STLB_rfo_miss_rate 0
Core_0_STLB_prefetch_access 0
Core_0_STLB_prefetch_hit 0
Core_0_STLB_prefetch_miss 0
Core_0_STLB_prefetch_MPKI 0
Core_0_STLB_prefetch_miss_rate 0
Core_0_STLB_writeback_access 0
Core_0_STLB_writeback_hit 0
Core_0_STLB_writeback_miss 0
Core_0_STLB_writeback_MPKI 0
Core_0_STLB_writeback_miss_rate 0
Core_0_STLB_prefetch_requested 0
Core_0_STLB_prefetch_issued 0
Core_0_STLB_prefetch_useful 0
Core_0_STLB_prefetch_useless 0
Core_0_STLB_prefetch_late 0
Core_0_STLB_prefetch_accuracy 0
Core_0_STLB_prefetch_coverage 0

Core_0_L1I_total_access 1612511
Core_0_L1I_total_hit 1612511
Core_0_L1I_total_miss 0
Core_0_L1I_total_MPKI 0
Core_0_L1I_total_miss_rate 0
Core_0_L1I_demand_access 1612511
Core_0_L1I_demand_hit 1612511
Core_0_L1I_demand_miss 0
Core_0_L1I_demand_MPKI 0
Core_0_L1I_demand_miss_rate 0
Core_0_L1I_load_access 1612511
Core_0_L1I_load_hit 1612511
Core_0_L1I_load_miss 0
Core_0_L1I_load_MPKI 0
Core_0_L1I_load_miss_rate 0
Core_0_L1I_rfo_access 0
Core_0_L1I_rfo_hit 0
Core_0_L1I_rfo_miss 0
Core_0_L1I_rfo_MPKI 0
Core_0_L1I_rfo_miss_rate 0
Core_0_L1I_prefetch_access 0
Core_0_L1I_prefetch_hit 0
Core_0_L1I_prefetch_miss 0
Core_0_L1I_prefetch_MPKI 0
Core_0_L1I_prefetch_miss_rate 0
Core_0_L1I_writeback_access 0
Core_0_L1I_writeback_hit 0
Core_0_L1I_writeback_miss 0
Core_0_L1I_writeback_MPKI 0
Core_0_L1I_writeback_miss_rate 0
Core_0_L1I_prefetch_requested 0
Core_0_L1I_prefetch_issued 0
Core_0_L1I_prefetch_useful 0
Core_0_L1I_prefetch_useless 0
Core_0_L1I_prefetch_late 0
Core_0_L1I_prefetch_accuracy 0
Core_0_L1I_prefetch_coverage 0

Core_0_L1D_total_access 31170518
Core_0_L1D_total_hit 18144188
Core_0_L1D_total_miss 13026330
Core_0_L1D_total_MPKI 260.527
Core_0_L1D_total_miss_rate 0.417905
Core_0_L1D_demand_access 11624753
Core_0_L1D_demand_hit 10451911
Core_0_L1D_demand_miss 1172842
Core_0_L1D_demand_MPKI 23.4568
Core_0_L1D_demand_miss_rate 0.100892
Core_0_L1D_load_access 11624753
Core_0_L1D_load_hit 10451911
Core_0_L1D_load_miss 1172842
Core_0_L1D_load_MPKI 23.4568
Core_0_L1D_load_miss_rate 0.100892
Core_0_L1D_rfo_access 0
Core_0_L1D_rfo_hit 0
Core_0_L1D_rfo_miss 0
Core_0_L1D_rfo_MPKI 0
Core_0_L1D_rfo_miss_rate 0
Core_0_L1D_prefetch_access 2053488
Core_0_L1D_prefetch_hit 41566
Core_0_L1D_prefetch_miss 2011922
Core_0_L1D_prefetch_MPKI 40.2384
Core_0_L1D_prefetch_miss_rate 0.979758
Core_0_L1D_writeback_access 17492277
Core_0_L1D_writeback_hit 7650711
Core_0_L1D_writeback_miss 9841566
Core_0_L1D_writeback_MPKI 196.831
Core_0_L1D_writeback_miss_rate 0.562623
Core_0_L1D_prefetch_requested 2061884
Core_0_L1D_prefetch_issued 2053480
Core_0_L1D_prefetch_useful 1238727
Core_0_L1D_prefetch_useless 719091
Core_0_L1D_prefetch_late 44018
Core_0_L1D_prefetch_accuracy 0.603233
Core_0_L1D_prefetch_coverage 0.51366

Core_0_L2C_total_access 17761941
Core_0_L2C_total_hit 9703074
Core_0_L2C_total_miss 8058867
Core_0_L2C_total_MPKI 161.177
Core_0_L2C_total_miss_rate 0.453715
Core_0_L2C_demand_access 3275362
Core_0_L2C_demand_hit 367391
Core_0_L2C_demand_miss 2907971
Core_0_L2C_demand_MPKI 58.1594
Core_0_L2C_demand_miss_rate 0.887832
Core_0_L2C_load_access 1086422
Core_0_L2C_load_hit 365009
Core_0_L2C_load_miss 721413
Core_0_L2C_load_MPKI 14.4283
Core_0_L2C_load_miss_rate 0.664027
Core_0_L2C_rfo_access 2188940
Core_0_L2C_rfo_hit 2382
Core_0_L2C_rfo_miss 2186558
Core_0_L2C_rfo_MPKI 43.7312
Core_0_L2C_rfo_miss_rate 0.998912
Core_0_L2C_prefetch_access 9972414
Core_0_L2C_prefetch_hit 4824079
Core_0_L2C_prefetch_miss 5148335
Core_0_L2C_prefetch_MPKI 102.967
Core_0_L2C_prefetch_miss_rate 0.516258
Core_0_L2C_writeback_access 4514165
Core_0_L2C_writeback_hit 4511604
Core_0_L2C_writeback_miss 2561
Core_0_L2C_writeback_MPKI 0.05122
Core_0_L2C_writeback_miss_rate 0.000567325
Core_0_L2C_prefetch_requested 9249084
Core_0_L2C_prefetch_issued 8014530
Core_0_L2C_prefetch_useful 1310913
Core_0_L2C_prefetch_useless 1761975
Core_0_L2C_prefetch_late 13783
Core_0_L2C_prefetch_accuracy 0.163567
Core_0_L2C_prefetch_coverage 0.310725

Core_0_LLC_total_access 10977637
Core_0_LLC_total_hit 6597625
Core_0_LLC_total_miss 4380012
Core_0_LLC_total_MPKI 87.6002
Core_0_LLC_total_miss_rate 0.398994
Core_0_LLC_demand_access 2894187
Core_0_LLC_demand_hit 544961
Core_0_LLC_demand_miss 2349226
Core_0_LLC_demand_MPKI 46.9845
Core_0_LLC_demand_miss_rate 0.811705
Core_0_LLC_load_access 707629
Core_0_LLC_load_hit 541912
Core_0_LLC_load_miss 165717
Core_0_LLC_load_MPKI 3.31434
Core_0_LLC_load_miss_rate 0.234186
Core_0_LLC_rfo_access 2186558
Core_0_LLC_rfo_hit 3049
Core_0_LLC_rfo_miss 2183509
Core_0_LLC_rfo_MPKI 43.6702
Core_0_LLC_rfo_miss_rate 0.998606
Core_0_LLC_prefetch_access 3754684
Core_0_LLC_prefetch_hit 2153319
Core_0_LLC_prefetch_miss 1601365
Core_0_LLC_prefetch_MPKI 32.0273
Core_0_LLC_prefetch_miss_rate 0.426498
Core_0_LLC_writeback_access 4328766
Core_0_LLC_writeback_hit 3899345
Core_0_LLC_writeback_miss 429421
Core_0_LLC_writeback_MPKI 8.58842
Core_0_LLC_writeback_miss_rate 0.0992017
Core_0_LLC_prefetch_requested 0
Core_0_LLC_prefetch_issued 0
Core_0_LLC_prefetch_useful 0
Core_0_LLC_prefetch_useless 0
Core_0_LLC_prefetch_late 0
Core_0_LLC_prefetch_accuracy 0
Core_0_LLC_prefetch_coverage 0

[DRAM Statistics]
Channel_0_RQ_row_buffer_hit 227825
Channel_0_RQ_row_buffer_miss 4593660
Channel_0_WQ_row_buffer_hit 552217
Channel_0_WQ_row_buffer_miss 3061730
Channel_0_WQ_full 0
Channel_0_dbus_congested 29761139
DRAM_total_RQ_row_buffer_hit 227825
DRAM_total_RQ_row_buffer_miss 4593660
DRAM_total_WQ_row_buffer_hit 552217
DRAM_total_WQ_row_buffer_miss 3061730
DRAM_total_WQ_full 0
DRAM_total_dbus_congested 29761139
DRAM_avg_congested_cycle 7.64293

======STLB miss causes ========
Core_0_STLB_miss_cause_breakdown
Core_0_STLB_cause_Demand_Data_miss 1182286
Core_0_STLB_cause_Demand_Data_miss_rate 0.806548
Core_0_STLB_cause_Demand_Instruction_miss 0
Core_0_STLB_cause_Demand_Instruction_miss_rate 0
Core_0_STLB_cause_L1D_Prefetch_miss 0
Core_0_STLB_cause_L1D_Prefetch_miss_rate 0
Core_0_STLB_cause_L1I_Prefetch_miss 0
Core_0_STLB_cause_L1I_Prefetch_miss_rate 0
Core_0_STLB_cause_Other_miss 0
Core_0_STLB_cause_Other_miss_rate 0
Core_0_STLB_Demand_miss 1182286
Core_0_STLB_Demand_miss_rate 0.806548
Core_0_STLB_L1D_Prefetch_miss 0
Core_0_STLB_L1D_Prefetch_miss_rate 0
Core_0_STLB_Other_miss 0
Core_0_STLB_Other_miss_rate 0
