[VMEM] WARNING: physical memory size is smaller than virtual memory size.

*** ChampSim Multicore Out-of-Order Simulator ***
Warmup Instructions: 20000000
Simulation Instructions: 50000000
Number of CPUs: 1
Page size: 4096
STLB ideal mode: l1pref
Core 0: /data0/tzh/champsim_traces/SPEC17/605.mcf_s-1554B.champsimtrace.xz
 L1D Berti prefetcher
Off-chip DRAM Size: 4 GiB Channels: 1 Width: 64-bit Data Rate: 3205 MT/s
Warmup halting CPU 0 at instruction 20000004 cycle 5450831 for remainder of phase
Warmup finished CPU 0 instructions: 20000004 cycles: 5450831 cumulative IPC: 3.669 (Simulation time: 00 hr 01 min 31 sec)
Warmup complete CPU 0 instructions: 20000004 cycles: 5450831 cumulative IPC: 3.669 (Simulation time: 00 hr 01 min 31 sec)
Simulation finished CPU 0 instructions: 50000002 cycles: 92325712 cumulative IPC: 0.5416 (Simulation time: 00 hr 13 min 53 sec)
Simulation complete CPU 0 instructions: 50000002 cycles: 92325712 cumulative IPC: 0.5416 (Simulation time: 00 hr 13 min 53 sec)

ChampSim completed all CPUs

=== Simulation ===
CPU 0 runs /data0/tzh/champsim_traces/SPEC17/605.mcf_s-1554B.champsimtrace.xz

Region of Interest Statistics

CPU 0 cumulative IPC: 0.5416 instructions: 50000002 cycles: 92325712
CPU 0 Branch Prediction Accuracy: 97.86% MPKI: 3.884 Average ROB Occupancy at Mispredict: 57.87
Branch type MPKI
BRANCH_DIRECT_JUMP: 0
BRANCH_INDIRECT: 0
BRANCH_CONDITIONAL: 3.884
BRANCH_DIRECT_CALL: 0
BRANCH_INDIRECT_CALL: 0
BRANCH_RETURN: 0

cpu0->cpu0_STLB TOTAL        ACCESS:     196826 HIT:     193166 MISS:       3660 MSHR_MERGE:          0
cpu0->cpu0_STLB LOAD         ACCESS:     196826 HIT:     193166 MISS:       3660 MSHR_MERGE:          0
cpu0->cpu0_STLB RFO          ACCESS:          0 HIT:          0 MISS:          0 MSHR_MERGE:          0
cpu0->cpu0_STLB PREFETCH     ACCESS:          0 HIT:          0 MISS:          0 MSHR_MERGE:          0
cpu0->cpu0_STLB WRITE        ACCESS:          0 HIT:          0 MISS:          0 MSHR_MERGE:          0
cpu0->cpu0_STLB TRANSLATION  ACCESS:          0 HIT:          0 MISS:          0 MSHR_MERGE:          0
cpu0->cpu0_STLB PREFETCH REQUESTED:          0 ISSUED:          0 USEFUL:          0 USELESS:          0 LATE:          0
cpu0->cpu0_STLB AVERAGE MISS LATENCY: 295.1 cycles
cpu0->cpu0_L2C TOTAL        ACCESS:   25242445 HIT:    9521786 MISS:   15720659 MSHR_MERGE:    4838424
cpu0->cpu0_L2C LOAD         ACCESS:    2230666 HIT:     782143 MISS:    1448523 MSHR_MERGE:     271776
cpu0->cpu0_L2C RFO          ACCESS:     151199 HIT:       3882 MISS:     147317 MSHR_MERGE:        188
cpu0->cpu0_L2C PREFETCH     ACCESS:   22669755 HIT:    8546469 MISS:   14123286 MSHR_MERGE:    4566460
cpu0->cpu0_L2C WRITE        ACCESS:     188335 HIT:     187977 MISS:        358 MSHR_MERGE:          0
cpu0->cpu0_L2C TRANSLATION  ACCESS:       2490 HIT:       1315 MISS:       1175 MSHR_MERGE:          0
cpu0->cpu0_L2C PREFETCH REQUESTED:   23564051 ISSUED:   16984331 USEFUL:    3625609 USELESS:    3718927 LATE:     271964
cpu0->cpu0_L2C AVERAGE MISS LATENCY: 134.3 cycles
cpu0->cpu0_L1I TOTAL        ACCESS:    8131922 HIT:    8131922 MISS:          0 MSHR_MERGE:          0
cpu0->cpu0_L1I LOAD         ACCESS:    8131922 HIT:    8131922 MISS:          0 MSHR_MERGE:          0
cpu0->cpu0_L1I RFO          ACCESS:          0 HIT:          0 MISS:          0 MSHR_MERGE:          0
cpu0->cpu0_L1I PREFETCH     ACCESS:          0 HIT:          0 MISS:          0 MSHR_MERGE:          0
cpu0->cpu0_L1I WRITE        ACCESS:          0 HIT:          0 MISS:          0 MSHR_MERGE:          0
cpu0->cpu0_L1I TRANSLATION  ACCESS:          0 HIT:          0 MISS:          0 MSHR_MERGE:          0
cpu0->cpu0_L1I PREFETCH REQUESTED:          0 ISSUED:          0 USEFUL:          0 USELESS:          0 LATE:          0
cpu0->cpu0_L1I AVERAGE MISS LATENCY: - cycles
cpu0->cpu0_L1D TOTAL        ACCESS:   28020875 HIT:   17439308 MISS:   10581567 MSHR_MERGE:    2511799
cpu0->cpu0_L1D LOAD         ACCESS:   18145874 HIT:   14356632 MISS:    3789242 MSHR_MERGE:    1558576
cpu0->cpu0_L1D RFO          ACCESS:          0 HIT:          0 MISS:          0 MSHR_MERGE:          0
cpu0->cpu0_L1D PREFETCH     ACCESS:    6264123 HIT:     196777 MISS:    6067346 MSHR_MERGE:     381937
cpu0->cpu0_L1D WRITE        ACCESS:    3603549 HIT:    2881060 MISS:     722489 MSHR_MERGE:     571286
cpu0->cpu0_L1D TRANSLATION  ACCESS:       7329 HIT:       4839 MISS:       2490 MSHR_MERGE:          0
cpu0->cpu0_L1D PREFETCH REQUESTED:    6452933 ISSUED:    6264115 USEFUL:    5295606 USELESS:     389751 LATE:    1231487
cpu0->cpu0_L1D AVERAGE MISS LATENCY: 111.8 cycles
cpu0->cpu0_ITLB TOTAL        ACCESS:    5699873 HIT:    5699873 MISS:          0 MSHR_MERGE:          0
cpu0->cpu0_ITLB LOAD         ACCESS:    5699873 HIT:    5699873 MISS:          0 MSHR_MERGE:          0
cpu0->cpu0_ITLB RFO          ACCESS:          0 HIT:          0 MISS:          0 MSHR_MERGE:          0
cpu0->cpu0_ITLB PREFETCH     ACCESS:          0 HIT:          0 MISS:          0 MSHR_MERGE:          0
cpu0->cpu0_ITLB WRITE        ACCESS:          0 HIT:          0 MISS:          0 MSHR_MERGE:          0
cpu0->cpu0_ITLB TRANSLATION  ACCESS:          0 HIT:          0 MISS:          0 MSHR_MERGE:          0
cpu0->cpu0_ITLB PREFETCH REQUESTED:          0 ISSUED:          0 USEFUL:          0 USELESS:          0 LATE:          0
cpu0->cpu0_ITLB AVERAGE MISS LATENCY: - cycles
cpu0->cpu0_DTLB TOTAL        ACCESS:   25894190 HIT:   25627049 MISS:     267141 MSHR_MERGE:      70315
cpu0->cpu0_DTLB LOAD         ACCESS:   25894190 HIT:   25627049 MISS:     267141 MSHR_MERGE:      70315
cpu0->cpu0_DTLB RFO          ACCESS:          0 HIT:          0 MISS:          0 MSHR_MERGE:          0
cpu0->cpu0_DTLB PREFETCH     ACCESS:          0 HIT:          0 MISS:          0 MSHR_MERGE:          0
cpu0->cpu0_DTLB WRITE        ACCESS:          0 HIT:          0 MISS:          0 MSHR_MERGE:          0
cpu0->cpu0_DTLB TRANSLATION  ACCESS:          0 HIT:          0 MISS:          0 MSHR_MERGE:          0
cpu0->cpu0_DTLB PREFETCH REQUESTED:          0 ISSUED:          0 USEFUL:          0 USELESS:          0 LATE:          0
cpu0->cpu0_DTLB AVERAGE MISS LATENCY: 10.51 cycles
cpu0->LLC TOTAL        ACCESS:   11067262 HIT:    5325393 MISS:    5741869 MSHR_MERGE:          0
cpu0->LLC LOAD         ACCESS:    1176747 HIT:     774975 MISS:     401772 MSHR_MERGE:          0
cpu0->LLC RFO          ACCESS:     147129 HIT:        536 MISS:     146593 MSHR_MERGE:          0
cpu0->LLC PREFETCH     ACCESS:    9556826 HIT:    4510014 MISS:    5046812 MSHR_MERGE:          0
cpu0->LLC WRITE        ACCESS:     185385 HIT:      39841 MISS:     145544 MSHR_MERGE:          0
cpu0->LLC TRANSLATION  ACCESS:       1175 HIT:         27 MISS:       1148 MSHR_MERGE:          0
cpu0->LLC PREFETCH REQUESTED:          0 ISSUED:          0 USEFUL:          0 USELESS:          0 LATE:          0
cpu0->LLC AVERAGE MISS LATENCY: 220.1 cycles

DRAM Statistics

Channel 0 RQ ROW_BUFFER_HIT:     636586
  ROW_BUFFER_MISS:    4959622
  AVG DBUS CONGESTED CYCLE: 3.419
Channel 0 WQ ROW_BUFFER_HIT:       8439
  ROW_BUFFER_MISS:     175159
  FULL:         52
Channel 0 REFRESHES ISSUED:       7694

[ROI Statistics]
[System Configuration]
num_cpus 1
cpu_freq 4000
fetch_width 6
decode_width 6
dispatch_width 6
execute_width 6
lq_width 2
sq_width 2
retire_width 6
scheduler_size 160
branch_mispredict_penalty 1
rob_size 352
lq_size 240
sq_size 112
ifetch_buffer_size 64
decode_buffer_size 32
dispatch_buffer_size 32
register_file_size 288
decode_latency 1
dispatch_latency 1
schedule_latency 0
execute_latency 0
page_size 4096
block_size 64
core_0_itlb_set 16
core_0_itlb_way 4
core_0_itlb_rq_size 16
core_0_itlb_wq_size 16
core_0_itlb_pq_size 0
core_0_itlb_mshr_size 8
core_0_itlb_hit_latency 1
core_0_itlb_fill_latency 1
core_0_itlb_max_tag_check 2
core_0_itlb_max_fill 2
core_0_dtlb_set 16
core_0_dtlb_way 4
core_0_dtlb_rq_size 16
core_0_dtlb_wq_size 16
core_0_dtlb_pq_size 0
core_0_dtlb_mshr_size 8
core_0_dtlb_hit_latency 1
core_0_dtlb_fill_latency 1
core_0_dtlb_max_tag_check 2
core_0_dtlb_max_fill 2
core_0_stlb_set 128
core_0_stlb_way 12
core_0_stlb_rq_size 32
core_0_stlb_wq_size 32
core_0_stlb_pq_size 0
core_0_stlb_mshr_size 16
core_0_stlb_hit_latency 4
core_0_stlb_fill_latency 4
core_0_stlb_max_tag_check 1
core_0_stlb_max_fill 1
core_0_l1i_set 64
core_0_l1i_way 8
core_0_l1i_rq_size 64
core_0_l1i_wq_size 64
core_0_l1i_pq_size 32
core_0_l1i_mshr_size 8
core_0_l1i_hit_latency 2
core_0_l1i_fill_latency 2
core_0_l1i_max_tag_check 2
core_0_l1i_max_fill 2
core_0_l1d_set 64
core_0_l1d_way 12
core_0_l1d_rq_size 64
core_0_l1d_wq_size 64
core_0_l1d_pq_size 8
core_0_l1d_mshr_size 16
core_0_l1d_hit_latency 2
core_0_l1d_fill_latency 3
core_0_l1d_max_tag_check 2
core_0_l1d_max_fill 2
core_0_l2c_set 1024
core_0_l2c_way 8
core_0_l2c_rq_size 32
core_0_l2c_wq_size 32
core_0_l2c_pq_size 16
core_0_l2c_mshr_size 32
core_0_l2c_hit_latency 5
core_0_l2c_fill_latency 5
core_0_l2c_max_tag_check 1
core_0_l2c_max_fill 1
llc_set 2048
llc_way 16
llc_rq_size 32
llc_wq_size 32
llc_pq_size 32
llc_mshr_size 64
llc_hit_latency 10
llc_fill_latency 10
llc_max_tag_check 1
llc_max_fill 1
dram_channels 1
dram_ranks 1
dram_bankgroups 8
dram_banks 4
dram_rows 16384
dram_columns 1024
dram_channel_width 8
dram_rq_size 64
dram_wq_size 64
dram_size 4294967296
core_0_itlb_prefetcher no
core_0_dtlb_prefetcher no
core_0_stlb_prefetcher no
core_0_l1i_prefetcher next_line
core_0_l1d_prefetcher berti
core_0_l2c_prefetcher pythia
llc_prefetcher no
llc_replacement drrip

Core_0_instructions 50000002
Core_0_cycles 92325712
Core_0_IPC 0.541561
Core_0_branch_prediction_accuracy 97.8649
Core_0_branch_MPKI 3.88372
Core_0_average_ROB_occupancy_at_mispredict 57.8674

Core_0_ITLB_total_access 5699873
Core_0_ITLB_total_hit 5699873
Core_0_ITLB_total_miss 0
Core_0_ITLB_total_MPKI 0
Core_0_ITLB_total_miss_rate 0
Core_0_ITLB_demand_access 5699873
Core_0_ITLB_demand_hit 5699873
Core_0_ITLB_demand_miss 0
Core_0_ITLB_demand_MPKI 0
Core_0_ITLB_demand_miss_rate 0
Core_0_ITLB_load_access 5699873
Core_0_ITLB_load_hit 5699873
Core_0_ITLB_load_miss 0
Core_0_ITLB_load_MPKI 0
Core_0_ITLB_load_miss_rate 0
Core_0_ITLB_rfo_access 0
Core_0_ITLB_rfo_hit 0
Core_0_ITLB_rfo_miss 0
Core_0_ITLB_rfo_MPKI 0
Core_0_ITLB_rfo_miss_rate 0
Core_0_ITLB_prefetch_access 0
Core_0_ITLB_prefetch_hit 0
Core_0_ITLB_prefetch_miss 0
Core_0_ITLB_prefetch_MPKI 0
Core_0_ITLB_prefetch_miss_rate 0
Core_0_ITLB_writeback_access 0
Core_0_ITLB_writeback_hit 0
Core_0_ITLB_writeback_miss 0
Core_0_ITLB_writeback_MPKI 0
Core_0_ITLB_writeback_miss_rate 0
Core_0_ITLB_prefetch_requested 0
Core_0_ITLB_prefetch_issued 0
Core_0_ITLB_prefetch_useful 0
Core_0_ITLB_prefetch_useless 0
Core_0_ITLB_prefetch_late 0
Core_0_ITLB_prefetch_accuracy 0
Core_0_ITLB_prefetch_coverage 0

Core_0_DTLB_total_access 25894190
Core_0_DTLB_total_hit 25627049
Core_0_DTLB_total_miss 267141
Core_0_DTLB_total_MPKI 5.34282
Core_0_DTLB_total_miss_rate 0.0103166
Core_0_DTLB_demand_access 25894190
Core_0_DTLB_demand_hit 25627049
Core_0_DTLB_demand_miss 267141
Core_0_DTLB_demand_MPKI 5.34282
Core_0_DTLB_demand_miss_rate 0.0103166
Core_0_DTLB_load_access 25894190
Core_0_DTLB_load_hit 25627049
Core_0_DTLB_load_miss 267141
Core_0_DTLB_load_MPKI 5.34282
Core_0_DTLB_load_miss_rate 0.0103166
Core_0_DTLB_rfo_access 0
Core_0_DTLB_rfo_hit 0
Core_0_DTLB_rfo_miss 0
Core_0_DTLB_rfo_MPKI 0
Core_0_DTLB_rfo_miss_rate 0
Core_0_DTLB_prefetch_access 0
Core_0_DTLB_prefetch_hit 0
Core_0_DTLB_prefetch_miss 0
Core_0_DTLB_prefetch_MPKI 0
Core_0_DTLB_prefetch_miss_rate 0
Core_0_DTLB_writeback_access 0
Core_0_DTLB_writeback_hit 0
Core_0_DTLB_writeback_miss 0
Core_0_DTLB_writeback_MPKI 0
Core_0_DTLB_writeback_miss_rate 0
Core_0_DTLB_prefetch_requested 0
Core_0_DTLB_prefetch_issued 0
Core_0_DTLB_prefetch_useful 0
Core_0_DTLB_prefetch_useless 0
Core_0_DTLB_prefetch_late 0
Core_0_DTLB_prefetch_accuracy 0
Core_0_DTLB_prefetch_coverage 0

Core_0_STLB_total_access 196826
Core_0_STLB_total_hit 193166
Core_0_STLB_total_miss 3660
Core_0_STLB_total_MPKI 0.0732
Core_0_STLB_total_miss_rate 0.0185951
Core_0_STLB_demand_access 196826
Core_0_STLB_demand_hit 193166
Core_0_STLB_demand_miss 3660
Core_0_STLB_demand_MPKI 0.0732
Core_0_STLB_demand_miss_rate 0.0185951
Core_0_STLB_load_access 196826
Core_0_STLB_load_hit 193166
Core_0_STLB_load_miss 3660
Core_0_STLB_load_MPKI 0.0732
Core_0_STLB_load_miss_rate 0.0185951
Core_0_STLB_rfo_access 0
Core_0_STLB_rfo_hit 0
Core_0_STLB_rfo_miss 0
Core_0_STLB_rfo_MPKI 0
Core_0_STLB_rfo_miss_rate 0
Core_0_STLB_prefetch_access 0
Core_0_STLB_prefetch_hit 0
Core_0_STLB_prefetch_miss 0
Core_0_STLB_prefetch_MPKI 0
Core_0_STLB_prefetch_miss_rate 0
Core_0_STLB_writeback_access 0
Core_0_STLB_writeback_hit 0
Core_0_STLB_writeback_miss 0
Core_0_STLB_writeback_MPKI 0
Core_0_STLB_writeback_miss_rate 0
Core_0_STLB_prefetch_requested 0
Core_0_STLB_prefetch_issued 0
Core_0_STLB_prefetch_useful 0
Core_0_STLB_prefetch_useless 0
Core_0_STLB_prefetch_late 0
Core_0_STLB_prefetch_accuracy 0
Core_0_STLB_prefetch_coverage 0

Core_0_L1I_total_access 8131922
Core_0_L1I_total_hit 8131922
Core_0_L1I_total_miss 0
Core_0_L1I_total_MPKI 0
Core_0_L1I_total_miss_rate 0
Core_0_L1I_demand_access 8131922
Core_0_L1I_demand_hit 8131922
Core_0_L1I_demand_miss 0
Core_0_L1I_demand_MPKI 0
Core_0_L1I_demand_miss_rate 0
Core_0_L1I_load_access 8131922
Core_0_L1I_load_hit 8131922
Core_0_L1I_load_miss 0
Core_0_L1I_load_MPKI 0
Core_0_L1I_load_miss_rate 0
Core_0_L1I_rfo_access 0
Core_0_L1I_rfo_hit 0
Core_0_L1I_rfo_miss 0
Core_0_L1I_rfo_MPKI 0
Core_0_L1I_rfo_miss_rate 0
Core_0_L1I_prefetch_access 0
Core_0_L1I_prefetch_hit 0
Core_0_L1I_prefetch_miss 0
Core_0_L1I_prefetch_MPKI 0
Core_0_L1I_prefetch_miss_rate 0
Core_0_L1I_writeback_access 0
Core_0_L1I_writeback_hit 0
Core_0_L1I_writeback_miss 0
Core_0_L1I_writeback_MPKI 0
Core_0_L1I_writeback_miss_rate 0
Core_0_L1I_prefetch_requested 0
Core_0_L1I_prefetch_issued 0
Core_0_L1I_prefetch_useful 0
Core_0_L1I_prefetch_useless 0
Core_0_L1I_prefetch_late 0
Core_0_L1I_prefetch_accuracy 0
Core_0_L1I_prefetch_coverage 0

Core_0_L1D_total_access 28013546
Core_0_L1D_total_hit 17434469
Core_0_L1D_total_miss 10579077
Core_0_L1D_total_MPKI 211.582
Core_0_L1D_total_miss_rate 0.377641
Core_0_L1D_demand_access 18145874
Core_0_L1D_demand_hit 14356632
Core_0_L1D_demand_miss 3789242
Core_0_L1D_demand_MPKI 75.7848
Core_0_L1D_demand_miss_rate 0.208821
Core_0_L1D_load_access 18145874
Core_0_L1D_load_hit 14356632
Core_0_L1D_load_miss 3789242
Core_0_L1D_load_MPKI 75.7848
Core_0_L1D_load_miss_rate 0.208821
Core_0_L1D_rfo_access 0
Core_0_L1D_rfo_hit 0
Core_0_L1D_rfo_miss 0
Core_0_L1D_rfo_MPKI 0
Core_0_L1D_rfo_miss_rate 0
Core_0_L1D_prefetch_access 6264123
Core_0_L1D_prefetch_hit 196777
Core_0_L1D_prefetch_miss 6067346
Core_0_L1D_prefetch_MPKI 121.347
Core_0_L1D_prefetch_miss_rate 0.968587
Core_0_L1D_writeback_access 3603549
Core_0_L1D_writeback_hit 2881060
Core_0_L1D_writeback_miss 722489
Core_0_L1D_writeback_MPKI 14.4498
Core_0_L1D_writeback_miss_rate 0.200494
Core_0_L1D_prefetch_requested 6452933
Core_0_L1D_prefetch_issued 6264115
Core_0_L1D_prefetch_useful 5295606
Core_0_L1D_prefetch_useless 389751
Core_0_L1D_prefetch_late 1231487
Core_0_L1D_prefetch_accuracy 0.845388
Core_0_L1D_prefetch_coverage 0.582905

Core_0_L2C_total_access 25239955
Core_0_L2C_total_hit 9520471
Core_0_L2C_total_miss 15719484
Core_0_L2C_total_MPKI 314.39
Core_0_L2C_total_miss_rate 0.622802
Core_0_L2C_demand_access 2381865
Core_0_L2C_demand_hit 786025
Core_0_L2C_demand_miss 1595840
Core_0_L2C_demand_MPKI 31.9168
Core_0_L2C_demand_miss_rate 0.669996
Core_0_L2C_load_access 2230666
Core_0_L2C_load_hit 782143
Core_0_L2C_load_miss 1448523
Core_0_L2C_load_MPKI 28.9705
Core_0_L2C_load_miss_rate 0.649368
Core_0_L2C_rfo_access 151199
Core_0_L2C_rfo_hit 3882
Core_0_L2C_rfo_miss 147317
Core_0_L2C_rfo_MPKI 2.94634
Core_0_L2C_rfo_miss_rate 0.974325
Core_0_L2C_prefetch_access 22669755
Core_0_L2C_prefetch_hit 8546469
Core_0_L2C_prefetch_miss 14123286
Core_0_L2C_prefetch_MPKI 282.466
Core_0_L2C_prefetch_miss_rate 0.623001
Core_0_L2C_writeback_access 188335
Core_0_L2C_writeback_hit 187977
Core_0_L2C_writeback_miss 358
Core_0_L2C_writeback_MPKI 0.00716
Core_0_L2C_writeback_miss_rate 0.00190087
Core_0_L2C_prefetch_requested 23564051
Core_0_L2C_prefetch_issued 16984331
Core_0_L2C_prefetch_useful 3625609
Core_0_L2C_prefetch_useless 3718927
Core_0_L2C_prefetch_late 271964
Core_0_L2C_prefetch_accuracy 0.213468
Core_0_L2C_prefetch_coverage 0.694368

Core_0_LLC_total_access 11066087
Core_0_LLC_total_hit 5325366
Core_0_LLC_total_miss 5740721
Core_0_LLC_total_MPKI 114.814
Core_0_LLC_total_miss_rate 0.518767
Core_0_LLC_demand_access 1323876
Core_0_LLC_demand_hit 775511
Core_0_LLC_demand_miss 548365
Core_0_LLC_demand_MPKI 10.9673
Core_0_LLC_demand_miss_rate 0.414212
Core_0_LLC_load_access 1176747
Core_0_LLC_load_hit 774975
Core_0_LLC_load_miss 401772
Core_0_LLC_load_MPKI 8.03544
Core_0_LLC_load_miss_rate 0.341426
Core_0_LLC_rfo_access 147129
Core_0_LLC_rfo_hit 536
Core_0_LLC_rfo_miss 146593
Core_0_LLC_rfo_MPKI 2.93186
Core_0_LLC_rfo_miss_rate 0.996357
Core_0_LLC_prefetch_access 9556826
Core_0_LLC_prefetch_hit 4510014
Core_0_LLC_prefetch_miss 5046812
Core_0_LLC_prefetch_MPKI 100.936
Core_0_LLC_prefetch_miss_rate 0.528085
Core_0_LLC_writeback_access 185385
Core_0_LLC_writeback_hit 39841
Core_0_LLC_writeback_miss 145544
Core_0_LLC_writeback_MPKI 2.91088
Core_0_LLC_writeback_miss_rate 0.78509
Core_0_LLC_prefetch_requested 0
Core_0_LLC_prefetch_issued 0
Core_0_LLC_prefetch_useful 0
Core_0_LLC_prefetch_useless 0
Core_0_LLC_prefetch_late 0
Core_0_LLC_prefetch_accuracy 0
Core_0_LLC_prefetch_coverage 0

[DRAM Statistics]
Channel_0_RQ_row_buffer_hit 636586
Channel_0_RQ_row_buffer_miss 4959622
Channel_0_WQ_row_buffer_hit 8439
Channel_0_WQ_row_buffer_miss 175159
Channel_0_WQ_full 52
Channel_0_dbus_congested 14358867
DRAM_total_RQ_row_buffer_hit 636586
DRAM_total_RQ_row_buffer_miss 4959622
DRAM_total_WQ_row_buffer_hit 8439
DRAM_total_WQ_row_buffer_miss 175159
DRAM_total_WQ_full 52
DRAM_total_dbus_congested 14358867
DRAM_avg_congested_cycle 3.4195

======STLB miss causes ========
Core_0_STLB_miss_cause_breakdown
Core_0_STLB_cause_Demand_Data_miss 3660
Core_0_STLB_cause_Demand_Data_miss_rate 0.0185951
Core_0_STLB_cause_Demand_Instruction_miss 0
Core_0_STLB_cause_Demand_Instruction_miss_rate 0
Core_0_STLB_cause_L1D_Prefetch_miss 0
Core_0_STLB_cause_L1D_Prefetch_miss_rate 0
Core_0_STLB_cause_L1I_Prefetch_miss 0
Core_0_STLB_cause_L1I_Prefetch_miss_rate 0
Core_0_STLB_cause_Other_miss 0
Core_0_STLB_cause_Other_miss_rate 0
Core_0_STLB_Demand_miss 3660
Core_0_STLB_Demand_miss_rate 0.0185951
Core_0_STLB_L1D_Prefetch_miss 0
Core_0_STLB_L1D_Prefetch_miss_rate 0
Core_0_STLB_Other_miss 0
Core_0_STLB_Other_miss_rate 0
