[VMEM] WARNING: physical memory size is smaller than virtual memory size.

*** ChampSim Multicore Out-of-Order Simulator ***
Warmup Instructions: 20000000
Simulation Instructions: 50000000
Number of CPUs: 1
Page size: 4096
STLB ideal mode: l1pref
Core 0: /data0/tzh/champsim_traces/SPEC17/625.x264_s-20B.champsimtrace.xz
 L1D Berti prefetcher
Off-chip DRAM Size: 4 GiB Channels: 1 Width: 64-bit Data Rate: 3205 MT/s
Warmup halting CPU 0 at instruction 20000000 cycle 4283703 for remainder of phase
Warmup finished CPU 0 instructions: 20000000 cycles: 4283703 cumulative IPC: 4.669 (Simulation time: 00 hr 01 min 01 sec)
Warmup complete CPU 0 instructions: 20000000 cycles: 4283703 cumulative IPC: 4.669 (Simulation time: 00 hr 01 min 01 sec)
Simulation finished CPU 0 instructions: 50000004 cycles: 13784320 cumulative IPC: 3.627 (Simulation time: 00 hr 03 min 37 sec)
Simulation complete CPU 0 instructions: 50000004 cycles: 13784320 cumulative IPC: 3.627 (Simulation time: 00 hr 03 min 37 sec)

ChampSim completed all CPUs

=== Simulation ===
CPU 0 runs /data0/tzh/champsim_traces/SPEC17/625.x264_s-20B.champsimtrace.xz

Region of Interest Statistics

CPU 0 cumulative IPC: 3.627 instructions: 50000004 cycles: 13784320
CPU 0 Branch Prediction Accuracy: 95.04% MPKI: 2.102 Average ROB Occupancy at Mispredict: 117.1
Branch type MPKI
BRANCH_DIRECT_JUMP: 0.00028
BRANCH_INDIRECT: 0.00022
BRANCH_CONDITIONAL: 1.992
BRANCH_DIRECT_CALL: 2e-05
BRANCH_INDIRECT_CALL: 0.00604
BRANCH_RETURN: 0.1031

cpu0->cpu0_STLB TOTAL        ACCESS:     186633 HIT:     185110 MISS:       1523 MSHR_MERGE:          0
cpu0->cpu0_STLB LOAD         ACCESS:     186633 HIT:     185110 MISS:       1523 MSHR_MERGE:          0
cpu0->cpu0_STLB RFO          ACCESS:          0 HIT:          0 MISS:          0 MSHR_MERGE:          0
cpu0->cpu0_STLB PREFETCH     ACCESS:          0 HIT:          0 MISS:          0 MSHR_MERGE:          0
cpu0->cpu0_STLB WRITE        ACCESS:          0 HIT:          0 MISS:          0 MSHR_MERGE:          0
cpu0->cpu0_STLB TRANSLATION  ACCESS:          0 HIT:          0 MISS:          0 MSHR_MERGE:          0
cpu0->cpu0_STLB PREFETCH REQUESTED:          0 ISSUED:          0 USEFUL:          0 USELESS:          0 LATE:          0
cpu0->cpu0_STLB AVERAGE MISS LATENCY: 236 cycles
cpu0->cpu0_L2C TOTAL        ACCESS:     575740 HIT:     494491 MISS:      81249 MSHR_MERGE:       2377
cpu0->cpu0_L2C LOAD         ACCESS:     121184 HIT:     112531 MISS:       8653 MSHR_MERGE:         61
cpu0->cpu0_L2C RFO          ACCESS:      57014 HIT:      37168 MISS:      19846 MSHR_MERGE:          0
cpu0->cpu0_L2C PREFETCH     ACCESS:     334442 HIT:     282071 MISS:      52371 MSHR_MERGE:       2316
cpu0->cpu0_L2C WRITE        ACCESS:      62368 HIT:      62256 MISS:        112 MSHR_MERGE:          0
cpu0->cpu0_L2C TRANSLATION  ACCESS:        732 HIT:        465 MISS:        267 MSHR_MERGE:          0
cpu0->cpu0_L2C PREFETCH REQUESTED:     310709 ISSUED:     284363 USEFUL:      41122 USELESS:       6249 LATE:         61
cpu0->cpu0_L2C AVERAGE MISS LATENCY: 213.5 cycles
cpu0->cpu0_L1I TOTAL        ACCESS:    3814236 HIT:    3787858 MISS:      26378 MSHR_MERGE:       9871
cpu0->cpu0_L1I LOAD         ACCESS:    3814236 HIT:    3787858 MISS:      26378 MSHR_MERGE:       9871
cpu0->cpu0_L1I RFO          ACCESS:          0 HIT:          0 MISS:          0 MSHR_MERGE:          0
cpu0->cpu0_L1I PREFETCH     ACCESS:          0 HIT:          0 MISS:          0 MSHR_MERGE:          0
cpu0->cpu0_L1I WRITE        ACCESS:          0 HIT:          0 MISS:          0 MSHR_MERGE:          0
cpu0->cpu0_L1I TRANSLATION  ACCESS:          0 HIT:          0 MISS:          0 MSHR_MERGE:          0
cpu0->cpu0_L1I PREFETCH REQUESTED:          0 ISSUED:          0 USEFUL:          0 USELESS:          0 LATE:          0
cpu0->cpu0_L1I AVERAGE MISS LATENCY: 17.76 cycles
cpu0->cpu0_L1D TOTAL        ACCESS:   10149097 HIT:    9828304 MISS:     320793 MSHR_MERGE:     108187
cpu0->cpu0_L1D LOAD         ACCESS:    4785711 HIT:    4618794 MISS:     166917 MSHR_MERGE:      62237
cpu0->cpu0_L1D RFO          ACCESS:          0 HIT:          0 MISS:          0 MSHR_MERGE:          0
cpu0->cpu0_L1D PREFETCH     ACCESS:     316505 HIT:     262899 MISS:      53606 MSHR_MERGE:       3527
cpu0->cpu0_L1D WRITE        ACCESS:    5044029 HIT:    4944665 MISS:      99364 MSHR_MERGE:      42249
cpu0->cpu0_L1D TRANSLATION  ACCESS:       2852 HIT:       1946 MISS:        906 MSHR_MERGE:        174
cpu0->cpu0_L1D PREFETCH REQUESTED:     393112 ISSUED:     316505 USEFUL:      26613 USELESS:      23426 LATE:       1421
cpu0->cpu0_L1D AVERAGE MISS LATENCY: 45.4 cycles
cpu0->cpu0_ITLB TOTAL        ACCESS:    3238006 HIT:    3238006 MISS:          0 MSHR_MERGE:          0
cpu0->cpu0_ITLB LOAD         ACCESS:    3238006 HIT:    3238006 MISS:          0 MSHR_MERGE:          0
cpu0->cpu0_ITLB RFO          ACCESS:          0 HIT:          0 MISS:          0 MSHR_MERGE:          0
cpu0->cpu0_ITLB PREFETCH     ACCESS:          0 HIT:          0 MISS:          0 MSHR_MERGE:          0
cpu0->cpu0_ITLB WRITE        ACCESS:          0 HIT:          0 MISS:          0 MSHR_MERGE:          0
cpu0->cpu0_ITLB TRANSLATION  ACCESS:          0 HIT:          0 MISS:          0 MSHR_MERGE:          0
cpu0->cpu0_ITLB PREFETCH REQUESTED:          0 ISSUED:          0 USEFUL:          0 USELESS:          0 LATE:          0
cpu0->cpu0_ITLB AVERAGE MISS LATENCY: - cycles
cpu0->cpu0_DTLB TOTAL        ACCESS:    9181196 HIT:    8853647 MISS:     327549 MSHR_MERGE:     140916
cpu0->cpu0_DTLB LOAD         ACCESS:    9181196 HIT:    8853647 MISS:     327549 MSHR_MERGE:     140916
cpu0->cpu0_DTLB RFO          ACCESS:          0 HIT:          0 MISS:          0 MSHR_MERGE:          0
cpu0->cpu0_DTLB PREFETCH     ACCESS:          0 HIT:          0 MISS:          0 MSHR_MERGE:          0
cpu0->cpu0_DTLB WRITE        ACCESS:          0 HIT:          0 MISS:          0 MSHR_MERGE:          0
cpu0->cpu0_DTLB TRANSLATION  ACCESS:          0 HIT:          0 MISS:          0 MSHR_MERGE:          0
cpu0->cpu0_DTLB PREFETCH REQUESTED:          0 ISSUED:          0 USEFUL:          0 USELESS:          0 LATE:          0
cpu0->cpu0_DTLB AVERAGE MISS LATENCY: 6.937 cycles
cpu0->LLC TOTAL        ACCESS:     100831 HIT:      21394 MISS:      79437 MSHR_MERGE:          0
cpu0->LLC LOAD         ACCESS:       8592 HIT:       1941 MISS:       6651 MSHR_MERGE:          0
cpu0->LLC RFO          ACCESS:      19846 HIT:        268 MISS:      19578 MSHR_MERGE:          0
cpu0->LLC PREFETCH     ACCESS:      50055 HIT:       2287 MISS:      47768 MSHR_MERGE:          0
cpu0->LLC WRITE        ACCESS:      22071 HIT:      16851 MISS:       5220 MSHR_MERGE:          0
cpu0->LLC TRANSLATION  ACCESS:        267 HIT:         47 MISS:        220 MSHR_MERGE:          0
cpu0->LLC PREFETCH REQUESTED:          0 ISSUED:          0 USEFUL:          0 USELESS:          0 LATE:          0
cpu0->LLC AVERAGE MISS LATENCY: 181.2 cycles

DRAM Statistics

Channel 0 RQ ROW_BUFFER_HIT:       1141
  ROW_BUFFER_MISS:      73076
  AVG DBUS CONGESTED CYCLE: 5.54
Channel 0 WQ ROW_BUFFER_HIT:       1601
  ROW_BUFFER_MISS:      19355
  FULL:          0
Channel 0 REFRESHES ISSUED:       1149

[ROI Statistics]
[System Configuration]
num_cpus 1
cpu_freq 4000
fetch_width 6
decode_width 6
dispatch_width 6
execute_width 6
lq_width 2
sq_width 2
retire_width 6
scheduler_size 160
branch_mispredict_penalty 1
rob_size 352
lq_size 240
sq_size 112
ifetch_buffer_size 64
decode_buffer_size 32
dispatch_buffer_size 32
register_file_size 288
decode_latency 1
dispatch_latency 1
schedule_latency 0
execute_latency 0
page_size 4096
block_size 64
core_0_itlb_set 16
core_0_itlb_way 4
core_0_itlb_rq_size 16
core_0_itlb_wq_size 16
core_0_itlb_pq_size 0
core_0_itlb_mshr_size 8
core_0_itlb_hit_latency 1
core_0_itlb_fill_latency 1
core_0_itlb_max_tag_check 2
core_0_itlb_max_fill 2
core_0_dtlb_set 16
core_0_dtlb_way 4
core_0_dtlb_rq_size 16
core_0_dtlb_wq_size 16
core_0_dtlb_pq_size 0
core_0_dtlb_mshr_size 8
core_0_dtlb_hit_latency 1
core_0_dtlb_fill_latency 1
core_0_dtlb_max_tag_check 2
core_0_dtlb_max_fill 2
core_0_stlb_set 128
core_0_stlb_way 12
core_0_stlb_rq_size 32
core_0_stlb_wq_size 32
core_0_stlb_pq_size 0
core_0_stlb_mshr_size 16
core_0_stlb_hit_latency 4
core_0_stlb_fill_latency 4
core_0_stlb_max_tag_check 1
core_0_stlb_max_fill 1
core_0_l1i_set 64
core_0_l1i_way 8
core_0_l1i_rq_size 64
core_0_l1i_wq_size 64
core_0_l1i_pq_size 32
core_0_l1i_mshr_size 8
core_0_l1i_hit_latency 2
core_0_l1i_fill_latency 2
core_0_l1i_max_tag_check 2
core_0_l1i_max_fill 2
core_0_l1d_set 64
core_0_l1d_way 12
core_0_l1d_rq_size 64
core_0_l1d_wq_size 64
core_0_l1d_pq_size 8
core_0_l1d_mshr_size 16
core_0_l1d_hit_latency 2
core_0_l1d_fill_latency 3
core_0_l1d_max_tag_check 2
core_0_l1d_max_fill 2
core_0_l2c_set 1024
core_0_l2c_way 8
core_0_l2c_rq_size 32
core_0_l2c_wq_size 32
core_0_l2c_pq_size 16
core_0_l2c_mshr_size 32
core_0_l2c_hit_latency 5
core_0_l2c_fill_latency 5
core_0_l2c_max_tag_check 1
core_0_l2c_max_fill 1
llc_set 2048
llc_way 16
llc_rq_size 32
llc_wq_size 32
llc_pq_size 32
llc_mshr_size 64
llc_hit_latency 10
llc_fill_latency 10
llc_max_tag_check 1
llc_max_fill 1
dram_channels 1
dram_ranks 1
dram_bankgroups 8
dram_banks 4
dram_rows 16384
dram_columns 1024
dram_channel_width 8
dram_rq_size 64
dram_wq_size 64
dram_size 4294967296
core_0_itlb_prefetcher no
core_0_dtlb_prefetcher no
core_0_stlb_prefetcher no
core_0_l1i_prefetcher next_line
core_0_l1d_prefetcher berti
core_0_l2c_prefetcher pythia
llc_prefetcher no
llc_replacement drrip

Core_0_instructions 50000004
Core_0_cycles 13784320
Core_0_IPC 3.62731
Core_0_branch_prediction_accuracy 95.0437
Core_0_branch_MPKI 2.1018
Core_0_average_ROB_occupancy_at_mispredict 117.131

Core_0_ITLB_total_access 3238006
Core_0_ITLB_total_hit 3238006
Core_0_ITLB_total_miss 0
Core_0_ITLB_total_MPKI 0
Core_0_ITLB_total_miss_rate 0
Core_0_ITLB_demand_access 3238006
Core_0_ITLB_demand_hit 3238006
Core_0_ITLB_demand_miss 0
Core_0_ITLB_demand_MPKI 0
Core_0_ITLB_demand_miss_rate 0
Core_0_ITLB_load_access 3238006
Core_0_ITLB_load_hit 3238006
Core_0_ITLB_load_miss 0
Core_0_ITLB_load_MPKI 0
Core_0_ITLB_load_miss_rate 0
Core_0_ITLB_rfo_access 0
Core_0_ITLB_rfo_hit 0
Core_0_ITLB_rfo_miss 0
Core_0_ITLB_rfo_MPKI 0
Core_0_ITLB_rfo_miss_rate 0
Core_0_ITLB_prefetch_access 0
Core_0_ITLB_prefetch_hit 0
Core_0_ITLB_prefetch_miss 0
Core_0_ITLB_prefetch_MPKI 0
Core_0_ITLB_prefetch_miss_rate 0
Core_0_ITLB_writeback_access 0
Core_0_ITLB_writeback_hit 0
Core_0_ITLB_writeback_miss 0
Core_0_ITLB_writeback_MPKI 0
Core_0_ITLB_writeback_miss_rate 0
Core_0_ITLB_prefetch_requested 0
Core_0_ITLB_prefetch_issued 0
Core_0_ITLB_prefetch_useful 0
Core_0_ITLB_prefetch_useless 0
Core_0_ITLB_prefetch_late 0
Core_0_ITLB_prefetch_accuracy 0
Core_0_ITLB_prefetch_coverage 0

Core_0_DTLB_total_access 9181196
Core_0_DTLB_total_hit 8853647
Core_0_DTLB_total_miss 327549
Core_0_DTLB_total_MPKI 6.55098
Core_0_DTLB_total_miss_rate 0.0356761
Core_0_DTLB_demand_access 9181196
Core_0_DTLB_demand_hit 8853647
Core_0_DTLB_demand_miss 327549
Core_0_DTLB_demand_MPKI 6.55098
Core_0_DTLB_demand_miss_rate 0.0356761
Core_0_DTLB_load_access 9181196
Core_0_DTLB_load_hit 8853647
Core_0_DTLB_load_miss 327549
Core_0_DTLB_load_MPKI 6.55098
Core_0_DTLB_load_miss_rate 0.0356761
Core_0_DTLB_rfo_access 0
Core_0_DTLB_rfo_hit 0
Core_0_DTLB_rfo_miss 0
Core_0_DTLB_rfo_MPKI 0
Core_0_DTLB_rfo_miss_rate 0
Core_0_DTLB_prefetch_access 0
Core_0_DTLB_prefetch_hit 0
Core_0_DTLB_prefetch_miss 0
Core_0_DTLB_prefetch_MPKI 0
Core_0_DTLB_prefetch_miss_rate 0
Core_0_DTLB_writeback_access 0
Core_0_DTLB_writeback_hit 0
Core_0_DTLB_writeback_miss 0
Core_0_DTLB_writeback_MPKI 0
Core_0_DTLB_writeback_miss_rate 0
Core_0_DTLB_prefetch_requested 0
Core_0_DTLB_prefetch_issued 0
Core_0_DTLB_prefetch_useful 0
Core_0_DTLB_prefetch_useless 0
Core_0_DTLB_prefetch_late 0
Core_0_DTLB_prefetch_accuracy 0
Core_0_DTLB_prefetch_coverage 0

Core_0_STLB_total_access 186633
Core_0_STLB_total_hit 185110
Core_0_STLB_total_miss 1523
Core_0_STLB_total_MPKI 0.03046
Core_0_STLB_total_miss_rate 0.0081604
Core_0_STLB_demand_access 186633
Core_0_STLB_demand_hit 185110
Core_0_STLB_demand_miss 1523
Core_0_STLB_demand_MPKI 0.03046
Core_0_STLB_demand_miss_rate 0.0081604
Core_0_STLB_load_access 186633
Core_0_STLB_load_hit 185110
Core_0_STLB_load_miss 1523
Core_0_STLB_load_MPKI 0.03046
Core_0_STLB_load_miss_rate 0.0081604
Core_0_STLB_rfo_access 0
Core_0_STLB_rfo_hit 0
Core_0_STLB_rfo_miss 0
Core_0_STLB_rfo_MPKI 0
Core_0_STLB_rfo_miss_rate 0
Core_0_STLB_prefetch_access 0
Core_0_STLB_prefetch_hit 0
Core_0_STLB_prefetch_miss 0
Core_0_STLB_prefetch_MPKI 0
Core_0_STLB_prefetch_miss_rate 0
Core_0_STLB_writeback_access 0
Core_0_STLB_writeback_hit 0
Core_0_STLB_writeback_miss 0
Core_0_STLB_writeback_MPKI 0
Core_0_STLB_writeback_miss_rate 0
Core_0_STLB_prefetch_requested 0
Core_0_STLB_prefetch_issued 0
Core_0_STLB_prefetch_useful 0
Core_0_STLB_prefetch_useless 0
Core_0_STLB_prefetch_late 0
Core_0_STLB_prefetch_accuracy 0
Core_0_STLB_prefetch_coverage 0

Core_0_L1I_total_access 3814236
Core_0_L1I_total_hit 3787858
Core_0_L1I_total_miss 26378
Core_0_L1I_total_MPKI 0.52756
Core_0_L1I_total_miss_rate 0.00691567
Core_0_L1I_demand_access 3814236
Core_0_L1I_demand_hit 3787858
Core_0_L1I_demand_miss 26378
Core_0_L1I_demand_MPKI 0.52756
Core_0_L1I_demand_miss_rate 0.00691567
Core_0_L1I_load_access 3814236
Core_0_L1I_load_hit 3787858
Core_0_L1I_load_miss 26378
Core_0_L1I_load_MPKI 0.52756
Core_0_L1I_load_miss_rate 0.00691567
Core_0_L1I_rfo_access 0
Core_0_L1I_rfo_hit 0
Core_0_L1I_rfo_miss 0
Core_0_L1I_rfo_MPKI 0
Core_0_L1I_rfo_miss_rate 0
Core_0_L1I_prefetch_access 0
Core_0_L1I_prefetch_hit 0
Core_0_L1I_prefetch_miss 0
Core_0_L1I_prefetch_MPKI 0
Core_0_L1I_prefetch_miss_rate 0
Core_0_L1I_writeback_access 0
Core_0_L1I_writeback_hit 0
Core_0_L1I_writeback_miss 0
Core_0_L1I_writeback_MPKI 0
Core_0_L1I_writeback_miss_rate 0
Core_0_L1I_prefetch_requested 0
Core_0_L1I_prefetch_issued 0
Core_0_L1I_prefetch_useful 0
Core_0_L1I_prefetch_useless 0
Core_0_L1I_prefetch_late 0
Core_0_L1I_prefetch_accuracy 0
Core_0_L1I_prefetch_coverage 0

Core_0_L1D_total_access 10146245
Core_0_L1D_total_hit 9826358
Core_0_L1D_total_miss 319887
Core_0_L1D_total_MPKI 6.39774
Core_0_L1D_total_miss_rate 0.0315276
Core_0_L1D_demand_access 4785711
Core_0_L1D_demand_hit 4618794
Core_0_L1D_demand_miss 166917
Core_0_L1D_demand_MPKI 3.33834
Core_0_L1D_demand_miss_rate 0.0348782
Core_0_L1D_load_access 4785711
Core_0_L1D_load_hit 4618794
Core_0_L1D_load_miss 166917
Core_0_L1D_load_MPKI 3.33834
Core_0_L1D_load_miss_rate 0.0348782
Core_0_L1D_rfo_access 0
Core_0_L1D_rfo_hit 0
Core_0_L1D_rfo_miss 0
Core_0_L1D_rfo_MPKI 0
Core_0_L1D_rfo_miss_rate 0
Core_0_L1D_prefetch_access 316505
Core_0_L1D_prefetch_hit 262899
Core_0_L1D_prefetch_miss 53606
Core_0_L1D_prefetch_MPKI 1.07212
Core_0_L1D_prefetch_miss_rate 0.169369
Core_0_L1D_writeback_access 5044029
Core_0_L1D_writeback_hit 4944665
Core_0_L1D_writeback_miss 99364
Core_0_L1D_writeback_MPKI 1.98728
Core_0_L1D_writeback_miss_rate 0.0196993
Core_0_L1D_prefetch_requested 393112
Core_0_L1D_prefetch_issued 316505
Core_0_L1D_prefetch_useful 26613
Core_0_L1D_prefetch_useless 23426
Core_0_L1D_prefetch_late 1421
Core_0_L1D_prefetch_accuracy 0.084084
Core_0_L1D_prefetch_coverage 0.137514

Core_0_L2C_total_access 575008
Core_0_L2C_total_hit 494026
Core_0_L2C_total_miss 80982
Core_0_L2C_total_MPKI 1.61964
Core_0_L2C_total_miss_rate 0.140836
Core_0_L2C_demand_access 178198
Core_0_L2C_demand_hit 149699
Core_0_L2C_demand_miss 28499
Core_0_L2C_demand_MPKI 0.56998
Core_0_L2C_demand_miss_rate 0.159929
Core_0_L2C_load_access 121184
Core_0_L2C_load_hit 112531
Core_0_L2C_load_miss 8653
Core_0_L2C_load_MPKI 0.17306
Core_0_L2C_load_miss_rate 0.0714038
Core_0_L2C_rfo_access 57014
Core_0_L2C_rfo_hit 37168
Core_0_L2C_rfo_miss 19846
Core_0_L2C_rfo_MPKI 0.39692
Core_0_L2C_rfo_miss_rate 0.34809
Core_0_L2C_prefetch_access 334442
Core_0_L2C_prefetch_hit 282071
Core_0_L2C_prefetch_miss 52371
Core_0_L2C_prefetch_MPKI 1.04742
Core_0_L2C_prefetch_miss_rate 0.156592
Core_0_L2C_writeback_access 62368
Core_0_L2C_writeback_hit 62256
Core_0_L2C_writeback_miss 112
Core_0_L2C_writeback_MPKI 0.00224
Core_0_L2C_writeback_miss_rate 0.00179579
Core_0_L2C_prefetch_requested 310709
Core_0_L2C_prefetch_issued 284363
Core_0_L2C_prefetch_useful 41122
Core_0_L2C_prefetch_useless 6249
Core_0_L2C_prefetch_late 61
Core_0_L2C_prefetch_accuracy 0.144611
Core_0_L2C_prefetch_coverage 0.590655

Core_0_LLC_total_access 100564
Core_0_LLC_total_hit 21347
Core_0_LLC_total_miss 79217
Core_0_LLC_total_MPKI 1.58434
Core_0_LLC_total_miss_rate 0.787727
Core_0_LLC_demand_access 28438
Core_0_LLC_demand_hit 2209
Core_0_LLC_demand_miss 26229
Core_0_LLC_demand_MPKI 0.52458
Core_0_LLC_demand_miss_rate 0.922322
Core_0_LLC_load_access 8592
Core_0_LLC_load_hit 1941
Core_0_LLC_load_miss 6651
Core_0_LLC_load_MPKI 0.13302
Core_0_LLC_load_miss_rate 0.774092
Core_0_LLC_rfo_access 19846
Core_0_LLC_rfo_hit 268
Core_0_LLC_rfo_miss 19578
Core_0_LLC_rfo_MPKI 0.39156
Core_0_LLC_rfo_miss_rate 0.986496
Core_0_LLC_prefetch_access 50055
Core_0_LLC_prefetch_hit 2287
Core_0_LLC_prefetch_miss 47768
Core_0_LLC_prefetch_MPKI 0.95536
Core_0_LLC_prefetch_miss_rate 0.95431
Core_0_LLC_writeback_access 22071
Core_0_LLC_writeback_hit 16851
Core_0_LLC_writeback_miss 5220
Core_0_LLC_writeback_MPKI 0.1044
Core_0_LLC_writeback_miss_rate 0.236509
Core_0_LLC_prefetch_requested 0
Core_0_LLC_prefetch_issued 0
Core_0_LLC_prefetch_useful 0
Core_0_LLC_prefetch_useless 0
Core_0_LLC_prefetch_late 0
Core_0_LLC_prefetch_accuracy 0
Core_0_LLC_prefetch_coverage 0

[DRAM Statistics]
Channel_0_RQ_row_buffer_hit 1141
Channel_0_RQ_row_buffer_miss 73076
Channel_0_WQ_row_buffer_hit 1601
Channel_0_WQ_row_buffer_miss 19355
Channel_0_WQ_full 0
Channel_0_dbus_congested 205087
DRAM_total_RQ_row_buffer_hit 1141
DRAM_total_RQ_row_buffer_miss 73076
DRAM_total_WQ_row_buffer_hit 1601
DRAM_total_WQ_row_buffer_miss 19355
DRAM_total_WQ_full 0
DRAM_total_dbus_congested 205087
DRAM_avg_congested_cycle 5.54044

======STLB miss causes ========
Core_0_STLB_miss_cause_breakdown
Core_0_STLB_cause_Demand_Data_miss 1523
Core_0_STLB_cause_Demand_Data_miss_rate 0.0081604
Core_0_STLB_cause_Demand_Instruction_miss 0
Core_0_STLB_cause_Demand_Instruction_miss_rate 0
Core_0_STLB_cause_L1D_Prefetch_miss 0
Core_0_STLB_cause_L1D_Prefetch_miss_rate 0
Core_0_STLB_cause_L1I_Prefetch_miss 0
Core_0_STLB_cause_L1I_Prefetch_miss_rate 0
Core_0_STLB_cause_Other_miss 0
Core_0_STLB_cause_Other_miss_rate 0
Core_0_STLB_Demand_miss 1523
Core_0_STLB_Demand_miss_rate 0.0081604
Core_0_STLB_L1D_Prefetch_miss 0
Core_0_STLB_L1D_Prefetch_miss_rate 0
Core_0_STLB_Other_miss 0
Core_0_STLB_Other_miss_rate 0
