[VMEM] WARNING: physical memory size is smaller than virtual memory size.

*** ChampSim Multicore Out-of-Order Simulator ***
Warmup Instructions: 20000000
Simulation Instructions: 50000000
Number of CPUs: 1
Page size: 4096
STLB ideal mode: l1pref
Core 0: /data0/tzh/champsim_traces/SPEC17/628.pop2_s-17B.champsimtrace.xz
 L1D Berti prefetcher
Off-chip DRAM Size: 4 GiB Channels: 1 Width: 64-bit Data Rate: 3205 MT/s
Warmup halting CPU 0 at instruction 20000002 cycle 4695754 for remainder of phase
Warmup finished CPU 0 instructions: 20000002 cycles: 4695754 cumulative IPC: 4.259 (Simulation time: 00 hr 00 min 58 sec)
Warmup complete CPU 0 instructions: 20000002 cycles: 4695754 cumulative IPC: 4.259 (Simulation time: 00 hr 00 min 58 sec)
Simulation finished CPU 0 instructions: 50000000 cycles: 17038046 cumulative IPC: 2.935 (Simulation time: 00 hr 03 min 59 sec)
Simulation complete CPU 0 instructions: 50000000 cycles: 17038046 cumulative IPC: 2.935 (Simulation time: 00 hr 03 min 59 sec)

ChampSim completed all CPUs

=== Simulation ===
CPU 0 runs /data0/tzh/champsim_traces/SPEC17/628.pop2_s-17B.champsimtrace.xz

Region of Interest Statistics

CPU 0 cumulative IPC: 2.935 instructions: 50000000 cycles: 17038046
CPU 0 Branch Prediction Accuracy: 97.03% MPKI: 3.43 Average ROB Occupancy at Mispredict: 86.69
Branch type MPKI
BRANCH_DIRECT_JUMP: 0.05064
BRANCH_INDIRECT: 0.0017
BRANCH_CONDITIONAL: 3.378
BRANCH_DIRECT_CALL: 0
BRANCH_INDIRECT_CALL: 0
BRANCH_RETURN: 0

cpu0->cpu0_STLB TOTAL        ACCESS:      45128 HIT:      42708 MISS:       2420 MSHR_MERGE:          0
cpu0->cpu0_STLB LOAD         ACCESS:      45128 HIT:      42708 MISS:       2420 MSHR_MERGE:          0
cpu0->cpu0_STLB RFO          ACCESS:          0 HIT:          0 MISS:          0 MSHR_MERGE:          0
cpu0->cpu0_STLB PREFETCH     ACCESS:          0 HIT:          0 MISS:          0 MSHR_MERGE:          0
cpu0->cpu0_STLB WRITE        ACCESS:          0 HIT:          0 MISS:          0 MSHR_MERGE:          0
cpu0->cpu0_STLB TRANSLATION  ACCESS:          0 HIT:          0 MISS:          0 MSHR_MERGE:          0
cpu0->cpu0_STLB PREFETCH REQUESTED:          0 ISSUED:          0 USEFUL:          0 USELESS:          0 LATE:          0
cpu0->cpu0_STLB AVERAGE MISS LATENCY: 218.9 cycles
cpu0->cpu0_L2C TOTAL        ACCESS:    4742163 HIT:    3755727 MISS:     986436 MSHR_MERGE:     425415
cpu0->cpu0_L2C LOAD         ACCESS:     281784 HIT:     175908 MISS:     105876 MSHR_MERGE:      12789
cpu0->cpu0_L2C RFO          ACCESS:     273793 HIT:     167520 MISS:     106273 MSHR_MERGE:         11
cpu0->cpu0_L2C PREFETCH     ACCESS:    3774790 HIT:    3002965 MISS:     771825 MSHR_MERGE:     412615
cpu0->cpu0_L2C WRITE        ACCESS:     409134 HIT:     409084 MISS:         50 MSHR_MERGE:          0
cpu0->cpu0_L2C TRANSLATION  ACCESS:       2662 HIT:        250 MISS:       2412 MSHR_MERGE:          0
cpu0->cpu0_L2C PREFETCH REQUESTED:    3831018 ISSUED:    3185225 USEFUL:     239194 USELESS:      81929 LATE:      12800
cpu0->cpu0_L2C AVERAGE MISS LATENCY: 36.72 cycles
cpu0->cpu0_L1I TOTAL        ACCESS:    3239427 HIT:    3129740 MISS:     109687 MSHR_MERGE:      52001
cpu0->cpu0_L1I LOAD         ACCESS:    3239427 HIT:    3129740 MISS:     109687 MSHR_MERGE:      52001
cpu0->cpu0_L1I RFO          ACCESS:          0 HIT:          0 MISS:          0 MSHR_MERGE:          0
cpu0->cpu0_L1I PREFETCH     ACCESS:          0 HIT:          0 MISS:          0 MSHR_MERGE:          0
cpu0->cpu0_L1I WRITE        ACCESS:          0 HIT:          0 MISS:          0 MSHR_MERGE:          0
cpu0->cpu0_L1I TRANSLATION  ACCESS:          0 HIT:          0 MISS:          0 MSHR_MERGE:          0
cpu0->cpu0_L1I PREFETCH REQUESTED:          0 ISSUED:          0 USEFUL:          0 USELESS:          0 LATE:          0
cpu0->cpu0_L1I AVERAGE MISS LATENCY: 23.25 cycles
cpu0->cpu0_L1D TOTAL        ACCESS:   11697364 HIT:    9569031 MISS:    2128333 MSHR_MERGE:    1038187
cpu0->cpu0_L1D LOAD         ACCESS:    7064588 HIT:    6565329 MISS:     499259 MSHR_MERGE:     275155
cpu0->cpu0_L1D RFO          ACCESS:          0 HIT:          0 MISS:          0 MSHR_MERGE:          0
cpu0->cpu0_L1D PREFETCH     ACCESS:     837196 HIT:     222268 MISS:     614928 MSHR_MERGE:      25359
cpu0->cpu0_L1D WRITE        ACCESS:    3790126 HIT:    2778808 MISS:    1011318 MSHR_MERGE:     737507
cpu0->cpu0_L1D TRANSLATION  ACCESS:       5454 HIT:       2626 MISS:       2828 MSHR_MERGE:        166
cpu0->cpu0_L1D PREFETCH REQUESTED:     925600 ISSUED:     837196 USEFUL:     537444 USELESS:      52097 LATE:      48294
cpu0->cpu0_L1D AVERAGE MISS LATENCY: 25.12 cycles
cpu0->cpu0_ITLB TOTAL        ACCESS:    2580512 HIT:    2575052 MISS:       5460 MSHR_MERGE:       3099
cpu0->cpu0_ITLB LOAD         ACCESS:    2580512 HIT:    2575052 MISS:       5460 MSHR_MERGE:       3099
cpu0->cpu0_ITLB RFO          ACCESS:          0 HIT:          0 MISS:          0 MSHR_MERGE:          0
cpu0->cpu0_ITLB PREFETCH     ACCESS:          0 HIT:          0 MISS:          0 MSHR_MERGE:          0
cpu0->cpu0_ITLB WRITE        ACCESS:          0 HIT:          0 MISS:          0 MSHR_MERGE:          0
cpu0->cpu0_ITLB TRANSLATION  ACCESS:          0 HIT:          0 MISS:          0 MSHR_MERGE:          0
cpu0->cpu0_ITLB PREFETCH REQUESTED:          0 ISSUED:          0 USEFUL:          0 USELESS:          0 LATE:          0
cpu0->cpu0_ITLB AVERAGE MISS LATENCY: 5.308 cycles
cpu0->cpu0_DTLB TOTAL        ACCESS:   10950149 HIT:   10866310 MISS:      83839 MSHR_MERGE:      41072
cpu0->cpu0_DTLB LOAD         ACCESS:   10950149 HIT:   10866310 MISS:      83839 MSHR_MERGE:      41072
cpu0->cpu0_DTLB RFO          ACCESS:          0 HIT:          0 MISS:          0 MSHR_MERGE:          0
cpu0->cpu0_DTLB PREFETCH     ACCESS:          0 HIT:          0 MISS:          0 MSHR_MERGE:          0
cpu0->cpu0_DTLB WRITE        ACCESS:          0 HIT:          0 MISS:          0 MSHR_MERGE:          0
cpu0->cpu0_DTLB TRANSLATION  ACCESS:          0 HIT:          0 MISS:          0 MSHR_MERGE:          0
cpu0->cpu0_DTLB PREFETCH REQUESTED:          0 ISSUED:          0 USEFUL:          0 USELESS:          0 LATE:          0
cpu0->cpu0_DTLB AVERAGE MISS LATENCY: 17.43 cycles
cpu0->LLC TOTAL        ACCESS:     742894 HIT:     565032 MISS:     177862 MSHR_MERGE:          0
cpu0->LLC LOAD         ACCESS:      93087 HIT:      87055 MISS:       6032 MSHR_MERGE:          0
cpu0->LLC RFO          ACCESS:     106262 HIT:      93691 MISS:      12571 MSHR_MERGE:          0
cpu0->LLC PREFETCH     ACCESS:     359210 HIT:     205897 MISS:     153313 MSHR_MERGE:          0
cpu0->LLC WRITE        ACCESS:     181923 HIT:     176516 MISS:       5407 MSHR_MERGE:          0
cpu0->LLC TRANSLATION  ACCESS:       2412 HIT:       1873 MISS:        539 MSHR_MERGE:          0
cpu0->LLC PREFETCH REQUESTED:          0 ISSUED:          0 USEFUL:          0 USELESS:          0 LATE:          0
cpu0->LLC AVERAGE MISS LATENCY: 155.8 cycles

DRAM Statistics

Channel 0 RQ ROW_BUFFER_HIT:       9965
  ROW_BUFFER_MISS:     162462
  AVG DBUS CONGESTED CYCLE: 5.825
Channel 0 WQ ROW_BUFFER_HIT:       4444
  ROW_BUFFER_MISS:      43014
  FULL:          0
Channel 0 REFRESHES ISSUED:       1420

[ROI Statistics]
[System Configuration]
num_cpus 1
cpu_freq 4000
fetch_width 6
decode_width 6
dispatch_width 6
execute_width 6
lq_width 2
sq_width 2
retire_width 6
scheduler_size 160
branch_mispredict_penalty 1
rob_size 352
lq_size 240
sq_size 112
ifetch_buffer_size 64
decode_buffer_size 32
dispatch_buffer_size 32
register_file_size 288
decode_latency 1
dispatch_latency 1
schedule_latency 0
execute_latency 0
page_size 4096
block_size 64
core_0_itlb_set 16
core_0_itlb_way 4
core_0_itlb_rq_size 16
core_0_itlb_wq_size 16
core_0_itlb_pq_size 0
core_0_itlb_mshr_size 8
core_0_itlb_hit_latency 1
core_0_itlb_fill_latency 1
core_0_itlb_max_tag_check 2
core_0_itlb_max_fill 2
core_0_dtlb_set 16
core_0_dtlb_way 4
core_0_dtlb_rq_size 16
core_0_dtlb_wq_size 16
core_0_dtlb_pq_size 0
core_0_dtlb_mshr_size 8
core_0_dtlb_hit_latency 1
core_0_dtlb_fill_latency 1
core_0_dtlb_max_tag_check 2
core_0_dtlb_max_fill 2
core_0_stlb_set 128
core_0_stlb_way 12
core_0_stlb_rq_size 32
core_0_stlb_wq_size 32
core_0_stlb_pq_size 0
core_0_stlb_mshr_size 16
core_0_stlb_hit_latency 4
core_0_stlb_fill_latency 4
core_0_stlb_max_tag_check 1
core_0_stlb_max_fill 1
core_0_l1i_set 64
core_0_l1i_way 8
core_0_l1i_rq_size 64
core_0_l1i_wq_size 64
core_0_l1i_pq_size 32
core_0_l1i_mshr_size 8
core_0_l1i_hit_latency 2
core_0_l1i_fill_latency 2
core_0_l1i_max_tag_check 2
core_0_l1i_max_fill 2
core_0_l1d_set 64
core_0_l1d_way 12
core_0_l1d_rq_size 64
core_0_l1d_wq_size 64
core_0_l1d_pq_size 8
core_0_l1d_mshr_size 16
core_0_l1d_hit_latency 2
core_0_l1d_fill_latency 3
core_0_l1d_max_tag_check 2
core_0_l1d_max_fill 2
core_0_l2c_set 1024
core_0_l2c_way 8
core_0_l2c_rq_size 32
core_0_l2c_wq_size 32
core_0_l2c_pq_size 16
core_0_l2c_mshr_size 32
core_0_l2c_hit_latency 5
core_0_l2c_fill_latency 5
core_0_l2c_max_tag_check 1
core_0_l2c_max_fill 1
llc_set 2048
llc_way 16
llc_rq_size 32
llc_wq_size 32
llc_pq_size 32
llc_mshr_size 64
llc_hit_latency 10
llc_fill_latency 10
llc_max_tag_check 1
llc_max_fill 1
dram_channels 1
dram_ranks 1
dram_bankgroups 8
dram_banks 4
dram_rows 16384
dram_columns 1024
dram_channel_width 8
dram_rq_size 64
dram_wq_size 64
dram_size 4294967296
core_0_itlb_prefetcher no
core_0_dtlb_prefetcher no
core_0_stlb_prefetcher no
core_0_l1i_prefetcher next_line
core_0_l1d_prefetcher berti
core_0_l2c_prefetcher pythia
llc_prefetcher no
llc_replacement drrip

Core_0_instructions 50000000
Core_0_cycles 17038046
Core_0_IPC 2.93461
Core_0_branch_prediction_accuracy 97.0272
Core_0_branch_MPKI 3.43
Core_0_average_ROB_occupancy_at_mispredict 86.6867

Core_0_ITLB_total_access 2580512
Core_0_ITLB_total_hit 2575052
Core_0_ITLB_total_miss 5460
Core_0_ITLB_total_MPKI 0.1092
Core_0_ITLB_total_miss_rate 0.00211586
Core_0_ITLB_demand_access 2580512
Core_0_ITLB_demand_hit 2575052
Core_0_ITLB_demand_miss 5460
Core_0_ITLB_demand_MPKI 0.1092
Core_0_ITLB_demand_miss_rate 0.00211586
Core_0_ITLB_load_access 2580512
Core_0_ITLB_load_hit 2575052
Core_0_ITLB_load_miss 5460
Core_0_ITLB_load_MPKI 0.1092
Core_0_ITLB_load_miss_rate 0.00211586
Core_0_ITLB_rfo_access 0
Core_0_ITLB_rfo_hit 0
Core_0_ITLB_rfo_miss 0
Core_0_ITLB_rfo_MPKI 0
Core_0_ITLB_rfo_miss_rate 0
Core_0_ITLB_prefetch_access 0
Core_0_ITLB_prefetch_hit 0
Core_0_ITLB_prefetch_miss 0
Core_0_ITLB_prefetch_MPKI 0
Core_0_ITLB_prefetch_miss_rate 0
Core_0_ITLB_writeback_access 0
Core_0_ITLB_writeback_hit 0
Core_0_ITLB_writeback_miss 0
Core_0_ITLB_writeback_MPKI 0
Core_0_ITLB_writeback_miss_rate 0
Core_0_ITLB_prefetch_requested 0
Core_0_ITLB_prefetch_issued 0
Core_0_ITLB_prefetch_useful 0
Core_0_ITLB_prefetch_useless 0
Core_0_ITLB_prefetch_late 0
Core_0_ITLB_prefetch_accuracy 0
Core_0_ITLB_prefetch_coverage 0

Core_0_DTLB_total_access 10950149
Core_0_DTLB_total_hit 10866310
Core_0_DTLB_total_miss 83839
Core_0_DTLB_total_MPKI 1.67678
Core_0_DTLB_total_miss_rate 0.00765643
Core_0_DTLB_demand_access 10950149
Core_0_DTLB_demand_hit 10866310
Core_0_DTLB_demand_miss 83839
Core_0_DTLB_demand_MPKI 1.67678
Core_0_DTLB_demand_miss_rate 0.00765643
Core_0_DTLB_load_access 10950149
Core_0_DTLB_load_hit 10866310
Core_0_DTLB_load_miss 83839
Core_0_DTLB_load_MPKI 1.67678
Core_0_DTLB_load_miss_rate 0.00765643
Core_0_DTLB_rfo_access 0
Core_0_DTLB_rfo_hit 0
Core_0_DTLB_rfo_miss 0
Core_0_DTLB_rfo_MPKI 0
Core_0_DTLB_rfo_miss_rate 0
Core_0_DTLB_prefetch_access 0
Core_0_DTLB_prefetch_hit 0
Core_0_DTLB_prefetch_miss 0
Core_0_DTLB_prefetch_MPKI 0
Core_0_DTLB_prefetch_miss_rate 0
Core_0_DTLB_writeback_access 0
Core_0_DTLB_writeback_hit 0
Core_0_DTLB_writeback_miss 0
Core_0_DTLB_writeback_MPKI 0
Core_0_DTLB_writeback_miss_rate 0
Core_0_DTLB_prefetch_requested 0
Core_0_DTLB_prefetch_issued 0
Core_0_DTLB_prefetch_useful 0
Core_0_DTLB_prefetch_useless 0
Core_0_DTLB_prefetch_late 0
Core_0_DTLB_prefetch_accuracy 0
Core_0_DTLB_prefetch_coverage 0

Core_0_STLB_total_access 45128
Core_0_STLB_total_hit 42708
Core_0_STLB_total_miss 2420
Core_0_STLB_total_MPKI 0.0484
Core_0_STLB_total_miss_rate 0.0536252
Core_0_STLB_demand_access 45128
Core_0_STLB_demand_hit 42708
Core_0_STLB_demand_miss 2420
Core_0_STLB_demand_MPKI 0.0484
Core_0_STLB_demand_miss_rate 0.0536252
Core_0_STLB_load_access 45128
Core_0_STLB_load_hit 42708
Core_0_STLB_load_miss 2420
Core_0_STLB_load_MPKI 0.0484
Core_0_STLB_load_miss_rate 0.0536252
Core_0_STLB_rfo_access 0
Core_0_STLB_rfo_hit 0
Core_0_STLB_rfo_miss 0
Core_0_STLB_rfo_MPKI 0
Core_0_STLB_rfo_miss_rate 0
Core_0_STLB_prefetch_access 0
Core_0_STLB_prefetch_hit 0
Core_0_STLB_prefetch_miss 0
Core_0_STLB_prefetch_MPKI 0
Core_0_STLB_prefetch_miss_rate 0
Core_0_STLB_writeback_access 0
Core_0_STLB_writeback_hit 0
Core_0_STLB_writeback_miss 0
Core_0_STLB_writeback_MPKI 0
Core_0_STLB_writeback_miss_rate 0
Core_0_STLB_prefetch_requested 0
Core_0_STLB_prefetch_issued 0
Core_0_STLB_prefetch_useful 0
Core_0_STLB_prefetch_useless 0
Core_0_STLB_prefetch_late 0
Core_0_STLB_prefetch_accuracy 0
Core_0_STLB_prefetch_coverage 0

Core_0_L1I_total_access 3239427
Core_0_L1I_total_hit 3129740
Core_0_L1I_total_miss 109687
Core_0_L1I_total_MPKI 2.19374
Core_0_L1I_total_miss_rate 0.03386
Core_0_L1I_demand_access 3239427
Core_0_L1I_demand_hit 3129740
Core_0_L1I_demand_miss 109687
Core_0_L1I_demand_MPKI 2.19374
Core_0_L1I_demand_miss_rate 0.03386
Core_0_L1I_load_access 3239427
Core_0_L1I_load_hit 3129740
Core_0_L1I_load_miss 109687
Core_0_L1I_load_MPKI 2.19374
Core_0_L1I_load_miss_rate 0.03386
Core_0_L1I_rfo_access 0
Core_0_L1I_rfo_hit 0
Core_0_L1I_rfo_miss 0
Core_0_L1I_rfo_MPKI 0
Core_0_L1I_rfo_miss_rate 0
Core_0_L1I_prefetch_access 0
Core_0_L1I_prefetch_hit 0
Core_0_L1I_prefetch_miss 0
Core_0_L1I_prefetch_MPKI 0
Core_0_L1I_prefetch_miss_rate 0
Core_0_L1I_writeback_access 0
Core_0_L1I_writeback_hit 0
Core_0_L1I_writeback_miss 0
Core_0_L1I_writeback_MPKI 0
Core_0_L1I_writeback_miss_rate 0
Core_0_L1I_prefetch_requested 0
Core_0_L1I_prefetch_issued 0
Core_0_L1I_prefetch_useful 0
Core_0_L1I_prefetch_useless 0
Core_0_L1I_prefetch_late 0
Core_0_L1I_prefetch_accuracy 0
Core_0_L1I_prefetch_coverage 0

Core_0_L1D_total_access 11691910
Core_0_L1D_total_hit 9566405
Core_0_L1D_total_miss 2125505
Core_0_L1D_total_MPKI 42.5101
Core_0_L1D_total_miss_rate 0.181793
Core_0_L1D_demand_access 7064588
Core_0_L1D_demand_hit 6565329
Core_0_L1D_demand_miss 499259
Core_0_L1D_demand_MPKI 9.98518
Core_0_L1D_demand_miss_rate 0.0706706
Core_0_L1D_load_access 7064588
Core_0_L1D_load_hit 6565329
Core_0_L1D_load_miss 499259
Core_0_L1D_load_MPKI 9.98518
Core_0_L1D_load_miss_rate 0.0706706
Core_0_L1D_rfo_access 0
Core_0_L1D_rfo_hit 0
Core_0_L1D_rfo_miss 0
Core_0_L1D_rfo_MPKI 0
Core_0_L1D_rfo_miss_rate 0
Core_0_L1D_prefetch_access 837196
Core_0_L1D_prefetch_hit 222268
Core_0_L1D_prefetch_miss 614928
Core_0_L1D_prefetch_MPKI 12.2986
Core_0_L1D_prefetch_miss_rate 0.734509
Core_0_L1D_writeback_access 3790126
Core_0_L1D_writeback_hit 2778808
Core_0_L1D_writeback_miss 1011318
Core_0_L1D_writeback_MPKI 20.2264
Core_0_L1D_writeback_miss_rate 0.26683
Core_0_L1D_prefetch_requested 925600
Core_0_L1D_prefetch_issued 837196
Core_0_L1D_prefetch_useful 537444
Core_0_L1D_prefetch_useless 52097
Core_0_L1D_prefetch_late 48294
Core_0_L1D_prefetch_accuracy 0.641957
Core_0_L1D_prefetch_coverage 0.518417

Core_0_L2C_total_access 4739501
Core_0_L2C_total_hit 3755477
Core_0_L2C_total_miss 984024
Core_0_L2C_total_MPKI 19.6805
Core_0_L2C_total_miss_rate 0.207622
Core_0_L2C_demand_access 555577
Core_0_L2C_demand_hit 343428
Core_0_L2C_demand_miss 212149
Core_0_L2C_demand_MPKI 4.24298
Core_0_L2C_demand_miss_rate 0.381853
Core_0_L2C_load_access 281784
Core_0_L2C_load_hit 175908
Core_0_L2C_load_miss 105876
Core_0_L2C_load_MPKI 2.11752
Core_0_L2C_load_miss_rate 0.375735
Core_0_L2C_rfo_access 273793
Core_0_L2C_rfo_hit 167520
Core_0_L2C_rfo_miss 106273
Core_0_L2C_rfo_MPKI 2.12546
Core_0_L2C_rfo_miss_rate 0.388151
Core_0_L2C_prefetch_access 3774790
Core_0_L2C_prefetch_hit 3002965
Core_0_L2C_prefetch_miss 771825
Core_0_L2C_prefetch_MPKI 15.4365
Core_0_L2C_prefetch_miss_rate 0.204468
Core_0_L2C_writeback_access 409134
Core_0_L2C_writeback_hit 409084
Core_0_L2C_writeback_miss 50
Core_0_L2C_writeback_MPKI 0.001
Core_0_L2C_writeback_miss_rate 0.000122209
Core_0_L2C_prefetch_requested 3831018
Core_0_L2C_prefetch_issued 3185225
Core_0_L2C_prefetch_useful 239194
Core_0_L2C_prefetch_useless 81929
Core_0_L2C_prefetch_late 12800
Core_0_L2C_prefetch_accuracy 0.0750949
Core_0_L2C_prefetch_coverage 0.529961

Core_0_LLC_total_access 740482
Core_0_LLC_total_hit 563159
Core_0_LLC_total_miss 177323
Core_0_LLC_total_MPKI 3.54646
Core_0_LLC_total_miss_rate 0.23947
Core_0_LLC_demand_access 199349
Core_0_LLC_demand_hit 180746
Core_0_LLC_demand_miss 18603
Core_0_LLC_demand_MPKI 0.37206
Core_0_LLC_demand_miss_rate 0.0933188
Core_0_LLC_load_access 93087
Core_0_LLC_load_hit 87055
Core_0_LLC_load_miss 6032
Core_0_LLC_load_MPKI 0.12064
Core_0_LLC_load_miss_rate 0.0647996
Core_0_LLC_rfo_access 106262
Core_0_LLC_rfo_hit 93691
Core_0_LLC_rfo_miss 12571
Core_0_LLC_rfo_MPKI 0.25142
Core_0_LLC_rfo_miss_rate 0.118302
Core_0_LLC_prefetch_access 359210
Core_0_LLC_prefetch_hit 205897
Core_0_LLC_prefetch_miss 153313
Core_0_LLC_prefetch_MPKI 3.06626
Core_0_LLC_prefetch_miss_rate 0.426806
Core_0_LLC_writeback_access 181923
Core_0_LLC_writeback_hit 176516
Core_0_LLC_writeback_miss 5407
Core_0_LLC_writeback_MPKI 0.10814
Core_0_LLC_writeback_miss_rate 0.0297214
Core_0_LLC_prefetch_requested 0
Core_0_LLC_prefetch_issued 0
Core_0_LLC_prefetch_useful 0
Core_0_LLC_prefetch_useless 0
Core_0_LLC_prefetch_late 0
Core_0_LLC_prefetch_accuracy 0
Core_0_LLC_prefetch_coverage 0

[DRAM Statistics]
Channel_0_RQ_row_buffer_hit 9965
Channel_0_RQ_row_buffer_miss 162462
Channel_0_WQ_row_buffer_hit 4444
Channel_0_WQ_row_buffer_miss 43014
Channel_0_WQ_full 0
Channel_0_dbus_congested 433508
DRAM_total_RQ_row_buffer_hit 9965
DRAM_total_RQ_row_buffer_miss 162462
DRAM_total_WQ_row_buffer_hit 4444
DRAM_total_WQ_row_buffer_miss 43014
DRAM_total_WQ_full 0
DRAM_total_dbus_congested 433508
DRAM_avg_congested_cycle 5.82511

======STLB miss causes ========
Core_0_STLB_miss_cause_breakdown
Core_0_STLB_cause_Demand_Data_miss 2417
Core_0_STLB_cause_Demand_Data_miss_rate 0.0535588
Core_0_STLB_cause_Demand_Instruction_miss 3
Core_0_STLB_cause_Demand_Instruction_miss_rate 6.64776e-05
Core_0_STLB_cause_L1D_Prefetch_miss 0
Core_0_STLB_cause_L1D_Prefetch_miss_rate 0
Core_0_STLB_cause_L1I_Prefetch_miss 0
Core_0_STLB_cause_L1I_Prefetch_miss_rate 0
Core_0_STLB_cause_Other_miss 0
Core_0_STLB_cause_Other_miss_rate 0
Core_0_STLB_Demand_miss 2420
Core_0_STLB_Demand_miss_rate 0.0536252
Core_0_STLB_L1D_Prefetch_miss 0
Core_0_STLB_L1D_Prefetch_miss_rate 0
Core_0_STLB_Other_miss 0
Core_0_STLB_Other_miss_rate 0
