[VMEM] WARNING: physical memory size is smaller than virtual memory size.

*** ChampSim Multicore Out-of-Order Simulator ***
Warmup Instructions: 20000000
Simulation Instructions: 50000000
Number of CPUs: 1
Page size: 4096
STLB ideal mode: l1pref
Core 0: /data0/tzh/champsim_traces/SPEC17/641.leela_s-862B.champsimtrace.xz
 L1D Berti prefetcher
Off-chip DRAM Size: 4 GiB Channels: 1 Width: 64-bit Data Rate: 3205 MT/s
Warmup halting CPU 0 at instruction 20000004 cycle 4287773 for remainder of phase
Warmup finished CPU 0 instructions: 20000004 cycles: 4287773 cumulative IPC: 4.664 (Simulation time: 00 hr 00 min 54 sec)
Warmup complete CPU 0 instructions: 20000004 cycles: 4287773 cumulative IPC: 4.664 (Simulation time: 00 hr 00 min 54 sec)
Simulation finished CPU 0 instructions: 50000001 cycles: 29936419 cumulative IPC: 1.67 (Simulation time: 00 hr 04 min 24 sec)
Simulation complete CPU 0 instructions: 50000001 cycles: 29936419 cumulative IPC: 1.67 (Simulation time: 00 hr 04 min 24 sec)

ChampSim completed all CPUs

=== Simulation ===
CPU 0 runs /data0/tzh/champsim_traces/SPEC17/641.leela_s-862B.champsimtrace.xz

Region of Interest Statistics

CPU 0 cumulative IPC: 1.67 instructions: 50000001 cycles: 29936419
CPU 0 Branch Prediction Accuracy: 89.05% MPKI: 18.03 Average ROB Occupancy at Mispredict: 27.99
Branch type MPKI
BRANCH_DIRECT_JUMP: 0.07704
BRANCH_INDIRECT: 0.0006
BRANCH_CONDITIONAL: 17.92
BRANCH_DIRECT_CALL: 0.00018
BRANCH_INDIRECT_CALL: 0
BRANCH_RETURN: 0.03192

cpu0->cpu0_STLB TOTAL        ACCESS:      24863 HIT:      24797 MISS:         66 MSHR_MERGE:          0
cpu0->cpu0_STLB LOAD         ACCESS:      24863 HIT:      24797 MISS:         66 MSHR_MERGE:          0
cpu0->cpu0_STLB RFO          ACCESS:          0 HIT:          0 MISS:          0 MSHR_MERGE:          0
cpu0->cpu0_STLB PREFETCH     ACCESS:          0 HIT:          0 MISS:          0 MSHR_MERGE:          0
cpu0->cpu0_STLB WRITE        ACCESS:          0 HIT:          0 MISS:          0 MSHR_MERGE:          0
cpu0->cpu0_STLB TRANSLATION  ACCESS:          0 HIT:          0 MISS:          0 MSHR_MERGE:          0
cpu0->cpu0_STLB PREFETCH REQUESTED:          0 ISSUED:          0 USEFUL:          0 USELESS:          0 LATE:          0
cpu0->cpu0_STLB AVERAGE MISS LATENCY: 266.5 cycles
cpu0->cpu0_L2C TOTAL        ACCESS:     338711 HIT:     330414 MISS:       8297 MSHR_MERGE:       1556
cpu0->cpu0_L2C LOAD         ACCESS:      52310 HIT:      51247 MISS:       1063 MSHR_MERGE:         13
cpu0->cpu0_L2C RFO          ACCESS:       8310 HIT:       8188 MISS:        122 MSHR_MERGE:          3
cpu0->cpu0_L2C PREFETCH     ACCESS:     259495 HIT:     252425 MISS:       7070 MSHR_MERGE:       1540
cpu0->cpu0_L2C WRITE        ACCESS:      18531 HIT:      18528 MISS:          3 MSHR_MERGE:          0
cpu0->cpu0_L2C TRANSLATION  ACCESS:         65 HIT:         26 MISS:         39 MSHR_MERGE:          0
cpu0->cpu0_L2C PREFETCH REQUESTED:     201936 ISSUED:     199166 USEFUL:       2177 USELESS:       2478 LATE:         16
cpu0->cpu0_L2C AVERAGE MISS LATENCY: 73.66 cycles
cpu0->cpu0_L1I TOTAL        ACCESS:      66752 HIT:      66737 MISS:         15 MSHR_MERGE:          9
cpu0->cpu0_L1I LOAD         ACCESS:      66752 HIT:      66737 MISS:         15 MSHR_MERGE:          9
cpu0->cpu0_L1I RFO          ACCESS:          0 HIT:          0 MISS:          0 MSHR_MERGE:          0
cpu0->cpu0_L1I PREFETCH     ACCESS:          0 HIT:          0 MISS:          0 MSHR_MERGE:          0
cpu0->cpu0_L1I WRITE        ACCESS:          0 HIT:          0 MISS:          0 MSHR_MERGE:          0
cpu0->cpu0_L1I TRANSLATION  ACCESS:          0 HIT:          0 MISS:          0 MSHR_MERGE:          0
cpu0->cpu0_L1I PREFETCH REQUESTED:          0 ISSUED:          0 USEFUL:          0 USELESS:          0 LATE:          0
cpu0->cpu0_L1I AVERAGE MISS LATENCY: 65.33 cycles
cpu0->cpu0_L1D TOTAL        ACCESS:   14655184 HIT:   14511168 MISS:     144016 MSHR_MERGE:      23005
cpu0->cpu0_L1D LOAD         ACCESS:    8820561 HIT:    8762347 MISS:      58214 MSHR_MERGE:       5907
cpu0->cpu0_L1D RFO          ACCESS:          0 HIT:          0 MISS:          0 MSHR_MERGE:          0
cpu0->cpu0_L1D PREFETCH     ACCESS:     122735 HIT:      61512 MISS:      61223 MSHR_MERGE:        894
cpu0->cpu0_L1D WRITE        ACCESS:    5711756 HIT:    5687242 MISS:      24514 MSHR_MERGE:      16204
cpu0->cpu0_L1D TRANSLATION  ACCESS:        132 HIT:         67 MISS:         65 MSHR_MERGE:          0
cpu0->cpu0_L1D PREFETCH REQUESTED:     132356 ISSUED:     122735 USEFUL:      35848 USELESS:      24436 LATE:       3294
cpu0->cpu0_L1D AVERAGE MISS LATENCY: 9.367 cycles
cpu0->cpu0_ITLB TOTAL        ACCESS:      65388 HIT:      65388 MISS:          0 MSHR_MERGE:          0
cpu0->cpu0_ITLB LOAD         ACCESS:      65388 HIT:      65388 MISS:          0 MSHR_MERGE:          0
cpu0->cpu0_ITLB RFO          ACCESS:          0 HIT:          0 MISS:          0 MSHR_MERGE:          0
cpu0->cpu0_ITLB PREFETCH     ACCESS:          0 HIT:          0 MISS:          0 MSHR_MERGE:          0
cpu0->cpu0_ITLB WRITE        ACCESS:          0 HIT:          0 MISS:          0 MSHR_MERGE:          0
cpu0->cpu0_ITLB TRANSLATION  ACCESS:          0 HIT:          0 MISS:          0 MSHR_MERGE:          0
cpu0->cpu0_ITLB PREFETCH REQUESTED:          0 ISSUED:          0 USEFUL:          0 USELESS:          0 LATE:          0
cpu0->cpu0_ITLB AVERAGE MISS LATENCY: - cycles
cpu0->cpu0_DTLB TOTAL        ACCESS:   13731002 HIT:   13703631 MISS:      27371 MSHR_MERGE:       2508
cpu0->cpu0_DTLB LOAD         ACCESS:   13731002 HIT:   13703631 MISS:      27371 MSHR_MERGE:       2508
cpu0->cpu0_DTLB RFO          ACCESS:          0 HIT:          0 MISS:          0 MSHR_MERGE:          0
cpu0->cpu0_DTLB PREFETCH     ACCESS:          0 HIT:          0 MISS:          0 MSHR_MERGE:          0
cpu0->cpu0_DTLB WRITE        ACCESS:          0 HIT:          0 MISS:          0 MSHR_MERGE:          0
cpu0->cpu0_DTLB TRANSLATION  ACCESS:          0 HIT:          0 MISS:          0 MSHR_MERGE:          0
cpu0->cpu0_DTLB PREFETCH REQUESTED:          0 ISSUED:          0 USEFUL:          0 USELESS:          0 LATE:          0
cpu0->cpu0_DTLB AVERAGE MISS LATENCY: 5.71 cycles
cpu0->LLC TOTAL        ACCESS:       7280 HIT:       3771 MISS:       3509 MSHR_MERGE:          0
cpu0->LLC LOAD         ACCESS:       1050 HIT:        698 MISS:        352 MSHR_MERGE:          0
cpu0->LLC RFO          ACCESS:        119 HIT:         24 MISS:         95 MSHR_MERGE:          0
cpu0->LLC PREFETCH     ACCESS:       5530 HIT:       2493 MISS:       3037 MSHR_MERGE:          0
cpu0->LLC WRITE        ACCESS:        542 HIT:        542 MISS:          0 MSHR_MERGE:          0
cpu0->LLC TRANSLATION  ACCESS:         39 HIT:         14 MISS:         25 MSHR_MERGE:          0
cpu0->LLC PREFETCH REQUESTED:          0 ISSUED:          0 USEFUL:          0 USELESS:          0 LATE:          0
cpu0->LLC AVERAGE MISS LATENCY: 149.3 cycles

DRAM Statistics

Channel 0 RQ ROW_BUFFER_HIT:        221
  ROW_BUFFER_MISS:       3288
  AVG DBUS CONGESTED CYCLE: 2.508
Channel 0 WQ ROW_BUFFER_HIT:          0
  ROW_BUFFER_MISS:          0
  FULL:          0
Channel 0 REFRESHES ISSUED:       2495

[ROI Statistics]
[System Configuration]
num_cpus 1
cpu_freq 4000
fetch_width 6
decode_width 6
dispatch_width 6
execute_width 6
lq_width 2
sq_width 2
retire_width 6
scheduler_size 160
branch_mispredict_penalty 1
rob_size 352
lq_size 240
sq_size 112
ifetch_buffer_size 64
decode_buffer_size 32
dispatch_buffer_size 32
register_file_size 288
decode_latency 1
dispatch_latency 1
schedule_latency 0
execute_latency 0
page_size 4096
block_size 64
core_0_itlb_set 16
core_0_itlb_way 4
core_0_itlb_rq_size 16
core_0_itlb_wq_size 16
core_0_itlb_pq_size 0
core_0_itlb_mshr_size 8
core_0_itlb_hit_latency 1
core_0_itlb_fill_latency 1
core_0_itlb_max_tag_check 2
core_0_itlb_max_fill 2
core_0_dtlb_set 16
core_0_dtlb_way 4
core_0_dtlb_rq_size 16
core_0_dtlb_wq_size 16
core_0_dtlb_pq_size 0
core_0_dtlb_mshr_size 8
core_0_dtlb_hit_latency 1
core_0_dtlb_fill_latency 1
core_0_dtlb_max_tag_check 2
core_0_dtlb_max_fill 2
core_0_stlb_set 128
core_0_stlb_way 12
core_0_stlb_rq_size 32
core_0_stlb_wq_size 32
core_0_stlb_pq_size 0
core_0_stlb_mshr_size 16
core_0_stlb_hit_latency 4
core_0_stlb_fill_latency 4
core_0_stlb_max_tag_check 1
core_0_stlb_max_fill 1
core_0_l1i_set 64
core_0_l1i_way 8
core_0_l1i_rq_size 64
core_0_l1i_wq_size 64
core_0_l1i_pq_size 32
core_0_l1i_mshr_size 8
core_0_l1i_hit_latency 2
core_0_l1i_fill_latency 2
core_0_l1i_max_tag_check 2
core_0_l1i_max_fill 2
core_0_l1d_set 64
core_0_l1d_way 12
core_0_l1d_rq_size 64
core_0_l1d_wq_size 64
core_0_l1d_pq_size 8
core_0_l1d_mshr_size 16
core_0_l1d_hit_latency 2
core_0_l1d_fill_latency 3
core_0_l1d_max_tag_check 2
core_0_l1d_max_fill 2
core_0_l2c_set 1024
core_0_l2c_way 8
core_0_l2c_rq_size 32
core_0_l2c_wq_size 32
core_0_l2c_pq_size 16
core_0_l2c_mshr_size 32
core_0_l2c_hit_latency 5
core_0_l2c_fill_latency 5
core_0_l2c_max_tag_check 1
core_0_l2c_max_fill 1
llc_set 2048
llc_way 16
llc_rq_size 32
llc_wq_size 32
llc_pq_size 32
llc_mshr_size 64
llc_hit_latency 10
llc_fill_latency 10
llc_max_tag_check 1
llc_max_fill 1
dram_channels 1
dram_ranks 1
dram_bankgroups 8
dram_banks 4
dram_rows 16384
dram_columns 1024
dram_channel_width 8
dram_rq_size 64
dram_wq_size 64
dram_size 4294967296
core_0_itlb_prefetcher no
core_0_dtlb_prefetcher no
core_0_stlb_prefetcher no
core_0_l1i_prefetcher next_line
core_0_l1d_prefetcher berti
core_0_l2c_prefetcher pythia
llc_prefetcher no
llc_replacement drrip

Core_0_instructions 50000001
Core_0_cycles 29936419
Core_0_IPC 1.67021
Core_0_branch_prediction_accuracy 89.0541
Core_0_branch_MPKI 18.0314
Core_0_average_ROB_occupancy_at_mispredict 27.9918

Core_0_ITLB_total_access 65388
Core_0_ITLB_total_hit 65388
Core_0_ITLB_total_miss 0
Core_0_ITLB_total_MPKI 0
Core_0_ITLB_total_miss_rate 0
Core_0_ITLB_demand_access 65388
Core_0_ITLB_demand_hit 65388
Core_0_ITLB_demand_miss 0
Core_0_ITLB_demand_MPKI 0
Core_0_ITLB_demand_miss_rate 0
Core_0_ITLB_load_access 65388
Core_0_ITLB_load_hit 65388
Core_0_ITLB_load_miss 0
Core_0_ITLB_load_MPKI 0
Core_0_ITLB_load_miss_rate 0
Core_0_ITLB_rfo_access 0
Core_0_ITLB_rfo_hit 0
Core_0_ITLB_rfo_miss 0
Core_0_ITLB_rfo_MPKI 0
Core_0_ITLB_rfo_miss_rate 0
Core_0_ITLB_prefetch_access 0
Core_0_ITLB_prefetch_hit 0
Core_0_ITLB_prefetch_miss 0
Core_0_ITLB_prefetch_MPKI 0
Core_0_ITLB_prefetch_miss_rate 0
Core_0_ITLB_writeback_access 0
Core_0_ITLB_writeback_hit 0
Core_0_ITLB_writeback_miss 0
Core_0_ITLB_writeback_MPKI 0
Core_0_ITLB_writeback_miss_rate 0
Core_0_ITLB_prefetch_requested 0
Core_0_ITLB_prefetch_issued 0
Core_0_ITLB_prefetch_useful 0
Core_0_ITLB_prefetch_useless 0
Core_0_ITLB_prefetch_late 0
Core_0_ITLB_prefetch_accuracy 0
Core_0_ITLB_prefetch_coverage 0

Core_0_DTLB_total_access 13731002
Core_0_DTLB_total_hit 13703631
Core_0_DTLB_total_miss 27371
Core_0_DTLB_total_MPKI 0.54742
Core_0_DTLB_total_miss_rate 0.00199337
Core_0_DTLB_demand_access 13731002
Core_0_DTLB_demand_hit 13703631
Core_0_DTLB_demand_miss 27371
Core_0_DTLB_demand_MPKI 0.54742
Core_0_DTLB_demand_miss_rate 0.00199337
Core_0_DTLB_load_access 13731002
Core_0_DTLB_load_hit 13703631
Core_0_DTLB_load_miss 27371
Core_0_DTLB_load_MPKI 0.54742
Core_0_DTLB_load_miss_rate 0.00199337
Core_0_DTLB_rfo_access 0
Core_0_DTLB_rfo_hit 0
Core_0_DTLB_rfo_miss 0
Core_0_DTLB_rfo_MPKI 0
Core_0_DTLB_rfo_miss_rate 0
Core_0_DTLB_prefetch_access 0
Core_0_DTLB_prefetch_hit 0
Core_0_DTLB_prefetch_miss 0
Core_0_DTLB_prefetch_MPKI 0
Core_0_DTLB_prefetch_miss_rate 0
Core_0_DTLB_writeback_access 0
Core_0_DTLB_writeback_hit 0
Core_0_DTLB_writeback_miss 0
Core_0_DTLB_writeback_MPKI 0
Core_0_DTLB_writeback_miss_rate 0
Core_0_DTLB_prefetch_requested 0
Core_0_DTLB_prefetch_issued 0
Core_0_DTLB_prefetch_useful 0
Core_0_DTLB_prefetch_useless 0
Core_0_DTLB_prefetch_late 0
Core_0_DTLB_prefetch_accuracy 0
Core_0_DTLB_prefetch_coverage 0

Core_0_STLB_total_access 24863
Core_0_STLB_total_hit 24797
Core_0_STLB_total_miss 66
Core_0_STLB_total_MPKI 0.00132
Core_0_STLB_total_miss_rate 0.00265455
Core_0_STLB_demand_access 24863
Core_0_STLB_demand_hit 24797
Core_0_STLB_demand_miss 66
Core_0_STLB_demand_MPKI 0.00132
Core_0_STLB_demand_miss_rate 0.00265455
Core_0_STLB_load_access 24863
Core_0_STLB_load_hit 24797
Core_0_STLB_load_miss 66
Core_0_STLB_load_MPKI 0.00132
Core_0_STLB_load_miss_rate 0.00265455
Core_0_STLB_rfo_access 0
Core_0_STLB_rfo_hit 0
Core_0_STLB_rfo_miss 0
Core_0_STLB_rfo_MPKI 0
Core_0_STLB_rfo_miss_rate 0
Core_0_STLB_prefetch_access 0
Core_0_STLB_prefetch_hit 0
Core_0_STLB_prefetch_miss 0
Core_0_STLB_prefetch_MPKI 0
Core_0_STLB_prefetch_miss_rate 0
Core_0_STLB_writeback_access 0
Core_0_STLB_writeback_hit 0
Core_0_STLB_writeback_miss 0
Core_0_STLB_writeback_MPKI 0
Core_0_STLB_writeback_miss_rate 0
Core_0_STLB_prefetch_requested 0
Core_0_STLB_prefetch_issued 0
Core_0_STLB_prefetch_useful 0
Core_0_STLB_prefetch_useless 0
Core_0_STLB_prefetch_late 0
Core_0_STLB_prefetch_accuracy 0
Core_0_STLB_prefetch_coverage 0

Core_0_L1I_total_access 66752
Core_0_L1I_total_hit 66737
Core_0_L1I_total_miss 15
Core_0_L1I_total_MPKI 0.0003
Core_0_L1I_total_miss_rate 0.000224712
Core_0_L1I_demand_access 66752
Core_0_L1I_demand_hit 66737
Core_0_L1I_demand_miss 15
Core_0_L1I_demand_MPKI 0.0003
Core_0_L1I_demand_miss_rate 0.000224712
Core_0_L1I_load_access 66752
Core_0_L1I_load_hit 66737
Core_0_L1I_load_miss 15
Core_0_L1I_load_MPKI 0.0003
Core_0_L1I_load_miss_rate 0.000224712
Core_0_L1I_rfo_access 0
Core_0_L1I_rfo_hit 0
Core_0_L1I_rfo_miss 0
Core_0_L1I_rfo_MPKI 0
Core_0_L1I_rfo_miss_rate 0
Core_0_L1I_prefetch_access 0
Core_0_L1I_prefetch_hit 0
Core_0_L1I_prefetch_miss 0
Core_0_L1I_prefetch_MPKI 0
Core_0_L1I_prefetch_miss_rate 0
Core_0_L1I_writeback_access 0
Core_0_L1I_writeback_hit 0
Core_0_L1I_writeback_miss 0
Core_0_L1I_writeback_MPKI 0
Core_0_L1I_writeback_miss_rate 0
Core_0_L1I_prefetch_requested 0
Core_0_L1I_prefetch_issued 0
Core_0_L1I_prefetch_useful 0
Core_0_L1I_prefetch_useless 0
Core_0_L1I_prefetch_late 0
Core_0_L1I_prefetch_accuracy 0
Core_0_L1I_prefetch_coverage 0

Core_0_L1D_total_access 14655052
Core_0_L1D_total_hit 14511101
Core_0_L1D_total_miss 143951
Core_0_L1D_total_MPKI 2.87902
Core_0_L1D_total_miss_rate 0.00982262
Core_0_L1D_demand_access 8820561
Core_0_L1D_demand_hit 8762347
Core_0_L1D_demand_miss 58214
Core_0_L1D_demand_MPKI 1.16428
Core_0_L1D_demand_miss_rate 0.00659981
Core_0_L1D_load_access 8820561
Core_0_L1D_load_hit 8762347
Core_0_L1D_load_miss 58214
Core_0_L1D_load_MPKI 1.16428
Core_0_L1D_load_miss_rate 0.00659981
Core_0_L1D_rfo_access 0
Core_0_L1D_rfo_hit 0
Core_0_L1D_rfo_miss 0
Core_0_L1D_rfo_MPKI 0
Core_0_L1D_rfo_miss_rate 0
Core_0_L1D_prefetch_access 122735
Core_0_L1D_prefetch_hit 61512
Core_0_L1D_prefetch_miss 61223
Core_0_L1D_prefetch_MPKI 1.22446
Core_0_L1D_prefetch_miss_rate 0.498823
Core_0_L1D_writeback_access 5711756
Core_0_L1D_writeback_hit 5687242
Core_0_L1D_writeback_miss 24514
Core_0_L1D_writeback_MPKI 0.49028
Core_0_L1D_writeback_miss_rate 0.00429185
Core_0_L1D_prefetch_requested 132356
Core_0_L1D_prefetch_issued 122735
Core_0_L1D_prefetch_useful 35848
Core_0_L1D_prefetch_useless 24436
Core_0_L1D_prefetch_late 3294
Core_0_L1D_prefetch_accuracy 0.292076
Core_0_L1D_prefetch_coverage 0.38111

Core_0_L2C_total_access 338646
Core_0_L2C_total_hit 330388
Core_0_L2C_total_miss 8258
Core_0_L2C_total_MPKI 0.16516
Core_0_L2C_total_miss_rate 0.0243853
Core_0_L2C_demand_access 60620
Core_0_L2C_demand_hit 59435
Core_0_L2C_demand_miss 1185
Core_0_L2C_demand_MPKI 0.0237
Core_0_L2C_demand_miss_rate 0.019548
Core_0_L2C_load_access 52310
Core_0_L2C_load_hit 51247
Core_0_L2C_load_miss 1063
Core_0_L2C_load_MPKI 0.02126
Core_0_L2C_load_miss_rate 0.0203212
Core_0_L2C_rfo_access 8310
Core_0_L2C_rfo_hit 8188
Core_0_L2C_rfo_miss 122
Core_0_L2C_rfo_MPKI 0.00244
Core_0_L2C_rfo_miss_rate 0.0146811
Core_0_L2C_prefetch_access 259495
Core_0_L2C_prefetch_hit 252425
Core_0_L2C_prefetch_miss 7070
Core_0_L2C_prefetch_MPKI 0.1414
Core_0_L2C_prefetch_miss_rate 0.0272452
Core_0_L2C_writeback_access 18531
Core_0_L2C_writeback_hit 18528
Core_0_L2C_writeback_miss 3
Core_0_L2C_writeback_MPKI 6e-05
Core_0_L2C_writeback_miss_rate 0.000161891
Core_0_L2C_prefetch_requested 201936
Core_0_L2C_prefetch_issued 199166
Core_0_L2C_prefetch_useful 2177
Core_0_L2C_prefetch_useless 2478
Core_0_L2C_prefetch_late 16
Core_0_L2C_prefetch_accuracy 0.0109306
Core_0_L2C_prefetch_coverage 0.647531

Core_0_LLC_total_access 7241
Core_0_LLC_total_hit 3757
Core_0_LLC_total_miss 3484
Core_0_LLC_total_MPKI 0.06968
Core_0_LLC_total_miss_rate 0.481149
Core_0_LLC_demand_access 1169
Core_0_LLC_demand_hit 722
Core_0_LLC_demand_miss 447
Core_0_LLC_demand_MPKI 0.00894
Core_0_LLC_demand_miss_rate 0.382378
Core_0_LLC_load_access 1050
Core_0_LLC_load_hit 698
Core_0_LLC_load_miss 352
Core_0_LLC_load_MPKI 0.00704
Core_0_LLC_load_miss_rate 0.335238
Core_0_LLC_rfo_access 119
Core_0_LLC_rfo_hit 24
Core_0_LLC_rfo_miss 95
Core_0_LLC_rfo_MPKI 0.0019
Core_0_LLC_rfo_miss_rate 0.798319
Core_0_LLC_prefetch_access 5530
Core_0_LLC_prefetch_hit 2493
Core_0_LLC_prefetch_miss 3037
Core_0_LLC_prefetch_MPKI 0.06074
Core_0_LLC_prefetch_miss_rate 0.549186
Core_0_LLC_writeback_access 542
Core_0_LLC_writeback_hit 542
Core_0_LLC_writeback_miss 0
Core_0_LLC_writeback_MPKI 0
Core_0_LLC_writeback_miss_rate 0
Core_0_LLC_prefetch_requested 0
Core_0_LLC_prefetch_issued 0
Core_0_LLC_prefetch_useful 0
Core_0_LLC_prefetch_useless 0
Core_0_LLC_prefetch_late 0
Core_0_LLC_prefetch_accuracy 0
Core_0_LLC_prefetch_coverage 0

[DRAM Statistics]
Channel_0_RQ_row_buffer_hit 221
Channel_0_RQ_row_buffer_miss 3288
Channel_0_WQ_row_buffer_hit 0
Channel_0_WQ_row_buffer_miss 0
Channel_0_WQ_full 0
Channel_0_dbus_congested 2200
DRAM_total_RQ_row_buffer_hit 221
DRAM_total_RQ_row_buffer_miss 3288
DRAM_total_WQ_row_buffer_hit 0
DRAM_total_WQ_row_buffer_miss 0
DRAM_total_WQ_full 0
DRAM_total_dbus_congested 2200
DRAM_avg_congested_cycle 2.50818

======STLB miss causes ========
Core_0_STLB_miss_cause_breakdown
Core_0_STLB_cause_Demand_Data_miss 66
Core_0_STLB_cause_Demand_Data_miss_rate 0.00265455
Core_0_STLB_cause_Demand_Instruction_miss 0
Core_0_STLB_cause_Demand_Instruction_miss_rate 0
Core_0_STLB_cause_L1D_Prefetch_miss 0
Core_0_STLB_cause_L1D_Prefetch_miss_rate 0
Core_0_STLB_cause_L1I_Prefetch_miss 0
Core_0_STLB_cause_L1I_Prefetch_miss_rate 0
Core_0_STLB_cause_Other_miss 0
Core_0_STLB_cause_Other_miss_rate 0
Core_0_STLB_Demand_miss 66
Core_0_STLB_Demand_miss_rate 0.00265455
Core_0_STLB_L1D_Prefetch_miss 0
Core_0_STLB_L1D_Prefetch_miss_rate 0
Core_0_STLB_Other_miss 0
Core_0_STLB_Other_miss_rate 0
