[VMEM] WARNING: physical memory size is smaller than virtual memory size.

*** ChampSim Multicore Out-of-Order Simulator ***
Warmup Instructions: 20000000
Simulation Instructions: 50000000
Number of CPUs: 1
Page size: 4096
STLB ideal mode: l1pref
Core 0: /data0/tzh/champsim_traces/SPEC17/654.roms_s-842B.champsimtrace.xz
 L1D Berti prefetcher
Off-chip DRAM Size: 4 GiB Channels: 1 Width: 64-bit Data Rate: 3205 MT/s
Warmup halting CPU 0 at instruction 20000000 cycle 4161200 for remainder of phase
Warmup finished CPU 0 instructions: 20000000 cycles: 4161200 cumulative IPC: 4.806 (Simulation time: 00 hr 00 min 42 sec)
Warmup complete CPU 0 instructions: 20000000 cycles: 4161200 cumulative IPC: 4.806 (Simulation time: 00 hr 00 min 42 sec)
Simulation finished CPU 0 instructions: 50000005 cycles: 21435048 cumulative IPC: 2.333 (Simulation time: 00 hr 03 min 28 sec)
Simulation complete CPU 0 instructions: 50000005 cycles: 21435048 cumulative IPC: 2.333 (Simulation time: 00 hr 03 min 28 sec)

ChampSim completed all CPUs

=== Simulation ===
CPU 0 runs /data0/tzh/champsim_traces/SPEC17/654.roms_s-842B.champsimtrace.xz

Region of Interest Statistics

CPU 0 cumulative IPC: 2.333 instructions: 50000005 cycles: 21435048
CPU 0 Branch Prediction Accuracy: 94.63% MPKI: 8.661 Average ROB Occupancy at Mispredict: 60.03
Branch type MPKI
BRANCH_DIRECT_JUMP: 0.1451
BRANCH_INDIRECT: 0
BRANCH_CONDITIONAL: 6.982
BRANCH_DIRECT_CALL: 0
BRANCH_INDIRECT_CALL: 0
BRANCH_RETURN: 1.534

cpu0->cpu0_STLB TOTAL        ACCESS:        261 HIT:         52 MISS:        209 MSHR_MERGE:          0
cpu0->cpu0_STLB LOAD         ACCESS:        261 HIT:         52 MISS:        209 MSHR_MERGE:          0
cpu0->cpu0_STLB RFO          ACCESS:          0 HIT:          0 MISS:          0 MSHR_MERGE:          0
cpu0->cpu0_STLB PREFETCH     ACCESS:          0 HIT:          0 MISS:          0 MSHR_MERGE:          0
cpu0->cpu0_STLB WRITE        ACCESS:          0 HIT:          0 MISS:          0 MSHR_MERGE:          0
cpu0->cpu0_STLB TRANSLATION  ACCESS:          0 HIT:          0 MISS:          0 MSHR_MERGE:          0
cpu0->cpu0_STLB PREFETCH REQUESTED:          0 ISSUED:          0 USEFUL:          0 USELESS:          0 LATE:          0
cpu0->cpu0_STLB AVERAGE MISS LATENCY: 238.9 cycles
cpu0->cpu0_L2C TOTAL        ACCESS:      43290 HIT:      29297 MISS:      13993 MSHR_MERGE:       3472
cpu0->cpu0_L2C LOAD         ACCESS:       1045 HIT:        695 MISS:        350 MSHR_MERGE:        146
cpu0->cpu0_L2C RFO          ACCESS:       4052 HIT:        119 MISS:       3933 MSHR_MERGE:          0
cpu0->cpu0_L2C PREFETCH     ACCESS:      34076 HIT:      24399 MISS:       9677 MSHR_MERGE:       3326
cpu0->cpu0_L2C WRITE        ACCESS:       4084 HIT:       4084 MISS:          0 MSHR_MERGE:          0
cpu0->cpu0_L2C TRANSLATION  ACCESS:         33 HIT:          0 MISS:         33 MSHR_MERGE:          0
cpu0->cpu0_L2C PREFETCH REQUESTED:      29043 ISSUED:      28801 USEFUL:       5144 USELESS:        333 LATE:        146
cpu0->cpu0_L2C AVERAGE MISS LATENCY: 162 cycles
cpu0->cpu0_L1I TOTAL        ACCESS:      64320 HIT:      64320 MISS:          0 MSHR_MERGE:          0
cpu0->cpu0_L1I LOAD         ACCESS:      64320 HIT:      64320 MISS:          0 MSHR_MERGE:          0
cpu0->cpu0_L1I RFO          ACCESS:          0 HIT:          0 MISS:          0 MSHR_MERGE:          0
cpu0->cpu0_L1I PREFETCH     ACCESS:          0 HIT:          0 MISS:          0 MSHR_MERGE:          0
cpu0->cpu0_L1I WRITE        ACCESS:          0 HIT:          0 MISS:          0 MSHR_MERGE:          0
cpu0->cpu0_L1I TRANSLATION  ACCESS:          0 HIT:          0 MISS:          0 MSHR_MERGE:          0
cpu0->cpu0_L1I PREFETCH REQUESTED:          0 ISSUED:          0 USEFUL:          0 USELESS:          0 LATE:          0
cpu0->cpu0_L1I AVERAGE MISS LATENCY: - cycles
cpu0->cpu0_L1D TOTAL        ACCESS:    9568884 HIT:    9555558 MISS:      13326 MSHR_MERGE:       2920
cpu0->cpu0_L1D LOAD         ACCESS:    5823333 HIT:    5820196 MISS:       3137 MSHR_MERGE:       2092
cpu0->cpu0_L1D RFO          ACCESS:          0 HIT:          0 MISS:          0 MSHR_MERGE:          0
cpu0->cpu0_L1D PREFETCH     ACCESS:       6926 HIT:       1490 MISS:       5436 MSHR_MERGE:        161
cpu0->cpu0_L1D WRITE        ACCESS:    3738206 HIT:    3733486 MISS:       4720 MSHR_MERGE:        667
cpu0->cpu0_L1D TRANSLATION  ACCESS:        419 HIT:        386 MISS:         33 MSHR_MERGE:          0
cpu0->cpu0_L1D PREFETCH REQUESTED:       6989 ISSUED:       6926 USEFUL:       4978 USELESS:        306 LATE:        107
cpu0->cpu0_L1D AVERAGE MISS LATENCY: 143.6 cycles
cpu0->cpu0_ITLB TOTAL        ACCESS:      63966 HIT:      63966 MISS:          0 MSHR_MERGE:          0
cpu0->cpu0_ITLB LOAD         ACCESS:      63966 HIT:      63966 MISS:          0 MSHR_MERGE:          0
cpu0->cpu0_ITLB RFO          ACCESS:          0 HIT:          0 MISS:          0 MSHR_MERGE:          0
cpu0->cpu0_ITLB PREFETCH     ACCESS:          0 HIT:          0 MISS:          0 MSHR_MERGE:          0
cpu0->cpu0_ITLB WRITE        ACCESS:          0 HIT:          0 MISS:          0 MSHR_MERGE:          0
cpu0->cpu0_ITLB TRANSLATION  ACCESS:          0 HIT:          0 MISS:          0 MSHR_MERGE:          0
cpu0->cpu0_ITLB PREFETCH REQUESTED:          0 ISSUED:          0 USEFUL:          0 USELESS:          0 LATE:          0
cpu0->cpu0_ITLB AVERAGE MISS LATENCY: - cycles
cpu0->cpu0_DTLB TOTAL        ACCESS:    9060574 HIT:    9059087 MISS:       1487 MSHR_MERGE:       1226
cpu0->cpu0_DTLB LOAD         ACCESS:    9060574 HIT:    9059087 MISS:       1487 MSHR_MERGE:       1226
cpu0->cpu0_DTLB RFO          ACCESS:          0 HIT:          0 MISS:          0 MSHR_MERGE:          0
cpu0->cpu0_DTLB PREFETCH     ACCESS:          0 HIT:          0 MISS:          0 MSHR_MERGE:          0
cpu0->cpu0_DTLB WRITE        ACCESS:          0 HIT:          0 MISS:          0 MSHR_MERGE:          0
cpu0->cpu0_DTLB TRANSLATION  ACCESS:          0 HIT:          0 MISS:          0 MSHR_MERGE:          0
cpu0->cpu0_DTLB PREFETCH REQUESTED:          0 ISSUED:          0 USEFUL:          0 USELESS:          0 LATE:          0
cpu0->cpu0_DTLB AVERAGE MISS LATENCY: 197.1 cycles
cpu0->LLC TOTAL        ACCESS:      12570 HIT:       2053 MISS:      10517 MSHR_MERGE:          0
cpu0->LLC LOAD         ACCESS:        204 HIT:          0 MISS:        204 MSHR_MERGE:          0
cpu0->LLC RFO          ACCESS:       3933 HIT:          2 MISS:       3931 MSHR_MERGE:          0
cpu0->LLC PREFETCH     ACCESS:       6351 HIT:          2 MISS:       6349 MSHR_MERGE:          0
cpu0->LLC WRITE        ACCESS:       2049 HIT:       2049 MISS:          0 MSHR_MERGE:          0
cpu0->LLC TRANSLATION  ACCESS:         33 HIT:          0 MISS:         33 MSHR_MERGE:          0
cpu0->LLC PREFETCH REQUESTED:          0 ISSUED:          0 USEFUL:          0 USELESS:          0 LATE:          0
cpu0->LLC AVERAGE MISS LATENCY: 148.2 cycles

DRAM Statistics

Channel 0 RQ ROW_BUFFER_HIT:         28
  ROW_BUFFER_MISS:      10489
  AVG DBUS CONGESTED CYCLE: 2.884
Channel 0 WQ ROW_BUFFER_HIT:          0
  ROW_BUFFER_MISS:          0
  FULL:          0
Channel 0 REFRESHES ISSUED:       1787

[ROI Statistics]
[System Configuration]
num_cpus 1
cpu_freq 4000
fetch_width 6
decode_width 6
dispatch_width 6
execute_width 6
lq_width 2
sq_width 2
retire_width 6
scheduler_size 160
branch_mispredict_penalty 1
rob_size 352
lq_size 240
sq_size 112
ifetch_buffer_size 64
decode_buffer_size 32
dispatch_buffer_size 32
register_file_size 288
decode_latency 1
dispatch_latency 1
schedule_latency 0
execute_latency 0
page_size 4096
block_size 64
core_0_itlb_set 16
core_0_itlb_way 4
core_0_itlb_rq_size 16
core_0_itlb_wq_size 16
core_0_itlb_pq_size 0
core_0_itlb_mshr_size 8
core_0_itlb_hit_latency 1
core_0_itlb_fill_latency 1
core_0_itlb_max_tag_check 2
core_0_itlb_max_fill 2
core_0_dtlb_set 16
core_0_dtlb_way 4
core_0_dtlb_rq_size 16
core_0_dtlb_wq_size 16
core_0_dtlb_pq_size 0
core_0_dtlb_mshr_size 8
core_0_dtlb_hit_latency 1
core_0_dtlb_fill_latency 1
core_0_dtlb_max_tag_check 2
core_0_dtlb_max_fill 2
core_0_stlb_set 128
core_0_stlb_way 12
core_0_stlb_rq_size 32
core_0_stlb_wq_size 32
core_0_stlb_pq_size 0
core_0_stlb_mshr_size 16
core_0_stlb_hit_latency 4
core_0_stlb_fill_latency 4
core_0_stlb_max_tag_check 1
core_0_stlb_max_fill 1
core_0_l1i_set 64
core_0_l1i_way 8
core_0_l1i_rq_size 64
core_0_l1i_wq_size 64
core_0_l1i_pq_size 32
core_0_l1i_mshr_size 8
core_0_l1i_hit_latency 2
core_0_l1i_fill_latency 2
core_0_l1i_max_tag_check 2
core_0_l1i_max_fill 2
core_0_l1d_set 64
core_0_l1d_way 12
core_0_l1d_rq_size 64
core_0_l1d_wq_size 64
core_0_l1d_pq_size 8
core_0_l1d_mshr_size 16
core_0_l1d_hit_latency 2
core_0_l1d_fill_latency 3
core_0_l1d_max_tag_check 2
core_0_l1d_max_fill 2
core_0_l2c_set 1024
core_0_l2c_way 8
core_0_l2c_rq_size 32
core_0_l2c_wq_size 32
core_0_l2c_pq_size 16
core_0_l2c_mshr_size 32
core_0_l2c_hit_latency 5
core_0_l2c_fill_latency 5
core_0_l2c_max_tag_check 1
core_0_l2c_max_fill 1
llc_set 2048
llc_way 16
llc_rq_size 32
llc_wq_size 32
llc_pq_size 32
llc_mshr_size 64
llc_hit_latency 10
llc_fill_latency 10
llc_max_tag_check 1
llc_max_fill 1
dram_channels 1
dram_ranks 1
dram_bankgroups 8
dram_banks 4
dram_rows 16384
dram_columns 1024
dram_channel_width 8
dram_rq_size 64
dram_wq_size 64
dram_size 4294967296
core_0_itlb_prefetcher no
core_0_dtlb_prefetcher no
core_0_stlb_prefetcher no
core_0_l1i_prefetcher next_line
core_0_l1d_prefetcher berti
core_0_l2c_prefetcher pythia
llc_prefetcher no
llc_replacement drrip

Core_0_instructions 50000005
Core_0_cycles 21435048
Core_0_IPC 2.33263
Core_0_branch_prediction_accuracy 94.6312
Core_0_branch_MPKI 8.66096
Core_0_average_ROB_occupancy_at_mispredict 60.0338

Core_0_ITLB_total_access 63966
Core_0_ITLB_total_hit 63966
Core_0_ITLB_total_miss 0
Core_0_ITLB_total_MPKI 0
Core_0_ITLB_total_miss_rate 0
Core_0_ITLB_demand_access 63966
Core_0_ITLB_demand_hit 63966
Core_0_ITLB_demand_miss 0
Core_0_ITLB_demand_MPKI 0
Core_0_ITLB_demand_miss_rate 0
Core_0_ITLB_load_access 63966
Core_0_ITLB_load_hit 63966
Core_0_ITLB_load_miss 0
Core_0_ITLB_load_MPKI 0
Core_0_ITLB_load_miss_rate 0
Core_0_ITLB_rfo_access 0
Core_0_ITLB_rfo_hit 0
Core_0_ITLB_rfo_miss 0
Core_0_ITLB_rfo_MPKI 0
Core_0_ITLB_rfo_miss_rate 0
Core_0_ITLB_prefetch_access 0
Core_0_ITLB_prefetch_hit 0
Core_0_ITLB_prefetch_miss 0
Core_0_ITLB_prefetch_MPKI 0
Core_0_ITLB_prefetch_miss_rate 0
Core_0_ITLB_writeback_access 0
Core_0_ITLB_writeback_hit 0
Core_0_ITLB_writeback_miss 0
Core_0_ITLB_writeback_MPKI 0
Core_0_ITLB_writeback_miss_rate 0
Core_0_ITLB_prefetch_requested 0
Core_0_ITLB_prefetch_issued 0
Core_0_ITLB_prefetch_useful 0
Core_0_ITLB_prefetch_useless 0
Core_0_ITLB_prefetch_late 0
Core_0_ITLB_prefetch_accuracy 0
Core_0_ITLB_prefetch_coverage 0

Core_0_DTLB_total_access 9060574
Core_0_DTLB_total_hit 9059087
Core_0_DTLB_total_miss 1487
Core_0_DTLB_total_MPKI 0.02974
Core_0_DTLB_total_miss_rate 0.000164118
Core_0_DTLB_demand_access 9060574
Core_0_DTLB_demand_hit 9059087
Core_0_DTLB_demand_miss 1487
Core_0_DTLB_demand_MPKI 0.02974
Core_0_DTLB_demand_miss_rate 0.000164118
Core_0_DTLB_load_access 9060574
Core_0_DTLB_load_hit 9059087
Core_0_DTLB_load_miss 1487
Core_0_DTLB_load_MPKI 0.02974
Core_0_DTLB_load_miss_rate 0.000164118
Core_0_DTLB_rfo_access 0
Core_0_DTLB_rfo_hit 0
Core_0_DTLB_rfo_miss 0
Core_0_DTLB_rfo_MPKI 0
Core_0_DTLB_rfo_miss_rate 0
Core_0_DTLB_prefetch_access 0
Core_0_DTLB_prefetch_hit 0
Core_0_DTLB_prefetch_miss 0
Core_0_DTLB_prefetch_MPKI 0
Core_0_DTLB_prefetch_miss_rate 0
Core_0_DTLB_writeback_access 0
Core_0_DTLB_writeback_hit 0
Core_0_DTLB_writeback_miss 0
Core_0_DTLB_writeback_MPKI 0
Core_0_DTLB_writeback_miss_rate 0
Core_0_DTLB_prefetch_requested 0
Core_0_DTLB_prefetch_issued 0
Core_0_DTLB_prefetch_useful 0
Core_0_DTLB_prefetch_useless 0
Core_0_DTLB_prefetch_late 0
Core_0_DTLB_prefetch_accuracy 0
Core_0_DTLB_prefetch_coverage 0

Core_0_STLB_total_access 261
Core_0_STLB_total_hit 52
Core_0_STLB_total_miss 209
Core_0_STLB_total_MPKI 0.00418
Core_0_STLB_total_miss_rate 0.800766
Core_0_STLB_demand_access 261
Core_0_STLB_demand_hit 52
Core_0_STLB_demand_miss 209
Core_0_STLB_demand_MPKI 0.00418
Core_0_STLB_demand_miss_rate 0.800766
Core_0_STLB_load_access 261
Core_0_STLB_load_hit 52
Core_0_STLB_load_miss 209
Core_0_STLB_load_MPKI 0.00418
Core_0_STLB_load_miss_rate 0.800766
Core_0_STLB_rfo_access 0
Core_0_STLB_rfo_hit 0
Core_0_STLB_rfo_miss 0
Core_0_STLB_rfo_MPKI 0
Core_0_STLB_rfo_miss_rate 0
Core_0_STLB_prefetch_access 0
Core_0_STLB_prefetch_hit 0
Core_0_STLB_prefetch_miss 0
Core_0_STLB_prefetch_MPKI 0
Core_0_STLB_prefetch_miss_rate 0
Core_0_STLB_writeback_access 0
Core_0_STLB_writeback_hit 0
Core_0_STLB_writeback_miss 0
Core_0_STLB_writeback_MPKI 0
Core_0_STLB_writeback_miss_rate 0
Core_0_STLB_prefetch_requested 0
Core_0_STLB_prefetch_issued 0
Core_0_STLB_prefetch_useful 0
Core_0_STLB_prefetch_useless 0
Core_0_STLB_prefetch_late 0
Core_0_STLB_prefetch_accuracy 0
Core_0_STLB_prefetch_coverage 0

Core_0_L1I_total_access 64320
Core_0_L1I_total_hit 64320
Core_0_L1I_total_miss 0
Core_0_L1I_total_MPKI 0
Core_0_L1I_total_miss_rate 0
Core_0_L1I_demand_access 64320
Core_0_L1I_demand_hit 64320
Core_0_L1I_demand_miss 0
Core_0_L1I_demand_MPKI 0
Core_0_L1I_demand_miss_rate 0
Core_0_L1I_load_access 64320
Core_0_L1I_load_hit 64320
Core_0_L1I_load_miss 0
Core_0_L1I_load_MPKI 0
Core_0_L1I_load_miss_rate 0
Core_0_L1I_rfo_access 0
Core_0_L1I_rfo_hit 0
Core_0_L1I_rfo_miss 0
Core_0_L1I_rfo_MPKI 0
Core_0_L1I_rfo_miss_rate 0
Core_0_L1I_prefetch_access 0
Core_0_L1I_prefetch_hit 0
Core_0_L1I_prefetch_miss 0
Core_0_L1I_prefetch_MPKI 0
Core_0_L1I_prefetch_miss_rate 0
Core_0_L1I_writeback_access 0
Core_0_L1I_writeback_hit 0
Core_0_L1I_writeback_miss 0
Core_0_L1I_writeback_MPKI 0
Core_0_L1I_writeback_miss_rate 0
Core_0_L1I_prefetch_requested 0
Core_0_L1I_prefetch_issued 0
Core_0_L1I_prefetch_useful 0
Core_0_L1I_prefetch_useless 0
Core_0_L1I_prefetch_late 0
Core_0_L1I_prefetch_accuracy 0
Core_0_L1I_prefetch_coverage 0

Core_0_L1D_total_access 9568465
Core_0_L1D_total_hit 9555172
Core_0_L1D_total_miss 13293
Core_0_L1D_total_MPKI 0.26586
Core_0_L1D_total_miss_rate 0.00138925
Core_0_L1D_demand_access 5823333
Core_0_L1D_demand_hit 5820196
Core_0_L1D_demand_miss 3137
Core_0_L1D_demand_MPKI 0.06274
Core_0_L1D_demand_miss_rate 0.000538695
Core_0_L1D_load_access 5823333
Core_0_L1D_load_hit 5820196
Core_0_L1D_load_miss 3137
Core_0_L1D_load_MPKI 0.06274
Core_0_L1D_load_miss_rate 0.000538695
Core_0_L1D_rfo_access 0
Core_0_L1D_rfo_hit 0
Core_0_L1D_rfo_miss 0
Core_0_L1D_rfo_MPKI 0
Core_0_L1D_rfo_miss_rate 0
Core_0_L1D_prefetch_access 6926
Core_0_L1D_prefetch_hit 1490
Core_0_L1D_prefetch_miss 5436
Core_0_L1D_prefetch_MPKI 0.10872
Core_0_L1D_prefetch_miss_rate 0.784869
Core_0_L1D_writeback_access 3738206
Core_0_L1D_writeback_hit 3733486
Core_0_L1D_writeback_miss 4720
Core_0_L1D_writeback_MPKI 0.0944
Core_0_L1D_writeback_miss_rate 0.00126264
Core_0_L1D_prefetch_requested 6989
Core_0_L1D_prefetch_issued 6926
Core_0_L1D_prefetch_useful 4978
Core_0_L1D_prefetch_useless 306
Core_0_L1D_prefetch_late 107
Core_0_L1D_prefetch_accuracy 0.718741
Core_0_L1D_prefetch_coverage 0.613432

Core_0_L2C_total_access 43257
Core_0_L2C_total_hit 29297
Core_0_L2C_total_miss 13960
Core_0_L2C_total_MPKI 0.2792
Core_0_L2C_total_miss_rate 0.322722
Core_0_L2C_demand_access 5097
Core_0_L2C_demand_hit 814
Core_0_L2C_demand_miss 4283
Core_0_L2C_demand_MPKI 0.08566
Core_0_L2C_demand_miss_rate 0.840298
Core_0_L2C_load_access 1045
Core_0_L2C_load_hit 695
Core_0_L2C_load_miss 350
Core_0_L2C_load_MPKI 0.007
Core_0_L2C_load_miss_rate 0.334928
Core_0_L2C_rfo_access 4052
Core_0_L2C_rfo_hit 119
Core_0_L2C_rfo_miss 3933
Core_0_L2C_rfo_MPKI 0.07866
Core_0_L2C_rfo_miss_rate 0.970632
Core_0_L2C_prefetch_access 34076
Core_0_L2C_prefetch_hit 24399
Core_0_L2C_prefetch_miss 9677
Core_0_L2C_prefetch_MPKI 0.19354
Core_0_L2C_prefetch_miss_rate 0.283983
Core_0_L2C_writeback_access 4084
Core_0_L2C_writeback_hit 4084
Core_0_L2C_writeback_miss 0
Core_0_L2C_writeback_MPKI 0
Core_0_L2C_writeback_miss_rate 0
Core_0_L2C_prefetch_requested 29043
Core_0_L2C_prefetch_issued 28801
Core_0_L2C_prefetch_useful 5144
Core_0_L2C_prefetch_useless 333
Core_0_L2C_prefetch_late 146
Core_0_L2C_prefetch_accuracy 0.178605
Core_0_L2C_prefetch_coverage 0.545667

Core_0_LLC_total_access 12537
Core_0_LLC_total_hit 2053
Core_0_LLC_total_miss 10484
Core_0_LLC_total_MPKI 0.20968
Core_0_LLC_total_miss_rate 0.836245
Core_0_LLC_demand_access 4137
Core_0_LLC_demand_hit 2
Core_0_LLC_demand_miss 4135
Core_0_LLC_demand_MPKI 0.0827
Core_0_LLC_demand_miss_rate 0.999517
Core_0_LLC_load_access 204
Core_0_LLC_load_hit 0
Core_0_LLC_load_miss 204
Core_0_LLC_load_MPKI 0.00408
Core_0_LLC_load_miss_rate 1
Core_0_LLC_rfo_access 3933
Core_0_LLC_rfo_hit 2
Core_0_LLC_rfo_miss 3931
Core_0_LLC_rfo_MPKI 0.07862
Core_0_LLC_rfo_miss_rate 0.999491
Core_0_LLC_prefetch_access 6351
Core_0_LLC_prefetch_hit 2
Core_0_LLC_prefetch_miss 6349
Core_0_LLC_prefetch_MPKI 0.12698
Core_0_LLC_prefetch_miss_rate 0.999685
Core_0_LLC_writeback_access 2049
Core_0_LLC_writeback_hit 2049
Core_0_LLC_writeback_miss 0
Core_0_LLC_writeback_MPKI 0
Core_0_LLC_writeback_miss_rate 0
Core_0_LLC_prefetch_requested 0
Core_0_LLC_prefetch_issued 0
Core_0_LLC_prefetch_useful 0
Core_0_LLC_prefetch_useless 0
Core_0_LLC_prefetch_late 0
Core_0_LLC_prefetch_accuracy 0
Core_0_LLC_prefetch_coverage 0

[DRAM Statistics]
Channel_0_RQ_row_buffer_hit 28
Channel_0_RQ_row_buffer_miss 10489
Channel_0_WQ_row_buffer_hit 0
Channel_0_WQ_row_buffer_miss 0
Channel_0_WQ_full 0
Channel_0_dbus_congested 5442
DRAM_total_RQ_row_buffer_hit 28
DRAM_total_RQ_row_buffer_miss 10489
DRAM_total_WQ_row_buffer_hit 0
DRAM_total_WQ_row_buffer_miss 0
DRAM_total_WQ_full 0
DRAM_total_dbus_congested 5442
DRAM_avg_congested_cycle 2.88387

======STLB miss causes ========
Core_0_STLB_miss_cause_breakdown
Core_0_STLB_cause_Demand_Data_miss 209
Core_0_STLB_cause_Demand_Data_miss_rate 0.800766
Core_0_STLB_cause_Demand_Instruction_miss 0
Core_0_STLB_cause_Demand_Instruction_miss_rate 0
Core_0_STLB_cause_L1D_Prefetch_miss 0
Core_0_STLB_cause_L1D_Prefetch_miss_rate 0
Core_0_STLB_cause_L1I_Prefetch_miss 0
Core_0_STLB_cause_L1I_Prefetch_miss_rate 0
Core_0_STLB_cause_Other_miss 0
Core_0_STLB_cause_Other_miss_rate 0
Core_0_STLB_Demand_miss 209
Core_0_STLB_Demand_miss_rate 0.800766
Core_0_STLB_L1D_Prefetch_miss 0
Core_0_STLB_L1D_Prefetch_miss_rate 0
Core_0_STLB_Other_miss 0
Core_0_STLB_Other_miss_rate 0
