[VMEM] WARNING: physical memory size is smaller than virtual memory size.

*** ChampSim Multicore Out-of-Order Simulator ***
Warmup Instructions: 20000000
Simulation Instructions: 50000000
Number of CPUs: 1
Page size: 4096
STLB ideal mode: l1pref
Core 0: /data0/tzh/champsim_traces/SPEC17/654.roms_s-523B.champsimtrace.xz
 L1D Berti prefetcher
Off-chip DRAM Size: 4 GiB Channels: 1 Width: 64-bit Data Rate: 3205 MT/s
Warmup halting CPU 0 at instruction 20000004 cycle 4595267 for remainder of phase
Warmup finished CPU 0 instructions: 20000004 cycles: 4595267 cumulative IPC: 4.352 (Simulation time: 00 hr 01 min 00 sec)
Warmup complete CPU 0 instructions: 20000004 cycles: 4595267 cumulative IPC: 4.352 (Simulation time: 00 hr 01 min 00 sec)
Simulation finished CPU 0 instructions: 50000005 cycles: 37501388 cumulative IPC: 1.333 (Simulation time: 00 hr 07 min 21 sec)
Simulation complete CPU 0 instructions: 50000005 cycles: 37501388 cumulative IPC: 1.333 (Simulation time: 00 hr 07 min 21 sec)

ChampSim completed all CPUs

=== Simulation ===
CPU 0 runs /data0/tzh/champsim_traces/SPEC17/654.roms_s-523B.champsimtrace.xz

Region of Interest Statistics

CPU 0 cumulative IPC: 1.333 instructions: 50000005 cycles: 37501388
CPU 0 Branch Prediction Accuracy: 99.85% MPKI: 0.1188 Average ROB Occupancy at Mispredict: 344
Branch type MPKI
BRANCH_DIRECT_JUMP: 6e-05
BRANCH_INDIRECT: 0
BRANCH_CONDITIONAL: 0.1187
BRANCH_DIRECT_CALL: 0
BRANCH_INDIRECT_CALL: 0
BRANCH_RETURN: 0

cpu0->cpu0_STLB TOTAL        ACCESS:      29726 HIT:       9320 MISS:      20406 MSHR_MERGE:          0
cpu0->cpu0_STLB LOAD         ACCESS:      29726 HIT:       9320 MISS:      20406 MSHR_MERGE:          0
cpu0->cpu0_STLB RFO          ACCESS:          0 HIT:          0 MISS:          0 MSHR_MERGE:          0
cpu0->cpu0_STLB PREFETCH     ACCESS:          0 HIT:          0 MISS:          0 MSHR_MERGE:          0
cpu0->cpu0_STLB WRITE        ACCESS:          0 HIT:          0 MISS:          0 MSHR_MERGE:          0
cpu0->cpu0_STLB TRANSLATION  ACCESS:          0 HIT:          0 MISS:          0 MSHR_MERGE:          0
cpu0->cpu0_STLB PREFETCH REQUESTED:          0 ISSUED:          0 USEFUL:          0 USELESS:          0 LATE:          0
cpu0->cpu0_STLB AVERAGE MISS LATENCY: 256.7 cycles
cpu0->cpu0_L2C TOTAL        ACCESS:    6165339 HIT:    2247708 MISS:    3917631 MSHR_MERGE:    2559724
cpu0->cpu0_L2C LOAD         ACCESS:      96354 HIT:      42026 MISS:      54328 MSHR_MERGE:      21265
cpu0->cpu0_L2C RFO          ACCESS:     333719 HIT:          1 MISS:     333718 MSHR_MERGE:          0
cpu0->cpu0_L2C PREFETCH     ACCESS:    5285512 HIT:    1762177 MISS:    3523335 MSHR_MERGE:    2538459
cpu0->cpu0_L2C WRITE        ACCESS:     443377 HIT:     443362 MISS:         15 MSHR_MERGE:          0
cpu0->cpu0_L2C TRANSLATION  ACCESS:       6377 HIT:        142 MISS:       6235 MSHR_MERGE:          0
cpu0->cpu0_L2C PREFETCH REQUESTED:    4696086 ISSUED:    4418107 USEFUL:     613814 USELESS:     311361 LATE:      21265
cpu0->cpu0_L2C AVERAGE MISS LATENCY: 428.4 cycles
cpu0->cpu0_L1I TOTAL        ACCESS:    8539671 HIT:    8539577 MISS:         94 MSHR_MERGE:         18
cpu0->cpu0_L1I LOAD         ACCESS:    8539671 HIT:    8539577 MISS:         94 MSHR_MERGE:         18
cpu0->cpu0_L1I RFO          ACCESS:          0 HIT:          0 MISS:          0 MSHR_MERGE:          0
cpu0->cpu0_L1I PREFETCH     ACCESS:          0 HIT:          0 MISS:          0 MSHR_MERGE:          0
cpu0->cpu0_L1I WRITE        ACCESS:          0 HIT:          0 MISS:          0 MSHR_MERGE:          0
cpu0->cpu0_L1I TRANSLATION  ACCESS:          0 HIT:          0 MISS:          0 MSHR_MERGE:          0
cpu0->cpu0_L1I PREFETCH REQUESTED:          0 ISSUED:          0 USEFUL:          0 USELESS:          0 LATE:          0
cpu0->cpu0_L1I AVERAGE MISS LATENCY: 413.8 cycles
cpu0->cpu0_L1D TOTAL        ACCESS:   15127859 HIT:   10972466 MISS:    4155393 MSHR_MERGE:    2851622
cpu0->cpu0_L1D LOAD         ACCESS:   10634638 HIT:    9969149 MISS:     665489 MSHR_MERGE:     569211
cpu0->cpu0_L1D RFO          ACCESS:          0 HIT:          0 MISS:          0 MSHR_MERGE:          0
cpu0->cpu0_L1D PREFETCH     ACCESS:     934772 HIT:      47203 MISS:     887569 MSHR_MERGE:      20172
cpu0->cpu0_L1D WRITE        ACCESS:    3517689 HIT:     921841 MISS:    2595848 MSHR_MERGE:    2262129
cpu0->cpu0_L1D TRANSLATION  ACCESS:      40760 HIT:      34273 MISS:       6487 MSHR_MERGE:        110
cpu0->cpu0_L1D PREFETCH REQUESTED:     941069 ISSUED:     934771 USEFUL:     841612 USELESS:      25779 LATE:     105734
cpu0->cpu0_L1D AVERAGE MISS LATENCY: 365.1 cycles
cpu0->cpu0_ITLB TOTAL        ACCESS:    6956117 HIT:    6956116 MISS:          1 MSHR_MERGE:          0
cpu0->cpu0_ITLB LOAD         ACCESS:    6956117 HIT:    6956116 MISS:          1 MSHR_MERGE:          0
cpu0->cpu0_ITLB RFO          ACCESS:          0 HIT:          0 MISS:          0 MSHR_MERGE:          0
cpu0->cpu0_ITLB PREFETCH     ACCESS:          0 HIT:          0 MISS:          0 MSHR_MERGE:          0
cpu0->cpu0_ITLB WRITE        ACCESS:          0 HIT:          0 MISS:          0 MSHR_MERGE:          0
cpu0->cpu0_ITLB TRANSLATION  ACCESS:          0 HIT:          0 MISS:          0 MSHR_MERGE:          0
cpu0->cpu0_ITLB PREFETCH REQUESTED:          0 ISSUED:          0 USEFUL:          0 USELESS:          0 LATE:          0
cpu0->cpu0_ITLB AVERAGE MISS LATENCY: 795 cycles
cpu0->cpu0_DTLB TOTAL        ACCESS:   13999969 HIT:   13849671 MISS:     150298 MSHR_MERGE:     120573
cpu0->cpu0_DTLB LOAD         ACCESS:   13999969 HIT:   13849671 MISS:     150298 MSHR_MERGE:     120573
cpu0->cpu0_DTLB RFO          ACCESS:          0 HIT:          0 MISS:          0 MSHR_MERGE:          0
cpu0->cpu0_DTLB PREFETCH     ACCESS:          0 HIT:          0 MISS:          0 MSHR_MERGE:          0
cpu0->cpu0_DTLB WRITE        ACCESS:          0 HIT:          0 MISS:          0 MSHR_MERGE:          0
cpu0->cpu0_DTLB TRANSLATION  ACCESS:          0 HIT:          0 MISS:          0 MSHR_MERGE:          0
cpu0->cpu0_DTLB PREFETCH REQUESTED:          0 ISSUED:          0 USEFUL:          0 USELESS:          0 LATE:          0
cpu0->cpu0_DTLB AVERAGE MISS LATENCY: 181.9 cycles
cpu0->LLC TOTAL        ACCESS:    1802169 HIT:      78274 MISS:    1723895 MSHR_MERGE:          0
cpu0->LLC LOAD         ACCESS:      33063 HIT:        238 MISS:      32825 MSHR_MERGE:          0
cpu0->LLC RFO          ACCESS:     333718 HIT:         31 MISS:     333687 MSHR_MERGE:          0
cpu0->LLC PREFETCH     ACCESS:     984875 HIT:       9806 MISS:     975069 MSHR_MERGE:          0
cpu0->LLC WRITE        ACCESS:     444278 HIT:      68196 MISS:     376082 MSHR_MERGE:          0
cpu0->LLC TRANSLATION  ACCESS:       6235 HIT:          3 MISS:       6232 MSHR_MERGE:          0
cpu0->LLC PREFETCH REQUESTED:          0 ISSUED:          0 USEFUL:          0 USELESS:          0 LATE:          0
cpu0->LLC AVERAGE MISS LATENCY: 214.8 cycles

DRAM Statistics

Channel 0 RQ ROW_BUFFER_HIT:      44072
  ROW_BUFFER_MISS:    1303582
  AVG DBUS CONGESTED CYCLE: 5.781
Channel 0 WQ ROW_BUFFER_HIT:      35704
  ROW_BUFFER_MISS:     407201
  FULL:         49
Channel 0 REFRESHES ISSUED:       3126

[ROI Statistics]
[System Configuration]
num_cpus 1
cpu_freq 4000
fetch_width 6
decode_width 6
dispatch_width 6
execute_width 6
lq_width 2
sq_width 2
retire_width 6
scheduler_size 160
branch_mispredict_penalty 1
rob_size 352
lq_size 240
sq_size 112
ifetch_buffer_size 64
decode_buffer_size 32
dispatch_buffer_size 32
register_file_size 288
decode_latency 1
dispatch_latency 1
schedule_latency 0
execute_latency 0
page_size 4096
block_size 64
core_0_itlb_set 16
core_0_itlb_way 4
core_0_itlb_rq_size 16
core_0_itlb_wq_size 16
core_0_itlb_pq_size 0
core_0_itlb_mshr_size 8
core_0_itlb_hit_latency 1
core_0_itlb_fill_latency 1
core_0_itlb_max_tag_check 2
core_0_itlb_max_fill 2
core_0_dtlb_set 16
core_0_dtlb_way 4
core_0_dtlb_rq_size 16
core_0_dtlb_wq_size 16
core_0_dtlb_pq_size 0
core_0_dtlb_mshr_size 8
core_0_dtlb_hit_latency 1
core_0_dtlb_fill_latency 1
core_0_dtlb_max_tag_check 2
core_0_dtlb_max_fill 2
core_0_stlb_set 128
core_0_stlb_way 12
core_0_stlb_rq_size 32
core_0_stlb_wq_size 32
core_0_stlb_pq_size 0
core_0_stlb_mshr_size 16
core_0_stlb_hit_latency 4
core_0_stlb_fill_latency 4
core_0_stlb_max_tag_check 1
core_0_stlb_max_fill 1
core_0_l1i_set 64
core_0_l1i_way 8
core_0_l1i_rq_size 64
core_0_l1i_wq_size 64
core_0_l1i_pq_size 32
core_0_l1i_mshr_size 8
core_0_l1i_hit_latency 2
core_0_l1i_fill_latency 2
core_0_l1i_max_tag_check 2
core_0_l1i_max_fill 2
core_0_l1d_set 64
core_0_l1d_way 12
core_0_l1d_rq_size 64
core_0_l1d_wq_size 64
core_0_l1d_pq_size 8
core_0_l1d_mshr_size 16
core_0_l1d_hit_latency 2
core_0_l1d_fill_latency 3
core_0_l1d_max_tag_check 2
core_0_l1d_max_fill 2
core_0_l2c_set 1024
core_0_l2c_way 8
core_0_l2c_rq_size 32
core_0_l2c_wq_size 32
core_0_l2c_pq_size 16
core_0_l2c_mshr_size 32
core_0_l2c_hit_latency 5
core_0_l2c_fill_latency 5
core_0_l2c_max_tag_check 1
core_0_l2c_max_fill 1
llc_set 2048
llc_way 16
llc_rq_size 32
llc_wq_size 32
llc_pq_size 32
llc_mshr_size 64
llc_hit_latency 10
llc_fill_latency 10
llc_max_tag_check 1
llc_max_fill 1
dram_channels 1
dram_ranks 1
dram_bankgroups 8
dram_banks 4
dram_rows 16384
dram_columns 1024
dram_channel_width 8
dram_rq_size 64
dram_wq_size 64
dram_size 4294967296
core_0_itlb_prefetcher no
core_0_dtlb_prefetcher no
core_0_stlb_prefetcher no
core_0_l1i_prefetcher next_line
core_0_l1d_prefetcher berti
core_0_l2c_prefetcher pythia
llc_prefetcher no
llc_replacement drrip

Core_0_instructions 50000005
Core_0_cycles 37501388
Core_0_IPC 1.33328
Core_0_branch_prediction_accuracy 99.8492
Core_0_branch_MPKI 0.11876
Core_0_average_ROB_occupancy_at_mispredict 343.967

Core_0_ITLB_total_access 6956117
Core_0_ITLB_total_hit 6956116
Core_0_ITLB_total_miss 1
Core_0_ITLB_total_MPKI 2e-05
Core_0_ITLB_total_miss_rate 1.43758e-07
Core_0_ITLB_demand_access 6956117
Core_0_ITLB_demand_hit 6956116
Core_0_ITLB_demand_miss 1
Core_0_ITLB_demand_MPKI 2e-05
Core_0_ITLB_demand_miss_rate 1.43758e-07
Core_0_ITLB_load_access 6956117
Core_0_ITLB_load_hit 6956116
Core_0_ITLB_load_miss 1
Core_0_ITLB_load_MPKI 2e-05
Core_0_ITLB_load_miss_rate 1.43758e-07
Core_0_ITLB_rfo_access 0
Core_0_ITLB_rfo_hit 0
Core_0_ITLB_rfo_miss 0
Core_0_ITLB_rfo_MPKI 0
Core_0_ITLB_rfo_miss_rate 0
Core_0_ITLB_prefetch_access 0
Core_0_ITLB_prefetch_hit 0
Core_0_ITLB_prefetch_miss 0
Core_0_ITLB_prefetch_MPKI 0
Core_0_ITLB_prefetch_miss_rate 0
Core_0_ITLB_writeback_access 0
Core_0_ITLB_writeback_hit 0
Core_0_ITLB_writeback_miss 0
Core_0_ITLB_writeback_MPKI 0
Core_0_ITLB_writeback_miss_rate 0
Core_0_ITLB_prefetch_requested 0
Core_0_ITLB_prefetch_issued 0
Core_0_ITLB_prefetch_useful 0
Core_0_ITLB_prefetch_useless 0
Core_0_ITLB_prefetch_late 0
Core_0_ITLB_prefetch_accuracy 0
Core_0_ITLB_prefetch_coverage 0

Core_0_DTLB_total_access 13999969
Core_0_DTLB_total_hit 13849671
Core_0_DTLB_total_miss 150298
Core_0_DTLB_total_MPKI 3.00596
Core_0_DTLB_total_miss_rate 0.0107356
Core_0_DTLB_demand_access 13999969
Core_0_DTLB_demand_hit 13849671
Core_0_DTLB_demand_miss 150298
Core_0_DTLB_demand_MPKI 3.00596
Core_0_DTLB_demand_miss_rate 0.0107356
Core_0_DTLB_load_access 13999969
Core_0_DTLB_load_hit 13849671
Core_0_DTLB_load_miss 150298
Core_0_DTLB_load_MPKI 3.00596
Core_0_DTLB_load_miss_rate 0.0107356
Core_0_DTLB_rfo_access 0
Core_0_DTLB_rfo_hit 0
Core_0_DTLB_rfo_miss 0
Core_0_DTLB_rfo_MPKI 0
Core_0_DTLB_rfo_miss_rate 0
Core_0_DTLB_prefetch_access 0
Core_0_DTLB_prefetch_hit 0
Core_0_DTLB_prefetch_miss 0
Core_0_DTLB_prefetch_MPKI 0
Core_0_DTLB_prefetch_miss_rate 0
Core_0_DTLB_writeback_access 0
Core_0_DTLB_writeback_hit 0
Core_0_DTLB_writeback_miss 0
Core_0_DTLB_writeback_MPKI 0
Core_0_DTLB_writeback_miss_rate 0
Core_0_DTLB_prefetch_requested 0
Core_0_DTLB_prefetch_issued 0
Core_0_DTLB_prefetch_useful 0
Core_0_DTLB_prefetch_useless 0
Core_0_DTLB_prefetch_late 0
Core_0_DTLB_prefetch_accuracy 0
Core_0_DTLB_prefetch_coverage 0

Core_0_STLB_total_access 29726
Core_0_STLB_total_hit 9320
Core_0_STLB_total_miss 20406
Core_0_STLB_total_MPKI 0.40812
Core_0_STLB_total_miss_rate 0.68647
Core_0_STLB_demand_access 29726
Core_0_STLB_demand_hit 9320
Core_0_STLB_demand_miss 20406
Core_0_STLB_demand_MPKI 0.40812
Core_0_STLB_demand_miss_rate 0.68647
Core_0_STLB_load_access 29726
Core_0_STLB_load_hit 9320
Core_0_STLB_load_miss 20406
Core_0_STLB_load_MPKI 0.40812
Core_0_STLB_load_miss_rate 0.68647
Core_0_STLB_rfo_access 0
Core_0_STLB_rfo_hit 0
Core_0_STLB_rfo_miss 0
Core_0_STLB_rfo_MPKI 0
Core_0_STLB_rfo_miss_rate 0
Core_0_STLB_prefetch_access 0
Core_0_STLB_prefetch_hit 0
Core_0_STLB_prefetch_miss 0
Core_0_STLB_prefetch_MPKI 0
Core_0_STLB_prefetch_miss_rate 0
Core_0_STLB_writeback_access 0
Core_0_STLB_writeback_hit 0
Core_0_STLB_writeback_miss 0
Core_0_STLB_writeback_MPKI 0
Core_0_STLB_writeback_miss_rate 0
Core_0_STLB_prefetch_requested 0
Core_0_STLB_prefetch_issued 0
Core_0_STLB_prefetch_useful 0
Core_0_STLB_prefetch_useless 0
Core_0_STLB_prefetch_late 0
Core_0_STLB_prefetch_accuracy 0
Core_0_STLB_prefetch_coverage 0

Core_0_L1I_total_access 8539671
Core_0_L1I_total_hit 8539577
Core_0_L1I_total_miss 94
Core_0_L1I_total_MPKI 0.00188
Core_0_L1I_total_miss_rate 1.10074e-05
Core_0_L1I_demand_access 8539671
Core_0_L1I_demand_hit 8539577
Core_0_L1I_demand_miss 94
Core_0_L1I_demand_MPKI 0.00188
Core_0_L1I_demand_miss_rate 1.10074e-05
Core_0_L1I_load_access 8539671
Core_0_L1I_load_hit 8539577
Core_0_L1I_load_miss 94
Core_0_L1I_load_MPKI 0.00188
Core_0_L1I_load_miss_rate 1.10074e-05
Core_0_L1I_rfo_access 0
Core_0_L1I_rfo_hit 0
Core_0_L1I_rfo_miss 0
Core_0_L1I_rfo_MPKI 0
Core_0_L1I_rfo_miss_rate 0
Core_0_L1I_prefetch_access 0
Core_0_L1I_prefetch_hit 0
Core_0_L1I_prefetch_miss 0
Core_0_L1I_prefetch_MPKI 0
Core_0_L1I_prefetch_miss_rate 0
Core_0_L1I_writeback_access 0
Core_0_L1I_writeback_hit 0
Core_0_L1I_writeback_miss 0
Core_0_L1I_writeback_MPKI 0
Core_0_L1I_writeback_miss_rate 0
Core_0_L1I_prefetch_requested 0
Core_0_L1I_prefetch_issued 0
Core_0_L1I_prefetch_useful 0
Core_0_L1I_prefetch_useless 0
Core_0_L1I_prefetch_late 0
Core_0_L1I_prefetch_accuracy 0
Core_0_L1I_prefetch_coverage 0

Core_0_L1D_total_access 15087099
Core_0_L1D_total_hit 10938193
Core_0_L1D_total_miss 4148906
Core_0_L1D_total_MPKI 82.9781
Core_0_L1D_total_miss_rate 0.274997
Core_0_L1D_demand_access 10634638
Core_0_L1D_demand_hit 9969149
Core_0_L1D_demand_miss 665489
Core_0_L1D_demand_MPKI 13.3098
Core_0_L1D_demand_miss_rate 0.0625775
Core_0_L1D_load_access 10634638
Core_0_L1D_load_hit 9969149
Core_0_L1D_load_miss 665489
Core_0_L1D_load_MPKI 13.3098
Core_0_L1D_load_miss_rate 0.0625775
Core_0_L1D_rfo_access 0
Core_0_L1D_rfo_hit 0
Core_0_L1D_rfo_miss 0
Core_0_L1D_rfo_MPKI 0
Core_0_L1D_rfo_miss_rate 0
Core_0_L1D_prefetch_access 934772
Core_0_L1D_prefetch_hit 47203
Core_0_L1D_prefetch_miss 887569
Core_0_L1D_prefetch_MPKI 17.7514
Core_0_L1D_prefetch_miss_rate 0.949503
Core_0_L1D_writeback_access 3517689
Core_0_L1D_writeback_hit 921841
Core_0_L1D_writeback_miss 2595848
Core_0_L1D_writeback_MPKI 51.917
Core_0_L1D_writeback_miss_rate 0.737941
Core_0_L1D_prefetch_requested 941069
Core_0_L1D_prefetch_issued 934771
Core_0_L1D_prefetch_useful 841612
Core_0_L1D_prefetch_useless 25779
Core_0_L1D_prefetch_late 105734
Core_0_L1D_prefetch_accuracy 0.90034
Core_0_L1D_prefetch_coverage 0.558431

Core_0_L2C_total_access 6158962
Core_0_L2C_total_hit 2247566
Core_0_L2C_total_miss 3911396
Core_0_L2C_total_MPKI 78.2279
Core_0_L2C_total_miss_rate 0.635074
Core_0_L2C_demand_access 430073
Core_0_L2C_demand_hit 42027
Core_0_L2C_demand_miss 388046
Core_0_L2C_demand_MPKI 7.76092
Core_0_L2C_demand_miss_rate 0.902279
Core_0_L2C_load_access 96354
Core_0_L2C_load_hit 42026
Core_0_L2C_load_miss 54328
Core_0_L2C_load_MPKI 1.08656
Core_0_L2C_load_miss_rate 0.563838
Core_0_L2C_rfo_access 333719
Core_0_L2C_rfo_hit 1
Core_0_L2C_rfo_miss 333718
Core_0_L2C_rfo_MPKI 6.67436
Core_0_L2C_rfo_miss_rate 0.999997
Core_0_L2C_prefetch_access 5285512
Core_0_L2C_prefetch_hit 1762177
Core_0_L2C_prefetch_miss 3523335
Core_0_L2C_prefetch_MPKI 70.4667
Core_0_L2C_prefetch_miss_rate 0.666602
Core_0_L2C_writeback_access 443377
Core_0_L2C_writeback_hit 443362
Core_0_L2C_writeback_miss 15
Core_0_L2C_writeback_MPKI 0.0003
Core_0_L2C_writeback_miss_rate 3.38313e-05
Core_0_L2C_prefetch_requested 4696086
Core_0_L2C_prefetch_issued 4418107
Core_0_L2C_prefetch_useful 613814
Core_0_L2C_prefetch_useless 311361
Core_0_L2C_prefetch_late 21265
Core_0_L2C_prefetch_accuracy 0.138931
Core_0_L2C_prefetch_coverage 0.612674

Core_0_LLC_total_access 1795934
Core_0_LLC_total_hit 78271
Core_0_LLC_total_miss 1717663
Core_0_LLC_total_MPKI 34.3533
Core_0_LLC_total_miss_rate 0.956418
Core_0_LLC_demand_access 366781
Core_0_LLC_demand_hit 269
Core_0_LLC_demand_miss 366512
Core_0_LLC_demand_MPKI 7.33024
Core_0_LLC_demand_miss_rate 0.999267
Core_0_LLC_load_access 33063
Core_0_LLC_load_hit 238
Core_0_LLC_load_miss 32825
Core_0_LLC_load_MPKI 0.6565
Core_0_LLC_load_miss_rate 0.992802
Core_0_LLC_rfo_access 333718
Core_0_LLC_rfo_hit 31
Core_0_LLC_rfo_miss 333687
Core_0_LLC_rfo_MPKI 6.67374
Core_0_LLC_rfo_miss_rate 0.999907
Core_0_LLC_prefetch_access 984875
Core_0_LLC_prefetch_hit 9806
Core_0_LLC_prefetch_miss 975069
Core_0_LLC_prefetch_MPKI 19.5014
Core_0_LLC_prefetch_miss_rate 0.990043
Core_0_LLC_writeback_access 444278
Core_0_LLC_writeback_hit 68196
Core_0_LLC_writeback_miss 376082
Core_0_LLC_writeback_MPKI 7.52164
Core_0_LLC_writeback_miss_rate 0.846502
Core_0_LLC_prefetch_requested 0
Core_0_LLC_prefetch_issued 0
Core_0_LLC_prefetch_useful 0
Core_0_LLC_prefetch_useless 0
Core_0_LLC_prefetch_late 0
Core_0_LLC_prefetch_accuracy 0
Core_0_LLC_prefetch_coverage 0

[DRAM Statistics]
Channel_0_RQ_row_buffer_hit 44072
Channel_0_RQ_row_buffer_miss 1303582
Channel_0_WQ_row_buffer_hit 35704
Channel_0_WQ_row_buffer_miss 407201
Channel_0_WQ_full 49
Channel_0_dbus_congested 5282186
DRAM_total_RQ_row_buffer_hit 44072
DRAM_total_RQ_row_buffer_miss 1303582
DRAM_total_WQ_row_buffer_hit 35704
DRAM_total_WQ_row_buffer_miss 407201
DRAM_total_WQ_full 49
DRAM_total_dbus_congested 5282186
DRAM_avg_congested_cycle 5.78077

======STLB miss causes ========
Core_0_STLB_miss_cause_breakdown
Core_0_STLB_cause_Demand_Data_miss 20405
Core_0_STLB_cause_Demand_Data_miss_rate 0.686436
Core_0_STLB_cause_Demand_Instruction_miss 1
Core_0_STLB_cause_Demand_Instruction_miss_rate 3.36406e-05
Core_0_STLB_cause_L1D_Prefetch_miss 0
Core_0_STLB_cause_L1D_Prefetch_miss_rate 0
Core_0_STLB_cause_L1I_Prefetch_miss 0
Core_0_STLB_cause_L1I_Prefetch_miss_rate 0
Core_0_STLB_cause_Other_miss 0
Core_0_STLB_cause_Other_miss_rate 0
Core_0_STLB_Demand_miss 20406
Core_0_STLB_Demand_miss_rate 0.68647
Core_0_STLB_L1D_Prefetch_miss 0
Core_0_STLB_L1D_Prefetch_miss_rate 0
Core_0_STLB_Other_miss 0
Core_0_STLB_Other_miss_rate 0
