[VMEM] WARNING: physical memory size is smaller than virtual memory size.

*** ChampSim Multicore Out-of-Order Simulator ***
Warmup Instructions: 20000000
Simulation Instructions: 50000000
Number of CPUs: 1
Page size: 4096
STLB ideal mode: l1pref
Core 0: /data0/tzh/champsim_traces/GAP/gap.tc.twitter-10B.champsimtrace.xz
 L1D Berti prefetcher
Off-chip DRAM Size: 4 GiB Channels: 1 Width: 64-bit Data Rate: 3205 MT/s
Warmup halting CPU 0 at instruction 20000001 cycle 5422145 for remainder of phase
Warmup finished CPU 0 instructions: 20000001 cycles: 5422145 cumulative IPC: 3.689 (Simulation time: 00 hr 01 min 02 sec)
Warmup complete CPU 0 instructions: 20000001 cycles: 5422145 cumulative IPC: 3.689 (Simulation time: 00 hr 01 min 02 sec)
Simulation finished CPU 0 instructions: 50000002 cycles: 52032661 cumulative IPC: 0.9609 (Simulation time: 00 hr 06 min 26 sec)
Simulation complete CPU 0 instructions: 50000002 cycles: 52032661 cumulative IPC: 0.9609 (Simulation time: 00 hr 06 min 26 sec)

ChampSim completed all CPUs

=== Simulation ===
CPU 0 runs /data0/tzh/champsim_traces/GAP/gap.tc.twitter-10B.champsimtrace.xz

Region of Interest Statistics

CPU 0 cumulative IPC: 0.9609 instructions: 50000002 cycles: 52032661
CPU 0 Branch Prediction Accuracy: 89.95% MPKI: 32.19 Average ROB Occupancy at Mispredict: 12.11
Branch type MPKI
BRANCH_DIRECT_JUMP: 0.01082
BRANCH_INDIRECT: 0
BRANCH_CONDITIONAL: 32.18
BRANCH_DIRECT_CALL: 6e-05
BRANCH_INDIRECT_CALL: 0
BRANCH_RETURN: 6e-05

cpu0->cpu0_STLB TOTAL        ACCESS:      15065 HIT:       4721 MISS:      10344 MSHR_MERGE:          0
cpu0->cpu0_STLB LOAD         ACCESS:      15065 HIT:       4721 MISS:      10344 MSHR_MERGE:          0
cpu0->cpu0_STLB RFO          ACCESS:          0 HIT:          0 MISS:          0 MSHR_MERGE:          0
cpu0->cpu0_STLB PREFETCH     ACCESS:          0 HIT:          0 MISS:          0 MSHR_MERGE:          0
cpu0->cpu0_STLB WRITE        ACCESS:          0 HIT:          0 MISS:          0 MSHR_MERGE:          0
cpu0->cpu0_STLB TRANSLATION  ACCESS:          0 HIT:          0 MISS:          0 MSHR_MERGE:          0
cpu0->cpu0_STLB PREFETCH REQUESTED:          0 ISSUED:          0 USEFUL:          0 USELESS:          0 LATE:          0
cpu0->cpu0_STLB AVERAGE MISS LATENCY: 185.7 cycles
cpu0->cpu0_L2C TOTAL        ACCESS:    6550547 HIT:    3512276 MISS:    3038271 MSHR_MERGE:    2112057
cpu0->cpu0_L2C LOAD         ACCESS:      32059 HIT:      12683 MISS:      19376 MSHR_MERGE:       2023
cpu0->cpu0_L2C RFO          ACCESS:        436 HIT:        374 MISS:         62 MSHR_MERGE:          0
cpu0->cpu0_L2C PREFETCH     ACCESS:    5875638 HIT:    2858158 MISS:    3017480 MSHR_MERGE:    2110034
cpu0->cpu0_L2C WRITE        ACCESS:     640991 HIT:     640980 MISS:         11 MSHR_MERGE:          0
cpu0->cpu0_L2C TRANSLATION  ACCESS:       1423 HIT:         81 MISS:       1342 MSHR_MERGE:          0
cpu0->cpu0_L2C PREFETCH REQUESTED:    4885235 ISSUED:    4878343 USEFUL:     641418 USELESS:     104625 LATE:       2023
cpu0->cpu0_L2C AVERAGE MISS LATENCY: 205.1 cycles
cpu0->cpu0_L1I TOTAL        ACCESS:     705428 HIT:     705402 MISS:         26 MSHR_MERGE:          2
cpu0->cpu0_L1I LOAD         ACCESS:     705428 HIT:     705402 MISS:         26 MSHR_MERGE:          2
cpu0->cpu0_L1I RFO          ACCESS:          0 HIT:          0 MISS:          0 MSHR_MERGE:          0
cpu0->cpu0_L1I PREFETCH     ACCESS:          0 HIT:          0 MISS:          0 MSHR_MERGE:          0
cpu0->cpu0_L1I WRITE        ACCESS:          0 HIT:          0 MISS:          0 MSHR_MERGE:          0
cpu0->cpu0_L1I TRANSLATION  ACCESS:          0 HIT:          0 MISS:          0 MSHR_MERGE:          0
cpu0->cpu0_L1I PREFETCH REQUESTED:          0 ISSUED:          0 USEFUL:          0 USELESS:          0 LATE:          0
cpu0->cpu0_L1I AVERAGE MISS LATENCY: 191.8 cycles
cpu0->cpu0_L1D TOTAL        ACCESS:   17390484 HIT:   16104144 MISS:    1286340 MSHR_MERGE:     255157
cpu0->cpu0_L1D LOAD         ACCESS:   12783583 HIT:   12504071 MISS:     279512 MSHR_MERGE:     247477
cpu0->cpu0_L1D RFO          ACCESS:          0 HIT:          0 MISS:          0 MSHR_MERGE:          0
cpu0->cpu0_L1D PREFETCH     ACCESS:    1019600 HIT:      16770 MISS:    1002830 MSHR_MERGE:       5541
cpu0->cpu0_L1D WRITE        ACCESS:    3566594 HIT:    3564019 MISS:       2575 MSHR_MERGE:       2139
cpu0->cpu0_L1D TRANSLATION  ACCESS:      20707 HIT:      19284 MISS:       1423 MSHR_MERGE:          0
cpu0->cpu0_L1D PREFETCH REQUESTED:    1019726 ISSUED:    1019597 USEFUL:     997125 USELESS:        170 LATE:      58228
cpu0->cpu0_L1D AVERAGE MISS LATENCY: 137 cycles
cpu0->cpu0_ITLB TOTAL        ACCESS:     704360 HIT:     704358 MISS:          2 MSHR_MERGE:          1
cpu0->cpu0_ITLB LOAD         ACCESS:     704360 HIT:     704358 MISS:          2 MSHR_MERGE:          1
cpu0->cpu0_ITLB RFO          ACCESS:          0 HIT:          0 MISS:          0 MSHR_MERGE:          0
cpu0->cpu0_ITLB PREFETCH     ACCESS:          0 HIT:          0 MISS:          0 MSHR_MERGE:          0
cpu0->cpu0_ITLB WRITE        ACCESS:          0 HIT:          0 MISS:          0 MSHR_MERGE:          0
cpu0->cpu0_ITLB TRANSLATION  ACCESS:          0 HIT:          0 MISS:          0 MSHR_MERGE:          0
cpu0->cpu0_ITLB PREFETCH REQUESTED:          0 ISSUED:          0 USEFUL:          0 USELESS:          0 LATE:          0
cpu0->cpu0_ITLB AVERAGE MISS LATENCY: 611 cycles
cpu0->cpu0_DTLB TOTAL        ACCESS:   16635563 HIT:   16596965 MISS:      38598 MSHR_MERGE:      23534
cpu0->cpu0_DTLB LOAD         ACCESS:   16635563 HIT:   16596965 MISS:      38598 MSHR_MERGE:      23534
cpu0->cpu0_DTLB RFO          ACCESS:          0 HIT:          0 MISS:          0 MSHR_MERGE:          0
cpu0->cpu0_DTLB PREFETCH     ACCESS:          0 HIT:          0 MISS:          0 MSHR_MERGE:          0
cpu0->cpu0_DTLB WRITE        ACCESS:          0 HIT:          0 MISS:          0 MSHR_MERGE:          0
cpu0->cpu0_DTLB TRANSLATION  ACCESS:          0 HIT:          0 MISS:          0 MSHR_MERGE:          0
cpu0->cpu0_DTLB PREFETCH REQUESTED:          0 ISSUED:          0 USEFUL:          0 USELESS:          0 LATE:          0
cpu0->cpu0_DTLB AVERAGE MISS LATENCY: 133.1 cycles
cpu0->LLC TOTAL        ACCESS:    1491953 HIT:     434113 MISS:    1057840 MSHR_MERGE:          0
cpu0->LLC LOAD         ACCESS:      17353 HIT:       2113 MISS:      15240 MSHR_MERGE:          0
cpu0->LLC RFO          ACCESS:         62 HIT:         35 MISS:         27 MSHR_MERGE:          0
cpu0->LLC PREFETCH     ACCESS:     907446 HIT:     107548 MISS:     799898 MSHR_MERGE:          0
cpu0->LLC WRITE        ACCESS:     565750 HIT:     324412 MISS:     241338 MSHR_MERGE:          0
cpu0->LLC TRANSLATION  ACCESS:       1342 HIT:          5 MISS:       1337 MSHR_MERGE:          0
cpu0->LLC PREFETCH REQUESTED:          0 ISSUED:          0 USEFUL:          0 USELESS:          0 LATE:          0
cpu0->LLC AVERAGE MISS LATENCY: 22.61 cycles

DRAM Statistics

Channel 0 RQ ROW_BUFFER_HIT:     123118
  ROW_BUFFER_MISS:     693322
  AVG DBUS CONGESTED CYCLE: 7.071
Channel 0 WQ ROW_BUFFER_HIT:      67514
  ROW_BUFFER_MISS:     399903
  FULL:          0
Channel 0 REFRESHES ISSUED:       4336

[ROI Statistics]
[System Configuration]
num_cpus 1
cpu_freq 4000
fetch_width 6
decode_width 6
dispatch_width 6
execute_width 6
lq_width 2
sq_width 2
retire_width 6
scheduler_size 160
branch_mispredict_penalty 1
rob_size 352
lq_size 240
sq_size 112
ifetch_buffer_size 64
decode_buffer_size 32
dispatch_buffer_size 32
register_file_size 288
decode_latency 1
dispatch_latency 1
schedule_latency 0
execute_latency 0
page_size 4096
block_size 64
core_0_itlb_set 16
core_0_itlb_way 4
core_0_itlb_rq_size 16
core_0_itlb_wq_size 16
core_0_itlb_pq_size 0
core_0_itlb_mshr_size 8
core_0_itlb_hit_latency 1
core_0_itlb_fill_latency 1
core_0_itlb_max_tag_check 2
core_0_itlb_max_fill 2
core_0_dtlb_set 16
core_0_dtlb_way 4
core_0_dtlb_rq_size 16
core_0_dtlb_wq_size 16
core_0_dtlb_pq_size 0
core_0_dtlb_mshr_size 8
core_0_dtlb_hit_latency 1
core_0_dtlb_fill_latency 1
core_0_dtlb_max_tag_check 2
core_0_dtlb_max_fill 2
core_0_stlb_set 128
core_0_stlb_way 12
core_0_stlb_rq_size 32
core_0_stlb_wq_size 32
core_0_stlb_pq_size 0
core_0_stlb_mshr_size 16
core_0_stlb_hit_latency 4
core_0_stlb_fill_latency 4
core_0_stlb_max_tag_check 1
core_0_stlb_max_fill 1
core_0_l1i_set 64
core_0_l1i_way 8
core_0_l1i_rq_size 64
core_0_l1i_wq_size 64
core_0_l1i_pq_size 32
core_0_l1i_mshr_size 8
core_0_l1i_hit_latency 2
core_0_l1i_fill_latency 2
core_0_l1i_max_tag_check 2
core_0_l1i_max_fill 2
core_0_l1d_set 64
core_0_l1d_way 12
core_0_l1d_rq_size 64
core_0_l1d_wq_size 64
core_0_l1d_pq_size 8
core_0_l1d_mshr_size 16
core_0_l1d_hit_latency 2
core_0_l1d_fill_latency 3
core_0_l1d_max_tag_check 2
core_0_l1d_max_fill 2
core_0_l2c_set 1024
core_0_l2c_way 8
core_0_l2c_rq_size 32
core_0_l2c_wq_size 32
core_0_l2c_pq_size 16
core_0_l2c_mshr_size 32
core_0_l2c_hit_latency 5
core_0_l2c_fill_latency 5
core_0_l2c_max_tag_check 1
core_0_l2c_max_fill 1
llc_set 2048
llc_way 16
llc_rq_size 32
llc_wq_size 32
llc_pq_size 32
llc_mshr_size 64
llc_hit_latency 10
llc_fill_latency 10
llc_max_tag_check 1
llc_max_fill 1
dram_channels 1
dram_ranks 1
dram_bankgroups 8
dram_banks 4
dram_rows 16384
dram_columns 1024
dram_channel_width 8
dram_rq_size 64
dram_wq_size 64
dram_size 4294967296
core_0_itlb_prefetcher no
core_0_dtlb_prefetcher no
core_0_stlb_prefetcher no
core_0_l1i_prefetcher next_line
core_0_l1d_prefetcher berti
core_0_l2c_prefetcher pythia
llc_prefetcher no
llc_replacement drrip

Core_0_instructions 50000002
Core_0_cycles 52032661
Core_0_IPC 0.960935
Core_0_branch_prediction_accuracy 89.9534
Core_0_branch_MPKI 32.1868
Core_0_average_ROB_occupancy_at_mispredict 12.1067

Core_0_ITLB_total_access 704360
Core_0_ITLB_total_hit 704358
Core_0_ITLB_total_miss 2
Core_0_ITLB_total_MPKI 4e-05
Core_0_ITLB_total_miss_rate 2.83946e-06
Core_0_ITLB_demand_access 704360
Core_0_ITLB_demand_hit 704358
Core_0_ITLB_demand_miss 2
Core_0_ITLB_demand_MPKI 4e-05
Core_0_ITLB_demand_miss_rate 2.83946e-06
Core_0_ITLB_load_access 704360
Core_0_ITLB_load_hit 704358
Core_0_ITLB_load_miss 2
Core_0_ITLB_load_MPKI 4e-05
Core_0_ITLB_load_miss_rate 2.83946e-06
Core_0_ITLB_rfo_access 0
Core_0_ITLB_rfo_hit 0
Core_0_ITLB_rfo_miss 0
Core_0_ITLB_rfo_MPKI 0
Core_0_ITLB_rfo_miss_rate 0
Core_0_ITLB_prefetch_access 0
Core_0_ITLB_prefetch_hit 0
Core_0_ITLB_prefetch_miss 0
Core_0_ITLB_prefetch_MPKI 0
Core_0_ITLB_prefetch_miss_rate 0
Core_0_ITLB_writeback_access 0
Core_0_ITLB_writeback_hit 0
Core_0_ITLB_writeback_miss 0
Core_0_ITLB_writeback_MPKI 0
Core_0_ITLB_writeback_miss_rate 0
Core_0_ITLB_prefetch_requested 0
Core_0_ITLB_prefetch_issued 0
Core_0_ITLB_prefetch_useful 0
Core_0_ITLB_prefetch_useless 0
Core_0_ITLB_prefetch_late 0
Core_0_ITLB_prefetch_accuracy 0
Core_0_ITLB_prefetch_coverage 0

Core_0_DTLB_total_access 16635563
Core_0_DTLB_total_hit 16596965
Core_0_DTLB_total_miss 38598
Core_0_DTLB_total_MPKI 0.77196
Core_0_DTLB_total_miss_rate 0.00232021
Core_0_DTLB_demand_access 16635563
Core_0_DTLB_demand_hit 16596965
Core_0_DTLB_demand_miss 38598
Core_0_DTLB_demand_MPKI 0.77196
Core_0_DTLB_demand_miss_rate 0.00232021
Core_0_DTLB_load_access 16635563
Core_0_DTLB_load_hit 16596965
Core_0_DTLB_load_miss 38598
Core_0_DTLB_load_MPKI 0.77196
Core_0_DTLB_load_miss_rate 0.00232021
Core_0_DTLB_rfo_access 0
Core_0_DTLB_rfo_hit 0
Core_0_DTLB_rfo_miss 0
Core_0_DTLB_rfo_MPKI 0
Core_0_DTLB_rfo_miss_rate 0
Core_0_DTLB_prefetch_access 0
Core_0_DTLB_prefetch_hit 0
Core_0_DTLB_prefetch_miss 0
Core_0_DTLB_prefetch_MPKI 0
Core_0_DTLB_prefetch_miss_rate 0
Core_0_DTLB_writeback_access 0
Core_0_DTLB_writeback_hit 0
Core_0_DTLB_writeback_miss 0
Core_0_DTLB_writeback_MPKI 0
Core_0_DTLB_writeback_miss_rate 0
Core_0_DTLB_prefetch_requested 0
Core_0_DTLB_prefetch_issued 0
Core_0_DTLB_prefetch_useful 0
Core_0_DTLB_prefetch_useless 0
Core_0_DTLB_prefetch_late 0
Core_0_DTLB_prefetch_accuracy 0
Core_0_DTLB_prefetch_coverage 0

Core_0_STLB_total_access 15065
Core_0_STLB_total_hit 4721
Core_0_STLB_total_miss 10344
Core_0_STLB_total_MPKI 0.20688
Core_0_STLB_total_miss_rate 0.686625
Core_0_STLB_demand_access 15065
Core_0_STLB_demand_hit 4721
Core_0_STLB_demand_miss 10344
Core_0_STLB_demand_MPKI 0.20688
Core_0_STLB_demand_miss_rate 0.686625
Core_0_STLB_load_access 15065
Core_0_STLB_load_hit 4721
Core_0_STLB_load_miss 10344
Core_0_STLB_load_MPKI 0.20688
Core_0_STLB_load_miss_rate 0.686625
Core_0_STLB_rfo_access 0
Core_0_STLB_rfo_hit 0
Core_0_STLB_rfo_miss 0
Core_0_STLB_rfo_MPKI 0
Core_0_STLB_rfo_miss_rate 0
Core_0_STLB_prefetch_access 0
Core_0_STLB_prefetch_hit 0
Core_0_STLB_prefetch_miss 0
Core_0_STLB_prefetch_MPKI 0
Core_0_STLB_prefetch_miss_rate 0
Core_0_STLB_writeback_access 0
Core_0_STLB_writeback_hit 0
Core_0_STLB_writeback_miss 0
Core_0_STLB_writeback_MPKI 0
Core_0_STLB_writeback_miss_rate 0
Core_0_STLB_prefetch_requested 0
Core_0_STLB_prefetch_issued 0
Core_0_STLB_prefetch_useful 0
Core_0_STLB_prefetch_useless 0
Core_0_STLB_prefetch_late 0
Core_0_STLB_prefetch_accuracy 0
Core_0_STLB_prefetch_coverage 0

Core_0_L1I_total_access 705428
Core_0_L1I_total_hit 705402
Core_0_L1I_total_miss 26
Core_0_L1I_total_MPKI 0.00052
Core_0_L1I_total_miss_rate 3.68571e-05
Core_0_L1I_demand_access 705428
Core_0_L1I_demand_hit 705402
Core_0_L1I_demand_miss 26
Core_0_L1I_demand_MPKI 0.00052
Core_0_L1I_demand_miss_rate 3.68571e-05
Core_0_L1I_load_access 705428
Core_0_L1I_load_hit 705402
Core_0_L1I_load_miss 26
Core_0_L1I_load_MPKI 0.00052
Core_0_L1I_load_miss_rate 3.68571e-05
Core_0_L1I_rfo_access 0
Core_0_L1I_rfo_hit 0
Core_0_L1I_rfo_miss 0
Core_0_L1I_rfo_MPKI 0
Core_0_L1I_rfo_miss_rate 0
Core_0_L1I_prefetch_access 0
Core_0_L1I_prefetch_hit 0
Core_0_L1I_prefetch_miss 0
Core_0_L1I_prefetch_MPKI 0
Core_0_L1I_prefetch_miss_rate 0
Core_0_L1I_writeback_access 0
Core_0_L1I_writeback_hit 0
Core_0_L1I_writeback_miss 0
Core_0_L1I_writeback_MPKI 0
Core_0_L1I_writeback_miss_rate 0
Core_0_L1I_prefetch_requested 0
Core_0_L1I_prefetch_issued 0
Core_0_L1I_prefetch_useful 0
Core_0_L1I_prefetch_useless 0
Core_0_L1I_prefetch_late 0
Core_0_L1I_prefetch_accuracy 0
Core_0_L1I_prefetch_coverage 0

Core_0_L1D_total_access 17369777
Core_0_L1D_total_hit 16084860
Core_0_L1D_total_miss 1284917
Core_0_L1D_total_MPKI 25.6983
Core_0_L1D_total_miss_rate 0.0739743
Core_0_L1D_demand_access 12783583
Core_0_L1D_demand_hit 12504071
Core_0_L1D_demand_miss 279512
Core_0_L1D_demand_MPKI 5.59024
Core_0_L1D_demand_miss_rate 0.0218649
Core_0_L1D_load_access 12783583
Core_0_L1D_load_hit 12504071
Core_0_L1D_load_miss 279512
Core_0_L1D_load_MPKI 5.59024
Core_0_L1D_load_miss_rate 0.0218649
Core_0_L1D_rfo_access 0
Core_0_L1D_rfo_hit 0
Core_0_L1D_rfo_miss 0
Core_0_L1D_rfo_MPKI 0
Core_0_L1D_rfo_miss_rate 0
Core_0_L1D_prefetch_access 1019600
Core_0_L1D_prefetch_hit 16770
Core_0_L1D_prefetch_miss 1002830
Core_0_L1D_prefetch_MPKI 20.0566
Core_0_L1D_prefetch_miss_rate 0.983552
Core_0_L1D_writeback_access 3566594
Core_0_L1D_writeback_hit 3564019
Core_0_L1D_writeback_miss 2575
Core_0_L1D_writeback_MPKI 0.0515
Core_0_L1D_writeback_miss_rate 0.000721977
Core_0_L1D_prefetch_requested 1019726
Core_0_L1D_prefetch_issued 1019597
Core_0_L1D_prefetch_useful 997125
Core_0_L1D_prefetch_useless 170
Core_0_L1D_prefetch_late 58228
Core_0_L1D_prefetch_accuracy 0.97796
Core_0_L1D_prefetch_coverage 0.781056

Core_0_L2C_total_access 6549124
Core_0_L2C_total_hit 3512195
Core_0_L2C_total_miss 3036929
Core_0_L2C_total_MPKI 60.7386
Core_0_L2C_total_miss_rate 0.463715
Core_0_L2C_demand_access 32495
Core_0_L2C_demand_hit 13057
Core_0_L2C_demand_miss 19438
Core_0_L2C_demand_MPKI 0.38876
Core_0_L2C_demand_miss_rate 0.598184
Core_0_L2C_load_access 32059
Core_0_L2C_load_hit 12683
Core_0_L2C_load_miss 19376
Core_0_L2C_load_MPKI 0.38752
Core_0_L2C_load_miss_rate 0.604386
Core_0_L2C_rfo_access 436
Core_0_L2C_rfo_hit 374
Core_0_L2C_rfo_miss 62
Core_0_L2C_rfo_MPKI 0.00124
Core_0_L2C_rfo_miss_rate 0.142202
Core_0_L2C_prefetch_access 5875638
Core_0_L2C_prefetch_hit 2858158
Core_0_L2C_prefetch_miss 3017480
Core_0_L2C_prefetch_MPKI 60.3496
Core_0_L2C_prefetch_miss_rate 0.513558
Core_0_L2C_writeback_access 640991
Core_0_L2C_writeback_hit 640980
Core_0_L2C_writeback_miss 11
Core_0_L2C_writeback_MPKI 0.00022
Core_0_L2C_writeback_miss_rate 1.71609e-05
Core_0_L2C_prefetch_requested 4885235
Core_0_L2C_prefetch_issued 4878343
Core_0_L2C_prefetch_useful 641418
Core_0_L2C_prefetch_useless 104625
Core_0_L2C_prefetch_late 2023
Core_0_L2C_prefetch_accuracy 0.131483
Core_0_L2C_prefetch_coverage 0.970587

Core_0_LLC_total_access 1490611
Core_0_LLC_total_hit 434108
Core_0_LLC_total_miss 1056503
Core_0_LLC_total_MPKI 21.1301
Core_0_LLC_total_miss_rate 0.708772
Core_0_LLC_demand_access 17415
Core_0_LLC_demand_hit 2148
Core_0_LLC_demand_miss 15267
Core_0_LLC_demand_MPKI 0.30534
Core_0_LLC_demand_miss_rate 0.876658
Core_0_LLC_load_access 17353
Core_0_LLC_load_hit 2113
Core_0_LLC_load_miss 15240
Core_0_LLC_load_MPKI 0.3048
Core_0_LLC_load_miss_rate 0.878234
Core_0_LLC_rfo_access 62
Core_0_LLC_rfo_hit 35
Core_0_LLC_rfo_miss 27
Core_0_LLC_rfo_MPKI 0.00054
Core_0_LLC_rfo_miss_rate 0.435484
Core_0_LLC_prefetch_access 907446
Core_0_LLC_prefetch_hit 107548
Core_0_LLC_prefetch_miss 799898
Core_0_LLC_prefetch_MPKI 15.998
Core_0_LLC_prefetch_miss_rate 0.881483
Core_0_LLC_writeback_access 565750
Core_0_LLC_writeback_hit 324412
Core_0_LLC_writeback_miss 241338
Core_0_LLC_writeback_MPKI 4.82676
Core_0_LLC_writeback_miss_rate 0.426581
Core_0_LLC_prefetch_requested 0
Core_0_LLC_prefetch_issued 0
Core_0_LLC_prefetch_useful 0
Core_0_LLC_prefetch_useless 0
Core_0_LLC_prefetch_late 0
Core_0_LLC_prefetch_accuracy 0
Core_0_LLC_prefetch_coverage 0

[DRAM Statistics]
Channel_0_RQ_row_buffer_hit 123118
Channel_0_RQ_row_buffer_miss 693322
Channel_0_WQ_row_buffer_hit 67514
Channel_0_WQ_row_buffer_miss 399903
Channel_0_WQ_full 0
Channel_0_dbus_congested 3485019
DRAM_total_RQ_row_buffer_hit 123118
DRAM_total_RQ_row_buffer_miss 693322
DRAM_total_WQ_row_buffer_hit 67514
DRAM_total_WQ_row_buffer_miss 399903
DRAM_total_WQ_full 0
DRAM_total_dbus_congested 3485019
DRAM_avg_congested_cycle 7.07147

======STLB miss causes ========
Core_0_STLB_miss_cause_breakdown
Core_0_STLB_cause_Demand_Data_miss 10343
Core_0_STLB_cause_Demand_Data_miss_rate 0.686558
Core_0_STLB_cause_Demand_Instruction_miss 1
Core_0_STLB_cause_Demand_Instruction_miss_rate 6.6379e-05
Core_0_STLB_cause_L1D_Prefetch_miss 0
Core_0_STLB_cause_L1D_Prefetch_miss_rate 0
Core_0_STLB_cause_L1I_Prefetch_miss 0
Core_0_STLB_cause_L1I_Prefetch_miss_rate 0
Core_0_STLB_cause_Other_miss 0
Core_0_STLB_cause_Other_miss_rate 0
Core_0_STLB_Demand_miss 10344
Core_0_STLB_Demand_miss_rate 0.686625
Core_0_STLB_L1D_Prefetch_miss 0
Core_0_STLB_L1D_Prefetch_miss_rate 0
Core_0_STLB_Other_miss 0
Core_0_STLB_Other_miss_rate 0
