[VMEM] WARNING: physical memory size is smaller than virtual memory size.

*** ChampSim Multicore Out-of-Order Simulator ***
Warmup Instructions: 20000000
Simulation Instructions: 50000000
Number of CPUs: 1
Page size: 4096
STLB ideal mode: l1pref
Core 0: /data0/tzh/champsim_traces/Ligra/ligra_Components-Shortcut.com-lj.ungraph.gcc_6.3.0_O3.drop_17000M.length_250M.champsimtrace.xz
 L1D Berti prefetcher
Off-chip DRAM Size: 4 GiB Channels: 1 Width: 64-bit Data Rate: 3205 MT/s
Warmup halting CPU 0 at instruction 20000002 cycle 6367088 for remainder of phase
Warmup finished CPU 0 instructions: 20000002 cycles: 6367088 cumulative IPC: 3.141 (Simulation time: 00 hr 01 min 14 sec)
Warmup complete CPU 0 instructions: 20000002 cycles: 6367088 cumulative IPC: 3.141 (Simulation time: 00 hr 01 min 14 sec)
Simulation finished CPU 0 instructions: 50000001 cycles: 31655800 cumulative IPC: 1.579 (Simulation time: 00 hr 06 min 24 sec)
Simulation complete CPU 0 instructions: 50000001 cycles: 31655800 cumulative IPC: 1.579 (Simulation time: 00 hr 06 min 24 sec)

ChampSim completed all CPUs

=== Simulation ===
CPU 0 runs /data0/tzh/champsim_traces/Ligra/ligra_Components-Shortcut.com-lj.ungraph.gcc_6.3.0_O3.drop_17000M.length_250M.champsimtrace.xz

Region of Interest Statistics

CPU 0 cumulative IPC: 1.579 instructions: 50000001 cycles: 31655800
CPU 0 Branch Prediction Accuracy: 99.3% MPKI: 0.6965 Average ROB Occupancy at Mispredict: 200.6
Branch type MPKI
BRANCH_DIRECT_JUMP: 2e-05
BRANCH_INDIRECT: 0
BRANCH_CONDITIONAL: 0.6964
BRANCH_DIRECT_CALL: 4e-05
BRANCH_INDIRECT_CALL: 0
BRANCH_RETURN: 0.0001

cpu0->cpu0_STLB TOTAL        ACCESS:      21826 HIT:      11993 MISS:       9833 MSHR_MERGE:          0
cpu0->cpu0_STLB LOAD         ACCESS:      21826 HIT:      11993 MISS:       9833 MSHR_MERGE:          0
cpu0->cpu0_STLB RFO          ACCESS:          0 HIT:          0 MISS:          0 MSHR_MERGE:          0
cpu0->cpu0_STLB PREFETCH     ACCESS:          0 HIT:          0 MISS:          0 MSHR_MERGE:          0
cpu0->cpu0_STLB WRITE        ACCESS:          0 HIT:          0 MISS:          0 MSHR_MERGE:          0
cpu0->cpu0_STLB TRANSLATION  ACCESS:          0 HIT:          0 MISS:          0 MSHR_MERGE:          0
cpu0->cpu0_STLB PREFETCH REQUESTED:          0 ISSUED:          0 USEFUL:          0 USELESS:          0 LATE:          0
cpu0->cpu0_STLB AVERAGE MISS LATENCY: 197.4 cycles
cpu0->cpu0_L2C TOTAL        ACCESS:    3913943 HIT:    1486458 MISS:    2427485 MSHR_MERGE:    1540232
cpu0->cpu0_L2C LOAD         ACCESS:     333030 HIT:     234159 MISS:      98871 MSHR_MERGE:      78263
cpu0->cpu0_L2C RFO          ACCESS:     480476 HIT:      34167 MISS:     446309 MSHR_MERGE:         31
cpu0->cpu0_L2C PREFETCH     ACCESS:    2565930 HIT:     685720 MISS:    1880210 MSHR_MERGE:    1461938
cpu0->cpu0_L2C WRITE        ACCESS:     530662 HIT:     530643 MISS:         19 MSHR_MERGE:          0
cpu0->cpu0_L2C TRANSLATION  ACCESS:       3845 HIT:       1769 MISS:       2076 MSHR_MERGE:          0
cpu0->cpu0_L2C PREFETCH REQUESTED:    2449783 ISSUED:    2302048 USEFUL:     293708 USELESS:      93048 LATE:      78294
cpu0->cpu0_L2C AVERAGE MISS LATENCY: 441.3 cycles
cpu0->cpu0_L1I TOTAL        ACCESS:    7303569 HIT:    7303567 MISS:          2 MSHR_MERGE:          1
cpu0->cpu0_L1I LOAD         ACCESS:    7303569 HIT:    7303567 MISS:          2 MSHR_MERGE:          1
cpu0->cpu0_L1I RFO          ACCESS:          0 HIT:          0 MISS:          0 MSHR_MERGE:          0
cpu0->cpu0_L1I PREFETCH     ACCESS:          0 HIT:          0 MISS:          0 MSHR_MERGE:          0
cpu0->cpu0_L1I WRITE        ACCESS:          0 HIT:          0 MISS:          0 MSHR_MERGE:          0
cpu0->cpu0_L1I TRANSLATION  ACCESS:          0 HIT:          0 MISS:          0 MSHR_MERGE:          0
cpu0->cpu0_L1I PREFETCH REQUESTED:          0 ISSUED:          0 USEFUL:          0 USELESS:          0 LATE:          0
cpu0->cpu0_L1I AVERAGE MISS LATENCY: 164 cycles
cpu0->cpu0_L1D TOTAL        ACCESS:   14683593 HIT:   10097173 MISS:    4586420 MSHR_MERGE:    3505177
cpu0->cpu0_L1D LOAD         ACCESS:    4287396 HIT:    3639300 MISS:     648096 MSHR_MERGE:     315065
cpu0->cpu0_L1D RFO          ACCESS:          0 HIT:          0 MISS:          0 MSHR_MERGE:          0
cpu0->cpu0_L1D PREFETCH     ACCESS:     447246 HIT:     131652 MISS:     315594 MSHR_MERGE:      51712
cpu0->cpu0_L1D WRITE        ACCESS:    9930004 HIT:    6311886 MISS:    3618118 MSHR_MERGE:    3137633
cpu0->cpu0_L1D TRANSLATION  ACCESS:      18947 HIT:      14335 MISS:       4612 MSHR_MERGE:        767
cpu0->cpu0_L1D PREFETCH REQUESTED:     666961 ISSUED:     447245 USEFUL:     254735 USELESS:       9148 LATE:      73696
cpu0->cpu0_L1D AVERAGE MISS LATENCY: 296.1 cycles
cpu0->cpu0_ITLB TOTAL        ACCESS:    6486598 HIT:    6486598 MISS:          0 MSHR_MERGE:          0
cpu0->cpu0_ITLB LOAD         ACCESS:    6486598 HIT:    6486598 MISS:          0 MSHR_MERGE:          0
cpu0->cpu0_ITLB RFO          ACCESS:          0 HIT:          0 MISS:          0 MSHR_MERGE:          0
cpu0->cpu0_ITLB PREFETCH     ACCESS:          0 HIT:          0 MISS:          0 MSHR_MERGE:          0
cpu0->cpu0_ITLB WRITE        ACCESS:          0 HIT:          0 MISS:          0 MSHR_MERGE:          0
cpu0->cpu0_ITLB TRANSLATION  ACCESS:          0 HIT:          0 MISS:          0 MSHR_MERGE:          0
cpu0->cpu0_ITLB PREFETCH REQUESTED:          0 ISSUED:          0 USEFUL:          0 USELESS:          0 LATE:          0
cpu0->cpu0_ITLB AVERAGE MISS LATENCY: - cycles
cpu0->cpu0_DTLB TOTAL        ACCESS:   13282829 HIT:   13182667 MISS:     100162 MSHR_MERGE:      78336
cpu0->cpu0_DTLB LOAD         ACCESS:   13282829 HIT:   13182667 MISS:     100162 MSHR_MERGE:      78336
cpu0->cpu0_DTLB RFO          ACCESS:          0 HIT:          0 MISS:          0 MSHR_MERGE:          0
cpu0->cpu0_DTLB PREFETCH     ACCESS:          0 HIT:          0 MISS:          0 MSHR_MERGE:          0
cpu0->cpu0_DTLB WRITE        ACCESS:          0 HIT:          0 MISS:          0 MSHR_MERGE:          0
cpu0->cpu0_DTLB TRANSLATION  ACCESS:          0 HIT:          0 MISS:          0 MSHR_MERGE:          0
cpu0->cpu0_DTLB PREFETCH REQUESTED:          0 ISSUED:          0 USEFUL:          0 USELESS:          0 LATE:          0
cpu0->cpu0_DTLB AVERAGE MISS LATENCY: 94.4 cycles
cpu0->LLC TOTAL        ACCESS:    1390896 HIT:     109425 MISS:    1281471 MSHR_MERGE:          0
cpu0->LLC LOAD         ACCESS:      20608 HIT:       1953 MISS:      18655 MSHR_MERGE:          0
cpu0->LLC RFO          ACCESS:     446278 HIT:       2041 MISS:     444237 MSHR_MERGE:          0
cpu0->LLC PREFETCH     ACCESS:     418272 HIT:      25152 MISS:     393120 MSHR_MERGE:          0
cpu0->LLC WRITE        ACCESS:     503662 HIT:      80196 MISS:     423466 MSHR_MERGE:          0
cpu0->LLC TRANSLATION  ACCESS:       2076 HIT:         83 MISS:       1993 MSHR_MERGE:          0
cpu0->LLC PREFETCH REQUESTED:          0 ISSUED:          0 USEFUL:          0 USELESS:          0 LATE:          0
cpu0->LLC AVERAGE MISS LATENCY: 243.6 cycles

DRAM Statistics

Channel 0 RQ ROW_BUFFER_HIT:      64952
  ROW_BUFFER_MISS:     792979
  AVG DBUS CONGESTED CYCLE: 6.936
Channel 0 WQ ROW_BUFFER_HIT:      56235
  ROW_BUFFER_MISS:     446304
  FULL:       3565
Channel 0 REFRESHES ISSUED:       2638

[ROI Statistics]
[System Configuration]
num_cpus 1
cpu_freq 4000
fetch_width 6
decode_width 6
dispatch_width 6
execute_width 6
lq_width 2
sq_width 2
retire_width 6
scheduler_size 160
branch_mispredict_penalty 1
rob_size 352
lq_size 240
sq_size 112
ifetch_buffer_size 64
decode_buffer_size 32
dispatch_buffer_size 32
register_file_size 288
decode_latency 1
dispatch_latency 1
schedule_latency 0
execute_latency 0
page_size 4096
block_size 64
core_0_itlb_set 16
core_0_itlb_way 4
core_0_itlb_rq_size 16
core_0_itlb_wq_size 16
core_0_itlb_pq_size 0
core_0_itlb_mshr_size 8
core_0_itlb_hit_latency 1
core_0_itlb_fill_latency 1
core_0_itlb_max_tag_check 2
core_0_itlb_max_fill 2
core_0_dtlb_set 16
core_0_dtlb_way 4
core_0_dtlb_rq_size 16
core_0_dtlb_wq_size 16
core_0_dtlb_pq_size 0
core_0_dtlb_mshr_size 8
core_0_dtlb_hit_latency 1
core_0_dtlb_fill_latency 1
core_0_dtlb_max_tag_check 2
core_0_dtlb_max_fill 2
core_0_stlb_set 128
core_0_stlb_way 12
core_0_stlb_rq_size 32
core_0_stlb_wq_size 32
core_0_stlb_pq_size 0
core_0_stlb_mshr_size 16
core_0_stlb_hit_latency 4
core_0_stlb_fill_latency 4
core_0_stlb_max_tag_check 1
core_0_stlb_max_fill 1
core_0_l1i_set 64
core_0_l1i_way 8
core_0_l1i_rq_size 64
core_0_l1i_wq_size 64
core_0_l1i_pq_size 32
core_0_l1i_mshr_size 8
core_0_l1i_hit_latency 2
core_0_l1i_fill_latency 2
core_0_l1i_max_tag_check 2
core_0_l1i_max_fill 2
core_0_l1d_set 64
core_0_l1d_way 12
core_0_l1d_rq_size 64
core_0_l1d_wq_size 64
core_0_l1d_pq_size 8
core_0_l1d_mshr_size 16
core_0_l1d_hit_latency 2
core_0_l1d_fill_latency 3
core_0_l1d_max_tag_check 2
core_0_l1d_max_fill 2
core_0_l2c_set 1024
core_0_l2c_way 8
core_0_l2c_rq_size 32
core_0_l2c_wq_size 32
core_0_l2c_pq_size 16
core_0_l2c_mshr_size 32
core_0_l2c_hit_latency 5
core_0_l2c_fill_latency 5
core_0_l2c_max_tag_check 1
core_0_l2c_max_fill 1
llc_set 2048
llc_way 16
llc_rq_size 32
llc_wq_size 32
llc_pq_size 32
llc_mshr_size 64
llc_hit_latency 10
llc_fill_latency 10
llc_max_tag_check 1
llc_max_fill 1
dram_channels 1
dram_ranks 1
dram_bankgroups 8
dram_banks 4
dram_rows 16384
dram_columns 1024
dram_channel_width 8
dram_rq_size 64
dram_wq_size 64
dram_size 4294967296
core_0_itlb_prefetcher no
core_0_dtlb_prefetcher no
core_0_stlb_prefetcher no
core_0_l1i_prefetcher next_line
core_0_l1d_prefetcher berti
core_0_l2c_prefetcher pythia
llc_prefetcher no
llc_replacement drrip

Core_0_instructions 50000001
Core_0_cycles 31655800
Core_0_IPC 1.57949
Core_0_branch_prediction_accuracy 99.3003
Core_0_branch_MPKI 0.69652
Core_0_average_ROB_occupancy_at_mispredict 200.574

Core_0_ITLB_total_access 6486598
Core_0_ITLB_total_hit 6486598
Core_0_ITLB_total_miss 0
Core_0_ITLB_total_MPKI 0
Core_0_ITLB_total_miss_rate 0
Core_0_ITLB_demand_access 6486598
Core_0_ITLB_demand_hit 6486598
Core_0_ITLB_demand_miss 0
Core_0_ITLB_demand_MPKI 0
Core_0_ITLB_demand_miss_rate 0
Core_0_ITLB_load_access 6486598
Core_0_ITLB_load_hit 6486598
Core_0_ITLB_load_miss 0
Core_0_ITLB_load_MPKI 0
Core_0_ITLB_load_miss_rate 0
Core_0_ITLB_rfo_access 0
Core_0_ITLB_rfo_hit 0
Core_0_ITLB_rfo_miss 0
Core_0_ITLB_rfo_MPKI 0
Core_0_ITLB_rfo_miss_rate 0
Core_0_ITLB_prefetch_access 0
Core_0_ITLB_prefetch_hit 0
Core_0_ITLB_prefetch_miss 0
Core_0_ITLB_prefetch_MPKI 0
Core_0_ITLB_prefetch_miss_rate 0
Core_0_ITLB_writeback_access 0
Core_0_ITLB_writeback_hit 0
Core_0_ITLB_writeback_miss 0
Core_0_ITLB_writeback_MPKI 0
Core_0_ITLB_writeback_miss_rate 0
Core_0_ITLB_prefetch_requested 0
Core_0_ITLB_prefetch_issued 0
Core_0_ITLB_prefetch_useful 0
Core_0_ITLB_prefetch_useless 0
Core_0_ITLB_prefetch_late 0
Core_0_ITLB_prefetch_accuracy 0
Core_0_ITLB_prefetch_coverage 0

Core_0_DTLB_total_access 13282829
Core_0_DTLB_total_hit 13182667
Core_0_DTLB_total_miss 100162
Core_0_DTLB_total_MPKI 2.00324
Core_0_DTLB_total_miss_rate 0.00754071
Core_0_DTLB_demand_access 13282829
Core_0_DTLB_demand_hit 13182667
Core_0_DTLB_demand_miss 100162
Core_0_DTLB_demand_MPKI 2.00324
Core_0_DTLB_demand_miss_rate 0.00754071
Core_0_DTLB_load_access 13282829
Core_0_DTLB_load_hit 13182667
Core_0_DTLB_load_miss 100162
Core_0_DTLB_load_MPKI 2.00324
Core_0_DTLB_load_miss_rate 0.00754071
Core_0_DTLB_rfo_access 0
Core_0_DTLB_rfo_hit 0
Core_0_DTLB_rfo_miss 0
Core_0_DTLB_rfo_MPKI 0
Core_0_DTLB_rfo_miss_rate 0
Core_0_DTLB_prefetch_access 0
Core_0_DTLB_prefetch_hit 0
Core_0_DTLB_prefetch_miss 0
Core_0_DTLB_prefetch_MPKI 0
Core_0_DTLB_prefetch_miss_rate 0
Core_0_DTLB_writeback_access 0
Core_0_DTLB_writeback_hit 0
Core_0_DTLB_writeback_miss 0
Core_0_DTLB_writeback_MPKI 0
Core_0_DTLB_writeback_miss_rate 0
Core_0_DTLB_prefetch_requested 0
Core_0_DTLB_prefetch_issued 0
Core_0_DTLB_prefetch_useful 0
Core_0_DTLB_prefetch_useless 0
Core_0_DTLB_prefetch_late 0
Core_0_DTLB_prefetch_accuracy 0
Core_0_DTLB_prefetch_coverage 0

Core_0_STLB_total_access 21826
Core_0_STLB_total_hit 11993
Core_0_STLB_total_miss 9833
Core_0_STLB_total_MPKI 0.19666
Core_0_STLB_total_miss_rate 0.450518
Core_0_STLB_demand_access 21826
Core_0_STLB_demand_hit 11993
Core_0_STLB_demand_miss 9833
Core_0_STLB_demand_MPKI 0.19666
Core_0_STLB_demand_miss_rate 0.450518
Core_0_STLB_load_access 21826
Core_0_STLB_load_hit 11993
Core_0_STLB_load_miss 9833
Core_0_STLB_load_MPKI 0.19666
Core_0_STLB_load_miss_rate 0.450518
Core_0_STLB_rfo_access 0
Core_0_STLB_rfo_hit 0
Core_0_STLB_rfo_miss 0
Core_0_STLB_rfo_MPKI 0
Core_0_STLB_rfo_miss_rate 0
Core_0_STLB_prefetch_access 0
Core_0_STLB_prefetch_hit 0
Core_0_STLB_prefetch_miss 0
Core_0_STLB_prefetch_MPKI 0
Core_0_STLB_prefetch_miss_rate 0
Core_0_STLB_writeback_access 0
Core_0_STLB_writeback_hit 0
Core_0_STLB_writeback_miss 0
Core_0_STLB_writeback_MPKI 0
Core_0_STLB_writeback_miss_rate 0
Core_0_STLB_prefetch_requested 0
Core_0_STLB_prefetch_issued 0
Core_0_STLB_prefetch_useful 0
Core_0_STLB_prefetch_useless 0
Core_0_STLB_prefetch_late 0
Core_0_STLB_prefetch_accuracy 0
Core_0_STLB_prefetch_coverage 0

Core_0_L1I_total_access 7303569
Core_0_L1I_total_hit 7303567
Core_0_L1I_total_miss 2
Core_0_L1I_total_MPKI 4e-05
Core_0_L1I_total_miss_rate 2.73839e-07
Core_0_L1I_demand_access 7303569
Core_0_L1I_demand_hit 7303567
Core_0_L1I_demand_miss 2
Core_0_L1I_demand_MPKI 4e-05
Core_0_L1I_demand_miss_rate 2.73839e-07
Core_0_L1I_load_access 7303569
Core_0_L1I_load_hit 7303567
Core_0_L1I_load_miss 2
Core_0_L1I_load_MPKI 4e-05
Core_0_L1I_load_miss_rate 2.73839e-07
Core_0_L1I_rfo_access 0
Core_0_L1I_rfo_hit 0
Core_0_L1I_rfo_miss 0
Core_0_L1I_rfo_MPKI 0
Core_0_L1I_rfo_miss_rate 0
Core_0_L1I_prefetch_access 0
Core_0_L1I_prefetch_hit 0
Core_0_L1I_prefetch_miss 0
Core_0_L1I_prefetch_MPKI 0
Core_0_L1I_prefetch_miss_rate 0
Core_0_L1I_writeback_access 0
Core_0_L1I_writeback_hit 0
Core_0_L1I_writeback_miss 0
Core_0_L1I_writeback_MPKI 0
Core_0_L1I_writeback_miss_rate 0
Core_0_L1I_prefetch_requested 0
Core_0_L1I_prefetch_issued 0
Core_0_L1I_prefetch_useful 0
Core_0_L1I_prefetch_useless 0
Core_0_L1I_prefetch_late 0
Core_0_L1I_prefetch_accuracy 0
Core_0_L1I_prefetch_coverage 0

Core_0_L1D_total_access 14664646
Core_0_L1D_total_hit 10082838
Core_0_L1D_total_miss 4581808
Core_0_L1D_total_MPKI 91.6362
Core_0_L1D_total_miss_rate 0.312439
Core_0_L1D_demand_access 4287396
Core_0_L1D_demand_hit 3639300
Core_0_L1D_demand_miss 648096
Core_0_L1D_demand_MPKI 12.9619
Core_0_L1D_demand_miss_rate 0.151163
Core_0_L1D_load_access 4287396
Core_0_L1D_load_hit 3639300
Core_0_L1D_load_miss 648096
Core_0_L1D_load_MPKI 12.9619
Core_0_L1D_load_miss_rate 0.151163
Core_0_L1D_rfo_access 0
Core_0_L1D_rfo_hit 0
Core_0_L1D_rfo_miss 0
Core_0_L1D_rfo_MPKI 0
Core_0_L1D_rfo_miss_rate 0
Core_0_L1D_prefetch_access 447246
Core_0_L1D_prefetch_hit 131652
Core_0_L1D_prefetch_miss 315594
Core_0_L1D_prefetch_MPKI 6.31188
Core_0_L1D_prefetch_miss_rate 0.705639
Core_0_L1D_writeback_access 9930004
Core_0_L1D_writeback_hit 6311886
Core_0_L1D_writeback_miss 3618118
Core_0_L1D_writeback_MPKI 72.3624
Core_0_L1D_writeback_miss_rate 0.364362
Core_0_L1D_prefetch_requested 666961
Core_0_L1D_prefetch_issued 447245
Core_0_L1D_prefetch_useful 254735
Core_0_L1D_prefetch_useless 9148
Core_0_L1D_prefetch_late 73696
Core_0_L1D_prefetch_accuracy 0.569565
Core_0_L1D_prefetch_coverage 0.282151

Core_0_L2C_total_access 3910098
Core_0_L2C_total_hit 1484689
Core_0_L2C_total_miss 2425409
Core_0_L2C_total_MPKI 48.5082
Core_0_L2C_total_miss_rate 0.620294
Core_0_L2C_demand_access 813506
Core_0_L2C_demand_hit 268326
Core_0_L2C_demand_miss 545180
Core_0_L2C_demand_MPKI 10.9036
Core_0_L2C_demand_miss_rate 0.670161
Core_0_L2C_load_access 333030
Core_0_L2C_load_hit 234159
Core_0_L2C_load_miss 98871
Core_0_L2C_load_MPKI 1.97742
Core_0_L2C_load_miss_rate 0.296883
Core_0_L2C_rfo_access 480476
Core_0_L2C_rfo_hit 34167
Core_0_L2C_rfo_miss 446309
Core_0_L2C_rfo_MPKI 8.92618
Core_0_L2C_rfo_miss_rate 0.928889
Core_0_L2C_prefetch_access 2565930
Core_0_L2C_prefetch_hit 685720
Core_0_L2C_prefetch_miss 1880210
Core_0_L2C_prefetch_MPKI 37.6042
Core_0_L2C_prefetch_miss_rate 0.73276
Core_0_L2C_writeback_access 530662
Core_0_L2C_writeback_hit 530643
Core_0_L2C_writeback_miss 19
Core_0_L2C_writeback_MPKI 0.00038
Core_0_L2C_writeback_miss_rate 3.58043e-05
Core_0_L2C_prefetch_requested 2449783
Core_0_L2C_prefetch_issued 2302048
Core_0_L2C_prefetch_useful 293708
Core_0_L2C_prefetch_useless 93048
Core_0_L2C_prefetch_late 78294
Core_0_L2C_prefetch_accuracy 0.127586
Core_0_L2C_prefetch_coverage 0.350116

Core_0_LLC_total_access 1388820
Core_0_LLC_total_hit 109342
Core_0_LLC_total_miss 1279478
Core_0_LLC_total_MPKI 25.5896
Core_0_LLC_total_miss_rate 0.92127
Core_0_LLC_demand_access 466886
Core_0_LLC_demand_hit 3994
Core_0_LLC_demand_miss 462892
Core_0_LLC_demand_MPKI 9.25784
Core_0_LLC_demand_miss_rate 0.991445
Core_0_LLC_load_access 20608
Core_0_LLC_load_hit 1953
Core_0_LLC_load_miss 18655
Core_0_LLC_load_MPKI 0.3731
Core_0_LLC_load_miss_rate 0.905231
Core_0_LLC_rfo_access 446278
Core_0_LLC_rfo_hit 2041
Core_0_LLC_rfo_miss 444237
Core_0_LLC_rfo_MPKI 8.88474
Core_0_LLC_rfo_miss_rate 0.995427
Core_0_LLC_prefetch_access 418272
Core_0_LLC_prefetch_hit 25152
Core_0_LLC_prefetch_miss 393120
Core_0_LLC_prefetch_MPKI 7.8624
Core_0_LLC_prefetch_miss_rate 0.939867
Core_0_LLC_writeback_access 503662
Core_0_LLC_writeback_hit 80196
Core_0_LLC_writeback_miss 423466
Core_0_LLC_writeback_MPKI 8.46932
Core_0_LLC_writeback_miss_rate 0.840774
Core_0_LLC_prefetch_requested 0
Core_0_LLC_prefetch_issued 0
Core_0_LLC_prefetch_useful 0
Core_0_LLC_prefetch_useless 0
Core_0_LLC_prefetch_late 0
Core_0_LLC_prefetch_accuracy 0
Core_0_LLC_prefetch_coverage 0

[DRAM Statistics]
Channel_0_RQ_row_buffer_hit 64952
Channel_0_RQ_row_buffer_miss 792979
Channel_0_WQ_row_buffer_hit 56235
Channel_0_WQ_row_buffer_miss 446304
Channel_0_WQ_full 3565
Channel_0_dbus_congested 4623413
DRAM_total_RQ_row_buffer_hit 64952
DRAM_total_RQ_row_buffer_miss 792979
DRAM_total_WQ_row_buffer_hit 56235
DRAM_total_WQ_row_buffer_miss 446304
DRAM_total_WQ_full 3565
DRAM_total_dbus_congested 4623413
DRAM_avg_congested_cycle 6.93605

======STLB miss causes ========
Core_0_STLB_miss_cause_breakdown
Core_0_STLB_cause_Demand_Data_miss 9833
Core_0_STLB_cause_Demand_Data_miss_rate 0.450518
Core_0_STLB_cause_Demand_Instruction_miss 0
Core_0_STLB_cause_Demand_Instruction_miss_rate 0
Core_0_STLB_cause_L1D_Prefetch_miss 0
Core_0_STLB_cause_L1D_Prefetch_miss_rate 0
Core_0_STLB_cause_L1I_Prefetch_miss 0
Core_0_STLB_cause_L1I_Prefetch_miss_rate 0
Core_0_STLB_cause_Other_miss 0
Core_0_STLB_cause_Other_miss_rate 0
Core_0_STLB_Demand_miss 9833
Core_0_STLB_Demand_miss_rate 0.450518
Core_0_STLB_L1D_Prefetch_miss 0
Core_0_STLB_L1D_Prefetch_miss_rate 0
Core_0_STLB_Other_miss 0
Core_0_STLB_Other_miss_rate 0
