[VMEM] WARNING: physical memory size is smaller than virtual memory size.

*** ChampSim Multicore Out-of-Order Simulator ***
Warmup Instructions: 20000000
Simulation Instructions: 50000000
Number of CPUs: 1
Page size: 4096
STLB ideal mode: l1pref
Core 0: /data0/tzh/champsim_traces/Ligra/ligra_PageRank.com-lj.ungraph.gcc_6.3.0_O3.drop_51000M.length_250M.champsimtrace.xz
 L1D Berti prefetcher
Off-chip DRAM Size: 4 GiB Channels: 1 Width: 64-bit Data Rate: 3205 MT/s
Warmup halting CPU 0 at instruction 20000005 cycle 5818509 for remainder of phase
Warmup finished CPU 0 instructions: 20000005 cycles: 5818509 cumulative IPC: 3.437 (Simulation time: 00 hr 01 min 12 sec)
Warmup complete CPU 0 instructions: 20000005 cycles: 5818509 cumulative IPC: 3.437 (Simulation time: 00 hr 01 min 12 sec)
Simulation finished CPU 0 instructions: 50000001 cycles: 43271472 cumulative IPC: 1.155 (Simulation time: 00 hr 07 min 30 sec)
Simulation complete CPU 0 instructions: 50000001 cycles: 43271472 cumulative IPC: 1.155 (Simulation time: 00 hr 07 min 30 sec)

ChampSim completed all CPUs

=== Simulation ===
CPU 0 runs /data0/tzh/champsim_traces/Ligra/ligra_PageRank.com-lj.ungraph.gcc_6.3.0_O3.drop_51000M.length_250M.champsimtrace.xz

Region of Interest Statistics

CPU 0 cumulative IPC: 1.155 instructions: 50000001 cycles: 43271472
CPU 0 Branch Prediction Accuracy: 99.63% MPKI: 0.9158 Average ROB Occupancy at Mispredict: 149.4
Branch type MPKI
BRANCH_DIRECT_JUMP: 0.0002
BRANCH_INDIRECT: 0
BRANCH_CONDITIONAL: 0.9154
BRANCH_DIRECT_CALL: 0.00012
BRANCH_INDIRECT_CALL: 0
BRANCH_RETURN: 0.00012

cpu0->cpu0_STLB TOTAL        ACCESS:     119697 HIT:     104127 MISS:      15570 MSHR_MERGE:          0
cpu0->cpu0_STLB LOAD         ACCESS:     119697 HIT:     104127 MISS:      15570 MSHR_MERGE:          0
cpu0->cpu0_STLB RFO          ACCESS:          0 HIT:          0 MISS:          0 MSHR_MERGE:          0
cpu0->cpu0_STLB PREFETCH     ACCESS:          0 HIT:          0 MISS:          0 MSHR_MERGE:          0
cpu0->cpu0_STLB WRITE        ACCESS:          0 HIT:          0 MISS:          0 MSHR_MERGE:          0
cpu0->cpu0_STLB TRANSLATION  ACCESS:          0 HIT:          0 MISS:          0 MSHR_MERGE:          0
cpu0->cpu0_STLB PREFETCH REQUESTED:          0 ISSUED:          0 USEFUL:          0 USELESS:          0 LATE:          0
cpu0->cpu0_STLB AVERAGE MISS LATENCY: 85.66 cycles
cpu0->cpu0_L2C TOTAL        ACCESS:    4849033 HIT:    2518590 MISS:    2330443 MSHR_MERGE:    1257977
cpu0->cpu0_L2C LOAD         ACCESS:     275430 HIT:     241567 MISS:      33863 MSHR_MERGE:       3440
cpu0->cpu0_L2C RFO          ACCESS:     505336 HIT:        380 MISS:     504956 MSHR_MERGE:          0
cpu0->cpu0_L2C PREFETCH     ACCESS:    3555245 HIT:    1765678 MISS:    1789567 MSHR_MERGE:    1254537
cpu0->cpu0_L2C WRITE        ACCESS:     510605 HIT:     510605 MISS:          0 MSHR_MERGE:          0
cpu0->cpu0_L2C TRANSLATION  ACCESS:       2417 HIT:        360 MISS:       2057 MSHR_MERGE:          0
cpu0->cpu0_L2C PREFETCH REQUESTED:    3063809 ISSUED:    2998990 USEFUL:     413454 USELESS:      92154 LATE:       3440
cpu0->cpu0_L2C AVERAGE MISS LATENCY: 616.2 cycles
cpu0->cpu0_L1I TOTAL        ACCESS:    5987987 HIT:    5987922 MISS:         65 MSHR_MERGE:          6
cpu0->cpu0_L1I LOAD         ACCESS:    5987987 HIT:    5987922 MISS:         65 MSHR_MERGE:          6
cpu0->cpu0_L1I RFO          ACCESS:          0 HIT:          0 MISS:          0 MSHR_MERGE:          0
cpu0->cpu0_L1I PREFETCH     ACCESS:          0 HIT:          0 MISS:          0 MSHR_MERGE:          0
cpu0->cpu0_L1I WRITE        ACCESS:          0 HIT:          0 MISS:          0 MSHR_MERGE:          0
cpu0->cpu0_L1I TRANSLATION  ACCESS:          0 HIT:          0 MISS:          0 MSHR_MERGE:          0
cpu0->cpu0_L1I PREFETCH REQUESTED:          0 ISSUED:          0 USEFUL:          0 USELESS:          0 LATE:          0
cpu0->cpu0_L1I AVERAGE MISS LATENCY: 236.5 cycles
cpu0->cpu0_L1D TOTAL        ACCESS:   11670983 HIT:    6754613 MISS:    4916370 MSHR_MERGE:    3576987
cpu0->cpu0_L1D LOAD         ACCESS:    6424753 HIT:    6105255 MISS:     319498 MSHR_MERGE:      44127
cpu0->cpu0_L1D RFO          ACCESS:          0 HIT:          0 MISS:          0 MSHR_MERGE:          0
cpu0->cpu0_L1D PREFETCH     ACCESS:     718886 HIT:     161314 MISS:     557572 MSHR_MERGE:       1313
cpu0->cpu0_L1D WRITE        ACCESS:    4496197 HIT:     459317 MISS:    4036880 MSHR_MERGE:    3531544
cpu0->cpu0_L1D TRANSLATION  ACCESS:      31147 HIT:      28727 MISS:       2420 MSHR_MERGE:          3
cpu0->cpu0_L1D PREFETCH REQUESTED:     800677 ISSUED:     718886 USEFUL:     489252 USELESS:      66884 LATE:      11979
cpu0->cpu0_L1D AVERAGE MISS LATENCY: 429.6 cycles
cpu0->cpu0_ITLB TOTAL        ACCESS:    5985804 HIT:    5985799 MISS:          5 MSHR_MERGE:          2
cpu0->cpu0_ITLB LOAD         ACCESS:    5985804 HIT:    5985799 MISS:          5 MSHR_MERGE:          2
cpu0->cpu0_ITLB RFO          ACCESS:          0 HIT:          0 MISS:          0 MSHR_MERGE:          0
cpu0->cpu0_ITLB PREFETCH     ACCESS:          0 HIT:          0 MISS:          0 MSHR_MERGE:          0
cpu0->cpu0_ITLB WRITE        ACCESS:          0 HIT:          0 MISS:          0 MSHR_MERGE:          0
cpu0->cpu0_ITLB TRANSLATION  ACCESS:          0 HIT:          0 MISS:          0 MSHR_MERGE:          0
cpu0->cpu0_ITLB PREFETCH REQUESTED:          0 ISSUED:          0 USEFUL:          0 USELESS:          0 LATE:          0
cpu0->cpu0_ITLB AVERAGE MISS LATENCY: 347.3 cycles
cpu0->cpu0_DTLB TOTAL        ACCESS:   10811988 HIT:   10568670 MISS:     243318 MSHR_MERGE:     123624
cpu0->cpu0_DTLB LOAD         ACCESS:   10811988 HIT:   10568670 MISS:     243318 MSHR_MERGE:     123624
cpu0->cpu0_DTLB RFO          ACCESS:          0 HIT:          0 MISS:          0 MSHR_MERGE:          0
cpu0->cpu0_DTLB PREFETCH     ACCESS:          0 HIT:          0 MISS:          0 MSHR_MERGE:          0
cpu0->cpu0_DTLB WRITE        ACCESS:          0 HIT:          0 MISS:          0 MSHR_MERGE:          0
cpu0->cpu0_DTLB TRANSLATION  ACCESS:          0 HIT:          0 MISS:          0 MSHR_MERGE:          0
cpu0->cpu0_DTLB PREFETCH REQUESTED:          0 ISSUED:          0 USEFUL:          0 USELESS:          0 LATE:          0
cpu0->cpu0_DTLB AVERAGE MISS LATENCY: 16.28 cycles
cpu0->LLC TOTAL        ACCESS:    1582595 HIT:     137289 MISS:    1445306 MSHR_MERGE:          0
cpu0->LLC LOAD         ACCESS:      30423 HIT:      16727 MISS:      13696 MSHR_MERGE:          0
cpu0->LLC RFO          ACCESS:     504956 HIT:        280 MISS:     504676 MSHR_MERGE:          0
cpu0->LLC PREFETCH     ACCESS:     535024 HIT:      39887 MISS:     495137 MSHR_MERGE:          0
cpu0->LLC WRITE        ACCESS:     510135 HIT:      80355 MISS:     429780 MSHR_MERGE:          0
cpu0->LLC TRANSLATION  ACCESS:       2057 HIT:         40 MISS:       2017 MSHR_MERGE:          0
cpu0->LLC PREFETCH REQUESTED:          0 ISSUED:          0 USEFUL:          0 USELESS:          0 LATE:          0
cpu0->LLC AVERAGE MISS LATENCY: 345.4 cycles

DRAM Statistics

Channel 0 RQ ROW_BUFFER_HIT:     232869
  ROW_BUFFER_MISS:     782656
  AVG DBUS CONGESTED CYCLE: 7.073
Channel 0 WQ ROW_BUFFER_HIT:      45111
  ROW_BUFFER_MISS:     481956
  FULL:          0
Channel 0 REFRESHES ISSUED:       3606

[ROI Statistics]
[System Configuration]
num_cpus 1
cpu_freq 4000
fetch_width 6
decode_width 6
dispatch_width 6
execute_width 6
lq_width 2
sq_width 2
retire_width 6
scheduler_size 160
branch_mispredict_penalty 1
rob_size 352
lq_size 240
sq_size 112
ifetch_buffer_size 64
decode_buffer_size 32
dispatch_buffer_size 32
register_file_size 288
decode_latency 1
dispatch_latency 1
schedule_latency 0
execute_latency 0
page_size 4096
block_size 64
core_0_itlb_set 16
core_0_itlb_way 4
core_0_itlb_rq_size 16
core_0_itlb_wq_size 16
core_0_itlb_pq_size 0
core_0_itlb_mshr_size 8
core_0_itlb_hit_latency 1
core_0_itlb_fill_latency 1
core_0_itlb_max_tag_check 2
core_0_itlb_max_fill 2
core_0_dtlb_set 16
core_0_dtlb_way 4
core_0_dtlb_rq_size 16
core_0_dtlb_wq_size 16
core_0_dtlb_pq_size 0
core_0_dtlb_mshr_size 8
core_0_dtlb_hit_latency 1
core_0_dtlb_fill_latency 1
core_0_dtlb_max_tag_check 2
core_0_dtlb_max_fill 2
core_0_stlb_set 128
core_0_stlb_way 12
core_0_stlb_rq_size 32
core_0_stlb_wq_size 32
core_0_stlb_pq_size 0
core_0_stlb_mshr_size 16
core_0_stlb_hit_latency 4
core_0_stlb_fill_latency 4
core_0_stlb_max_tag_check 1
core_0_stlb_max_fill 1
core_0_l1i_set 64
core_0_l1i_way 8
core_0_l1i_rq_size 64
core_0_l1i_wq_size 64
core_0_l1i_pq_size 32
core_0_l1i_mshr_size 8
core_0_l1i_hit_latency 2
core_0_l1i_fill_latency 2
core_0_l1i_max_tag_check 2
core_0_l1i_max_fill 2
core_0_l1d_set 64
core_0_l1d_way 12
core_0_l1d_rq_size 64
core_0_l1d_wq_size 64
core_0_l1d_pq_size 8
core_0_l1d_mshr_size 16
core_0_l1d_hit_latency 2
core_0_l1d_fill_latency 3
core_0_l1d_max_tag_check 2
core_0_l1d_max_fill 2
core_0_l2c_set 1024
core_0_l2c_way 8
core_0_l2c_rq_size 32
core_0_l2c_wq_size 32
core_0_l2c_pq_size 16
core_0_l2c_mshr_size 32
core_0_l2c_hit_latency 5
core_0_l2c_fill_latency 5
core_0_l2c_max_tag_check 1
core_0_l2c_max_fill 1
llc_set 2048
llc_way 16
llc_rq_size 32
llc_wq_size 32
llc_pq_size 32
llc_mshr_size 64
llc_hit_latency 10
llc_fill_latency 10
llc_max_tag_check 1
llc_max_fill 1
dram_channels 1
dram_ranks 1
dram_bankgroups 8
dram_banks 4
dram_rows 16384
dram_columns 1024
dram_channel_width 8
dram_rq_size 64
dram_wq_size 64
dram_size 4294967296
core_0_itlb_prefetcher no
core_0_dtlb_prefetcher no
core_0_stlb_prefetcher no
core_0_l1i_prefetcher next_line
core_0_l1d_prefetcher berti
core_0_l2c_prefetcher pythia
llc_prefetcher no
llc_replacement drrip

Core_0_instructions 50000001
Core_0_cycles 43271472
Core_0_IPC 1.1555
Core_0_branch_prediction_accuracy 99.6254
Core_0_branch_MPKI 0.91584
Core_0_average_ROB_occupancy_at_mispredict 149.378

Core_0_ITLB_total_access 5985804
Core_0_ITLB_total_hit 5985799
Core_0_ITLB_total_miss 5
Core_0_ITLB_total_MPKI 0.0001
Core_0_ITLB_total_miss_rate 8.3531e-07
Core_0_ITLB_demand_access 5985804
Core_0_ITLB_demand_hit 5985799
Core_0_ITLB_demand_miss 5
Core_0_ITLB_demand_MPKI 0.0001
Core_0_ITLB_demand_miss_rate 8.3531e-07
Core_0_ITLB_load_access 5985804
Core_0_ITLB_load_hit 5985799
Core_0_ITLB_load_miss 5
Core_0_ITLB_load_MPKI 0.0001
Core_0_ITLB_load_miss_rate 8.3531e-07
Core_0_ITLB_rfo_access 0
Core_0_ITLB_rfo_hit 0
Core_0_ITLB_rfo_miss 0
Core_0_ITLB_rfo_MPKI 0
Core_0_ITLB_rfo_miss_rate 0
Core_0_ITLB_prefetch_access 0
Core_0_ITLB_prefetch_hit 0
Core_0_ITLB_prefetch_miss 0
Core_0_ITLB_prefetch_MPKI 0
Core_0_ITLB_prefetch_miss_rate 0
Core_0_ITLB_writeback_access 0
Core_0_ITLB_writeback_hit 0
Core_0_ITLB_writeback_miss 0
Core_0_ITLB_writeback_MPKI 0
Core_0_ITLB_writeback_miss_rate 0
Core_0_ITLB_prefetch_requested 0
Core_0_ITLB_prefetch_issued 0
Core_0_ITLB_prefetch_useful 0
Core_0_ITLB_prefetch_useless 0
Core_0_ITLB_prefetch_late 0
Core_0_ITLB_prefetch_accuracy 0
Core_0_ITLB_prefetch_coverage 0

Core_0_DTLB_total_access 10811988
Core_0_DTLB_total_hit 10568670
Core_0_DTLB_total_miss 243318
Core_0_DTLB_total_MPKI 4.86636
Core_0_DTLB_total_miss_rate 0.0225045
Core_0_DTLB_demand_access 10811988
Core_0_DTLB_demand_hit 10568670
Core_0_DTLB_demand_miss 243318
Core_0_DTLB_demand_MPKI 4.86636
Core_0_DTLB_demand_miss_rate 0.0225045
Core_0_DTLB_load_access 10811988
Core_0_DTLB_load_hit 10568670
Core_0_DTLB_load_miss 243318
Core_0_DTLB_load_MPKI 4.86636
Core_0_DTLB_load_miss_rate 0.0225045
Core_0_DTLB_rfo_access 0
Core_0_DTLB_rfo_hit 0
Core_0_DTLB_rfo_miss 0
Core_0_DTLB_rfo_MPKI 0
Core_0_DTLB_rfo_miss_rate 0
Core_0_DTLB_prefetch_access 0
Core_0_DTLB_prefetch_hit 0
Core_0_DTLB_prefetch_miss 0
Core_0_DTLB_prefetch_MPKI 0
Core_0_DTLB_prefetch_miss_rate 0
Core_0_DTLB_writeback_access 0
Core_0_DTLB_writeback_hit 0
Core_0_DTLB_writeback_miss 0
Core_0_DTLB_writeback_MPKI 0
Core_0_DTLB_writeback_miss_rate 0
Core_0_DTLB_prefetch_requested 0
Core_0_DTLB_prefetch_issued 0
Core_0_DTLB_prefetch_useful 0
Core_0_DTLB_prefetch_useless 0
Core_0_DTLB_prefetch_late 0
Core_0_DTLB_prefetch_accuracy 0
Core_0_DTLB_prefetch_coverage 0

Core_0_STLB_total_access 119697
Core_0_STLB_total_hit 104127
Core_0_STLB_total_miss 15570
Core_0_STLB_total_MPKI 0.3114
Core_0_STLB_total_miss_rate 0.130078
Core_0_STLB_demand_access 119697
Core_0_STLB_demand_hit 104127
Core_0_STLB_demand_miss 15570
Core_0_STLB_demand_MPKI 0.3114
Core_0_STLB_demand_miss_rate 0.130078
Core_0_STLB_load_access 119697
Core_0_STLB_load_hit 104127
Core_0_STLB_load_miss 15570
Core_0_STLB_load_MPKI 0.3114
Core_0_STLB_load_miss_rate 0.130078
Core_0_STLB_rfo_access 0
Core_0_STLB_rfo_hit 0
Core_0_STLB_rfo_miss 0
Core_0_STLB_rfo_MPKI 0
Core_0_STLB_rfo_miss_rate 0
Core_0_STLB_prefetch_access 0
Core_0_STLB_prefetch_hit 0
Core_0_STLB_prefetch_miss 0
Core_0_STLB_prefetch_MPKI 0
Core_0_STLB_prefetch_miss_rate 0
Core_0_STLB_writeback_access 0
Core_0_STLB_writeback_hit 0
Core_0_STLB_writeback_miss 0
Core_0_STLB_writeback_MPKI 0
Core_0_STLB_writeback_miss_rate 0
Core_0_STLB_prefetch_requested 0
Core_0_STLB_prefetch_issued 0
Core_0_STLB_prefetch_useful 0
Core_0_STLB_prefetch_useless 0
Core_0_STLB_prefetch_late 0
Core_0_STLB_prefetch_accuracy 0
Core_0_STLB_prefetch_coverage 0

Core_0_L1I_total_access 5987987
Core_0_L1I_total_hit 5987922
Core_0_L1I_total_miss 65
Core_0_L1I_total_MPKI 0.0013
Core_0_L1I_total_miss_rate 1.08551e-05
Core_0_L1I_demand_access 5987987
Core_0_L1I_demand_hit 5987922
Core_0_L1I_demand_miss 65
Core_0_L1I_demand_MPKI 0.0013
Core_0_L1I_demand_miss_rate 1.08551e-05
Core_0_L1I_load_access 5987987
Core_0_L1I_load_hit 5987922
Core_0_L1I_load_miss 65
Core_0_L1I_load_MPKI 0.0013
Core_0_L1I_load_miss_rate 1.08551e-05
Core_0_L1I_rfo_access 0
Core_0_L1I_rfo_hit 0
Core_0_L1I_rfo_miss 0
Core_0_L1I_rfo_MPKI 0
Core_0_L1I_rfo_miss_rate 0
Core_0_L1I_prefetch_access 0
Core_0_L1I_prefetch_hit 0
Core_0_L1I_prefetch_miss 0
Core_0_L1I_prefetch_MPKI 0
Core_0_L1I_prefetch_miss_rate 0
Core_0_L1I_writeback_access 0
Core_0_L1I_writeback_hit 0
Core_0_L1I_writeback_miss 0
Core_0_L1I_writeback_MPKI 0
Core_0_L1I_writeback_miss_rate 0
Core_0_L1I_prefetch_requested 0
Core_0_L1I_prefetch_issued 0
Core_0_L1I_prefetch_useful 0
Core_0_L1I_prefetch_useless 0
Core_0_L1I_prefetch_late 0
Core_0_L1I_prefetch_accuracy 0
Core_0_L1I_prefetch_coverage 0

Core_0_L1D_total_access 11639836
Core_0_L1D_total_hit 6725886
Core_0_L1D_total_miss 4913950
Core_0_L1D_total_MPKI 98.279
Core_0_L1D_total_miss_rate 0.422167
Core_0_L1D_demand_access 6424753
Core_0_L1D_demand_hit 6105255
Core_0_L1D_demand_miss 319498
Core_0_L1D_demand_MPKI 6.38996
Core_0_L1D_demand_miss_rate 0.0497292
Core_0_L1D_load_access 6424753
Core_0_L1D_load_hit 6105255
Core_0_L1D_load_miss 319498
Core_0_L1D_load_MPKI 6.38996
Core_0_L1D_load_miss_rate 0.0497292
Core_0_L1D_rfo_access 0
Core_0_L1D_rfo_hit 0
Core_0_L1D_rfo_miss 0
Core_0_L1D_rfo_MPKI 0
Core_0_L1D_rfo_miss_rate 0
Core_0_L1D_prefetch_access 718886
Core_0_L1D_prefetch_hit 161314
Core_0_L1D_prefetch_miss 557572
Core_0_L1D_prefetch_MPKI 11.1514
Core_0_L1D_prefetch_miss_rate 0.775606
Core_0_L1D_writeback_access 4496197
Core_0_L1D_writeback_hit 459317
Core_0_L1D_writeback_miss 4036880
Core_0_L1D_writeback_MPKI 80.7376
Core_0_L1D_writeback_miss_rate 0.897843
Core_0_L1D_prefetch_requested 800677
Core_0_L1D_prefetch_issued 718886
Core_0_L1D_prefetch_useful 489252
Core_0_L1D_prefetch_useless 66884
Core_0_L1D_prefetch_late 11979
Core_0_L1D_prefetch_accuracy 0.68057
Core_0_L1D_prefetch_coverage 0.604948

Core_0_L2C_total_access 4846616
Core_0_L2C_total_hit 2518230
Core_0_L2C_total_miss 2328386
Core_0_L2C_total_MPKI 46.5677
Core_0_L2C_total_miss_rate 0.480415
Core_0_L2C_demand_access 780766
Core_0_L2C_demand_hit 241947
Core_0_L2C_demand_miss 538819
Core_0_L2C_demand_MPKI 10.7764
Core_0_L2C_demand_miss_rate 0.690116
Core_0_L2C_load_access 275430
Core_0_L2C_load_hit 241567
Core_0_L2C_load_miss 33863
Core_0_L2C_load_MPKI 0.67726
Core_0_L2C_load_miss_rate 0.122946
Core_0_L2C_rfo_access 505336
Core_0_L2C_rfo_hit 380
Core_0_L2C_rfo_miss 504956
Core_0_L2C_rfo_MPKI 10.0991
Core_0_L2C_rfo_miss_rate 0.999248
Core_0_L2C_prefetch_access 3555245
Core_0_L2C_prefetch_hit 1765678
Core_0_L2C_prefetch_miss 1789567
Core_0_L2C_prefetch_MPKI 35.7913
Core_0_L2C_prefetch_miss_rate 0.50336
Core_0_L2C_writeback_access 510605
Core_0_L2C_writeback_hit 510605
Core_0_L2C_writeback_miss 0
Core_0_L2C_writeback_MPKI 0
Core_0_L2C_writeback_miss_rate 0
Core_0_L2C_prefetch_requested 3063809
Core_0_L2C_prefetch_issued 2998990
Core_0_L2C_prefetch_useful 413454
Core_0_L2C_prefetch_useless 92154
Core_0_L2C_prefetch_late 3440
Core_0_L2C_prefetch_accuracy 0.137864
Core_0_L2C_prefetch_coverage 0.434176

Core_0_LLC_total_access 1580538
Core_0_LLC_total_hit 137249
Core_0_LLC_total_miss 1443289
Core_0_LLC_total_MPKI 28.8658
Core_0_LLC_total_miss_rate 0.913163
Core_0_LLC_demand_access 535379
Core_0_LLC_demand_hit 17007
Core_0_LLC_demand_miss 518372
Core_0_LLC_demand_MPKI 10.3674
Core_0_LLC_demand_miss_rate 0.968234
Core_0_LLC_load_access 30423
Core_0_LLC_load_hit 16727
Core_0_LLC_load_miss 13696
Core_0_LLC_load_MPKI 0.27392
Core_0_LLC_load_miss_rate 0.450186
Core_0_LLC_rfo_access 504956
Core_0_LLC_rfo_hit 280
Core_0_LLC_rfo_miss 504676
Core_0_LLC_rfo_MPKI 10.0935
Core_0_LLC_rfo_miss_rate 0.999445
Core_0_LLC_prefetch_access 535024
Core_0_LLC_prefetch_hit 39887
Core_0_LLC_prefetch_miss 495137
Core_0_LLC_prefetch_MPKI 9.90274
Core_0_LLC_prefetch_miss_rate 0.925448
Core_0_LLC_writeback_access 510135
Core_0_LLC_writeback_hit 80355
Core_0_LLC_writeback_miss 429780
Core_0_LLC_writeback_MPKI 8.5956
Core_0_LLC_writeback_miss_rate 0.842483
Core_0_LLC_prefetch_requested 0
Core_0_LLC_prefetch_issued 0
Core_0_LLC_prefetch_useful 0
Core_0_LLC_prefetch_useless 0
Core_0_LLC_prefetch_late 0
Core_0_LLC_prefetch_accuracy 0
Core_0_LLC_prefetch_coverage 0

[DRAM Statistics]
Channel_0_RQ_row_buffer_hit 232869
Channel_0_RQ_row_buffer_miss 782656
Channel_0_WQ_row_buffer_hit 45111
Channel_0_WQ_row_buffer_miss 481956
Channel_0_WQ_full 0
Channel_0_dbus_congested 4617445
DRAM_total_RQ_row_buffer_hit 232869
DRAM_total_RQ_row_buffer_miss 782656
DRAM_total_WQ_row_buffer_hit 45111
DRAM_total_WQ_row_buffer_miss 481956
DRAM_total_WQ_full 0
DRAM_total_dbus_congested 4617445
DRAM_avg_congested_cycle 7.07349

======STLB miss causes ========
Core_0_STLB_miss_cause_breakdown
Core_0_STLB_cause_Demand_Data_miss 15567
Core_0_STLB_cause_Demand_Data_miss_rate 0.130053
Core_0_STLB_cause_Demand_Instruction_miss 3
Core_0_STLB_cause_Demand_Instruction_miss_rate 2.50633e-05
Core_0_STLB_cause_L1D_Prefetch_miss 0
Core_0_STLB_cause_L1D_Prefetch_miss_rate 0
Core_0_STLB_cause_L1I_Prefetch_miss 0
Core_0_STLB_cause_L1I_Prefetch_miss_rate 0
Core_0_STLB_cause_Other_miss 0
Core_0_STLB_cause_Other_miss_rate 0
Core_0_STLB_Demand_miss 15570
Core_0_STLB_Demand_miss_rate 0.130078
Core_0_STLB_L1D_Prefetch_miss 0
Core_0_STLB_L1D_Prefetch_miss_rate 0
Core_0_STLB_Other_miss 0
Core_0_STLB_Other_miss_rate 0
