[VMEM] WARNING: physical memory size is smaller than virtual memory size.

*** ChampSim Multicore Out-of-Order Simulator ***
Warmup Instructions: 20000000
Simulation Instructions: 50000000
Number of CPUs: 1
Page size: 4096
STLB ideal mode: l1pref
Core 0: /data0/tzh/champsim_traces/Ligra/ligra_BC.com-lj.ungraph.gcc_6.3.0_O3.drop_26750M.length_250M.champsimtrace.xz
 L1D Berti prefetcher
Off-chip DRAM Size: 4 GiB Channels: 1 Width: 64-bit Data Rate: 3205 MT/s
Warmup halting CPU 0 at instruction 20000000 cycle 5561425 for remainder of phase
Warmup finished CPU 0 instructions: 20000000 cycles: 5561425 cumulative IPC: 3.596 (Simulation time: 00 hr 00 min 47 sec)
Warmup complete CPU 0 instructions: 20000000 cycles: 5561425 cumulative IPC: 3.596 (Simulation time: 00 hr 00 min 47 sec)
Simulation finished CPU 0 instructions: 50000001 cycles: 27666523 cumulative IPC: 1.807 (Simulation time: 00 hr 03 min 50 sec)
Simulation complete CPU 0 instructions: 50000001 cycles: 27666523 cumulative IPC: 1.807 (Simulation time: 00 hr 03 min 50 sec)

ChampSim completed all CPUs

=== Simulation ===
CPU 0 runs /data0/tzh/champsim_traces/Ligra/ligra_BC.com-lj.ungraph.gcc_6.3.0_O3.drop_26750M.length_250M.champsimtrace.xz

Region of Interest Statistics

CPU 0 cumulative IPC: 1.807 instructions: 50000001 cycles: 27666523
CPU 0 Branch Prediction Accuracy: 90.39% MPKI: 23.63 Average ROB Occupancy at Mispredict: 8.094
Branch type MPKI
BRANCH_DIRECT_JUMP: 0.00034
BRANCH_INDIRECT: 0
BRANCH_CONDITIONAL: 23.63
BRANCH_DIRECT_CALL: 0.00024
BRANCH_INDIRECT_CALL: 0
BRANCH_RETURN: 0.0002

cpu0->cpu0_STLB TOTAL        ACCESS:       3843 HIT:        823 MISS:       3020 MSHR_MERGE:          0
cpu0->cpu0_STLB LOAD         ACCESS:       3843 HIT:        823 MISS:       3020 MSHR_MERGE:          0
cpu0->cpu0_STLB RFO          ACCESS:          0 HIT:          0 MISS:          0 MSHR_MERGE:          0
cpu0->cpu0_STLB PREFETCH     ACCESS:          0 HIT:          0 MISS:          0 MSHR_MERGE:          0
cpu0->cpu0_STLB WRITE        ACCESS:          0 HIT:          0 MISS:          0 MSHR_MERGE:          0
cpu0->cpu0_STLB TRANSLATION  ACCESS:          0 HIT:          0 MISS:          0 MSHR_MERGE:          0
cpu0->cpu0_STLB PREFETCH REQUESTED:          0 ISSUED:          0 USEFUL:          0 USELESS:          0 LATE:          0
cpu0->cpu0_STLB AVERAGE MISS LATENCY: 176.3 cycles
cpu0->cpu0_L2C TOTAL        ACCESS:    1017098 HIT:     658581 MISS:     358517 MSHR_MERGE:     114515
cpu0->cpu0_L2C LOAD         ACCESS:       2303 HIT:        176 MISS:       2127 MSHR_MERGE:         11
cpu0->cpu0_L2C RFO          ACCESS:     115611 HIT:         12 MISS:     115599 MSHR_MERGE:          0
cpu0->cpu0_L2C PREFETCH     ACCESS:     783086 HIT:     542708 MISS:     240378 MSHR_MERGE:     114504
cpu0->cpu0_L2C WRITE        ACCESS:     115685 HIT:     115685 MISS:          0 MSHR_MERGE:          0
cpu0->cpu0_L2C TRANSLATION  ACCESS:        413 HIT:          0 MISS:        413 MSHR_MERGE:          0
cpu0->cpu0_L2C PREFETCH REQUESTED:     657379 ISSUED:     657358 USEFUL:     117622 USELESS:       5920 LATE:         11
cpu0->cpu0_L2C AVERAGE MISS LATENCY: 205.8 cycles
cpu0->cpu0_L1I TOTAL        ACCESS:    1340570 HIT:    1340482 MISS:         88 MSHR_MERGE:          9
cpu0->cpu0_L1I LOAD         ACCESS:    1340570 HIT:    1340482 MISS:         88 MSHR_MERGE:          9
cpu0->cpu0_L1I RFO          ACCESS:          0 HIT:          0 MISS:          0 MSHR_MERGE:          0
cpu0->cpu0_L1I PREFETCH     ACCESS:          0 HIT:          0 MISS:          0 MSHR_MERGE:          0
cpu0->cpu0_L1I WRITE        ACCESS:          0 HIT:          0 MISS:          0 MSHR_MERGE:          0
cpu0->cpu0_L1I TRANSLATION  ACCESS:          0 HIT:          0 MISS:          0 MSHR_MERGE:          0
cpu0->cpu0_L1I PREFETCH REQUESTED:          0 ISSUED:          0 USEFUL:          0 USELESS:          0 LATE:          0
cpu0->cpu0_L1I AVERAGE MISS LATENCY: 208.3 cycles
cpu0->cpu0_L1D TOTAL        ACCESS:   10179961 HIT:    8319076 MISS:    1860885 MSHR_MERGE:    1616909
cpu0->cpu0_L1D LOAD         ACCESS:    8156065 HIT:    8062150 MISS:      93915 MSHR_MERGE:      91691
cpu0->cpu0_L1D RFO          ACCESS:          0 HIT:          0 MISS:          0 MSHR_MERGE:          0
cpu0->cpu0_L1D PREFETCH     ACCESS:     125909 HIT:        170 MISS:     125739 MSHR_MERGE:         11
cpu0->cpu0_L1D WRITE        ACCESS:    1891937 HIT:     251119 MISS:    1640818 MSHR_MERGE:    1525207
cpu0->cpu0_L1D TRANSLATION  ACCESS:       6050 HIT:       5637 MISS:        413 MSHR_MERGE:          0
cpu0->cpu0_L1D PREFETCH REQUESTED:     125921 ISSUED:     125909 USEFUL:     125632 USELESS:         95 LATE:       1734
cpu0->cpu0_L1D AVERAGE MISS LATENCY: 212.2 cycles
cpu0->cpu0_ITLB TOTAL        ACCESS:    1340561 HIT:    1340555 MISS:          6 MSHR_MERGE:          1
cpu0->cpu0_ITLB LOAD         ACCESS:    1340561 HIT:    1340555 MISS:          6 MSHR_MERGE:          1
cpu0->cpu0_ITLB RFO          ACCESS:          0 HIT:          0 MISS:          0 MSHR_MERGE:          0
cpu0->cpu0_ITLB PREFETCH     ACCESS:          0 HIT:          0 MISS:          0 MSHR_MERGE:          0
cpu0->cpu0_ITLB WRITE        ACCESS:          0 HIT:          0 MISS:          0 MSHR_MERGE:          0
cpu0->cpu0_ITLB TRANSLATION  ACCESS:          0 HIT:          0 MISS:          0 MSHR_MERGE:          0
cpu0->cpu0_ITLB PREFETCH REQUESTED:          0 ISSUED:          0 USEFUL:          0 USELESS:          0 LATE:          0
cpu0->cpu0_ITLB AVERAGE MISS LATENCY: 357 cycles
cpu0->cpu0_DTLB TOTAL        ACCESS:   10103447 HIT:   10061647 MISS:      41800 MSHR_MERGE:      37962
cpu0->cpu0_DTLB LOAD         ACCESS:   10103447 HIT:   10061647 MISS:      41800 MSHR_MERGE:      37962
cpu0->cpu0_DTLB RFO          ACCESS:          0 HIT:          0 MISS:          0 MSHR_MERGE:          0
cpu0->cpu0_DTLB PREFETCH     ACCESS:          0 HIT:          0 MISS:          0 MSHR_MERGE:          0
cpu0->cpu0_DTLB WRITE        ACCESS:          0 HIT:          0 MISS:          0 MSHR_MERGE:          0
cpu0->cpu0_DTLB TRANSLATION  ACCESS:          0 HIT:          0 MISS:          0 MSHR_MERGE:          0
cpu0->cpu0_DTLB PREFETCH REQUESTED:          0 ISSUED:          0 USEFUL:          0 USELESS:          0 LATE:          0
cpu0->cpu0_DTLB AVERAGE MISS LATENCY: 144.1 cycles
cpu0->LLC TOTAL        ACCESS:     358340 HIT:      44242 MISS:     314098 MSHR_MERGE:          0
cpu0->LLC LOAD         ACCESS:       2116 HIT:         28 MISS:       2088 MSHR_MERGE:          0
cpu0->LLC RFO          ACCESS:     115599 HIT:          4 MISS:     115595 MSHR_MERGE:          0
cpu0->LLC PREFETCH     ACCESS:     125874 HIT:      11530 MISS:     114344 MSHR_MERGE:          0
cpu0->LLC WRITE        ACCESS:     114338 HIT:      32676 MISS:      81662 MSHR_MERGE:          0
cpu0->LLC TRANSLATION  ACCESS:        413 HIT:          4 MISS:        409 MSHR_MERGE:          0
cpu0->LLC PREFETCH REQUESTED:          0 ISSUED:          0 USEFUL:          0 USELESS:          0 LATE:          0
cpu0->LLC AVERAGE MISS LATENCY: 115.9 cycles

DRAM Statistics

Channel 0 RQ ROW_BUFFER_HIT:      25194
  ROW_BUFFER_MISS:     207240
  AVG DBUS CONGESTED CYCLE: 10.67
Channel 0 WQ ROW_BUFFER_HIT:      31011
  ROW_BUFFER_MISS:      69656
  FULL:          0
Channel 0 REFRESHES ISSUED:       2305

[ROI Statistics]
[System Configuration]
num_cpus 1
cpu_freq 4000
fetch_width 6
decode_width 6
dispatch_width 6
execute_width 6
lq_width 2
sq_width 2
retire_width 6
scheduler_size 160
branch_mispredict_penalty 1
rob_size 352
lq_size 240
sq_size 112
ifetch_buffer_size 64
decode_buffer_size 32
dispatch_buffer_size 32
register_file_size 288
decode_latency 1
dispatch_latency 1
schedule_latency 0
execute_latency 0
page_size 4096
block_size 64
core_0_itlb_set 16
core_0_itlb_way 4
core_0_itlb_rq_size 16
core_0_itlb_wq_size 16
core_0_itlb_pq_size 0
core_0_itlb_mshr_size 8
core_0_itlb_hit_latency 1
core_0_itlb_fill_latency 1
core_0_itlb_max_tag_check 2
core_0_itlb_max_fill 2
core_0_dtlb_set 16
core_0_dtlb_way 4
core_0_dtlb_rq_size 16
core_0_dtlb_wq_size 16
core_0_dtlb_pq_size 0
core_0_dtlb_mshr_size 8
core_0_dtlb_hit_latency 1
core_0_dtlb_fill_latency 1
core_0_dtlb_max_tag_check 2
core_0_dtlb_max_fill 2
core_0_stlb_set 128
core_0_stlb_way 12
core_0_stlb_rq_size 32
core_0_stlb_wq_size 32
core_0_stlb_pq_size 0
core_0_stlb_mshr_size 16
core_0_stlb_hit_latency 4
core_0_stlb_fill_latency 4
core_0_stlb_max_tag_check 1
core_0_stlb_max_fill 1
core_0_l1i_set 64
core_0_l1i_way 8
core_0_l1i_rq_size 64
core_0_l1i_wq_size 64
core_0_l1i_pq_size 32
core_0_l1i_mshr_size 8
core_0_l1i_hit_latency 2
core_0_l1i_fill_latency 2
core_0_l1i_max_tag_check 2
core_0_l1i_max_fill 2
core_0_l1d_set 64
core_0_l1d_way 12
core_0_l1d_rq_size 64
core_0_l1d_wq_size 64
core_0_l1d_pq_size 8
core_0_l1d_mshr_size 16
core_0_l1d_hit_latency 2
core_0_l1d_fill_latency 3
core_0_l1d_max_tag_check 2
core_0_l1d_max_fill 2
core_0_l2c_set 1024
core_0_l2c_way 8
core_0_l2c_rq_size 32
core_0_l2c_wq_size 32
core_0_l2c_pq_size 16
core_0_l2c_mshr_size 32
core_0_l2c_hit_latency 5
core_0_l2c_fill_latency 5
core_0_l2c_max_tag_check 1
core_0_l2c_max_fill 1
llc_set 2048
llc_way 16
llc_rq_size 32
llc_wq_size 32
llc_pq_size 32
llc_mshr_size 64
llc_hit_latency 10
llc_fill_latency 10
llc_max_tag_check 1
llc_max_fill 1
dram_channels 1
dram_ranks 1
dram_bankgroups 8
dram_banks 4
dram_rows 16384
dram_columns 1024
dram_channel_width 8
dram_rq_size 64
dram_wq_size 64
dram_size 4294967296
core_0_itlb_prefetcher no
core_0_dtlb_prefetcher no
core_0_stlb_prefetcher no
core_0_l1i_prefetcher next_line
core_0_l1d_prefetcher berti
core_0_l2c_prefetcher pythia
llc_prefetcher no
llc_replacement drrip

Core_0_instructions 50000001
Core_0_cycles 27666523
Core_0_IPC 1.80724
Core_0_branch_prediction_accuracy 90.395
Core_0_branch_MPKI 23.6294
Core_0_average_ROB_occupancy_at_mispredict 8.09363

Core_0_ITLB_total_access 1340561
Core_0_ITLB_total_hit 1340555
Core_0_ITLB_total_miss 6
Core_0_ITLB_total_MPKI 0.00012
Core_0_ITLB_total_miss_rate 4.47574e-06
Core_0_ITLB_demand_access 1340561
Core_0_ITLB_demand_hit 1340555
Core_0_ITLB_demand_miss 6
Core_0_ITLB_demand_MPKI 0.00012
Core_0_ITLB_demand_miss_rate 4.47574e-06
Core_0_ITLB_load_access 1340561
Core_0_ITLB_load_hit 1340555
Core_0_ITLB_load_miss 6
Core_0_ITLB_load_MPKI 0.00012
Core_0_ITLB_load_miss_rate 4.47574e-06
Core_0_ITLB_rfo_access 0
Core_0_ITLB_rfo_hit 0
Core_0_ITLB_rfo_miss 0
Core_0_ITLB_rfo_MPKI 0
Core_0_ITLB_rfo_miss_rate 0
Core_0_ITLB_prefetch_access 0
Core_0_ITLB_prefetch_hit 0
Core_0_ITLB_prefetch_miss 0
Core_0_ITLB_prefetch_MPKI 0
Core_0_ITLB_prefetch_miss_rate 0
Core_0_ITLB_writeback_access 0
Core_0_ITLB_writeback_hit 0
Core_0_ITLB_writeback_miss 0
Core_0_ITLB_writeback_MPKI 0
Core_0_ITLB_writeback_miss_rate 0
Core_0_ITLB_prefetch_requested 0
Core_0_ITLB_prefetch_issued 0
Core_0_ITLB_prefetch_useful 0
Core_0_ITLB_prefetch_useless 0
Core_0_ITLB_prefetch_late 0
Core_0_ITLB_prefetch_accuracy 0
Core_0_ITLB_prefetch_coverage 0

Core_0_DTLB_total_access 10103447
Core_0_DTLB_total_hit 10061647
Core_0_DTLB_total_miss 41800
Core_0_DTLB_total_MPKI 0.836
Core_0_DTLB_total_miss_rate 0.0041372
Core_0_DTLB_demand_access 10103447
Core_0_DTLB_demand_hit 10061647
Core_0_DTLB_demand_miss 41800
Core_0_DTLB_demand_MPKI 0.836
Core_0_DTLB_demand_miss_rate 0.0041372
Core_0_DTLB_load_access 10103447
Core_0_DTLB_load_hit 10061647
Core_0_DTLB_load_miss 41800
Core_0_DTLB_load_MPKI 0.836
Core_0_DTLB_load_miss_rate 0.0041372
Core_0_DTLB_rfo_access 0
Core_0_DTLB_rfo_hit 0
Core_0_DTLB_rfo_miss 0
Core_0_DTLB_rfo_MPKI 0
Core_0_DTLB_rfo_miss_rate 0
Core_0_DTLB_prefetch_access 0
Core_0_DTLB_prefetch_hit 0
Core_0_DTLB_prefetch_miss 0
Core_0_DTLB_prefetch_MPKI 0
Core_0_DTLB_prefetch_miss_rate 0
Core_0_DTLB_writeback_access 0
Core_0_DTLB_writeback_hit 0
Core_0_DTLB_writeback_miss 0
Core_0_DTLB_writeback_MPKI 0
Core_0_DTLB_writeback_miss_rate 0
Core_0_DTLB_prefetch_requested 0
Core_0_DTLB_prefetch_issued 0
Core_0_DTLB_prefetch_useful 0
Core_0_DTLB_prefetch_useless 0
Core_0_DTLB_prefetch_late 0
Core_0_DTLB_prefetch_accuracy 0
Core_0_DTLB_prefetch_coverage 0

Core_0_STLB_total_access 3843
Core_0_STLB_total_hit 823
Core_0_STLB_total_miss 3020
Core_0_STLB_total_MPKI 0.0604
Core_0_STLB_total_miss_rate 0.785844
Core_0_STLB_demand_access 3843
Core_0_STLB_demand_hit 823
Core_0_STLB_demand_miss 3020
Core_0_STLB_demand_MPKI 0.0604
Core_0_STLB_demand_miss_rate 0.785844
Core_0_STLB_load_access 3843
Core_0_STLB_load_hit 823
Core_0_STLB_load_miss 3020
Core_0_STLB_load_MPKI 0.0604
Core_0_STLB_load_miss_rate 0.785844
Core_0_STLB_rfo_access 0
Core_0_STLB_rfo_hit 0
Core_0_STLB_rfo_miss 0
Core_0_STLB_rfo_MPKI 0
Core_0_STLB_rfo_miss_rate 0
Core_0_STLB_prefetch_access 0
Core_0_STLB_prefetch_hit 0
Core_0_STLB_prefetch_miss 0
Core_0_STLB_prefetch_MPKI 0
Core_0_STLB_prefetch_miss_rate 0
Core_0_STLB_writeback_access 0
Core_0_STLB_writeback_hit 0
Core_0_STLB_writeback_miss 0
Core_0_STLB_writeback_MPKI 0
Core_0_STLB_writeback_miss_rate 0
Core_0_STLB_prefetch_requested 0
Core_0_STLB_prefetch_issued 0
Core_0_STLB_prefetch_useful 0
Core_0_STLB_prefetch_useless 0
Core_0_STLB_prefetch_late 0
Core_0_STLB_prefetch_accuracy 0
Core_0_STLB_prefetch_coverage 0

Core_0_L1I_total_access 1340570
Core_0_L1I_total_hit 1340482
Core_0_L1I_total_miss 88
Core_0_L1I_total_MPKI 0.00176
Core_0_L1I_total_miss_rate 6.56437e-05
Core_0_L1I_demand_access 1340570
Core_0_L1I_demand_hit 1340482
Core_0_L1I_demand_miss 88
Core_0_L1I_demand_MPKI 0.00176
Core_0_L1I_demand_miss_rate 6.56437e-05
Core_0_L1I_load_access 1340570
Core_0_L1I_load_hit 1340482
Core_0_L1I_load_miss 88
Core_0_L1I_load_MPKI 0.00176
Core_0_L1I_load_miss_rate 6.56437e-05
Core_0_L1I_rfo_access 0
Core_0_L1I_rfo_hit 0
Core_0_L1I_rfo_miss 0
Core_0_L1I_rfo_MPKI 0
Core_0_L1I_rfo_miss_rate 0
Core_0_L1I_prefetch_access 0
Core_0_L1I_prefetch_hit 0
Core_0_L1I_prefetch_miss 0
Core_0_L1I_prefetch_MPKI 0
Core_0_L1I_prefetch_miss_rate 0
Core_0_L1I_writeback_access 0
Core_0_L1I_writeback_hit 0
Core_0_L1I_writeback_miss 0
Core_0_L1I_writeback_MPKI 0
Core_0_L1I_writeback_miss_rate 0
Core_0_L1I_prefetch_requested 0
Core_0_L1I_prefetch_issued 0
Core_0_L1I_prefetch_useful 0
Core_0_L1I_prefetch_useless 0
Core_0_L1I_prefetch_late 0
Core_0_L1I_prefetch_accuracy 0
Core_0_L1I_prefetch_coverage 0

Core_0_L1D_total_access 10173911
Core_0_L1D_total_hit 8313439
Core_0_L1D_total_miss 1860472
Core_0_L1D_total_MPKI 37.2094
Core_0_L1D_total_miss_rate 0.182867
Core_0_L1D_demand_access 8156065
Core_0_L1D_demand_hit 8062150
Core_0_L1D_demand_miss 93915
Core_0_L1D_demand_MPKI 1.8783
Core_0_L1D_demand_miss_rate 0.0115147
Core_0_L1D_load_access 8156065
Core_0_L1D_load_hit 8062150
Core_0_L1D_load_miss 93915
Core_0_L1D_load_MPKI 1.8783
Core_0_L1D_load_miss_rate 0.0115147
Core_0_L1D_rfo_access 0
Core_0_L1D_rfo_hit 0
Core_0_L1D_rfo_miss 0
Core_0_L1D_rfo_MPKI 0
Core_0_L1D_rfo_miss_rate 0
Core_0_L1D_prefetch_access 125909
Core_0_L1D_prefetch_hit 170
Core_0_L1D_prefetch_miss 125739
Core_0_L1D_prefetch_MPKI 2.51478
Core_0_L1D_prefetch_miss_rate 0.99865
Core_0_L1D_writeback_access 1891937
Core_0_L1D_writeback_hit 251119
Core_0_L1D_writeback_miss 1640818
Core_0_L1D_writeback_MPKI 32.8164
Core_0_L1D_writeback_miss_rate 0.867269
Core_0_L1D_prefetch_requested 125921
Core_0_L1D_prefetch_issued 125909
Core_0_L1D_prefetch_useful 125632
Core_0_L1D_prefetch_useless 95
Core_0_L1D_prefetch_late 1734
Core_0_L1D_prefetch_accuracy 0.9978
Core_0_L1D_prefetch_coverage 0.572233

Core_0_L2C_total_access 1016685
Core_0_L2C_total_hit 658581
Core_0_L2C_total_miss 358104
Core_0_L2C_total_MPKI 7.16208
Core_0_L2C_total_miss_rate 0.352227
Core_0_L2C_demand_access 117914
Core_0_L2C_demand_hit 188
Core_0_L2C_demand_miss 117726
Core_0_L2C_demand_MPKI 2.35452
Core_0_L2C_demand_miss_rate 0.998406
Core_0_L2C_load_access 2303
Core_0_L2C_load_hit 176
Core_0_L2C_load_miss 2127
Core_0_L2C_load_MPKI 0.04254
Core_0_L2C_load_miss_rate 0.923578
Core_0_L2C_rfo_access 115611
Core_0_L2C_rfo_hit 12
Core_0_L2C_rfo_miss 115599
Core_0_L2C_rfo_MPKI 2.31198
Core_0_L2C_rfo_miss_rate 0.999896
Core_0_L2C_prefetch_access 783086
Core_0_L2C_prefetch_hit 542708
Core_0_L2C_prefetch_miss 240378
Core_0_L2C_prefetch_MPKI 4.80756
Core_0_L2C_prefetch_miss_rate 0.306962
Core_0_L2C_writeback_access 115685
Core_0_L2C_writeback_hit 115685
Core_0_L2C_writeback_miss 0
Core_0_L2C_writeback_MPKI 0
Core_0_L2C_writeback_miss_rate 0
Core_0_L2C_prefetch_requested 657379
Core_0_L2C_prefetch_issued 657358
Core_0_L2C_prefetch_useful 117622
Core_0_L2C_prefetch_useless 5920
Core_0_L2C_prefetch_late 11
Core_0_L2C_prefetch_accuracy 0.178931
Core_0_L2C_prefetch_coverage 0.499779

Core_0_LLC_total_access 357927
Core_0_LLC_total_hit 44238
Core_0_LLC_total_miss 313689
Core_0_LLC_total_MPKI 6.27378
Core_0_LLC_total_miss_rate 0.876405
Core_0_LLC_demand_access 117715
Core_0_LLC_demand_hit 32
Core_0_LLC_demand_miss 117683
Core_0_LLC_demand_MPKI 2.35366
Core_0_LLC_demand_miss_rate 0.999728
Core_0_LLC_load_access 2116
Core_0_LLC_load_hit 28
Core_0_LLC_load_miss 2088
Core_0_LLC_load_MPKI 0.04176
Core_0_LLC_load_miss_rate 0.986767
Core_0_LLC_rfo_access 115599
Core_0_LLC_rfo_hit 4
Core_0_LLC_rfo_miss 115595
Core_0_LLC_rfo_MPKI 2.3119
Core_0_LLC_rfo_miss_rate 0.999965
Core_0_LLC_prefetch_access 125874
Core_0_LLC_prefetch_hit 11530
Core_0_LLC_prefetch_miss 114344
Core_0_LLC_prefetch_MPKI 2.28688
Core_0_LLC_prefetch_miss_rate 0.9084
Core_0_LLC_writeback_access 114338
Core_0_LLC_writeback_hit 32676
Core_0_LLC_writeback_miss 81662
Core_0_LLC_writeback_MPKI 1.63324
Core_0_LLC_writeback_miss_rate 0.714216
Core_0_LLC_prefetch_requested 0
Core_0_LLC_prefetch_issued 0
Core_0_LLC_prefetch_useful 0
Core_0_LLC_prefetch_useless 0
Core_0_LLC_prefetch_late 0
Core_0_LLC_prefetch_accuracy 0
Core_0_LLC_prefetch_coverage 0

[DRAM Statistics]
Channel_0_RQ_row_buffer_hit 25194
Channel_0_RQ_row_buffer_miss 207240
Channel_0_WQ_row_buffer_hit 31011
Channel_0_WQ_row_buffer_miss 69656
Channel_0_WQ_full 0
Channel_0_dbus_congested 822178
DRAM_total_RQ_row_buffer_hit 25194
DRAM_total_RQ_row_buffer_miss 207240
DRAM_total_WQ_row_buffer_hit 31011
DRAM_total_WQ_row_buffer_miss 69656
DRAM_total_WQ_full 0
DRAM_total_dbus_congested 822178
DRAM_avg_congested_cycle 10.6668

======STLB miss causes ========
Core_0_STLB_miss_cause_breakdown
Core_0_STLB_cause_Demand_Data_miss 3015
Core_0_STLB_cause_Demand_Data_miss_rate 0.784543
Core_0_STLB_cause_Demand_Instruction_miss 5
Core_0_STLB_cause_Demand_Instruction_miss_rate 0.00130107
Core_0_STLB_cause_L1D_Prefetch_miss 0
Core_0_STLB_cause_L1D_Prefetch_miss_rate 0
Core_0_STLB_cause_L1I_Prefetch_miss 0
Core_0_STLB_cause_L1I_Prefetch_miss_rate 0
Core_0_STLB_cause_Other_miss 0
Core_0_STLB_cause_Other_miss_rate 0
Core_0_STLB_Demand_miss 3020
Core_0_STLB_Demand_miss_rate 0.785844
Core_0_STLB_L1D_Prefetch_miss 0
Core_0_STLB_L1D_Prefetch_miss_rate 0
Core_0_STLB_Other_miss 0
Core_0_STLB_Other_miss_rate 0
