[VMEM] WARNING: physical memory size is smaller than virtual memory size.

*** ChampSim Multicore Out-of-Order Simulator ***
Warmup Instructions: 20000000
Simulation Instructions: 50000000
Number of CPUs: 1
Page size: 4096
STLB ideal mode: l1pref
Core 0: /data0/tzh/champsim_traces/Ligra/ligra_PageRankDelta.com-lj.ungraph.gcc_6.3.0_O3.drop_24500M.length_250M.champsimtrace.xz
 L1D Berti prefetcher
Off-chip DRAM Size: 4 GiB Channels: 1 Width: 64-bit Data Rate: 3205 MT/s
Warmup halting CPU 0 at instruction 20000001 cycle 4628708 for remainder of phase
Warmup finished CPU 0 instructions: 20000001 cycles: 4628708 cumulative IPC: 4.321 (Simulation time: 00 hr 01 min 10 sec)
Warmup complete CPU 0 instructions: 20000001 cycles: 4628708 cumulative IPC: 4.321 (Simulation time: 00 hr 01 min 10 sec)
Simulation finished CPU 0 instructions: 50000005 cycles: 72207548 cumulative IPC: 0.6924 (Simulation time: 00 hr 10 min 09 sec)
Simulation complete CPU 0 instructions: 50000005 cycles: 72207548 cumulative IPC: 0.6924 (Simulation time: 00 hr 10 min 09 sec)

ChampSim completed all CPUs

=== Simulation ===
CPU 0 runs /data0/tzh/champsim_traces/Ligra/ligra_PageRankDelta.com-lj.ungraph.gcc_6.3.0_O3.drop_24500M.length_250M.champsimtrace.xz

Region of Interest Statistics

CPU 0 cumulative IPC: 0.6924 instructions: 50000005 cycles: 72207548
CPU 0 Branch Prediction Accuracy: 97.33% MPKI: 2.202 Average ROB Occupancy at Mispredict: 193.7
Branch type MPKI
BRANCH_DIRECT_JUMP: 2e-05
BRANCH_INDIRECT: 0
BRANCH_CONDITIONAL: 2.202
BRANCH_DIRECT_CALL: 0
BRANCH_INDIRECT_CALL: 0
BRANCH_RETURN: 0

cpu0->cpu0_STLB TOTAL        ACCESS:     832827 HIT:     470628 MISS:     362199 MSHR_MERGE:          0
cpu0->cpu0_STLB LOAD         ACCESS:     832827 HIT:     470628 MISS:     362199 MSHR_MERGE:          0
cpu0->cpu0_STLB RFO          ACCESS:          0 HIT:          0 MISS:          0 MSHR_MERGE:          0
cpu0->cpu0_STLB PREFETCH     ACCESS:          0 HIT:          0 MISS:          0 MSHR_MERGE:          0
cpu0->cpu0_STLB WRITE        ACCESS:          0 HIT:          0 MISS:          0 MSHR_MERGE:          0
cpu0->cpu0_STLB TRANSLATION  ACCESS:          0 HIT:          0 MISS:          0 MSHR_MERGE:          0
cpu0->cpu0_STLB PREFETCH REQUESTED:          0 ISSUED:          0 USEFUL:          0 USELESS:          0 LATE:          0
cpu0->cpu0_STLB AVERAGE MISS LATENCY: 24.15 cycles
cpu0->cpu0_L2C TOTAL        ACCESS:    4663612 HIT:    2452481 MISS:    2211131 MSHR_MERGE:     173926
cpu0->cpu0_L2C LOAD         ACCESS:     992992 HIT:     173111 MISS:     819881 MSHR_MERGE:      23220
cpu0->cpu0_L2C RFO          ACCESS:       2127 HIT:       2127 MISS:          0 MSHR_MERGE:          0
cpu0->cpu0_L2C PREFETCH     ACCESS:    2414564 HIT:    1111175 MISS:    1303389 MSHR_MERGE:     150706
cpu0->cpu0_L2C WRITE        ACCESS:     980510 HIT:     980376 MISS:        134 MSHR_MERGE:          0
cpu0->cpu0_L2C TRANSLATION  ACCESS:     273419 HIT:     185692 MISS:      87727 MSHR_MERGE:          0
cpu0->cpu0_L2C PREFETCH REQUESTED:    2169703 ISSUED:    2150481 USEFUL:     271256 USELESS:     807706 LATE:      23220
cpu0->cpu0_L2C AVERAGE MISS LATENCY: 240.1 cycles
cpu0->cpu0_L1I TOTAL        ACCESS:    2903985 HIT:    2903981 MISS:          4 MSHR_MERGE:          1
cpu0->cpu0_L1I LOAD         ACCESS:    2903985 HIT:    2903981 MISS:          4 MSHR_MERGE:          1
cpu0->cpu0_L1I RFO          ACCESS:          0 HIT:          0 MISS:          0 MSHR_MERGE:          0
cpu0->cpu0_L1I PREFETCH     ACCESS:          0 HIT:          0 MISS:          0 MSHR_MERGE:          0
cpu0->cpu0_L1I WRITE        ACCESS:          0 HIT:          0 MISS:          0 MSHR_MERGE:          0
cpu0->cpu0_L1I TRANSLATION  ACCESS:          0 HIT:          0 MISS:          0 MSHR_MERGE:          0
cpu0->cpu0_L1I PREFETCH REQUESTED:          0 ISSUED:          0 USEFUL:          0 USELESS:          0 LATE:          0
cpu0->cpu0_L1I AVERAGE MISS LATENCY: 233.7 cycles
cpu0->cpu0_L1D TOTAL        ACCESS:   16294136 HIT:   14607223 MISS:    1686913 MSHR_MERGE:     154164
cpu0->cpu0_L1D LOAD         ACCESS:    9683894 HIT:    8545340 MISS:    1138554 MSHR_MERGE:     145560
cpu0->cpu0_L1D RFO          ACCESS:          0 HIT:          0 MISS:          0 MSHR_MERGE:          0
cpu0->cpu0_L1D PREFETCH     ACCESS:     348335 HIT:      81306 MISS:     267029 MSHR_MERGE:       2943
cpu0->cpu0_L1D WRITE        ACCESS:    5541743 HIT:    5536759 MISS:       4984 MSHR_MERGE:       2734
cpu0->cpu0_L1D TRANSLATION  ACCESS:     720164 HIT:     443818 MISS:     276346 MSHR_MERGE:       2927
cpu0->cpu0_L1D PREFETCH REQUESTED:     350321 ISSUED:     348327 USEFUL:     159226 USELESS:     104860 LATE:       2844
cpu0->cpu0_L1D AVERAGE MISS LATENCY: 180.6 cycles
cpu0->cpu0_ITLB TOTAL        ACCESS:    2280833 HIT:    2280833 MISS:          0 MSHR_MERGE:          0
cpu0->cpu0_ITLB LOAD         ACCESS:    2280833 HIT:    2280833 MISS:          0 MSHR_MERGE:          0
cpu0->cpu0_ITLB RFO          ACCESS:          0 HIT:          0 MISS:          0 MSHR_MERGE:          0
cpu0->cpu0_ITLB PREFETCH     ACCESS:          0 HIT:          0 MISS:          0 MSHR_MERGE:          0
cpu0->cpu0_ITLB WRITE        ACCESS:          0 HIT:          0 MISS:          0 MSHR_MERGE:          0
cpu0->cpu0_ITLB TRANSLATION  ACCESS:          0 HIT:          0 MISS:          0 MSHR_MERGE:          0
cpu0->cpu0_ITLB PREFETCH REQUESTED:          0 ISSUED:          0 USEFUL:          0 USELESS:          0 LATE:          0
cpu0->cpu0_ITLB AVERAGE MISS LATENCY: - cycles
cpu0->cpu0_DTLB TOTAL        ACCESS:   14928378 HIT:   14000380 MISS:     927998 MSHR_MERGE:      95171
cpu0->cpu0_DTLB LOAD         ACCESS:   14928378 HIT:   14000380 MISS:     927998 MSHR_MERGE:      95171
cpu0->cpu0_DTLB RFO          ACCESS:          0 HIT:          0 MISS:          0 MSHR_MERGE:          0
cpu0->cpu0_DTLB PREFETCH     ACCESS:          0 HIT:          0 MISS:          0 MSHR_MERGE:          0
cpu0->cpu0_DTLB WRITE        ACCESS:          0 HIT:          0 MISS:          0 MSHR_MERGE:          0
cpu0->cpu0_DTLB TRANSLATION  ACCESS:          0 HIT:          0 MISS:          0 MSHR_MERGE:          0
cpu0->cpu0_DTLB PREFETCH REQUESTED:          0 ISSUED:          0 USEFUL:          0 USELESS:          0 LATE:          0
cpu0->cpu0_DTLB AVERAGE MISS LATENCY: 15.94 cycles
cpu0->LLC TOTAL        ACCESS:    2929499 HIT:     782001 MISS:    2147498 MSHR_MERGE:          0
cpu0->LLC LOAD         ACCESS:     796661 HIT:     179161 MISS:     617500 MSHR_MERGE:          0
cpu0->LLC RFO          ACCESS:          0 HIT:          0 MISS:          0 MSHR_MERGE:          0
cpu0->LLC PREFETCH     ACCESS:    1152683 HIT:     195162 MISS:     957521 MSHR_MERGE:          0
cpu0->LLC WRITE        ACCESS:     892428 HIT:     322232 MISS:     570196 MSHR_MERGE:          0
cpu0->LLC TRANSLATION  ACCESS:      87727 HIT:      85446 MISS:       2281 MSHR_MERGE:          0
cpu0->LLC PREFETCH REQUESTED:          0 ISSUED:          0 USEFUL:          0 USELESS:          0 LATE:          0
cpu0->LLC AVERAGE MISS LATENCY: 171.4 cycles

DRAM Statistics

Channel 0 RQ ROW_BUFFER_HIT:      28869
  ROW_BUFFER_MISS:    1547931
  AVG DBUS CONGESTED CYCLE: 5.836
Channel 0 WQ ROW_BUFFER_HIT:     129192
  ROW_BUFFER_MISS:     563739
  FULL:          0
Channel 0 REFRESHES ISSUED:       6018

[ROI Statistics]
[System Configuration]
num_cpus 1
cpu_freq 4000
fetch_width 6
decode_width 6
dispatch_width 6
execute_width 6
lq_width 2
sq_width 2
retire_width 6
scheduler_size 160
branch_mispredict_penalty 1
rob_size 352
lq_size 240
sq_size 112
ifetch_buffer_size 64
decode_buffer_size 32
dispatch_buffer_size 32
register_file_size 288
decode_latency 1
dispatch_latency 1
schedule_latency 0
execute_latency 0
page_size 4096
block_size 64
core_0_itlb_set 16
core_0_itlb_way 4
core_0_itlb_rq_size 16
core_0_itlb_wq_size 16
core_0_itlb_pq_size 0
core_0_itlb_mshr_size 8
core_0_itlb_hit_latency 1
core_0_itlb_fill_latency 1
core_0_itlb_max_tag_check 2
core_0_itlb_max_fill 2
core_0_dtlb_set 16
core_0_dtlb_way 4
core_0_dtlb_rq_size 16
core_0_dtlb_wq_size 16
core_0_dtlb_pq_size 0
core_0_dtlb_mshr_size 8
core_0_dtlb_hit_latency 1
core_0_dtlb_fill_latency 1
core_0_dtlb_max_tag_check 2
core_0_dtlb_max_fill 2
core_0_stlb_set 128
core_0_stlb_way 12
core_0_stlb_rq_size 32
core_0_stlb_wq_size 32
core_0_stlb_pq_size 0
core_0_stlb_mshr_size 16
core_0_stlb_hit_latency 4
core_0_stlb_fill_latency 4
core_0_stlb_max_tag_check 1
core_0_stlb_max_fill 1
core_0_l1i_set 64
core_0_l1i_way 8
core_0_l1i_rq_size 64
core_0_l1i_wq_size 64
core_0_l1i_pq_size 32
core_0_l1i_mshr_size 8
core_0_l1i_hit_latency 2
core_0_l1i_fill_latency 2
core_0_l1i_max_tag_check 2
core_0_l1i_max_fill 2
core_0_l1d_set 64
core_0_l1d_way 12
core_0_l1d_rq_size 64
core_0_l1d_wq_size 64
core_0_l1d_pq_size 8
core_0_l1d_mshr_size 16
core_0_l1d_hit_latency 2
core_0_l1d_fill_latency 3
core_0_l1d_max_tag_check 2
core_0_l1d_max_fill 2
core_0_l2c_set 1024
core_0_l2c_way 8
core_0_l2c_rq_size 32
core_0_l2c_wq_size 32
core_0_l2c_pq_size 16
core_0_l2c_mshr_size 32
core_0_l2c_hit_latency 5
core_0_l2c_fill_latency 5
core_0_l2c_max_tag_check 1
core_0_l2c_max_fill 1
llc_set 2048
llc_way 16
llc_rq_size 32
llc_wq_size 32
llc_pq_size 32
llc_mshr_size 64
llc_hit_latency 10
llc_fill_latency 10
llc_max_tag_check 1
llc_max_fill 1
dram_channels 1
dram_ranks 1
dram_bankgroups 8
dram_banks 4
dram_rows 16384
dram_columns 1024
dram_channel_width 8
dram_rq_size 64
dram_wq_size 64
dram_size 4294967296
core_0_itlb_prefetcher no
core_0_dtlb_prefetcher no
core_0_stlb_prefetcher no
core_0_l1i_prefetcher next_line
core_0_l1d_prefetcher berti
core_0_l2c_prefetcher pythia
llc_prefetcher no
llc_replacement drrip

Core_0_instructions 50000005
Core_0_cycles 72207548
Core_0_IPC 0.692448
Core_0_branch_prediction_accuracy 97.3297
Core_0_branch_MPKI 2.2023
Core_0_average_ROB_occupancy_at_mispredict 193.719

Core_0_ITLB_total_access 2280833
Core_0_ITLB_total_hit 2280833
Core_0_ITLB_total_miss 0
Core_0_ITLB_total_MPKI 0
Core_0_ITLB_total_miss_rate 0
Core_0_ITLB_demand_access 2280833
Core_0_ITLB_demand_hit 2280833
Core_0_ITLB_demand_miss 0
Core_0_ITLB_demand_MPKI 0
Core_0_ITLB_demand_miss_rate 0
Core_0_ITLB_load_access 2280833
Core_0_ITLB_load_hit 2280833
Core_0_ITLB_load_miss 0
Core_0_ITLB_load_MPKI 0
Core_0_ITLB_load_miss_rate 0
Core_0_ITLB_rfo_access 0
Core_0_ITLB_rfo_hit 0
Core_0_ITLB_rfo_miss 0
Core_0_ITLB_rfo_MPKI 0
Core_0_ITLB_rfo_miss_rate 0
Core_0_ITLB_prefetch_access 0
Core_0_ITLB_prefetch_hit 0
Core_0_ITLB_prefetch_miss 0
Core_0_ITLB_prefetch_MPKI 0
Core_0_ITLB_prefetch_miss_rate 0
Core_0_ITLB_writeback_access 0
Core_0_ITLB_writeback_hit 0
Core_0_ITLB_writeback_miss 0
Core_0_ITLB_writeback_MPKI 0
Core_0_ITLB_writeback_miss_rate 0
Core_0_ITLB_prefetch_requested 0
Core_0_ITLB_prefetch_issued 0
Core_0_ITLB_prefetch_useful 0
Core_0_ITLB_prefetch_useless 0
Core_0_ITLB_prefetch_late 0
Core_0_ITLB_prefetch_accuracy 0
Core_0_ITLB_prefetch_coverage 0

Core_0_DTLB_total_access 14928378
Core_0_DTLB_total_hit 14000380
Core_0_DTLB_total_miss 927998
Core_0_DTLB_total_MPKI 18.56
Core_0_DTLB_total_miss_rate 0.0621634
Core_0_DTLB_demand_access 14928378
Core_0_DTLB_demand_hit 14000380
Core_0_DTLB_demand_miss 927998
Core_0_DTLB_demand_MPKI 18.56
Core_0_DTLB_demand_miss_rate 0.0621634
Core_0_DTLB_load_access 14928378
Core_0_DTLB_load_hit 14000380
Core_0_DTLB_load_miss 927998
Core_0_DTLB_load_MPKI 18.56
Core_0_DTLB_load_miss_rate 0.0621634
Core_0_DTLB_rfo_access 0
Core_0_DTLB_rfo_hit 0
Core_0_DTLB_rfo_miss 0
Core_0_DTLB_rfo_MPKI 0
Core_0_DTLB_rfo_miss_rate 0
Core_0_DTLB_prefetch_access 0
Core_0_DTLB_prefetch_hit 0
Core_0_DTLB_prefetch_miss 0
Core_0_DTLB_prefetch_MPKI 0
Core_0_DTLB_prefetch_miss_rate 0
Core_0_DTLB_writeback_access 0
Core_0_DTLB_writeback_hit 0
Core_0_DTLB_writeback_miss 0
Core_0_DTLB_writeback_MPKI 0
Core_0_DTLB_writeback_miss_rate 0
Core_0_DTLB_prefetch_requested 0
Core_0_DTLB_prefetch_issued 0
Core_0_DTLB_prefetch_useful 0
Core_0_DTLB_prefetch_useless 0
Core_0_DTLB_prefetch_late 0
Core_0_DTLB_prefetch_accuracy 0
Core_0_DTLB_prefetch_coverage 0

Core_0_STLB_total_access 832827
Core_0_STLB_total_hit 470628
Core_0_STLB_total_miss 362199
Core_0_STLB_total_MPKI 7.24398
Core_0_STLB_total_miss_rate 0.434903
Core_0_STLB_demand_access 832827
Core_0_STLB_demand_hit 470628
Core_0_STLB_demand_miss 362199
Core_0_STLB_demand_MPKI 7.24398
Core_0_STLB_demand_miss_rate 0.434903
Core_0_STLB_load_access 832827
Core_0_STLB_load_hit 470628
Core_0_STLB_load_miss 362199
Core_0_STLB_load_MPKI 7.24398
Core_0_STLB_load_miss_rate 0.434903
Core_0_STLB_rfo_access 0
Core_0_STLB_rfo_hit 0
Core_0_STLB_rfo_miss 0
Core_0_STLB_rfo_MPKI 0
Core_0_STLB_rfo_miss_rate 0
Core_0_STLB_prefetch_access 0
Core_0_STLB_prefetch_hit 0
Core_0_STLB_prefetch_miss 0
Core_0_STLB_prefetch_MPKI 0
Core_0_STLB_prefetch_miss_rate 0
Core_0_STLB_writeback_access 0
Core_0_STLB_writeback_hit 0
Core_0_STLB_writeback_miss 0
Core_0_STLB_writeback_MPKI 0
Core_0_STLB_writeback_miss_rate 0
Core_0_STLB_prefetch_requested 0
Core_0_STLB_prefetch_issued 0
Core_0_STLB_prefetch_useful 0
Core_0_STLB_prefetch_useless 0
Core_0_STLB_prefetch_late 0
Core_0_STLB_prefetch_accuracy 0
Core_0_STLB_prefetch_coverage 0

Core_0_L1I_total_access 2903985
Core_0_L1I_total_hit 2903981
Core_0_L1I_total_miss 4
Core_0_L1I_total_MPKI 8e-05
Core_0_L1I_total_miss_rate 1.37742e-06
Core_0_L1I_demand_access 2903985
Core_0_L1I_demand_hit 2903981
Core_0_L1I_demand_miss 4
Core_0_L1I_demand_MPKI 8e-05
Core_0_L1I_demand_miss_rate 1.37742e-06
Core_0_L1I_load_access 2903985
Core_0_L1I_load_hit 2903981
Core_0_L1I_load_miss 4
Core_0_L1I_load_MPKI 8e-05
Core_0_L1I_load_miss_rate 1.37742e-06
Core_0_L1I_rfo_access 0
Core_0_L1I_rfo_hit 0
Core_0_L1I_rfo_miss 0
Core_0_L1I_rfo_MPKI 0
Core_0_L1I_rfo_miss_rate 0
Core_0_L1I_prefetch_access 0
Core_0_L1I_prefetch_hit 0
Core_0_L1I_prefetch_miss 0
Core_0_L1I_prefetch_MPKI 0
Core_0_L1I_prefetch_miss_rate 0
Core_0_L1I_writeback_access 0
Core_0_L1I_writeback_hit 0
Core_0_L1I_writeback_miss 0
Core_0_L1I_writeback_MPKI 0
Core_0_L1I_writeback_miss_rate 0
Core_0_L1I_prefetch_requested 0
Core_0_L1I_prefetch_issued 0
Core_0_L1I_prefetch_useful 0
Core_0_L1I_prefetch_useless 0
Core_0_L1I_prefetch_late 0
Core_0_L1I_prefetch_accuracy 0
Core_0_L1I_prefetch_coverage 0

Core_0_L1D_total_access 15573972
Core_0_L1D_total_hit 14163405
Core_0_L1D_total_miss 1410567
Core_0_L1D_total_MPKI 28.2113
Core_0_L1D_total_miss_rate 0.0905721
Core_0_L1D_demand_access 9683894
Core_0_L1D_demand_hit 8545340
Core_0_L1D_demand_miss 1138554
Core_0_L1D_demand_MPKI 22.7711
Core_0_L1D_demand_miss_rate 0.117572
Core_0_L1D_load_access 9683894
Core_0_L1D_load_hit 8545340
Core_0_L1D_load_miss 1138554
Core_0_L1D_load_MPKI 22.7711
Core_0_L1D_load_miss_rate 0.117572
Core_0_L1D_rfo_access 0
Core_0_L1D_rfo_hit 0
Core_0_L1D_rfo_miss 0
Core_0_L1D_rfo_MPKI 0
Core_0_L1D_rfo_miss_rate 0
Core_0_L1D_prefetch_access 348335
Core_0_L1D_prefetch_hit 81306
Core_0_L1D_prefetch_miss 267029
Core_0_L1D_prefetch_MPKI 5.34058
Core_0_L1D_prefetch_miss_rate 0.766587
Core_0_L1D_writeback_access 5541743
Core_0_L1D_writeback_hit 5536759
Core_0_L1D_writeback_miss 4984
Core_0_L1D_writeback_MPKI 0.09968
Core_0_L1D_writeback_miss_rate 0.000899356
Core_0_L1D_prefetch_requested 350321
Core_0_L1D_prefetch_issued 348327
Core_0_L1D_prefetch_useful 159226
Core_0_L1D_prefetch_useless 104860
Core_0_L1D_prefetch_late 2844
Core_0_L1D_prefetch_accuracy 0.457116
Core_0_L1D_prefetch_coverage 0.122691

Core_0_L2C_total_access 4390193
Core_0_L2C_total_hit 2266789
Core_0_L2C_total_miss 2123404
Core_0_L2C_total_MPKI 42.4681
Core_0_L2C_total_miss_rate 0.48367
Core_0_L2C_demand_access 995119
Core_0_L2C_demand_hit 175238
Core_0_L2C_demand_miss 819881
Core_0_L2C_demand_MPKI 16.3976
Core_0_L2C_demand_miss_rate 0.823902
Core_0_L2C_load_access 992992
Core_0_L2C_load_hit 173111
Core_0_L2C_load_miss 819881
Core_0_L2C_load_MPKI 16.3976
Core_0_L2C_load_miss_rate 0.825667
Core_0_L2C_rfo_access 2127
Core_0_L2C_rfo_hit 2127
Core_0_L2C_rfo_miss 0
Core_0_L2C_rfo_MPKI 0
Core_0_L2C_rfo_miss_rate 0
Core_0_L2C_prefetch_access 2414564
Core_0_L2C_prefetch_hit 1111175
Core_0_L2C_prefetch_miss 1303389
Core_0_L2C_prefetch_MPKI 26.0678
Core_0_L2C_prefetch_miss_rate 0.539803
Core_0_L2C_writeback_access 980510
Core_0_L2C_writeback_hit 980376
Core_0_L2C_writeback_miss 134
Core_0_L2C_writeback_MPKI 0.00268
Core_0_L2C_writeback_miss_rate 0.000136664
Core_0_L2C_prefetch_requested 2169703
Core_0_L2C_prefetch_issued 2150481
Core_0_L2C_prefetch_useful 271256
Core_0_L2C_prefetch_useless 807706
Core_0_L2C_prefetch_late 23220
Core_0_L2C_prefetch_accuracy 0.126137
Core_0_L2C_prefetch_coverage 0.248599

Core_0_LLC_total_access 2841772
Core_0_LLC_total_hit 696555
Core_0_LLC_total_miss 2145217
Core_0_LLC_total_MPKI 42.9043
Core_0_LLC_total_miss_rate 0.754887
Core_0_LLC_demand_access 796661
Core_0_LLC_demand_hit 179161
Core_0_LLC_demand_miss 617500
Core_0_LLC_demand_MPKI 12.35
Core_0_LLC_demand_miss_rate 0.77511
Core_0_LLC_load_access 796661
Core_0_LLC_load_hit 179161
Core_0_LLC_load_miss 617500
Core_0_LLC_load_MPKI 12.35
Core_0_LLC_load_miss_rate 0.77511
Core_0_LLC_rfo_access 0
Core_0_LLC_rfo_hit 0
Core_0_LLC_rfo_miss 0
Core_0_LLC_rfo_MPKI 0
Core_0_LLC_rfo_miss_rate 0
Core_0_LLC_prefetch_access 1152683
Core_0_LLC_prefetch_hit 195162
Core_0_LLC_prefetch_miss 957521
Core_0_LLC_prefetch_MPKI 19.1504
Core_0_LLC_prefetch_miss_rate 0.830689
Core_0_LLC_writeback_access 892428
Core_0_LLC_writeback_hit 322232
Core_0_LLC_writeback_miss 570196
Core_0_LLC_writeback_MPKI 11.4039
Core_0_LLC_writeback_miss_rate 0.638927
Core_0_LLC_prefetch_requested 0
Core_0_LLC_prefetch_issued 0
Core_0_LLC_prefetch_useful 0
Core_0_LLC_prefetch_useless 0
Core_0_LLC_prefetch_late 0
Core_0_LLC_prefetch_accuracy 0
Core_0_LLC_prefetch_coverage 0

[DRAM Statistics]
Channel_0_RQ_row_buffer_hit 28869
Channel_0_RQ_row_buffer_miss 1547931
Channel_0_WQ_row_buffer_hit 129192
Channel_0_WQ_row_buffer_miss 563739
Channel_0_WQ_full 0
Channel_0_dbus_congested 6806366
DRAM_total_RQ_row_buffer_hit 28869
DRAM_total_RQ_row_buffer_miss 1547931
DRAM_total_WQ_row_buffer_hit 129192
DRAM_total_WQ_row_buffer_miss 563739
DRAM_total_WQ_full 0
DRAM_total_dbus_congested 6806366
DRAM_avg_congested_cycle 5.83592

======STLB miss causes ========
Core_0_STLB_miss_cause_breakdown
Core_0_STLB_cause_Demand_Data_miss 362199
Core_0_STLB_cause_Demand_Data_miss_rate 0.434903
Core_0_STLB_cause_Demand_Instruction_miss 0
Core_0_STLB_cause_Demand_Instruction_miss_rate 0
Core_0_STLB_cause_L1D_Prefetch_miss 0
Core_0_STLB_cause_L1D_Prefetch_miss_rate 0
Core_0_STLB_cause_L1I_Prefetch_miss 0
Core_0_STLB_cause_L1I_Prefetch_miss_rate 0
Core_0_STLB_cause_Other_miss 0
Core_0_STLB_cause_Other_miss_rate 0
Core_0_STLB_Demand_miss 362199
Core_0_STLB_Demand_miss_rate 0.434903
Core_0_STLB_L1D_Prefetch_miss 0
Core_0_STLB_L1D_Prefetch_miss_rate 0
Core_0_STLB_Other_miss 0
Core_0_STLB_Other_miss_rate 0
