[VMEM] WARNING: physical memory size is smaller than virtual memory size.

*** ChampSim Multicore Out-of-Order Simulator ***
Warmup Instructions: 20000000
Simulation Instructions: 50000000
Number of CPUs: 1
Page size: 4096
Core 0: /data0/tzh/champsim_traces/SPEC17/619.lbm_s-2677B.champsimtrace.xz
Off-chip DRAM Size: 16 GiB Channels: 1 Width: 64-bit Data Rate: 3205 MT/s
Warmup halting CPU 0 at instruction 20000002 cycle 5446306 for remainder of phase
Warmup finished CPU 0 instructions: 20000002 cycles: 5446306 cumulative IPC: 3.672 (Simulation time: 00 hr 01 min 07 sec)
Warmup complete CPU 0 instructions: 20000002 cycles: 5446306 cumulative IPC: 3.672 (Simulation time: 00 hr 01 min 07 sec)
Simulation finished CPU 0 instructions: 50000004 cycles: 109063493 cumulative IPC: 0.4584 (Simulation time: 00 hr 16 min 28 sec)
Simulation complete CPU 0 instructions: 50000004 cycles: 109063493 cumulative IPC: 0.4584 (Simulation time: 00 hr 16 min 28 sec)

ChampSim completed all CPUs

=== Simulation ===
CPU 0 runs /data0/tzh/champsim_traces/SPEC17/619.lbm_s-2677B.champsimtrace.xz

Region of Interest Statistics

CPU 0 cumulative IPC: 0.4584 instructions: 50000004 cycles: 109063493
CPU 0 Branch Prediction Accuracy: 97.04% MPKI: 0.5294 Average ROB Occupancy at Mispredict: 241.4
Branch type MPKI
BRANCH_DIRECT_JUMP: 0
BRANCH_INDIRECT: 0
BRANCH_CONDITIONAL: 0.5294
BRANCH_DIRECT_CALL: 0
BRANCH_INDIRECT_CALL: 0
BRANCH_RETURN: 0

cpu0->cpu0_STLB TOTAL        ACCESS:      68245 HIT:      31217 MISS:      37028 MSHR_MERGE:          0
cpu0->cpu0_STLB LOAD         ACCESS:      68245 HIT:      31217 MISS:      37028 MSHR_MERGE:          0
cpu0->cpu0_STLB RFO          ACCESS:          0 HIT:          0 MISS:          0 MSHR_MERGE:          0
cpu0->cpu0_STLB PREFETCH     ACCESS:          0 HIT:          0 MISS:          0 MSHR_MERGE:          0
cpu0->cpu0_STLB WRITE        ACCESS:          0 HIT:          0 MISS:          0 MSHR_MERGE:          0
cpu0->cpu0_STLB TRANSLATION  ACCESS:          0 HIT:          0 MISS:          0 MSHR_MERGE:          0
cpu0->cpu0_STLB PREFETCH REQUESTED:          0 ISSUED:          0 USEFUL:          0 USELESS:          0 LATE:          0
cpu0->cpu0_STLB AVERAGE MISS LATENCY: 251.6 cycles
cpu0->cpu0_L2C TOTAL        ACCESS:    7287125 HIT:    4857716 MISS:    2429409 MSHR_MERGE:          0
cpu0->cpu0_L2C LOAD         ACCESS:     592343 HIT:          6 MISS:     592337 MSHR_MERGE:          0
cpu0->cpu0_L2C RFO          ACCESS:    3345008 HIT:    1512610 MISS:    1832398 MSHR_MERGE:          0
cpu0->cpu0_L2C PREFETCH     ACCESS:          0 HIT:          0 MISS:          0 MSHR_MERGE:          0
cpu0->cpu0_L2C WRITE        ACCESS:    3345100 HIT:    3345100 MISS:          0 MSHR_MERGE:          0
cpu0->cpu0_L2C TRANSLATION  ACCESS:       4674 HIT:          0 MISS:       4674 MSHR_MERGE:          0
cpu0->cpu0_L2C PREFETCH REQUESTED:          0 ISSUED:          0 USEFUL:          0 USELESS:          0 LATE:          0
cpu0->cpu0_L2C AVERAGE MISS LATENCY: 513.4 cycles
cpu0->cpu0_L1I TOTAL        ACCESS:    7980168 HIT:    7980168 MISS:          0 MSHR_MERGE:          0
cpu0->cpu0_L1I LOAD         ACCESS:    7980168 HIT:    7980168 MISS:          0 MSHR_MERGE:          0
cpu0->cpu0_L1I RFO          ACCESS:          0 HIT:          0 MISS:          0 MSHR_MERGE:          0
cpu0->cpu0_L1I PREFETCH     ACCESS:          0 HIT:          0 MISS:          0 MSHR_MERGE:          0
cpu0->cpu0_L1I WRITE        ACCESS:          0 HIT:          0 MISS:          0 MSHR_MERGE:          0
cpu0->cpu0_L1I TRANSLATION  ACCESS:          0 HIT:          0 MISS:          0 MSHR_MERGE:          0
cpu0->cpu0_L1I PREFETCH REQUESTED:          0 ISSUED:          0 USEFUL:          0 USELESS:          0 LATE:          0
cpu0->cpu0_L1I AVERAGE MISS LATENCY: - cycles
cpu0->cpu0_L1D TOTAL        ACCESS:   12040687 HIT:    7510485 MISS:    4530202 MSHR_MERGE:     588080
cpu0->cpu0_L1D LOAD         ACCESS:    2846839 HIT:    1818361 MISS:    1028478 MSHR_MERGE:     436135
cpu0->cpu0_L1D RFO          ACCESS:          0 HIT:          0 MISS:          0 MSHR_MERGE:          0
cpu0->cpu0_L1D PREFETCH     ACCESS:          0 HIT:          0 MISS:          0 MSHR_MERGE:          0
cpu0->cpu0_L1D WRITE        ACCESS:    9119756 HIT:    5622706 MISS:    3497050 MSHR_MERGE:     151945
cpu0->cpu0_L1D TRANSLATION  ACCESS:      74092 HIT:      69418 MISS:       4674 MSHR_MERGE:          0
cpu0->cpu0_L1D PREFETCH REQUESTED:          0 ISSUED:          0 USEFUL:          0 USELESS:          0 LATE:          0
cpu0->cpu0_L1D AVERAGE MISS LATENCY: 326.2 cycles
cpu0->cpu0_ITLB TOTAL        ACCESS:    5905580 HIT:    5905580 MISS:          0 MSHR_MERGE:          0
cpu0->cpu0_ITLB LOAD         ACCESS:    5905580 HIT:    5905580 MISS:          0 MSHR_MERGE:          0
cpu0->cpu0_ITLB RFO          ACCESS:          0 HIT:          0 MISS:          0 MSHR_MERGE:          0
cpu0->cpu0_ITLB PREFETCH     ACCESS:          0 HIT:          0 MISS:          0 MSHR_MERGE:          0
cpu0->cpu0_ITLB WRITE        ACCESS:          0 HIT:          0 MISS:          0 MSHR_MERGE:          0
cpu0->cpu0_ITLB TRANSLATION  ACCESS:          0 HIT:          0 MISS:          0 MSHR_MERGE:          0
cpu0->cpu0_ITLB PREFETCH REQUESTED:          0 ISSUED:          0 USEFUL:          0 USELESS:          0 LATE:          0
cpu0->cpu0_ITLB AVERAGE MISS LATENCY: - cycles
cpu0->cpu0_DTLB TOTAL        ACCESS:   11309358 HIT:   11186894 MISS:     122464 MSHR_MERGE:      54219
cpu0->cpu0_DTLB LOAD         ACCESS:   11309358 HIT:   11186894 MISS:     122464 MSHR_MERGE:      54219
cpu0->cpu0_DTLB RFO          ACCESS:          0 HIT:          0 MISS:          0 MSHR_MERGE:          0
cpu0->cpu0_DTLB PREFETCH     ACCESS:          0 HIT:          0 MISS:          0 MSHR_MERGE:          0
cpu0->cpu0_DTLB WRITE        ACCESS:          0 HIT:          0 MISS:          0 MSHR_MERGE:          0
cpu0->cpu0_DTLB TRANSLATION  ACCESS:          0 HIT:          0 MISS:          0 MSHR_MERGE:          0
cpu0->cpu0_DTLB PREFETCH REQUESTED:          0 ISSUED:          0 USEFUL:          0 USELESS:          0 LATE:          0
cpu0->cpu0_DTLB AVERAGE MISS LATENCY: 142 cycles
cpu0->LLC TOTAL        ACCESS:    4261723 HIT:     656097 MISS:    3605626 MSHR_MERGE:          0
cpu0->LLC LOAD         ACCESS:     592337 HIT:          6 MISS:     592331 MSHR_MERGE:          0
cpu0->LLC RFO          ACCESS:    1832395 HIT:      55519 MISS:    1776876 MSHR_MERGE:          0
cpu0->LLC PREFETCH     ACCESS:          0 HIT:          0 MISS:          0 MSHR_MERGE:          0
cpu0->LLC WRITE        ACCESS:    1832317 HIT:     600572 MISS:    1231745 MSHR_MERGE:          0
cpu0->LLC TRANSLATION  ACCESS:       4674 HIT:          0 MISS:       4674 MSHR_MERGE:          0
cpu0->LLC PREFETCH REQUESTED:          0 ISSUED:          0 USEFUL:          0 USELESS:          0 LATE:          0
cpu0->LLC AVERAGE MISS LATENCY: 338.2 cycles

DRAM Statistics

Channel 0 RQ ROW_BUFFER_HIT:     148278
  ROW_BUFFER_MISS:    2225601
  AVG DBUS CONGESTED CYCLE: 7.379
Channel 0 WQ ROW_BUFFER_HIT:     249485
  ROW_BUFFER_MISS:    1523366
  FULL:         13
Channel 0 REFRESHES ISSUED:       9089

[ROI Statistics]
[System Configuration]
num_cpus 1
cpu_freq 4000
fetch_width 6
decode_width 6
dispatch_width 6
execute_width 6
lq_width 2
sq_width 2
retire_width 6
scheduler_size 128
branch_mispredict_penalty 15
rob_size 352
lq_size 128
sq_size 72
ifetch_buffer_size 64
decode_buffer_size 32
dispatch_buffer_size 32
register_file_size 288
decode_latency 1
dispatch_latency 1
schedule_latency 1
execute_latency 1
page_size 4096
block_size 64
core_0_itlb_set 16
core_0_itlb_way 4
core_0_itlb_rq_size 16
core_0_itlb_wq_size 16
core_0_itlb_pq_size 0
core_0_itlb_mshr_size 8
core_0_itlb_hit_latency 1
core_0_itlb_fill_latency 1
core_0_itlb_max_tag_check 2
core_0_itlb_max_fill 2
core_0_dtlb_set 16
core_0_dtlb_way 4
core_0_dtlb_rq_size 16
core_0_dtlb_wq_size 16
core_0_dtlb_pq_size 0
core_0_dtlb_mshr_size 8
core_0_dtlb_hit_latency 1
core_0_dtlb_fill_latency 1
core_0_dtlb_max_tag_check 2
core_0_dtlb_max_fill 2
core_0_stlb_set 128
core_0_stlb_way 12
core_0_stlb_rq_size 32
core_0_stlb_wq_size 32
core_0_stlb_pq_size 0
core_0_stlb_mshr_size 16
core_0_stlb_hit_latency 4
core_0_stlb_fill_latency 4
core_0_stlb_max_tag_check 1
core_0_stlb_max_fill 1
core_0_l1i_set 64
core_0_l1i_way 8
core_0_l1i_rq_size 64
core_0_l1i_wq_size 64
core_0_l1i_pq_size 32
core_0_l1i_mshr_size 8
core_0_l1i_hit_latency 2
core_0_l1i_fill_latency 2
core_0_l1i_max_tag_check 2
core_0_l1i_max_fill 2
core_0_l1d_set 64
core_0_l1d_way 12
core_0_l1d_rq_size 64
core_0_l1d_wq_size 64
core_0_l1d_pq_size 8
core_0_l1d_mshr_size 16
core_0_l1d_hit_latency 2
core_0_l1d_fill_latency 3
core_0_l1d_max_tag_check 2
core_0_l1d_max_fill 2
core_0_l2c_set 1024
core_0_l2c_way 8
core_0_l2c_rq_size 32
core_0_l2c_wq_size 32
core_0_l2c_pq_size 16
core_0_l2c_mshr_size 32
core_0_l2c_hit_latency 5
core_0_l2c_fill_latency 5
core_0_l2c_max_tag_check 1
core_0_l2c_max_fill 1
llc_set 2048
llc_way 16
llc_rq_size 32
llc_wq_size 32
llc_pq_size 32
llc_mshr_size 64
llc_hit_latency 10
llc_fill_latency 10
llc_max_tag_check 1
llc_max_fill 1
dram_channels 1
dram_ranks 1
dram_bankgroups 8
dram_banks 4
dram_rows 65536
dram_columns 1024
dram_channel_width 8
dram_rq_size 64
dram_wq_size 64
dram_size 17179869184
core_0_itlb_prefetcher no
core_0_dtlb_prefetcher no
core_0_stlb_prefetcher no
core_0_l1i_prefetcher no
core_0_l1d_prefetcher no
core_0_l2c_prefetcher no
llc_prefetcher no
llc_replacement drrip

Core_0_instructions 50000004
Core_0_cycles 109063493
Core_0_IPC 0.458449
Core_0_branch_prediction_accuracy 97.0427
Core_0_branch_MPKI 0.52936
Core_0_average_ROB_occupancy_at_mispredict 241.398

Core_0_ITLB_total_access 5905580
Core_0_ITLB_total_hit 5905580
Core_0_ITLB_total_miss 0
Core_0_ITLB_total_MPKI 0
Core_0_ITLB_total_miss_rate 0
Core_0_ITLB_demand_access 5905580
Core_0_ITLB_demand_hit 5905580
Core_0_ITLB_demand_miss 0
Core_0_ITLB_demand_MPKI 0
Core_0_ITLB_demand_miss_rate 0
Core_0_ITLB_load_access 5905580
Core_0_ITLB_load_hit 5905580
Core_0_ITLB_load_miss 0
Core_0_ITLB_load_MPKI 0
Core_0_ITLB_load_miss_rate 0
Core_0_ITLB_rfo_access 0
Core_0_ITLB_rfo_hit 0
Core_0_ITLB_rfo_miss 0
Core_0_ITLB_rfo_MPKI 0
Core_0_ITLB_rfo_miss_rate 0
Core_0_ITLB_prefetch_access 0
Core_0_ITLB_prefetch_hit 0
Core_0_ITLB_prefetch_miss 0
Core_0_ITLB_prefetch_MPKI 0
Core_0_ITLB_prefetch_miss_rate 0
Core_0_ITLB_writeback_access 0
Core_0_ITLB_writeback_hit 0
Core_0_ITLB_writeback_miss 0
Core_0_ITLB_writeback_MPKI 0
Core_0_ITLB_writeback_miss_rate 0
Core_0_ITLB_prefetch_requested 0
Core_0_ITLB_prefetch_issued 0
Core_0_ITLB_prefetch_useful 0
Core_0_ITLB_prefetch_useless 0
Core_0_ITLB_prefetch_late 0
Core_0_ITLB_prefetch_accuracy 0
Core_0_ITLB_prefetch_coverage 0

Core_0_DTLB_total_access 11309358
Core_0_DTLB_total_hit 11186894
Core_0_DTLB_total_miss 122464
Core_0_DTLB_total_MPKI 2.44928
Core_0_DTLB_total_miss_rate 0.0108286
Core_0_DTLB_demand_access 11309358
Core_0_DTLB_demand_hit 11186894
Core_0_DTLB_demand_miss 122464
Core_0_DTLB_demand_MPKI 2.44928
Core_0_DTLB_demand_miss_rate 0.0108286
Core_0_DTLB_load_access 11309358
Core_0_DTLB_load_hit 11186894
Core_0_DTLB_load_miss 122464
Core_0_DTLB_load_MPKI 2.44928
Core_0_DTLB_load_miss_rate 0.0108286
Core_0_DTLB_rfo_access 0
Core_0_DTLB_rfo_hit 0
Core_0_DTLB_rfo_miss 0
Core_0_DTLB_rfo_MPKI 0
Core_0_DTLB_rfo_miss_rate 0
Core_0_DTLB_prefetch_access 0
Core_0_DTLB_prefetch_hit 0
Core_0_DTLB_prefetch_miss 0
Core_0_DTLB_prefetch_MPKI 0
Core_0_DTLB_prefetch_miss_rate 0
Core_0_DTLB_writeback_access 0
Core_0_DTLB_writeback_hit 0
Core_0_DTLB_writeback_miss 0
Core_0_DTLB_writeback_MPKI 0
Core_0_DTLB_writeback_miss_rate 0
Core_0_DTLB_prefetch_requested 0
Core_0_DTLB_prefetch_issued 0
Core_0_DTLB_prefetch_useful 0
Core_0_DTLB_prefetch_useless 0
Core_0_DTLB_prefetch_late 0
Core_0_DTLB_prefetch_accuracy 0
Core_0_DTLB_prefetch_coverage 0

Core_0_STLB_total_access 68245
Core_0_STLB_total_hit 31217
Core_0_STLB_total_miss 37028
Core_0_STLB_total_MPKI 0.74056
Core_0_STLB_total_miss_rate 0.542575
Core_0_STLB_demand_access 68245
Core_0_STLB_demand_hit 31217
Core_0_STLB_demand_miss 37028
Core_0_STLB_demand_MPKI 0.74056
Core_0_STLB_demand_miss_rate 0.542575
Core_0_STLB_load_access 68245
Core_0_STLB_load_hit 31217
Core_0_STLB_load_miss 37028
Core_0_STLB_load_MPKI 0.74056
Core_0_STLB_load_miss_rate 0.542575
Core_0_STLB_rfo_access 0
Core_0_STLB_rfo_hit 0
Core_0_STLB_rfo_miss 0
Core_0_STLB_rfo_MPKI 0
Core_0_STLB_rfo_miss_rate 0
Core_0_STLB_prefetch_access 0
Core_0_STLB_prefetch_hit 0
Core_0_STLB_prefetch_miss 0
Core_0_STLB_prefetch_MPKI 0
Core_0_STLB_prefetch_miss_rate 0
Core_0_STLB_writeback_access 0
Core_0_STLB_writeback_hit 0
Core_0_STLB_writeback_miss 0
Core_0_STLB_writeback_MPKI 0
Core_0_STLB_writeback_miss_rate 0
Core_0_STLB_prefetch_requested 0
Core_0_STLB_prefetch_issued 0
Core_0_STLB_prefetch_useful 0
Core_0_STLB_prefetch_useless 0
Core_0_STLB_prefetch_late 0
Core_0_STLB_prefetch_accuracy 0
Core_0_STLB_prefetch_coverage 0

Core_0_L1I_total_access 7980168
Core_0_L1I_total_hit 7980168
Core_0_L1I_total_miss 0
Core_0_L1I_total_MPKI 0
Core_0_L1I_total_miss_rate 0
Core_0_L1I_demand_access 7980168
Core_0_L1I_demand_hit 7980168
Core_0_L1I_demand_miss 0
Core_0_L1I_demand_MPKI 0
Core_0_L1I_demand_miss_rate 0
Core_0_L1I_load_access 7980168
Core_0_L1I_load_hit 7980168
Core_0_L1I_load_miss 0
Core_0_L1I_load_MPKI 0
Core_0_L1I_load_miss_rate 0
Core_0_L1I_rfo_access 0
Core_0_L1I_rfo_hit 0
Core_0_L1I_rfo_miss 0
Core_0_L1I_rfo_MPKI 0
Core_0_L1I_rfo_miss_rate 0
Core_0_L1I_prefetch_access 0
Core_0_L1I_prefetch_hit 0
Core_0_L1I_prefetch_miss 0
Core_0_L1I_prefetch_MPKI 0
Core_0_L1I_prefetch_miss_rate 0
Core_0_L1I_writeback_access 0
Core_0_L1I_writeback_hit 0
Core_0_L1I_writeback_miss 0
Core_0_L1I_writeback_MPKI 0
Core_0_L1I_writeback_miss_rate 0
Core_0_L1I_prefetch_requested 0
Core_0_L1I_prefetch_issued 0
Core_0_L1I_prefetch_useful 0
Core_0_L1I_prefetch_useless 0
Core_0_L1I_prefetch_late 0
Core_0_L1I_prefetch_accuracy 0
Core_0_L1I_prefetch_coverage 0

Core_0_L1D_total_access 11966595
Core_0_L1D_total_hit 7441067
Core_0_L1D_total_miss 4525528
Core_0_L1D_total_MPKI 90.5106
Core_0_L1D_total_miss_rate 0.37818
Core_0_L1D_demand_access 2846839
Core_0_L1D_demand_hit 1818361
Core_0_L1D_demand_miss 1028478
Core_0_L1D_demand_MPKI 20.5696
Core_0_L1D_demand_miss_rate 0.36127
Core_0_L1D_load_access 2846839
Core_0_L1D_load_hit 1818361
Core_0_L1D_load_miss 1028478
Core_0_L1D_load_MPKI 20.5696
Core_0_L1D_load_miss_rate 0.36127
Core_0_L1D_rfo_access 0
Core_0_L1D_rfo_hit 0
Core_0_L1D_rfo_miss 0
Core_0_L1D_rfo_MPKI 0
Core_0_L1D_rfo_miss_rate 0
Core_0_L1D_prefetch_access 0
Core_0_L1D_prefetch_hit 0
Core_0_L1D_prefetch_miss 0
Core_0_L1D_prefetch_MPKI 0
Core_0_L1D_prefetch_miss_rate 0
Core_0_L1D_writeback_access 9119756
Core_0_L1D_writeback_hit 5622706
Core_0_L1D_writeback_miss 3497050
Core_0_L1D_writeback_MPKI 69.941
Core_0_L1D_writeback_miss_rate 0.383459
Core_0_L1D_prefetch_requested 0
Core_0_L1D_prefetch_issued 0
Core_0_L1D_prefetch_useful 0
Core_0_L1D_prefetch_useless 0
Core_0_L1D_prefetch_late 0
Core_0_L1D_prefetch_accuracy 0
Core_0_L1D_prefetch_coverage 0

Core_0_L2C_total_access 7282451
Core_0_L2C_total_hit 4857716
Core_0_L2C_total_miss 2424735
Core_0_L2C_total_MPKI 48.4947
Core_0_L2C_total_miss_rate 0.332956
Core_0_L2C_demand_access 3937351
Core_0_L2C_demand_hit 1512616
Core_0_L2C_demand_miss 2424735
Core_0_L2C_demand_MPKI 48.4947
Core_0_L2C_demand_miss_rate 0.615829
Core_0_L2C_load_access 592343
Core_0_L2C_load_hit 6
Core_0_L2C_load_miss 592337
Core_0_L2C_load_MPKI 11.8467
Core_0_L2C_load_miss_rate 0.99999
Core_0_L2C_rfo_access 3345008
Core_0_L2C_rfo_hit 1512610
Core_0_L2C_rfo_miss 1832398
Core_0_L2C_rfo_MPKI 36.648
Core_0_L2C_rfo_miss_rate 0.547801
Core_0_L2C_prefetch_access 0
Core_0_L2C_prefetch_hit 0
Core_0_L2C_prefetch_miss 0
Core_0_L2C_prefetch_MPKI 0
Core_0_L2C_prefetch_miss_rate 0
Core_0_L2C_writeback_access 3345100
Core_0_L2C_writeback_hit 3345100
Core_0_L2C_writeback_miss 0
Core_0_L2C_writeback_MPKI 0
Core_0_L2C_writeback_miss_rate 0
Core_0_L2C_prefetch_requested 0
Core_0_L2C_prefetch_issued 0
Core_0_L2C_prefetch_useful 0
Core_0_L2C_prefetch_useless 0
Core_0_L2C_prefetch_late 0
Core_0_L2C_prefetch_accuracy 0
Core_0_L2C_prefetch_coverage 0

Core_0_LLC_total_access 4257049
Core_0_LLC_total_hit 656097
Core_0_LLC_total_miss 3600952
Core_0_LLC_total_MPKI 72.019
Core_0_LLC_total_miss_rate 0.84588
Core_0_LLC_demand_access 2424732
Core_0_LLC_demand_hit 55525
Core_0_LLC_demand_miss 2369207
Core_0_LLC_demand_MPKI 47.3841
Core_0_LLC_demand_miss_rate 0.977101
Core_0_LLC_load_access 592337
Core_0_LLC_load_hit 6
Core_0_LLC_load_miss 592331
Core_0_LLC_load_MPKI 11.8466
Core_0_LLC_load_miss_rate 0.99999
Core_0_LLC_rfo_access 1832395
Core_0_LLC_rfo_hit 55519
Core_0_LLC_rfo_miss 1776876
Core_0_LLC_rfo_MPKI 35.5375
Core_0_LLC_rfo_miss_rate 0.969701
Core_0_LLC_prefetch_access 0
Core_0_LLC_prefetch_hit 0
Core_0_LLC_prefetch_miss 0
Core_0_LLC_prefetch_MPKI 0
Core_0_LLC_prefetch_miss_rate 0
Core_0_LLC_writeback_access 1832317
Core_0_LLC_writeback_hit 600572
Core_0_LLC_writeback_miss 1231745
Core_0_LLC_writeback_MPKI 24.6349
Core_0_LLC_writeback_miss_rate 0.672234
Core_0_LLC_prefetch_requested 0
Core_0_LLC_prefetch_issued 0
Core_0_LLC_prefetch_useful 0
Core_0_LLC_prefetch_useless 0
Core_0_LLC_prefetch_late 0
Core_0_LLC_prefetch_accuracy 0
Core_0_LLC_prefetch_coverage 0

[DRAM Statistics]
Channel_0_RQ_row_buffer_hit 148278
Channel_0_RQ_row_buffer_miss 2225601
Channel_0_WQ_row_buffer_hit 249485
Channel_0_WQ_row_buffer_miss 1523366
Channel_0_WQ_full 13
Channel_0_dbus_congested 15482984
DRAM_total_RQ_row_buffer_hit 148278
DRAM_total_RQ_row_buffer_miss 2225601
DRAM_total_WQ_row_buffer_hit 249485
DRAM_total_WQ_row_buffer_miss 1523366
DRAM_total_WQ_full 13
DRAM_total_dbus_congested 15482984
DRAM_avg_congested_cycle 7.37875

======STLB miss causes ========
Core_0_STLB_miss_cause_breakdown
Core_0_STLB_cause_Demand_Data_miss 37028
Core_0_STLB_cause_Demand_Data_miss_rate 0.542575
Core_0_STLB_cause_Demand_Instruction_miss 0
Core_0_STLB_cause_Demand_Instruction_miss_rate 0
Core_0_STLB_cause_L1D_Prefetch_miss 0
Core_0_STLB_cause_L1D_Prefetch_miss_rate 0
Core_0_STLB_cause_L1I_Prefetch_miss 0
Core_0_STLB_cause_L1I_Prefetch_miss_rate 0
Core_0_STLB_cause_Other_miss 0
Core_0_STLB_cause_Other_miss_rate 0
Core_0_STLB_Demand_miss 37028
Core_0_STLB_Demand_miss_rate 0.542575
Core_0_STLB_L1D_Prefetch_miss 0
Core_0_STLB_L1D_Prefetch_miss_rate 0
Core_0_STLB_Other_miss 0
Core_0_STLB_Other_miss_rate 0
