[VMEM] WARNING: physical memory size is smaller than virtual memory size.

*** ChampSim Multicore Out-of-Order Simulator ***
Warmup Instructions: 20000000
Simulation Instructions: 50000000
Number of CPUs: 1
Page size: 4096
STLB ideal mode: l1pref
Core 0: /data0/tzh/champsim_traces/SPEC06/483.xalancbmk-716B.champsimtrace.xz
 L1D Berti prefetcher
Off-chip DRAM Size: 16 GiB Channels: 1 Width: 64-bit Data Rate: 3205 MT/s
Warmup halting CPU 0 at instruction 20000005 cycle 4226358 for remainder of phase
Warmup finished CPU 0 instructions: 20000005 cycles: 4226358 cumulative IPC: 4.732 (Simulation time: 00 hr 00 min 55 sec)
Warmup complete CPU 0 instructions: 20000005 cycles: 4226358 cumulative IPC: 4.732 (Simulation time: 00 hr 00 min 55 sec)
Simulation finished CPU 0 instructions: 50000001 cycles: 36065180 cumulative IPC: 1.386 (Simulation time: 00 hr 06 min 20 sec)
Simulation complete CPU 0 instructions: 50000001 cycles: 36065180 cumulative IPC: 1.386 (Simulation time: 00 hr 06 min 20 sec)

ChampSim completed all CPUs

=== Simulation ===
CPU 0 runs /data0/tzh/champsim_traces/SPEC06/483.xalancbmk-716B.champsimtrace.xz

Region of Interest Statistics

CPU 0 cumulative IPC: 1.386 instructions: 50000001 cycles: 36065180
CPU 0 Branch Prediction Accuracy: 98.2% MPKI: 4.715 Average ROB Occupancy at Mispredict: 55.35
Branch type MPKI
BRANCH_DIRECT_JUMP: 0.0076
BRANCH_INDIRECT: 0.2231
BRANCH_CONDITIONAL: 2.662
BRANCH_DIRECT_CALL: 0.08324
BRANCH_INDIRECT_CALL: 0.3313
BRANCH_RETURN: 1.407

cpu0->cpu0_STLB TOTAL        ACCESS:     420422 HIT:     368868 MISS:      51554 MSHR_MERGE:          0
cpu0->cpu0_STLB LOAD         ACCESS:     420422 HIT:     368868 MISS:      51554 MSHR_MERGE:          0
cpu0->cpu0_STLB RFO          ACCESS:          0 HIT:          0 MISS:          0 MSHR_MERGE:          0
cpu0->cpu0_STLB PREFETCH     ACCESS:          0 HIT:          0 MISS:          0 MSHR_MERGE:          0
cpu0->cpu0_STLB WRITE        ACCESS:          0 HIT:          0 MISS:          0 MSHR_MERGE:          0
cpu0->cpu0_STLB TRANSLATION  ACCESS:          0 HIT:          0 MISS:          0 MSHR_MERGE:          0
cpu0->cpu0_STLB PREFETCH REQUESTED:          0 ISSUED:          0 USEFUL:          0 USELESS:          0 LATE:          0
cpu0->cpu0_STLB AVERAGE MISS LATENCY: 190.1 cycles
cpu0->cpu0_L2C TOTAL        ACCESS:     960552 HIT:     662949 MISS:     297603 MSHR_MERGE:      32961
cpu0->cpu0_L2C LOAD         ACCESS:     234483 HIT:     161014 MISS:      73469 MSHR_MERGE:       2931
cpu0->cpu0_L2C RFO          ACCESS:      46245 HIT:       6208 MISS:      40037 MSHR_MERGE:         46
cpu0->cpu0_L2C PREFETCH     ACCESS:     516473 HIT:     368698 MISS:     147775 MSHR_MERGE:      29984
cpu0->cpu0_L2C WRITE        ACCESS:     113220 HIT:     113106 MISS:        114 MSHR_MERGE:          0
cpu0->cpu0_L2C TRANSLATION  ACCESS:      50131 HIT:      13923 MISS:      36208 MSHR_MERGE:          0
cpu0->cpu0_L2C PREFETCH REQUESTED:     420211 ISSUED:     418676 USEFUL:      30897 USELESS:      66495 LATE:       2977
cpu0->cpu0_L2C AVERAGE MISS LATENCY: 163.2 cycles
cpu0->cpu0_L1I TOTAL        ACCESS:    7452327 HIT:    7406328 MISS:      45999 MSHR_MERGE:       9441
cpu0->cpu0_L1I LOAD         ACCESS:    7452327 HIT:    7406328 MISS:      45999 MSHR_MERGE:       9441
cpu0->cpu0_L1I RFO          ACCESS:          0 HIT:          0 MISS:          0 MSHR_MERGE:          0
cpu0->cpu0_L1I PREFETCH     ACCESS:          0 HIT:          0 MISS:          0 MSHR_MERGE:          0
cpu0->cpu0_L1I WRITE        ACCESS:          0 HIT:          0 MISS:          0 MSHR_MERGE:          0
cpu0->cpu0_L1I TRANSLATION  ACCESS:          0 HIT:          0 MISS:          0 MSHR_MERGE:          0
cpu0->cpu0_L1I PREFETCH REQUESTED:          0 ISSUED:          0 USEFUL:          0 USELESS:          0 LATE:          0
cpu0->cpu0_L1I AVERAGE MISS LATENCY: 27.26 cycles
cpu0->cpu0_L1D TOTAL        ACCESS:   12437149 HIT:   11731105 MISS:     706044 MSHR_MERGE:     313944
cpu0->cpu0_L1D LOAD         ACCESS:    8223647 HIT:    7960439 MISS:     263208 MSHR_MERGE:      65283
cpu0->cpu0_L1D RFO          ACCESS:          0 HIT:          0 MISS:          0 MSHR_MERGE:          0
cpu0->cpu0_L1D PREFETCH     ACCESS:     601842 HIT:     492775 MISS:     109067 MSHR_MERGE:      11270
cpu0->cpu0_L1D WRITE        ACCESS:    3485365 HIT:    3202846 MISS:     282519 MSHR_MERGE:     236272
cpu0->cpu0_L1D TRANSLATION  ACCESS:     126295 HIT:      75045 MISS:      51250 MSHR_MERGE:       1119
cpu0->cpu0_L1D PREFETCH REQUESTED:     608314 ISSUED:     601842 USEFUL:      72803 USELESS:      24995 LATE:       6651
cpu0->cpu0_L1D AVERAGE MISS LATENCY: 88.41 cycles
cpu0->cpu0_ITLB TOTAL        ACCESS:    6976510 HIT:    6910735 MISS:      65775 MSHR_MERGE:      33459
cpu0->cpu0_ITLB LOAD         ACCESS:    6976510 HIT:    6910735 MISS:      65775 MSHR_MERGE:      33459
cpu0->cpu0_ITLB RFO          ACCESS:          0 HIT:          0 MISS:          0 MSHR_MERGE:          0
cpu0->cpu0_ITLB PREFETCH     ACCESS:          0 HIT:          0 MISS:          0 MSHR_MERGE:          0
cpu0->cpu0_ITLB WRITE        ACCESS:          0 HIT:          0 MISS:          0 MSHR_MERGE:          0
cpu0->cpu0_ITLB TRANSLATION  ACCESS:          0 HIT:          0 MISS:          0 MSHR_MERGE:          0
cpu0->cpu0_ITLB PREFETCH REQUESTED:          0 ISSUED:          0 USEFUL:          0 USELESS:          0 LATE:          0
cpu0->cpu0_ITLB AVERAGE MISS LATENCY: 7.152 cycles
cpu0->cpu0_DTLB TOTAL        ACCESS:   11736493 HIT:   11103872 MISS:     632621 MSHR_MERGE:     244515
cpu0->cpu0_DTLB LOAD         ACCESS:   11736493 HIT:   11103872 MISS:     632621 MSHR_MERGE:     244515
cpu0->cpu0_DTLB RFO          ACCESS:          0 HIT:          0 MISS:          0 MSHR_MERGE:          0
cpu0->cpu0_DTLB PREFETCH     ACCESS:          0 HIT:          0 MISS:          0 MSHR_MERGE:          0
cpu0->cpu0_DTLB WRITE        ACCESS:          0 HIT:          0 MISS:          0 MSHR_MERGE:          0
cpu0->cpu0_DTLB TRANSLATION  ACCESS:          0 HIT:          0 MISS:          0 MSHR_MERGE:          0
cpu0->cpu0_DTLB PREFETCH REQUESTED:          0 ISSUED:          0 USEFUL:          0 USELESS:          0 LATE:          0
cpu0->cpu0_DTLB AVERAGE MISS LATENCY: 30.21 cycles
cpu0->LLC TOTAL        ACCESS:     363183 HIT:     122360 MISS:     240823 MSHR_MERGE:          0
cpu0->LLC LOAD         ACCESS:      70538 HIT:      27509 MISS:      43029 MSHR_MERGE:          0
cpu0->LLC RFO          ACCESS:      39991 HIT:       5678 MISS:      34313 MSHR_MERGE:          0
cpu0->LLC PREFETCH     ACCESS:     117791 HIT:      23768 MISS:      94023 MSHR_MERGE:          0
cpu0->LLC WRITE        ACCESS:      98655 HIT:      52019 MISS:      46636 MSHR_MERGE:          0
cpu0->LLC TRANSLATION  ACCESS:      36208 HIT:      13386 MISS:      22822 MSHR_MERGE:          0
cpu0->LLC PREFETCH REQUESTED:          0 ISSUED:          0 USEFUL:          0 USELESS:          0 LATE:          0
cpu0->LLC AVERAGE MISS LATENCY: 150.3 cycles

DRAM Statistics

Channel 0 RQ ROW_BUFFER_HIT:       1636
  ROW_BUFFER_MISS:     192525
  AVG DBUS CONGESTED CYCLE: 11.07
Channel 0 WQ ROW_BUFFER_HIT:      13017
  ROW_BUFFER_MISS:      47874
  FULL:          0
Channel 0 REFRESHES ISSUED:       3005

[ROI Statistics]
[System Configuration]
num_cpus 1
cpu_freq 4000
fetch_width 6
decode_width 6
dispatch_width 6
execute_width 6
lq_width 2
sq_width 2
retire_width 6
scheduler_size 128
branch_mispredict_penalty 15
rob_size 352
lq_size 128
sq_size 72
ifetch_buffer_size 64
decode_buffer_size 32
dispatch_buffer_size 32
register_file_size 288
decode_latency 1
dispatch_latency 1
schedule_latency 1
execute_latency 1
page_size 4096
block_size 64
core_0_itlb_set 16
core_0_itlb_way 4
core_0_itlb_rq_size 16
core_0_itlb_wq_size 16
core_0_itlb_pq_size 0
core_0_itlb_mshr_size 8
core_0_itlb_hit_latency 1
core_0_itlb_fill_latency 1
core_0_itlb_max_tag_check 2
core_0_itlb_max_fill 2
core_0_dtlb_set 16
core_0_dtlb_way 4
core_0_dtlb_rq_size 16
core_0_dtlb_wq_size 16
core_0_dtlb_pq_size 0
core_0_dtlb_mshr_size 8
core_0_dtlb_hit_latency 1
core_0_dtlb_fill_latency 1
core_0_dtlb_max_tag_check 2
core_0_dtlb_max_fill 2
core_0_stlb_set 128
core_0_stlb_way 12
core_0_stlb_rq_size 32
core_0_stlb_wq_size 32
core_0_stlb_pq_size 0
core_0_stlb_mshr_size 16
core_0_stlb_hit_latency 4
core_0_stlb_fill_latency 4
core_0_stlb_max_tag_check 1
core_0_stlb_max_fill 1
core_0_l1i_set 64
core_0_l1i_way 8
core_0_l1i_rq_size 64
core_0_l1i_wq_size 64
core_0_l1i_pq_size 32
core_0_l1i_mshr_size 8
core_0_l1i_hit_latency 2
core_0_l1i_fill_latency 2
core_0_l1i_max_tag_check 2
core_0_l1i_max_fill 2
core_0_l1d_set 64
core_0_l1d_way 12
core_0_l1d_rq_size 64
core_0_l1d_wq_size 64
core_0_l1d_pq_size 8
core_0_l1d_mshr_size 16
core_0_l1d_hit_latency 2
core_0_l1d_fill_latency 3
core_0_l1d_max_tag_check 2
core_0_l1d_max_fill 2
core_0_l2c_set 1024
core_0_l2c_way 8
core_0_l2c_rq_size 32
core_0_l2c_wq_size 32
core_0_l2c_pq_size 16
core_0_l2c_mshr_size 32
core_0_l2c_hit_latency 5
core_0_l2c_fill_latency 5
core_0_l2c_max_tag_check 1
core_0_l2c_max_fill 1
llc_set 2048
llc_way 16
llc_rq_size 32
llc_wq_size 32
llc_pq_size 32
llc_mshr_size 64
llc_hit_latency 10
llc_fill_latency 10
llc_max_tag_check 1
llc_max_fill 1
dram_channels 1
dram_ranks 1
dram_bankgroups 8
dram_banks 4
dram_rows 65536
dram_columns 1024
dram_channel_width 8
dram_rq_size 64
dram_wq_size 64
dram_size 17179869184
core_0_itlb_prefetcher no
core_0_dtlb_prefetcher no
core_0_stlb_prefetcher no
core_0_l1i_prefetcher next_line
core_0_l1d_prefetcher berti
core_0_l2c_prefetcher pythia
llc_prefetcher no
llc_replacement drrip

Core_0_instructions 50000001
Core_0_cycles 36065180
Core_0_IPC 1.38638
Core_0_branch_prediction_accuracy 98.2025
Core_0_branch_MPKI 4.71486
Core_0_average_ROB_occupancy_at_mispredict 55.3537

Core_0_ITLB_total_access 6976510
Core_0_ITLB_total_hit 6910735
Core_0_ITLB_total_miss 65775
Core_0_ITLB_total_MPKI 1.3155
Core_0_ITLB_total_miss_rate 0.00942807
Core_0_ITLB_demand_access 6976510
Core_0_ITLB_demand_hit 6910735
Core_0_ITLB_demand_miss 65775
Core_0_ITLB_demand_MPKI 1.3155
Core_0_ITLB_demand_miss_rate 0.00942807
Core_0_ITLB_load_access 6976510
Core_0_ITLB_load_hit 6910735
Core_0_ITLB_load_miss 65775
Core_0_ITLB_load_MPKI 1.3155
Core_0_ITLB_load_miss_rate 0.00942807
Core_0_ITLB_rfo_access 0
Core_0_ITLB_rfo_hit 0
Core_0_ITLB_rfo_miss 0
Core_0_ITLB_rfo_MPKI 0
Core_0_ITLB_rfo_miss_rate 0
Core_0_ITLB_prefetch_access 0
Core_0_ITLB_prefetch_hit 0
Core_0_ITLB_prefetch_miss 0
Core_0_ITLB_prefetch_MPKI 0
Core_0_ITLB_prefetch_miss_rate 0
Core_0_ITLB_writeback_access 0
Core_0_ITLB_writeback_hit 0
Core_0_ITLB_writeback_miss 0
Core_0_ITLB_writeback_MPKI 0
Core_0_ITLB_writeback_miss_rate 0
Core_0_ITLB_prefetch_requested 0
Core_0_ITLB_prefetch_issued 0
Core_0_ITLB_prefetch_useful 0
Core_0_ITLB_prefetch_useless 0
Core_0_ITLB_prefetch_late 0
Core_0_ITLB_prefetch_accuracy 0
Core_0_ITLB_prefetch_coverage 0

Core_0_DTLB_total_access 11736493
Core_0_DTLB_total_hit 11103872
Core_0_DTLB_total_miss 632621
Core_0_DTLB_total_MPKI 12.6524
Core_0_DTLB_total_miss_rate 0.053902
Core_0_DTLB_demand_access 11736493
Core_0_DTLB_demand_hit 11103872
Core_0_DTLB_demand_miss 632621
Core_0_DTLB_demand_MPKI 12.6524
Core_0_DTLB_demand_miss_rate 0.053902
Core_0_DTLB_load_access 11736493
Core_0_DTLB_load_hit 11103872
Core_0_DTLB_load_miss 632621
Core_0_DTLB_load_MPKI 12.6524
Core_0_DTLB_load_miss_rate 0.053902
Core_0_DTLB_rfo_access 0
Core_0_DTLB_rfo_hit 0
Core_0_DTLB_rfo_miss 0
Core_0_DTLB_rfo_MPKI 0
Core_0_DTLB_rfo_miss_rate 0
Core_0_DTLB_prefetch_access 0
Core_0_DTLB_prefetch_hit 0
Core_0_DTLB_prefetch_miss 0
Core_0_DTLB_prefetch_MPKI 0
Core_0_DTLB_prefetch_miss_rate 0
Core_0_DTLB_writeback_access 0
Core_0_DTLB_writeback_hit 0
Core_0_DTLB_writeback_miss 0
Core_0_DTLB_writeback_MPKI 0
Core_0_DTLB_writeback_miss_rate 0
Core_0_DTLB_prefetch_requested 0
Core_0_DTLB_prefetch_issued 0
Core_0_DTLB_prefetch_useful 0
Core_0_DTLB_prefetch_useless 0
Core_0_DTLB_prefetch_late 0
Core_0_DTLB_prefetch_accuracy 0
Core_0_DTLB_prefetch_coverage 0

Core_0_STLB_total_access 420422
Core_0_STLB_total_hit 368868
Core_0_STLB_total_miss 51554
Core_0_STLB_total_MPKI 1.03108
Core_0_STLB_total_miss_rate 0.122624
Core_0_STLB_demand_access 420422
Core_0_STLB_demand_hit 368868
Core_0_STLB_demand_miss 51554
Core_0_STLB_demand_MPKI 1.03108
Core_0_STLB_demand_miss_rate 0.122624
Core_0_STLB_load_access 420422
Core_0_STLB_load_hit 368868
Core_0_STLB_load_miss 51554
Core_0_STLB_load_MPKI 1.03108
Core_0_STLB_load_miss_rate 0.122624
Core_0_STLB_rfo_access 0
Core_0_STLB_rfo_hit 0
Core_0_STLB_rfo_miss 0
Core_0_STLB_rfo_MPKI 0
Core_0_STLB_rfo_miss_rate 0
Core_0_STLB_prefetch_access 0
Core_0_STLB_prefetch_hit 0
Core_0_STLB_prefetch_miss 0
Core_0_STLB_prefetch_MPKI 0
Core_0_STLB_prefetch_miss_rate 0
Core_0_STLB_writeback_access 0
Core_0_STLB_writeback_hit 0
Core_0_STLB_writeback_miss 0
Core_0_STLB_writeback_MPKI 0
Core_0_STLB_writeback_miss_rate 0
Core_0_STLB_prefetch_requested 0
Core_0_STLB_prefetch_issued 0
Core_0_STLB_prefetch_useful 0
Core_0_STLB_prefetch_useless 0
Core_0_STLB_prefetch_late 0
Core_0_STLB_prefetch_accuracy 0
Core_0_STLB_prefetch_coverage 0

Core_0_L1I_total_access 7452327
Core_0_L1I_total_hit 7406328
Core_0_L1I_total_miss 45999
Core_0_L1I_total_MPKI 0.91998
Core_0_L1I_total_miss_rate 0.00617243
Core_0_L1I_demand_access 7452327
Core_0_L1I_demand_hit 7406328
Core_0_L1I_demand_miss 45999
Core_0_L1I_demand_MPKI 0.91998
Core_0_L1I_demand_miss_rate 0.00617243
Core_0_L1I_load_access 7452327
Core_0_L1I_load_hit 7406328
Core_0_L1I_load_miss 45999
Core_0_L1I_load_MPKI 0.91998
Core_0_L1I_load_miss_rate 0.00617243
Core_0_L1I_rfo_access 0
Core_0_L1I_rfo_hit 0
Core_0_L1I_rfo_miss 0
Core_0_L1I_rfo_MPKI 0
Core_0_L1I_rfo_miss_rate 0
Core_0_L1I_prefetch_access 0
Core_0_L1I_prefetch_hit 0
Core_0_L1I_prefetch_miss 0
Core_0_L1I_prefetch_MPKI 0
Core_0_L1I_prefetch_miss_rate 0
Core_0_L1I_writeback_access 0
Core_0_L1I_writeback_hit 0
Core_0_L1I_writeback_miss 0
Core_0_L1I_writeback_MPKI 0
Core_0_L1I_writeback_miss_rate 0
Core_0_L1I_prefetch_requested 0
Core_0_L1I_prefetch_issued 0
Core_0_L1I_prefetch_useful 0
Core_0_L1I_prefetch_useless 0
Core_0_L1I_prefetch_late 0
Core_0_L1I_prefetch_accuracy 0
Core_0_L1I_prefetch_coverage 0

Core_0_L1D_total_access 12310854
Core_0_L1D_total_hit 11656060
Core_0_L1D_total_miss 654794
Core_0_L1D_total_MPKI 13.0959
Core_0_L1D_total_miss_rate 0.0531883
Core_0_L1D_demand_access 8223647
Core_0_L1D_demand_hit 7960439
Core_0_L1D_demand_miss 263208
Core_0_L1D_demand_MPKI 5.26416
Core_0_L1D_demand_miss_rate 0.0320062
Core_0_L1D_load_access 8223647
Core_0_L1D_load_hit 7960439
Core_0_L1D_load_miss 263208
Core_0_L1D_load_MPKI 5.26416
Core_0_L1D_load_miss_rate 0.0320062
Core_0_L1D_rfo_access 0
Core_0_L1D_rfo_hit 0
Core_0_L1D_rfo_miss 0
Core_0_L1D_rfo_MPKI 0
Core_0_L1D_rfo_miss_rate 0
Core_0_L1D_prefetch_access 601842
Core_0_L1D_prefetch_hit 492775
Core_0_L1D_prefetch_miss 109067
Core_0_L1D_prefetch_MPKI 2.18134
Core_0_L1D_prefetch_miss_rate 0.181222
Core_0_L1D_writeback_access 3485365
Core_0_L1D_writeback_hit 3202846
Core_0_L1D_writeback_miss 282519
Core_0_L1D_writeback_MPKI 5.65038
Core_0_L1D_writeback_miss_rate 0.0810587
Core_0_L1D_prefetch_requested 608314
Core_0_L1D_prefetch_issued 601842
Core_0_L1D_prefetch_useful 72803
Core_0_L1D_prefetch_useless 24995
Core_0_L1D_prefetch_late 6651
Core_0_L1D_prefetch_accuracy 0.120967
Core_0_L1D_prefetch_coverage 0.216669

Core_0_L2C_total_access 910421
Core_0_L2C_total_hit 649026
Core_0_L2C_total_miss 261395
Core_0_L2C_total_MPKI 5.2279
Core_0_L2C_total_miss_rate 0.287114
Core_0_L2C_demand_access 280728
Core_0_L2C_demand_hit 167222
Core_0_L2C_demand_miss 113506
Core_0_L2C_demand_MPKI 2.27012
Core_0_L2C_demand_miss_rate 0.404327
Core_0_L2C_load_access 234483
Core_0_L2C_load_hit 161014
Core_0_L2C_load_miss 73469
Core_0_L2C_load_MPKI 1.46938
Core_0_L2C_load_miss_rate 0.313323
Core_0_L2C_rfo_access 46245
Core_0_L2C_rfo_hit 6208
Core_0_L2C_rfo_miss 40037
Core_0_L2C_rfo_MPKI 0.80074
Core_0_L2C_rfo_miss_rate 0.865758
Core_0_L2C_prefetch_access 516473
Core_0_L2C_prefetch_hit 368698
Core_0_L2C_prefetch_miss 147775
Core_0_L2C_prefetch_MPKI 2.9555
Core_0_L2C_prefetch_miss_rate 0.286123
Core_0_L2C_writeback_access 113220
Core_0_L2C_writeback_hit 113106
Core_0_L2C_writeback_miss 114
Core_0_L2C_writeback_MPKI 0.00228
Core_0_L2C_writeback_miss_rate 0.00100689
Core_0_L2C_prefetch_requested 420211
Core_0_L2C_prefetch_issued 418676
Core_0_L2C_prefetch_useful 30897
Core_0_L2C_prefetch_useless 66495
Core_0_L2C_prefetch_late 2977
Core_0_L2C_prefetch_accuracy 0.0737969
Core_0_L2C_prefetch_coverage 0.213964

Core_0_LLC_total_access 326975
Core_0_LLC_total_hit 108974
Core_0_LLC_total_miss 218001
Core_0_LLC_total_MPKI 4.36002
Core_0_LLC_total_miss_rate 0.666721
Core_0_LLC_demand_access 110529
Core_0_LLC_demand_hit 33187
Core_0_LLC_demand_miss 77342
Core_0_LLC_demand_MPKI 1.54684
Core_0_LLC_demand_miss_rate 0.699744
Core_0_LLC_load_access 70538
Core_0_LLC_load_hit 27509
Core_0_LLC_load_miss 43029
Core_0_LLC_load_MPKI 0.86058
Core_0_LLC_load_miss_rate 0.610012
Core_0_LLC_rfo_access 39991
Core_0_LLC_rfo_hit 5678
Core_0_LLC_rfo_miss 34313
Core_0_LLC_rfo_MPKI 0.68626
Core_0_LLC_rfo_miss_rate 0.858018
Core_0_LLC_prefetch_access 117791
Core_0_LLC_prefetch_hit 23768
Core_0_LLC_prefetch_miss 94023
Core_0_LLC_prefetch_MPKI 1.88046
Core_0_LLC_prefetch_miss_rate 0.798219
Core_0_LLC_writeback_access 98655
Core_0_LLC_writeback_hit 52019
Core_0_LLC_writeback_miss 46636
Core_0_LLC_writeback_MPKI 0.93272
Core_0_LLC_writeback_miss_rate 0.472718
Core_0_LLC_prefetch_requested 0
Core_0_LLC_prefetch_issued 0
Core_0_LLC_prefetch_useful 0
Core_0_LLC_prefetch_useless 0
Core_0_LLC_prefetch_late 0
Core_0_LLC_prefetch_accuracy 0
Core_0_LLC_prefetch_coverage 0

[DRAM Statistics]
Channel_0_RQ_row_buffer_hit 1636
Channel_0_RQ_row_buffer_miss 192525
Channel_0_WQ_row_buffer_hit 13017
Channel_0_WQ_row_buffer_miss 47874
Channel_0_WQ_full 0
Channel_0_dbus_congested 554611
DRAM_total_RQ_row_buffer_hit 1636
DRAM_total_RQ_row_buffer_miss 192525
DRAM_total_WQ_row_buffer_hit 13017
DRAM_total_WQ_row_buffer_miss 47874
DRAM_total_WQ_full 0
DRAM_total_dbus_congested 554611
DRAM_avg_congested_cycle 11.0702

======STLB miss causes ========
Core_0_STLB_miss_cause_breakdown
Core_0_STLB_cause_Demand_Data_miss 50958
Core_0_STLB_cause_Demand_Data_miss_rate 0.121207
Core_0_STLB_cause_Demand_Instruction_miss 596
Core_0_STLB_cause_Demand_Instruction_miss_rate 0.00141762
Core_0_STLB_cause_L1D_Prefetch_miss 0
Core_0_STLB_cause_L1D_Prefetch_miss_rate 0
Core_0_STLB_cause_L1I_Prefetch_miss 0
Core_0_STLB_cause_L1I_Prefetch_miss_rate 0
Core_0_STLB_cause_Other_miss 0
Core_0_STLB_cause_Other_miss_rate 0
Core_0_STLB_Demand_miss 51554
Core_0_STLB_Demand_miss_rate 0.122624
Core_0_STLB_L1D_Prefetch_miss 0
Core_0_STLB_L1D_Prefetch_miss_rate 0
Core_0_STLB_Other_miss 0
Core_0_STLB_Other_miss_rate 0
