[VMEM] WARNING: physical memory size is smaller than virtual memory size.

*** ChampSim Multicore Out-of-Order Simulator ***
Warmup Instructions: 50000000
Simulation Instructions: 100000000
Number of CPUs: 1
Page size: 4096
Core 0: /data0/tzh/champsim_traces/SPEC06/429.mcf-184B.champsimtrace.xz
VBerti Prefetcher
BERTI HASH ENTANGLING
BERTI IP MASK ffff
Off-chip DRAM Size: 16 GiB Channels: 1 Width: 64-bit Data Rate: 3205 MT/s
Warmup halting CPU 0 at instruction 50000002 cycle 13136135 for remainder of phase
Warmup finished CPU 0 instructions: 50000002 cycles: 13136135 cumulative IPC: 3.806 (Simulation time: 00 hr 03 min 42 sec)
Warmup complete CPU 0 instructions: 50000002 cycles: 13136135 cumulative IPC: 3.806 (Simulation time: 00 hr 03 min 42 sec)
Simulation finished CPU 0 instructions: 100000001 cycles: 824823780 cumulative IPC: 0.1212 (Simulation time: 01 hr 13 min 45 sec)
Simulation complete CPU 0 instructions: 100000001 cycles: 824823780 cumulative IPC: 0.1212 (Simulation time: 01 hr 13 min 45 sec)

ChampSim completed all CPUs

=== Simulation ===
CPU 0 runs /data0/tzh/champsim_traces/SPEC06/429.mcf-184B.champsimtrace.xz

Region of Interest Statistics

CPU 0 cumulative IPC: 0.1212 instructions: 100000001 cycles: 824823780
CPU 0 Branch Prediction Accuracy: 93.42% MPKI: 15.87 Average ROB Occupancy at Mispredict: 54.54
Branch type MPKI
BRANCH_DIRECT_JUMP: 0.6636
BRANCH_INDIRECT: 0
BRANCH_CONDITIONAL: 15.2
BRANCH_DIRECT_CALL: 0
BRANCH_INDIRECT_CALL: 0
BRANCH_RETURN: 0

cpu0->cpu0_STLB TOTAL        ACCESS:    9992848 HIT:    9083589 MISS:     909259 MSHR_MERGE:          0
cpu0->cpu0_STLB LOAD         ACCESS:    9992848 HIT:    9083589 MISS:     909259 MSHR_MERGE:          0
cpu0->cpu0_STLB RFO          ACCESS:          0 HIT:          0 MISS:          0 MSHR_MERGE:          0
cpu0->cpu0_STLB PREFETCH     ACCESS:          0 HIT:          0 MISS:          0 MSHR_MERGE:          0
cpu0->cpu0_STLB WRITE        ACCESS:          0 HIT:          0 MISS:          0 MSHR_MERGE:          0
cpu0->cpu0_STLB TRANSLATION  ACCESS:          0 HIT:          0 MISS:          0 MSHR_MERGE:          0
cpu0->cpu0_STLB PREFETCH REQUESTED:          0 ISSUED:          0 USEFUL:          0 USELESS:          0 LATE:          0 TOO_EARLY:          0
cpu0->cpu0_STLB AVERAGE MISS LATENCY: 139.3 cycles
cpu0->cpu0_L2C TOTAL        ACCESS:   14844714 HIT:    5820608 MISS:    9024106 MSHR_MERGE:       2729
cpu0->cpu0_L2C LOAD         ACCESS:   11804240 HIT:    3464657 MISS:    8339583 MSHR_MERGE:        125
cpu0->cpu0_L2C RFO          ACCESS:     160382 HIT:      53581 MISS:     106801 MSHR_MERGE:          0
cpu0->cpu0_L2C PREFETCH     ACCESS:     292767 HIT:     251966 MISS:      40801 MSHR_MERGE:       2604
cpu0->cpu0_L2C WRITE        ACCESS:    1730831 HIT:    1730656 MISS:        175 MSHR_MERGE:          0
cpu0->cpu0_L2C TRANSLATION  ACCESS:     856494 HIT:     319748 MISS:     536746 MSHR_MERGE:          0
cpu0->cpu0_L2C PREFETCH REQUESTED:      25080 ISSUED:      25080 USEFUL:       3474 USELESS:       8240 LATE:         91 TOO_EARLY:        878
cpu0->cpu0_L2C AVERAGE MISS LATENCY: 172.1 cycles
cpu0->cpu0_L1I TOTAL        ACCESS:    1415570 HIT:    1415570 MISS:          0 MSHR_MERGE:          0
cpu0->cpu0_L1I LOAD         ACCESS:    1415570 HIT:    1415570 MISS:          0 MSHR_MERGE:          0
cpu0->cpu0_L1I RFO          ACCESS:          0 HIT:          0 MISS:          0 MSHR_MERGE:          0
cpu0->cpu0_L1I PREFETCH     ACCESS:          0 HIT:          0 MISS:          0 MSHR_MERGE:          0
cpu0->cpu0_L1I WRITE        ACCESS:          0 HIT:          0 MISS:          0 MSHR_MERGE:          0
cpu0->cpu0_L1I TRANSLATION  ACCESS:          0 HIT:          0 MISS:          0 MSHR_MERGE:          0
cpu0->cpu0_L1I PREFETCH REQUESTED:          0 ISSUED:          0 USEFUL:          0 USELESS:          0 LATE:          0 TOO_EARLY:          0
cpu0->cpu0_L1I AVERAGE MISS LATENCY: - cycles
cpu0->cpu0_L1D TOTAL        ACCESS:   32167149 HIT:   15334778 MISS:   16832371 MSHR_MERGE:    3716624
cpu0->cpu0_L1D LOAD         ACCESS:   24851242 HIT:    9369160 MISS:   15482082 MSHR_MERGE:    3677819
cpu0->cpu0_L1D RFO          ACCESS:          0 HIT:          0 MISS:          0 MSHR_MERGE:          0
cpu0->cpu0_L1D PREFETCH     ACCESS:    1759847 HIT:    1463042 MISS:     296805 MSHR_MERGE:       2202
cpu0->cpu0_L1D WRITE        ACCESS:    3412284 HIT:    3237259 MISS:     175025 MSHR_MERGE:      14638
cpu0->cpu0_L1D TRANSLATION  ACCESS:    2143776 HIT:    1265317 MISS:     878459 MSHR_MERGE:      21965
cpu0->cpu0_L1D PREFETCH REQUESTED:    1956070 ISSUED:    1759847 USEFUL:      15845 USELESS:      26117 LATE:        649 TOO_EARLY:        418
cpu0->cpu0_L1D AVERAGE MISS LATENCY: 129.3 cycles
cpu0->cpu0_ITLB TOTAL        ACCESS:    1261989 HIT:    1261989 MISS:          0 MSHR_MERGE:          0
cpu0->cpu0_ITLB LOAD         ACCESS:    1261989 HIT:    1261989 MISS:          0 MSHR_MERGE:          0
cpu0->cpu0_ITLB RFO          ACCESS:          0 HIT:          0 MISS:          0 MSHR_MERGE:          0
cpu0->cpu0_ITLB PREFETCH     ACCESS:          0 HIT:          0 MISS:          0 MSHR_MERGE:          0
cpu0->cpu0_ITLB WRITE        ACCESS:          0 HIT:          0 MISS:          0 MSHR_MERGE:          0
cpu0->cpu0_ITLB TRANSLATION  ACCESS:          0 HIT:          0 MISS:          0 MSHR_MERGE:          0
cpu0->cpu0_ITLB PREFETCH REQUESTED:          0 ISSUED:          0 USEFUL:          0 USELESS:          0 LATE:          0 TOO_EARLY:          0
cpu0->cpu0_ITLB AVERAGE MISS LATENCY: - cycles
cpu0->cpu0_DTLB TOTAL        ACCESS:   29082864 HIT:   15097002 MISS:   13985862 MSHR_MERGE:    3993013
cpu0->cpu0_DTLB LOAD         ACCESS:   29082864 HIT:   15097002 MISS:   13985862 MSHR_MERGE:    3993013
cpu0->cpu0_DTLB RFO          ACCESS:          0 HIT:          0 MISS:          0 MSHR_MERGE:          0
cpu0->cpu0_DTLB PREFETCH     ACCESS:          0 HIT:          0 MISS:          0 MSHR_MERGE:          0
cpu0->cpu0_DTLB WRITE        ACCESS:          0 HIT:          0 MISS:          0 MSHR_MERGE:          0
cpu0->cpu0_DTLB TRANSLATION  ACCESS:          0 HIT:          0 MISS:          0 MSHR_MERGE:          0
cpu0->cpu0_DTLB PREFETCH REQUESTED:          0 ISSUED:          0 USEFUL:          0 USELESS:          0 LATE:          0 TOO_EARLY:          0
cpu0->cpu0_DTLB AVERAGE MISS LATENCY: 17.77 cycles
cpu0->LLC TOTAL        ACCESS:   10222119 HIT:    3027611 MISS:    7194508 MSHR_MERGE:         15
cpu0->LLC LOAD         ACCESS:    8339457 HIT:    2242464 MISS:    6096993 MSHR_MERGE:          2
cpu0->LLC RFO          ACCESS:     106801 HIT:      35352 MISS:      71449 MSHR_MERGE:          0
cpu0->LLC PREFETCH     ACCESS:      38197 HIT:       8789 MISS:      29408 MSHR_MERGE:         13
cpu0->LLC WRITE        ACCESS:    1200918 HIT:     579973 MISS:     620945 MSHR_MERGE:          0
cpu0->LLC TRANSLATION  ACCESS:     536746 HIT:     161033 MISS:     375713 MSHR_MERGE:          0
cpu0->LLC PREFETCH REQUESTED:          0 ISSUED:          0 USEFUL:          0 USELESS:          0 LATE:          0 TOO_EARLY:          0
cpu0->LLC AVERAGE MISS LATENCY: 196.8 cycles

DRAM Statistics

Channel 0 RQ ROW_BUFFER_HIT:       8016
  ROW_BUFFER_MISS:    6565119
  AVG DBUS CONGESTED CYCLE: 9.709
Channel 0 WQ ROW_BUFFER_HIT:     273619
  ROW_BUFFER_MISS:     677915
  FULL:          0
Channel 0 REFRESHES ISSUED:      68735

[ROI Statistics]
[System Configuration]
num_cpus 1
cpu_freq 4000
fetch_width 6
decode_width 6
dispatch_width 6
execute_width 6
lq_width 2
sq_width 2
retire_width 6
scheduler_size 128
branch_mispredict_penalty 15
rob_size 352
lq_size 128
sq_size 72
ifetch_buffer_size 64
decode_buffer_size 32
dispatch_buffer_size 32
register_file_size 288
decode_latency 1
dispatch_latency 1
schedule_latency 1
execute_latency 1
page_size 4096
block_size 64
core_0_itlb_set 16
core_0_itlb_way 4
core_0_itlb_rq_size 16
core_0_itlb_wq_size 16
core_0_itlb_pq_size 0
core_0_itlb_mshr_size 8
core_0_itlb_hit_latency 1
core_0_itlb_fill_latency 1
core_0_itlb_max_tag_check 2
core_0_itlb_max_fill 2
core_0_dtlb_set 16
core_0_dtlb_way 4
core_0_dtlb_rq_size 16
core_0_dtlb_wq_size 16
core_0_dtlb_pq_size 0
core_0_dtlb_mshr_size 8
core_0_dtlb_hit_latency 1
core_0_dtlb_fill_latency 1
core_0_dtlb_max_tag_check 2
core_0_dtlb_max_fill 2
core_0_stlb_set 128
core_0_stlb_way 12
core_0_stlb_rq_size 32
core_0_stlb_wq_size 32
core_0_stlb_pq_size 0
core_0_stlb_mshr_size 16
core_0_stlb_hit_latency 4
core_0_stlb_fill_latency 4
core_0_stlb_max_tag_check 1
core_0_stlb_max_fill 1
core_0_l1i_set 64
core_0_l1i_way 8
core_0_l1i_rq_size 64
core_0_l1i_wq_size 64
core_0_l1i_pq_size 32
core_0_l1i_mshr_size 8
core_0_l1i_hit_latency 2
core_0_l1i_fill_latency 2
core_0_l1i_max_tag_check 2
core_0_l1i_max_fill 2
core_0_l1d_set 64
core_0_l1d_way 12
core_0_l1d_rq_size 64
core_0_l1d_wq_size 64
core_0_l1d_pq_size 8
core_0_l1d_mshr_size 16
core_0_l1d_hit_latency 2
core_0_l1d_fill_latency 3
core_0_l1d_max_tag_check 2
core_0_l1d_max_fill 2
core_0_l2c_set 1024
core_0_l2c_way 8
core_0_l2c_rq_size 32
core_0_l2c_wq_size 32
core_0_l2c_pq_size 16
core_0_l2c_mshr_size 32
core_0_l2c_hit_latency 5
core_0_l2c_fill_latency 5
core_0_l2c_max_tag_check 1
core_0_l2c_max_fill 1
llc_set 2048
llc_way 16
llc_rq_size 32
llc_wq_size 32
llc_pq_size 32
llc_mshr_size 64
llc_hit_latency 10
llc_fill_latency 10
llc_max_tag_check 1
llc_max_fill 1
dram_channels 1
dram_ranks 1
dram_bankgroups 8
dram_banks 4
dram_rows 65536
dram_columns 1024
dram_channel_width 8
dram_rq_size 64
dram_wq_size 64
dram_size 17179869184
core_0_itlb_prefetcher no
core_0_dtlb_prefetcher no
core_0_stlb_prefetcher no
core_0_l1i_prefetcher next_line
core_0_l1d_prefetcher vberti
core_0_l2c_prefetcher ip_stride
llc_prefetcher no
llc_replacement drrip

Core_0_instructions 100000001
Core_0_cycles 824823780
Core_0_IPC 0.121238
Core_0_branch_prediction_accuracy 93.4186
Core_0_branch_MPKI 15.8681
Core_0_average_ROB_occupancy_at_mispredict 54.5367

Core_0_ITLB_total_access 1261989
Core_0_ITLB_total_hit 1261989
Core_0_ITLB_total_miss 0
Core_0_ITLB_total_MPKI 0
Core_0_ITLB_total_miss_rate 0
Core_0_ITLB_demand_access 1261989
Core_0_ITLB_demand_hit 1261989
Core_0_ITLB_demand_miss 0
Core_0_ITLB_demand_MPKI 0
Core_0_ITLB_demand_miss_rate 0
Core_0_ITLB_load_access 1261989
Core_0_ITLB_load_hit 1261989
Core_0_ITLB_load_miss 0
Core_0_ITLB_load_MPKI 0
Core_0_ITLB_load_miss_rate 0
Core_0_ITLB_rfo_access 0
Core_0_ITLB_rfo_hit 0
Core_0_ITLB_rfo_miss 0
Core_0_ITLB_rfo_MPKI 0
Core_0_ITLB_rfo_miss_rate 0
Core_0_ITLB_prefetch_access 0
Core_0_ITLB_prefetch_hit 0
Core_0_ITLB_prefetch_miss 0
Core_0_ITLB_prefetch_MPKI 0
Core_0_ITLB_prefetch_miss_rate 0
Core_0_ITLB_writeback_access 0
Core_0_ITLB_writeback_hit 0
Core_0_ITLB_writeback_miss 0
Core_0_ITLB_writeback_MPKI 0
Core_0_ITLB_writeback_miss_rate 0
Core_0_ITLB_prefetch_requested 0
Core_0_ITLB_prefetch_issued 0
Core_0_ITLB_prefetch_useful 0
Core_0_ITLB_prefetch_useless 0
Core_0_ITLB_prefetch_late 0
Core_0_ITLB_prefetch_fill 0
Core_0_ITLB_prefetch_too_early 0
Core_0_ITLB_prefetch_too_early_among_fill 0
Core_0_ITLB_prefetch_too_early_among_useless 0
Core_0_ITLB_prefetch_pollution_evict 0
Core_0_ITLB_prefetch_pollution_demand 0
Core_0_ITLB_prefetch_pollution_among_prefetch_fill 0
Core_0_ITLB_prefetch_accuracy 0
Core_0_ITLB_prefetch_coverage 0

Core_0_DTLB_total_access 29082864
Core_0_DTLB_total_hit 15097002
Core_0_DTLB_total_miss 13985862
Core_0_DTLB_total_MPKI 139.859
Core_0_DTLB_total_miss_rate 0.480897
Core_0_DTLB_demand_access 29082864
Core_0_DTLB_demand_hit 15097002
Core_0_DTLB_demand_miss 13985862
Core_0_DTLB_demand_MPKI 139.859
Core_0_DTLB_demand_miss_rate 0.480897
Core_0_DTLB_load_access 29082864
Core_0_DTLB_load_hit 15097002
Core_0_DTLB_load_miss 13985862
Core_0_DTLB_load_MPKI 139.859
Core_0_DTLB_load_miss_rate 0.480897
Core_0_DTLB_rfo_access 0
Core_0_DTLB_rfo_hit 0
Core_0_DTLB_rfo_miss 0
Core_0_DTLB_rfo_MPKI 0
Core_0_DTLB_rfo_miss_rate 0
Core_0_DTLB_prefetch_access 0
Core_0_DTLB_prefetch_hit 0
Core_0_DTLB_prefetch_miss 0
Core_0_DTLB_prefetch_MPKI 0
Core_0_DTLB_prefetch_miss_rate 0
Core_0_DTLB_writeback_access 0
Core_0_DTLB_writeback_hit 0
Core_0_DTLB_writeback_miss 0
Core_0_DTLB_writeback_MPKI 0
Core_0_DTLB_writeback_miss_rate 0
Core_0_DTLB_prefetch_requested 0
Core_0_DTLB_prefetch_issued 0
Core_0_DTLB_prefetch_useful 0
Core_0_DTLB_prefetch_useless 0
Core_0_DTLB_prefetch_late 0
Core_0_DTLB_prefetch_fill 0
Core_0_DTLB_prefetch_too_early 0
Core_0_DTLB_prefetch_too_early_among_fill 0
Core_0_DTLB_prefetch_too_early_among_useless 0
Core_0_DTLB_prefetch_pollution_evict 0
Core_0_DTLB_prefetch_pollution_demand 0
Core_0_DTLB_prefetch_pollution_among_prefetch_fill 0
Core_0_DTLB_prefetch_accuracy 0
Core_0_DTLB_prefetch_coverage 0

Core_0_STLB_total_access 9992848
Core_0_STLB_total_hit 9083589
Core_0_STLB_total_miss 909259
Core_0_STLB_total_MPKI 9.09259
Core_0_STLB_total_miss_rate 0.090991
Core_0_STLB_demand_access 9992848
Core_0_STLB_demand_hit 9083589
Core_0_STLB_demand_miss 909259
Core_0_STLB_demand_MPKI 9.09259
Core_0_STLB_demand_miss_rate 0.090991
Core_0_STLB_load_access 9992848
Core_0_STLB_load_hit 9083589
Core_0_STLB_load_miss 909259
Core_0_STLB_load_MPKI 9.09259
Core_0_STLB_load_miss_rate 0.090991
Core_0_STLB_rfo_access 0
Core_0_STLB_rfo_hit 0
Core_0_STLB_rfo_miss 0
Core_0_STLB_rfo_MPKI 0
Core_0_STLB_rfo_miss_rate 0
Core_0_STLB_prefetch_access 0
Core_0_STLB_prefetch_hit 0
Core_0_STLB_prefetch_miss 0
Core_0_STLB_prefetch_MPKI 0
Core_0_STLB_prefetch_miss_rate 0
Core_0_STLB_writeback_access 0
Core_0_STLB_writeback_hit 0
Core_0_STLB_writeback_miss 0
Core_0_STLB_writeback_MPKI 0
Core_0_STLB_writeback_miss_rate 0
Core_0_STLB_prefetch_requested 0
Core_0_STLB_prefetch_issued 0
Core_0_STLB_prefetch_useful 0
Core_0_STLB_prefetch_useless 0
Core_0_STLB_prefetch_late 0
Core_0_STLB_prefetch_fill 0
Core_0_STLB_prefetch_too_early 0
Core_0_STLB_prefetch_too_early_among_fill 0
Core_0_STLB_prefetch_too_early_among_useless 0
Core_0_STLB_prefetch_pollution_evict 0
Core_0_STLB_prefetch_pollution_demand 0
Core_0_STLB_prefetch_pollution_among_prefetch_fill 0
Core_0_STLB_prefetch_accuracy 0
Core_0_STLB_prefetch_coverage 0

Core_0_L1I_total_access 1415570
Core_0_L1I_total_hit 1415570
Core_0_L1I_total_miss 0
Core_0_L1I_total_MPKI 0
Core_0_L1I_total_miss_rate 0
Core_0_L1I_demand_access 1415570
Core_0_L1I_demand_hit 1415570
Core_0_L1I_demand_miss 0
Core_0_L1I_demand_MPKI 0
Core_0_L1I_demand_miss_rate 0
Core_0_L1I_load_access 1415570
Core_0_L1I_load_hit 1415570
Core_0_L1I_load_miss 0
Core_0_L1I_load_MPKI 0
Core_0_L1I_load_miss_rate 0
Core_0_L1I_rfo_access 0
Core_0_L1I_rfo_hit 0
Core_0_L1I_rfo_miss 0
Core_0_L1I_rfo_MPKI 0
Core_0_L1I_rfo_miss_rate 0
Core_0_L1I_prefetch_access 0
Core_0_L1I_prefetch_hit 0
Core_0_L1I_prefetch_miss 0
Core_0_L1I_prefetch_MPKI 0
Core_0_L1I_prefetch_miss_rate 0
Core_0_L1I_writeback_access 0
Core_0_L1I_writeback_hit 0
Core_0_L1I_writeback_miss 0
Core_0_L1I_writeback_MPKI 0
Core_0_L1I_writeback_miss_rate 0
Core_0_L1I_prefetch_requested 0
Core_0_L1I_prefetch_issued 0
Core_0_L1I_prefetch_useful 0
Core_0_L1I_prefetch_useless 0
Core_0_L1I_prefetch_late 0
Core_0_L1I_prefetch_fill 0
Core_0_L1I_prefetch_too_early 0
Core_0_L1I_prefetch_too_early_among_fill 0
Core_0_L1I_prefetch_too_early_among_useless 0
Core_0_L1I_prefetch_pollution_evict 0
Core_0_L1I_prefetch_pollution_demand 0
Core_0_L1I_prefetch_pollution_among_prefetch_fill 0
Core_0_L1I_prefetch_accuracy 0
Core_0_L1I_prefetch_coverage 0

Core_0_L1D_total_access 30023373
Core_0_L1D_total_hit 14069461
Core_0_L1D_total_miss 15953912
Core_0_L1D_total_MPKI 159.539
Core_0_L1D_total_miss_rate 0.531383
Core_0_L1D_demand_access 24851242
Core_0_L1D_demand_hit 9369160
Core_0_L1D_demand_miss 15482082
Core_0_L1D_demand_MPKI 154.821
Core_0_L1D_demand_miss_rate 0.62299
Core_0_L1D_load_access 24851242
Core_0_L1D_load_hit 9369160
Core_0_L1D_load_miss 15482082
Core_0_L1D_load_MPKI 154.821
Core_0_L1D_load_miss_rate 0.62299
Core_0_L1D_rfo_access 0
Core_0_L1D_rfo_hit 0
Core_0_L1D_rfo_miss 0
Core_0_L1D_rfo_MPKI 0
Core_0_L1D_rfo_miss_rate 0
Core_0_L1D_prefetch_access 1759847
Core_0_L1D_prefetch_hit 1463042
Core_0_L1D_prefetch_miss 296805
Core_0_L1D_prefetch_MPKI 2.96805
Core_0_L1D_prefetch_miss_rate 0.168654
Core_0_L1D_writeback_access 3412284
Core_0_L1D_writeback_hit 3237259
Core_0_L1D_writeback_miss 175025
Core_0_L1D_writeback_MPKI 1.75025
Core_0_L1D_writeback_miss_rate 0.0512926
Core_0_L1D_prefetch_requested 1956070
Core_0_L1D_prefetch_issued 1759847
Core_0_L1D_prefetch_useful 15845
Core_0_L1D_prefetch_useless 26117
Core_0_L1D_prefetch_late 649
Core_0_L1D_prefetch_fill 41313
Core_0_L1D_prefetch_too_early 418
Core_0_L1D_prefetch_too_early_among_fill 0.0101179
Core_0_L1D_prefetch_too_early_among_useless 0.0160049
Core_0_L1D_prefetch_pollution_evict 29579
Core_0_L1D_prefetch_pollution_demand 29575
Core_0_L1D_prefetch_pollution_among_prefetch_fill 0.715973
Core_0_L1D_prefetch_accuracy 0.00900362
Core_0_L1D_prefetch_coverage 0.00102239

Core_0_L2C_total_access 13988220
Core_0_L2C_total_hit 5500860
Core_0_L2C_total_miss 8487360
Core_0_L2C_total_MPKI 84.8736
Core_0_L2C_total_miss_rate 0.606751
Core_0_L2C_demand_access 11964622
Core_0_L2C_demand_hit 3518238
Core_0_L2C_demand_miss 8446384
Core_0_L2C_demand_MPKI 84.4638
Core_0_L2C_demand_miss_rate 0.705947
Core_0_L2C_load_access 11804240
Core_0_L2C_load_hit 3464657
Core_0_L2C_load_miss 8339583
Core_0_L2C_load_MPKI 83.3958
Core_0_L2C_load_miss_rate 0.70649
Core_0_L2C_rfo_access 160382
Core_0_L2C_rfo_hit 53581
Core_0_L2C_rfo_miss 106801
Core_0_L2C_rfo_MPKI 1.06801
Core_0_L2C_rfo_miss_rate 0.665916
Core_0_L2C_prefetch_access 292767
Core_0_L2C_prefetch_hit 251966
Core_0_L2C_prefetch_miss 40801
Core_0_L2C_prefetch_MPKI 0.40801
Core_0_L2C_prefetch_miss_rate 0.139363
Core_0_L2C_writeback_access 1730831
Core_0_L2C_writeback_hit 1730656
Core_0_L2C_writeback_miss 175
Core_0_L2C_writeback_MPKI 0.00175
Core_0_L2C_writeback_miss_rate 0.000101108
Core_0_L2C_prefetch_requested 25080
Core_0_L2C_prefetch_issued 25080
Core_0_L2C_prefetch_useful 3474
Core_0_L2C_prefetch_useless 8240
Core_0_L2C_prefetch_late 91
Core_0_L2C_prefetch_fill 37976
Core_0_L2C_prefetch_too_early 878
Core_0_L2C_prefetch_too_early_among_fill 0.0231199
Core_0_L2C_prefetch_too_early_among_useless 0.106553
Core_0_L2C_prefetch_pollution_evict 26828
Core_0_L2C_prefetch_pollution_demand 26825
Core_0_L2C_prefetch_pollution_among_prefetch_fill 0.706446
Core_0_L2C_prefetch_accuracy 0.138517
Core_0_L2C_prefetch_coverage 0.000411131

Core_0_LLC_total_access 9685373
Core_0_LLC_total_hit 2866578
Core_0_LLC_total_miss 6818795
Core_0_LLC_total_MPKI 68.1879
Core_0_LLC_total_miss_rate 0.70403
Core_0_LLC_demand_access 8446258
Core_0_LLC_demand_hit 2277816
Core_0_LLC_demand_miss 6168442
Core_0_LLC_demand_MPKI 61.6844
Core_0_LLC_demand_miss_rate 0.730317
Core_0_LLC_load_access 8339457
Core_0_LLC_load_hit 2242464
Core_0_LLC_load_miss 6096993
Core_0_LLC_load_MPKI 60.9699
Core_0_LLC_load_miss_rate 0.731102
Core_0_LLC_rfo_access 106801
Core_0_LLC_rfo_hit 35352
Core_0_LLC_rfo_miss 71449
Core_0_LLC_rfo_MPKI 0.71449
Core_0_LLC_rfo_miss_rate 0.668992
Core_0_LLC_prefetch_access 38197
Core_0_LLC_prefetch_hit 8789
Core_0_LLC_prefetch_miss 29408
Core_0_LLC_prefetch_MPKI 0.29408
Core_0_LLC_prefetch_miss_rate 0.769903
Core_0_LLC_writeback_access 1200918
Core_0_LLC_writeback_hit 579973
Core_0_LLC_writeback_miss 620945
Core_0_LLC_writeback_MPKI 6.20945
Core_0_LLC_writeback_miss_rate 0.517059
Core_0_LLC_prefetch_requested 0
Core_0_LLC_prefetch_issued 0
Core_0_LLC_prefetch_useful 0
Core_0_LLC_prefetch_useless 0
Core_0_LLC_prefetch_late 0
Core_0_LLC_prefetch_fill 29393
Core_0_LLC_prefetch_too_early 0
Core_0_LLC_prefetch_too_early_among_fill 0
Core_0_LLC_prefetch_too_early_among_useless 0
Core_0_LLC_prefetch_pollution_evict 17058
Core_0_LLC_prefetch_pollution_demand 17058
Core_0_LLC_prefetch_pollution_among_prefetch_fill 0.580342
Core_0_LLC_prefetch_accuracy 0
Core_0_LLC_prefetch_coverage 0

[DRAM Statistics]
Channel_0_RQ_row_buffer_hit 8016
Channel_0_RQ_row_buffer_miss 6565119
Channel_0_WQ_row_buffer_hit 273619
Channel_0_WQ_row_buffer_miss 677915
Channel_0_WQ_full 0
Channel_0_dbus_congested 15215847
DRAM_total_RQ_row_buffer_hit 8016
DRAM_total_RQ_row_buffer_miss 6565119
DRAM_total_WQ_row_buffer_hit 273619
DRAM_total_WQ_row_buffer_miss 677915
DRAM_total_WQ_full 0
DRAM_total_dbus_congested 15215847
DRAM_avg_congested_cycle 9.70922

====== DRAM_RQ_TRAFFIC ========
DRAM_RQ_READ_TRAFFIC_BREAKDOWN:
data_demand_read.count = 6168440
data_demand_read.share = 93.84%

inst_demand_read.count = 0
inst_demand_read.share = 0.00%

cache_inst_prefetch.count = 0
cache_inst_prefetch.share = 0.00%

cache_data_prefetch.count = 29395
cache_data_prefetch.share = 0.45%

stlb_data_demand.count = 375690
stlb_data_demand.share = 5.72%

stlb_inst_demand.count = 0
stlb_inst_demand.share = 0.00%

stlb_l1i_pref.count = 0
stlb_l1i_pref.share = 0.00%

stlb_l1d_pref.count = 23
stlb_l1d_pref.share = 0.00%

DRAM_RQ_READ_TRAFFIC_SUMMARY:
cache_demand.count = 6168440
cache_demand.share = 93.84%

cache_prefetch.count = 29395
cache_prefetch.share = 0.45%

stlb_demand.count = 375690
stlb_demand.share = 5.72%

stlb_prefetch.count = 23
stlb_prefetch.share = 0.00%

DRAM_RQ_READ_TRAFFIC_DEBUG:
total_classified_read.count = 6573548
unclassified_read.count = 0
total_read_with_other.count = 6573548

classified_plus_unclassified_check.count = 6573548
dram_rq_read_total_observed.count = 6573548
dram_rq_read_total_observed.per_1K_instructions = 65.7355

STLB_MISS_PTW_DRAM_TOUCH_BREAKDOWN:
stlb_miss_total.count = 909259

stlb_miss_touch_dram.count = 383009
stlb_miss_touch_dram.share = 42.12%

stlb_miss_no_dram_touch.count = 526250
stlb_miss_no_dram_touch.share = 57.88%

STLB_MISS_PTW_DRAM_TOUCH_DEBUG:
stlb_miss_touch_plus_no_touch.count = 909259
stlb_miss_total_check.count = 909259

======STLB miss causes ========
Core_0_STLB_miss_cause_breakdown
Core_0_STLB_cause_Demand_Data_miss 908561
Core_0_STLB_cause_Demand_Data_miss_rate 0.0909211
Core_0_STLB_cause_Demand_Instruction_miss 0
Core_0_STLB_cause_Demand_Instruction_miss_rate 0
Core_0_STLB_cause_L1D_Prefetch_miss 698
Core_0_STLB_cause_L1D_Prefetch_miss_rate 6.985e-05
Core_0_STLB_cause_L1D_Prefetch_Same_Page_miss 0
Core_0_STLB_cause_L1D_Prefetch_Same_Page_miss_rate 0
Core_0_STLB_cause_L1D_Prefetch_Cross_Page_miss 698
Core_0_STLB_cause_L1D_Prefetch_Cross_Page_miss_rate 6.985e-05
Core_0_STLB_cause_L1I_Prefetch_miss 0
Core_0_STLB_cause_L1I_Prefetch_miss_rate 0
Core_0_STLB_cause_Other_miss 0
Core_0_STLB_cause_Other_miss_rate 0
Core_0_STLB_Demand_miss 908561
Core_0_STLB_Demand_miss_rate 0.0909211
Core_0_STLB_L1D_Prefetch_miss 698
Core_0_STLB_L1D_Prefetch_miss_rate 6.985e-05
Core_0_STLB_Other_miss 0
Core_0_STLB_Other_miss_rate 0

========== vBerti-TLB Cross-page Flow Stats ==========

Core_0_vBerti_Requested 1956070
Core_0_vBerti_Cross_page_prefetch_in_Requested 656482
Core_0_vBerti_Same_page_prefetch_in_Requested 1299588
Core_0_vBerti_Cross_page_prefetch_of_Requested 0.335613
Core_0_vBerti_Issued 1759847
Core_0_vBerti_PQ_Drop_Rate 0.100315
Core_0_vBerti_InPQ_Cross_page_prefetch_of_Requested 0.284191
Core_0_vBerti_Cross_page_PQ_Drop_rate 0.153218
Core_0_vBerti_Cross_page_prefetch_of_Issued 0.315878

========= DTLB_vBerti Prefetch Stats =========
Core_0_DTLB_demand_access 27860677
Core_0_DTLB_demand_hit 13987959
Core_0_DTLB_demand_miss 13872718
Core_0_DTLB_demand_mshr_merge 3966886
Core_0_DTLB_demand_fill 9905841
Core_0_DTLB_demand_miss_rate 0.497932
Core_0_DTLB_demand_mpki 138.727
Core_0_DTLB_vberti_prefetch_access 1222187
Core_0_DTLB_vberti_prefetch_hit 1109043
Core_0_DTLB_vberti_prefetch_miss 113144
Core_0_DTLB_vberti_prefetch_mshr_merge 26127
Core_0_DTLB_vberti_prefetch_fill 87007
Core_0_DTLB_vberti_prefetch_miss_rate 0.092575
Core_0_DTLB_vberti_prefetch_mpki 1.13144

=== DTLB_vBerti Same/Cross-page Prefetch Stats ===
Core_0_DTLB_vberti_same_page_prefetch 741074
Core_0_DTLB_vberti_same_page_prefetch_hit 741074
Core_0_DTLB_vberti_same_page_prefetch_miss 0
Core_0_DTLB_vberti_same_page_prefetch_mshr_merge 0
Core_0_DTLB_vberti_same_page_prefetch_fill 0
Core_0_DTLB_vberti_same_page_prefetch_miss_rate 0
Core_0_DTLB_vberti_same_page_prefetch_mpki 0
Core_0_DTLB_vberti_cross_page_prefetch 481113
Core_0_DTLB_vberti_cross_page_prefetch_hit 367969
Core_0_DTLB_vberti_cross_page_prefetch_miss 113144
Core_0_DTLB_vberti_cross_page_prefetch_mshr_merge 26127
Core_0_DTLB_vberti_cross_page_prefetch_fill 87007
Core_0_DTLB_vberti_cross_page_prefetch_miss_rate 0.235171
Core_0_DTLB_vberti_cross_page_prefetch_mpki 1.13144
Core_0_DTLB_same_page_prefetch_miss_rate 0
Core_0_DTLB_same_page_prefetch_mpki 0
Core_0_DTLB_cross_page_prefetch_miss_rate 0.235171
Core_0_DTLB_cross_page_prefetch_mpki 1.13144
Core_0_DTLB_cross_page_prefetch_issued 481113
Core_0_DTLB_cross_page_prefetch_lookups 481113
Core_0_DTLB_cross_page_prefetch_useful 18926
Core_0_DTLB_cross_page_prefetch_useless 68091
Core_0_DTLB_cross_page_prefetch_late 10
Core_0_DTLB_cross_page_prefetch_too_early 23954
Core_0_DTLB_cross_page_prefetch_too_early_among_fill 0.275311
Core_0_DTLB_cross_page_prefetch_too_early_among_useless 0.351794
Core_0_DTLB_cross_page_prefetch_pollution_evict 54374
Core_0_DTLB_cross_page_prefetch_pollution_demand 41563
Core_0_DTLB_cross_page_prefetch_pollution_among_prefetch_fill 0.624938
Core_0_DTLB_cross_page_prefetch_accuracy 0.039338
Core_0_DTLB_cross_page_prefetch_coverage 0.0013624

========= STLB_vBerti Prefetch Stats =========
Core_0_STLB_demand_access 9905831
Core_0_STLB_demand_hit 8997270
Core_0_STLB_demand_miss 908561
Core_0_STLB_demand_mshr_merge 0
Core_0_STLB_demand_fill 908561
Core_0_STLB_demand_miss_rate 0.0917198
Core_0_STLB_demand_mpki 9.08561
Core_0_STLB_vberti_prefetch_access 87017
Core_0_STLB_vberti_prefetch_hit 86319
Core_0_STLB_vberti_prefetch_miss 698
Core_0_STLB_vberti_prefetch_mshr_merge 0
Core_0_STLB_vberti_prefetch_fill 698
Core_0_STLB_vberti_prefetch_miss_rate 0.00802142
Core_0_STLB_vberti_prefetch_mpki 0.00698

=== STLB_vBerti Same/Cross-page Prefetch Stats ===
Core_0_STLB_vberti_same_page_prefetch 0
Core_0_STLB_vberti_same_page_prefetch_hit 0
Core_0_STLB_vberti_same_page_prefetch_miss 0
Core_0_STLB_vberti_same_page_prefetch_mshr_merge 0
Core_0_STLB_vberti_same_page_prefetch_fill 0
Core_0_STLB_vberti_same_page_prefetch_miss_rate 0
Core_0_STLB_vberti_same_page_prefetch_mpki 0
Core_0_STLB_vberti_cross_page_prefetch 87017
Core_0_STLB_vberti_cross_page_prefetch_hit 86319
Core_0_STLB_vberti_cross_page_prefetch_miss 698
Core_0_STLB_vberti_cross_page_prefetch_mshr_merge 0
Core_0_STLB_vberti_cross_page_prefetch_fill 698
Core_0_STLB_vberti_cross_page_prefetch_miss_rate 0.00802142
Core_0_STLB_vberti_cross_page_prefetch_mpki 0.00698
Core_0_STLB_same_page_prefetch_miss_rate 0
Core_0_STLB_same_page_prefetch_mpki 0
Core_0_STLB_cross_page_prefetch_miss_rate 0.00802142
Core_0_STLB_cross_page_prefetch_mpki 0.00698
Core_0_STLB_cross_page_prefetch_issued 87017
Core_0_STLB_cross_page_prefetch_lookups 87017
Core_0_STLB_cross_page_prefetch_useful 434
Core_0_STLB_cross_page_prefetch_useless 264
Core_0_STLB_cross_page_prefetch_late 0
Core_0_STLB_cross_page_prefetch_too_early 110
Core_0_STLB_cross_page_prefetch_too_early_among_fill 0.157593
Core_0_STLB_cross_page_prefetch_too_early_among_useless 0.416667
Core_0_STLB_cross_page_prefetch_pollution_evict 651
Core_0_STLB_cross_page_prefetch_pollution_demand 650
Core_0_STLB_cross_page_prefetch_pollution_among_prefetch_fill 0.932665
Core_0_STLB_cross_page_prefetch_accuracy 0.00498753
Core_0_STLB_cross_page_prefetch_coverage 0.00047745

========= STLB Cross-page Prefetch Buffer Stats =========
Core_0_STLB_raw_demand_miss 908561
Core_0_CP_PB_insert 0
Core_0_CP_PB_demand_hit 0
Core_0_STLB_PB_demand_miss 908561
Core_0_CP_PB_coverage 0
Core_0_STLB_raw_demand_mpki 9.08561
Core_0_STLB_PB_demand_mpki 9.08561
Core_0_CP_PB_demand_hit_mpki 0

Core_0_TLB_demand_miss_rate 0.0326109
Core_0_TLB_demand_mpki 9.08561
Core_0_TLB_same_page_prefetch_miss_rate 0
Core_0_TLB_same_page_prefetch_mpki 0
Core_0_TLB_cross_page_prefetch_miss_rate 0.0014508
Core_0_TLB_cross_page_prefetch_mpki 0.00698
Core_0_TLB_cross_page_prefetch_issued 481113
Core_0_TLB_cross_page_prefetch_lookups 481113
Core_0_TLB_cross_page_prefetch_useful 455
Core_0_TLB_cross_page_prefetch_useless 40221
Core_0_TLB_cross_page_prefetch_late 3
Core_0_TLB_cross_page_prefetch_too_early 15163
Core_0_TLB_cross_page_prefetch_too_early_among_fill 0.172886
Core_0_TLB_cross_page_prefetch_too_early_among_useless 0.376992
Core_0_TLB_cross_page_prefetch_accuracy 0.000945724
Core_0_TLB_cross_page_prefetch_coverage 0.000500541
BERTI TO_L1: 1253438 TO_L2: 817888 TO_L2_BC_MSHR: 176
BERTI AVG_LAT: 81.2845 NUM_TRACK_LATENCY: 18841953 NUM_CANT_TRACK_LATENCY: 0
BERTI CROSS_PAGE 675324 NO_CROSS_PAGE: 1396002
BERTI FOUND_BERTI: 26353888 NO_FOUND_BERTI: 11134970
BERTI AVERAGE_ISSUED: 1.64213
