[VMEM] WARNING: physical memory size is smaller than virtual memory size.

*** ChampSim Multicore Out-of-Order Simulator ***
Warmup Instructions: 50000000
Simulation Instructions: 100000000
Number of CPUs: 1
Page size: 4096
Core 0: /data0/tzh/champsim_traces/Ligra/ligra_PageRank.com-lj.ungraph.gcc_6.3.0_O3.drop_79500M.length_250M.champsimtrace.xz
VBerti Prefetcher
BERTI HASH ENTANGLING
BERTI IP MASK ffff
Off-chip DRAM Size: 16 GiB Channels: 1 Width: 64-bit Data Rate: 3205 MT/s
Warmup halting CPU 0 at instruction 50000001 cycle 13358867 for remainder of phase
Warmup finished CPU 0 instructions: 50000001 cycles: 13358867 cumulative IPC: 3.743 (Simulation time: 00 hr 05 min 06 sec)
Warmup complete CPU 0 instructions: 50000001 cycles: 13358867 cumulative IPC: 3.743 (Simulation time: 00 hr 05 min 06 sec)
Simulation finished CPU 0 instructions: 100000004 cycles: 195507324 cumulative IPC: 0.5115 (Simulation time: 00 hr 34 min 56 sec)
Simulation complete CPU 0 instructions: 100000004 cycles: 195507324 cumulative IPC: 0.5115 (Simulation time: 00 hr 34 min 56 sec)

ChampSim completed all CPUs

=== Simulation ===
CPU 0 runs /data0/tzh/champsim_traces/Ligra/ligra_PageRank.com-lj.ungraph.gcc_6.3.0_O3.drop_79500M.length_250M.champsimtrace.xz

Region of Interest Statistics

CPU 0 cumulative IPC: 0.5115 instructions: 100000004 cycles: 195507324
CPU 0 Branch Prediction Accuracy: 92.68% MPKI: 8.681 Average ROB Occupancy at Mispredict: 142.3
Branch type MPKI
BRANCH_DIRECT_JUMP: 0
BRANCH_INDIRECT: 0
BRANCH_CONDITIONAL: 8.681
BRANCH_DIRECT_CALL: 0
BRANCH_INDIRECT_CALL: 0
BRANCH_RETURN: 0

cpu0->cpu0_STLB TOTAL        ACCESS:    5816153 HIT:    2508886 MISS:    3307267 MSHR_MERGE:          0
cpu0->cpu0_STLB LOAD         ACCESS:    5816153 HIT:    2508886 MISS:    3307267 MSHR_MERGE:          0
cpu0->cpu0_STLB RFO          ACCESS:          0 HIT:          0 MISS:          0 MSHR_MERGE:          0
cpu0->cpu0_STLB PREFETCH     ACCESS:          0 HIT:          0 MISS:          0 MSHR_MERGE:          0
cpu0->cpu0_STLB WRITE        ACCESS:          0 HIT:          0 MISS:          0 MSHR_MERGE:          0
cpu0->cpu0_STLB TRANSLATION  ACCESS:          0 HIT:          0 MISS:          0 MSHR_MERGE:          0
cpu0->cpu0_STLB PREFETCH REQUESTED:          0 ISSUED:          0 USEFUL:          0 USELESS:          0 LATE:          0 TOO_EARLY:          0
cpu0->cpu0_STLB AVERAGE MISS LATENCY: 38.31 cycles
cpu0->cpu0_L2C TOTAL        ACCESS:   10629812 HIT:    3242331 MISS:    7387481 MSHR_MERGE:     308588
cpu0->cpu0_L2C LOAD         ACCESS:    5742889 HIT:     349996 MISS:    5392893 MSHR_MERGE:       5084
cpu0->cpu0_L2C RFO          ACCESS:         37 HIT:         37 MISS:          0 MSHR_MERGE:          0
cpu0->cpu0_L2C PREFETCH     ACCESS:    2056433 HIT:     849711 MISS:    1206722 MSHR_MERGE:     303504
cpu0->cpu0_L2C WRITE        ACCESS:     109013 HIT:     109013 MISS:          0 MSHR_MERGE:          0
cpu0->cpu0_L2C TRANSLATION  ACCESS:    2721440 HIT:    1933574 MISS:     787866 MSHR_MERGE:          0
cpu0->cpu0_L2C PREFETCH REQUESTED:     729661 ISSUED:     729660 USEFUL:     247502 USELESS:      95070 LATE:       4396 TOO_EARLY:      11827
cpu0->cpu0_L2C AVERAGE MISS LATENCY: 202.6 cycles
cpu0->cpu0_L1I TOTAL        ACCESS:    1176418 HIT:    1176418 MISS:          0 MSHR_MERGE:          0
cpu0->cpu0_L1I LOAD         ACCESS:    1176418 HIT:    1176418 MISS:          0 MSHR_MERGE:          0
cpu0->cpu0_L1I RFO          ACCESS:          0 HIT:          0 MISS:          0 MSHR_MERGE:          0
cpu0->cpu0_L1I PREFETCH     ACCESS:          0 HIT:          0 MISS:          0 MSHR_MERGE:          0
cpu0->cpu0_L1I WRITE        ACCESS:          0 HIT:          0 MISS:          0 MSHR_MERGE:          0
cpu0->cpu0_L1I TRANSLATION  ACCESS:          0 HIT:          0 MISS:          0 MSHR_MERGE:          0
cpu0->cpu0_L1I PREFETCH REQUESTED:          0 ISSUED:          0 USEFUL:          0 USELESS:          0 LATE:          0 TOO_EARLY:          0
cpu0->cpu0_L1I AVERAGE MISS LATENCY: - cycles
cpu0->cpu0_L1D TOTAL        ACCESS:   49692985 HIT:   39523588 MISS:   10169397 MSHR_MERGE:     368735
cpu0->cpu0_L1D LOAD         ACCESS:   23197868 HIT:   17119691 MISS:    6078177 MSHR_MERGE:     335288
cpu0->cpu0_L1D RFO          ACCESS:          0 HIT:          0 MISS:          0 MSHR_MERGE:          0
cpu0->cpu0_L1D PREFETCH     ACCESS:   14894126 HIT:   13543269 MISS:    1350857 MSHR_MERGE:      14562
cpu0->cpu0_L1D WRITE        ACCESS:    4575913 HIT:    4575839 MISS:         74 MSHR_MERGE:         37
cpu0->cpu0_L1D TRANSLATION  ACCESS:    7025078 HIT:    4284789 MISS:    2740289 MSHR_MERGE:      18848
cpu0->cpu0_L1D PREFETCH REQUESTED:   56161593 ISSUED:   14894118 USEFUL:     726136 USELESS:       5777 LATE:       1634 TOO_EARLY:       2042
cpu0->cpu0_L1D AVERAGE MISS LATENCY: 156.7 cycles
cpu0->cpu0_ITLB TOTAL        ACCESS:    1153151 HIT:    1153151 MISS:          0 MSHR_MERGE:          0
cpu0->cpu0_ITLB LOAD         ACCESS:    1153151 HIT:    1153151 MISS:          0 MSHR_MERGE:          0
cpu0->cpu0_ITLB RFO          ACCESS:          0 HIT:          0 MISS:          0 MSHR_MERGE:          0
cpu0->cpu0_ITLB PREFETCH     ACCESS:          0 HIT:          0 MISS:          0 MSHR_MERGE:          0
cpu0->cpu0_ITLB WRITE        ACCESS:          0 HIT:          0 MISS:          0 MSHR_MERGE:          0
cpu0->cpu0_ITLB TRANSLATION  ACCESS:          0 HIT:          0 MISS:          0 MSHR_MERGE:          0
cpu0->cpu0_ITLB PREFETCH REQUESTED:          0 ISSUED:          0 USEFUL:          0 USELESS:          0 LATE:          0 TOO_EARLY:          0
cpu0->cpu0_ITLB AVERAGE MISS LATENCY: - cycles
cpu0->cpu0_DTLB TOTAL        ACCESS:   38918534 HIT:   32741444 MISS:    6177090 MSHR_MERGE:     360939
cpu0->cpu0_DTLB LOAD         ACCESS:   38918534 HIT:   32741444 MISS:    6177090 MSHR_MERGE:     360939
cpu0->cpu0_DTLB RFO          ACCESS:          0 HIT:          0 MISS:          0 MSHR_MERGE:          0
cpu0->cpu0_DTLB PREFETCH     ACCESS:          0 HIT:          0 MISS:          0 MSHR_MERGE:          0
cpu0->cpu0_DTLB WRITE        ACCESS:          0 HIT:          0 MISS:          0 MSHR_MERGE:          0
cpu0->cpu0_DTLB TRANSLATION  ACCESS:          0 HIT:          0 MISS:          0 MSHR_MERGE:          0
cpu0->cpu0_DTLB PREFETCH REQUESTED:          0 ISSUED:          0 USEFUL:          0 USELESS:          0 LATE:          0 TOO_EARLY:          0
cpu0->cpu0_DTLB AVERAGE MISS LATENCY: 27.37 cycles
cpu0->LLC TOTAL        ACCESS:    7187790 HIT:    1640880 MISS:    5546910 MSHR_MERGE:      21213
cpu0->LLC LOAD         ACCESS:    5387808 HIT:     815432 MISS:    4572376 MSHR_MERGE:       1398
cpu0->LLC RFO          ACCESS:          0 HIT:          0 MISS:          0 MSHR_MERGE:          0
cpu0->LLC PREFETCH     ACCESS:     903217 HIT:      45864 MISS:     857353 MSHR_MERGE:      19815
cpu0->LLC WRITE        ACCESS:     108900 HIT:      19509 MISS:      89391 MSHR_MERGE:          0
cpu0->LLC TRANSLATION  ACCESS:     787865 HIT:     760075 MISS:      27790 MSHR_MERGE:          0
cpu0->LLC PREFETCH REQUESTED:          0 ISSUED:          0 USEFUL:          0 USELESS:          0 LATE:          0 TOO_EARLY:          0
cpu0->LLC AVERAGE MISS LATENCY: 246.3 cycles

DRAM Statistics

Channel 0 RQ ROW_BUFFER_HIT:      14748
  ROW_BUFFER_MISS:    5421554
  AVG DBUS CONGESTED CYCLE: 3.793
Channel 0 WQ ROW_BUFFER_HIT:      30357
  ROW_BUFFER_MISS:      76967
  FULL:          0
Channel 0 REFRESHES ISSUED:      16292

[ROI Statistics]
[System Configuration]
num_cpus 1
cpu_freq 4000
fetch_width 6
decode_width 6
dispatch_width 6
execute_width 6
lq_width 2
sq_width 2
retire_width 6
scheduler_size 128
branch_mispredict_penalty 15
rob_size 352
lq_size 128
sq_size 72
ifetch_buffer_size 64
decode_buffer_size 32
dispatch_buffer_size 32
register_file_size 288
decode_latency 1
dispatch_latency 1
schedule_latency 1
execute_latency 1
page_size 4096
block_size 64
core_0_itlb_set 16
core_0_itlb_way 4
core_0_itlb_rq_size 16
core_0_itlb_wq_size 16
core_0_itlb_pq_size 0
core_0_itlb_mshr_size 8
core_0_itlb_hit_latency 1
core_0_itlb_fill_latency 1
core_0_itlb_max_tag_check 2
core_0_itlb_max_fill 2
core_0_dtlb_set 16
core_0_dtlb_way 4
core_0_dtlb_rq_size 16
core_0_dtlb_wq_size 16
core_0_dtlb_pq_size 0
core_0_dtlb_mshr_size 8
core_0_dtlb_hit_latency 1
core_0_dtlb_fill_latency 1
core_0_dtlb_max_tag_check 2
core_0_dtlb_max_fill 2
core_0_stlb_set 128
core_0_stlb_way 12
core_0_stlb_rq_size 32
core_0_stlb_wq_size 32
core_0_stlb_pq_size 0
core_0_stlb_mshr_size 16
core_0_stlb_hit_latency 4
core_0_stlb_fill_latency 4
core_0_stlb_max_tag_check 1
core_0_stlb_max_fill 1
core_0_l1i_set 64
core_0_l1i_way 8
core_0_l1i_rq_size 64
core_0_l1i_wq_size 64
core_0_l1i_pq_size 32
core_0_l1i_mshr_size 8
core_0_l1i_hit_latency 2
core_0_l1i_fill_latency 2
core_0_l1i_max_tag_check 2
core_0_l1i_max_fill 2
core_0_l1d_set 64
core_0_l1d_way 12
core_0_l1d_rq_size 64
core_0_l1d_wq_size 64
core_0_l1d_pq_size 8
core_0_l1d_mshr_size 16
core_0_l1d_hit_latency 2
core_0_l1d_fill_latency 3
core_0_l1d_max_tag_check 2
core_0_l1d_max_fill 2
core_0_l2c_set 1024
core_0_l2c_way 8
core_0_l2c_rq_size 32
core_0_l2c_wq_size 32
core_0_l2c_pq_size 16
core_0_l2c_mshr_size 32
core_0_l2c_hit_latency 5
core_0_l2c_fill_latency 5
core_0_l2c_max_tag_check 1
core_0_l2c_max_fill 1
llc_set 2048
llc_way 16
llc_rq_size 32
llc_wq_size 32
llc_pq_size 32
llc_mshr_size 64
llc_hit_latency 10
llc_fill_latency 10
llc_max_tag_check 1
llc_max_fill 1
dram_channels 1
dram_ranks 1
dram_bankgroups 8
dram_banks 4
dram_rows 65536
dram_columns 1024
dram_channel_width 8
dram_rq_size 64
dram_wq_size 64
dram_size 17179869184
core_0_itlb_prefetcher no
core_0_dtlb_prefetcher no
core_0_stlb_prefetcher no
core_0_l1i_prefetcher next_line
core_0_l1d_prefetcher vberti
core_0_l2c_prefetcher ip_stride
llc_prefetcher no
llc_replacement drrip

Core_0_instructions 100000004
Core_0_cycles 195507324
Core_0_IPC 0.51149
Core_0_branch_prediction_accuracy 92.6785
Core_0_branch_MPKI 8.68131
Core_0_average_ROB_occupancy_at_mispredict 142.323

Core_0_ITLB_total_access 1153151
Core_0_ITLB_total_hit 1153151
Core_0_ITLB_total_miss 0
Core_0_ITLB_total_MPKI 0
Core_0_ITLB_total_miss_rate 0
Core_0_ITLB_demand_access 1153151
Core_0_ITLB_demand_hit 1153151
Core_0_ITLB_demand_miss 0
Core_0_ITLB_demand_MPKI 0
Core_0_ITLB_demand_miss_rate 0
Core_0_ITLB_load_access 1153151
Core_0_ITLB_load_hit 1153151
Core_0_ITLB_load_miss 0
Core_0_ITLB_load_MPKI 0
Core_0_ITLB_load_miss_rate 0
Core_0_ITLB_rfo_access 0
Core_0_ITLB_rfo_hit 0
Core_0_ITLB_rfo_miss 0
Core_0_ITLB_rfo_MPKI 0
Core_0_ITLB_rfo_miss_rate 0
Core_0_ITLB_prefetch_access 0
Core_0_ITLB_prefetch_hit 0
Core_0_ITLB_prefetch_miss 0
Core_0_ITLB_prefetch_MPKI 0
Core_0_ITLB_prefetch_miss_rate 0
Core_0_ITLB_writeback_access 0
Core_0_ITLB_writeback_hit 0
Core_0_ITLB_writeback_miss 0
Core_0_ITLB_writeback_MPKI 0
Core_0_ITLB_writeback_miss_rate 0
Core_0_ITLB_prefetch_requested 0
Core_0_ITLB_prefetch_issued 0
Core_0_ITLB_prefetch_useful 0
Core_0_ITLB_prefetch_useless 0
Core_0_ITLB_prefetch_late 0
Core_0_ITLB_prefetch_fill 0
Core_0_ITLB_prefetch_too_early 0
Core_0_ITLB_prefetch_too_early_among_fill 0
Core_0_ITLB_prefetch_too_early_among_useless 0
Core_0_ITLB_prefetch_pollution_evict 0
Core_0_ITLB_prefetch_pollution_demand 0
Core_0_ITLB_prefetch_pollution_among_prefetch_fill 0
Core_0_ITLB_prefetch_accuracy 0
Core_0_ITLB_prefetch_coverage 0

Core_0_DTLB_total_access 38918534
Core_0_DTLB_total_hit 32741444
Core_0_DTLB_total_miss 6177090
Core_0_DTLB_total_MPKI 61.7709
Core_0_DTLB_total_miss_rate 0.158718
Core_0_DTLB_demand_access 38918534
Core_0_DTLB_demand_hit 32741444
Core_0_DTLB_demand_miss 6177090
Core_0_DTLB_demand_MPKI 61.7709
Core_0_DTLB_demand_miss_rate 0.158718
Core_0_DTLB_load_access 38918534
Core_0_DTLB_load_hit 32741444
Core_0_DTLB_load_miss 6177090
Core_0_DTLB_load_MPKI 61.7709
Core_0_DTLB_load_miss_rate 0.158718
Core_0_DTLB_rfo_access 0
Core_0_DTLB_rfo_hit 0
Core_0_DTLB_rfo_miss 0
Core_0_DTLB_rfo_MPKI 0
Core_0_DTLB_rfo_miss_rate 0
Core_0_DTLB_prefetch_access 0
Core_0_DTLB_prefetch_hit 0
Core_0_DTLB_prefetch_miss 0
Core_0_DTLB_prefetch_MPKI 0
Core_0_DTLB_prefetch_miss_rate 0
Core_0_DTLB_writeback_access 0
Core_0_DTLB_writeback_hit 0
Core_0_DTLB_writeback_miss 0
Core_0_DTLB_writeback_MPKI 0
Core_0_DTLB_writeback_miss_rate 0
Core_0_DTLB_prefetch_requested 0
Core_0_DTLB_prefetch_issued 0
Core_0_DTLB_prefetch_useful 0
Core_0_DTLB_prefetch_useless 0
Core_0_DTLB_prefetch_late 0
Core_0_DTLB_prefetch_fill 0
Core_0_DTLB_prefetch_too_early 0
Core_0_DTLB_prefetch_too_early_among_fill 0
Core_0_DTLB_prefetch_too_early_among_useless 0
Core_0_DTLB_prefetch_pollution_evict 0
Core_0_DTLB_prefetch_pollution_demand 0
Core_0_DTLB_prefetch_pollution_among_prefetch_fill 0
Core_0_DTLB_prefetch_accuracy 0
Core_0_DTLB_prefetch_coverage 0

Core_0_STLB_total_access 5816153
Core_0_STLB_total_hit 2508886
Core_0_STLB_total_miss 3307267
Core_0_STLB_total_MPKI 33.0727
Core_0_STLB_total_miss_rate 0.568635
Core_0_STLB_demand_access 5816153
Core_0_STLB_demand_hit 2508886
Core_0_STLB_demand_miss 3307267
Core_0_STLB_demand_MPKI 33.0727
Core_0_STLB_demand_miss_rate 0.568635
Core_0_STLB_load_access 5816153
Core_0_STLB_load_hit 2508886
Core_0_STLB_load_miss 3307267
Core_0_STLB_load_MPKI 33.0727
Core_0_STLB_load_miss_rate 0.568635
Core_0_STLB_rfo_access 0
Core_0_STLB_rfo_hit 0
Core_0_STLB_rfo_miss 0
Core_0_STLB_rfo_MPKI 0
Core_0_STLB_rfo_miss_rate 0
Core_0_STLB_prefetch_access 0
Core_0_STLB_prefetch_hit 0
Core_0_STLB_prefetch_miss 0
Core_0_STLB_prefetch_MPKI 0
Core_0_STLB_prefetch_miss_rate 0
Core_0_STLB_writeback_access 0
Core_0_STLB_writeback_hit 0
Core_0_STLB_writeback_miss 0
Core_0_STLB_writeback_MPKI 0
Core_0_STLB_writeback_miss_rate 0
Core_0_STLB_prefetch_requested 0
Core_0_STLB_prefetch_issued 0
Core_0_STLB_prefetch_useful 0
Core_0_STLB_prefetch_useless 0
Core_0_STLB_prefetch_late 0
Core_0_STLB_prefetch_fill 0
Core_0_STLB_prefetch_too_early 0
Core_0_STLB_prefetch_too_early_among_fill 0
Core_0_STLB_prefetch_too_early_among_useless 0
Core_0_STLB_prefetch_pollution_evict 0
Core_0_STLB_prefetch_pollution_demand 0
Core_0_STLB_prefetch_pollution_among_prefetch_fill 0
Core_0_STLB_prefetch_accuracy 0
Core_0_STLB_prefetch_coverage 0

Core_0_L1I_total_access 1176418
Core_0_L1I_total_hit 1176418
Core_0_L1I_total_miss 0
Core_0_L1I_total_MPKI 0
Core_0_L1I_total_miss_rate 0
Core_0_L1I_demand_access 1176418
Core_0_L1I_demand_hit 1176418
Core_0_L1I_demand_miss 0
Core_0_L1I_demand_MPKI 0
Core_0_L1I_demand_miss_rate 0
Core_0_L1I_load_access 1176418
Core_0_L1I_load_hit 1176418
Core_0_L1I_load_miss 0
Core_0_L1I_load_MPKI 0
Core_0_L1I_load_miss_rate 0
Core_0_L1I_rfo_access 0
Core_0_L1I_rfo_hit 0
Core_0_L1I_rfo_miss 0
Core_0_L1I_rfo_MPKI 0
Core_0_L1I_rfo_miss_rate 0
Core_0_L1I_prefetch_access 0
Core_0_L1I_prefetch_hit 0
Core_0_L1I_prefetch_miss 0
Core_0_L1I_prefetch_MPKI 0
Core_0_L1I_prefetch_miss_rate 0
Core_0_L1I_writeback_access 0
Core_0_L1I_writeback_hit 0
Core_0_L1I_writeback_miss 0
Core_0_L1I_writeback_MPKI 0
Core_0_L1I_writeback_miss_rate 0
Core_0_L1I_prefetch_requested 0
Core_0_L1I_prefetch_issued 0
Core_0_L1I_prefetch_useful 0
Core_0_L1I_prefetch_useless 0
Core_0_L1I_prefetch_late 0
Core_0_L1I_prefetch_fill 0
Core_0_L1I_prefetch_too_early 0
Core_0_L1I_prefetch_too_early_among_fill 0
Core_0_L1I_prefetch_too_early_among_useless 0
Core_0_L1I_prefetch_pollution_evict 0
Core_0_L1I_prefetch_pollution_demand 0
Core_0_L1I_prefetch_pollution_among_prefetch_fill 0
Core_0_L1I_prefetch_accuracy 0
Core_0_L1I_prefetch_coverage 0

Core_0_L1D_total_access 42667907
Core_0_L1D_total_hit 35238799
Core_0_L1D_total_miss 7429108
Core_0_L1D_total_MPKI 74.2911
Core_0_L1D_total_miss_rate 0.174115
Core_0_L1D_demand_access 23197868
Core_0_L1D_demand_hit 17119691
Core_0_L1D_demand_miss 6078177
Core_0_L1D_demand_MPKI 60.7818
Core_0_L1D_demand_miss_rate 0.262014
Core_0_L1D_load_access 23197868
Core_0_L1D_load_hit 17119691
Core_0_L1D_load_miss 6078177
Core_0_L1D_load_MPKI 60.7818
Core_0_L1D_load_miss_rate 0.262014
Core_0_L1D_rfo_access 0
Core_0_L1D_rfo_hit 0
Core_0_L1D_rfo_miss 0
Core_0_L1D_rfo_MPKI 0
Core_0_L1D_rfo_miss_rate 0
Core_0_L1D_prefetch_access 14894126
Core_0_L1D_prefetch_hit 13543269
Core_0_L1D_prefetch_miss 1350857
Core_0_L1D_prefetch_MPKI 13.5086
Core_0_L1D_prefetch_miss_rate 0.0906973
Core_0_L1D_writeback_access 4575913
Core_0_L1D_writeback_hit 4575839
Core_0_L1D_writeback_miss 74
Core_0_L1D_writeback_MPKI 0.00074
Core_0_L1D_writeback_miss_rate 1.61716e-05
Core_0_L1D_prefetch_requested 56161593
Core_0_L1D_prefetch_issued 14894118
Core_0_L1D_prefetch_useful 726136
Core_0_L1D_prefetch_useless 5777
Core_0_L1D_prefetch_late 1634
Core_0_L1D_prefetch_fill 730296
Core_0_L1D_prefetch_too_early 2042
Core_0_L1D_prefetch_too_early_among_fill 0.00279613
Core_0_L1D_prefetch_too_early_among_useless 0.353471
Core_0_L1D_prefetch_pollution_evict 31689
Core_0_L1D_prefetch_pollution_demand 31620
Core_0_L1D_prefetch_pollution_among_prefetch_fill 0.043392
Core_0_L1D_prefetch_accuracy 0.0487532
Core_0_L1D_prefetch_coverage 0.106717

Core_0_L2C_total_access 7908372
Core_0_L2C_total_hit 1308757
Core_0_L2C_total_miss 6599615
Core_0_L2C_total_MPKI 65.9961
Core_0_L2C_total_miss_rate 0.83451
Core_0_L2C_demand_access 5742926
Core_0_L2C_demand_hit 350033
Core_0_L2C_demand_miss 5392893
Core_0_L2C_demand_MPKI 53.9289
Core_0_L2C_demand_miss_rate 0.93905
Core_0_L2C_load_access 5742889
Core_0_L2C_load_hit 349996
Core_0_L2C_load_miss 5392893
Core_0_L2C_load_MPKI 53.9289
Core_0_L2C_load_miss_rate 0.939056
Core_0_L2C_rfo_access 37
Core_0_L2C_rfo_hit 37
Core_0_L2C_rfo_miss 0
Core_0_L2C_rfo_MPKI 0
Core_0_L2C_rfo_miss_rate 0
Core_0_L2C_prefetch_access 2056433
Core_0_L2C_prefetch_hit 849711
Core_0_L2C_prefetch_miss 1206722
Core_0_L2C_prefetch_MPKI 12.0672
Core_0_L2C_prefetch_miss_rate 0.586803
Core_0_L2C_writeback_access 109013
Core_0_L2C_writeback_hit 109013
Core_0_L2C_writeback_miss 0
Core_0_L2C_writeback_MPKI 0
Core_0_L2C_writeback_miss_rate 0
Core_0_L2C_prefetch_requested 729661
Core_0_L2C_prefetch_issued 729660
Core_0_L2C_prefetch_useful 247502
Core_0_L2C_prefetch_useless 95070
Core_0_L2C_prefetch_late 4396
Core_0_L2C_prefetch_fill 836835
Core_0_L2C_prefetch_too_early 11827
Core_0_L2C_prefetch_too_early_among_fill 0.014133
Core_0_L2C_prefetch_too_early_among_useless 0.124403
Core_0_L2C_prefetch_pollution_evict 100536
Core_0_L2C_prefetch_pollution_demand 100282
Core_0_L2C_prefetch_pollution_among_prefetch_fill 0.120138
Core_0_L2C_prefetch_accuracy 0.339202
Core_0_L2C_prefetch_coverage 0.0438803

Core_0_LLC_total_access 6399925
Core_0_LLC_total_hit 880805
Core_0_LLC_total_miss 5519120
Core_0_LLC_total_MPKI 55.1912
Core_0_LLC_total_miss_rate 0.862373
Core_0_LLC_demand_access 5387808
Core_0_LLC_demand_hit 815432
Core_0_LLC_demand_miss 4572376
Core_0_LLC_demand_MPKI 45.7238
Core_0_LLC_demand_miss_rate 0.848652
Core_0_LLC_load_access 5387808
Core_0_LLC_load_hit 815432
Core_0_LLC_load_miss 4572376
Core_0_LLC_load_MPKI 45.7238
Core_0_LLC_load_miss_rate 0.848652
Core_0_LLC_rfo_access 0
Core_0_LLC_rfo_hit 0
Core_0_LLC_rfo_miss 0
Core_0_LLC_rfo_MPKI 0
Core_0_LLC_rfo_miss_rate 0
Core_0_LLC_prefetch_access 903217
Core_0_LLC_prefetch_hit 45864
Core_0_LLC_prefetch_miss 857353
Core_0_LLC_prefetch_MPKI 8.57353
Core_0_LLC_prefetch_miss_rate 0.949222
Core_0_LLC_writeback_access 108900
Core_0_LLC_writeback_hit 19509
Core_0_LLC_writeback_miss 89391
Core_0_LLC_writeback_MPKI 0.89391
Core_0_LLC_writeback_miss_rate 0.820854
Core_0_LLC_prefetch_requested 0
Core_0_LLC_prefetch_issued 0
Core_0_LLC_prefetch_useful 0
Core_0_LLC_prefetch_useless 0
Core_0_LLC_prefetch_late 0
Core_0_LLC_prefetch_fill 836139
Core_0_LLC_prefetch_too_early 0
Core_0_LLC_prefetch_too_early_among_fill 0
Core_0_LLC_prefetch_too_early_among_useless 0
Core_0_LLC_prefetch_pollution_evict 206139
Core_0_LLC_prefetch_pollution_demand 206139
Core_0_LLC_prefetch_pollution_among_prefetch_fill 0.246537
Core_0_LLC_prefetch_accuracy 0
Core_0_LLC_prefetch_coverage 0

[DRAM Statistics]
Channel_0_RQ_row_buffer_hit 14748
Channel_0_RQ_row_buffer_miss 5421554
Channel_0_WQ_row_buffer_hit 30357
Channel_0_WQ_row_buffer_miss 76967
Channel_0_WQ_full 0
Channel_0_dbus_congested 9146335
DRAM_total_RQ_row_buffer_hit 14748
DRAM_total_RQ_row_buffer_miss 5421554
DRAM_total_WQ_row_buffer_hit 30357
DRAM_total_WQ_row_buffer_miss 76967
DRAM_total_WQ_full 0
DRAM_total_dbus_congested 9146335
DRAM_avg_congested_cycle 3.79295

====== DRAM_RQ_TRAFFIC ========
DRAM_RQ_READ_TRAFFIC_BREAKDOWN:
data_demand_read.count = 4570979
data_demand_read.share = 84.08%

inst_demand_read.count = 0
inst_demand_read.share = 0.00%

cache_inst_prefetch.count = 0
cache_inst_prefetch.share = 0.00%

cache_data_prefetch.count = 837538
cache_data_prefetch.share = 15.41%

stlb_data_demand.count = 25074
stlb_data_demand.share = 0.46%

stlb_inst_demand.count = 0
stlb_inst_demand.share = 0.00%

stlb_l1i_pref.count = 0
stlb_l1i_pref.share = 0.00%

stlb_l1d_pref.count = 2716
stlb_l1d_pref.share = 0.05%

DRAM_RQ_READ_TRAFFIC_SUMMARY:
cache_demand.count = 4570979
cache_demand.share = 84.08%

cache_prefetch.count = 837538
cache_prefetch.share = 15.41%

stlb_demand.count = 25074
stlb_demand.share = 0.46%

stlb_prefetch.count = 2716
stlb_prefetch.share = 0.05%

DRAM_RQ_READ_TRAFFIC_DEBUG:
total_classified_read.count = 5436307
unclassified_read.count = 0
total_read_with_other.count = 5436307

classified_plus_unclassified_check.count = 5436307
dram_rq_read_total_observed.count = 5436307
dram_rq_read_total_observed.per_1K_instructions = 54.3631

STLB_MISS_PTW_DRAM_TOUCH_BREAKDOWN:
stlb_miss_total.count = 3307265

stlb_miss_touch_dram.count = 27845
stlb_miss_touch_dram.share = 0.84%

stlb_miss_no_dram_touch.count = 3279420
stlb_miss_no_dram_touch.share = 99.16%

STLB_MISS_PTW_DRAM_TOUCH_DEBUG:
stlb_miss_touch_plus_no_touch.count = 3307265
stlb_miss_total_check.count = 3307265

======STLB miss causes ========
Core_0_STLB_miss_cause_breakdown
Core_0_STLB_cause_Demand_Data_miss 3272802
Core_0_STLB_cause_Demand_Data_miss_rate 0.562709
Core_0_STLB_cause_Demand_Instruction_miss 0
Core_0_STLB_cause_Demand_Instruction_miss_rate 0
Core_0_STLB_cause_L1D_Prefetch_miss 34465
Core_0_STLB_cause_L1D_Prefetch_miss_rate 0.00592574
Core_0_STLB_cause_L1D_Prefetch_Same_Page_miss 35
Core_0_STLB_cause_L1D_Prefetch_Same_Page_miss_rate 6.01772e-06
Core_0_STLB_cause_L1D_Prefetch_Cross_Page_miss 34430
Core_0_STLB_cause_L1D_Prefetch_Cross_Page_miss_rate 0.00591972
Core_0_STLB_cause_L1I_Prefetch_miss 0
Core_0_STLB_cause_L1I_Prefetch_miss_rate 0
Core_0_STLB_cause_Other_miss 0
Core_0_STLB_cause_Other_miss_rate 0
Core_0_STLB_Demand_miss 3272802
Core_0_STLB_Demand_miss_rate 0.562709
Core_0_STLB_L1D_Prefetch_miss 34465
Core_0_STLB_L1D_Prefetch_miss_rate 0.00592574
Core_0_STLB_Other_miss 0
Core_0_STLB_Other_miss_rate 0

========== vBerti-TLB Cross-page Flow Stats ==========

Core_0_vBerti_Requested 56161593
Core_0_vBerti_Cross_page_prefetch_in_Requested 7390321
Core_0_vBerti_Same_page_prefetch_in_Requested 48771272
Core_0_vBerti_Cross_page_prefetch_of_Requested 0.13159
Core_0_vBerti_Issued 14894118
Core_0_vBerti_InPQ_Same_page_prefetch 13976684
Core_0_vBerti_InPQ_Cross_page_prefetch 917434
Core_0_vBerti_PQ_Drop_Rate 0.734799
Core_0_vBerti_InPQ_Cross_page_prefetch_of_Requested 0.0163356
Core_0_vBerti_Cross_page_PQ_Drop_rate 0.87586
Core_0_vBerti_Cross_page_prefetch_of_Issued 0.0615971
Core_0_CP_PF_PQFULL_drop 6472887
Core_0_CP_PF_PQFULL_TLB_rescue_enqueued 0
Core_0_CP_PF_PQFULL_TLB_rescue_issued 0
Core_0_CP_PF_PQFULL_TLB_rescue_translated 0

========= DTLB_vBerti Prefetch Stats =========
Core_0_DTLB_demand_access 27526012
Core_0_DTLB_demand_hit 21445089
Core_0_DTLB_demand_miss 6080923
Core_0_DTLB_demand_mshr_merge 329200
Core_0_DTLB_demand_fill 5751844
Core_0_DTLB_demand_miss_rate 0.220916
Core_0_DTLB_demand_mpki 60.8092
Core_0_DTLB_vberti_prefetch_access 11392522
Core_0_DTLB_vberti_prefetch_hit 11296355
Core_0_DTLB_vberti_prefetch_miss 96167
Core_0_DTLB_vberti_prefetch_mshr_merge 31739
Core_0_DTLB_vberti_prefetch_fill 64313
Core_0_DTLB_vberti_prefetch_miss_rate 0.00844124
Core_0_DTLB_vberti_prefetch_mpki 0.96167

=== DTLB_vBerti Same/Cross-page Prefetch Stats ===
Core_0_DTLB_vberti_same_page_prefetch 10628366
Core_0_DTLB_vberti_same_page_prefetch_hit 10625298
Core_0_DTLB_vberti_same_page_prefetch_miss 3068
Core_0_DTLB_vberti_same_page_prefetch_mshr_merge 1424
Core_0_DTLB_vberti_same_page_prefetch_fill 1618
Core_0_DTLB_vberti_same_page_prefetch_miss_rate 0.000288661
Core_0_DTLB_vberti_same_page_prefetch_mpki 0.03068
Core_0_DTLB_vberti_cross_page_prefetch 764156
Core_0_DTLB_vberti_cross_page_prefetch_hit 671057
Core_0_DTLB_vberti_cross_page_prefetch_miss 93099
Core_0_DTLB_vberti_cross_page_prefetch_mshr_merge 30315
Core_0_DTLB_vberti_cross_page_prefetch_fill 62695
Core_0_DTLB_vberti_cross_page_prefetch_miss_rate 0.121832
Core_0_DTLB_vberti_cross_page_prefetch_mpki 0.93099
Core_0_DTLB_same_page_prefetch_miss_rate 0.000288661
Core_0_DTLB_same_page_prefetch_mpki 0.03068
Core_0_DTLB_cross_page_prefetch_miss_rate 0.121832
Core_0_DTLB_cross_page_prefetch_mpki 0.93099
Core_0_DTLB_cross_page_prefetch_issued 764156
Core_0_DTLB_cross_page_prefetch_lookups 764156
Core_0_DTLB_cross_page_prefetch_useful 12595
Core_0_DTLB_cross_page_prefetch_useless 50189
Core_0_DTLB_cross_page_prefetch_late 88
Core_0_DTLB_cross_page_prefetch_too_early 28693
Core_0_DTLB_cross_page_prefetch_too_early_among_fill 0.45766
Core_0_DTLB_cross_page_prefetch_too_early_among_useless 0.571699
Core_0_DTLB_cross_page_prefetch_pollution_evict 33948
Core_0_DTLB_cross_page_prefetch_pollution_demand 31722
Core_0_DTLB_cross_page_prefetch_pollution_among_prefetch_fill 0.541479
Core_0_DTLB_cross_page_prefetch_accuracy 0.0164822
Core_0_DTLB_cross_page_prefetch_coverage 0.00206695

========= STLB_vBerti Prefetch Stats =========
Core_0_STLB_demand_access 5751725
Core_0_STLB_demand_hit 2478923
Core_0_STLB_demand_miss 3272802
Core_0_STLB_demand_mshr_merge 0
Core_0_STLB_demand_fill 3272806
Core_0_STLB_demand_miss_rate 0.569012
Core_0_STLB_demand_mpki 32.728
Core_0_STLB_vberti_prefetch_access 64428
Core_0_STLB_vberti_prefetch_hit 29963
Core_0_STLB_vberti_prefetch_miss 34465
Core_0_STLB_vberti_prefetch_mshr_merge 0
Core_0_STLB_vberti_prefetch_fill 34465
Core_0_STLB_vberti_prefetch_miss_rate 0.534938
Core_0_STLB_vberti_prefetch_mpki 0.34465

=== STLB_vBerti Same/Cross-page Prefetch Stats ===
Core_0_STLB_vberti_same_page_prefetch 1644
Core_0_STLB_vberti_same_page_prefetch_hit 1609
Core_0_STLB_vberti_same_page_prefetch_miss 35
Core_0_STLB_vberti_same_page_prefetch_mshr_merge 0
Core_0_STLB_vberti_same_page_prefetch_fill 35
Core_0_STLB_vberti_same_page_prefetch_miss_rate 0.0212895
Core_0_STLB_vberti_same_page_prefetch_mpki 0.00035
Core_0_STLB_vberti_cross_page_prefetch 62784
Core_0_STLB_vberti_cross_page_prefetch_hit 28354
Core_0_STLB_vberti_cross_page_prefetch_miss 34430
Core_0_STLB_vberti_cross_page_prefetch_mshr_merge 0
Core_0_STLB_vberti_cross_page_prefetch_fill 34430
Core_0_STLB_vberti_cross_page_prefetch_miss_rate 0.548388
Core_0_STLB_vberti_cross_page_prefetch_mpki 0.3443
Core_0_STLB_same_page_prefetch_miss_rate 0.0212895
Core_0_STLB_same_page_prefetch_mpki 0.00035
Core_0_STLB_cross_page_prefetch_miss_rate 0.548388
Core_0_STLB_cross_page_prefetch_mpki 0.3443
Core_0_STLB_cross_page_prefetch_issued 62784
Core_0_STLB_cross_page_prefetch_lookups 62784
Core_0_STLB_cross_page_prefetch_useful 13439
Core_0_STLB_cross_page_prefetch_useless 20991
Core_0_STLB_cross_page_prefetch_late 0
Core_0_STLB_cross_page_prefetch_too_early 13409
Core_0_STLB_cross_page_prefetch_too_early_among_fill 0.389457
Core_0_STLB_cross_page_prefetch_too_early_among_useless 0.638798
Core_0_STLB_cross_page_prefetch_pollution_evict 33562
Core_0_STLB_cross_page_prefetch_pollution_demand 33291
Core_0_STLB_cross_page_prefetch_pollution_among_prefetch_fill 0.974789
Core_0_STLB_cross_page_prefetch_accuracy 0.214051
Core_0_STLB_cross_page_prefetch_coverage 0.00408947

========= STLB Cross-page Prefetch Buffer Stats =========
Core_0_STLB_raw_demand_miss 3272802
Core_0_CP_PB_insert 0
Core_0_CP_PB_demand_hit 0
Core_0_STLB_PB_demand_miss 3272802
Core_0_CP_PB_coverage 0
Core_0_STLB_raw_demand_mpki 32.728
Core_0_STLB_PB_demand_mpki 32.728
Core_0_CP_PB_demand_hit_mpki 0

Core_0_TLB_demand_miss_rate 0.118899
Core_0_TLB_demand_mpki 32.728
Core_0_TLB_same_page_prefetch_miss_rate 3.29307e-06
Core_0_TLB_same_page_prefetch_mpki 0.00035
Core_0_TLB_cross_page_prefetch_miss_rate 0.0450562
Core_0_TLB_cross_page_prefetch_mpki 0.3443
Core_0_TLB_cross_page_prefetch_issued 764156
Core_0_TLB_cross_page_prefetch_lookups 764156
Core_0_TLB_cross_page_prefetch_useful 12241
Core_0_TLB_cross_page_prefetch_useless 43547
Core_0_TLB_cross_page_prefetch_late 83
Core_0_TLB_cross_page_prefetch_too_early 24168
Core_0_TLB_cross_page_prefetch_too_early_among_fill 0.248834
Core_0_TLB_cross_page_prefetch_too_early_among_useless 0.554987
Core_0_TLB_cross_page_prefetch_accuracy 0.016019
Core_0_TLB_cross_page_prefetch_coverage 0.00372628
====== vBerti internal metric ========
Core_0_vBerti_end_to_end_issued 14894118
Core_0_vBerti_end_to_end_useful 339825
Core_0_vBerti_end_to_end_late 1946
Core_0_vBerti_end_to_end_accuracy 0.0228161
Core_0_vBerti_end_to_end_timely_accuracy 0.0226854
BERTI TO_L1: 47098429 TO_L2: 9063164 TO_L2_BC_MSHR: 3339124
BERTI AVG_LAT: 218.732 NUM_TRACK_LATENCY: 6450269 NUM_CANT_TRACK_LATENCY: 0
BERTI CROSS_PAGE 7390321 NO_CROSS_PAGE: 48771272
BERTI FOUND_BERTI: 40637161 NO_FOUND_BERTI: 10261584
BERTI AVERAGE_ISSUED: 3.53882
