[VMEM] WARNING: physical memory size is smaller than virtual memory size.

*** ChampSim Multicore Out-of-Order Simulator ***
Warmup Instructions: 50000000
Simulation Instructions: 100000000
Number of CPUs: 1
Page size: 4096
Core 0: /data0/tzh/champsim_traces/QMM/srv_4_new.xz
VBerti Prefetcher
BERTI HASH ENTANGLING
BERTI IP MASK ffff
Off-chip DRAM Size: 16 GiB Channels: 1 Width: 64-bit Data Rate: 3205 MT/s
[BTB] WARNING: target of return is a lower address than the corresponding call. This is usually a problem with your trace.
[BTB] WARNING: target of return is a lower address than the corresponding call. This is usually a problem with your trace.
[BTB] WARNING: target of return is a lower address than the corresponding call. This is usually a problem with your trace.
[BTB] WARNING: target of return is a lower address than the corresponding call. This is usually a problem with your trace.
[BTB] WARNING: target of return is a lower address than the corresponding call. This is usually a problem with your trace.
[BTB] WARNING: target of return is a lower address than the corresponding call. This is usually a problem with your trace.
[BTB] WARNING: target of return is a lower address than the corresponding call. This is usually a problem with your trace.
[BTB] WARNING: target of return is a lower address than the corresponding call. This is usually a problem with your trace.
[BTB] WARNING: target of return is a lower address than the corresponding call. This is usually a problem with your trace.
[BTB] WARNING: target of return is a lower address than the corresponding call. This is usually a problem with your trace.
*** Reached end of trace: (0, "/data0/tzh/champsim_traces/QMM/srv_4_new.xz")
Warmup halting CPU 0 at instruction 50000000 cycle 10764177 for remainder of phase
Warmup finished CPU 0 instructions: 50000000 cycles: 10764177 cumulative IPC: 4.645 (Simulation time: 00 hr 03 min 44 sec)
Warmup complete CPU 0 instructions: 50000000 cycles: 10764177 cumulative IPC: 4.645 (Simulation time: 00 hr 03 min 44 sec)
*** Reached end of trace: (0, "/data0/tzh/champsim_traces/QMM/srv_4_new.xz")
*** Reached end of trace: (0, "/data0/tzh/champsim_traces/QMM/srv_4_new.xz")
*** Reached end of trace: (0, "/data0/tzh/champsim_traces/QMM/srv_4_new.xz")
Simulation finished CPU 0 instructions: 100000001 cycles: 52799201 cumulative IPC: 1.894 (Simulation time: 00 hr 15 min 42 sec)
Simulation complete CPU 0 instructions: 100000001 cycles: 52799201 cumulative IPC: 1.894 (Simulation time: 00 hr 15 min 42 sec)

ChampSim completed all CPUs

=== Simulation ===
CPU 0 runs /data0/tzh/champsim_traces/QMM/srv_4_new.xz

Region of Interest Statistics

CPU 0 cumulative IPC: 1.894 instructions: 100000001 cycles: 52799201
CPU 0 Branch Prediction Accuracy: 98.8% MPKI: 2.148 Average ROB Occupancy at Mispredict: 151.2
Branch type MPKI
BRANCH_DIRECT_JUMP: 0.1293
BRANCH_INDIRECT: 0.198
BRANCH_CONDITIONAL: 1.257
BRANCH_DIRECT_CALL: 0.2349
BRANCH_INDIRECT_CALL: 0.07542
BRANCH_RETURN: 0.2528

cpu0->cpu0_STLB TOTAL        ACCESS:    1650958 HIT:    1492691 MISS:     158267 MSHR_MERGE:          0
cpu0->cpu0_STLB LOAD         ACCESS:    1650958 HIT:    1492691 MISS:     158267 MSHR_MERGE:          0
cpu0->cpu0_STLB RFO          ACCESS:          0 HIT:          0 MISS:          0 MSHR_MERGE:          0
cpu0->cpu0_STLB PREFETCH     ACCESS:          0 HIT:          0 MISS:          0 MSHR_MERGE:          0
cpu0->cpu0_STLB WRITE        ACCESS:          0 HIT:          0 MISS:          0 MSHR_MERGE:          0
cpu0->cpu0_STLB TRANSLATION  ACCESS:          0 HIT:          0 MISS:          0 MSHR_MERGE:          0
cpu0->cpu0_STLB PREFETCH REQUESTED:          0 ISSUED:          0 USEFUL:          0 USELESS:          0 LATE:          0 TOO_EARLY:          0
cpu0->cpu0_STLB AVERAGE MISS LATENCY: 37.16 cycles
cpu0->cpu0_L2C TOTAL        ACCESS:    4519976 HIT:    2981594 MISS:    1538382 MSHR_MERGE:        689
cpu0->cpu0_L2C LOAD         ACCESS:    3648378 HIT:    2302733 MISS:    1345645 MSHR_MERGE:         92
cpu0->cpu0_L2C RFO          ACCESS:     164389 HIT:      82442 MISS:      81947 MSHR_MERGE:          1
cpu0->cpu0_L2C PREFETCH     ACCESS:      35622 HIT:      17765 MISS:      17857 MSHR_MERGE:        596
cpu0->cpu0_L2C WRITE        ACCESS:     523909 HIT:     521895 MISS:       2014 MSHR_MERGE:          0
cpu0->cpu0_L2C TRANSLATION  ACCESS:     147678 HIT:      56759 MISS:      90919 MSHR_MERGE:          0
cpu0->cpu0_L2C PREFETCH REQUESTED:      34740 ISSUED:      34603 USEFUL:      11201 USELESS:       5855 LATE:         92 TOO_EARLY:        405
cpu0->cpu0_L2C AVERAGE MISS LATENCY: 33.02 cycles
cpu0->cpu0_L1I TOTAL        ACCESS:   15861025 HIT:   11699351 MISS:    4161674 MSHR_MERGE:    1615353
cpu0->cpu0_L1I LOAD         ACCESS:   15861025 HIT:   11699351 MISS:    4161674 MSHR_MERGE:    1615353
cpu0->cpu0_L1I RFO          ACCESS:          0 HIT:          0 MISS:          0 MSHR_MERGE:          0
cpu0->cpu0_L1I PREFETCH     ACCESS:          0 HIT:          0 MISS:          0 MSHR_MERGE:          0
cpu0->cpu0_L1I WRITE        ACCESS:          0 HIT:          0 MISS:          0 MSHR_MERGE:          0
cpu0->cpu0_L1I TRANSLATION  ACCESS:          0 HIT:          0 MISS:          0 MSHR_MERGE:          0
cpu0->cpu0_L1I PREFETCH REQUESTED:          0 ISSUED:          0 USEFUL:          0 USELESS:          0 LATE:          0 TOO_EARLY:          0
cpu0->cpu0_L1I AVERAGE MISS LATENCY: 13.02 cycles
cpu0->cpu0_L1D TOTAL        ACCESS:   23060373 HIT:   20955185 MISS:    2105188 MSHR_MERGE:     690020
cpu0->cpu0_L1D LOAD         ACCESS:   12830267 HIT:   11333395 MISS:    1496872 MSHR_MERGE:     394799
cpu0->cpu0_L1D RFO          ACCESS:          0 HIT:          0 MISS:          0 MSHR_MERGE:          0
cpu0->cpu0_L1D PREFETCH     ACCESS:       4792 HIT:       3773 MISS:       1019 MSHR_MERGE:          0
cpu0->cpu0_L1D WRITE        ACCESS:    9865227 HIT:    9408717 MISS:     456510 MSHR_MERGE:     292112
cpu0->cpu0_L1D TRANSLATION  ACCESS:     360087 HIT:     209300 MISS:     150787 MSHR_MERGE:       3109
cpu0->cpu0_L1D PREFETCH REQUESTED:       4898 ISSUED:       4792 USEFUL:         72 USELESS:          1 LATE:          0 TOO_EARLY:          0
cpu0->cpu0_L1D AVERAGE MISS LATENCY: 34.48 cycles
cpu0->cpu0_ITLB TOTAL        ACCESS:   13492117 HIT:   12496164 MISS:     995953 MSHR_MERGE:     617973
cpu0->cpu0_ITLB LOAD         ACCESS:   13492117 HIT:   12496164 MISS:     995953 MSHR_MERGE:     617973
cpu0->cpu0_ITLB RFO          ACCESS:          0 HIT:          0 MISS:          0 MSHR_MERGE:          0
cpu0->cpu0_ITLB PREFETCH     ACCESS:          0 HIT:          0 MISS:          0 MSHR_MERGE:          0
cpu0->cpu0_ITLB WRITE        ACCESS:          0 HIT:          0 MISS:          0 MSHR_MERGE:          0
cpu0->cpu0_ITLB TRANSLATION  ACCESS:          0 HIT:          0 MISS:          0 MSHR_MERGE:          0
cpu0->cpu0_ITLB PREFETCH REQUESTED:          0 ISSUED:          0 USEFUL:          0 USELESS:          0 LATE:          0 TOO_EARLY:          0
cpu0->cpu0_ITLB AVERAGE MISS LATENCY: 8.714 cycles
cpu0->cpu0_DTLB TOTAL        ACCESS:   21327930 HIT:   19608840 MISS:    1719090 MSHR_MERGE:     446113
cpu0->cpu0_DTLB LOAD         ACCESS:   21327930 HIT:   19608840 MISS:    1719090 MSHR_MERGE:     446113
cpu0->cpu0_DTLB RFO          ACCESS:          0 HIT:          0 MISS:          0 MSHR_MERGE:          0
cpu0->cpu0_DTLB PREFETCH     ACCESS:          0 HIT:          0 MISS:          0 MSHR_MERGE:          0
cpu0->cpu0_DTLB WRITE        ACCESS:          0 HIT:          0 MISS:          0 MSHR_MERGE:          0
cpu0->cpu0_DTLB TRANSLATION  ACCESS:          0 HIT:          0 MISS:          0 MSHR_MERGE:          0
cpu0->cpu0_DTLB PREFETCH REQUESTED:          0 ISSUED:          0 USEFUL:          0 USELESS:          0 LATE:          0 TOO_EARLY:          0
cpu0->cpu0_DTLB AVERAGE MISS LATENCY: 8.659 cycles
cpu0->LLC TOTAL        ACCESS:    1802157 HIT:    1643550 MISS:     158607 MSHR_MERGE:          0
cpu0->LLC LOAD         ACCESS:    1345553 HIT:    1231557 MISS:     113996 MSHR_MERGE:          0
cpu0->LLC RFO          ACCESS:      81946 HIT:      58674 MISS:      23272 MSHR_MERGE:          0
cpu0->LLC PREFETCH     ACCESS:      17261 HIT:       6934 MISS:      10327 MSHR_MERGE:          0
cpu0->LLC WRITE        ACCESS:     266478 HIT:     261627 MISS:       4851 MSHR_MERGE:          0
cpu0->LLC TRANSLATION  ACCESS:      90919 HIT:      84758 MISS:       6161 MSHR_MERGE:          0
cpu0->LLC PREFETCH REQUESTED:          0 ISSUED:          0 USEFUL:          0 USELESS:          0 LATE:          0 TOO_EARLY:          0
cpu0->LLC AVERAGE MISS LATENCY: 184.1 cycles

DRAM Statistics

Channel 0 RQ ROW_BUFFER_HIT:       6287
  ROW_BUFFER_MISS:     147469
  AVG DBUS CONGESTED CYCLE: 15.55
Channel 0 WQ ROW_BUFFER_HIT:      23482
  ROW_BUFFER_MISS:      83283
  FULL:          0
Channel 0 REFRESHES ISSUED:       4399

[ROI Statistics]
[System Configuration]
num_cpus 1
cpu_freq 4000
fetch_width 6
decode_width 6
dispatch_width 6
execute_width 6
lq_width 2
sq_width 2
retire_width 6
scheduler_size 128
branch_mispredict_penalty 15
rob_size 352
lq_size 128
sq_size 72
ifetch_buffer_size 64
decode_buffer_size 32
dispatch_buffer_size 32
register_file_size 288
decode_latency 1
dispatch_latency 1
schedule_latency 1
execute_latency 1
page_size 4096
block_size 64
core_0_itlb_set 16
core_0_itlb_way 4
core_0_itlb_rq_size 16
core_0_itlb_wq_size 16
core_0_itlb_pq_size 0
core_0_itlb_mshr_size 8
core_0_itlb_hit_latency 1
core_0_itlb_fill_latency 1
core_0_itlb_max_tag_check 2
core_0_itlb_max_fill 2
core_0_dtlb_set 16
core_0_dtlb_way 4
core_0_dtlb_rq_size 16
core_0_dtlb_wq_size 16
core_0_dtlb_pq_size 0
core_0_dtlb_mshr_size 8
core_0_dtlb_hit_latency 1
core_0_dtlb_fill_latency 1
core_0_dtlb_max_tag_check 2
core_0_dtlb_max_fill 2
core_0_stlb_set 128
core_0_stlb_way 12
core_0_stlb_rq_size 32
core_0_stlb_wq_size 32
core_0_stlb_pq_size 0
core_0_stlb_mshr_size 16
core_0_stlb_hit_latency 4
core_0_stlb_fill_latency 4
core_0_stlb_max_tag_check 1
core_0_stlb_max_fill 1
core_0_l1i_set 64
core_0_l1i_way 8
core_0_l1i_rq_size 64
core_0_l1i_wq_size 64
core_0_l1i_pq_size 32
core_0_l1i_mshr_size 8
core_0_l1i_hit_latency 2
core_0_l1i_fill_latency 2
core_0_l1i_max_tag_check 2
core_0_l1i_max_fill 2
core_0_l1d_set 64
core_0_l1d_way 12
core_0_l1d_rq_size 64
core_0_l1d_wq_size 64
core_0_l1d_pq_size 8
core_0_l1d_mshr_size 16
core_0_l1d_hit_latency 2
core_0_l1d_fill_latency 3
core_0_l1d_max_tag_check 2
core_0_l1d_max_fill 2
core_0_l2c_set 1024
core_0_l2c_way 8
core_0_l2c_rq_size 32
core_0_l2c_wq_size 32
core_0_l2c_pq_size 16
core_0_l2c_mshr_size 32
core_0_l2c_hit_latency 5
core_0_l2c_fill_latency 5
core_0_l2c_max_tag_check 1
core_0_l2c_max_fill 1
llc_set 2048
llc_way 16
llc_rq_size 32
llc_wq_size 32
llc_pq_size 32
llc_mshr_size 64
llc_hit_latency 10
llc_fill_latency 10
llc_max_tag_check 1
llc_max_fill 1
dram_channels 1
dram_ranks 1
dram_bankgroups 8
dram_banks 4
dram_rows 65536
dram_columns 1024
dram_channel_width 8
dram_rq_size 64
dram_wq_size 64
dram_size 17179869184
core_0_itlb_prefetcher no
core_0_dtlb_prefetcher no
core_0_stlb_prefetcher no
core_0_l1i_prefetcher next_line
core_0_l1d_prefetcher vberti
core_0_l2c_prefetcher ip_stride
llc_prefetcher no
llc_replacement drrip

Core_0_instructions 100000001
Core_0_cycles 52799201
Core_0_IPC 1.89397
Core_0_branch_prediction_accuracy 98.8007
Core_0_branch_MPKI 2.14795
Core_0_average_ROB_occupancy_at_mispredict 151.19

Core_0_ITLB_total_access 13492117
Core_0_ITLB_total_hit 12496164
Core_0_ITLB_total_miss 995953
Core_0_ITLB_total_MPKI 9.95953
Core_0_ITLB_total_miss_rate 0.0738174
Core_0_ITLB_demand_access 13492117
Core_0_ITLB_demand_hit 12496164
Core_0_ITLB_demand_miss 995953
Core_0_ITLB_demand_MPKI 9.95953
Core_0_ITLB_demand_miss_rate 0.0738174
Core_0_ITLB_load_access 13492117
Core_0_ITLB_load_hit 12496164
Core_0_ITLB_load_miss 995953
Core_0_ITLB_load_MPKI 9.95953
Core_0_ITLB_load_miss_rate 0.0738174
Core_0_ITLB_rfo_access 0
Core_0_ITLB_rfo_hit 0
Core_0_ITLB_rfo_miss 0
Core_0_ITLB_rfo_MPKI 0
Core_0_ITLB_rfo_miss_rate 0
Core_0_ITLB_prefetch_access 0
Core_0_ITLB_prefetch_hit 0
Core_0_ITLB_prefetch_miss 0
Core_0_ITLB_prefetch_MPKI 0
Core_0_ITLB_prefetch_miss_rate 0
Core_0_ITLB_writeback_access 0
Core_0_ITLB_writeback_hit 0
Core_0_ITLB_writeback_miss 0
Core_0_ITLB_writeback_MPKI 0
Core_0_ITLB_writeback_miss_rate 0
Core_0_ITLB_prefetch_requested 0
Core_0_ITLB_prefetch_issued 0
Core_0_ITLB_prefetch_useful 0
Core_0_ITLB_prefetch_useless 0
Core_0_ITLB_prefetch_late 0
Core_0_ITLB_prefetch_fill 0
Core_0_ITLB_prefetch_too_early 0
Core_0_ITLB_prefetch_too_early_among_fill 0
Core_0_ITLB_prefetch_too_early_among_useless 0
Core_0_ITLB_prefetch_pollution_evict 0
Core_0_ITLB_prefetch_pollution_demand 0
Core_0_ITLB_prefetch_pollution_among_prefetch_fill 0
Core_0_ITLB_prefetch_accuracy 0
Core_0_ITLB_prefetch_coverage 0

Core_0_DTLB_total_access 21327930
Core_0_DTLB_total_hit 19608840
Core_0_DTLB_total_miss 1719090
Core_0_DTLB_total_MPKI 17.1909
Core_0_DTLB_total_miss_rate 0.0806028
Core_0_DTLB_demand_access 21327930
Core_0_DTLB_demand_hit 19608840
Core_0_DTLB_demand_miss 1719090
Core_0_DTLB_demand_MPKI 17.1909
Core_0_DTLB_demand_miss_rate 0.0806028
Core_0_DTLB_load_access 21327930
Core_0_DTLB_load_hit 19608840
Core_0_DTLB_load_miss 1719090
Core_0_DTLB_load_MPKI 17.1909
Core_0_DTLB_load_miss_rate 0.0806028
Core_0_DTLB_rfo_access 0
Core_0_DTLB_rfo_hit 0
Core_0_DTLB_rfo_miss 0
Core_0_DTLB_rfo_MPKI 0
Core_0_DTLB_rfo_miss_rate 0
Core_0_DTLB_prefetch_access 0
Core_0_DTLB_prefetch_hit 0
Core_0_DTLB_prefetch_miss 0
Core_0_DTLB_prefetch_MPKI 0
Core_0_DTLB_prefetch_miss_rate 0
Core_0_DTLB_writeback_access 0
Core_0_DTLB_writeback_hit 0
Core_0_DTLB_writeback_miss 0
Core_0_DTLB_writeback_MPKI 0
Core_0_DTLB_writeback_miss_rate 0
Core_0_DTLB_prefetch_requested 0
Core_0_DTLB_prefetch_issued 0
Core_0_DTLB_prefetch_useful 0
Core_0_DTLB_prefetch_useless 0
Core_0_DTLB_prefetch_late 0
Core_0_DTLB_prefetch_fill 0
Core_0_DTLB_prefetch_too_early 0
Core_0_DTLB_prefetch_too_early_among_fill 0
Core_0_DTLB_prefetch_too_early_among_useless 0
Core_0_DTLB_prefetch_pollution_evict 0
Core_0_DTLB_prefetch_pollution_demand 0
Core_0_DTLB_prefetch_pollution_among_prefetch_fill 0
Core_0_DTLB_prefetch_accuracy 0
Core_0_DTLB_prefetch_coverage 0

Core_0_STLB_total_access 1650958
Core_0_STLB_total_hit 1492691
Core_0_STLB_total_miss 158267
Core_0_STLB_total_MPKI 1.58267
Core_0_STLB_total_miss_rate 0.0958637
Core_0_STLB_demand_access 1650958
Core_0_STLB_demand_hit 1492691
Core_0_STLB_demand_miss 158267
Core_0_STLB_demand_MPKI 1.58267
Core_0_STLB_demand_miss_rate 0.0958637
Core_0_STLB_load_access 1650958
Core_0_STLB_load_hit 1492691
Core_0_STLB_load_miss 158267
Core_0_STLB_load_MPKI 1.58267
Core_0_STLB_load_miss_rate 0.0958637
Core_0_STLB_rfo_access 0
Core_0_STLB_rfo_hit 0
Core_0_STLB_rfo_miss 0
Core_0_STLB_rfo_MPKI 0
Core_0_STLB_rfo_miss_rate 0
Core_0_STLB_prefetch_access 0
Core_0_STLB_prefetch_hit 0
Core_0_STLB_prefetch_miss 0
Core_0_STLB_prefetch_MPKI 0
Core_0_STLB_prefetch_miss_rate 0
Core_0_STLB_writeback_access 0
Core_0_STLB_writeback_hit 0
Core_0_STLB_writeback_miss 0
Core_0_STLB_writeback_MPKI 0
Core_0_STLB_writeback_miss_rate 0
Core_0_STLB_prefetch_requested 0
Core_0_STLB_prefetch_issued 0
Core_0_STLB_prefetch_useful 0
Core_0_STLB_prefetch_useless 0
Core_0_STLB_prefetch_late 0
Core_0_STLB_prefetch_fill 0
Core_0_STLB_prefetch_too_early 0
Core_0_STLB_prefetch_too_early_among_fill 0
Core_0_STLB_prefetch_too_early_among_useless 0
Core_0_STLB_prefetch_pollution_evict 0
Core_0_STLB_prefetch_pollution_demand 0
Core_0_STLB_prefetch_pollution_among_prefetch_fill 0
Core_0_STLB_prefetch_accuracy 0
Core_0_STLB_prefetch_coverage 0

Core_0_L1I_total_access 15861025
Core_0_L1I_total_hit 11699351
Core_0_L1I_total_miss 4161674
Core_0_L1I_total_MPKI 41.6167
Core_0_L1I_total_miss_rate 0.262384
Core_0_L1I_demand_access 15861025
Core_0_L1I_demand_hit 11699351
Core_0_L1I_demand_miss 4161674
Core_0_L1I_demand_MPKI 41.6167
Core_0_L1I_demand_miss_rate 0.262384
Core_0_L1I_load_access 15861025
Core_0_L1I_load_hit 11699351
Core_0_L1I_load_miss 4161674
Core_0_L1I_load_MPKI 41.6167
Core_0_L1I_load_miss_rate 0.262384
Core_0_L1I_rfo_access 0
Core_0_L1I_rfo_hit 0
Core_0_L1I_rfo_miss 0
Core_0_L1I_rfo_MPKI 0
Core_0_L1I_rfo_miss_rate 0
Core_0_L1I_prefetch_access 0
Core_0_L1I_prefetch_hit 0
Core_0_L1I_prefetch_miss 0
Core_0_L1I_prefetch_MPKI 0
Core_0_L1I_prefetch_miss_rate 0
Core_0_L1I_writeback_access 0
Core_0_L1I_writeback_hit 0
Core_0_L1I_writeback_miss 0
Core_0_L1I_writeback_MPKI 0
Core_0_L1I_writeback_miss_rate 0
Core_0_L1I_prefetch_requested 0
Core_0_L1I_prefetch_issued 0
Core_0_L1I_prefetch_useful 0
Core_0_L1I_prefetch_useless 0
Core_0_L1I_prefetch_late 0
Core_0_L1I_prefetch_fill 0
Core_0_L1I_prefetch_too_early 0
Core_0_L1I_prefetch_too_early_among_fill 0
Core_0_L1I_prefetch_too_early_among_useless 0
Core_0_L1I_prefetch_pollution_evict 0
Core_0_L1I_prefetch_pollution_demand 0
Core_0_L1I_prefetch_pollution_among_prefetch_fill 0
Core_0_L1I_prefetch_accuracy 0
Core_0_L1I_prefetch_coverage 0

Core_0_L1D_total_access 22700286
Core_0_L1D_total_hit 20745885
Core_0_L1D_total_miss 1954401
Core_0_L1D_total_MPKI 19.544
Core_0_L1D_total_miss_rate 0.0860959
Core_0_L1D_demand_access 12830267
Core_0_L1D_demand_hit 11333395
Core_0_L1D_demand_miss 1496872
Core_0_L1D_demand_MPKI 14.9687
Core_0_L1D_demand_miss_rate 0.116667
Core_0_L1D_load_access 12830267
Core_0_L1D_load_hit 11333395
Core_0_L1D_load_miss 1496872
Core_0_L1D_load_MPKI 14.9687
Core_0_L1D_load_miss_rate 0.116667
Core_0_L1D_rfo_access 0
Core_0_L1D_rfo_hit 0
Core_0_L1D_rfo_miss 0
Core_0_L1D_rfo_MPKI 0
Core_0_L1D_rfo_miss_rate 0
Core_0_L1D_prefetch_access 4792
Core_0_L1D_prefetch_hit 3773
Core_0_L1D_prefetch_miss 1019
Core_0_L1D_prefetch_MPKI 0.01019
Core_0_L1D_prefetch_miss_rate 0.212646
Core_0_L1D_writeback_access 9865227
Core_0_L1D_writeback_hit 9408717
Core_0_L1D_writeback_miss 456510
Core_0_L1D_writeback_MPKI 4.5651
Core_0_L1D_writeback_miss_rate 0.0462747
Core_0_L1D_prefetch_requested 4898
Core_0_L1D_prefetch_issued 4792
Core_0_L1D_prefetch_useful 72
Core_0_L1D_prefetch_useless 1
Core_0_L1D_prefetch_late 0
Core_0_L1D_prefetch_fill 73
Core_0_L1D_prefetch_too_early 0
Core_0_L1D_prefetch_too_early_among_fill 0
Core_0_L1D_prefetch_too_early_among_useless 0
Core_0_L1D_prefetch_pollution_evict 50
Core_0_L1D_prefetch_pollution_demand 50
Core_0_L1D_prefetch_pollution_among_prefetch_fill 0.684932
Core_0_L1D_prefetch_accuracy 0.015025
Core_0_L1D_prefetch_coverage 4.8098e-05

Core_0_L2C_total_access 4372298
Core_0_L2C_total_hit 2924835
Core_0_L2C_total_miss 1447463
Core_0_L2C_total_MPKI 14.4746
Core_0_L2C_total_miss_rate 0.331053
Core_0_L2C_demand_access 3812767
Core_0_L2C_demand_hit 2385175
Core_0_L2C_demand_miss 1427592
Core_0_L2C_demand_MPKI 14.2759
Core_0_L2C_demand_miss_rate 0.374424
Core_0_L2C_load_access 3648378
Core_0_L2C_load_hit 2302733
Core_0_L2C_load_miss 1345645
Core_0_L2C_load_MPKI 13.4564
Core_0_L2C_load_miss_rate 0.368834
Core_0_L2C_rfo_access 164389
Core_0_L2C_rfo_hit 82442
Core_0_L2C_rfo_miss 81947
Core_0_L2C_rfo_MPKI 0.81947
Core_0_L2C_rfo_miss_rate 0.498494
Core_0_L2C_prefetch_access 35622
Core_0_L2C_prefetch_hit 17765
Core_0_L2C_prefetch_miss 17857
Core_0_L2C_prefetch_MPKI 0.17857
Core_0_L2C_prefetch_miss_rate 0.501291
Core_0_L2C_writeback_access 523909
Core_0_L2C_writeback_hit 521895
Core_0_L2C_writeback_miss 2014
Core_0_L2C_writeback_MPKI 0.02014
Core_0_L2C_writeback_miss_rate 0.00384418
Core_0_L2C_prefetch_requested 34740
Core_0_L2C_prefetch_issued 34603
Core_0_L2C_prefetch_useful 11201
Core_0_L2C_prefetch_useless 5855
Core_0_L2C_prefetch_late 92
Core_0_L2C_prefetch_fill 17168
Core_0_L2C_prefetch_too_early 405
Core_0_L2C_prefetch_too_early_among_fill 0.0235904
Core_0_L2C_prefetch_too_early_among_useless 0.0691716
Core_0_L2C_prefetch_pollution_evict 15193
Core_0_L2C_prefetch_pollution_demand 15188
Core_0_L2C_prefetch_pollution_among_prefetch_fill 0.88496
Core_0_L2C_prefetch_accuracy 0.3237
Core_0_L2C_prefetch_coverage 0.007785

Core_0_LLC_total_access 1711238
Core_0_LLC_total_hit 1558792
Core_0_LLC_total_miss 152446
Core_0_LLC_total_MPKI 1.52446
Core_0_LLC_total_miss_rate 0.0890852
Core_0_LLC_demand_access 1427499
Core_0_LLC_demand_hit 1290231
Core_0_LLC_demand_miss 137268
Core_0_LLC_demand_MPKI 1.37268
Core_0_LLC_demand_miss_rate 0.0961598
Core_0_LLC_load_access 1345553
Core_0_LLC_load_hit 1231557
Core_0_LLC_load_miss 113996
Core_0_LLC_load_MPKI 1.13996
Core_0_LLC_load_miss_rate 0.0847206
Core_0_LLC_rfo_access 81946
Core_0_LLC_rfo_hit 58674
Core_0_LLC_rfo_miss 23272
Core_0_LLC_rfo_MPKI 0.23272
Core_0_LLC_rfo_miss_rate 0.283992
Core_0_LLC_prefetch_access 17261
Core_0_LLC_prefetch_hit 6934
Core_0_LLC_prefetch_miss 10327
Core_0_LLC_prefetch_MPKI 0.10327
Core_0_LLC_prefetch_miss_rate 0.598285
Core_0_LLC_writeback_access 266478
Core_0_LLC_writeback_hit 261627
Core_0_LLC_writeback_miss 4851
Core_0_LLC_writeback_MPKI 0.04851
Core_0_LLC_writeback_miss_rate 0.0182041
Core_0_LLC_prefetch_requested 0
Core_0_LLC_prefetch_issued 0
Core_0_LLC_prefetch_useful 0
Core_0_LLC_prefetch_useless 0
Core_0_LLC_prefetch_late 0
Core_0_LLC_prefetch_fill 10327
Core_0_LLC_prefetch_too_early 0
Core_0_LLC_prefetch_too_early_among_fill 0
Core_0_LLC_prefetch_too_early_among_useless 0
Core_0_LLC_prefetch_pollution_evict 7386
Core_0_LLC_prefetch_pollution_demand 7386
Core_0_LLC_prefetch_pollution_among_prefetch_fill 0.715213
Core_0_LLC_prefetch_accuracy 0
Core_0_LLC_prefetch_coverage 0

[DRAM Statistics]
Channel_0_RQ_row_buffer_hit 6287
Channel_0_RQ_row_buffer_miss 147469
Channel_0_WQ_row_buffer_hit 23482
Channel_0_WQ_row_buffer_miss 83283
Channel_0_WQ_full 0
Channel_0_dbus_congested 808794
DRAM_total_RQ_row_buffer_hit 6287
DRAM_total_RQ_row_buffer_miss 147469
DRAM_total_WQ_row_buffer_hit 23482
DRAM_total_WQ_row_buffer_miss 83283
DRAM_total_WQ_full 0
DRAM_total_dbus_congested 808794
DRAM_avg_congested_cycle 15.5494

====== DRAM_RQ_TRAFFIC ========
DRAM_RQ_READ_TRAFFIC_BREAKDOWN:
data_demand_read.count = 132798
data_demand_read.share = 86.37%

inst_demand_read.count = 4470
inst_demand_read.share = 2.91%

cache_inst_prefetch.count = 0
cache_inst_prefetch.share = 0.00%

cache_data_prefetch.count = 10327
cache_data_prefetch.share = 6.72%

stlb_data_demand.count = 6026
stlb_data_demand.share = 3.92%

stlb_inst_demand.count = 135
stlb_inst_demand.share = 0.09%

stlb_l1i_pref.count = 0
stlb_l1i_pref.share = 0.00%

stlb_l1d_pref.count = 0
stlb_l1d_pref.share = 0.00%

DRAM_RQ_READ_TRAFFIC_SUMMARY:
cache_demand.count = 137268
cache_demand.share = 89.28%

cache_prefetch.count = 10327
cache_prefetch.share = 6.72%

stlb_demand.count = 6161
stlb_demand.share = 4.01%

stlb_prefetch.count = 0
stlb_prefetch.share = 0.00%

DRAM_RQ_READ_TRAFFIC_DEBUG:
total_classified_read.count = 153756
unclassified_read.count = 0
total_read_with_other.count = 153756

classified_plus_unclassified_check.count = 153756
dram_rq_read_total_observed.count = 153756
dram_rq_read_total_observed.per_1K_instructions = 1.53756

STLB_MISS_PTW_DRAM_TOUCH_BREAKDOWN:
stlb_miss_total.count = 158267

stlb_miss_touch_dram.count = 6156
stlb_miss_touch_dram.share = 3.89%

stlb_miss_no_dram_touch.count = 152111
stlb_miss_no_dram_touch.share = 96.11%

STLB_MISS_PTW_DRAM_TOUCH_DEBUG:
stlb_miss_touch_plus_no_touch.count = 158267
stlb_miss_total_check.count = 158267

======STLB miss causes ========
Core_0_STLB_miss_cause_breakdown
Core_0_STLB_cause_Demand_Data_miss 104048
Core_0_STLB_cause_Demand_Data_miss_rate 0.0630228
Core_0_STLB_cause_Demand_Instruction_miss 54219
Core_0_STLB_cause_Demand_Instruction_miss_rate 0.0328409
Core_0_STLB_cause_L1D_Prefetch_miss 0
Core_0_STLB_cause_L1D_Prefetch_miss_rate 0
Core_0_STLB_cause_L1D_Prefetch_Same_Page_miss 0
Core_0_STLB_cause_L1D_Prefetch_Same_Page_miss_rate 0
Core_0_STLB_cause_L1D_Prefetch_Cross_Page_miss 0
Core_0_STLB_cause_L1D_Prefetch_Cross_Page_miss_rate 0
Core_0_STLB_cause_L1I_Prefetch_miss 0
Core_0_STLB_cause_L1I_Prefetch_miss_rate 0
Core_0_STLB_cause_Other_miss 0
Core_0_STLB_cause_Other_miss_rate 0
Core_0_STLB_Demand_miss 158267
Core_0_STLB_Demand_miss_rate 0.0958637
Core_0_STLB_L1D_Prefetch_miss 0
Core_0_STLB_L1D_Prefetch_miss_rate 0
Core_0_STLB_Other_miss 0
Core_0_STLB_Other_miss_rate 0

========== vBerti-TLB Cross-page Flow Stats ==========

Core_0_vBerti_Requested 4898
Core_0_vBerti_Cross_page_prefetch_in_Requested 1182
Core_0_vBerti_Same_page_prefetch_in_Requested 3716
Core_0_vBerti_Cross_page_prefetch_of_Requested 0.241323
Core_0_vBerti_Issued 4792
Core_0_vBerti_InPQ_Same_page_prefetch 3615
Core_0_vBerti_InPQ_Cross_page_prefetch 1177
Core_0_vBerti_PQ_Drop_Rate 0.0216415
Core_0_vBerti_InPQ_Cross_page_prefetch_of_Requested 0.240302
Core_0_vBerti_Cross_page_PQ_Drop_rate 0.00423012
Core_0_vBerti_Cross_page_prefetch_of_Issued 0.245618
Core_0_CP_PF_PQFULL_drop 5
Core_0_CP_PF_PQFULL_TLB_rescue_enqueued 0
Core_0_CP_PF_PQFULL_TLB_rescue_issued 0
Core_0_CP_PF_PQFULL_TLB_rescue_translated 0

========= DTLB_vBerti Prefetch Stats =========
Core_0_DTLB_demand_access 21324272
Core_0_DTLB_demand_hit 19605182
Core_0_DTLB_demand_miss 1719090
Core_0_DTLB_demand_mshr_merge 446113
Core_0_DTLB_demand_fill 1272977
Core_0_DTLB_demand_miss_rate 0.0806166
Core_0_DTLB_demand_mpki 17.1909
Core_0_DTLB_vberti_prefetch_access 3658
Core_0_DTLB_vberti_prefetch_hit 3658
Core_0_DTLB_vberti_prefetch_miss 0
Core_0_DTLB_vberti_prefetch_mshr_merge 0
Core_0_DTLB_vberti_prefetch_fill 0
Core_0_DTLB_vberti_prefetch_miss_rate 0
Core_0_DTLB_vberti_prefetch_mpki 0

=== DTLB_vBerti Same/Cross-page Prefetch Stats ===
Core_0_DTLB_vberti_same_page_prefetch 2775
Core_0_DTLB_vberti_same_page_prefetch_hit 2775
Core_0_DTLB_vberti_same_page_prefetch_miss 0
Core_0_DTLB_vberti_same_page_prefetch_mshr_merge 0
Core_0_DTLB_vberti_same_page_prefetch_fill 0
Core_0_DTLB_vberti_same_page_prefetch_miss_rate 0
Core_0_DTLB_vberti_same_page_prefetch_mpki 0
Core_0_DTLB_vberti_cross_page_prefetch 883
Core_0_DTLB_vberti_cross_page_prefetch_hit 883
Core_0_DTLB_vberti_cross_page_prefetch_miss 0
Core_0_DTLB_vberti_cross_page_prefetch_mshr_merge 0
Core_0_DTLB_vberti_cross_page_prefetch_fill 0
Core_0_DTLB_vberti_cross_page_prefetch_miss_rate 0
Core_0_DTLB_vberti_cross_page_prefetch_mpki 0
Core_0_DTLB_same_page_prefetch_miss_rate 0
Core_0_DTLB_same_page_prefetch_mpki 0
Core_0_DTLB_cross_page_prefetch_miss_rate 0
Core_0_DTLB_cross_page_prefetch_mpki 0
Core_0_DTLB_cross_page_prefetch_issued 883
Core_0_DTLB_cross_page_prefetch_lookups 883
Core_0_DTLB_cross_page_prefetch_useful 0
Core_0_DTLB_cross_page_prefetch_useless 0
Core_0_DTLB_cross_page_prefetch_late 0
Core_0_DTLB_cross_page_prefetch_too_early 0
Core_0_DTLB_cross_page_prefetch_too_early_among_fill 0
Core_0_DTLB_cross_page_prefetch_too_early_among_useless 0
Core_0_DTLB_cross_page_prefetch_pollution_evict 0
Core_0_DTLB_cross_page_prefetch_pollution_demand 0
Core_0_DTLB_cross_page_prefetch_pollution_among_prefetch_fill 0
Core_0_DTLB_cross_page_prefetch_accuracy 0
Core_0_DTLB_cross_page_prefetch_coverage 0

========= STLB_vBerti Prefetch Stats =========
Core_0_STLB_demand_access 1650958
Core_0_STLB_demand_hit 1492691
Core_0_STLB_demand_miss 158267
Core_0_STLB_demand_mshr_merge 0
Core_0_STLB_demand_fill 158267
Core_0_STLB_demand_miss_rate 0.0958637
Core_0_STLB_demand_mpki 1.58267
Core_0_STLB_vberti_prefetch_access 0
Core_0_STLB_vberti_prefetch_hit 0
Core_0_STLB_vberti_prefetch_miss 0
Core_0_STLB_vberti_prefetch_mshr_merge 0
Core_0_STLB_vberti_prefetch_fill 0
Core_0_STLB_vberti_prefetch_miss_rate 0
Core_0_STLB_vberti_prefetch_mpki 0

=== STLB_vBerti Same/Cross-page Prefetch Stats ===
Core_0_STLB_vberti_same_page_prefetch 0
Core_0_STLB_vberti_same_page_prefetch_hit 0
Core_0_STLB_vberti_same_page_prefetch_miss 0
Core_0_STLB_vberti_same_page_prefetch_mshr_merge 0
Core_0_STLB_vberti_same_page_prefetch_fill 0
Core_0_STLB_vberti_same_page_prefetch_miss_rate 0
Core_0_STLB_vberti_same_page_prefetch_mpki 0
Core_0_STLB_vberti_cross_page_prefetch 0
Core_0_STLB_vberti_cross_page_prefetch_hit 0
Core_0_STLB_vberti_cross_page_prefetch_miss 0
Core_0_STLB_vberti_cross_page_prefetch_mshr_merge 0
Core_0_STLB_vberti_cross_page_prefetch_fill 0
Core_0_STLB_vberti_cross_page_prefetch_miss_rate 0
Core_0_STLB_vberti_cross_page_prefetch_mpki 0
Core_0_STLB_same_page_prefetch_miss_rate 0
Core_0_STLB_same_page_prefetch_mpki 0
Core_0_STLB_cross_page_prefetch_miss_rate 0
Core_0_STLB_cross_page_prefetch_mpki 0
Core_0_STLB_cross_page_prefetch_issued 0
Core_0_STLB_cross_page_prefetch_lookups 0
Core_0_STLB_cross_page_prefetch_useful 0
Core_0_STLB_cross_page_prefetch_useless 0
Core_0_STLB_cross_page_prefetch_late 0
Core_0_STLB_cross_page_prefetch_too_early 0
Core_0_STLB_cross_page_prefetch_too_early_among_fill 0
Core_0_STLB_cross_page_prefetch_too_early_among_useless 0
Core_0_STLB_cross_page_prefetch_pollution_evict 0
Core_0_STLB_cross_page_prefetch_pollution_demand 0
Core_0_STLB_cross_page_prefetch_pollution_among_prefetch_fill 0
Core_0_STLB_cross_page_prefetch_accuracy 0
Core_0_STLB_cross_page_prefetch_coverage 0

========= STLB Cross-page Prefetch Buffer Stats =========
Core_0_STLB_raw_demand_miss 104048
Core_0_CP_PB_insert 0
Core_0_CP_PB_demand_hit 0
Core_0_STLB_PB_demand_miss 104048
Core_0_CP_PB_coverage 0
Core_0_STLB_raw_demand_mpki 1.04048
Core_0_STLB_PB_demand_mpki 1.04048
Core_0_CP_PB_demand_hit_mpki 0

Core_0_TLB_demand_miss_rate 0.00742192
Core_0_TLB_demand_mpki 1.58267
Core_0_TLB_same_page_prefetch_miss_rate 0
Core_0_TLB_same_page_prefetch_mpki 0
Core_0_TLB_cross_page_prefetch_miss_rate 0
Core_0_TLB_cross_page_prefetch_mpki 0
Core_0_TLB_cross_page_prefetch_issued 883
Core_0_TLB_cross_page_prefetch_lookups 883
Core_0_TLB_cross_page_prefetch_useful 0
Core_0_TLB_cross_page_prefetch_useless 0
Core_0_TLB_cross_page_prefetch_late 0
Core_0_TLB_cross_page_prefetch_too_early 0
Core_0_TLB_cross_page_prefetch_too_early_among_fill 0
Core_0_TLB_cross_page_prefetch_too_early_among_useless 0
Core_0_TLB_cross_page_prefetch_accuracy 0
Core_0_TLB_cross_page_prefetch_coverage 0
====== vBerti internal metric ========
Core_0_vBerti_end_to_end_issued 4792
Core_0_vBerti_end_to_end_useful 25
Core_0_vBerti_end_to_end_late 1
Core_0_vBerti_end_to_end_accuracy 0.00521703
Core_0_vBerti_end_to_end_timely_accuracy 0.00500835
BERTI TO_L1: 1794 TO_L2: 3104 TO_L2_BC_MSHR: 0
BERTI AVG_LAT: 36.4266 NUM_TRACK_LATENCY: 1265842 NUM_CANT_TRACK_LATENCY: 0
BERTI CROSS_PAGE 1182 NO_CROSS_PAGE: 3716
BERTI FOUND_BERTI: 683388 NO_FOUND_BERTI: 22157065
BERTI AVERAGE_ISSUED: 3.60843
