[VMEM] WARNING: physical memory size is smaller than virtual memory size.

*** ChampSim Multicore Out-of-Order Simulator ***
Warmup Instructions: 50000000
Simulation Instructions: 100000000
Number of CPUs: 1
Page size: 4096
Core 0: /data2/zcq/champsim_traces_gap/tc.twitter-34B.champsimtrace.xz
VBerti Prefetcher
BERTI HASH ENTANGLING
BERTI IP MASK ffff
Off-chip DRAM Size: 16 GiB Channels: 1 Width: 64-bit Data Rate: 3205 MT/s
Warmup halting CPU 0 at instruction 50000000 cycle 14330305 for remainder of phase
Warmup finished CPU 0 instructions: 50000000 cycles: 14330305 cumulative IPC: 3.489 (Simulation time: 00 hr 04 min 21 sec)
Warmup complete CPU 0 instructions: 50000000 cycles: 14330305 cumulative IPC: 3.489 (Simulation time: 00 hr 04 min 21 sec)
Simulation finished CPU 0 instructions: 100000000 cycles: 169805408 cumulative IPC: 0.5889 (Simulation time: 00 hr 27 min 38 sec)
Simulation complete CPU 0 instructions: 100000000 cycles: 169805408 cumulative IPC: 0.5889 (Simulation time: 00 hr 27 min 38 sec)

ChampSim completed all CPUs

=== Simulation ===
CPU 0 runs /data2/zcq/champsim_traces_gap/tc.twitter-34B.champsimtrace.xz

Region of Interest Statistics

CPU 0 cumulative IPC: 0.5889 instructions: 100000000 cycles: 169805408
CPU 0 Branch Prediction Accuracy: 81.82% MPKI: 44.18 Average ROB Occupancy at Mispredict: 6.372
Branch type MPKI
BRANCH_DIRECT_JUMP: 0.00818
BRANCH_INDIRECT: 0
BRANCH_CONDITIONAL: 44.17
BRANCH_DIRECT_CALL: 2e-05
BRANCH_INDIRECT_CALL: 0
BRANCH_RETURN: 2e-05

cpu0->cpu0_STLB TOTAL        ACCESS:     437804 HIT:      18806 MISS:     418998 MSHR_MERGE:          0
cpu0->cpu0_STLB LOAD         ACCESS:     437804 HIT:      18806 MISS:     418998 MSHR_MERGE:          0
cpu0->cpu0_STLB RFO          ACCESS:          0 HIT:          0 MISS:          0 MSHR_MERGE:          0
cpu0->cpu0_STLB PREFETCH     ACCESS:          0 HIT:          0 MISS:          0 MSHR_MERGE:          0
cpu0->cpu0_STLB WRITE        ACCESS:          0 HIT:          0 MISS:          0 MSHR_MERGE:          0
cpu0->cpu0_STLB TRANSLATION  ACCESS:          0 HIT:          0 MISS:          0 MSHR_MERGE:          0
cpu0->cpu0_STLB PREFETCH REQUESTED:          0 ISSUED:          0 USEFUL:          0 USELESS:          0 LATE:          0 TOO_EARLY:          0
cpu0->cpu0_STLB AVERAGE MISS LATENCY: 107.1 cycles
cpu0->cpu0_L2C TOTAL        ACCESS:    4324246 HIT:    2793693 MISS:    1530553 MSHR_MERGE:     166620
cpu0->cpu0_L2C LOAD         ACCESS:     780812 HIT:      38794 MISS:     742018 MSHR_MERGE:       6842
cpu0->cpu0_L2C RFO          ACCESS:       8007 HIT:       4229 MISS:       3778 MSHR_MERGE:        326
cpu0->cpu0_L2C PREFETCH     ACCESS:    2995408 HIT:    2384416 MISS:     610992 MSHR_MERGE:     159452
cpu0->cpu0_L2C WRITE        ACCESS:     270364 HIT:     270345 MISS:         19 MSHR_MERGE:          0
cpu0->cpu0_L2C TRANSLATION  ACCESS:     269655 HIT:      95909 MISS:     173746 MSHR_MERGE:          0
cpu0->cpu0_L2C PREFETCH REQUESTED:     874630 ISSUED:     873447 USEFUL:      96052 USELESS:      14816 LATE:        667 TOO_EARLY:        453
cpu0->cpu0_L2C AVERAGE MISS LATENCY: 263.7 cycles
cpu0->cpu0_L1I TOTAL        ACCESS:    1323435 HIT:    1323429 MISS:          6 MSHR_MERGE:          0
cpu0->cpu0_L1I LOAD         ACCESS:    1323435 HIT:    1323429 MISS:          6 MSHR_MERGE:          0
cpu0->cpu0_L1I RFO          ACCESS:          0 HIT:          0 MISS:          0 MSHR_MERGE:          0
cpu0->cpu0_L1I PREFETCH     ACCESS:          0 HIT:          0 MISS:          0 MSHR_MERGE:          0
cpu0->cpu0_L1I WRITE        ACCESS:          0 HIT:          0 MISS:          0 MSHR_MERGE:          0
cpu0->cpu0_L1I TRANSLATION  ACCESS:          0 HIT:          0 MISS:          0 MSHR_MERGE:          0
cpu0->cpu0_L1I PREFETCH REQUESTED:          0 ISSUED:          0 USEFUL:          0 USELESS:          0 LATE:          0 TOO_EARLY:          0
cpu0->cpu0_L1I AVERAGE MISS LATENCY: 164.2 cycles
cpu0->cpu0_L1D TOTAL        ACCESS:   67600649 HIT:   64229783 MISS:    3370866 MSHR_MERGE:     145286
cpu0->cpu0_L1D LOAD         ACCESS:   17061666 HIT:   16246426 MISS:     815240 MSHR_MERGE:      34434
cpu0->cpu0_L1D RFO          ACCESS:          0 HIT:          0 MISS:          0 MSHR_MERGE:          0
cpu0->cpu0_L1D PREFETCH     ACCESS:   40638524 HIT:   38455938 MISS:    2182586 MSHR_MERGE:      15503
cpu0->cpu0_L1D WRITE        ACCESS:    9112610 HIT:    9063485 MISS:      49125 MSHR_MERGE:      41089
cpu0->cpu0_L1D TRANSLATION  ACCESS:     787849 HIT:     463934 MISS:     323915 MSHR_MERGE:      54260
cpu0->cpu0_L1D PREFETCH REQUESTED:  142120350 ISSUED:   40638525 USEFUL:     309322 USELESS:      23146 LATE:       2244 TOO_EARLY:        958
cpu0->cpu0_L1D AVERAGE MISS LATENCY: 238.4 cycles
cpu0->cpu0_ITLB TOTAL        ACCESS:    1282144 HIT:    1282143 MISS:          1 MSHR_MERGE:          0
cpu0->cpu0_ITLB LOAD         ACCESS:    1282144 HIT:    1282143 MISS:          1 MSHR_MERGE:          0
cpu0->cpu0_ITLB RFO          ACCESS:          0 HIT:          0 MISS:          0 MSHR_MERGE:          0
cpu0->cpu0_ITLB PREFETCH     ACCESS:          0 HIT:          0 MISS:          0 MSHR_MERGE:          0
cpu0->cpu0_ITLB WRITE        ACCESS:          0 HIT:          0 MISS:          0 MSHR_MERGE:          0
cpu0->cpu0_ITLB TRANSLATION  ACCESS:          0 HIT:          0 MISS:          0 MSHR_MERGE:          0
cpu0->cpu0_ITLB PREFETCH REQUESTED:          0 ISSUED:          0 USEFUL:          0 USELESS:          0 LATE:          0 TOO_EARLY:          0
cpu0->cpu0_ITLB AVERAGE MISS LATENCY: 579 cycles
cpu0->cpu0_DTLB TOTAL        ACCESS:   48713275 HIT:   48051477 MISS:     661798 MSHR_MERGE:     223995
cpu0->cpu0_DTLB LOAD         ACCESS:   48713275 HIT:   48051477 MISS:     661798 MSHR_MERGE:     223995
cpu0->cpu0_DTLB RFO          ACCESS:          0 HIT:          0 MISS:          0 MSHR_MERGE:          0
cpu0->cpu0_DTLB PREFETCH     ACCESS:          0 HIT:          0 MISS:          0 MSHR_MERGE:          0
cpu0->cpu0_DTLB WRITE        ACCESS:          0 HIT:          0 MISS:          0 MSHR_MERGE:          0
cpu0->cpu0_DTLB TRANSLATION  ACCESS:          0 HIT:          0 MISS:          0 MSHR_MERGE:          0
cpu0->cpu0_DTLB PREFETCH REQUESTED:          0 ISSUED:          0 USEFUL:          0 USELESS:          0 LATE:          0 TOO_EARLY:          0
cpu0->cpu0_DTLB AVERAGE MISS LATENCY: 108.5 cycles
cpu0->LLC TOTAL        ACCESS:    1510360 HIT:     389247 MISS:    1121113 MSHR_MERGE:      27693
cpu0->LLC LOAD         ACCESS:     735176 HIT:      20872 MISS:     714304 MSHR_MERGE:       2323
cpu0->LLC RFO          ACCESS:       3452 HIT:        474 MISS:       2978 MSHR_MERGE:          0
cpu0->LLC PREFETCH     ACCESS:     451535 HIT:     119294 MISS:     332241 MSHR_MERGE:      25370
cpu0->LLC WRITE        ACCESS:     146451 HIT:     121786 MISS:      24665 MSHR_MERGE:          0
cpu0->LLC TRANSLATION  ACCESS:     173746 HIT:     126821 MISS:      46925 MSHR_MERGE:          0
cpu0->LLC PREFETCH REQUESTED:          0 ISSUED:          0 USEFUL:          0 USELESS:          0 LATE:          0 TOO_EARLY:          0
cpu0->LLC AVERAGE MISS LATENCY: 287.2 cycles

DRAM Statistics

Channel 0 RQ ROW_BUFFER_HIT:      45388
  ROW_BUFFER_MISS:    1023363
  AVG DBUS CONGESTED CYCLE: 3.895
Channel 0 WQ ROW_BUFFER_HIT:       4369
  ROW_BUFFER_MISS:      67469
  FULL:          0
Channel 0 REFRESHES ISSUED:      14150

[ROI Statistics]
[System Configuration]
num_cpus 1
cpu_freq 4000
fetch_width 6
decode_width 6
dispatch_width 6
execute_width 6
lq_width 2
sq_width 2
retire_width 6
scheduler_size 128
branch_mispredict_penalty 15
rob_size 352
lq_size 128
sq_size 72
ifetch_buffer_size 64
decode_buffer_size 32
dispatch_buffer_size 32
register_file_size 288
decode_latency 1
dispatch_latency 1
schedule_latency 1
execute_latency 1
page_size 4096
block_size 64
core_0_itlb_set 16
core_0_itlb_way 4
core_0_itlb_rq_size 16
core_0_itlb_wq_size 16
core_0_itlb_pq_size 0
core_0_itlb_mshr_size 8
core_0_itlb_hit_latency 1
core_0_itlb_fill_latency 1
core_0_itlb_max_tag_check 2
core_0_itlb_max_fill 2
core_0_dtlb_set 16
core_0_dtlb_way 4
core_0_dtlb_rq_size 16
core_0_dtlb_wq_size 16
core_0_dtlb_pq_size 0
core_0_dtlb_mshr_size 8
core_0_dtlb_hit_latency 1
core_0_dtlb_fill_latency 1
core_0_dtlb_max_tag_check 2
core_0_dtlb_max_fill 2
core_0_stlb_set 128
core_0_stlb_way 12
core_0_stlb_rq_size 32
core_0_stlb_wq_size 32
core_0_stlb_pq_size 0
core_0_stlb_mshr_size 16
core_0_stlb_hit_latency 4
core_0_stlb_fill_latency 4
core_0_stlb_max_tag_check 1
core_0_stlb_max_fill 1
core_0_l1i_set 64
core_0_l1i_way 8
core_0_l1i_rq_size 64
core_0_l1i_wq_size 64
core_0_l1i_pq_size 32
core_0_l1i_mshr_size 8
core_0_l1i_hit_latency 2
core_0_l1i_fill_latency 2
core_0_l1i_max_tag_check 2
core_0_l1i_max_fill 2
core_0_l1d_set 64
core_0_l1d_way 12
core_0_l1d_rq_size 64
core_0_l1d_wq_size 64
core_0_l1d_pq_size 8
core_0_l1d_mshr_size 16
core_0_l1d_hit_latency 2
core_0_l1d_fill_latency 3
core_0_l1d_max_tag_check 2
core_0_l1d_max_fill 2
core_0_l2c_set 1024
core_0_l2c_way 8
core_0_l2c_rq_size 32
core_0_l2c_wq_size 32
core_0_l2c_pq_size 16
core_0_l2c_mshr_size 32
core_0_l2c_hit_latency 5
core_0_l2c_fill_latency 5
core_0_l2c_max_tag_check 1
core_0_l2c_max_fill 1
llc_set 2048
llc_way 16
llc_rq_size 32
llc_wq_size 32
llc_pq_size 32
llc_mshr_size 64
llc_hit_latency 10
llc_fill_latency 10
llc_max_tag_check 1
llc_max_fill 1
dram_channels 1
dram_ranks 1
dram_bankgroups 8
dram_banks 4
dram_rows 65536
dram_columns 1024
dram_channel_width 8
dram_rq_size 64
dram_wq_size 64
dram_size 17179869184
core_0_itlb_prefetcher no
core_0_dtlb_prefetcher no
core_0_stlb_prefetcher no
core_0_l1i_prefetcher next_line
core_0_l1d_prefetcher vberti
core_0_l2c_prefetcher ip_stride
llc_prefetcher no
llc_replacement drrip

Core_0_instructions 100000000
Core_0_cycles 169805408
Core_0_IPC 0.588909
Core_0_branch_prediction_accuracy 81.8171
Core_0_branch_MPKI 44.1768
Core_0_average_ROB_occupancy_at_mispredict 6.37206

Core_0_ITLB_total_access 1282144
Core_0_ITLB_total_hit 1282143
Core_0_ITLB_total_miss 1
Core_0_ITLB_total_MPKI 1e-05
Core_0_ITLB_total_miss_rate 7.79944e-07
Core_0_ITLB_demand_access 1282144
Core_0_ITLB_demand_hit 1282143
Core_0_ITLB_demand_miss 1
Core_0_ITLB_demand_MPKI 1e-05
Core_0_ITLB_demand_miss_rate 7.79944e-07
Core_0_ITLB_load_access 1282144
Core_0_ITLB_load_hit 1282143
Core_0_ITLB_load_miss 1
Core_0_ITLB_load_MPKI 1e-05
Core_0_ITLB_load_miss_rate 7.79944e-07
Core_0_ITLB_rfo_access 0
Core_0_ITLB_rfo_hit 0
Core_0_ITLB_rfo_miss 0
Core_0_ITLB_rfo_MPKI 0
Core_0_ITLB_rfo_miss_rate 0
Core_0_ITLB_prefetch_access 0
Core_0_ITLB_prefetch_hit 0
Core_0_ITLB_prefetch_miss 0
Core_0_ITLB_prefetch_MPKI 0
Core_0_ITLB_prefetch_miss_rate 0
Core_0_ITLB_writeback_access 0
Core_0_ITLB_writeback_hit 0
Core_0_ITLB_writeback_miss 0
Core_0_ITLB_writeback_MPKI 0
Core_0_ITLB_writeback_miss_rate 0
Core_0_ITLB_prefetch_requested 0
Core_0_ITLB_prefetch_issued 0
Core_0_ITLB_prefetch_useful 0
Core_0_ITLB_prefetch_useless 0
Core_0_ITLB_prefetch_late 0
Core_0_ITLB_prefetch_fill 0
Core_0_ITLB_prefetch_too_early 0
Core_0_ITLB_prefetch_too_early_among_fill 0
Core_0_ITLB_prefetch_too_early_among_useless 0
Core_0_ITLB_prefetch_pollution_evict 0
Core_0_ITLB_prefetch_pollution_demand 0
Core_0_ITLB_prefetch_pollution_among_prefetch_fill 0
Core_0_ITLB_prefetch_accuracy 0
Core_0_ITLB_prefetch_coverage 0

Core_0_DTLB_total_access 48713275
Core_0_DTLB_total_hit 48051477
Core_0_DTLB_total_miss 661798
Core_0_DTLB_total_MPKI 6.61798
Core_0_DTLB_total_miss_rate 0.0135856
Core_0_DTLB_demand_access 48713275
Core_0_DTLB_demand_hit 48051477
Core_0_DTLB_demand_miss 661798
Core_0_DTLB_demand_MPKI 6.61798
Core_0_DTLB_demand_miss_rate 0.0135856
Core_0_DTLB_load_access 48713275
Core_0_DTLB_load_hit 48051477
Core_0_DTLB_load_miss 661798
Core_0_DTLB_load_MPKI 6.61798
Core_0_DTLB_load_miss_rate 0.0135856
Core_0_DTLB_rfo_access 0
Core_0_DTLB_rfo_hit 0
Core_0_DTLB_rfo_miss 0
Core_0_DTLB_rfo_MPKI 0
Core_0_DTLB_rfo_miss_rate 0
Core_0_DTLB_prefetch_access 0
Core_0_DTLB_prefetch_hit 0
Core_0_DTLB_prefetch_miss 0
Core_0_DTLB_prefetch_MPKI 0
Core_0_DTLB_prefetch_miss_rate 0
Core_0_DTLB_writeback_access 0
Core_0_DTLB_writeback_hit 0
Core_0_DTLB_writeback_miss 0
Core_0_DTLB_writeback_MPKI 0
Core_0_DTLB_writeback_miss_rate 0
Core_0_DTLB_prefetch_requested 0
Core_0_DTLB_prefetch_issued 0
Core_0_DTLB_prefetch_useful 0
Core_0_DTLB_prefetch_useless 0
Core_0_DTLB_prefetch_late 0
Core_0_DTLB_prefetch_fill 0
Core_0_DTLB_prefetch_too_early 0
Core_0_DTLB_prefetch_too_early_among_fill 0
Core_0_DTLB_prefetch_too_early_among_useless 0
Core_0_DTLB_prefetch_pollution_evict 0
Core_0_DTLB_prefetch_pollution_demand 0
Core_0_DTLB_prefetch_pollution_among_prefetch_fill 0
Core_0_DTLB_prefetch_accuracy 0
Core_0_DTLB_prefetch_coverage 0

Core_0_STLB_total_access 437804
Core_0_STLB_total_hit 18806
Core_0_STLB_total_miss 418998
Core_0_STLB_total_MPKI 4.18998
Core_0_STLB_total_miss_rate 0.957045
Core_0_STLB_demand_access 437804
Core_0_STLB_demand_hit 18806
Core_0_STLB_demand_miss 418998
Core_0_STLB_demand_MPKI 4.18998
Core_0_STLB_demand_miss_rate 0.957045
Core_0_STLB_load_access 437804
Core_0_STLB_load_hit 18806
Core_0_STLB_load_miss 418998
Core_0_STLB_load_MPKI 4.18998
Core_0_STLB_load_miss_rate 0.957045
Core_0_STLB_rfo_access 0
Core_0_STLB_rfo_hit 0
Core_0_STLB_rfo_miss 0
Core_0_STLB_rfo_MPKI 0
Core_0_STLB_rfo_miss_rate 0
Core_0_STLB_prefetch_access 0
Core_0_STLB_prefetch_hit 0
Core_0_STLB_prefetch_miss 0
Core_0_STLB_prefetch_MPKI 0
Core_0_STLB_prefetch_miss_rate 0
Core_0_STLB_writeback_access 0
Core_0_STLB_writeback_hit 0
Core_0_STLB_writeback_miss 0
Core_0_STLB_writeback_MPKI 0
Core_0_STLB_writeback_miss_rate 0
Core_0_STLB_prefetch_requested 0
Core_0_STLB_prefetch_issued 0
Core_0_STLB_prefetch_useful 0
Core_0_STLB_prefetch_useless 0
Core_0_STLB_prefetch_late 0
Core_0_STLB_prefetch_fill 0
Core_0_STLB_prefetch_too_early 0
Core_0_STLB_prefetch_too_early_among_fill 0
Core_0_STLB_prefetch_too_early_among_useless 0
Core_0_STLB_prefetch_pollution_evict 0
Core_0_STLB_prefetch_pollution_demand 0
Core_0_STLB_prefetch_pollution_among_prefetch_fill 0
Core_0_STLB_prefetch_accuracy 0
Core_0_STLB_prefetch_coverage 0

Core_0_L1I_total_access 1323435
Core_0_L1I_total_hit 1323429
Core_0_L1I_total_miss 6
Core_0_L1I_total_MPKI 6e-05
Core_0_L1I_total_miss_rate 4.53366e-06
Core_0_L1I_demand_access 1323435
Core_0_L1I_demand_hit 1323429
Core_0_L1I_demand_miss 6
Core_0_L1I_demand_MPKI 6e-05
Core_0_L1I_demand_miss_rate 4.53366e-06
Core_0_L1I_load_access 1323435
Core_0_L1I_load_hit 1323429
Core_0_L1I_load_miss 6
Core_0_L1I_load_MPKI 6e-05
Core_0_L1I_load_miss_rate 4.53366e-06
Core_0_L1I_rfo_access 0
Core_0_L1I_rfo_hit 0
Core_0_L1I_rfo_miss 0
Core_0_L1I_rfo_MPKI 0
Core_0_L1I_rfo_miss_rate 0
Core_0_L1I_prefetch_access 0
Core_0_L1I_prefetch_hit 0
Core_0_L1I_prefetch_miss 0
Core_0_L1I_prefetch_MPKI 0
Core_0_L1I_prefetch_miss_rate 0
Core_0_L1I_writeback_access 0
Core_0_L1I_writeback_hit 0
Core_0_L1I_writeback_miss 0
Core_0_L1I_writeback_MPKI 0
Core_0_L1I_writeback_miss_rate 0
Core_0_L1I_prefetch_requested 0
Core_0_L1I_prefetch_issued 0
Core_0_L1I_prefetch_useful 0
Core_0_L1I_prefetch_useless 0
Core_0_L1I_prefetch_late 0
Core_0_L1I_prefetch_fill 0
Core_0_L1I_prefetch_too_early 0
Core_0_L1I_prefetch_too_early_among_fill 0
Core_0_L1I_prefetch_too_early_among_useless 0
Core_0_L1I_prefetch_pollution_evict 0
Core_0_L1I_prefetch_pollution_demand 0
Core_0_L1I_prefetch_pollution_among_prefetch_fill 0
Core_0_L1I_prefetch_accuracy 0
Core_0_L1I_prefetch_coverage 0

Core_0_L1D_total_access 66812800
Core_0_L1D_total_hit 63765849
Core_0_L1D_total_miss 3046951
Core_0_L1D_total_MPKI 30.4695
Core_0_L1D_total_miss_rate 0.0456043
Core_0_L1D_demand_access 17061666
Core_0_L1D_demand_hit 16246426
Core_0_L1D_demand_miss 815240
Core_0_L1D_demand_MPKI 8.1524
Core_0_L1D_demand_miss_rate 0.047782
Core_0_L1D_load_access 17061666
Core_0_L1D_load_hit 16246426
Core_0_L1D_load_miss 815240
Core_0_L1D_load_MPKI 8.1524
Core_0_L1D_load_miss_rate 0.047782
Core_0_L1D_rfo_access 0
Core_0_L1D_rfo_hit 0
Core_0_L1D_rfo_miss 0
Core_0_L1D_rfo_MPKI 0
Core_0_L1D_rfo_miss_rate 0
Core_0_L1D_prefetch_access 40638524
Core_0_L1D_prefetch_hit 38455938
Core_0_L1D_prefetch_miss 2182586
Core_0_L1D_prefetch_MPKI 21.8259
Core_0_L1D_prefetch_miss_rate 0.0537073
Core_0_L1D_writeback_access 9112610
Core_0_L1D_writeback_hit 9063485
Core_0_L1D_writeback_miss 49125
Core_0_L1D_writeback_MPKI 0.49125
Core_0_L1D_writeback_miss_rate 0.00539088
Core_0_L1D_prefetch_requested 142120350
Core_0_L1D_prefetch_issued 40638525
Core_0_L1D_prefetch_useful 309322
Core_0_L1D_prefetch_useless 23146
Core_0_L1D_prefetch_late 2244
Core_0_L1D_prefetch_fill 330227
Core_0_L1D_prefetch_too_early 958
Core_0_L1D_prefetch_too_early_among_fill 0.00290103
Core_0_L1D_prefetch_too_early_among_useless 0.0413894
Core_0_L1D_prefetch_pollution_evict 2324
Core_0_L1D_prefetch_pollution_demand 2257
Core_0_L1D_prefetch_pollution_among_prefetch_fill 0.00703758
Core_0_L1D_prefetch_accuracy 0.00761155
Core_0_L1D_prefetch_coverage 0.27506

Core_0_L2C_total_access 4054591
Core_0_L2C_total_hit 2697784
Core_0_L2C_total_miss 1356807
Core_0_L2C_total_MPKI 13.5681
Core_0_L2C_total_miss_rate 0.334635
Core_0_L2C_demand_access 788819
Core_0_L2C_demand_hit 43023
Core_0_L2C_demand_miss 745796
Core_0_L2C_demand_MPKI 7.45796
Core_0_L2C_demand_miss_rate 0.945459
Core_0_L2C_load_access 780812
Core_0_L2C_load_hit 38794
Core_0_L2C_load_miss 742018
Core_0_L2C_load_MPKI 7.42018
Core_0_L2C_load_miss_rate 0.950316
Core_0_L2C_rfo_access 8007
Core_0_L2C_rfo_hit 4229
Core_0_L2C_rfo_miss 3778
Core_0_L2C_rfo_MPKI 0.03778
Core_0_L2C_rfo_miss_rate 0.471837
Core_0_L2C_prefetch_access 2995408
Core_0_L2C_prefetch_hit 2384416
Core_0_L2C_prefetch_miss 610992
Core_0_L2C_prefetch_MPKI 6.10992
Core_0_L2C_prefetch_miss_rate 0.203976
Core_0_L2C_writeback_access 270364
Core_0_L2C_writeback_hit 270345
Core_0_L2C_writeback_miss 19
Core_0_L2C_writeback_MPKI 0.00019
Core_0_L2C_writeback_miss_rate 7.02756e-05
Core_0_L2C_prefetch_requested 874630
Core_0_L2C_prefetch_issued 873447
Core_0_L2C_prefetch_useful 96052
Core_0_L2C_prefetch_useless 14816
Core_0_L2C_prefetch_late 667
Core_0_L2C_prefetch_fill 365426
Core_0_L2C_prefetch_too_early 453
Core_0_L2C_prefetch_too_early_among_fill 0.00123965
Core_0_L2C_prefetch_too_early_among_useless 0.0305751
Core_0_L2C_prefetch_pollution_evict 5470
Core_0_L2C_prefetch_pollution_demand 5461
Core_0_L2C_prefetch_pollution_among_prefetch_fill 0.0149688
Core_0_L2C_prefetch_accuracy 0.109969
Core_0_L2C_prefetch_coverage 0.114097

Core_0_LLC_total_access 1336614
Core_0_LLC_total_hit 262426
Core_0_LLC_total_miss 1074188
Core_0_LLC_total_MPKI 10.7419
Core_0_LLC_total_miss_rate 0.803664
Core_0_LLC_demand_access 738628
Core_0_LLC_demand_hit 21346
Core_0_LLC_demand_miss 717282
Core_0_LLC_demand_MPKI 7.17282
Core_0_LLC_demand_miss_rate 0.9711
Core_0_LLC_load_access 735176
Core_0_LLC_load_hit 20872
Core_0_LLC_load_miss 714304
Core_0_LLC_load_MPKI 7.14304
Core_0_LLC_load_miss_rate 0.97161
Core_0_LLC_rfo_access 3452
Core_0_LLC_rfo_hit 474
Core_0_LLC_rfo_miss 2978
Core_0_LLC_rfo_MPKI 0.02978
Core_0_LLC_rfo_miss_rate 0.862688
Core_0_LLC_prefetch_access 451535
Core_0_LLC_prefetch_hit 119294
Core_0_LLC_prefetch_miss 332241
Core_0_LLC_prefetch_MPKI 3.32241
Core_0_LLC_prefetch_miss_rate 0.735803
Core_0_LLC_writeback_access 146451
Core_0_LLC_writeback_hit 121786
Core_0_LLC_writeback_miss 24665
Core_0_LLC_writeback_MPKI 0.24665
Core_0_LLC_writeback_miss_rate 0.168418
Core_0_LLC_prefetch_requested 0
Core_0_LLC_prefetch_issued 0
Core_0_LLC_prefetch_useful 0
Core_0_LLC_prefetch_useless 0
Core_0_LLC_prefetch_late 0
Core_0_LLC_prefetch_fill 304548
Core_0_LLC_prefetch_too_early 0
Core_0_LLC_prefetch_too_early_among_fill 0
Core_0_LLC_prefetch_too_early_among_useless 0
Core_0_LLC_prefetch_pollution_evict 15549
Core_0_LLC_prefetch_pollution_demand 15549
Core_0_LLC_prefetch_pollution_among_prefetch_fill 0.051056
Core_0_LLC_prefetch_accuracy 0
Core_0_LLC_prefetch_coverage 0

[DRAM Statistics]
Channel_0_RQ_row_buffer_hit 45388
Channel_0_RQ_row_buffer_miss 1023363
Channel_0_WQ_row_buffer_hit 4369
Channel_0_WQ_row_buffer_miss 67469
Channel_0_WQ_full 0
Channel_0_dbus_congested 2362030
DRAM_total_RQ_row_buffer_hit 45388
DRAM_total_RQ_row_buffer_miss 1023363
DRAM_total_WQ_row_buffer_hit 4369
DRAM_total_WQ_row_buffer_miss 67469
DRAM_total_WQ_full 0
DRAM_total_dbus_congested 2362030
DRAM_avg_congested_cycle 3.89533

====== DRAM_RQ_TRAFFIC ========
DRAM_RQ_READ_TRAFFIC_BREAKDOWN:
data_demand_read.count = 714953
data_demand_read.share = 66.90%

inst_demand_read.count = 6
inst_demand_read.share = 0.00%

cache_inst_prefetch.count = 0
cache_inst_prefetch.share = 0.00%

cache_data_prefetch.count = 306871
cache_data_prefetch.share = 28.71%

stlb_data_demand.count = 44766
stlb_data_demand.share = 4.19%

stlb_inst_demand.count = 2
stlb_inst_demand.share = 0.00%

stlb_l1i_pref.count = 0
stlb_l1i_pref.share = 0.00%

stlb_l1d_pref.count = 2157
stlb_l1d_pref.share = 0.20%

DRAM_RQ_READ_TRAFFIC_SUMMARY:
cache_demand.count = 714959
cache_demand.share = 66.90%

cache_prefetch.count = 306871
cache_prefetch.share = 28.71%

stlb_demand.count = 44768
stlb_demand.share = 4.19%

stlb_prefetch.count = 2157
stlb_prefetch.share = 0.20%

DRAM_RQ_READ_TRAFFIC_DEBUG:
total_classified_read.count = 1068755
unclassified_read.count = 0
total_read_with_other.count = 1068755

classified_plus_unclassified_check.count = 1068755
dram_rq_read_total_observed.count = 1068755
dram_rq_read_total_observed.per_1K_instructions = 10.6875

STLB_MISS_PTW_DRAM_TOUCH_BREAKDOWN:
stlb_miss_total.count = 418998

stlb_miss_touch_dram.count = 47647
stlb_miss_touch_dram.share = 11.37%

stlb_miss_no_dram_touch.count = 371351
stlb_miss_no_dram_touch.share = 88.63%

STLB_MISS_PTW_DRAM_TOUCH_DEBUG:
stlb_miss_touch_plus_no_touch.count = 418998
stlb_miss_total_check.count = 418998

======STLB miss causes ========
Core_0_STLB_miss_cause_breakdown
Core_0_STLB_cause_Demand_Data_miss 379936
Core_0_STLB_cause_Demand_Data_miss_rate 0.867822
Core_0_STLB_cause_Demand_Instruction_miss 1
Core_0_STLB_cause_Demand_Instruction_miss_rate 2.28413e-06
Core_0_STLB_cause_L1D_Prefetch_miss 39061
Core_0_STLB_cause_L1D_Prefetch_miss_rate 0.0892203
Core_0_STLB_cause_L1D_Prefetch_Same_Page_miss 0
Core_0_STLB_cause_L1D_Prefetch_Same_Page_miss_rate 0
Core_0_STLB_cause_L1D_Prefetch_Cross_Page_miss 39061
Core_0_STLB_cause_L1D_Prefetch_Cross_Page_miss_rate 0.0892203
Core_0_STLB_cause_L1I_Prefetch_miss 0
Core_0_STLB_cause_L1I_Prefetch_miss_rate 0
Core_0_STLB_cause_Other_miss 0
Core_0_STLB_cause_Other_miss_rate 0
Core_0_STLB_Demand_miss 379937
Core_0_STLB_Demand_miss_rate 0.867824
Core_0_STLB_L1D_Prefetch_miss 39061
Core_0_STLB_L1D_Prefetch_miss_rate 0.0892203
Core_0_STLB_Other_miss 0
Core_0_STLB_Other_miss_rate 0

========== vBerti-TLB Cross-page Flow Stats ==========

Core_0_vBerti_Requested 142120350
Core_0_vBerti_Cross_page_prefetch_in_Requested 19771276
Core_0_vBerti_Same_page_prefetch_in_Requested 122349074
Core_0_vBerti_Cross_page_prefetch_of_Requested 0.139116
Core_0_vBerti_Issued 40638525
Core_0_vBerti_InPQ_Same_page_prefetch 37654976
Core_0_vBerti_InPQ_Cross_page_prefetch 2983549
Core_0_vBerti_PQ_Drop_Rate 0.714056
Core_0_vBerti_InPQ_Cross_page_prefetch_of_Requested 0.0209931
Core_0_vBerti_Cross_page_PQ_Drop_rate 0.849097
Core_0_vBerti_Cross_page_prefetch_of_Issued 0.0734168
Core_0_CP_PF_PQFULL_drop 16787727
Core_0_CP_PF_PQFULL_TLB_rescue_enqueued 0
Core_0_CP_PF_PQFULL_TLB_rescue_issued 0
Core_0_CP_PF_PQFULL_TLB_rescue_translated 0

========= DTLB_vBerti Prefetch Stats =========
Core_0_DTLB_demand_access 23293656
Core_0_DTLB_demand_hit 22716800
Core_0_DTLB_demand_miss 576856
Core_0_DTLB_demand_mshr_merge 180787
Core_0_DTLB_demand_fill 397651
Core_0_DTLB_demand_miss_rate 0.0247645
Core_0_DTLB_demand_mpki 5.76856
Core_0_DTLB_vberti_prefetch_access 25419619
Core_0_DTLB_vberti_prefetch_hit 25334677
Core_0_DTLB_vberti_prefetch_miss 84942
Core_0_DTLB_vberti_prefetch_mshr_merge 43208
Core_0_DTLB_vberti_prefetch_fill 40152
Core_0_DTLB_vberti_prefetch_miss_rate 0.00334159
Core_0_DTLB_vberti_prefetch_mpki 0.84942

=== DTLB_vBerti Same/Cross-page Prefetch Stats ===
Core_0_DTLB_vberti_same_page_prefetch 23220339
Core_0_DTLB_vberti_same_page_prefetch_hit 23220310
Core_0_DTLB_vberti_same_page_prefetch_miss 29
Core_0_DTLB_vberti_same_page_prefetch_mshr_merge 11
Core_0_DTLB_vberti_same_page_prefetch_fill 17
Core_0_DTLB_vberti_same_page_prefetch_miss_rate 1.24891e-06
Core_0_DTLB_vberti_same_page_prefetch_mpki 0.00029
Core_0_DTLB_vberti_cross_page_prefetch 2199280
Core_0_DTLB_vberti_cross_page_prefetch_hit 2114367
Core_0_DTLB_vberti_cross_page_prefetch_miss 84913
Core_0_DTLB_vberti_cross_page_prefetch_mshr_merge 43197
Core_0_DTLB_vberti_cross_page_prefetch_fill 40135
Core_0_DTLB_vberti_cross_page_prefetch_miss_rate 0.0386095
Core_0_DTLB_vberti_cross_page_prefetch_mpki 0.84913
Core_0_DTLB_same_page_prefetch_miss_rate 1.24891e-06
Core_0_DTLB_same_page_prefetch_mpki 0.00029
Core_0_DTLB_cross_page_prefetch_miss_rate 0.0386095
Core_0_DTLB_cross_page_prefetch_mpki 0.84913
Core_0_DTLB_cross_page_prefetch_issued 2199280
Core_0_DTLB_cross_page_prefetch_lookups 2199280
Core_0_DTLB_cross_page_prefetch_useful 10877
Core_0_DTLB_cross_page_prefetch_useless 30839
Core_0_DTLB_cross_page_prefetch_late 1581
Core_0_DTLB_cross_page_prefetch_too_early 275
Core_0_DTLB_cross_page_prefetch_too_early_among_fill 0.00685187
Core_0_DTLB_cross_page_prefetch_too_early_among_useless 0.00891728
Core_0_DTLB_cross_page_prefetch_pollution_evict 595
Core_0_DTLB_cross_page_prefetch_pollution_demand 436
Core_0_DTLB_cross_page_prefetch_pollution_among_prefetch_fill 0.014825
Core_0_DTLB_cross_page_prefetch_accuracy 0.00494571
Core_0_DTLB_cross_page_prefetch_coverage 0.0185067

========= STLB_vBerti Prefetch Stats =========
Core_0_STLB_demand_access 396070
Core_0_STLB_demand_hit 16133
Core_0_STLB_demand_miss 379937
Core_0_STLB_demand_mshr_merge 0
Core_0_STLB_demand_fill 379937
Core_0_STLB_demand_miss_rate 0.959267
Core_0_STLB_demand_mpki 3.79937
Core_0_STLB_vberti_prefetch_access 41734
Core_0_STLB_vberti_prefetch_hit 2673
Core_0_STLB_vberti_prefetch_miss 39061
Core_0_STLB_vberti_prefetch_mshr_merge 0
Core_0_STLB_vberti_prefetch_fill 39061
Core_0_STLB_vberti_prefetch_miss_rate 0.935952
Core_0_STLB_vberti_prefetch_mpki 0.39061

=== STLB_vBerti Same/Cross-page Prefetch Stats ===
Core_0_STLB_vberti_same_page_prefetch 18
Core_0_STLB_vberti_same_page_prefetch_hit 18
Core_0_STLB_vberti_same_page_prefetch_miss 0
Core_0_STLB_vberti_same_page_prefetch_mshr_merge 0
Core_0_STLB_vberti_same_page_prefetch_fill 0
Core_0_STLB_vberti_same_page_prefetch_miss_rate 0
Core_0_STLB_vberti_same_page_prefetch_mpki 0
Core_0_STLB_vberti_cross_page_prefetch 41716
Core_0_STLB_vberti_cross_page_prefetch_hit 2655
Core_0_STLB_vberti_cross_page_prefetch_miss 39061
Core_0_STLB_vberti_cross_page_prefetch_mshr_merge 0
Core_0_STLB_vberti_cross_page_prefetch_fill 39061
Core_0_STLB_vberti_cross_page_prefetch_miss_rate 0.936355
Core_0_STLB_vberti_cross_page_prefetch_mpki 0.39061
Core_0_STLB_same_page_prefetch_miss_rate 0
Core_0_STLB_same_page_prefetch_mpki 0
Core_0_STLB_cross_page_prefetch_miss_rate 0.936355
Core_0_STLB_cross_page_prefetch_mpki 0.39061
Core_0_STLB_cross_page_prefetch_issued 41716
Core_0_STLB_cross_page_prefetch_lookups 41716
Core_0_STLB_cross_page_prefetch_useful 861
Core_0_STLB_cross_page_prefetch_useless 38200
Core_0_STLB_cross_page_prefetch_late 0
Core_0_STLB_cross_page_prefetch_too_early 10917
Core_0_STLB_cross_page_prefetch_too_early_among_fill 0.279486
Core_0_STLB_cross_page_prefetch_too_early_among_useless 0.285785
Core_0_STLB_cross_page_prefetch_pollution_evict 12145
Core_0_STLB_cross_page_prefetch_pollution_demand 10836
Core_0_STLB_cross_page_prefetch_pollution_among_prefetch_fill 0.310924
Core_0_STLB_cross_page_prefetch_accuracy 0.0206396
Core_0_STLB_cross_page_prefetch_coverage 0.00226104

========= STLB Cross-page Prefetch Buffer Stats =========
Core_0_STLB_raw_demand_miss 379936
Core_0_CP_PB_insert 0
Core_0_CP_PB_demand_hit 0
Core_0_STLB_PB_demand_miss 379936
Core_0_CP_PB_coverage 0
Core_0_STLB_raw_demand_mpki 3.79936
Core_0_STLB_PB_demand_mpki 3.79936
Core_0_CP_PB_demand_hit_mpki 0

Core_0_TLB_demand_miss_rate 0.0163108
Core_0_TLB_demand_mpki 3.79937
Core_0_TLB_same_page_prefetch_miss_rate 0
Core_0_TLB_same_page_prefetch_mpki 0
Core_0_TLB_cross_page_prefetch_miss_rate 0.0177608
Core_0_TLB_cross_page_prefetch_mpki 0.39061
Core_0_TLB_cross_page_prefetch_issued 2199280
Core_0_TLB_cross_page_prefetch_lookups 2199280
Core_0_TLB_cross_page_prefetch_useful 9293
Core_0_TLB_cross_page_prefetch_useless 30700
Core_0_TLB_cross_page_prefetch_late 1578
Core_0_TLB_cross_page_prefetch_too_early 279
Core_0_TLB_cross_page_prefetch_too_early_among_fill 0.00352291
Core_0_TLB_cross_page_prefetch_too_early_among_useless 0.00908795
Core_0_TLB_cross_page_prefetch_accuracy 0.00422547
Core_0_TLB_cross_page_prefetch_coverage 0.0238753
====== vBerti internal metric ========
Core_0_vBerti_end_to_end_issued 40638525
Core_0_vBerti_end_to_end_useful 40179
Core_0_vBerti_end_to_end_late 7912
Core_0_vBerti_end_to_end_accuracy 0.000988692
Core_0_vBerti_end_to_end_timely_accuracy 0.000794
BERTI TO_L1: 93504043 TO_L2: 48616307 TO_L2_BC_MSHR: 12223576
BERTI AVG_LAT: 241.979 NUM_TRACK_LATENCY: 1116597 NUM_CANT_TRACK_LATENCY: 0
BERTI CROSS_PAGE 19771276 NO_CROSS_PAGE: 122349074
BERTI FOUND_BERTI: 25330685 NO_FOUND_BERTI: 11474631
BERTI AVERAGE_ISSUED: 3.85435
