[VMEM] WARNING: physical memory size is smaller than virtual memory size.

*** ChampSim Multicore Out-of-Order Simulator ***
Warmup Instructions: 50000000
Simulation Instructions: 100000000
Number of CPUs: 1
Page size: 4096
Core 0: /data2/zcq/champsim_traces_xsbench/xs.XXL64hash-205B.champsimtrace.xz
VBerti Prefetcher
BERTI HASH ENTANGLING
BERTI IP MASK ffff
Off-chip DRAM Size: 16 GiB Channels: 1 Width: 64-bit Data Rate: 3205 MT/s
Warmup halting CPU 0 at instruction 50000002 cycle 32586655 for remainder of phase
Warmup finished CPU 0 instructions: 50000002 cycles: 32586655 cumulative IPC: 1.534 (Simulation time: 00 hr 05 min 56 sec)
Warmup complete CPU 0 instructions: 50000002 cycles: 32586655 cumulative IPC: 1.534 (Simulation time: 00 hr 05 min 56 sec)
Simulation finished CPU 0 instructions: 100000001 cycles: 506457539 cumulative IPC: 0.1974 (Simulation time: 00 hr 42 min 38 sec)
Simulation complete CPU 0 instructions: 100000001 cycles: 506457539 cumulative IPC: 0.1974 (Simulation time: 00 hr 42 min 38 sec)

ChampSim completed all CPUs

=== Simulation ===
CPU 0 runs /data2/zcq/champsim_traces_xsbench/xs.XXL64hash-205B.champsimtrace.xz

Region of Interest Statistics

CPU 0 cumulative IPC: 0.1974 instructions: 100000001 cycles: 506457539
CPU 0 Branch Prediction Accuracy: 92.97% MPKI: 10.17 Average ROB Occupancy at Mispredict: 65.93
Branch type MPKI
BRANCH_DIRECT_JUMP: 1e-05
BRANCH_INDIRECT: 0
BRANCH_CONDITIONAL: 10.17
BRANCH_DIRECT_CALL: 0
BRANCH_INDIRECT_CALL: 0
BRANCH_RETURN: 0

cpu0->cpu0_STLB TOTAL        ACCESS:     949607 HIT:      14481 MISS:     935126 MSHR_MERGE:          0
cpu0->cpu0_STLB LOAD         ACCESS:     949607 HIT:      14481 MISS:     935126 MSHR_MERGE:          0
cpu0->cpu0_STLB RFO          ACCESS:          0 HIT:          0 MISS:          0 MSHR_MERGE:          0
cpu0->cpu0_STLB PREFETCH     ACCESS:          0 HIT:          0 MISS:          0 MSHR_MERGE:          0
cpu0->cpu0_STLB WRITE        ACCESS:          0 HIT:          0 MISS:          0 MSHR_MERGE:          0
cpu0->cpu0_STLB TRANSLATION  ACCESS:          0 HIT:          0 MISS:          0 MSHR_MERGE:          0
cpu0->cpu0_STLB PREFETCH REQUESTED:          0 ISSUED:          0 USEFUL:          0 USELESS:          0 LATE:          0 TOO_EARLY:          0
cpu0->cpu0_STLB AVERAGE MISS LATENCY: 372.7 cycles
cpu0->cpu0_L2C TOTAL        ACCESS:    7726878 HIT:    2191301 MISS:    5535577 MSHR_MERGE:      38863
cpu0->cpu0_L2C LOAD         ACCESS:    4414956 HIT:      73365 MISS:    4341591 MSHR_MERGE:       2517
cpu0->cpu0_L2C RFO          ACCESS:       7509 HIT:       7326 MISS:        183 MSHR_MERGE:          0
cpu0->cpu0_L2C PREFETCH     ACCESS:    2144293 HIT:    1692598 MISS:     451695 MSHR_MERGE:      36346
cpu0->cpu0_L2C WRITE        ACCESS:      12359 HIT:      12263 MISS:         96 MSHR_MERGE:          0
cpu0->cpu0_L2C TRANSLATION  ACCESS:    1147761 HIT:     405749 MISS:     742012 MSHR_MERGE:          0
cpu0->cpu0_L2C PREFETCH REQUESTED:     551329 ISSUED:     551329 USEFUL:      40687 USELESS:     280876 LATE:       2499 TOO_EARLY:        196
cpu0->cpu0_L2C AVERAGE MISS LATENCY: 220.1 cycles
cpu0->cpu0_L1I TOTAL        ACCESS:     338470 HIT:     338470 MISS:          0 MSHR_MERGE:          0
cpu0->cpu0_L1I LOAD         ACCESS:     338470 HIT:     338470 MISS:          0 MSHR_MERGE:          0
cpu0->cpu0_L1I RFO          ACCESS:          0 HIT:          0 MISS:          0 MSHR_MERGE:          0
cpu0->cpu0_L1I PREFETCH     ACCESS:          0 HIT:          0 MISS:          0 MSHR_MERGE:          0
cpu0->cpu0_L1I WRITE        ACCESS:          0 HIT:          0 MISS:          0 MSHR_MERGE:          0
cpu0->cpu0_L1I TRANSLATION  ACCESS:          0 HIT:          0 MISS:          0 MSHR_MERGE:          0
cpu0->cpu0_L1I PREFETCH REQUESTED:          0 ISSUED:          0 USEFUL:          0 USELESS:          0 LATE:          0 TOO_EARLY:          0
cpu0->cpu0_L1I AVERAGE MISS LATENCY: - cycles
cpu0->cpu0_L1D TOTAL        ACCESS:   23359726 HIT:   14868404 MISS:    8491322 MSHR_MERGE:    1328107
cpu0->cpu0_L1D LOAD         ACCESS:   13920794 HIT:    8501842 MISS:    5418952 MSHR_MERGE:    1003996
cpu0->cpu0_L1D RFO          ACCESS:          0 HIT:          0 MISS:          0 MSHR_MERGE:          0
cpu0->cpu0_L1D PREFETCH     ACCESS:    3974173 HIT:    2379015 MISS:    1595158 MSHR_MERGE:       2177
cpu0->cpu0_L1D WRITE        ACCESS:    3261484 HIT:    3231376 MISS:      30108 MSHR_MERGE:      22591
cpu0->cpu0_L1D TRANSLATION  ACCESS:    2203275 HIT:     756171 MISS:    1447104 MSHR_MERGE:     299343
cpu0->cpu0_L1D PREFETCH REQUESTED:    3974880 ISSUED:    3974171 USEFUL:     128768 USELESS:      37114 LATE:        247 TOO_EARLY:        163
cpu0->cpu0_L1D AVERAGE MISS LATENCY: 210.4 cycles
cpu0->cpu0_ITLB TOTAL        ACCESS:     283057 HIT:     283057 MISS:          0 MSHR_MERGE:          0
cpu0->cpu0_ITLB LOAD         ACCESS:     283057 HIT:     283057 MISS:          0 MSHR_MERGE:          0
cpu0->cpu0_ITLB RFO          ACCESS:          0 HIT:          0 MISS:          0 MSHR_MERGE:          0
cpu0->cpu0_ITLB PREFETCH     ACCESS:          0 HIT:          0 MISS:          0 MSHR_MERGE:          0
cpu0->cpu0_ITLB WRITE        ACCESS:          0 HIT:          0 MISS:          0 MSHR_MERGE:          0
cpu0->cpu0_ITLB TRANSLATION  ACCESS:          0 HIT:          0 MISS:          0 MSHR_MERGE:          0
cpu0->cpu0_ITLB PREFETCH REQUESTED:          0 ISSUED:          0 USEFUL:          0 USELESS:          0 LATE:          0 TOO_EARLY:          0
cpu0->cpu0_ITLB AVERAGE MISS LATENCY: - cycles
cpu0->cpu0_DTLB TOTAL        ACCESS:   20040200 HIT:   16632223 MISS:    3407977 MSHR_MERGE:    2458370
cpu0->cpu0_DTLB LOAD         ACCESS:   20040200 HIT:   16632223 MISS:    3407977 MSHR_MERGE:    2458370
cpu0->cpu0_DTLB RFO          ACCESS:          0 HIT:          0 MISS:          0 MSHR_MERGE:          0
cpu0->cpu0_DTLB PREFETCH     ACCESS:          0 HIT:          0 MISS:          0 MSHR_MERGE:          0
cpu0->cpu0_DTLB WRITE        ACCESS:          0 HIT:          0 MISS:          0 MSHR_MERGE:          0
cpu0->cpu0_DTLB TRANSLATION  ACCESS:          0 HIT:          0 MISS:          0 MSHR_MERGE:          0
cpu0->cpu0_DTLB PREFETCH REQUESTED:          0 ISSUED:          0 USEFUL:          0 USELESS:          0 LATE:          0 TOO_EARLY:          0
cpu0->cpu0_DTLB AVERAGE MISS LATENCY: 373 cycles
cpu0->LLC TOTAL        ACCESS:    5497400 HIT:     177187 MISS:    5320213 MSHR_MERGE:          0
cpu0->LLC LOAD         ACCESS:    4339074 HIT:       9173 MISS:    4329901 MSHR_MERGE:          0
cpu0->LLC RFO          ACCESS:        183 HIT:        183 MISS:          0 MSHR_MERGE:          0
cpu0->LLC PREFETCH     ACCESS:     415349 HIT:      30294 MISS:     385055 MSHR_MERGE:          0
cpu0->LLC WRITE        ACCESS:        782 HIT:        772 MISS:         10 MSHR_MERGE:          0
cpu0->LLC TRANSLATION  ACCESS:     742012 HIT:     136765 MISS:     605247 MSHR_MERGE:          0
cpu0->LLC PREFETCH REQUESTED:          0 ISSUED:          0 USEFUL:          0 USELESS:          0 LATE:          0 TOO_EARLY:          0
cpu0->LLC AVERAGE MISS LATENCY: 210.2 cycles

DRAM Statistics

Channel 0 RQ ROW_BUFFER_HIT:      80842
  ROW_BUFFER_MISS:    5239362
  AVG DBUS CONGESTED CYCLE: 3.001
Channel 0 WQ ROW_BUFFER_HIT:          3
  ROW_BUFFER_MISS:          6
  FULL:          0
Channel 0 REFRESHES ISSUED:      42205

[ROI Statistics]
[System Configuration]
num_cpus 1
cpu_freq 4000
fetch_width 6
decode_width 6
dispatch_width 6
execute_width 6
lq_width 2
sq_width 2
retire_width 6
scheduler_size 128
branch_mispredict_penalty 15
rob_size 352
lq_size 128
sq_size 72
ifetch_buffer_size 64
decode_buffer_size 32
dispatch_buffer_size 32
register_file_size 288
decode_latency 1
dispatch_latency 1
schedule_latency 1
execute_latency 1
page_size 4096
block_size 64
core_0_itlb_set 16
core_0_itlb_way 4
core_0_itlb_rq_size 16
core_0_itlb_wq_size 16
core_0_itlb_pq_size 0
core_0_itlb_mshr_size 8
core_0_itlb_hit_latency 1
core_0_itlb_fill_latency 1
core_0_itlb_max_tag_check 2
core_0_itlb_max_fill 2
core_0_dtlb_set 16
core_0_dtlb_way 4
core_0_dtlb_rq_size 16
core_0_dtlb_wq_size 16
core_0_dtlb_pq_size 0
core_0_dtlb_mshr_size 8
core_0_dtlb_hit_latency 1
core_0_dtlb_fill_latency 1
core_0_dtlb_max_tag_check 2
core_0_dtlb_max_fill 2
core_0_stlb_set 128
core_0_stlb_way 12
core_0_stlb_rq_size 32
core_0_stlb_wq_size 32
core_0_stlb_pq_size 0
core_0_stlb_mshr_size 16
core_0_stlb_hit_latency 4
core_0_stlb_fill_latency 4
core_0_stlb_max_tag_check 1
core_0_stlb_max_fill 1
core_0_l1i_set 64
core_0_l1i_way 8
core_0_l1i_rq_size 64
core_0_l1i_wq_size 64
core_0_l1i_pq_size 32
core_0_l1i_mshr_size 8
core_0_l1i_hit_latency 2
core_0_l1i_fill_latency 2
core_0_l1i_max_tag_check 2
core_0_l1i_max_fill 2
core_0_l1d_set 64
core_0_l1d_way 12
core_0_l1d_rq_size 64
core_0_l1d_wq_size 64
core_0_l1d_pq_size 8
core_0_l1d_mshr_size 16
core_0_l1d_hit_latency 2
core_0_l1d_fill_latency 3
core_0_l1d_max_tag_check 2
core_0_l1d_max_fill 2
core_0_l2c_set 1024
core_0_l2c_way 8
core_0_l2c_rq_size 32
core_0_l2c_wq_size 32
core_0_l2c_pq_size 16
core_0_l2c_mshr_size 32
core_0_l2c_hit_latency 5
core_0_l2c_fill_latency 5
core_0_l2c_max_tag_check 1
core_0_l2c_max_fill 1
llc_set 2048
llc_way 16
llc_rq_size 32
llc_wq_size 32
llc_pq_size 32
llc_mshr_size 64
llc_hit_latency 10
llc_fill_latency 10
llc_max_tag_check 1
llc_max_fill 1
dram_channels 1
dram_ranks 1
dram_bankgroups 8
dram_banks 4
dram_rows 65536
dram_columns 1024
dram_channel_width 8
dram_rq_size 64
dram_wq_size 64
dram_size 17179869184
core_0_itlb_prefetcher no
core_0_dtlb_prefetcher no
core_0_stlb_prefetcher no
core_0_l1i_prefetcher next_line
core_0_l1d_prefetcher vberti
core_0_l2c_prefetcher ip_stride
llc_prefetcher no
llc_replacement drrip

Core_0_instructions 100000001
Core_0_cycles 506457539
Core_0_IPC 0.19745
Core_0_branch_prediction_accuracy 92.9661
Core_0_branch_MPKI 10.1659
Core_0_average_ROB_occupancy_at_mispredict 65.9285

Core_0_ITLB_total_access 283057
Core_0_ITLB_total_hit 283057
Core_0_ITLB_total_miss 0
Core_0_ITLB_total_MPKI 0
Core_0_ITLB_total_miss_rate 0
Core_0_ITLB_demand_access 283057
Core_0_ITLB_demand_hit 283057
Core_0_ITLB_demand_miss 0
Core_0_ITLB_demand_MPKI 0
Core_0_ITLB_demand_miss_rate 0
Core_0_ITLB_load_access 283057
Core_0_ITLB_load_hit 283057
Core_0_ITLB_load_miss 0
Core_0_ITLB_load_MPKI 0
Core_0_ITLB_load_miss_rate 0
Core_0_ITLB_rfo_access 0
Core_0_ITLB_rfo_hit 0
Core_0_ITLB_rfo_miss 0
Core_0_ITLB_rfo_MPKI 0
Core_0_ITLB_rfo_miss_rate 0
Core_0_ITLB_prefetch_access 0
Core_0_ITLB_prefetch_hit 0
Core_0_ITLB_prefetch_miss 0
Core_0_ITLB_prefetch_MPKI 0
Core_0_ITLB_prefetch_miss_rate 0
Core_0_ITLB_writeback_access 0
Core_0_ITLB_writeback_hit 0
Core_0_ITLB_writeback_miss 0
Core_0_ITLB_writeback_MPKI 0
Core_0_ITLB_writeback_miss_rate 0
Core_0_ITLB_prefetch_requested 0
Core_0_ITLB_prefetch_issued 0
Core_0_ITLB_prefetch_useful 0
Core_0_ITLB_prefetch_useless 0
Core_0_ITLB_prefetch_late 0
Core_0_ITLB_prefetch_fill 0
Core_0_ITLB_prefetch_too_early 0
Core_0_ITLB_prefetch_too_early_among_fill 0
Core_0_ITLB_prefetch_too_early_among_useless 0
Core_0_ITLB_prefetch_pollution_evict 0
Core_0_ITLB_prefetch_pollution_demand 0
Core_0_ITLB_prefetch_pollution_among_prefetch_fill 0
Core_0_ITLB_prefetch_accuracy 0
Core_0_ITLB_prefetch_coverage 0

Core_0_DTLB_total_access 20040200
Core_0_DTLB_total_hit 16632223
Core_0_DTLB_total_miss 3407977
Core_0_DTLB_total_MPKI 34.0798
Core_0_DTLB_total_miss_rate 0.170057
Core_0_DTLB_demand_access 20040200
Core_0_DTLB_demand_hit 16632223
Core_0_DTLB_demand_miss 3407977
Core_0_DTLB_demand_MPKI 34.0798
Core_0_DTLB_demand_miss_rate 0.170057
Core_0_DTLB_load_access 20040200
Core_0_DTLB_load_hit 16632223
Core_0_DTLB_load_miss 3407977
Core_0_DTLB_load_MPKI 34.0798
Core_0_DTLB_load_miss_rate 0.170057
Core_0_DTLB_rfo_access 0
Core_0_DTLB_rfo_hit 0
Core_0_DTLB_rfo_miss 0
Core_0_DTLB_rfo_MPKI 0
Core_0_DTLB_rfo_miss_rate 0
Core_0_DTLB_prefetch_access 0
Core_0_DTLB_prefetch_hit 0
Core_0_DTLB_prefetch_miss 0
Core_0_DTLB_prefetch_MPKI 0
Core_0_DTLB_prefetch_miss_rate 0
Core_0_DTLB_writeback_access 0
Core_0_DTLB_writeback_hit 0
Core_0_DTLB_writeback_miss 0
Core_0_DTLB_writeback_MPKI 0
Core_0_DTLB_writeback_miss_rate 0
Core_0_DTLB_prefetch_requested 0
Core_0_DTLB_prefetch_issued 0
Core_0_DTLB_prefetch_useful 0
Core_0_DTLB_prefetch_useless 0
Core_0_DTLB_prefetch_late 0
Core_0_DTLB_prefetch_fill 0
Core_0_DTLB_prefetch_too_early 0
Core_0_DTLB_prefetch_too_early_among_fill 0
Core_0_DTLB_prefetch_too_early_among_useless 0
Core_0_DTLB_prefetch_pollution_evict 0
Core_0_DTLB_prefetch_pollution_demand 0
Core_0_DTLB_prefetch_pollution_among_prefetch_fill 0
Core_0_DTLB_prefetch_accuracy 0
Core_0_DTLB_prefetch_coverage 0

Core_0_STLB_total_access 949607
Core_0_STLB_total_hit 14481
Core_0_STLB_total_miss 935126
Core_0_STLB_total_MPKI 9.35126
Core_0_STLB_total_miss_rate 0.984751
Core_0_STLB_demand_access 949607
Core_0_STLB_demand_hit 14481
Core_0_STLB_demand_miss 935126
Core_0_STLB_demand_MPKI 9.35126
Core_0_STLB_demand_miss_rate 0.984751
Core_0_STLB_load_access 949607
Core_0_STLB_load_hit 14481
Core_0_STLB_load_miss 935126
Core_0_STLB_load_MPKI 9.35126
Core_0_STLB_load_miss_rate 0.984751
Core_0_STLB_rfo_access 0
Core_0_STLB_rfo_hit 0
Core_0_STLB_rfo_miss 0
Core_0_STLB_rfo_MPKI 0
Core_0_STLB_rfo_miss_rate 0
Core_0_STLB_prefetch_access 0
Core_0_STLB_prefetch_hit 0
Core_0_STLB_prefetch_miss 0
Core_0_STLB_prefetch_MPKI 0
Core_0_STLB_prefetch_miss_rate 0
Core_0_STLB_writeback_access 0
Core_0_STLB_writeback_hit 0
Core_0_STLB_writeback_miss 0
Core_0_STLB_writeback_MPKI 0
Core_0_STLB_writeback_miss_rate 0
Core_0_STLB_prefetch_requested 0
Core_0_STLB_prefetch_issued 0
Core_0_STLB_prefetch_useful 0
Core_0_STLB_prefetch_useless 0
Core_0_STLB_prefetch_late 0
Core_0_STLB_prefetch_fill 0
Core_0_STLB_prefetch_too_early 0
Core_0_STLB_prefetch_too_early_among_fill 0
Core_0_STLB_prefetch_too_early_among_useless 0
Core_0_STLB_prefetch_pollution_evict 0
Core_0_STLB_prefetch_pollution_demand 0
Core_0_STLB_prefetch_pollution_among_prefetch_fill 0
Core_0_STLB_prefetch_accuracy 0
Core_0_STLB_prefetch_coverage 0

Core_0_L1I_total_access 338470
Core_0_L1I_total_hit 338470
Core_0_L1I_total_miss 0
Core_0_L1I_total_MPKI 0
Core_0_L1I_total_miss_rate 0
Core_0_L1I_demand_access 338470
Core_0_L1I_demand_hit 338470
Core_0_L1I_demand_miss 0
Core_0_L1I_demand_MPKI 0
Core_0_L1I_demand_miss_rate 0
Core_0_L1I_load_access 338470
Core_0_L1I_load_hit 338470
Core_0_L1I_load_miss 0
Core_0_L1I_load_MPKI 0
Core_0_L1I_load_miss_rate 0
Core_0_L1I_rfo_access 0
Core_0_L1I_rfo_hit 0
Core_0_L1I_rfo_miss 0
Core_0_L1I_rfo_MPKI 0
Core_0_L1I_rfo_miss_rate 0
Core_0_L1I_prefetch_access 0
Core_0_L1I_prefetch_hit 0
Core_0_L1I_prefetch_miss 0
Core_0_L1I_prefetch_MPKI 0
Core_0_L1I_prefetch_miss_rate 0
Core_0_L1I_writeback_access 0
Core_0_L1I_writeback_hit 0
Core_0_L1I_writeback_miss 0
Core_0_L1I_writeback_MPKI 0
Core_0_L1I_writeback_miss_rate 0
Core_0_L1I_prefetch_requested 0
Core_0_L1I_prefetch_issued 0
Core_0_L1I_prefetch_useful 0
Core_0_L1I_prefetch_useless 0
Core_0_L1I_prefetch_late 0
Core_0_L1I_prefetch_fill 0
Core_0_L1I_prefetch_too_early 0
Core_0_L1I_prefetch_too_early_among_fill 0
Core_0_L1I_prefetch_too_early_among_useless 0
Core_0_L1I_prefetch_pollution_evict 0
Core_0_L1I_prefetch_pollution_demand 0
Core_0_L1I_prefetch_pollution_among_prefetch_fill 0
Core_0_L1I_prefetch_accuracy 0
Core_0_L1I_prefetch_coverage 0

Core_0_L1D_total_access 21156451
Core_0_L1D_total_hit 14112233
Core_0_L1D_total_miss 7044218
Core_0_L1D_total_MPKI 70.4422
Core_0_L1D_total_miss_rate 0.332958
Core_0_L1D_demand_access 13920794
Core_0_L1D_demand_hit 8501842
Core_0_L1D_demand_miss 5418952
Core_0_L1D_demand_MPKI 54.1895
Core_0_L1D_demand_miss_rate 0.38927
Core_0_L1D_load_access 13920794
Core_0_L1D_load_hit 8501842
Core_0_L1D_load_miss 5418952
Core_0_L1D_load_MPKI 54.1895
Core_0_L1D_load_miss_rate 0.38927
Core_0_L1D_rfo_access 0
Core_0_L1D_rfo_hit 0
Core_0_L1D_rfo_miss 0
Core_0_L1D_rfo_MPKI 0
Core_0_L1D_rfo_miss_rate 0
Core_0_L1D_prefetch_access 3974173
Core_0_L1D_prefetch_hit 2379015
Core_0_L1D_prefetch_miss 1595158
Core_0_L1D_prefetch_MPKI 15.9516
Core_0_L1D_prefetch_miss_rate 0.401381
Core_0_L1D_writeback_access 3261484
Core_0_L1D_writeback_hit 3231376
Core_0_L1D_writeback_miss 30108
Core_0_L1D_writeback_MPKI 0.30108
Core_0_L1D_writeback_miss_rate 0.00923138
Core_0_L1D_prefetch_requested 3974880
Core_0_L1D_prefetch_issued 3974171
Core_0_L1D_prefetch_useful 128768
Core_0_L1D_prefetch_useless 37114
Core_0_L1D_prefetch_late 247
Core_0_L1D_prefetch_fill 165637
Core_0_L1D_prefetch_too_early 163
Core_0_L1D_prefetch_too_early_among_fill 0.00098408
Core_0_L1D_prefetch_too_early_among_useless 0.00439187
Core_0_L1D_prefetch_pollution_evict 625
Core_0_L1D_prefetch_pollution_demand 623
Core_0_L1D_prefetch_pollution_among_prefetch_fill 0.00377331
Core_0_L1D_prefetch_accuracy 0.0324012
Core_0_L1D_prefetch_coverage 0.023211

Core_0_L2C_total_access 6579117
Core_0_L2C_total_hit 1785552
Core_0_L2C_total_miss 4793565
Core_0_L2C_total_MPKI 47.9356
Core_0_L2C_total_miss_rate 0.728603
Core_0_L2C_demand_access 4422465
Core_0_L2C_demand_hit 80691
Core_0_L2C_demand_miss 4341774
Core_0_L2C_demand_MPKI 43.4177
Core_0_L2C_demand_miss_rate 0.981754
Core_0_L2C_load_access 4414956
Core_0_L2C_load_hit 73365
Core_0_L2C_load_miss 4341591
Core_0_L2C_load_MPKI 43.4159
Core_0_L2C_load_miss_rate 0.983383
Core_0_L2C_rfo_access 7509
Core_0_L2C_rfo_hit 7326
Core_0_L2C_rfo_miss 183
Core_0_L2C_rfo_MPKI 0.00183
Core_0_L2C_rfo_miss_rate 0.0243708
Core_0_L2C_prefetch_access 2144293
Core_0_L2C_prefetch_hit 1692598
Core_0_L2C_prefetch_miss 451695
Core_0_L2C_prefetch_MPKI 4.51695
Core_0_L2C_prefetch_miss_rate 0.21065
Core_0_L2C_writeback_access 12359
Core_0_L2C_writeback_hit 12263
Core_0_L2C_writeback_miss 96
Core_0_L2C_writeback_MPKI 0.00096
Core_0_L2C_writeback_miss_rate 0.00776762
Core_0_L2C_prefetch_requested 551329
Core_0_L2C_prefetch_issued 551329
Core_0_L2C_prefetch_useful 40687
Core_0_L2C_prefetch_useless 280876
Core_0_L2C_prefetch_late 2499
Core_0_L2C_prefetch_fill 412830
Core_0_L2C_prefetch_too_early 196
Core_0_L2C_prefetch_too_early_among_fill 0.000474772
Core_0_L2C_prefetch_too_early_among_useless 0.000697817
Core_0_L2C_prefetch_pollution_evict 1503
Core_0_L2C_prefetch_pollution_demand 1494
Core_0_L2C_prefetch_pollution_among_prefetch_fill 0.00364072
Core_0_L2C_prefetch_accuracy 0.073798
Core_0_L2C_prefetch_coverage 0.00928405

Core_0_LLC_total_access 4755388
Core_0_LLC_total_hit 40422
Core_0_LLC_total_miss 4714966
Core_0_LLC_total_MPKI 47.1497
Core_0_LLC_total_miss_rate 0.9915
Core_0_LLC_demand_access 4339257
Core_0_LLC_demand_hit 9356
Core_0_LLC_demand_miss 4329901
Core_0_LLC_demand_MPKI 43.299
Core_0_LLC_demand_miss_rate 0.997844
Core_0_LLC_load_access 4339074
Core_0_LLC_load_hit 9173
Core_0_LLC_load_miss 4329901
Core_0_LLC_load_MPKI 43.299
Core_0_LLC_load_miss_rate 0.997886
Core_0_LLC_rfo_access 183
Core_0_LLC_rfo_hit 183
Core_0_LLC_rfo_miss 0
Core_0_LLC_rfo_MPKI 0
Core_0_LLC_rfo_miss_rate 0
Core_0_LLC_prefetch_access 415349
Core_0_LLC_prefetch_hit 30294
Core_0_LLC_prefetch_miss 385055
Core_0_LLC_prefetch_MPKI 3.85055
Core_0_LLC_prefetch_miss_rate 0.927064
Core_0_LLC_writeback_access 782
Core_0_LLC_writeback_hit 772
Core_0_LLC_writeback_miss 10
Core_0_LLC_writeback_MPKI 0.0001
Core_0_LLC_writeback_miss_rate 0.0127877
Core_0_LLC_prefetch_requested 0
Core_0_LLC_prefetch_issued 0
Core_0_LLC_prefetch_useful 0
Core_0_LLC_prefetch_useless 0
Core_0_LLC_prefetch_late 0
Core_0_LLC_prefetch_fill 385056
Core_0_LLC_prefetch_too_early 0
Core_0_LLC_prefetch_too_early_among_fill 0
Core_0_LLC_prefetch_too_early_among_useless 0
Core_0_LLC_prefetch_pollution_evict 3821
Core_0_LLC_prefetch_pollution_demand 3821
Core_0_LLC_prefetch_pollution_among_prefetch_fill 0.00992323
Core_0_LLC_prefetch_accuracy 0
Core_0_LLC_prefetch_coverage 0

[DRAM Statistics]
Channel_0_RQ_row_buffer_hit 80842
Channel_0_RQ_row_buffer_miss 5239362
Channel_0_WQ_row_buffer_hit 3
Channel_0_WQ_row_buffer_miss 6
Channel_0_WQ_full 0
Channel_0_dbus_congested 8380482
DRAM_total_RQ_row_buffer_hit 80842
DRAM_total_RQ_row_buffer_miss 5239362
DRAM_total_WQ_row_buffer_hit 3
DRAM_total_WQ_row_buffer_miss 6
DRAM_total_WQ_full 0
DRAM_total_dbus_congested 8380482
DRAM_avg_congested_cycle 3.00086

====== DRAM_RQ_TRAFFIC ========
DRAM_RQ_READ_TRAFFIC_BREAKDOWN:
data_demand_read.count = 4329901
data_demand_read.share = 81.39%

inst_demand_read.count = 0
inst_demand_read.share = 0.00%

cache_inst_prefetch.count = 0
cache_inst_prefetch.share = 0.00%

cache_data_prefetch.count = 385056
cache_data_prefetch.share = 7.24%

stlb_data_demand.count = 605195
stlb_data_demand.share = 11.38%

stlb_inst_demand.count = 0
stlb_inst_demand.share = 0.00%

stlb_l1i_pref.count = 0
stlb_l1i_pref.share = 0.00%

stlb_l1d_pref.count = 53
stlb_l1d_pref.share = 0.00%

DRAM_RQ_READ_TRAFFIC_SUMMARY:
cache_demand.count = 4329901
cache_demand.share = 81.39%

cache_prefetch.count = 385056
cache_prefetch.share = 7.24%

stlb_demand.count = 605195
stlb_demand.share = 11.38%

stlb_prefetch.count = 53
stlb_prefetch.share = 0.00%

DRAM_RQ_READ_TRAFFIC_DEBUG:
total_classified_read.count = 5320205
unclassified_read.count = 0
total_read_with_other.count = 5320205

classified_plus_unclassified_check.count = 5320205
dram_rq_read_total_observed.count = 5320205
dram_rq_read_total_observed.per_1K_instructions = 53.202

STLB_MISS_PTW_DRAM_TOUCH_BREAKDOWN:
stlb_miss_total.count = 935125

stlb_miss_touch_dram.count = 855734
stlb_miss_touch_dram.share = 91.51%

stlb_miss_no_dram_touch.count = 79391
stlb_miss_no_dram_touch.share = 8.49%

STLB_MISS_PTW_DRAM_TOUCH_DEBUG:
stlb_miss_touch_plus_no_touch.count = 935125
stlb_miss_total_check.count = 935125

======STLB miss causes ========
Core_0_STLB_miss_cause_breakdown
Core_0_STLB_cause_Demand_Data_miss 934338
Core_0_STLB_cause_Demand_Data_miss_rate 0.983921
Core_0_STLB_cause_Demand_Instruction_miss 0
Core_0_STLB_cause_Demand_Instruction_miss_rate 0
Core_0_STLB_cause_L1D_Prefetch_miss 788
Core_0_STLB_cause_L1D_Prefetch_miss_rate 0.000829817
Core_0_STLB_cause_L1D_Prefetch_Same_Page_miss 0
Core_0_STLB_cause_L1D_Prefetch_Same_Page_miss_rate 0
Core_0_STLB_cause_L1D_Prefetch_Cross_Page_miss 788
Core_0_STLB_cause_L1D_Prefetch_Cross_Page_miss_rate 0.000829817
Core_0_STLB_cause_L1I_Prefetch_miss 0
Core_0_STLB_cause_L1I_Prefetch_miss_rate 0
Core_0_STLB_cause_Other_miss 0
Core_0_STLB_cause_Other_miss_rate 0
Core_0_STLB_Demand_miss 934338
Core_0_STLB_Demand_miss_rate 0.983921
Core_0_STLB_L1D_Prefetch_miss 788
Core_0_STLB_L1D_Prefetch_miss_rate 0.000829817
Core_0_STLB_Other_miss 0
Core_0_STLB_Other_miss_rate 0

========== vBerti-TLB Cross-page Flow Stats ==========

Core_0_vBerti_Requested 3974880
Core_0_vBerti_Cross_page_prefetch_in_Requested 124323
Core_0_vBerti_Same_page_prefetch_in_Requested 3850557
Core_0_vBerti_Cross_page_prefetch_of_Requested 0.0312772
Core_0_vBerti_Issued 3974171
Core_0_vBerti_InPQ_Same_page_prefetch 3849920
Core_0_vBerti_InPQ_Cross_page_prefetch 124251
Core_0_vBerti_PQ_Drop_Rate 0.00017837
Core_0_vBerti_InPQ_Cross_page_prefetch_of_Requested 0.0312591
Core_0_vBerti_Cross_page_PQ_Drop_rate 0.000579137
Core_0_vBerti_Cross_page_prefetch_of_Issued 0.0312646
Core_0_CP_PF_PQFULL_drop 72
Core_0_CP_PF_PQFULL_TLB_rescue_enqueued 0
Core_0_CP_PF_PQFULL_TLB_rescue_issued 0
Core_0_CP_PF_PQFULL_TLB_rescue_translated 0

========= DTLB_vBerti Prefetch Stats =========
Core_0_DTLB_demand_access 16677249
Core_0_DTLB_demand_hit 13273433
Core_0_DTLB_demand_miss 3403816
Core_0_DTLB_demand_mshr_merge 2458300
Core_0_DTLB_demand_fill 945518
Core_0_DTLB_demand_miss_rate 0.204099
Core_0_DTLB_demand_mpki 34.0382
Core_0_DTLB_vberti_prefetch_access 3362951
Core_0_DTLB_vberti_prefetch_hit 3358790
Core_0_DTLB_vberti_prefetch_miss 4161
Core_0_DTLB_vberti_prefetch_mshr_merge 70
Core_0_DTLB_vberti_prefetch_fill 4091
Core_0_DTLB_vberti_prefetch_miss_rate 0.00123731
Core_0_DTLB_vberti_prefetch_mpki 0.04161

=== DTLB_vBerti Same/Cross-page Prefetch Stats ===
Core_0_DTLB_vberti_same_page_prefetch 3256673
Core_0_DTLB_vberti_same_page_prefetch_hit 3256673
Core_0_DTLB_vberti_same_page_prefetch_miss 0
Core_0_DTLB_vberti_same_page_prefetch_mshr_merge 0
Core_0_DTLB_vberti_same_page_prefetch_fill 0
Core_0_DTLB_vberti_same_page_prefetch_miss_rate 0
Core_0_DTLB_vberti_same_page_prefetch_mpki 0
Core_0_DTLB_vberti_cross_page_prefetch 106278
Core_0_DTLB_vberti_cross_page_prefetch_hit 102117
Core_0_DTLB_vberti_cross_page_prefetch_miss 4161
Core_0_DTLB_vberti_cross_page_prefetch_mshr_merge 70
Core_0_DTLB_vberti_cross_page_prefetch_fill 4091
Core_0_DTLB_vberti_cross_page_prefetch_miss_rate 0.039152
Core_0_DTLB_vberti_cross_page_prefetch_mpki 0.04161
Core_0_DTLB_same_page_prefetch_miss_rate 0
Core_0_DTLB_same_page_prefetch_mpki 0
Core_0_DTLB_cross_page_prefetch_miss_rate 0.039152
Core_0_DTLB_cross_page_prefetch_mpki 0.04161
Core_0_DTLB_cross_page_prefetch_issued 106278
Core_0_DTLB_cross_page_prefetch_lookups 106278
Core_0_DTLB_cross_page_prefetch_useful 2019
Core_0_DTLB_cross_page_prefetch_useless 2072
Core_0_DTLB_cross_page_prefetch_late 0
Core_0_DTLB_cross_page_prefetch_too_early 176
Core_0_DTLB_cross_page_prefetch_too_early_among_fill 0.0430213
Core_0_DTLB_cross_page_prefetch_too_early_among_useless 0.0849421
Core_0_DTLB_cross_page_prefetch_pollution_evict 47
Core_0_DTLB_cross_page_prefetch_pollution_demand 45
Core_0_DTLB_cross_page_prefetch_pollution_among_prefetch_fill 0.0114886
Core_0_DTLB_cross_page_prefetch_accuracy 0.0189973
Core_0_DTLB_cross_page_prefetch_coverage 0.000592806

========= STLB_vBerti Prefetch Stats =========
Core_0_STLB_demand_access 945516
Core_0_STLB_demand_hit 11178
Core_0_STLB_demand_miss 934338
Core_0_STLB_demand_mshr_merge 0
Core_0_STLB_demand_fill 934340
Core_0_STLB_demand_miss_rate 0.988178
Core_0_STLB_demand_mpki 9.34338
Core_0_STLB_vberti_prefetch_access 4091
Core_0_STLB_vberti_prefetch_hit 3303
Core_0_STLB_vberti_prefetch_miss 788
Core_0_STLB_vberti_prefetch_mshr_merge 0
Core_0_STLB_vberti_prefetch_fill 788
Core_0_STLB_vberti_prefetch_miss_rate 0.192618
Core_0_STLB_vberti_prefetch_mpki 0.00788

=== STLB_vBerti Same/Cross-page Prefetch Stats ===
Core_0_STLB_vberti_same_page_prefetch 0
Core_0_STLB_vberti_same_page_prefetch_hit 0
Core_0_STLB_vberti_same_page_prefetch_miss 0
Core_0_STLB_vberti_same_page_prefetch_mshr_merge 0
Core_0_STLB_vberti_same_page_prefetch_fill 0
Core_0_STLB_vberti_same_page_prefetch_miss_rate 0
Core_0_STLB_vberti_same_page_prefetch_mpki 0
Core_0_STLB_vberti_cross_page_prefetch 4091
Core_0_STLB_vberti_cross_page_prefetch_hit 3303
Core_0_STLB_vberti_cross_page_prefetch_miss 788
Core_0_STLB_vberti_cross_page_prefetch_mshr_merge 0
Core_0_STLB_vberti_cross_page_prefetch_fill 788
Core_0_STLB_vberti_cross_page_prefetch_miss_rate 0.192618
Core_0_STLB_vberti_cross_page_prefetch_mpki 0.00788
Core_0_STLB_same_page_prefetch_miss_rate 0
Core_0_STLB_same_page_prefetch_mpki 0
Core_0_STLB_cross_page_prefetch_miss_rate 0.192618
Core_0_STLB_cross_page_prefetch_mpki 0.00788
Core_0_STLB_cross_page_prefetch_issued 4091
Core_0_STLB_cross_page_prefetch_lookups 4091
Core_0_STLB_cross_page_prefetch_useful 89
Core_0_STLB_cross_page_prefetch_useless 699
Core_0_STLB_cross_page_prefetch_late 0
Core_0_STLB_cross_page_prefetch_too_early 464
Core_0_STLB_cross_page_prefetch_too_early_among_fill 0.588832
Core_0_STLB_cross_page_prefetch_too_early_among_useless 0.663805
Core_0_STLB_cross_page_prefetch_pollution_evict 170
Core_0_STLB_cross_page_prefetch_pollution_demand 170
Core_0_STLB_cross_page_prefetch_pollution_among_prefetch_fill 0.215736
Core_0_STLB_cross_page_prefetch_accuracy 0.0217551
Core_0_STLB_cross_page_prefetch_coverage 9.52455e-05

========= STLB Cross-page Prefetch Buffer Stats =========
Core_0_STLB_raw_demand_miss 934338
Core_0_CP_PB_insert 0
Core_0_CP_PB_demand_hit 0
Core_0_STLB_PB_demand_miss 934338
Core_0_CP_PB_coverage 0
Core_0_STLB_raw_demand_mpki 9.34338
Core_0_STLB_PB_demand_mpki 9.34338
Core_0_CP_PB_demand_hit_mpki 0

Core_0_TLB_demand_miss_rate 0.0560247
Core_0_TLB_demand_mpki 9.34338
Core_0_TLB_same_page_prefetch_miss_rate 0
Core_0_TLB_same_page_prefetch_mpki 0
Core_0_TLB_cross_page_prefetch_miss_rate 0.00741452
Core_0_TLB_cross_page_prefetch_mpki 0.00788
Core_0_TLB_cross_page_prefetch_issued 106278
Core_0_TLB_cross_page_prefetch_lookups 106278
Core_0_TLB_cross_page_prefetch_useful 518
Core_0_TLB_cross_page_prefetch_useless 1707
Core_0_TLB_cross_page_prefetch_late 0
Core_0_TLB_cross_page_prefetch_too_early 19
Core_0_TLB_cross_page_prefetch_too_early_among_fill 0.00389424
Core_0_TLB_cross_page_prefetch_too_early_among_useless 0.0111306
Core_0_TLB_cross_page_prefetch_accuracy 0.00487401
Core_0_TLB_cross_page_prefetch_coverage 0.000554096
====== vBerti internal metric ========
Core_0_vBerti_end_to_end_issued 3974171
Core_0_vBerti_end_to_end_useful 41310
Core_0_vBerti_end_to_end_late 57
Core_0_vBerti_end_to_end_accuracy 0.0103946
Core_0_vBerti_end_to_end_timely_accuracy 0.0103803
BERTI TO_L1: 2367785 TO_L2: 1607095 TO_L2_BC_MSHR: 0
BERTI AVG_LAT: 225.652 NUM_TRACK_LATENCY: 4572331 NUM_CANT_TRACK_LATENCY: 0
BERTI CROSS_PAGE 124323 NO_CROSS_PAGE: 3850557
BERTI FOUND_BERTI: 10950009 NO_FOUND_BERTI: 6232269
BERTI AVERAGE_ISSUED: 1.86115
