[VMEM] WARNING: physical memory size is smaller than virtual memory size.

*** ChampSim Multicore Out-of-Order Simulator ***
Warmup Instructions: 50000000
Simulation Instructions: 100000000
Number of CPUs: 1
Page size: 4096
Core 0: /data2/zcq/champsim_traces_xsbench/xs.XXL64unionized-24B.champsimtrace.xz
VBerti Prefetcher
BERTI HASH ENTANGLING
BERTI IP MASK ffff
Off-chip DRAM Size: 16 GiB Channels: 1 Width: 64-bit Data Rate: 3205 MT/s
Warmup halting CPU 0 at instruction 50000001 cycle 13237782 for remainder of phase
Warmup finished CPU 0 instructions: 50000001 cycles: 13237782 cumulative IPC: 3.777 (Simulation time: 00 hr 03 min 00 sec)
Warmup complete CPU 0 instructions: 50000001 cycles: 13237782 cumulative IPC: 3.777 (Simulation time: 00 hr 03 min 00 sec)
Simulation finished CPU 0 instructions: 100000000 cycles: 298733157 cumulative IPC: 0.3347 (Simulation time: 00 hr 30 min 45 sec)
Simulation complete CPU 0 instructions: 100000000 cycles: 298733157 cumulative IPC: 0.3347 (Simulation time: 00 hr 30 min 45 sec)

ChampSim completed all CPUs

=== Simulation ===
CPU 0 runs /data2/zcq/champsim_traces_xsbench/xs.XXL64unionized-24B.champsimtrace.xz

Region of Interest Statistics

CPU 0 cumulative IPC: 0.3347 instructions: 100000000 cycles: 298733157
CPU 0 Branch Prediction Accuracy: 93.32% MPKI: 15.86 Average ROB Occupancy at Mispredict: 43.81
Branch type MPKI
BRANCH_DIRECT_JUMP: 0.00013
BRANCH_INDIRECT: 0
BRANCH_CONDITIONAL: 15.86
BRANCH_DIRECT_CALL: 8e-05
BRANCH_INDIRECT_CALL: 0
BRANCH_RETURN: 0.00053

cpu0->cpu0_STLB TOTAL        ACCESS:    1578679 HIT:     720898 MISS:     857781 MSHR_MERGE:          0
cpu0->cpu0_STLB LOAD         ACCESS:    1578679 HIT:     720898 MISS:     857781 MSHR_MERGE:          0
cpu0->cpu0_STLB RFO          ACCESS:          0 HIT:          0 MISS:          0 MSHR_MERGE:          0
cpu0->cpu0_STLB PREFETCH     ACCESS:          0 HIT:          0 MISS:          0 MSHR_MERGE:          0
cpu0->cpu0_STLB WRITE        ACCESS:          0 HIT:          0 MISS:          0 MSHR_MERGE:          0
cpu0->cpu0_STLB TRANSLATION  ACCESS:          0 HIT:          0 MISS:          0 MSHR_MERGE:          0
cpu0->cpu0_STLB PREFETCH REQUESTED:          0 ISSUED:          0 USEFUL:          0 USELESS:          0 LATE:          0 TOO_EARLY:          0
cpu0->cpu0_STLB AVERAGE MISS LATENCY: 23.67 cycles
cpu0->cpu0_L2C TOTAL        ACCESS:    8458377 HIT:    5742643 MISS:    2715734 MSHR_MERGE:     266767
cpu0->cpu0_L2C LOAD         ACCESS:    2393193 HIT:     499158 MISS:    1894035 MSHR_MERGE:      44102
cpu0->cpu0_L2C RFO          ACCESS:     124891 HIT:      40646 MISS:      84245 MSHR_MERGE:       6749
cpu0->cpu0_L2C PREFETCH     ACCESS:    3715480 HIT:    3001518 MISS:     713962 MSHR_MERGE:     215916
cpu0->cpu0_L2C WRITE        ACCESS:    1612511 HIT:    1612480 MISS:         31 MSHR_MERGE:          0
cpu0->cpu0_L2C TRANSLATION  ACCESS:     612302 HIT:     588841 MISS:      23461 MSHR_MERGE:          0
cpu0->cpu0_L2C PREFETCH REQUESTED:    1108261 ISSUED:    1085000 USEFUL:     153262 USELESS:       6662 LATE:      40955 TOO_EARLY:       5059
cpu0->cpu0_L2C AVERAGE MISS LATENCY: 237.4 cycles
cpu0->cpu0_L1I TOTAL        ACCESS:    2629835 HIT:    2629777 MISS:         58 MSHR_MERGE:          8
cpu0->cpu0_L1I LOAD         ACCESS:    2629835 HIT:    2629777 MISS:         58 MSHR_MERGE:          8
cpu0->cpu0_L1I RFO          ACCESS:          0 HIT:          0 MISS:          0 MSHR_MERGE:          0
cpu0->cpu0_L1I PREFETCH     ACCESS:          0 HIT:          0 MISS:          0 MSHR_MERGE:          0
cpu0->cpu0_L1I WRITE        ACCESS:          0 HIT:          0 MISS:          0 MSHR_MERGE:          0
cpu0->cpu0_L1I TRANSLATION  ACCESS:          0 HIT:          0 MISS:          0 MSHR_MERGE:          0
cpu0->cpu0_L1I PREFETCH REQUESTED:          0 ISSUED:          0 USEFUL:          0 USELESS:          0 LATE:          0 TOO_EARLY:          0
cpu0->cpu0_L1I AVERAGE MISS LATENCY: 211.3 cycles
cpu0->cpu0_L1D TOTAL        ACCESS:   55638109 HIT:   48063797 MISS:    7574312 MSHR_MERGE:    1797532
cpu0->cpu0_L1D LOAD         ACCESS:   17528130 HIT:   14164642 MISS:    3363488 MSHR_MERGE:     970345
cpu0->cpu0_L1D RFO          ACCESS:          0 HIT:          0 MISS:          0 MSHR_MERGE:          0
cpu0->cpu0_L1D PREFETCH     ACCESS:   22667125 HIT:   19943146 MISS:    2723979 MSHR_MERGE:      77535
cpu0->cpu0_L1D WRITE        ACCESS:   13729905 HIT:   12857409 MISS:     872496 MSHR_MERGE:     747605
cpu0->cpu0_L1D TRANSLATION  ACCESS:    1712949 HIT:    1098600 MISS:     614349 MSHR_MERGE:       2047
cpu0->cpu0_L1D PREFETCH REQUESTED:  124923106 ISSUED:   22667117 USEFUL:     453771 USELESS:       7734 LATE:      21665 TOO_EARLY:       3134
cpu0->cpu0_L1D AVERAGE MISS LATENCY: 161.1 cycles
cpu0->cpu0_ITLB TOTAL        ACCESS:    2258548 HIT:    2258540 MISS:          8 MSHR_MERGE:          1
cpu0->cpu0_ITLB LOAD         ACCESS:    2258548 HIT:    2258540 MISS:          8 MSHR_MERGE:          1
cpu0->cpu0_ITLB RFO          ACCESS:          0 HIT:          0 MISS:          0 MSHR_MERGE:          0
cpu0->cpu0_ITLB PREFETCH     ACCESS:          0 HIT:          0 MISS:          0 MSHR_MERGE:          0
cpu0->cpu0_ITLB WRITE        ACCESS:          0 HIT:          0 MISS:          0 MSHR_MERGE:          0
cpu0->cpu0_ITLB TRANSLATION  ACCESS:          0 HIT:          0 MISS:          0 MSHR_MERGE:          0
cpu0->cpu0_ITLB PREFETCH REQUESTED:          0 ISSUED:          0 USEFUL:          0 USELESS:          0 LATE:          0 TOO_EARLY:          0
cpu0->cpu0_ITLB AVERAGE MISS LATENCY: 345.7 cycles
cpu0->cpu0_DTLB TOTAL        ACCESS:   44770245 HIT:   42116504 MISS:    2653741 MSHR_MERGE:    1075069
cpu0->cpu0_DTLB LOAD         ACCESS:   44770245 HIT:   42116504 MISS:    2653741 MSHR_MERGE:    1075069
cpu0->cpu0_DTLB RFO          ACCESS:          0 HIT:          0 MISS:          0 MSHR_MERGE:          0
cpu0->cpu0_DTLB PREFETCH     ACCESS:          0 HIT:          0 MISS:          0 MSHR_MERGE:          0
cpu0->cpu0_DTLB WRITE        ACCESS:          0 HIT:          0 MISS:          0 MSHR_MERGE:          0
cpu0->cpu0_DTLB TRANSLATION  ACCESS:          0 HIT:          0 MISS:          0 MSHR_MERGE:          0
cpu0->cpu0_DTLB PREFETCH REQUESTED:          0 ISSUED:          0 USEFUL:          0 USELESS:          0 LATE:          0 TOO_EARLY:          0
cpu0->cpu0_DTLB AVERAGE MISS LATENCY: 18.41 cycles
cpu0->LLC TOTAL        ACCESS:    3934364 HIT:     773378 MISS:    3160986 MSHR_MERGE:      45069
cpu0->LLC LOAD         ACCESS:    1849933 HIT:     267712 MISS:    1582221 MSHR_MERGE:       8670
cpu0->LLC RFO          ACCESS:      77496 HIT:      12063 MISS:      65433 MSHR_MERGE:        451
cpu0->LLC PREFETCH     ACCESS:     498031 HIT:      94900 MISS:     403131 MSHR_MERGE:      35948
cpu0->LLC WRITE        ACCESS:    1485443 HIT:     394259 MISS:    1091184 MSHR_MERGE:          0
cpu0->LLC TRANSLATION  ACCESS:      23461 HIT:       4444 MISS:      19017 MSHR_MERGE:          0
cpu0->LLC PREFETCH REQUESTED:          0 ISSUED:          0 USEFUL:          0 USELESS:          0 LATE:          0 TOO_EARLY:          0
cpu0->LLC AVERAGE MISS LATENCY: 159.3 cycles

DRAM Statistics

Channel 0 RQ ROW_BUFFER_HIT:      38856
  ROW_BUFFER_MISS:    1985523
  AVG DBUS CONGESTED CYCLE: 6.072
Channel 0 WQ ROW_BUFFER_HIT:     396199
  ROW_BUFFER_MISS:     938765
  FULL:        396
Channel 0 REFRESHES ISSUED:      24894

[ROI Statistics]
[System Configuration]
num_cpus 1
cpu_freq 4000
fetch_width 6
decode_width 6
dispatch_width 6
execute_width 6
lq_width 2
sq_width 2
retire_width 6
scheduler_size 128
branch_mispredict_penalty 15
rob_size 352
lq_size 128
sq_size 72
ifetch_buffer_size 64
decode_buffer_size 32
dispatch_buffer_size 32
register_file_size 288
decode_latency 1
dispatch_latency 1
schedule_latency 1
execute_latency 1
page_size 4096
block_size 64
core_0_itlb_set 16
core_0_itlb_way 4
core_0_itlb_rq_size 16
core_0_itlb_wq_size 16
core_0_itlb_pq_size 0
core_0_itlb_mshr_size 8
core_0_itlb_hit_latency 1
core_0_itlb_fill_latency 1
core_0_itlb_max_tag_check 2
core_0_itlb_max_fill 2
core_0_dtlb_set 16
core_0_dtlb_way 4
core_0_dtlb_rq_size 16
core_0_dtlb_wq_size 16
core_0_dtlb_pq_size 0
core_0_dtlb_mshr_size 8
core_0_dtlb_hit_latency 1
core_0_dtlb_fill_latency 1
core_0_dtlb_max_tag_check 2
core_0_dtlb_max_fill 2
core_0_stlb_set 128
core_0_stlb_way 12
core_0_stlb_rq_size 32
core_0_stlb_wq_size 32
core_0_stlb_pq_size 0
core_0_stlb_mshr_size 16
core_0_stlb_hit_latency 4
core_0_stlb_fill_latency 4
core_0_stlb_max_tag_check 1
core_0_stlb_max_fill 1
core_0_l1i_set 64
core_0_l1i_way 8
core_0_l1i_rq_size 64
core_0_l1i_wq_size 64
core_0_l1i_pq_size 32
core_0_l1i_mshr_size 8
core_0_l1i_hit_latency 2
core_0_l1i_fill_latency 2
core_0_l1i_max_tag_check 2
core_0_l1i_max_fill 2
core_0_l1d_set 64
core_0_l1d_way 12
core_0_l1d_rq_size 64
core_0_l1d_wq_size 64
core_0_l1d_pq_size 8
core_0_l1d_mshr_size 16
core_0_l1d_hit_latency 2
core_0_l1d_fill_latency 3
core_0_l1d_max_tag_check 2
core_0_l1d_max_fill 2
core_0_l2c_set 1024
core_0_l2c_way 8
core_0_l2c_rq_size 32
core_0_l2c_wq_size 32
core_0_l2c_pq_size 16
core_0_l2c_mshr_size 32
core_0_l2c_hit_latency 5
core_0_l2c_fill_latency 5
core_0_l2c_max_tag_check 1
core_0_l2c_max_fill 1
llc_set 2048
llc_way 16
llc_rq_size 32
llc_wq_size 32
llc_pq_size 32
llc_mshr_size 64
llc_hit_latency 10
llc_fill_latency 10
llc_max_tag_check 1
llc_max_fill 1
dram_channels 1
dram_ranks 1
dram_bankgroups 8
dram_banks 4
dram_rows 65536
dram_columns 1024
dram_channel_width 8
dram_rq_size 64
dram_wq_size 64
dram_size 17179869184
core_0_itlb_prefetcher no
core_0_dtlb_prefetcher no
core_0_stlb_prefetcher no
core_0_l1i_prefetcher next_line
core_0_l1d_prefetcher vberti
core_0_l2c_prefetcher ip_stride
llc_prefetcher no
llc_replacement drrip

Core_0_instructions 100000000
Core_0_cycles 298733157
Core_0_IPC 0.334747
Core_0_branch_prediction_accuracy 93.3247
Core_0_branch_MPKI 15.8631
Core_0_average_ROB_occupancy_at_mispredict 43.8065

Core_0_ITLB_total_access 2258548
Core_0_ITLB_total_hit 2258540
Core_0_ITLB_total_miss 8
Core_0_ITLB_total_MPKI 8e-05
Core_0_ITLB_total_miss_rate 3.5421e-06
Core_0_ITLB_demand_access 2258548
Core_0_ITLB_demand_hit 2258540
Core_0_ITLB_demand_miss 8
Core_0_ITLB_demand_MPKI 8e-05
Core_0_ITLB_demand_miss_rate 3.5421e-06
Core_0_ITLB_load_access 2258548
Core_0_ITLB_load_hit 2258540
Core_0_ITLB_load_miss 8
Core_0_ITLB_load_MPKI 8e-05
Core_0_ITLB_load_miss_rate 3.5421e-06
Core_0_ITLB_rfo_access 0
Core_0_ITLB_rfo_hit 0
Core_0_ITLB_rfo_miss 0
Core_0_ITLB_rfo_MPKI 0
Core_0_ITLB_rfo_miss_rate 0
Core_0_ITLB_prefetch_access 0
Core_0_ITLB_prefetch_hit 0
Core_0_ITLB_prefetch_miss 0
Core_0_ITLB_prefetch_MPKI 0
Core_0_ITLB_prefetch_miss_rate 0
Core_0_ITLB_writeback_access 0
Core_0_ITLB_writeback_hit 0
Core_0_ITLB_writeback_miss 0
Core_0_ITLB_writeback_MPKI 0
Core_0_ITLB_writeback_miss_rate 0
Core_0_ITLB_prefetch_requested 0
Core_0_ITLB_prefetch_issued 0
Core_0_ITLB_prefetch_useful 0
Core_0_ITLB_prefetch_useless 0
Core_0_ITLB_prefetch_late 0
Core_0_ITLB_prefetch_fill 0
Core_0_ITLB_prefetch_too_early 0
Core_0_ITLB_prefetch_too_early_among_fill 0
Core_0_ITLB_prefetch_too_early_among_useless 0
Core_0_ITLB_prefetch_pollution_evict 0
Core_0_ITLB_prefetch_pollution_demand 0
Core_0_ITLB_prefetch_pollution_among_prefetch_fill 0
Core_0_ITLB_prefetch_accuracy 0
Core_0_ITLB_prefetch_coverage 0

Core_0_DTLB_total_access 44770245
Core_0_DTLB_total_hit 42116504
Core_0_DTLB_total_miss 2653741
Core_0_DTLB_total_MPKI 26.5374
Core_0_DTLB_total_miss_rate 0.0592747
Core_0_DTLB_demand_access 44770245
Core_0_DTLB_demand_hit 42116504
Core_0_DTLB_demand_miss 2653741
Core_0_DTLB_demand_MPKI 26.5374
Core_0_DTLB_demand_miss_rate 0.0592747
Core_0_DTLB_load_access 44770245
Core_0_DTLB_load_hit 42116504
Core_0_DTLB_load_miss 2653741
Core_0_DTLB_load_MPKI 26.5374
Core_0_DTLB_load_miss_rate 0.0592747
Core_0_DTLB_rfo_access 0
Core_0_DTLB_rfo_hit 0
Core_0_DTLB_rfo_miss 0
Core_0_DTLB_rfo_MPKI 0
Core_0_DTLB_rfo_miss_rate 0
Core_0_DTLB_prefetch_access 0
Core_0_DTLB_prefetch_hit 0
Core_0_DTLB_prefetch_miss 0
Core_0_DTLB_prefetch_MPKI 0
Core_0_DTLB_prefetch_miss_rate 0
Core_0_DTLB_writeback_access 0
Core_0_DTLB_writeback_hit 0
Core_0_DTLB_writeback_miss 0
Core_0_DTLB_writeback_MPKI 0
Core_0_DTLB_writeback_miss_rate 0
Core_0_DTLB_prefetch_requested 0
Core_0_DTLB_prefetch_issued 0
Core_0_DTLB_prefetch_useful 0
Core_0_DTLB_prefetch_useless 0
Core_0_DTLB_prefetch_late 0
Core_0_DTLB_prefetch_fill 0
Core_0_DTLB_prefetch_too_early 0
Core_0_DTLB_prefetch_too_early_among_fill 0
Core_0_DTLB_prefetch_too_early_among_useless 0
Core_0_DTLB_prefetch_pollution_evict 0
Core_0_DTLB_prefetch_pollution_demand 0
Core_0_DTLB_prefetch_pollution_among_prefetch_fill 0
Core_0_DTLB_prefetch_accuracy 0
Core_0_DTLB_prefetch_coverage 0

Core_0_STLB_total_access 1578679
Core_0_STLB_total_hit 720898
Core_0_STLB_total_miss 857781
Core_0_STLB_total_MPKI 8.57781
Core_0_STLB_total_miss_rate 0.543354
Core_0_STLB_demand_access 1578679
Core_0_STLB_demand_hit 720898
Core_0_STLB_demand_miss 857781
Core_0_STLB_demand_MPKI 8.57781
Core_0_STLB_demand_miss_rate 0.543354
Core_0_STLB_load_access 1578679
Core_0_STLB_load_hit 720898
Core_0_STLB_load_miss 857781
Core_0_STLB_load_MPKI 8.57781
Core_0_STLB_load_miss_rate 0.543354
Core_0_STLB_rfo_access 0
Core_0_STLB_rfo_hit 0
Core_0_STLB_rfo_miss 0
Core_0_STLB_rfo_MPKI 0
Core_0_STLB_rfo_miss_rate 0
Core_0_STLB_prefetch_access 0
Core_0_STLB_prefetch_hit 0
Core_0_STLB_prefetch_miss 0
Core_0_STLB_prefetch_MPKI 0
Core_0_STLB_prefetch_miss_rate 0
Core_0_STLB_writeback_access 0
Core_0_STLB_writeback_hit 0
Core_0_STLB_writeback_miss 0
Core_0_STLB_writeback_MPKI 0
Core_0_STLB_writeback_miss_rate 0
Core_0_STLB_prefetch_requested 0
Core_0_STLB_prefetch_issued 0
Core_0_STLB_prefetch_useful 0
Core_0_STLB_prefetch_useless 0
Core_0_STLB_prefetch_late 0
Core_0_STLB_prefetch_fill 0
Core_0_STLB_prefetch_too_early 0
Core_0_STLB_prefetch_too_early_among_fill 0
Core_0_STLB_prefetch_too_early_among_useless 0
Core_0_STLB_prefetch_pollution_evict 0
Core_0_STLB_prefetch_pollution_demand 0
Core_0_STLB_prefetch_pollution_among_prefetch_fill 0
Core_0_STLB_prefetch_accuracy 0
Core_0_STLB_prefetch_coverage 0

Core_0_L1I_total_access 2629835
Core_0_L1I_total_hit 2629777
Core_0_L1I_total_miss 58
Core_0_L1I_total_MPKI 0.00058
Core_0_L1I_total_miss_rate 2.20546e-05
Core_0_L1I_demand_access 2629835
Core_0_L1I_demand_hit 2629777
Core_0_L1I_demand_miss 58
Core_0_L1I_demand_MPKI 0.00058
Core_0_L1I_demand_miss_rate 2.20546e-05
Core_0_L1I_load_access 2629835
Core_0_L1I_load_hit 2629777
Core_0_L1I_load_miss 58
Core_0_L1I_load_MPKI 0.00058
Core_0_L1I_load_miss_rate 2.20546e-05
Core_0_L1I_rfo_access 0
Core_0_L1I_rfo_hit 0
Core_0_L1I_rfo_miss 0
Core_0_L1I_rfo_MPKI 0
Core_0_L1I_rfo_miss_rate 0
Core_0_L1I_prefetch_access 0
Core_0_L1I_prefetch_hit 0
Core_0_L1I_prefetch_miss 0
Core_0_L1I_prefetch_MPKI 0
Core_0_L1I_prefetch_miss_rate 0
Core_0_L1I_writeback_access 0
Core_0_L1I_writeback_hit 0
Core_0_L1I_writeback_miss 0
Core_0_L1I_writeback_MPKI 0
Core_0_L1I_writeback_miss_rate 0
Core_0_L1I_prefetch_requested 0
Core_0_L1I_prefetch_issued 0
Core_0_L1I_prefetch_useful 0
Core_0_L1I_prefetch_useless 0
Core_0_L1I_prefetch_late 0
Core_0_L1I_prefetch_fill 0
Core_0_L1I_prefetch_too_early 0
Core_0_L1I_prefetch_too_early_among_fill 0
Core_0_L1I_prefetch_too_early_among_useless 0
Core_0_L1I_prefetch_pollution_evict 0
Core_0_L1I_prefetch_pollution_demand 0
Core_0_L1I_prefetch_pollution_among_prefetch_fill 0
Core_0_L1I_prefetch_accuracy 0
Core_0_L1I_prefetch_coverage 0

Core_0_L1D_total_access 53925160
Core_0_L1D_total_hit 46965197
Core_0_L1D_total_miss 6959963
Core_0_L1D_total_MPKI 69.5996
Core_0_L1D_total_miss_rate 0.129067
Core_0_L1D_demand_access 17528130
Core_0_L1D_demand_hit 14164642
Core_0_L1D_demand_miss 3363488
Core_0_L1D_demand_MPKI 33.6349
Core_0_L1D_demand_miss_rate 0.191891
Core_0_L1D_load_access 17528130
Core_0_L1D_load_hit 14164642
Core_0_L1D_load_miss 3363488
Core_0_L1D_load_MPKI 33.6349
Core_0_L1D_load_miss_rate 0.191891
Core_0_L1D_rfo_access 0
Core_0_L1D_rfo_hit 0
Core_0_L1D_rfo_miss 0
Core_0_L1D_rfo_MPKI 0
Core_0_L1D_rfo_miss_rate 0
Core_0_L1D_prefetch_access 22667125
Core_0_L1D_prefetch_hit 19943146
Core_0_L1D_prefetch_miss 2723979
Core_0_L1D_prefetch_MPKI 27.2398
Core_0_L1D_prefetch_miss_rate 0.120173
Core_0_L1D_writeback_access 13729905
Core_0_L1D_writeback_hit 12857409
Core_0_L1D_writeback_miss 872496
Core_0_L1D_writeback_MPKI 8.72496
Core_0_L1D_writeback_miss_rate 0.0635471
Core_0_L1D_prefetch_requested 124923106
Core_0_L1D_prefetch_issued 22667117
Core_0_L1D_prefetch_useful 453771
Core_0_L1D_prefetch_useless 7734
Core_0_L1D_prefetch_late 21665
Core_0_L1D_prefetch_fill 439858
Core_0_L1D_prefetch_too_early 3134
Core_0_L1D_prefetch_too_early_among_fill 0.00712503
Core_0_L1D_prefetch_too_early_among_useless 0.405224
Core_0_L1D_prefetch_pollution_evict 70441
Core_0_L1D_prefetch_pollution_demand 69997
Core_0_L1D_prefetch_pollution_among_prefetch_fill 0.160145
Core_0_L1D_prefetch_accuracy 0.0200189
Core_0_L1D_prefetch_coverage 0.118874

Core_0_L2C_total_access 7846075
Core_0_L2C_total_hit 5153802
Core_0_L2C_total_miss 2692273
Core_0_L2C_total_MPKI 26.9227
Core_0_L2C_total_miss_rate 0.343136
Core_0_L2C_demand_access 2518084
Core_0_L2C_demand_hit 539804
Core_0_L2C_demand_miss 1978280
Core_0_L2C_demand_MPKI 19.7828
Core_0_L2C_demand_miss_rate 0.785629
Core_0_L2C_load_access 2393193
Core_0_L2C_load_hit 499158
Core_0_L2C_load_miss 1894035
Core_0_L2C_load_MPKI 18.9403
Core_0_L2C_load_miss_rate 0.791426
Core_0_L2C_rfo_access 124891
Core_0_L2C_rfo_hit 40646
Core_0_L2C_rfo_miss 84245
Core_0_L2C_rfo_MPKI 0.84245
Core_0_L2C_rfo_miss_rate 0.674548
Core_0_L2C_prefetch_access 3715480
Core_0_L2C_prefetch_hit 3001518
Core_0_L2C_prefetch_miss 713962
Core_0_L2C_prefetch_MPKI 7.13962
Core_0_L2C_prefetch_miss_rate 0.192159
Core_0_L2C_writeback_access 1612511
Core_0_L2C_writeback_hit 1612480
Core_0_L2C_writeback_miss 31
Core_0_L2C_writeback_MPKI 0.00031
Core_0_L2C_writeback_miss_rate 1.92247e-05
Core_0_L2C_prefetch_requested 1108261
Core_0_L2C_prefetch_issued 1085000
Core_0_L2C_prefetch_useful 153262
Core_0_L2C_prefetch_useless 6662
Core_0_L2C_prefetch_late 40955
Core_0_L2C_prefetch_fill 388560
Core_0_L2C_prefetch_too_early 5059
Core_0_L2C_prefetch_too_early_among_fill 0.0130199
Core_0_L2C_prefetch_too_early_among_useless 0.759382
Core_0_L2C_prefetch_pollution_evict 83181
Core_0_L2C_prefetch_pollution_demand 82642
Core_0_L2C_prefetch_pollution_among_prefetch_fill 0.214075
Core_0_L2C_prefetch_accuracy 0.141255
Core_0_L2C_prefetch_coverage 0.0719019

Core_0_LLC_total_access 3910903
Core_0_LLC_total_hit 768934
Core_0_LLC_total_miss 3141969
Core_0_LLC_total_MPKI 31.4197
Core_0_LLC_total_miss_rate 0.803387
Core_0_LLC_demand_access 1927429
Core_0_LLC_demand_hit 279775
Core_0_LLC_demand_miss 1647654
Core_0_LLC_demand_MPKI 16.4765
Core_0_LLC_demand_miss_rate 0.854845
Core_0_LLC_load_access 1849933
Core_0_LLC_load_hit 267712
Core_0_LLC_load_miss 1582221
Core_0_LLC_load_MPKI 15.8222
Core_0_LLC_load_miss_rate 0.855286
Core_0_LLC_rfo_access 77496
Core_0_LLC_rfo_hit 12063
Core_0_LLC_rfo_miss 65433
Core_0_LLC_rfo_MPKI 0.65433
Core_0_LLC_rfo_miss_rate 0.84434
Core_0_LLC_prefetch_access 498031
Core_0_LLC_prefetch_hit 94900
Core_0_LLC_prefetch_miss 403131
Core_0_LLC_prefetch_MPKI 4.03131
Core_0_LLC_prefetch_miss_rate 0.80945
Core_0_LLC_writeback_access 1485443
Core_0_LLC_writeback_hit 394259
Core_0_LLC_writeback_miss 1091184
Core_0_LLC_writeback_MPKI 10.9118
Core_0_LLC_writeback_miss_rate 0.734585
Core_0_LLC_prefetch_requested 0
Core_0_LLC_prefetch_issued 0
Core_0_LLC_prefetch_useful 0
Core_0_LLC_prefetch_useless 0
Core_0_LLC_prefetch_late 0
Core_0_LLC_prefetch_fill 358053
Core_0_LLC_prefetch_too_early 0
Core_0_LLC_prefetch_too_early_among_fill 0
Core_0_LLC_prefetch_too_early_among_useless 0
Core_0_LLC_prefetch_pollution_evict 96604
Core_0_LLC_prefetch_pollution_demand 96604
Core_0_LLC_prefetch_pollution_among_prefetch_fill 0.269804
Core_0_LLC_prefetch_accuracy 0
Core_0_LLC_prefetch_coverage 0

[DRAM Statistics]
Channel_0_RQ_row_buffer_hit 38856
Channel_0_RQ_row_buffer_miss 1985523
Channel_0_WQ_row_buffer_hit 396199
Channel_0_WQ_row_buffer_miss 938765
Channel_0_WQ_full 396
Channel_0_dbus_congested 11578163
DRAM_total_RQ_row_buffer_hit 38856
DRAM_total_RQ_row_buffer_miss 1985523
DRAM_total_WQ_row_buffer_hit 396199
DRAM_total_WQ_row_buffer_miss 938765
DRAM_total_WQ_full 396
DRAM_total_dbus_congested 11578163
DRAM_avg_congested_cycle 6.07182

====== DRAM_RQ_TRAFFIC ========
DRAM_RQ_READ_TRAFFIC_BREAKDOWN:
data_demand_read.count = 1638483
data_demand_read.share = 80.92%

inst_demand_read.count = 50
inst_demand_read.share = 0.00%

cache_inst_prefetch.count = 0
cache_inst_prefetch.share = 0.00%

cache_data_prefetch.count = 367183
cache_data_prefetch.share = 18.13%

stlb_data_demand.count = 18376
stlb_data_demand.share = 0.91%

stlb_inst_demand.count = 4
stlb_inst_demand.share = 0.00%

stlb_l1i_pref.count = 0
stlb_l1i_pref.share = 0.00%

stlb_l1d_pref.count = 637
stlb_l1d_pref.share = 0.03%

DRAM_RQ_READ_TRAFFIC_SUMMARY:
cache_demand.count = 1638533
cache_demand.share = 80.93%

cache_prefetch.count = 367183
cache_prefetch.share = 18.13%

stlb_demand.count = 18380
stlb_demand.share = 0.91%

stlb_prefetch.count = 637
stlb_prefetch.share = 0.03%

DRAM_RQ_READ_TRAFFIC_DEBUG:
total_classified_read.count = 2024733
unclassified_read.count = 0
total_read_with_other.count = 2024733

classified_plus_unclassified_check.count = 2024733
dram_rq_read_total_observed.count = 2024733
dram_rq_read_total_observed.per_1K_instructions = 20.2473

STLB_MISS_PTW_DRAM_TOUCH_BREAKDOWN:
stlb_miss_total.count = 857781

stlb_miss_touch_dram.count = 19013
stlb_miss_touch_dram.share = 2.22%

stlb_miss_no_dram_touch.count = 838768
stlb_miss_no_dram_touch.share = 97.78%

STLB_MISS_PTW_DRAM_TOUCH_DEBUG:
stlb_miss_touch_plus_no_touch.count = 857781
stlb_miss_total_check.count = 857781

======STLB miss causes ========
Core_0_STLB_miss_cause_breakdown
Core_0_STLB_cause_Demand_Data_miss 852985
Core_0_STLB_cause_Demand_Data_miss_rate 0.540316
Core_0_STLB_cause_Demand_Instruction_miss 7
Core_0_STLB_cause_Demand_Instruction_miss_rate 4.43409e-06
Core_0_STLB_cause_L1D_Prefetch_miss 4789
Core_0_STLB_cause_L1D_Prefetch_miss_rate 0.00303355
Core_0_STLB_cause_L1D_Prefetch_Same_Page_miss 0
Core_0_STLB_cause_L1D_Prefetch_Same_Page_miss_rate 0
Core_0_STLB_cause_L1D_Prefetch_Cross_Page_miss 4789
Core_0_STLB_cause_L1D_Prefetch_Cross_Page_miss_rate 0.00303355
Core_0_STLB_cause_L1I_Prefetch_miss 0
Core_0_STLB_cause_L1I_Prefetch_miss_rate 0
Core_0_STLB_cause_Other_miss 0
Core_0_STLB_cause_Other_miss_rate 0
Core_0_STLB_Demand_miss 852992
Core_0_STLB_Demand_miss_rate 0.54032
Core_0_STLB_L1D_Prefetch_miss 4789
Core_0_STLB_L1D_Prefetch_miss_rate 0.00303355
Core_0_STLB_Other_miss 0
Core_0_STLB_Other_miss_rate 0

========== vBerti-TLB Cross-page Flow Stats ==========

Core_0_vBerti_Requested 124923106
Core_0_vBerti_Cross_page_prefetch_in_Requested 14157531
Core_0_vBerti_Same_page_prefetch_in_Requested 110765575
Core_0_vBerti_Cross_page_prefetch_of_Requested 0.11333
Core_0_vBerti_Issued 22667117
Core_0_vBerti_InPQ_Same_page_prefetch 21327712
Core_0_vBerti_InPQ_Cross_page_prefetch 1339405
Core_0_vBerti_PQ_Drop_Rate 0.818551
Core_0_vBerti_InPQ_Cross_page_prefetch_of_Requested 0.0107218
Core_0_vBerti_Cross_page_PQ_Drop_rate 0.905393
Core_0_vBerti_Cross_page_prefetch_of_Issued 0.0590902
Core_0_CP_PF_PQFULL_drop 12818126
Core_0_CP_PF_PQFULL_TLB_rescue_enqueued 0
Core_0_CP_PF_PQFULL_TLB_rescue_issued 0
Core_0_CP_PF_PQFULL_TLB_rescue_translated 0

========= DTLB_vBerti Prefetch Stats =========
Core_0_DTLB_demand_access 29805080
Core_0_DTLB_demand_hit 27166428
Core_0_DTLB_demand_miss 2638652
Core_0_DTLB_demand_mshr_merge 1068039
Core_0_DTLB_demand_fill 1570792
Core_0_DTLB_demand_miss_rate 0.0885303
Core_0_DTLB_demand_mpki 26.3865
Core_0_DTLB_vberti_prefetch_access 14965165
Core_0_DTLB_vberti_prefetch_hit 14950076
Core_0_DTLB_vberti_prefetch_miss 15089
Core_0_DTLB_vberti_prefetch_mshr_merge 7030
Core_0_DTLB_vberti_prefetch_fill 7880
Core_0_DTLB_vberti_prefetch_miss_rate 0.00100827
Core_0_DTLB_vberti_prefetch_mpki 0.15089

=== DTLB_vBerti Same/Cross-page Prefetch Stats ===
Core_0_DTLB_vberti_same_page_prefetch 13950759
Core_0_DTLB_vberti_same_page_prefetch_hit 13950708
Core_0_DTLB_vberti_same_page_prefetch_miss 51
Core_0_DTLB_vberti_same_page_prefetch_mshr_merge 12
Core_0_DTLB_vberti_same_page_prefetch_fill 36
Core_0_DTLB_vberti_same_page_prefetch_miss_rate 3.65572e-06
Core_0_DTLB_vberti_same_page_prefetch_mpki 0.00051
Core_0_DTLB_vberti_cross_page_prefetch 1014406
Core_0_DTLB_vberti_cross_page_prefetch_hit 999368
Core_0_DTLB_vberti_cross_page_prefetch_miss 15038
Core_0_DTLB_vberti_cross_page_prefetch_mshr_merge 7018
Core_0_DTLB_vberti_cross_page_prefetch_fill 7844
Core_0_DTLB_vberti_cross_page_prefetch_miss_rate 0.0148244
Core_0_DTLB_vberti_cross_page_prefetch_mpki 0.15038
Core_0_DTLB_same_page_prefetch_miss_rate 3.65572e-06
Core_0_DTLB_same_page_prefetch_mpki 0.00051
Core_0_DTLB_cross_page_prefetch_miss_rate 0.0148244
Core_0_DTLB_cross_page_prefetch_mpki 0.15038
Core_0_DTLB_cross_page_prefetch_issued 1014406
Core_0_DTLB_cross_page_prefetch_lookups 1014406
Core_0_DTLB_cross_page_prefetch_useful 7741
Core_0_DTLB_cross_page_prefetch_useless 279
Core_0_DTLB_cross_page_prefetch_late 176
Core_0_DTLB_cross_page_prefetch_too_early 11
Core_0_DTLB_cross_page_prefetch_too_early_among_fill 0.00140235
Core_0_DTLB_cross_page_prefetch_too_early_among_useless 0.0394265
Core_0_DTLB_cross_page_prefetch_pollution_evict 4048
Core_0_DTLB_cross_page_prefetch_pollution_demand 3375
Core_0_DTLB_cross_page_prefetch_pollution_among_prefetch_fill 0.516063
Core_0_DTLB_cross_page_prefetch_accuracy 0.00763107
Core_0_DTLB_cross_page_prefetch_coverage 0.00292511

========= STLB_vBerti Prefetch Stats =========
Core_0_STLB_demand_access 1570620
Core_0_STLB_demand_hit 717628
Core_0_STLB_demand_miss 852992
Core_0_STLB_demand_mshr_merge 0
Core_0_STLB_demand_fill 852992
Core_0_STLB_demand_miss_rate 0.543093
Core_0_STLB_demand_mpki 8.52992
Core_0_STLB_vberti_prefetch_access 8059
Core_0_STLB_vberti_prefetch_hit 3270
Core_0_STLB_vberti_prefetch_miss 4789
Core_0_STLB_vberti_prefetch_mshr_merge 0
Core_0_STLB_vberti_prefetch_fill 4789
Core_0_STLB_vberti_prefetch_miss_rate 0.594242
Core_0_STLB_vberti_prefetch_mpki 0.04789

=== STLB_vBerti Same/Cross-page Prefetch Stats ===
Core_0_STLB_vberti_same_page_prefetch 39
Core_0_STLB_vberti_same_page_prefetch_hit 39
Core_0_STLB_vberti_same_page_prefetch_miss 0
Core_0_STLB_vberti_same_page_prefetch_mshr_merge 0
Core_0_STLB_vberti_same_page_prefetch_fill 0
Core_0_STLB_vberti_same_page_prefetch_miss_rate 0
Core_0_STLB_vberti_same_page_prefetch_mpki 0
Core_0_STLB_vberti_cross_page_prefetch 8020
Core_0_STLB_vberti_cross_page_prefetch_hit 3231
Core_0_STLB_vberti_cross_page_prefetch_miss 4789
Core_0_STLB_vberti_cross_page_prefetch_mshr_merge 0
Core_0_STLB_vberti_cross_page_prefetch_fill 4789
Core_0_STLB_vberti_cross_page_prefetch_miss_rate 0.597132
Core_0_STLB_vberti_cross_page_prefetch_mpki 0.04789
Core_0_STLB_same_page_prefetch_miss_rate 0
Core_0_STLB_same_page_prefetch_mpki 0
Core_0_STLB_cross_page_prefetch_miss_rate 0.597132
Core_0_STLB_cross_page_prefetch_mpki 0.04789
Core_0_STLB_cross_page_prefetch_issued 8020
Core_0_STLB_cross_page_prefetch_lookups 8020
Core_0_STLB_cross_page_prefetch_useful 2210
Core_0_STLB_cross_page_prefetch_useless 2579
Core_0_STLB_cross_page_prefetch_late 0
Core_0_STLB_cross_page_prefetch_too_early 884
Core_0_STLB_cross_page_prefetch_too_early_among_fill 0.18459
Core_0_STLB_cross_page_prefetch_too_early_among_useless 0.342769
Core_0_STLB_cross_page_prefetch_pollution_evict 2680
Core_0_STLB_cross_page_prefetch_pollution_demand 2480
Core_0_STLB_cross_page_prefetch_pollution_among_prefetch_fill 0.559616
Core_0_STLB_cross_page_prefetch_accuracy 0.275561
Core_0_STLB_cross_page_prefetch_coverage 0.00258418

========= STLB Cross-page Prefetch Buffer Stats =========
Core_0_STLB_raw_demand_miss 852985
Core_0_CP_PB_insert 0
Core_0_CP_PB_demand_hit 0
Core_0_STLB_PB_demand_miss 852985
Core_0_CP_PB_coverage 0
Core_0_STLB_raw_demand_mpki 8.52985
Core_0_STLB_PB_demand_mpki 8.52985
Core_0_CP_PB_demand_hit_mpki 0

Core_0_TLB_demand_miss_rate 0.028619
Core_0_TLB_demand_mpki 8.52992
Core_0_TLB_same_page_prefetch_miss_rate 0
Core_0_TLB_same_page_prefetch_mpki 0
Core_0_TLB_cross_page_prefetch_miss_rate 0.00472099
Core_0_TLB_cross_page_prefetch_mpki 0.04789
Core_0_TLB_cross_page_prefetch_issued 1014406
Core_0_TLB_cross_page_prefetch_lookups 1014406
Core_0_TLB_cross_page_prefetch_useful 4845
Core_0_TLB_cross_page_prefetch_useless 116
Core_0_TLB_cross_page_prefetch_late 137
Core_0_TLB_cross_page_prefetch_too_early 9
Core_0_TLB_cross_page_prefetch_too_early_among_fill 0.00071242
Core_0_TLB_cross_page_prefetch_too_early_among_useless 0.0775862
Core_0_TLB_cross_page_prefetch_accuracy 0.00477619
Core_0_TLB_cross_page_prefetch_coverage 0.00564793
====== vBerti internal metric ========
Core_0_vBerti_end_to_end_issued 22667117
Core_0_vBerti_end_to_end_useful 177129
Core_0_vBerti_end_to_end_late 16580
Core_0_vBerti_end_to_end_accuracy 0.00781436
Core_0_vBerti_end_to_end_timely_accuracy 0.0070829
BERTI TO_L1: 48761611 TO_L2: 76161495 TO_L2_BC_MSHR: 30826077
BERTI AVG_LAT: 184.31 NUM_TRACK_LATENCY: 2970447 NUM_CANT_TRACK_LATENCY: 11
BERTI CROSS_PAGE 14157531 NO_CROSS_PAGE: 110765575
BERTI FOUND_BERTI: 22311169 NO_FOUND_BERTI: 12350927
BERTI AVERAGE_ISSUED: 3.06923
