[VMEM] WARNING: physical memory size is smaller than virtual memory size.

*** ChampSim Multicore Out-of-Order Simulator ***
Warmup Instructions: 50000000
Simulation Instructions: 100000000
Number of CPUs: 1
Page size: 4096
Core 0: /data0/tzh/champsim_traces/SPEC06/436.cactusADM-1804B.champsimtrace.xz
VBerti Prefetcher
No Crossing Page
BERTI HASH ENTANGLING
BERTI IP MASK ffff
Off-chip DRAM Size: 16 GiB Channels: 1 Width: 64-bit Data Rate: 3205 MT/s
Warmup halting CPU 0 at instruction 50000005 cycle 15214224 for remainder of phase
Warmup finished CPU 0 instructions: 50000005 cycles: 15214224 cumulative IPC: 3.286 (Simulation time: 00 hr 04 min 00 sec)
Warmup complete CPU 0 instructions: 50000005 cycles: 15214224 cumulative IPC: 3.286 (Simulation time: 00 hr 04 min 00 sec)
Simulation finished CPU 0 instructions: 100000002 cycles: 53242301 cumulative IPC: 1.878 (Simulation time: 00 hr 15 min 46 sec)
Simulation complete CPU 0 instructions: 100000002 cycles: 53242301 cumulative IPC: 1.878 (Simulation time: 00 hr 15 min 46 sec)

ChampSim completed all CPUs

=== Simulation ===
CPU 0 runs /data0/tzh/champsim_traces/SPEC06/436.cactusADM-1804B.champsimtrace.xz

Region of Interest Statistics

CPU 0 cumulative IPC: 1.878 instructions: 100000002 cycles: 53242301
CPU 0 Branch Prediction Accuracy: 99.98% MPKI: 0.00019 Average ROB Occupancy at Mispredict: 258.2
Branch type MPKI
BRANCH_DIRECT_JUMP: 0
BRANCH_INDIRECT: 0
BRANCH_CONDITIONAL: 0.00019
BRANCH_DIRECT_CALL: 0
BRANCH_INDIRECT_CALL: 0
BRANCH_RETURN: 0

cpu0->cpu0_STLB TOTAL        ACCESS:    2756258 HIT:    1852725 MISS:     903533 MSHR_MERGE:          0
cpu0->cpu0_STLB LOAD         ACCESS:    2756258 HIT:    1852725 MISS:     903533 MSHR_MERGE:          0
cpu0->cpu0_STLB RFO          ACCESS:          0 HIT:          0 MISS:          0 MSHR_MERGE:          0
cpu0->cpu0_STLB PREFETCH     ACCESS:          0 HIT:          0 MISS:          0 MSHR_MERGE:          0
cpu0->cpu0_STLB WRITE        ACCESS:          0 HIT:          0 MISS:          0 MSHR_MERGE:          0
cpu0->cpu0_STLB TRANSLATION  ACCESS:          0 HIT:          0 MISS:          0 MSHR_MERGE:          0
cpu0->cpu0_STLB PREFETCH REQUESTED:          0 ISSUED:          0 USEFUL:          0 USELESS:          0 LATE:          0 TOO_EARLY:          0
cpu0->cpu0_STLB AVERAGE MISS LATENCY: 24.93 cycles
cpu0->cpu0_L2C TOTAL        ACCESS:    3073254 HIT:    2533376 MISS:     539878 MSHR_MERGE:      28708
cpu0->cpu0_L2C LOAD         ACCESS:     555604 HIT:     534998 MISS:      20606 MSHR_MERGE:        122
cpu0->cpu0_L2C RFO          ACCESS:      64314 HIT:      12202 MISS:      52112 MSHR_MERGE:        149
cpu0->cpu0_L2C PREFETCH     ACCESS:    1556463 HIT:    1090555 MISS:     465908 MSHR_MERGE:      28437
cpu0->cpu0_L2C WRITE        ACCESS:     162748 HIT:     162556 MISS:        192 MSHR_MERGE:          0
cpu0->cpu0_L2C TRANSLATION  ACCESS:     734125 HIT:     733065 MISS:       1060 MSHR_MERGE:          0
cpu0->cpu0_L2C PREFETCH REQUESTED:    1244633 ISSUED:    1244619 USEFUL:     267098 USELESS:        529 LATE:          5 TOO_EARLY:         78
cpu0->cpu0_L2C AVERAGE MISS LATENCY: 220.5 cycles
cpu0->cpu0_L1I TOTAL        ACCESS:   19197851 HIT:   19197851 MISS:          0 MSHR_MERGE:          0
cpu0->cpu0_L1I LOAD         ACCESS:   19197851 HIT:   19197851 MISS:          0 MSHR_MERGE:          0
cpu0->cpu0_L1I RFO          ACCESS:          0 HIT:          0 MISS:          0 MSHR_MERGE:          0
cpu0->cpu0_L1I PREFETCH     ACCESS:          0 HIT:          0 MISS:          0 MSHR_MERGE:          0
cpu0->cpu0_L1I WRITE        ACCESS:          0 HIT:          0 MISS:          0 MSHR_MERGE:          0
cpu0->cpu0_L1I TRANSLATION  ACCESS:          0 HIT:          0 MISS:          0 MSHR_MERGE:          0
cpu0->cpu0_L1I PREFETCH REQUESTED:          0 ISSUED:          0 USEFUL:          0 USELESS:          0 LATE:          0 TOO_EARLY:          0
cpu0->cpu0_L1I AVERAGE MISS LATENCY: - cycles
cpu0->cpu0_L1D TOTAL        ACCESS:   44907990 HIT:   43206460 MISS:    1701530 MSHR_MERGE:      35299
cpu0->cpu0_L1D LOAD         ACCESS:   24554686 HIT:   23995332 MISS:     559354 MSHR_MERGE:       3699
cpu0->cpu0_L1D RFO          ACCESS:          0 HIT:          0 MISS:          0 MSHR_MERGE:          0
cpu0->cpu0_L1D PREFETCH     ACCESS:    1736191 HIT:    1424249 MISS:     311942 MSHR_MERGE:         26
cpu0->cpu0_L1D WRITE        ACCESS:   15969302 HIT:   15873195 MISS:      96107 MSHR_MERGE:      31572
cpu0->cpu0_L1D TRANSLATION  ACCESS:    2647811 HIT:    1913684 MISS:     734127 MSHR_MERGE:          2
cpu0->cpu0_L1D PREFETCH REQUESTED:    5294122 ISSUED:    1736191 USEFUL:     180997 USELESS:      11255 LATE:       2436 TOO_EARLY:        580
cpu0->cpu0_L1D AVERAGE MISS LATENCY: 20.54 cycles
cpu0->cpu0_ITLB TOTAL        ACCESS:   14206240 HIT:   14206240 MISS:          0 MSHR_MERGE:          0
cpu0->cpu0_ITLB LOAD         ACCESS:   14206240 HIT:   14206240 MISS:          0 MSHR_MERGE:          0
cpu0->cpu0_ITLB RFO          ACCESS:          0 HIT:          0 MISS:          0 MSHR_MERGE:          0
cpu0->cpu0_ITLB PREFETCH     ACCESS:          0 HIT:          0 MISS:          0 MSHR_MERGE:          0
cpu0->cpu0_ITLB WRITE        ACCESS:          0 HIT:          0 MISS:          0 MSHR_MERGE:          0
cpu0->cpu0_ITLB TRANSLATION  ACCESS:          0 HIT:          0 MISS:          0 MSHR_MERGE:          0
cpu0->cpu0_ITLB PREFETCH REQUESTED:          0 ISSUED:          0 USEFUL:          0 USELESS:          0 LATE:          0 TOO_EARLY:          0
cpu0->cpu0_ITLB AVERAGE MISS LATENCY: - cycles
cpu0->cpu0_DTLB TOTAL        ACCESS:   37952708 HIT:   35015267 MISS:    2937441 MSHR_MERGE:     181183
cpu0->cpu0_DTLB LOAD         ACCESS:   37952708 HIT:   35015267 MISS:    2937441 MSHR_MERGE:     181183
cpu0->cpu0_DTLB RFO          ACCESS:          0 HIT:          0 MISS:          0 MSHR_MERGE:          0
cpu0->cpu0_DTLB PREFETCH     ACCESS:          0 HIT:          0 MISS:          0 MSHR_MERGE:          0
cpu0->cpu0_DTLB WRITE        ACCESS:          0 HIT:          0 MISS:          0 MSHR_MERGE:          0
cpu0->cpu0_DTLB TRANSLATION  ACCESS:          0 HIT:          0 MISS:          0 MSHR_MERGE:          0
cpu0->cpu0_DTLB PREFETCH REQUESTED:          0 ISSUED:          0 USEFUL:          0 USELESS:          0 LATE:          0 TOO_EARLY:          0
cpu0->cpu0_DTLB AVERAGE MISS LATENCY: 13.52 cycles
cpu0->LLC TOTAL        ACCESS:     652558 HIT:     132936 MISS:     519622 MSHR_MERGE:       1464
cpu0->LLC LOAD         ACCESS:      20484 HIT:       4498 MISS:      15986 MSHR_MERGE:         10
cpu0->LLC RFO          ACCESS:      51963 HIT:        825 MISS:      51138 MSHR_MERGE:          0
cpu0->LLC PREFETCH     ACCESS:     437470 HIT:      88854 MISS:     348616 MSHR_MERGE:       1454
cpu0->LLC WRITE        ACCESS:     141581 HIT:      38723 MISS:     102858 MSHR_MERGE:          0
cpu0->LLC TRANSLATION  ACCESS:       1060 HIT:         36 MISS:       1024 MSHR_MERGE:          0
cpu0->LLC PREFETCH REQUESTED:          0 ISSUED:          0 USEFUL:          0 USELESS:          0 LATE:          0 TOO_EARLY:          0
cpu0->LLC AVERAGE MISS LATENCY: 93.3 cycles

DRAM Statistics

Channel 0 RQ ROW_BUFFER_HIT:       3681
  ROW_BUFFER_MISS:     411619
  AVG DBUS CONGESTED CYCLE: 8.792
Channel 0 WQ ROW_BUFFER_HIT:      21027
  ROW_BUFFER_MISS:     108388
  FULL:          0
Channel 0 REFRESHES ISSUED:       4437

[ROI Statistics]
[System Configuration]
num_cpus 1
cpu_freq 4000
fetch_width 6
decode_width 6
dispatch_width 6
execute_width 6
lq_width 2
sq_width 2
retire_width 6
scheduler_size 128
branch_mispredict_penalty 15
rob_size 352
lq_size 128
sq_size 72
ifetch_buffer_size 64
decode_buffer_size 32
dispatch_buffer_size 32
register_file_size 288
decode_latency 1
dispatch_latency 1
schedule_latency 1
execute_latency 1
page_size 4096
block_size 64
core_0_itlb_set 16
core_0_itlb_way 4
core_0_itlb_rq_size 16
core_0_itlb_wq_size 16
core_0_itlb_pq_size 0
core_0_itlb_mshr_size 8
core_0_itlb_hit_latency 1
core_0_itlb_fill_latency 1
core_0_itlb_max_tag_check 2
core_0_itlb_max_fill 2
core_0_dtlb_set 16
core_0_dtlb_way 4
core_0_dtlb_rq_size 16
core_0_dtlb_wq_size 16
core_0_dtlb_pq_size 0
core_0_dtlb_mshr_size 8
core_0_dtlb_hit_latency 1
core_0_dtlb_fill_latency 1
core_0_dtlb_max_tag_check 2
core_0_dtlb_max_fill 2
core_0_stlb_set 128
core_0_stlb_way 12
core_0_stlb_rq_size 32
core_0_stlb_wq_size 32
core_0_stlb_pq_size 0
core_0_stlb_mshr_size 16
core_0_stlb_hit_latency 4
core_0_stlb_fill_latency 4
core_0_stlb_max_tag_check 1
core_0_stlb_max_fill 1
core_0_l1i_set 64
core_0_l1i_way 8
core_0_l1i_rq_size 64
core_0_l1i_wq_size 64
core_0_l1i_pq_size 32
core_0_l1i_mshr_size 8
core_0_l1i_hit_latency 2
core_0_l1i_fill_latency 2
core_0_l1i_max_tag_check 2
core_0_l1i_max_fill 2
core_0_l1d_set 64
core_0_l1d_way 12
core_0_l1d_rq_size 64
core_0_l1d_wq_size 64
core_0_l1d_pq_size 8
core_0_l1d_mshr_size 16
core_0_l1d_hit_latency 2
core_0_l1d_fill_latency 3
core_0_l1d_max_tag_check 2
core_0_l1d_max_fill 2
core_0_l2c_set 1024
core_0_l2c_way 8
core_0_l2c_rq_size 32
core_0_l2c_wq_size 32
core_0_l2c_pq_size 16
core_0_l2c_mshr_size 32
core_0_l2c_hit_latency 5
core_0_l2c_fill_latency 5
core_0_l2c_max_tag_check 1
core_0_l2c_max_fill 1
llc_set 2048
llc_way 16
llc_rq_size 32
llc_wq_size 32
llc_pq_size 32
llc_mshr_size 64
llc_hit_latency 10
llc_fill_latency 10
llc_max_tag_check 1
llc_max_fill 1
dram_channels 1
dram_ranks 1
dram_bankgroups 8
dram_banks 4
dram_rows 65536
dram_columns 1024
dram_channel_width 8
dram_rq_size 64
dram_wq_size 64
dram_size 17179869184
core_0_itlb_prefetcher no
core_0_dtlb_prefetcher no
core_0_stlb_prefetcher no
core_0_l1i_prefetcher next_line
core_0_l1d_prefetcher vberti_nocross
core_0_l2c_prefetcher ip_stride
llc_prefetcher no
llc_replacement drrip

Core_0_instructions 100000002
Core_0_cycles 53242301
Core_0_IPC 1.87821
Core_0_branch_prediction_accuracy 99.9846
Core_0_branch_MPKI 0.00019
Core_0_average_ROB_occupancy_at_mispredict 258.158

Core_0_ITLB_total_access 14206240
Core_0_ITLB_total_hit 14206240
Core_0_ITLB_total_miss 0
Core_0_ITLB_total_MPKI 0
Core_0_ITLB_total_miss_rate 0
Core_0_ITLB_demand_access 14206240
Core_0_ITLB_demand_hit 14206240
Core_0_ITLB_demand_miss 0
Core_0_ITLB_demand_MPKI 0
Core_0_ITLB_demand_miss_rate 0
Core_0_ITLB_load_access 14206240
Core_0_ITLB_load_hit 14206240
Core_0_ITLB_load_miss 0
Core_0_ITLB_load_MPKI 0
Core_0_ITLB_load_miss_rate 0
Core_0_ITLB_rfo_access 0
Core_0_ITLB_rfo_hit 0
Core_0_ITLB_rfo_miss 0
Core_0_ITLB_rfo_MPKI 0
Core_0_ITLB_rfo_miss_rate 0
Core_0_ITLB_prefetch_access 0
Core_0_ITLB_prefetch_hit 0
Core_0_ITLB_prefetch_miss 0
Core_0_ITLB_prefetch_MPKI 0
Core_0_ITLB_prefetch_miss_rate 0
Core_0_ITLB_writeback_access 0
Core_0_ITLB_writeback_hit 0
Core_0_ITLB_writeback_miss 0
Core_0_ITLB_writeback_MPKI 0
Core_0_ITLB_writeback_miss_rate 0
Core_0_ITLB_prefetch_requested 0
Core_0_ITLB_prefetch_issued 0
Core_0_ITLB_prefetch_useful 0
Core_0_ITLB_prefetch_useless 0
Core_0_ITLB_prefetch_late 0
Core_0_ITLB_prefetch_fill 0
Core_0_ITLB_prefetch_too_early 0
Core_0_ITLB_prefetch_too_early_among_fill 0
Core_0_ITLB_prefetch_too_early_among_useless 0
Core_0_ITLB_prefetch_pollution_evict 0
Core_0_ITLB_prefetch_pollution_demand 0
Core_0_ITLB_prefetch_pollution_among_prefetch_fill 0
Core_0_ITLB_prefetch_accuracy 0
Core_0_ITLB_prefetch_coverage 0

Core_0_DTLB_total_access 37952708
Core_0_DTLB_total_hit 35015267
Core_0_DTLB_total_miss 2937441
Core_0_DTLB_total_MPKI 29.3744
Core_0_DTLB_total_miss_rate 0.0773974
Core_0_DTLB_demand_access 37952708
Core_0_DTLB_demand_hit 35015267
Core_0_DTLB_demand_miss 2937441
Core_0_DTLB_demand_MPKI 29.3744
Core_0_DTLB_demand_miss_rate 0.0773974
Core_0_DTLB_load_access 37952708
Core_0_DTLB_load_hit 35015267
Core_0_DTLB_load_miss 2937441
Core_0_DTLB_load_MPKI 29.3744
Core_0_DTLB_load_miss_rate 0.0773974
Core_0_DTLB_rfo_access 0
Core_0_DTLB_rfo_hit 0
Core_0_DTLB_rfo_miss 0
Core_0_DTLB_rfo_MPKI 0
Core_0_DTLB_rfo_miss_rate 0
Core_0_DTLB_prefetch_access 0
Core_0_DTLB_prefetch_hit 0
Core_0_DTLB_prefetch_miss 0
Core_0_DTLB_prefetch_MPKI 0
Core_0_DTLB_prefetch_miss_rate 0
Core_0_DTLB_writeback_access 0
Core_0_DTLB_writeback_hit 0
Core_0_DTLB_writeback_miss 0
Core_0_DTLB_writeback_MPKI 0
Core_0_DTLB_writeback_miss_rate 0
Core_0_DTLB_prefetch_requested 0
Core_0_DTLB_prefetch_issued 0
Core_0_DTLB_prefetch_useful 0
Core_0_DTLB_prefetch_useless 0
Core_0_DTLB_prefetch_late 0
Core_0_DTLB_prefetch_fill 0
Core_0_DTLB_prefetch_too_early 0
Core_0_DTLB_prefetch_too_early_among_fill 0
Core_0_DTLB_prefetch_too_early_among_useless 0
Core_0_DTLB_prefetch_pollution_evict 0
Core_0_DTLB_prefetch_pollution_demand 0
Core_0_DTLB_prefetch_pollution_among_prefetch_fill 0
Core_0_DTLB_prefetch_accuracy 0
Core_0_DTLB_prefetch_coverage 0

Core_0_STLB_total_access 2756258
Core_0_STLB_total_hit 1852725
Core_0_STLB_total_miss 903533
Core_0_STLB_total_MPKI 9.03533
Core_0_STLB_total_miss_rate 0.327811
Core_0_STLB_demand_access 2756258
Core_0_STLB_demand_hit 1852725
Core_0_STLB_demand_miss 903533
Core_0_STLB_demand_MPKI 9.03533
Core_0_STLB_demand_miss_rate 0.327811
Core_0_STLB_load_access 2756258
Core_0_STLB_load_hit 1852725
Core_0_STLB_load_miss 903533
Core_0_STLB_load_MPKI 9.03533
Core_0_STLB_load_miss_rate 0.327811
Core_0_STLB_rfo_access 0
Core_0_STLB_rfo_hit 0
Core_0_STLB_rfo_miss 0
Core_0_STLB_rfo_MPKI 0
Core_0_STLB_rfo_miss_rate 0
Core_0_STLB_prefetch_access 0
Core_0_STLB_prefetch_hit 0
Core_0_STLB_prefetch_miss 0
Core_0_STLB_prefetch_MPKI 0
Core_0_STLB_prefetch_miss_rate 0
Core_0_STLB_writeback_access 0
Core_0_STLB_writeback_hit 0
Core_0_STLB_writeback_miss 0
Core_0_STLB_writeback_MPKI 0
Core_0_STLB_writeback_miss_rate 0
Core_0_STLB_prefetch_requested 0
Core_0_STLB_prefetch_issued 0
Core_0_STLB_prefetch_useful 0
Core_0_STLB_prefetch_useless 0
Core_0_STLB_prefetch_late 0
Core_0_STLB_prefetch_fill 0
Core_0_STLB_prefetch_too_early 0
Core_0_STLB_prefetch_too_early_among_fill 0
Core_0_STLB_prefetch_too_early_among_useless 0
Core_0_STLB_prefetch_pollution_evict 0
Core_0_STLB_prefetch_pollution_demand 0
Core_0_STLB_prefetch_pollution_among_prefetch_fill 0
Core_0_STLB_prefetch_accuracy 0
Core_0_STLB_prefetch_coverage 0

Core_0_L1I_total_access 19197851
Core_0_L1I_total_hit 19197851
Core_0_L1I_total_miss 0
Core_0_L1I_total_MPKI 0
Core_0_L1I_total_miss_rate 0
Core_0_L1I_demand_access 19197851
Core_0_L1I_demand_hit 19197851
Core_0_L1I_demand_miss 0
Core_0_L1I_demand_MPKI 0
Core_0_L1I_demand_miss_rate 0
Core_0_L1I_load_access 19197851
Core_0_L1I_load_hit 19197851
Core_0_L1I_load_miss 0
Core_0_L1I_load_MPKI 0
Core_0_L1I_load_miss_rate 0
Core_0_L1I_rfo_access 0
Core_0_L1I_rfo_hit 0
Core_0_L1I_rfo_miss 0
Core_0_L1I_rfo_MPKI 0
Core_0_L1I_rfo_miss_rate 0
Core_0_L1I_prefetch_access 0
Core_0_L1I_prefetch_hit 0
Core_0_L1I_prefetch_miss 0
Core_0_L1I_prefetch_MPKI 0
Core_0_L1I_prefetch_miss_rate 0
Core_0_L1I_writeback_access 0
Core_0_L1I_writeback_hit 0
Core_0_L1I_writeback_miss 0
Core_0_L1I_writeback_MPKI 0
Core_0_L1I_writeback_miss_rate 0
Core_0_L1I_prefetch_requested 0
Core_0_L1I_prefetch_issued 0
Core_0_L1I_prefetch_useful 0
Core_0_L1I_prefetch_useless 0
Core_0_L1I_prefetch_late 0
Core_0_L1I_prefetch_fill 0
Core_0_L1I_prefetch_too_early 0
Core_0_L1I_prefetch_too_early_among_fill 0
Core_0_L1I_prefetch_too_early_among_useless 0
Core_0_L1I_prefetch_pollution_evict 0
Core_0_L1I_prefetch_pollution_demand 0
Core_0_L1I_prefetch_pollution_among_prefetch_fill 0
Core_0_L1I_prefetch_accuracy 0
Core_0_L1I_prefetch_coverage 0

Core_0_L1D_total_access 42260179
Core_0_L1D_total_hit 41292776
Core_0_L1D_total_miss 967403
Core_0_L1D_total_MPKI 9.67403
Core_0_L1D_total_miss_rate 0.0228916
Core_0_L1D_demand_access 24554686
Core_0_L1D_demand_hit 23995332
Core_0_L1D_demand_miss 559354
Core_0_L1D_demand_MPKI 5.59354
Core_0_L1D_demand_miss_rate 0.0227799
Core_0_L1D_load_access 24554686
Core_0_L1D_load_hit 23995332
Core_0_L1D_load_miss 559354
Core_0_L1D_load_MPKI 5.59354
Core_0_L1D_load_miss_rate 0.0227799
Core_0_L1D_rfo_access 0
Core_0_L1D_rfo_hit 0
Core_0_L1D_rfo_miss 0
Core_0_L1D_rfo_MPKI 0
Core_0_L1D_rfo_miss_rate 0
Core_0_L1D_prefetch_access 1736191
Core_0_L1D_prefetch_hit 1424249
Core_0_L1D_prefetch_miss 311942
Core_0_L1D_prefetch_MPKI 3.11942
Core_0_L1D_prefetch_miss_rate 0.17967
Core_0_L1D_writeback_access 15969302
Core_0_L1D_writeback_hit 15873195
Core_0_L1D_writeback_miss 96107
Core_0_L1D_writeback_MPKI 0.96107
Core_0_L1D_writeback_miss_rate 0.00601823
Core_0_L1D_prefetch_requested 5294122
Core_0_L1D_prefetch_issued 1736191
Core_0_L1D_prefetch_useful 180997
Core_0_L1D_prefetch_useless 11255
Core_0_L1D_prefetch_late 2436
Core_0_L1D_prefetch_fill 189816
Core_0_L1D_prefetch_too_early 580
Core_0_L1D_prefetch_too_early_among_fill 0.00305559
Core_0_L1D_prefetch_too_early_among_useless 0.0515327
Core_0_L1D_prefetch_pollution_evict 3683
Core_0_L1D_prefetch_pollution_demand 3680
Core_0_L1D_prefetch_pollution_among_prefetch_fill 0.019403
Core_0_L1D_prefetch_accuracy 0.104249
Core_0_L1D_prefetch_coverage 0.244475

Core_0_L2C_total_access 2339129
Core_0_L2C_total_hit 1800311
Core_0_L2C_total_miss 538818
Core_0_L2C_total_MPKI 5.38818
Core_0_L2C_total_miss_rate 0.23035
Core_0_L2C_demand_access 619918
Core_0_L2C_demand_hit 547200
Core_0_L2C_demand_miss 72718
Core_0_L2C_demand_MPKI 0.72718
Core_0_L2C_demand_miss_rate 0.117303
Core_0_L2C_load_access 555604
Core_0_L2C_load_hit 534998
Core_0_L2C_load_miss 20606
Core_0_L2C_load_MPKI 0.20606
Core_0_L2C_load_miss_rate 0.0370876
Core_0_L2C_rfo_access 64314
Core_0_L2C_rfo_hit 12202
Core_0_L2C_rfo_miss 52112
Core_0_L2C_rfo_MPKI 0.52112
Core_0_L2C_rfo_miss_rate 0.810275
Core_0_L2C_prefetch_access 1556463
Core_0_L2C_prefetch_hit 1090555
Core_0_L2C_prefetch_miss 465908
Core_0_L2C_prefetch_MPKI 4.65908
Core_0_L2C_prefetch_miss_rate 0.299338
Core_0_L2C_writeback_access 162748
Core_0_L2C_writeback_hit 162556
Core_0_L2C_writeback_miss 192
Core_0_L2C_writeback_MPKI 0.00192
Core_0_L2C_writeback_miss_rate 0.00117974
Core_0_L2C_prefetch_requested 1244633
Core_0_L2C_prefetch_issued 1244619
Core_0_L2C_prefetch_useful 267098
Core_0_L2C_prefetch_useless 529
Core_0_L2C_prefetch_late 5
Core_0_L2C_prefetch_fill 426848
Core_0_L2C_prefetch_too_early 78
Core_0_L2C_prefetch_too_early_among_fill 0.000182735
Core_0_L2C_prefetch_too_early_among_useless 0.147448
Core_0_L2C_prefetch_pollution_evict 76
Core_0_L2C_prefetch_pollution_demand 76
Core_0_L2C_prefetch_pollution_among_prefetch_fill 0.000178049
Core_0_L2C_prefetch_accuracy 0.214602
Core_0_L2C_prefetch_coverage 0.786008

Core_0_LLC_total_access 651498
Core_0_LLC_total_hit 132900
Core_0_LLC_total_miss 518598
Core_0_LLC_total_MPKI 5.18598
Core_0_LLC_total_miss_rate 0.796009
Core_0_LLC_demand_access 72447
Core_0_LLC_demand_hit 5323
Core_0_LLC_demand_miss 67124
Core_0_LLC_demand_MPKI 0.67124
Core_0_LLC_demand_miss_rate 0.926526
Core_0_LLC_load_access 20484
Core_0_LLC_load_hit 4498
Core_0_LLC_load_miss 15986
Core_0_LLC_load_MPKI 0.15986
Core_0_LLC_load_miss_rate 0.780414
Core_0_LLC_rfo_access 51963
Core_0_LLC_rfo_hit 825
Core_0_LLC_rfo_miss 51138
Core_0_LLC_rfo_MPKI 0.51138
Core_0_LLC_rfo_miss_rate 0.984123
Core_0_LLC_prefetch_access 437470
Core_0_LLC_prefetch_hit 88854
Core_0_LLC_prefetch_miss 348616
Core_0_LLC_prefetch_MPKI 3.48616
Core_0_LLC_prefetch_miss_rate 0.796891
Core_0_LLC_writeback_access 141581
Core_0_LLC_writeback_hit 38723
Core_0_LLC_writeback_miss 102858
Core_0_LLC_writeback_MPKI 1.02858
Core_0_LLC_writeback_miss_rate 0.726496
Core_0_LLC_prefetch_requested 0
Core_0_LLC_prefetch_issued 0
Core_0_LLC_prefetch_useful 0
Core_0_LLC_prefetch_useless 0
Core_0_LLC_prefetch_late 0
Core_0_LLC_prefetch_fill 347152
Core_0_LLC_prefetch_too_early 0
Core_0_LLC_prefetch_too_early_among_fill 0
Core_0_LLC_prefetch_too_early_among_useless 0
Core_0_LLC_prefetch_pollution_evict 1196
Core_0_LLC_prefetch_pollution_demand 1196
Core_0_LLC_prefetch_pollution_among_prefetch_fill 0.00344518
Core_0_LLC_prefetch_accuracy 0
Core_0_LLC_prefetch_coverage 0

[DRAM Statistics]
Channel_0_RQ_row_buffer_hit 3681
Channel_0_RQ_row_buffer_miss 411619
Channel_0_WQ_row_buffer_hit 21027
Channel_0_WQ_row_buffer_miss 108388
Channel_0_WQ_full 0
Channel_0_dbus_congested 1146105
DRAM_total_RQ_row_buffer_hit 3681
DRAM_total_RQ_row_buffer_miss 411619
DRAM_total_WQ_row_buffer_hit 21027
DRAM_total_WQ_row_buffer_miss 108388
DRAM_total_WQ_full 0
DRAM_total_dbus_congested 1146105
DRAM_avg_congested_cycle 8.79172

====== DRAM_RQ_TRAFFIC ========
DRAM_RQ_READ_TRAFFIC_BREAKDOWN:
data_demand_read.count = 67114
data_demand_read.share = 16.16%

inst_demand_read.count = 0
inst_demand_read.share = 0.00%

cache_inst_prefetch.count = 0
cache_inst_prefetch.share = 0.00%

cache_data_prefetch.count = 347162
cache_data_prefetch.share = 83.59%

stlb_data_demand.count = 1024
stlb_data_demand.share = 0.25%

stlb_inst_demand.count = 0
stlb_inst_demand.share = 0.00%

stlb_l1i_pref.count = 0
stlb_l1i_pref.share = 0.00%

stlb_l1d_pref.count = 0
stlb_l1d_pref.share = 0.00%

DRAM_RQ_READ_TRAFFIC_SUMMARY:
cache_demand.count = 67114
cache_demand.share = 16.16%

cache_prefetch.count = 347162
cache_prefetch.share = 83.59%

stlb_demand.count = 1024
stlb_demand.share = 0.25%

stlb_prefetch.count = 0
stlb_prefetch.share = 0.00%

DRAM_RQ_READ_TRAFFIC_DEBUG:
total_classified_read.count = 415300
unclassified_read.count = 0
total_read_with_other.count = 415300

classified_plus_unclassified_check.count = 415300
dram_rq_read_total_observed.count = 415300
dram_rq_read_total_observed.per_1K_instructions = 4.153

STLB_MISS_PTW_DRAM_TOUCH_BREAKDOWN:
stlb_miss_total.count = 903533

stlb_miss_touch_dram.count = 931
stlb_miss_touch_dram.share = 0.10%

stlb_miss_no_dram_touch.count = 902602
stlb_miss_no_dram_touch.share = 99.90%

STLB_MISS_PTW_DRAM_TOUCH_DEBUG:
stlb_miss_touch_plus_no_touch.count = 903533
stlb_miss_total_check.count = 903533

======STLB miss causes ========
Core_0_STLB_miss_cause_breakdown
Core_0_STLB_cause_Demand_Data_miss 901691
Core_0_STLB_cause_Demand_Data_miss_rate 0.327143
Core_0_STLB_cause_Demand_Instruction_miss 0
Core_0_STLB_cause_Demand_Instruction_miss_rate 0
Core_0_STLB_cause_L1D_Prefetch_miss 1842
Core_0_STLB_cause_L1D_Prefetch_miss_rate 0.000668297
Core_0_STLB_cause_L1D_Prefetch_Same_Page_miss 1842
Core_0_STLB_cause_L1D_Prefetch_Same_Page_miss_rate 0.000668297
Core_0_STLB_cause_L1D_Prefetch_Cross_Page_miss 0
Core_0_STLB_cause_L1D_Prefetch_Cross_Page_miss_rate 0
Core_0_STLB_cause_L1I_Prefetch_miss 0
Core_0_STLB_cause_L1I_Prefetch_miss_rate 0
Core_0_STLB_cause_Other_miss 0
Core_0_STLB_cause_Other_miss_rate 0
Core_0_STLB_Demand_miss 901691
Core_0_STLB_Demand_miss_rate 0.327143
Core_0_STLB_L1D_Prefetch_miss 1842
Core_0_STLB_L1D_Prefetch_miss_rate 0.000668297
Core_0_STLB_Other_miss 0
Core_0_STLB_Other_miss_rate 0

========== vBerti-TLB Cross-page Flow Stats ==========

Core_0_vBerti_Requested 5294122
Core_0_vBerti_Cross_page_prefetch_in_Requested 0
Core_0_vBerti_Same_page_prefetch_in_Requested 5294122
Core_0_vBerti_Cross_page_prefetch_of_Requested 0
Core_0_vBerti_Issued 1736191
Core_0_vBerti_InPQ_Same_page_prefetch 1736191
Core_0_vBerti_InPQ_Cross_page_prefetch 0
Core_0_vBerti_PQ_Drop_Rate 0.672053
Core_0_vBerti_InPQ_Cross_page_prefetch_of_Requested 0
Core_0_vBerti_Cross_page_PQ_Drop_rate 0
Core_0_vBerti_Cross_page_prefetch_of_Issued 0
Core_0_CP_PF_PQFULL_drop 0
Core_0_CP_PF_PQFULL_TLB_rescue_enqueued 0
Core_0_CP_PF_PQFULL_TLB_rescue_issued 0
Core_0_CP_PF_PQFULL_TLB_rescue_translated 0

========= DTLB_vBerti Prefetch Stats =========
Core_0_DTLB_demand_access 36515562
Core_0_DTLB_demand_hit 33928882
Core_0_DTLB_demand_miss 2586680
Core_0_DTLB_demand_mshr_merge 54897
Core_0_DTLB_demand_fill 2537443
Core_0_DTLB_demand_miss_rate 0.0708377
Core_0_DTLB_demand_mpki 25.8668
Core_0_DTLB_vberti_prefetch_access 1437146
Core_0_DTLB_vberti_prefetch_hit 1086385
Core_0_DTLB_vberti_prefetch_miss 350761
Core_0_DTLB_vberti_prefetch_mshr_merge 126286
Core_0_DTLB_vberti_prefetch_fill 218815
Core_0_DTLB_vberti_prefetch_miss_rate 0.244068
Core_0_DTLB_vberti_prefetch_mpki 3.50761

=== DTLB_vBerti Same/Cross-page Prefetch Stats ===
Core_0_DTLB_vberti_same_page_prefetch 1437146
Core_0_DTLB_vberti_same_page_prefetch_hit 1086385
Core_0_DTLB_vberti_same_page_prefetch_miss 350761
Core_0_DTLB_vberti_same_page_prefetch_mshr_merge 126286
Core_0_DTLB_vberti_same_page_prefetch_fill 218815
Core_0_DTLB_vberti_same_page_prefetch_miss_rate 0.244068
Core_0_DTLB_vberti_same_page_prefetch_mpki 3.50761
Core_0_DTLB_vberti_cross_page_prefetch 0
Core_0_DTLB_vberti_cross_page_prefetch_hit 0
Core_0_DTLB_vberti_cross_page_prefetch_miss 0
Core_0_DTLB_vberti_cross_page_prefetch_mshr_merge 0
Core_0_DTLB_vberti_cross_page_prefetch_fill 0
Core_0_DTLB_vberti_cross_page_prefetch_miss_rate 0
Core_0_DTLB_vberti_cross_page_prefetch_mpki 0
Core_0_DTLB_same_page_prefetch_miss_rate 0.244068
Core_0_DTLB_same_page_prefetch_mpki 3.50761
Core_0_DTLB_cross_page_prefetch_miss_rate 0
Core_0_DTLB_cross_page_prefetch_mpki 0
Core_0_DTLB_cross_page_prefetch_issued 0
Core_0_DTLB_cross_page_prefetch_lookups 0
Core_0_DTLB_cross_page_prefetch_useful 0
Core_0_DTLB_cross_page_prefetch_useless 0
Core_0_DTLB_cross_page_prefetch_late 0
Core_0_DTLB_cross_page_prefetch_too_early 0
Core_0_DTLB_cross_page_prefetch_too_early_among_fill 0
Core_0_DTLB_cross_page_prefetch_too_early_among_useless 0
Core_0_DTLB_cross_page_prefetch_pollution_evict 0
Core_0_DTLB_cross_page_prefetch_pollution_demand 0
Core_0_DTLB_cross_page_prefetch_pollution_among_prefetch_fill 0
Core_0_DTLB_cross_page_prefetch_accuracy 0
Core_0_DTLB_cross_page_prefetch_coverage 0

========= STLB_vBerti Prefetch Stats =========
Core_0_STLB_demand_access 2531783
Core_0_STLB_demand_hit 1630092
Core_0_STLB_demand_miss 901691
Core_0_STLB_demand_mshr_merge 0
Core_0_STLB_demand_fill 901691
Core_0_STLB_demand_miss_rate 0.356149
Core_0_STLB_demand_mpki 9.01691
Core_0_STLB_vberti_prefetch_access 224475
Core_0_STLB_vberti_prefetch_hit 222633
Core_0_STLB_vberti_prefetch_miss 1842
Core_0_STLB_vberti_prefetch_mshr_merge 0
Core_0_STLB_vberti_prefetch_fill 1842
Core_0_STLB_vberti_prefetch_miss_rate 0.00820581
Core_0_STLB_vberti_prefetch_mpki 0.01842

=== STLB_vBerti Same/Cross-page Prefetch Stats ===
Core_0_STLB_vberti_same_page_prefetch 224475
Core_0_STLB_vberti_same_page_prefetch_hit 222633
Core_0_STLB_vberti_same_page_prefetch_miss 1842
Core_0_STLB_vberti_same_page_prefetch_mshr_merge 0
Core_0_STLB_vberti_same_page_prefetch_fill 1842
Core_0_STLB_vberti_same_page_prefetch_miss_rate 0.00820581
Core_0_STLB_vberti_same_page_prefetch_mpki 0.01842
Core_0_STLB_vberti_cross_page_prefetch 0
Core_0_STLB_vberti_cross_page_prefetch_hit 0
Core_0_STLB_vberti_cross_page_prefetch_miss 0
Core_0_STLB_vberti_cross_page_prefetch_mshr_merge 0
Core_0_STLB_vberti_cross_page_prefetch_fill 0
Core_0_STLB_vberti_cross_page_prefetch_miss_rate 0
Core_0_STLB_vberti_cross_page_prefetch_mpki 0
Core_0_STLB_same_page_prefetch_miss_rate 0.00820581
Core_0_STLB_same_page_prefetch_mpki 0.01842
Core_0_STLB_cross_page_prefetch_miss_rate 0
Core_0_STLB_cross_page_prefetch_mpki 0
Core_0_STLB_cross_page_prefetch_issued 0
Core_0_STLB_cross_page_prefetch_lookups 0
Core_0_STLB_cross_page_prefetch_useful 0
Core_0_STLB_cross_page_prefetch_useless 0
Core_0_STLB_cross_page_prefetch_late 0
Core_0_STLB_cross_page_prefetch_too_early 0
Core_0_STLB_cross_page_prefetch_too_early_among_fill 0
Core_0_STLB_cross_page_prefetch_too_early_among_useless 0
Core_0_STLB_cross_page_prefetch_pollution_evict 0
Core_0_STLB_cross_page_prefetch_pollution_demand 0
Core_0_STLB_cross_page_prefetch_pollution_among_prefetch_fill 0
Core_0_STLB_cross_page_prefetch_accuracy 0
Core_0_STLB_cross_page_prefetch_coverage 0

========= STLB Cross-page Prefetch Buffer Stats =========
Core_0_STLB_raw_demand_miss 901691
Core_0_CP_PB_insert 0
Core_0_CP_PB_demand_hit 0
Core_0_STLB_PB_demand_miss 901691
Core_0_CP_PB_coverage 0
Core_0_STLB_raw_demand_mpki 9.01691
Core_0_STLB_PB_demand_mpki 9.01691
Core_0_CP_PB_demand_hit_mpki 0

Core_0_TLB_demand_miss_rate 0.0246933
Core_0_TLB_demand_mpki 9.01691
Core_0_TLB_same_page_prefetch_miss_rate 0.00128171
Core_0_TLB_same_page_prefetch_mpki 0.01842
Core_0_TLB_cross_page_prefetch_miss_rate 0
Core_0_TLB_cross_page_prefetch_mpki 0
Core_0_TLB_cross_page_prefetch_issued 0
Core_0_TLB_cross_page_prefetch_lookups 0
Core_0_TLB_cross_page_prefetch_useful 0
Core_0_TLB_cross_page_prefetch_useless 0
Core_0_TLB_cross_page_prefetch_late 0
Core_0_TLB_cross_page_prefetch_too_early 0
Core_0_TLB_cross_page_prefetch_too_early_among_fill 0
Core_0_TLB_cross_page_prefetch_too_early_among_useless 0
Core_0_TLB_cross_page_prefetch_accuracy 0
Core_0_TLB_cross_page_prefetch_coverage 0
====== vBerti internal metric ========
BERTI TO_L1: 4309107 TO_L2: 985015 TO_L2_BC_MSHR: 477125
BERTI AVG_LAT: 81.64 NUM_TRACK_LATENCY: 811064 NUM_CANT_TRACK_LATENCY: 0
BERTI CROSS_PAGE 282796 NO_CROSS_PAGE: 5294122
BERTI FOUND_BERTI: 5305074 NO_FOUND_BERTI: 35224644
BERTI AVERAGE_ISSUED: 2.26824
