[VMEM] WARNING: physical memory size is smaller than virtual memory size.

*** ChampSim Multicore Out-of-Order Simulator ***
Warmup Instructions: 50000000
Simulation Instructions: 100000000
Number of CPUs: 1
Page size: 4096
Core 0: /data2/zcq/champsim_traces_gap/bfs.urand-118B.champsimtrace.xz
VBerti Prefetcher
No Crossing Page
BERTI HASH ENTANGLING
BERTI IP MASK ffff
Off-chip DRAM Size: 16 GiB Channels: 1 Width: 64-bit Data Rate: 3205 MT/s
Warmup halting CPU 0 at instruction 50000004 cycle 42699763 for remainder of phase
Warmup finished CPU 0 instructions: 50000004 cycles: 42699763 cumulative IPC: 1.171 (Simulation time: 00 hr 07 min 18 sec)
Warmup complete CPU 0 instructions: 50000004 cycles: 42699763 cumulative IPC: 1.171 (Simulation time: 00 hr 07 min 18 sec)
Simulation finished CPU 0 instructions: 100000000 cycles: 721607629 cumulative IPC: 0.1386 (Simulation time: 01 hr 09 min 28 sec)
Simulation complete CPU 0 instructions: 100000000 cycles: 721607629 cumulative IPC: 0.1386 (Simulation time: 01 hr 09 min 28 sec)

ChampSim completed all CPUs

=== Simulation ===
CPU 0 runs /data2/zcq/champsim_traces_gap/bfs.urand-118B.champsimtrace.xz

Region of Interest Statistics

CPU 0 cumulative IPC: 0.1386 instructions: 100000000 cycles: 721607629
CPU 0 Branch Prediction Accuracy: 94.45% MPKI: 8.704 Average ROB Occupancy at Mispredict: 70.5
Branch type MPKI
BRANCH_DIRECT_JUMP: 0
BRANCH_INDIRECT: 0
BRANCH_CONDITIONAL: 8.704
BRANCH_DIRECT_CALL: 0
BRANCH_INDIRECT_CALL: 0
BRANCH_RETURN: 0

cpu0->cpu0_STLB TOTAL        ACCESS:    4407130 HIT:     107991 MISS:    4299139 MSHR_MERGE:          0
cpu0->cpu0_STLB LOAD         ACCESS:    4407130 HIT:     107991 MISS:    4299139 MSHR_MERGE:          0
cpu0->cpu0_STLB RFO          ACCESS:          0 HIT:          0 MISS:          0 MSHR_MERGE:          0
cpu0->cpu0_STLB PREFETCH     ACCESS:          0 HIT:          0 MISS:          0 MSHR_MERGE:          0
cpu0->cpu0_STLB WRITE        ACCESS:          0 HIT:          0 MISS:          0 MSHR_MERGE:          0
cpu0->cpu0_STLB TRANSLATION  ACCESS:          0 HIT:          0 MISS:          0 MSHR_MERGE:          0
cpu0->cpu0_STLB PREFETCH REQUESTED:          0 ISSUED:          0 USEFUL:          0 USELESS:          0 LATE:          0 TOO_EARLY:          0
cpu0->cpu0_STLB AVERAGE MISS LATENCY: 120.7 cycles
cpu0->cpu0_L2C TOTAL        ACCESS:   18216743 HIT:    8330882 MISS:    9885861 MSHR_MERGE:     714777
cpu0->cpu0_L2C LOAD         ACCESS:    4505787 HIT:     124449 MISS:    4381338 MSHR_MERGE:         52
cpu0->cpu0_L2C RFO          ACCESS:       7379 HIT:        713 MISS:       6666 MSHR_MERGE:          0
cpu0->cpu0_L2C PREFETCH     ACCESS:    5332694 HIT:    3547713 MISS:    1784981 MSHR_MERGE:     714725
cpu0->cpu0_L2C WRITE        ACCESS:    3886573 HIT:    3886362 MISS:        211 MSHR_MERGE:          0
cpu0->cpu0_L2C TRANSLATION  ACCESS:    4484310 HIT:     771645 MISS:    3712665 MSHR_MERGE:          0
cpu0->cpu0_L2C PREFETCH REQUESTED:     796405 ISSUED:     772461 USEFUL:     346242 USELESS:     113626 LATE:          0 TOO_EARLY:          6
cpu0->cpu0_L2C AVERAGE MISS LATENCY: 175.6 cycles
cpu0->cpu0_L1I TOTAL        ACCESS:   14280103 HIT:   14280103 MISS:          0 MSHR_MERGE:          0
cpu0->cpu0_L1I LOAD         ACCESS:   14280103 HIT:   14280103 MISS:          0 MSHR_MERGE:          0
cpu0->cpu0_L1I RFO          ACCESS:          0 HIT:          0 MISS:          0 MSHR_MERGE:          0
cpu0->cpu0_L1I PREFETCH     ACCESS:          0 HIT:          0 MISS:          0 MSHR_MERGE:          0
cpu0->cpu0_L1I WRITE        ACCESS:          0 HIT:          0 MISS:          0 MSHR_MERGE:          0
cpu0->cpu0_L1I TRANSLATION  ACCESS:          0 HIT:          0 MISS:          0 MSHR_MERGE:          0
cpu0->cpu0_L1I PREFETCH REQUESTED:          0 ISSUED:          0 USEFUL:          0 USELESS:          0 LATE:          0 TOO_EARLY:          0
cpu0->cpu0_L1I AVERAGE MISS LATENCY: - cycles
cpu0->cpu0_L1D TOTAL        ACCESS:  157679805 HIT:  143082364 MISS:   14597441 MSHR_MERGE:     809588
cpu0->cpu0_L1D LOAD         ACCESS:   34076057 HIT:   29045326 MISS:    5030731 MSHR_MERGE:     524944
cpu0->cpu0_L1D RFO          ACCESS:          0 HIT:          0 MISS:          0 MSHR_MERGE:          0
cpu0->cpu0_L1D PREFETCH     ACCESS:   90862616 HIT:   85973414 MISS:    4889202 MSHR_MERGE:      98824
cpu0->cpu0_L1D WRITE        ACCESS:   20726686 HIT:   20539110 MISS:     187576 MSHR_MERGE:     180198
cpu0->cpu0_L1D TRANSLATION  ACCESS:   12014446 HIT:    7524514 MISS:    4489932 MSHR_MERGE:       5622
cpu0->cpu0_L1D PREFETCH REQUESTED:  209600084 ISSUED:   90862614 USEFUL:     744062 USELESS:      75091 LATE:        670 TOO_EARLY:         24
cpu0->cpu0_L1D AVERAGE MISS LATENCY: 167 cycles
cpu0->cpu0_ITLB TOTAL        ACCESS:   14206769 HIT:   14206769 MISS:          0 MSHR_MERGE:          0
cpu0->cpu0_ITLB LOAD         ACCESS:   14206769 HIT:   14206769 MISS:          0 MSHR_MERGE:          0
cpu0->cpu0_ITLB RFO          ACCESS:          0 HIT:          0 MISS:          0 MSHR_MERGE:          0
cpu0->cpu0_ITLB PREFETCH     ACCESS:          0 HIT:          0 MISS:          0 MSHR_MERGE:          0
cpu0->cpu0_ITLB WRITE        ACCESS:          0 HIT:          0 MISS:          0 MSHR_MERGE:          0
cpu0->cpu0_ITLB TRANSLATION  ACCESS:          0 HIT:          0 MISS:          0 MSHR_MERGE:          0
cpu0->cpu0_ITLB PREFETCH REQUESTED:          0 ISSUED:          0 USEFUL:          0 USELESS:          0 LATE:          0 TOO_EARLY:          0
cpu0->cpu0_ITLB AVERAGE MISS LATENCY: - cycles
cpu0->cpu0_DTLB TOTAL        ACCESS:  103297630 HIT:   98366089 MISS:    4931541 MSHR_MERGE:     524411
cpu0->cpu0_DTLB LOAD         ACCESS:  103297630 HIT:   98366089 MISS:    4931541 MSHR_MERGE:     524411
cpu0->cpu0_DTLB RFO          ACCESS:          0 HIT:          0 MISS:          0 MSHR_MERGE:          0
cpu0->cpu0_DTLB PREFETCH     ACCESS:          0 HIT:          0 MISS:          0 MSHR_MERGE:          0
cpu0->cpu0_DTLB WRITE        ACCESS:          0 HIT:          0 MISS:          0 MSHR_MERGE:          0
cpu0->cpu0_DTLB TRANSLATION  ACCESS:          0 HIT:          0 MISS:          0 MSHR_MERGE:          0
cpu0->cpu0_DTLB PREFETCH REQUESTED:          0 ISSUED:          0 USEFUL:          0 USELESS:          0 LATE:          0 TOO_EARLY:          0
cpu0->cpu0_DTLB AVERAGE MISS LATENCY: 123.7 cycles
cpu0->LLC TOTAL        ACCESS:   13056717 HIT:    6008889 MISS:    7047828 MSHR_MERGE:         48
cpu0->LLC LOAD         ACCESS:    4381286 HIT:       9368 MISS:    4371918 MSHR_MERGE:          0
cpu0->LLC RFO          ACCESS:       6666 HIT:       3036 MISS:       3630 MSHR_MERGE:          0
cpu0->LLC PREFETCH     ACCESS:    1070256 HIT:     305762 MISS:     764494 MSHR_MERGE:         48
cpu0->LLC WRITE        ACCESS:    3885844 HIT:    3437054 MISS:     448790 MSHR_MERGE:          0
cpu0->LLC TRANSLATION  ACCESS:    3712665 HIT:    2253669 MISS:    1458996 MSHR_MERGE:          0
cpu0->LLC PREFETCH REQUESTED:          0 ISSUED:          0 USEFUL:          0 USELESS:          0 LATE:          0 TOO_EARLY:          0
cpu0->LLC AVERAGE MISS LATENCY: 206.7 cycles

DRAM Statistics

Channel 0 RQ ROW_BUFFER_HIT:       7567
  ROW_BUFFER_MISS:    6591358
  AVG DBUS CONGESTED CYCLE: 7.71
Channel 0 WQ ROW_BUFFER_HIT:    1014696
  ROW_BUFFER_MISS:    2700781
  FULL:          0
Channel 0 REFRESHES ISSUED:      60134

[ROI Statistics]
[System Configuration]
num_cpus 1
cpu_freq 4000
fetch_width 6
decode_width 6
dispatch_width 6
execute_width 6
lq_width 2
sq_width 2
retire_width 6
scheduler_size 128
branch_mispredict_penalty 15
rob_size 352
lq_size 128
sq_size 72
ifetch_buffer_size 64
decode_buffer_size 32
dispatch_buffer_size 32
register_file_size 288
decode_latency 1
dispatch_latency 1
schedule_latency 1
execute_latency 1
page_size 4096
block_size 64
core_0_itlb_set 16
core_0_itlb_way 4
core_0_itlb_rq_size 16
core_0_itlb_wq_size 16
core_0_itlb_pq_size 0
core_0_itlb_mshr_size 8
core_0_itlb_hit_latency 1
core_0_itlb_fill_latency 1
core_0_itlb_max_tag_check 2
core_0_itlb_max_fill 2
core_0_dtlb_set 16
core_0_dtlb_way 4
core_0_dtlb_rq_size 16
core_0_dtlb_wq_size 16
core_0_dtlb_pq_size 0
core_0_dtlb_mshr_size 8
core_0_dtlb_hit_latency 1
core_0_dtlb_fill_latency 1
core_0_dtlb_max_tag_check 2
core_0_dtlb_max_fill 2
core_0_stlb_set 128
core_0_stlb_way 12
core_0_stlb_rq_size 32
core_0_stlb_wq_size 32
core_0_stlb_pq_size 0
core_0_stlb_mshr_size 16
core_0_stlb_hit_latency 4
core_0_stlb_fill_latency 4
core_0_stlb_max_tag_check 1
core_0_stlb_max_fill 1
core_0_l1i_set 64
core_0_l1i_way 8
core_0_l1i_rq_size 64
core_0_l1i_wq_size 64
core_0_l1i_pq_size 32
core_0_l1i_mshr_size 8
core_0_l1i_hit_latency 2
core_0_l1i_fill_latency 2
core_0_l1i_max_tag_check 2
core_0_l1i_max_fill 2
core_0_l1d_set 64
core_0_l1d_way 12
core_0_l1d_rq_size 64
core_0_l1d_wq_size 64
core_0_l1d_pq_size 8
core_0_l1d_mshr_size 16
core_0_l1d_hit_latency 2
core_0_l1d_fill_latency 3
core_0_l1d_max_tag_check 2
core_0_l1d_max_fill 2
core_0_l2c_set 1024
core_0_l2c_way 8
core_0_l2c_rq_size 32
core_0_l2c_wq_size 32
core_0_l2c_pq_size 16
core_0_l2c_mshr_size 32
core_0_l2c_hit_latency 5
core_0_l2c_fill_latency 5
core_0_l2c_max_tag_check 1
core_0_l2c_max_fill 1
llc_set 2048
llc_way 16
llc_rq_size 32
llc_wq_size 32
llc_pq_size 32
llc_mshr_size 64
llc_hit_latency 10
llc_fill_latency 10
llc_max_tag_check 1
llc_max_fill 1
dram_channels 1
dram_ranks 1
dram_bankgroups 8
dram_banks 4
dram_rows 65536
dram_columns 1024
dram_channel_width 8
dram_rq_size 64
dram_wq_size 64
dram_size 17179869184
core_0_itlb_prefetcher no
core_0_dtlb_prefetcher no
core_0_stlb_prefetcher no
core_0_l1i_prefetcher next_line
core_0_l1d_prefetcher vberti_nocross
core_0_l2c_prefetcher ip_stride
llc_prefetcher no
llc_replacement drrip

Core_0_instructions 100000000
Core_0_cycles 721607629
Core_0_IPC 0.138579
Core_0_branch_prediction_accuracy 94.4508
Core_0_branch_MPKI 8.70419
Core_0_average_ROB_occupancy_at_mispredict 70.5002

Core_0_ITLB_total_access 14206769
Core_0_ITLB_total_hit 14206769
Core_0_ITLB_total_miss 0
Core_0_ITLB_total_MPKI 0
Core_0_ITLB_total_miss_rate 0
Core_0_ITLB_demand_access 14206769
Core_0_ITLB_demand_hit 14206769
Core_0_ITLB_demand_miss 0
Core_0_ITLB_demand_MPKI 0
Core_0_ITLB_demand_miss_rate 0
Core_0_ITLB_load_access 14206769
Core_0_ITLB_load_hit 14206769
Core_0_ITLB_load_miss 0
Core_0_ITLB_load_MPKI 0
Core_0_ITLB_load_miss_rate 0
Core_0_ITLB_rfo_access 0
Core_0_ITLB_rfo_hit 0
Core_0_ITLB_rfo_miss 0
Core_0_ITLB_rfo_MPKI 0
Core_0_ITLB_rfo_miss_rate 0
Core_0_ITLB_prefetch_access 0
Core_0_ITLB_prefetch_hit 0
Core_0_ITLB_prefetch_miss 0
Core_0_ITLB_prefetch_MPKI 0
Core_0_ITLB_prefetch_miss_rate 0
Core_0_ITLB_writeback_access 0
Core_0_ITLB_writeback_hit 0
Core_0_ITLB_writeback_miss 0
Core_0_ITLB_writeback_MPKI 0
Core_0_ITLB_writeback_miss_rate 0
Core_0_ITLB_prefetch_requested 0
Core_0_ITLB_prefetch_issued 0
Core_0_ITLB_prefetch_useful 0
Core_0_ITLB_prefetch_useless 0
Core_0_ITLB_prefetch_late 0
Core_0_ITLB_prefetch_fill 0
Core_0_ITLB_prefetch_too_early 0
Core_0_ITLB_prefetch_too_early_among_fill 0
Core_0_ITLB_prefetch_too_early_among_useless 0
Core_0_ITLB_prefetch_pollution_evict 0
Core_0_ITLB_prefetch_pollution_demand 0
Core_0_ITLB_prefetch_pollution_among_prefetch_fill 0
Core_0_ITLB_prefetch_accuracy 0
Core_0_ITLB_prefetch_coverage 0

Core_0_DTLB_total_access 103297630
Core_0_DTLB_total_hit 98366089
Core_0_DTLB_total_miss 4931541
Core_0_DTLB_total_MPKI 49.3154
Core_0_DTLB_total_miss_rate 0.0477411
Core_0_DTLB_demand_access 103297630
Core_0_DTLB_demand_hit 98366089
Core_0_DTLB_demand_miss 4931541
Core_0_DTLB_demand_MPKI 49.3154
Core_0_DTLB_demand_miss_rate 0.0477411
Core_0_DTLB_load_access 103297630
Core_0_DTLB_load_hit 98366089
Core_0_DTLB_load_miss 4931541
Core_0_DTLB_load_MPKI 49.3154
Core_0_DTLB_load_miss_rate 0.0477411
Core_0_DTLB_rfo_access 0
Core_0_DTLB_rfo_hit 0
Core_0_DTLB_rfo_miss 0
Core_0_DTLB_rfo_MPKI 0
Core_0_DTLB_rfo_miss_rate 0
Core_0_DTLB_prefetch_access 0
Core_0_DTLB_prefetch_hit 0
Core_0_DTLB_prefetch_miss 0
Core_0_DTLB_prefetch_MPKI 0
Core_0_DTLB_prefetch_miss_rate 0
Core_0_DTLB_writeback_access 0
Core_0_DTLB_writeback_hit 0
Core_0_DTLB_writeback_miss 0
Core_0_DTLB_writeback_MPKI 0
Core_0_DTLB_writeback_miss_rate 0
Core_0_DTLB_prefetch_requested 0
Core_0_DTLB_prefetch_issued 0
Core_0_DTLB_prefetch_useful 0
Core_0_DTLB_prefetch_useless 0
Core_0_DTLB_prefetch_late 0
Core_0_DTLB_prefetch_fill 0
Core_0_DTLB_prefetch_too_early 0
Core_0_DTLB_prefetch_too_early_among_fill 0
Core_0_DTLB_prefetch_too_early_among_useless 0
Core_0_DTLB_prefetch_pollution_evict 0
Core_0_DTLB_prefetch_pollution_demand 0
Core_0_DTLB_prefetch_pollution_among_prefetch_fill 0
Core_0_DTLB_prefetch_accuracy 0
Core_0_DTLB_prefetch_coverage 0

Core_0_STLB_total_access 4407130
Core_0_STLB_total_hit 107991
Core_0_STLB_total_miss 4299139
Core_0_STLB_total_MPKI 42.9914
Core_0_STLB_total_miss_rate 0.975496
Core_0_STLB_demand_access 4407130
Core_0_STLB_demand_hit 107991
Core_0_STLB_demand_miss 4299139
Core_0_STLB_demand_MPKI 42.9914
Core_0_STLB_demand_miss_rate 0.975496
Core_0_STLB_load_access 4407130
Core_0_STLB_load_hit 107991
Core_0_STLB_load_miss 4299139
Core_0_STLB_load_MPKI 42.9914
Core_0_STLB_load_miss_rate 0.975496
Core_0_STLB_rfo_access 0
Core_0_STLB_rfo_hit 0
Core_0_STLB_rfo_miss 0
Core_0_STLB_rfo_MPKI 0
Core_0_STLB_rfo_miss_rate 0
Core_0_STLB_prefetch_access 0
Core_0_STLB_prefetch_hit 0
Core_0_STLB_prefetch_miss 0
Core_0_STLB_prefetch_MPKI 0
Core_0_STLB_prefetch_miss_rate 0
Core_0_STLB_writeback_access 0
Core_0_STLB_writeback_hit 0
Core_0_STLB_writeback_miss 0
Core_0_STLB_writeback_MPKI 0
Core_0_STLB_writeback_miss_rate 0
Core_0_STLB_prefetch_requested 0
Core_0_STLB_prefetch_issued 0
Core_0_STLB_prefetch_useful 0
Core_0_STLB_prefetch_useless 0
Core_0_STLB_prefetch_late 0
Core_0_STLB_prefetch_fill 0
Core_0_STLB_prefetch_too_early 0
Core_0_STLB_prefetch_too_early_among_fill 0
Core_0_STLB_prefetch_too_early_among_useless 0
Core_0_STLB_prefetch_pollution_evict 0
Core_0_STLB_prefetch_pollution_demand 0
Core_0_STLB_prefetch_pollution_among_prefetch_fill 0
Core_0_STLB_prefetch_accuracy 0
Core_0_STLB_prefetch_coverage 0

Core_0_L1I_total_access 14280103
Core_0_L1I_total_hit 14280103
Core_0_L1I_total_miss 0
Core_0_L1I_total_MPKI 0
Core_0_L1I_total_miss_rate 0
Core_0_L1I_demand_access 14280103
Core_0_L1I_demand_hit 14280103
Core_0_L1I_demand_miss 0
Core_0_L1I_demand_MPKI 0
Core_0_L1I_demand_miss_rate 0
Core_0_L1I_load_access 14280103
Core_0_L1I_load_hit 14280103
Core_0_L1I_load_miss 0
Core_0_L1I_load_MPKI 0
Core_0_L1I_load_miss_rate 0
Core_0_L1I_rfo_access 0
Core_0_L1I_rfo_hit 0
Core_0_L1I_rfo_miss 0
Core_0_L1I_rfo_MPKI 0
Core_0_L1I_rfo_miss_rate 0
Core_0_L1I_prefetch_access 0
Core_0_L1I_prefetch_hit 0
Core_0_L1I_prefetch_miss 0
Core_0_L1I_prefetch_MPKI 0
Core_0_L1I_prefetch_miss_rate 0
Core_0_L1I_writeback_access 0
Core_0_L1I_writeback_hit 0
Core_0_L1I_writeback_miss 0
Core_0_L1I_writeback_MPKI 0
Core_0_L1I_writeback_miss_rate 0
Core_0_L1I_prefetch_requested 0
Core_0_L1I_prefetch_issued 0
Core_0_L1I_prefetch_useful 0
Core_0_L1I_prefetch_useless 0
Core_0_L1I_prefetch_late 0
Core_0_L1I_prefetch_fill 0
Core_0_L1I_prefetch_too_early 0
Core_0_L1I_prefetch_too_early_among_fill 0
Core_0_L1I_prefetch_too_early_among_useless 0
Core_0_L1I_prefetch_pollution_evict 0
Core_0_L1I_prefetch_pollution_demand 0
Core_0_L1I_prefetch_pollution_among_prefetch_fill 0
Core_0_L1I_prefetch_accuracy 0
Core_0_L1I_prefetch_coverage 0

Core_0_L1D_total_access 145665359
Core_0_L1D_total_hit 135557850
Core_0_L1D_total_miss 10107509
Core_0_L1D_total_MPKI 101.075
Core_0_L1D_total_miss_rate 0.0693886
Core_0_L1D_demand_access 34076057
Core_0_L1D_demand_hit 29045326
Core_0_L1D_demand_miss 5030731
Core_0_L1D_demand_MPKI 50.3073
Core_0_L1D_demand_miss_rate 0.147632
Core_0_L1D_load_access 34076057
Core_0_L1D_load_hit 29045326
Core_0_L1D_load_miss 5030731
Core_0_L1D_load_MPKI 50.3073
Core_0_L1D_load_miss_rate 0.147632
Core_0_L1D_rfo_access 0
Core_0_L1D_rfo_hit 0
Core_0_L1D_rfo_miss 0
Core_0_L1D_rfo_MPKI 0
Core_0_L1D_rfo_miss_rate 0
Core_0_L1D_prefetch_access 90862616
Core_0_L1D_prefetch_hit 85973414
Core_0_L1D_prefetch_miss 4889202
Core_0_L1D_prefetch_MPKI 48.892
Core_0_L1D_prefetch_miss_rate 0.0538087
Core_0_L1D_writeback_access 20726686
Core_0_L1D_writeback_hit 20539110
Core_0_L1D_writeback_miss 187576
Core_0_L1D_writeback_MPKI 1.87576
Core_0_L1D_writeback_miss_rate 0.00904998
Core_0_L1D_prefetch_requested 209600084
Core_0_L1D_prefetch_issued 90862614
Core_0_L1D_prefetch_useful 744062
Core_0_L1D_prefetch_useless 75091
Core_0_L1D_prefetch_late 670
Core_0_L1D_prefetch_fill 818489
Core_0_L1D_prefetch_too_early 24
Core_0_L1D_prefetch_too_early_among_fill 2.93223e-05
Core_0_L1D_prefetch_too_early_among_useless 0.000319612
Core_0_L1D_prefetch_pollution_evict 129
Core_0_L1D_prefetch_pollution_demand 129
Core_0_L1D_prefetch_pollution_among_prefetch_fill 0.000157607
Core_0_L1D_prefetch_accuracy 0.00818887
Core_0_L1D_prefetch_coverage 0.128847

Core_0_L2C_total_access 13732433
Core_0_L2C_total_hit 7559237
Core_0_L2C_total_miss 6173196
Core_0_L2C_total_MPKI 61.732
Core_0_L2C_total_miss_rate 0.449534
Core_0_L2C_demand_access 4513166
Core_0_L2C_demand_hit 125162
Core_0_L2C_demand_miss 4388004
Core_0_L2C_demand_MPKI 43.88
Core_0_L2C_demand_miss_rate 0.972267
Core_0_L2C_load_access 4505787
Core_0_L2C_load_hit 124449
Core_0_L2C_load_miss 4381338
Core_0_L2C_load_MPKI 43.8134
Core_0_L2C_load_miss_rate 0.97238
Core_0_L2C_rfo_access 7379
Core_0_L2C_rfo_hit 713
Core_0_L2C_rfo_miss 6666
Core_0_L2C_rfo_MPKI 0.06666
Core_0_L2C_rfo_miss_rate 0.903374
Core_0_L2C_prefetch_access 5332694
Core_0_L2C_prefetch_hit 3547713
Core_0_L2C_prefetch_miss 1784981
Core_0_L2C_prefetch_MPKI 17.8498
Core_0_L2C_prefetch_miss_rate 0.334724
Core_0_L2C_writeback_access 3886573
Core_0_L2C_writeback_hit 3886362
Core_0_L2C_writeback_miss 211
Core_0_L2C_writeback_MPKI 0.00211
Core_0_L2C_writeback_miss_rate 5.42895e-05
Core_0_L2C_prefetch_requested 796405
Core_0_L2C_prefetch_issued 772461
Core_0_L2C_prefetch_useful 346242
Core_0_L2C_prefetch_useless 113626
Core_0_L2C_prefetch_late 0
Core_0_L2C_prefetch_fill 1070145
Core_0_L2C_prefetch_too_early 6
Core_0_L2C_prefetch_too_early_among_fill 5.60672e-06
Core_0_L2C_prefetch_too_early_among_useless 5.28048e-05
Core_0_L2C_prefetch_pollution_evict 1859
Core_0_L2C_prefetch_pollution_demand 1859
Core_0_L2C_prefetch_pollution_among_prefetch_fill 0.00173715
Core_0_L2C_prefetch_accuracy 0.448232
Core_0_L2C_prefetch_coverage 0.0731356

Core_0_LLC_total_access 9344052
Core_0_LLC_total_hit 3755220
Core_0_LLC_total_miss 5588832
Core_0_LLC_total_MPKI 55.8883
Core_0_LLC_total_miss_rate 0.598117
Core_0_LLC_demand_access 4387952
Core_0_LLC_demand_hit 12404
Core_0_LLC_demand_miss 4375548
Core_0_LLC_demand_MPKI 43.7555
Core_0_LLC_demand_miss_rate 0.997173
Core_0_LLC_load_access 4381286
Core_0_LLC_load_hit 9368
Core_0_LLC_load_miss 4371918
Core_0_LLC_load_MPKI 43.7192
Core_0_LLC_load_miss_rate 0.997862
Core_0_LLC_rfo_access 6666
Core_0_LLC_rfo_hit 3036
Core_0_LLC_rfo_miss 3630
Core_0_LLC_rfo_MPKI 0.0363
Core_0_LLC_rfo_miss_rate 0.544554
Core_0_LLC_prefetch_access 1070256
Core_0_LLC_prefetch_hit 305762
Core_0_LLC_prefetch_miss 764494
Core_0_LLC_prefetch_MPKI 7.64494
Core_0_LLC_prefetch_miss_rate 0.714309
Core_0_LLC_writeback_access 3885844
Core_0_LLC_writeback_hit 3437054
Core_0_LLC_writeback_miss 448790
Core_0_LLC_writeback_MPKI 4.4879
Core_0_LLC_writeback_miss_rate 0.115494
Core_0_LLC_prefetch_requested 0
Core_0_LLC_prefetch_issued 0
Core_0_LLC_prefetch_useful 0
Core_0_LLC_prefetch_useless 0
Core_0_LLC_prefetch_late 0
Core_0_LLC_prefetch_fill 764446
Core_0_LLC_prefetch_too_early 0
Core_0_LLC_prefetch_too_early_among_fill 0
Core_0_LLC_prefetch_too_early_among_useless 0
Core_0_LLC_prefetch_pollution_evict 9185
Core_0_LLC_prefetch_pollution_demand 9185
Core_0_LLC_prefetch_pollution_among_prefetch_fill 0.0120152
Core_0_LLC_prefetch_accuracy 0
Core_0_LLC_prefetch_coverage 0

[DRAM Statistics]
Channel_0_RQ_row_buffer_hit 7567
Channel_0_RQ_row_buffer_miss 6591358
Channel_0_WQ_row_buffer_hit 1014696
Channel_0_WQ_row_buffer_miss 2700781
Channel_0_WQ_full 0
Channel_0_dbus_congested 29007909
DRAM_total_RQ_row_buffer_hit 7567
DRAM_total_RQ_row_buffer_miss 6591358
DRAM_total_WQ_row_buffer_hit 1014696
DRAM_total_WQ_row_buffer_miss 2700781
DRAM_total_WQ_full 0
DRAM_total_dbus_congested 29007909
DRAM_avg_congested_cycle 7.70979

====== DRAM_RQ_TRAFFIC ========
DRAM_RQ_READ_TRAFFIC_BREAKDOWN:
data_demand_read.count = 4375548
data_demand_read.share = 66.31%

inst_demand_read.count = 0
inst_demand_read.share = 0.00%

cache_inst_prefetch.count = 0
cache_inst_prefetch.share = 0.00%

cache_data_prefetch.count = 764446
cache_data_prefetch.share = 11.58%

stlb_data_demand.count = 1458996
stlb_data_demand.share = 22.11%

stlb_inst_demand.count = 0
stlb_inst_demand.share = 0.00%

stlb_l1i_pref.count = 0
stlb_l1i_pref.share = 0.00%

stlb_l1d_pref.count = 0
stlb_l1d_pref.share = 0.00%

DRAM_RQ_READ_TRAFFIC_SUMMARY:
cache_demand.count = 4375548
cache_demand.share = 66.31%

cache_prefetch.count = 764446
cache_prefetch.share = 11.58%

stlb_demand.count = 1458996
stlb_demand.share = 22.11%

stlb_prefetch.count = 0
stlb_prefetch.share = 0.00%

DRAM_RQ_READ_TRAFFIC_DEBUG:
total_classified_read.count = 6598990
unclassified_read.count = 0
total_read_with_other.count = 6598990

classified_plus_unclassified_check.count = 6598990
dram_rq_read_total_observed.count = 6598990
dram_rq_read_total_observed.per_1K_instructions = 65.9899

STLB_MISS_PTW_DRAM_TOUCH_BREAKDOWN:
stlb_miss_total.count = 4299139

stlb_miss_touch_dram.count = 1382343
stlb_miss_touch_dram.share = 32.15%

stlb_miss_no_dram_touch.count = 2916796
stlb_miss_no_dram_touch.share = 67.85%

STLB_MISS_PTW_DRAM_TOUCH_DEBUG:
stlb_miss_touch_plus_no_touch.count = 4299139
stlb_miss_total_check.count = 4299139

======STLB miss causes ========
Core_0_STLB_miss_cause_breakdown
Core_0_STLB_cause_Demand_Data_miss 4299139
Core_0_STLB_cause_Demand_Data_miss_rate 0.975496
Core_0_STLB_cause_Demand_Instruction_miss 0
Core_0_STLB_cause_Demand_Instruction_miss_rate 0
Core_0_STLB_cause_L1D_Prefetch_miss 0
Core_0_STLB_cause_L1D_Prefetch_miss_rate 0
Core_0_STLB_cause_L1D_Prefetch_Same_Page_miss 0
Core_0_STLB_cause_L1D_Prefetch_Same_Page_miss_rate 0
Core_0_STLB_cause_L1D_Prefetch_Cross_Page_miss 0
Core_0_STLB_cause_L1D_Prefetch_Cross_Page_miss_rate 0
Core_0_STLB_cause_L1I_Prefetch_miss 0
Core_0_STLB_cause_L1I_Prefetch_miss_rate 0
Core_0_STLB_cause_Other_miss 0
Core_0_STLB_cause_Other_miss_rate 0
Core_0_STLB_Demand_miss 4299139
Core_0_STLB_Demand_miss_rate 0.975496
Core_0_STLB_L1D_Prefetch_miss 0
Core_0_STLB_L1D_Prefetch_miss_rate 0
Core_0_STLB_Other_miss 0
Core_0_STLB_Other_miss_rate 0

========== vBerti-TLB Cross-page Flow Stats ==========

Core_0_vBerti_Requested 209600084
Core_0_vBerti_Cross_page_prefetch_in_Requested 0
Core_0_vBerti_Same_page_prefetch_in_Requested 209600084
Core_0_vBerti_Cross_page_prefetch_of_Requested 0
Core_0_vBerti_Issued 90862614
Core_0_vBerti_InPQ_Same_page_prefetch 90862614
Core_0_vBerti_InPQ_Cross_page_prefetch 0
Core_0_vBerti_PQ_Drop_Rate 0.566495
Core_0_vBerti_InPQ_Cross_page_prefetch_of_Requested 0
Core_0_vBerti_Cross_page_PQ_Drop_rate 0
Core_0_vBerti_Cross_page_prefetch_of_Issued 0
Core_0_CP_PF_PQFULL_drop 0
Core_0_CP_PF_PQFULL_TLB_rescue_enqueued 0
Core_0_CP_PF_PQFULL_TLB_rescue_issued 0
Core_0_CP_PF_PQFULL_TLB_rescue_translated 0

========= DTLB_vBerti Prefetch Stats =========
Core_0_DTLB_demand_access 54054096
Core_0_DTLB_demand_hit 49122561
Core_0_DTLB_demand_miss 4931535
Core_0_DTLB_demand_mshr_merge 524410
Core_0_DTLB_demand_fill 4407132
Core_0_DTLB_demand_miss_rate 0.0912333
Core_0_DTLB_demand_mpki 49.3154
Core_0_DTLB_vberti_prefetch_access 49243534
Core_0_DTLB_vberti_prefetch_hit 49243528
Core_0_DTLB_vberti_prefetch_miss 6
Core_0_DTLB_vberti_prefetch_mshr_merge 1
Core_0_DTLB_vberti_prefetch_fill 5
Core_0_DTLB_vberti_prefetch_miss_rate 1.21843e-07
Core_0_DTLB_vberti_prefetch_mpki 6e-05

=== DTLB_vBerti Same/Cross-page Prefetch Stats ===
Core_0_DTLB_vberti_same_page_prefetch 49243534
Core_0_DTLB_vberti_same_page_prefetch_hit 49243528
Core_0_DTLB_vberti_same_page_prefetch_miss 6
Core_0_DTLB_vberti_same_page_prefetch_mshr_merge 1
Core_0_DTLB_vberti_same_page_prefetch_fill 5
Core_0_DTLB_vberti_same_page_prefetch_miss_rate 1.21843e-07
Core_0_DTLB_vberti_same_page_prefetch_mpki 6e-05
Core_0_DTLB_vberti_cross_page_prefetch 0
Core_0_DTLB_vberti_cross_page_prefetch_hit 0
Core_0_DTLB_vberti_cross_page_prefetch_miss 0
Core_0_DTLB_vberti_cross_page_prefetch_mshr_merge 0
Core_0_DTLB_vberti_cross_page_prefetch_fill 0
Core_0_DTLB_vberti_cross_page_prefetch_miss_rate 0
Core_0_DTLB_vberti_cross_page_prefetch_mpki 0
Core_0_DTLB_same_page_prefetch_miss_rate 1.21843e-07
Core_0_DTLB_same_page_prefetch_mpki 6e-05
Core_0_DTLB_cross_page_prefetch_miss_rate 0
Core_0_DTLB_cross_page_prefetch_mpki 0
Core_0_DTLB_cross_page_prefetch_issued 0
Core_0_DTLB_cross_page_prefetch_lookups 0
Core_0_DTLB_cross_page_prefetch_useful 0
Core_0_DTLB_cross_page_prefetch_useless 0
Core_0_DTLB_cross_page_prefetch_late 0
Core_0_DTLB_cross_page_prefetch_too_early 0
Core_0_DTLB_cross_page_prefetch_too_early_among_fill 0
Core_0_DTLB_cross_page_prefetch_too_early_among_useless 0
Core_0_DTLB_cross_page_prefetch_pollution_evict 0
Core_0_DTLB_cross_page_prefetch_pollution_demand 0
Core_0_DTLB_cross_page_prefetch_pollution_among_prefetch_fill 0
Core_0_DTLB_cross_page_prefetch_accuracy 0
Core_0_DTLB_cross_page_prefetch_coverage 0

========= STLB_vBerti Prefetch Stats =========
Core_0_STLB_demand_access 4407125
Core_0_STLB_demand_hit 107986
Core_0_STLB_demand_miss 4299139
Core_0_STLB_demand_mshr_merge 0
Core_0_STLB_demand_fill 4299146
Core_0_STLB_demand_miss_rate 0.975497
Core_0_STLB_demand_mpki 42.9914
Core_0_STLB_vberti_prefetch_access 5
Core_0_STLB_vberti_prefetch_hit 5
Core_0_STLB_vberti_prefetch_miss 0
Core_0_STLB_vberti_prefetch_mshr_merge 0
Core_0_STLB_vberti_prefetch_fill 0
Core_0_STLB_vberti_prefetch_miss_rate 0
Core_0_STLB_vberti_prefetch_mpki 0

=== STLB_vBerti Same/Cross-page Prefetch Stats ===
Core_0_STLB_vberti_same_page_prefetch 5
Core_0_STLB_vberti_same_page_prefetch_hit 5
Core_0_STLB_vberti_same_page_prefetch_miss 0
Core_0_STLB_vberti_same_page_prefetch_mshr_merge 0
Core_0_STLB_vberti_same_page_prefetch_fill 0
Core_0_STLB_vberti_same_page_prefetch_miss_rate 0
Core_0_STLB_vberti_same_page_prefetch_mpki 0
Core_0_STLB_vberti_cross_page_prefetch 0
Core_0_STLB_vberti_cross_page_prefetch_hit 0
Core_0_STLB_vberti_cross_page_prefetch_miss 0
Core_0_STLB_vberti_cross_page_prefetch_mshr_merge 0
Core_0_STLB_vberti_cross_page_prefetch_fill 0
Core_0_STLB_vberti_cross_page_prefetch_miss_rate 0
Core_0_STLB_vberti_cross_page_prefetch_mpki 0
Core_0_STLB_same_page_prefetch_miss_rate 0
Core_0_STLB_same_page_prefetch_mpki 0
Core_0_STLB_cross_page_prefetch_miss_rate 0
Core_0_STLB_cross_page_prefetch_mpki 0
Core_0_STLB_cross_page_prefetch_issued 0
Core_0_STLB_cross_page_prefetch_lookups 0
Core_0_STLB_cross_page_prefetch_useful 0
Core_0_STLB_cross_page_prefetch_useless 0
Core_0_STLB_cross_page_prefetch_late 0
Core_0_STLB_cross_page_prefetch_too_early 0
Core_0_STLB_cross_page_prefetch_too_early_among_fill 0
Core_0_STLB_cross_page_prefetch_too_early_among_useless 0
Core_0_STLB_cross_page_prefetch_pollution_evict 0
Core_0_STLB_cross_page_prefetch_pollution_demand 0
Core_0_STLB_cross_page_prefetch_pollution_among_prefetch_fill 0
Core_0_STLB_cross_page_prefetch_accuracy 0
Core_0_STLB_cross_page_prefetch_coverage 0

========= STLB Cross-page Prefetch Buffer Stats =========
Core_0_STLB_raw_demand_miss 4299139
Core_0_CP_PB_insert 0
Core_0_CP_PB_demand_hit 0
Core_0_STLB_PB_demand_miss 4299139
Core_0_CP_PB_coverage 0
Core_0_STLB_raw_demand_mpki 42.9914
Core_0_STLB_PB_demand_mpki 42.9914
Core_0_CP_PB_demand_hit_mpki 0

Core_0_TLB_demand_miss_rate 0.079534
Core_0_TLB_demand_mpki 42.9914
Core_0_TLB_same_page_prefetch_miss_rate 0
Core_0_TLB_same_page_prefetch_mpki 0
Core_0_TLB_cross_page_prefetch_miss_rate 0
Core_0_TLB_cross_page_prefetch_mpki 0
Core_0_TLB_cross_page_prefetch_issued 0
Core_0_TLB_cross_page_prefetch_lookups 0
Core_0_TLB_cross_page_prefetch_useful 0
Core_0_TLB_cross_page_prefetch_useless 0
Core_0_TLB_cross_page_prefetch_late 0
Core_0_TLB_cross_page_prefetch_too_early 0
Core_0_TLB_cross_page_prefetch_too_early_among_fill 0
Core_0_TLB_cross_page_prefetch_too_early_among_useless 0
Core_0_TLB_cross_page_prefetch_accuracy 0
Core_0_TLB_cross_page_prefetch_coverage 0
====== vBerti internal metric ========
BERTI TO_L1: 200995566 TO_L2: 8604518 TO_L2_BC_MSHR: 1057
BERTI AVG_LAT: 211.424 NUM_TRACK_LATENCY: 5314785 NUM_CANT_TRACK_LATENCY: 0
BERTI CROSS_PAGE 15636487 NO_CROSS_PAGE: 209600084
BERTI FOUND_BERTI: 46524664 NO_FOUND_BERTI: 8278181
BERTI AVERAGE_ISSUED: 2.68071
