[VMEM] WARNING: physical memory size is smaller than virtual memory size.

*** ChampSim Multicore Out-of-Order Simulator ***
Warmup Instructions: 50000000
Simulation Instructions: 100000000
Number of CPUs: 1
Page size: 4096
Core 0: /data2/zcq/champsim_traces_gap/cc.kron-10B.champsimtrace.xz
VBerti Prefetcher
No Crossing Page
BERTI HASH ENTANGLING
BERTI IP MASK ffff
Off-chip DRAM Size: 16 GiB Channels: 1 Width: 64-bit Data Rate: 3205 MT/s
Warmup halting CPU 0 at instruction 50000001 cycle 20727720 for remainder of phase
Warmup finished CPU 0 instructions: 50000001 cycles: 20727720 cumulative IPC: 2.412 (Simulation time: 00 hr 03 min 59 sec)
Warmup complete CPU 0 instructions: 50000001 cycles: 20727720 cumulative IPC: 2.412 (Simulation time: 00 hr 03 min 59 sec)
Simulation finished CPU 0 instructions: 100000002 cycles: 516361219 cumulative IPC: 0.1937 (Simulation time: 00 hr 38 min 53 sec)
Simulation complete CPU 0 instructions: 100000002 cycles: 516361219 cumulative IPC: 0.1937 (Simulation time: 00 hr 38 min 53 sec)

ChampSim completed all CPUs

=== Simulation ===
CPU 0 runs /data2/zcq/champsim_traces_gap/cc.kron-10B.champsimtrace.xz

Region of Interest Statistics

CPU 0 cumulative IPC: 0.1937 instructions: 100000002 cycles: 516361219
CPU 0 Branch Prediction Accuracy: 88.45% MPKI: 19.16 Average ROB Occupancy at Mispredict: 25.58
Branch type MPKI
BRANCH_DIRECT_JUMP: 0
BRANCH_INDIRECT: 0
BRANCH_CONDITIONAL: 19.16
BRANCH_DIRECT_CALL: 0
BRANCH_INDIRECT_CALL: 0
BRANCH_RETURN: 0

cpu0->cpu0_STLB TOTAL        ACCESS:    1705730 HIT:     530405 MISS:    1175325 MSHR_MERGE:          0
cpu0->cpu0_STLB LOAD         ACCESS:    1705730 HIT:     530405 MISS:    1175325 MSHR_MERGE:          0
cpu0->cpu0_STLB RFO          ACCESS:          0 HIT:          0 MISS:          0 MSHR_MERGE:          0
cpu0->cpu0_STLB PREFETCH     ACCESS:          0 HIT:          0 MISS:          0 MSHR_MERGE:          0
cpu0->cpu0_STLB WRITE        ACCESS:          0 HIT:          0 MISS:          0 MSHR_MERGE:          0
cpu0->cpu0_STLB TRANSLATION  ACCESS:          0 HIT:          0 MISS:          0 MSHR_MERGE:          0
cpu0->cpu0_STLB PREFETCH REQUESTED:          0 ISSUED:          0 USEFUL:          0 USELESS:          0 LATE:          0 TOO_EARLY:          0
cpu0->cpu0_STLB AVERAGE MISS LATENCY: 74.35 cycles
cpu0->cpu0_L2C TOTAL        ACCESS:    9407892 HIT:    4987174 MISS:    4420718 MSHR_MERGE:     178311
cpu0->cpu0_L2C LOAD         ACCESS:    2685178 HIT:     971574 MISS:    1713604 MSHR_MERGE:       2541
cpu0->cpu0_L2C RFO          ACCESS:          0 HIT:          0 MISS:          0 MSHR_MERGE:          0
cpu0->cpu0_L2C PREFETCH     ACCESS:    5575462 HIT:    3733327 MISS:    1842135 MSHR_MERGE:     175770
cpu0->cpu0_L2C WRITE        ACCESS:       2753 HIT:       2752 MISS:          1 MSHR_MERGE:          0
cpu0->cpu0_L2C TRANSLATION  ACCESS:    1144499 HIT:     279521 MISS:     864978 MSHR_MERGE:          0
cpu0->cpu0_L2C PREFETCH REQUESTED:    1418824 ISSUED:    1418818 USEFUL:     368924 USELESS:     129687 LATE:        449 TOO_EARLY:          7
cpu0->cpu0_L2C AVERAGE MISS LATENCY: 124.5 cycles
cpu0->cpu0_L1I TOTAL        ACCESS:      40235 HIT:      40235 MISS:          0 MSHR_MERGE:          0
cpu0->cpu0_L1I LOAD         ACCESS:      40235 HIT:      40235 MISS:          0 MSHR_MERGE:          0
cpu0->cpu0_L1I RFO          ACCESS:          0 HIT:          0 MISS:          0 MSHR_MERGE:          0
cpu0->cpu0_L1I PREFETCH     ACCESS:          0 HIT:          0 MISS:          0 MSHR_MERGE:          0
cpu0->cpu0_L1I WRITE        ACCESS:          0 HIT:          0 MISS:          0 MSHR_MERGE:          0
cpu0->cpu0_L1I TRANSLATION  ACCESS:          0 HIT:          0 MISS:          0 MSHR_MERGE:          0
cpu0->cpu0_L1I PREFETCH REQUESTED:          0 ISSUED:          0 USEFUL:          0 USELESS:          0 LATE:          0 TOO_EARLY:          0
cpu0->cpu0_L1I AVERAGE MISS LATENCY: - cycles
cpu0->cpu0_L1D TOTAL        ACCESS:   48817031 HIT:   40814753 MISS:    8002278 MSHR_MERGE:      14724
cpu0->cpu0_L1D LOAD         ACCESS:   21238153 HIT:   18538447 MISS:    2699706 MSHR_MERGE:      14528
cpu0->cpu0_L1D RFO          ACCESS:          0 HIT:          0 MISS:          0 MSHR_MERGE:          0
cpu0->cpu0_L1D PREFETCH     ACCESS:   24387445 HIT:   20229385 MISS:    4158060 MSHR_MERGE:        183
cpu0->cpu0_L1D WRITE        ACCESS:       2752 HIT:       2752 MISS:          0 MSHR_MERGE:          0
cpu0->cpu0_L1D TRANSLATION  ACCESS:    3188681 HIT:    2044169 MISS:    1144512 MSHR_MERGE:         13
cpu0->cpu0_L1D PREFETCH REQUESTED:   51156047 ISSUED:   24387439 USEFUL:     624783 USELESS:      63812 LATE:        271 TOO_EARLY:          0
cpu0->cpu0_L1D AVERAGE MISS LATENCY: 92.48 cycles
cpu0->cpu0_ITLB TOTAL        ACCESS:      40233 HIT:      40233 MISS:          0 MSHR_MERGE:          0
cpu0->cpu0_ITLB LOAD         ACCESS:      40233 HIT:      40233 MISS:          0 MSHR_MERGE:          0
cpu0->cpu0_ITLB RFO          ACCESS:          0 HIT:          0 MISS:          0 MSHR_MERGE:          0
cpu0->cpu0_ITLB PREFETCH     ACCESS:          0 HIT:          0 MISS:          0 MSHR_MERGE:          0
cpu0->cpu0_ITLB WRITE        ACCESS:          0 HIT:          0 MISS:          0 MSHR_MERGE:          0
cpu0->cpu0_ITLB TRANSLATION  ACCESS:          0 HIT:          0 MISS:          0 MSHR_MERGE:          0
cpu0->cpu0_ITLB PREFETCH REQUESTED:          0 ISSUED:          0 USEFUL:          0 USELESS:          0 LATE:          0 TOO_EARLY:          0
cpu0->cpu0_ITLB AVERAGE MISS LATENCY: - cycles
cpu0->cpu0_DTLB TOTAL        ACCESS:   35038936 HIT:   33317377 MISS:    1721559 MSHR_MERGE:      15829
cpu0->cpu0_DTLB LOAD         ACCESS:   35038936 HIT:   33317377 MISS:    1721559 MSHR_MERGE:      15829
cpu0->cpu0_DTLB RFO          ACCESS:          0 HIT:          0 MISS:          0 MSHR_MERGE:          0
cpu0->cpu0_DTLB PREFETCH     ACCESS:          0 HIT:          0 MISS:          0 MSHR_MERGE:          0
cpu0->cpu0_DTLB WRITE        ACCESS:          0 HIT:          0 MISS:          0 MSHR_MERGE:          0
cpu0->cpu0_DTLB TRANSLATION  ACCESS:          0 HIT:          0 MISS:          0 MSHR_MERGE:          0
cpu0->cpu0_DTLB PREFETCH REQUESTED:          0 ISSUED:          0 USEFUL:          0 USELESS:          0 LATE:          0 TOO_EARLY:          0
cpu0->cpu0_DTLB AVERAGE MISS LATENCY: 56.92 cycles
cpu0->LLC TOTAL        ACCESS:    4245157 HIT:    1096728 MISS:    3148429 MSHR_MERGE:        700
cpu0->LLC LOAD         ACCESS:    1711063 HIT:     398321 MISS:    1312742 MSHR_MERGE:          0
cpu0->LLC RFO          ACCESS:          0 HIT:          0 MISS:          0 MSHR_MERGE:          0
cpu0->LLC PREFETCH     ACCESS:    1666365 HIT:       1221 MISS:    1665144 MSHR_MERGE:        700
cpu0->LLC WRITE        ACCESS:       2751 HIT:        470 MISS:       2281 MSHR_MERGE:          0
cpu0->LLC TRANSLATION  ACCESS:     864978 HIT:     696716 MISS:     168262 MSHR_MERGE:          0
cpu0->LLC PREFETCH REQUESTED:          0 ISSUED:          0 USEFUL:          0 USELESS:          0 LATE:          0 TOO_EARLY:          0
cpu0->LLC AVERAGE MISS LATENCY: 189.2 cycles

DRAM Statistics

Channel 0 RQ ROW_BUFFER_HIT:      77705
  ROW_BUFFER_MISS:    3067743
  AVG DBUS CONGESTED CYCLE: 3.339
Channel 0 WQ ROW_BUFFER_HIT:        929
  ROW_BUFFER_MISS:       1947
  FULL:          0
Channel 0 REFRESHES ISSUED:      43030

[ROI Statistics]
[System Configuration]
num_cpus 1
cpu_freq 4000
fetch_width 6
decode_width 6
dispatch_width 6
execute_width 6
lq_width 2
sq_width 2
retire_width 6
scheduler_size 128
branch_mispredict_penalty 15
rob_size 352
lq_size 128
sq_size 72
ifetch_buffer_size 64
decode_buffer_size 32
dispatch_buffer_size 32
register_file_size 288
decode_latency 1
dispatch_latency 1
schedule_latency 1
execute_latency 1
page_size 4096
block_size 64
core_0_itlb_set 16
core_0_itlb_way 4
core_0_itlb_rq_size 16
core_0_itlb_wq_size 16
core_0_itlb_pq_size 0
core_0_itlb_mshr_size 8
core_0_itlb_hit_latency 1
core_0_itlb_fill_latency 1
core_0_itlb_max_tag_check 2
core_0_itlb_max_fill 2
core_0_dtlb_set 16
core_0_dtlb_way 4
core_0_dtlb_rq_size 16
core_0_dtlb_wq_size 16
core_0_dtlb_pq_size 0
core_0_dtlb_mshr_size 8
core_0_dtlb_hit_latency 1
core_0_dtlb_fill_latency 1
core_0_dtlb_max_tag_check 2
core_0_dtlb_max_fill 2
core_0_stlb_set 128
core_0_stlb_way 12
core_0_stlb_rq_size 32
core_0_stlb_wq_size 32
core_0_stlb_pq_size 0
core_0_stlb_mshr_size 16
core_0_stlb_hit_latency 4
core_0_stlb_fill_latency 4
core_0_stlb_max_tag_check 1
core_0_stlb_max_fill 1
core_0_l1i_set 64
core_0_l1i_way 8
core_0_l1i_rq_size 64
core_0_l1i_wq_size 64
core_0_l1i_pq_size 32
core_0_l1i_mshr_size 8
core_0_l1i_hit_latency 2
core_0_l1i_fill_latency 2
core_0_l1i_max_tag_check 2
core_0_l1i_max_fill 2
core_0_l1d_set 64
core_0_l1d_way 12
core_0_l1d_rq_size 64
core_0_l1d_wq_size 64
core_0_l1d_pq_size 8
core_0_l1d_mshr_size 16
core_0_l1d_hit_latency 2
core_0_l1d_fill_latency 3
core_0_l1d_max_tag_check 2
core_0_l1d_max_fill 2
core_0_l2c_set 1024
core_0_l2c_way 8
core_0_l2c_rq_size 32
core_0_l2c_wq_size 32
core_0_l2c_pq_size 16
core_0_l2c_mshr_size 32
core_0_l2c_hit_latency 5
core_0_l2c_fill_latency 5
core_0_l2c_max_tag_check 1
core_0_l2c_max_fill 1
llc_set 2048
llc_way 16
llc_rq_size 32
llc_wq_size 32
llc_pq_size 32
llc_mshr_size 64
llc_hit_latency 10
llc_fill_latency 10
llc_max_tag_check 1
llc_max_fill 1
dram_channels 1
dram_ranks 1
dram_bankgroups 8
dram_banks 4
dram_rows 65536
dram_columns 1024
dram_channel_width 8
dram_rq_size 64
dram_wq_size 64
dram_size 17179869184
core_0_itlb_prefetcher no
core_0_dtlb_prefetcher no
core_0_stlb_prefetcher no
core_0_l1i_prefetcher next_line
core_0_l1d_prefetcher vberti_nocross
core_0_l2c_prefetcher ip_stride
llc_prefetcher no
llc_replacement drrip

Core_0_instructions 100000002
Core_0_cycles 516361219
Core_0_IPC 0.193663
Core_0_branch_prediction_accuracy 88.4534
Core_0_branch_MPKI 19.1621
Core_0_average_ROB_occupancy_at_mispredict 25.5758

Core_0_ITLB_total_access 40233
Core_0_ITLB_total_hit 40233
Core_0_ITLB_total_miss 0
Core_0_ITLB_total_MPKI 0
Core_0_ITLB_total_miss_rate 0
Core_0_ITLB_demand_access 40233
Core_0_ITLB_demand_hit 40233
Core_0_ITLB_demand_miss 0
Core_0_ITLB_demand_MPKI 0
Core_0_ITLB_demand_miss_rate 0
Core_0_ITLB_load_access 40233
Core_0_ITLB_load_hit 40233
Core_0_ITLB_load_miss 0
Core_0_ITLB_load_MPKI 0
Core_0_ITLB_load_miss_rate 0
Core_0_ITLB_rfo_access 0
Core_0_ITLB_rfo_hit 0
Core_0_ITLB_rfo_miss 0
Core_0_ITLB_rfo_MPKI 0
Core_0_ITLB_rfo_miss_rate 0
Core_0_ITLB_prefetch_access 0
Core_0_ITLB_prefetch_hit 0
Core_0_ITLB_prefetch_miss 0
Core_0_ITLB_prefetch_MPKI 0
Core_0_ITLB_prefetch_miss_rate 0
Core_0_ITLB_writeback_access 0
Core_0_ITLB_writeback_hit 0
Core_0_ITLB_writeback_miss 0
Core_0_ITLB_writeback_MPKI 0
Core_0_ITLB_writeback_miss_rate 0
Core_0_ITLB_prefetch_requested 0
Core_0_ITLB_prefetch_issued 0
Core_0_ITLB_prefetch_useful 0
Core_0_ITLB_prefetch_useless 0
Core_0_ITLB_prefetch_late 0
Core_0_ITLB_prefetch_fill 0
Core_0_ITLB_prefetch_too_early 0
Core_0_ITLB_prefetch_too_early_among_fill 0
Core_0_ITLB_prefetch_too_early_among_useless 0
Core_0_ITLB_prefetch_pollution_evict 0
Core_0_ITLB_prefetch_pollution_demand 0
Core_0_ITLB_prefetch_pollution_among_prefetch_fill 0
Core_0_ITLB_prefetch_accuracy 0
Core_0_ITLB_prefetch_coverage 0

Core_0_DTLB_total_access 35038936
Core_0_DTLB_total_hit 33317377
Core_0_DTLB_total_miss 1721559
Core_0_DTLB_total_MPKI 17.2156
Core_0_DTLB_total_miss_rate 0.0491327
Core_0_DTLB_demand_access 35038936
Core_0_DTLB_demand_hit 33317377
Core_0_DTLB_demand_miss 1721559
Core_0_DTLB_demand_MPKI 17.2156
Core_0_DTLB_demand_miss_rate 0.0491327
Core_0_DTLB_load_access 35038936
Core_0_DTLB_load_hit 33317377
Core_0_DTLB_load_miss 1721559
Core_0_DTLB_load_MPKI 17.2156
Core_0_DTLB_load_miss_rate 0.0491327
Core_0_DTLB_rfo_access 0
Core_0_DTLB_rfo_hit 0
Core_0_DTLB_rfo_miss 0
Core_0_DTLB_rfo_MPKI 0
Core_0_DTLB_rfo_miss_rate 0
Core_0_DTLB_prefetch_access 0
Core_0_DTLB_prefetch_hit 0
Core_0_DTLB_prefetch_miss 0
Core_0_DTLB_prefetch_MPKI 0
Core_0_DTLB_prefetch_miss_rate 0
Core_0_DTLB_writeback_access 0
Core_0_DTLB_writeback_hit 0
Core_0_DTLB_writeback_miss 0
Core_0_DTLB_writeback_MPKI 0
Core_0_DTLB_writeback_miss_rate 0
Core_0_DTLB_prefetch_requested 0
Core_0_DTLB_prefetch_issued 0
Core_0_DTLB_prefetch_useful 0
Core_0_DTLB_prefetch_useless 0
Core_0_DTLB_prefetch_late 0
Core_0_DTLB_prefetch_fill 0
Core_0_DTLB_prefetch_too_early 0
Core_0_DTLB_prefetch_too_early_among_fill 0
Core_0_DTLB_prefetch_too_early_among_useless 0
Core_0_DTLB_prefetch_pollution_evict 0
Core_0_DTLB_prefetch_pollution_demand 0
Core_0_DTLB_prefetch_pollution_among_prefetch_fill 0
Core_0_DTLB_prefetch_accuracy 0
Core_0_DTLB_prefetch_coverage 0

Core_0_STLB_total_access 1705730
Core_0_STLB_total_hit 530405
Core_0_STLB_total_miss 1175325
Core_0_STLB_total_MPKI 11.7532
Core_0_STLB_total_miss_rate 0.689045
Core_0_STLB_demand_access 1705730
Core_0_STLB_demand_hit 530405
Core_0_STLB_demand_miss 1175325
Core_0_STLB_demand_MPKI 11.7532
Core_0_STLB_demand_miss_rate 0.689045
Core_0_STLB_load_access 1705730
Core_0_STLB_load_hit 530405
Core_0_STLB_load_miss 1175325
Core_0_STLB_load_MPKI 11.7532
Core_0_STLB_load_miss_rate 0.689045
Core_0_STLB_rfo_access 0
Core_0_STLB_rfo_hit 0
Core_0_STLB_rfo_miss 0
Core_0_STLB_rfo_MPKI 0
Core_0_STLB_rfo_miss_rate 0
Core_0_STLB_prefetch_access 0
Core_0_STLB_prefetch_hit 0
Core_0_STLB_prefetch_miss 0
Core_0_STLB_prefetch_MPKI 0
Core_0_STLB_prefetch_miss_rate 0
Core_0_STLB_writeback_access 0
Core_0_STLB_writeback_hit 0
Core_0_STLB_writeback_miss 0
Core_0_STLB_writeback_MPKI 0
Core_0_STLB_writeback_miss_rate 0
Core_0_STLB_prefetch_requested 0
Core_0_STLB_prefetch_issued 0
Core_0_STLB_prefetch_useful 0
Core_0_STLB_prefetch_useless 0
Core_0_STLB_prefetch_late 0
Core_0_STLB_prefetch_fill 0
Core_0_STLB_prefetch_too_early 0
Core_0_STLB_prefetch_too_early_among_fill 0
Core_0_STLB_prefetch_too_early_among_useless 0
Core_0_STLB_prefetch_pollution_evict 0
Core_0_STLB_prefetch_pollution_demand 0
Core_0_STLB_prefetch_pollution_among_prefetch_fill 0
Core_0_STLB_prefetch_accuracy 0
Core_0_STLB_prefetch_coverage 0

Core_0_L1I_total_access 40235
Core_0_L1I_total_hit 40235
Core_0_L1I_total_miss 0
Core_0_L1I_total_MPKI 0
Core_0_L1I_total_miss_rate 0
Core_0_L1I_demand_access 40235
Core_0_L1I_demand_hit 40235
Core_0_L1I_demand_miss 0
Core_0_L1I_demand_MPKI 0
Core_0_L1I_demand_miss_rate 0
Core_0_L1I_load_access 40235
Core_0_L1I_load_hit 40235
Core_0_L1I_load_miss 0
Core_0_L1I_load_MPKI 0
Core_0_L1I_load_miss_rate 0
Core_0_L1I_rfo_access 0
Core_0_L1I_rfo_hit 0
Core_0_L1I_rfo_miss 0
Core_0_L1I_rfo_MPKI 0
Core_0_L1I_rfo_miss_rate 0
Core_0_L1I_prefetch_access 0
Core_0_L1I_prefetch_hit 0
Core_0_L1I_prefetch_miss 0
Core_0_L1I_prefetch_MPKI 0
Core_0_L1I_prefetch_miss_rate 0
Core_0_L1I_writeback_access 0
Core_0_L1I_writeback_hit 0
Core_0_L1I_writeback_miss 0
Core_0_L1I_writeback_MPKI 0
Core_0_L1I_writeback_miss_rate 0
Core_0_L1I_prefetch_requested 0
Core_0_L1I_prefetch_issued 0
Core_0_L1I_prefetch_useful 0
Core_0_L1I_prefetch_useless 0
Core_0_L1I_prefetch_late 0
Core_0_L1I_prefetch_fill 0
Core_0_L1I_prefetch_too_early 0
Core_0_L1I_prefetch_too_early_among_fill 0
Core_0_L1I_prefetch_too_early_among_useless 0
Core_0_L1I_prefetch_pollution_evict 0
Core_0_L1I_prefetch_pollution_demand 0
Core_0_L1I_prefetch_pollution_among_prefetch_fill 0
Core_0_L1I_prefetch_accuracy 0
Core_0_L1I_prefetch_coverage 0

Core_0_L1D_total_access 45628350
Core_0_L1D_total_hit 38770584
Core_0_L1D_total_miss 6857766
Core_0_L1D_total_MPKI 68.5777
Core_0_L1D_total_miss_rate 0.150296
Core_0_L1D_demand_access 21238153
Core_0_L1D_demand_hit 18538447
Core_0_L1D_demand_miss 2699706
Core_0_L1D_demand_MPKI 26.9971
Core_0_L1D_demand_miss_rate 0.127116
Core_0_L1D_load_access 21238153
Core_0_L1D_load_hit 18538447
Core_0_L1D_load_miss 2699706
Core_0_L1D_load_MPKI 26.9971
Core_0_L1D_load_miss_rate 0.127116
Core_0_L1D_rfo_access 0
Core_0_L1D_rfo_hit 0
Core_0_L1D_rfo_miss 0
Core_0_L1D_rfo_MPKI 0
Core_0_L1D_rfo_miss_rate 0
Core_0_L1D_prefetch_access 24387445
Core_0_L1D_prefetch_hit 20229385
Core_0_L1D_prefetch_miss 4158060
Core_0_L1D_prefetch_MPKI 41.5806
Core_0_L1D_prefetch_miss_rate 0.1705
Core_0_L1D_writeback_access 2752
Core_0_L1D_writeback_hit 2752
Core_0_L1D_writeback_miss 0
Core_0_L1D_writeback_MPKI 0
Core_0_L1D_writeback_miss_rate 0
Core_0_L1D_prefetch_requested 51156047
Core_0_L1D_prefetch_issued 24387439
Core_0_L1D_prefetch_useful 624783
Core_0_L1D_prefetch_useless 63812
Core_0_L1D_prefetch_late 271
Core_0_L1D_prefetch_fill 688342
Core_0_L1D_prefetch_too_early 0
Core_0_L1D_prefetch_too_early_among_fill 0
Core_0_L1D_prefetch_too_early_among_useless 0
Core_0_L1D_prefetch_pollution_evict 87697
Core_0_L1D_prefetch_pollution_demand 87697
Core_0_L1D_prefetch_pollution_among_prefetch_fill 0.127403
Core_0_L1D_prefetch_accuracy 0.025619
Core_0_L1D_prefetch_coverage 0.187934

Core_0_L2C_total_access 8263393
Core_0_L2C_total_hit 4707653
Core_0_L2C_total_miss 3555740
Core_0_L2C_total_MPKI 35.5574
Core_0_L2C_total_miss_rate 0.4303
Core_0_L2C_demand_access 2685178
Core_0_L2C_demand_hit 971574
Core_0_L2C_demand_miss 1713604
Core_0_L2C_demand_MPKI 17.136
Core_0_L2C_demand_miss_rate 0.638171
Core_0_L2C_load_access 2685178
Core_0_L2C_load_hit 971574
Core_0_L2C_load_miss 1713604
Core_0_L2C_load_MPKI 17.136
Core_0_L2C_load_miss_rate 0.638171
Core_0_L2C_rfo_access 0
Core_0_L2C_rfo_hit 0
Core_0_L2C_rfo_miss 0
Core_0_L2C_rfo_MPKI 0
Core_0_L2C_rfo_miss_rate 0
Core_0_L2C_prefetch_access 5575462
Core_0_L2C_prefetch_hit 3733327
Core_0_L2C_prefetch_miss 1842135
Core_0_L2C_prefetch_MPKI 18.4213
Core_0_L2C_prefetch_miss_rate 0.3304
Core_0_L2C_writeback_access 2753
Core_0_L2C_writeback_hit 2752
Core_0_L2C_writeback_miss 1
Core_0_L2C_writeback_MPKI 1e-05
Core_0_L2C_writeback_miss_rate 0.00036324
Core_0_L2C_prefetch_requested 1418824
Core_0_L2C_prefetch_issued 1418818
Core_0_L2C_prefetch_useful 368924
Core_0_L2C_prefetch_useless 129687
Core_0_L2C_prefetch_late 449
Core_0_L2C_prefetch_fill 1661940
Core_0_L2C_prefetch_too_early 7
Core_0_L2C_prefetch_too_early_among_fill 4.21195e-06
Core_0_L2C_prefetch_too_early_among_useless 5.39761e-05
Core_0_L2C_prefetch_pollution_evict 88113
Core_0_L2C_prefetch_pollution_demand 88112
Core_0_L2C_prefetch_pollution_among_prefetch_fill 0.0530182
Core_0_L2C_prefetch_accuracy 0.260022
Core_0_L2C_prefetch_coverage 0.177152

Core_0_LLC_total_access 3380179
Core_0_LLC_total_hit 400012
Core_0_LLC_total_miss 2980167
Core_0_LLC_total_MPKI 29.8017
Core_0_LLC_total_miss_rate 0.88166
Core_0_LLC_demand_access 1711063
Core_0_LLC_demand_hit 398321
Core_0_LLC_demand_miss 1312742
Core_0_LLC_demand_MPKI 13.1274
Core_0_LLC_demand_miss_rate 0.767208
Core_0_LLC_load_access 1711063
Core_0_LLC_load_hit 398321
Core_0_LLC_load_miss 1312742
Core_0_LLC_load_MPKI 13.1274
Core_0_LLC_load_miss_rate 0.767208
Core_0_LLC_rfo_access 0
Core_0_LLC_rfo_hit 0
Core_0_LLC_rfo_miss 0
Core_0_LLC_rfo_MPKI 0
Core_0_LLC_rfo_miss_rate 0
Core_0_LLC_prefetch_access 1666365
Core_0_LLC_prefetch_hit 1221
Core_0_LLC_prefetch_miss 1665144
Core_0_LLC_prefetch_MPKI 16.6514
Core_0_LLC_prefetch_miss_rate 0.999267
Core_0_LLC_writeback_access 2751
Core_0_LLC_writeback_hit 470
Core_0_LLC_writeback_miss 2281
Core_0_LLC_writeback_MPKI 0.02281
Core_0_LLC_writeback_miss_rate 0.829153
Core_0_LLC_prefetch_requested 0
Core_0_LLC_prefetch_issued 0
Core_0_LLC_prefetch_useful 0
Core_0_LLC_prefetch_useless 0
Core_0_LLC_prefetch_late 0
Core_0_LLC_prefetch_fill 1664444
Core_0_LLC_prefetch_too_early 0
Core_0_LLC_prefetch_too_early_among_fill 0
Core_0_LLC_prefetch_too_early_among_useless 0
Core_0_LLC_prefetch_pollution_evict 35867
Core_0_LLC_prefetch_pollution_demand 35867
Core_0_LLC_prefetch_pollution_among_prefetch_fill 0.0215489
Core_0_LLC_prefetch_accuracy 0
Core_0_LLC_prefetch_coverage 0

[DRAM Statistics]
Channel_0_RQ_row_buffer_hit 77705
Channel_0_RQ_row_buffer_miss 3067743
Channel_0_WQ_row_buffer_hit 929
Channel_0_WQ_row_buffer_miss 1947
Channel_0_WQ_full 0
Channel_0_dbus_congested 2357427
DRAM_total_RQ_row_buffer_hit 77705
DRAM_total_RQ_row_buffer_miss 3067743
DRAM_total_WQ_row_buffer_hit 929
DRAM_total_WQ_row_buffer_miss 1947
DRAM_total_WQ_full 0
DRAM_total_dbus_congested 2357427
DRAM_avg_congested_cycle 3.33888

====== DRAM_RQ_TRAFFIC ========
DRAM_RQ_READ_TRAFFIC_BREAKDOWN:
data_demand_read.count = 1312742
data_demand_read.share = 41.73%

inst_demand_read.count = 0
inst_demand_read.share = 0.00%

cache_inst_prefetch.count = 0
cache_inst_prefetch.share = 0.00%

cache_data_prefetch.count = 1664444
cache_data_prefetch.share = 52.92%

stlb_data_demand.count = 168262
stlb_data_demand.share = 5.35%

stlb_inst_demand.count = 0
stlb_inst_demand.share = 0.00%

stlb_l1i_pref.count = 0
stlb_l1i_pref.share = 0.00%

stlb_l1d_pref.count = 0
stlb_l1d_pref.share = 0.00%

DRAM_RQ_READ_TRAFFIC_SUMMARY:
cache_demand.count = 1312742
cache_demand.share = 41.73%

cache_prefetch.count = 1664444
cache_prefetch.share = 52.92%

stlb_demand.count = 168262
stlb_demand.share = 5.35%

stlb_prefetch.count = 0
stlb_prefetch.share = 0.00%

DRAM_RQ_READ_TRAFFIC_DEBUG:
total_classified_read.count = 3145448
unclassified_read.count = 0
total_read_with_other.count = 3145448

classified_plus_unclassified_check.count = 3145448
dram_rq_read_total_observed.count = 3145448
dram_rq_read_total_observed.per_1K_instructions = 31.4545

STLB_MISS_PTW_DRAM_TOUCH_BREAKDOWN:
stlb_miss_total.count = 1175325

stlb_miss_touch_dram.count = 168211
stlb_miss_touch_dram.share = 14.31%

stlb_miss_no_dram_touch.count = 1007114
stlb_miss_no_dram_touch.share = 85.69%

STLB_MISS_PTW_DRAM_TOUCH_DEBUG:
stlb_miss_touch_plus_no_touch.count = 1175325
stlb_miss_total_check.count = 1175325

======STLB miss causes ========
Core_0_STLB_miss_cause_breakdown
Core_0_STLB_cause_Demand_Data_miss 1175325
Core_0_STLB_cause_Demand_Data_miss_rate 0.689045
Core_0_STLB_cause_Demand_Instruction_miss 0
Core_0_STLB_cause_Demand_Instruction_miss_rate 0
Core_0_STLB_cause_L1D_Prefetch_miss 0
Core_0_STLB_cause_L1D_Prefetch_miss_rate 0
Core_0_STLB_cause_L1D_Prefetch_Same_Page_miss 0
Core_0_STLB_cause_L1D_Prefetch_Same_Page_miss_rate 0
Core_0_STLB_cause_L1D_Prefetch_Cross_Page_miss 0
Core_0_STLB_cause_L1D_Prefetch_Cross_Page_miss_rate 0
Core_0_STLB_cause_L1I_Prefetch_miss 0
Core_0_STLB_cause_L1I_Prefetch_miss_rate 0
Core_0_STLB_cause_Other_miss 0
Core_0_STLB_cause_Other_miss_rate 0
Core_0_STLB_Demand_miss 1175325
Core_0_STLB_Demand_miss_rate 0.689045
Core_0_STLB_L1D_Prefetch_miss 0
Core_0_STLB_L1D_Prefetch_miss_rate 0
Core_0_STLB_Other_miss 0
Core_0_STLB_Other_miss_rate 0

========== vBerti-TLB Cross-page Flow Stats ==========

Core_0_vBerti_Requested 51156047
Core_0_vBerti_Cross_page_prefetch_in_Requested 0
Core_0_vBerti_Same_page_prefetch_in_Requested 51156047
Core_0_vBerti_Cross_page_prefetch_of_Requested 0
Core_0_vBerti_Issued 24387439
Core_0_vBerti_InPQ_Same_page_prefetch 24387439
Core_0_vBerti_InPQ_Cross_page_prefetch 0
Core_0_vBerti_PQ_Drop_Rate 0.523274
Core_0_vBerti_InPQ_Cross_page_prefetch_of_Requested 0
Core_0_vBerti_Cross_page_PQ_Drop_rate 0
Core_0_vBerti_Cross_page_prefetch_of_Issued 0
Core_0_CP_PF_PQFULL_drop 0
Core_0_CP_PF_PQFULL_TLB_rescue_enqueued 0
Core_0_CP_PF_PQFULL_TLB_rescue_issued 0
Core_0_CP_PF_PQFULL_TLB_rescue_translated 0

========= DTLB_vBerti Prefetch Stats =========
Core_0_DTLB_demand_access 21036150
Core_0_DTLB_demand_hit 19314591
Core_0_DTLB_demand_miss 1721559
Core_0_DTLB_demand_mshr_merge 15829
Core_0_DTLB_demand_fill 1705731
Core_0_DTLB_demand_miss_rate 0.0818381
Core_0_DTLB_demand_mpki 17.2156
Core_0_DTLB_vberti_prefetch_access 14002786
Core_0_DTLB_vberti_prefetch_hit 14002786
Core_0_DTLB_vberti_prefetch_miss 0
Core_0_DTLB_vberti_prefetch_mshr_merge 0
Core_0_DTLB_vberti_prefetch_fill 0
Core_0_DTLB_vberti_prefetch_miss_rate 0
Core_0_DTLB_vberti_prefetch_mpki 0

=== DTLB_vBerti Same/Cross-page Prefetch Stats ===
Core_0_DTLB_vberti_same_page_prefetch 14002786
Core_0_DTLB_vberti_same_page_prefetch_hit 14002786
Core_0_DTLB_vberti_same_page_prefetch_miss 0
Core_0_DTLB_vberti_same_page_prefetch_mshr_merge 0
Core_0_DTLB_vberti_same_page_prefetch_fill 0
Core_0_DTLB_vberti_same_page_prefetch_miss_rate 0
Core_0_DTLB_vberti_same_page_prefetch_mpki 0
Core_0_DTLB_vberti_cross_page_prefetch 0
Core_0_DTLB_vberti_cross_page_prefetch_hit 0
Core_0_DTLB_vberti_cross_page_prefetch_miss 0
Core_0_DTLB_vberti_cross_page_prefetch_mshr_merge 0
Core_0_DTLB_vberti_cross_page_prefetch_fill 0
Core_0_DTLB_vberti_cross_page_prefetch_miss_rate 0
Core_0_DTLB_vberti_cross_page_prefetch_mpki 0
Core_0_DTLB_same_page_prefetch_miss_rate 0
Core_0_DTLB_same_page_prefetch_mpki 0
Core_0_DTLB_cross_page_prefetch_miss_rate 0
Core_0_DTLB_cross_page_prefetch_mpki 0
Core_0_DTLB_cross_page_prefetch_issued 0
Core_0_DTLB_cross_page_prefetch_lookups 0
Core_0_DTLB_cross_page_prefetch_useful 0
Core_0_DTLB_cross_page_prefetch_useless 0
Core_0_DTLB_cross_page_prefetch_late 0
Core_0_DTLB_cross_page_prefetch_too_early 0
Core_0_DTLB_cross_page_prefetch_too_early_among_fill 0
Core_0_DTLB_cross_page_prefetch_too_early_among_useless 0
Core_0_DTLB_cross_page_prefetch_pollution_evict 0
Core_0_DTLB_cross_page_prefetch_pollution_demand 0
Core_0_DTLB_cross_page_prefetch_pollution_among_prefetch_fill 0
Core_0_DTLB_cross_page_prefetch_accuracy 0
Core_0_DTLB_cross_page_prefetch_coverage 0

========= STLB_vBerti Prefetch Stats =========
Core_0_STLB_demand_access 1705730
Core_0_STLB_demand_hit 530405
Core_0_STLB_demand_miss 1175325
Core_0_STLB_demand_mshr_merge 0
Core_0_STLB_demand_fill 1175326
Core_0_STLB_demand_miss_rate 0.689045
Core_0_STLB_demand_mpki 11.7532
Core_0_STLB_vberti_prefetch_access 0
Core_0_STLB_vberti_prefetch_hit 0
Core_0_STLB_vberti_prefetch_miss 0
Core_0_STLB_vberti_prefetch_mshr_merge 0
Core_0_STLB_vberti_prefetch_fill 0
Core_0_STLB_vberti_prefetch_miss_rate 0
Core_0_STLB_vberti_prefetch_mpki 0

=== STLB_vBerti Same/Cross-page Prefetch Stats ===
Core_0_STLB_vberti_same_page_prefetch 0
Core_0_STLB_vberti_same_page_prefetch_hit 0
Core_0_STLB_vberti_same_page_prefetch_miss 0
Core_0_STLB_vberti_same_page_prefetch_mshr_merge 0
Core_0_STLB_vberti_same_page_prefetch_fill 0
Core_0_STLB_vberti_same_page_prefetch_miss_rate 0
Core_0_STLB_vberti_same_page_prefetch_mpki 0
Core_0_STLB_vberti_cross_page_prefetch 0
Core_0_STLB_vberti_cross_page_prefetch_hit 0
Core_0_STLB_vberti_cross_page_prefetch_miss 0
Core_0_STLB_vberti_cross_page_prefetch_mshr_merge 0
Core_0_STLB_vberti_cross_page_prefetch_fill 0
Core_0_STLB_vberti_cross_page_prefetch_miss_rate 0
Core_0_STLB_vberti_cross_page_prefetch_mpki 0
Core_0_STLB_same_page_prefetch_miss_rate 0
Core_0_STLB_same_page_prefetch_mpki 0
Core_0_STLB_cross_page_prefetch_miss_rate 0
Core_0_STLB_cross_page_prefetch_mpki 0
Core_0_STLB_cross_page_prefetch_issued 0
Core_0_STLB_cross_page_prefetch_lookups 0
Core_0_STLB_cross_page_prefetch_useful 0
Core_0_STLB_cross_page_prefetch_useless 0
Core_0_STLB_cross_page_prefetch_late 0
Core_0_STLB_cross_page_prefetch_too_early 0
Core_0_STLB_cross_page_prefetch_too_early_among_fill 0
Core_0_STLB_cross_page_prefetch_too_early_among_useless 0
Core_0_STLB_cross_page_prefetch_pollution_evict 0
Core_0_STLB_cross_page_prefetch_pollution_demand 0
Core_0_STLB_cross_page_prefetch_pollution_among_prefetch_fill 0
Core_0_STLB_cross_page_prefetch_accuracy 0
Core_0_STLB_cross_page_prefetch_coverage 0

========= STLB Cross-page Prefetch Buffer Stats =========
Core_0_STLB_raw_demand_miss 1175325
Core_0_CP_PB_insert 0
Core_0_CP_PB_demand_hit 0
Core_0_STLB_PB_demand_miss 1175325
Core_0_CP_PB_coverage 0
Core_0_STLB_raw_demand_mpki 11.7532
Core_0_STLB_PB_demand_mpki 11.7532
Core_0_CP_PB_demand_hit_mpki 0

Core_0_TLB_demand_miss_rate 0.0558717
Core_0_TLB_demand_mpki 11.7532
Core_0_TLB_same_page_prefetch_miss_rate 0
Core_0_TLB_same_page_prefetch_mpki 0
Core_0_TLB_cross_page_prefetch_miss_rate 0
Core_0_TLB_cross_page_prefetch_mpki 0
Core_0_TLB_cross_page_prefetch_issued 0
Core_0_TLB_cross_page_prefetch_lookups 0
Core_0_TLB_cross_page_prefetch_useful 0
Core_0_TLB_cross_page_prefetch_useless 0
Core_0_TLB_cross_page_prefetch_late 0
Core_0_TLB_cross_page_prefetch_too_early 0
Core_0_TLB_cross_page_prefetch_too_early_among_fill 0
Core_0_TLB_cross_page_prefetch_too_early_among_useless 0
Core_0_TLB_cross_page_prefetch_accuracy 0
Core_0_TLB_cross_page_prefetch_coverage 0
====== vBerti internal metric ========
BERTI TO_L1: 39991563 TO_L2: 11164484 TO_L2_BC_MSHR: 363
BERTI AVG_LAT: 117.795 NUM_TRACK_LATENCY: 3367391 NUM_CANT_TRACK_LATENCY: 0
BERTI CROSS_PAGE 6912093 NO_CROSS_PAGE: 51156047
BERTI FOUND_BERTI: 12876111 NO_FOUND_BERTI: 8365329
BERTI AVERAGE_ISSUED: 5.00163
