[VMEM] WARNING: physical memory size is smaller than virtual memory size.

*** ChampSim Multicore Out-of-Order Simulator ***
Warmup Instructions: 50000000
Simulation Instructions: 100000000
Number of CPUs: 1
Page size: 4096
Core 0: /data0/tzh/champsim_traces/PARSEC/parsec_2.1.canneal.simlarge.prebuilt.drop_1250M.length_250M.champsimtrace.xz
VBerti Prefetcher
No Crossing Page
BERTI HASH ENTANGLING
BERTI IP MASK ffff
Off-chip DRAM Size: 16 GiB Channels: 1 Width: 64-bit Data Rate: 3205 MT/s
Warmup halting CPU 0 at instruction 50000002 cycle 12242408 for remainder of phase
Warmup finished CPU 0 instructions: 50000002 cycles: 12242408 cumulative IPC: 4.084 (Simulation time: 00 hr 02 min 43 sec)
Warmup complete CPU 0 instructions: 50000002 cycles: 12242408 cumulative IPC: 4.084 (Simulation time: 00 hr 02 min 43 sec)
Simulation finished CPU 0 instructions: 100000002 cycles: 200429375 cumulative IPC: 0.4989 (Simulation time: 00 hr 19 min 21 sec)
Simulation complete CPU 0 instructions: 100000002 cycles: 200429375 cumulative IPC: 0.4989 (Simulation time: 00 hr 19 min 21 sec)

ChampSim completed all CPUs

=== Simulation ===
CPU 0 runs /data0/tzh/champsim_traces/PARSEC/parsec_2.1.canneal.simlarge.prebuilt.drop_1250M.length_250M.champsimtrace.xz

Region of Interest Statistics

CPU 0 cumulative IPC: 0.4989 instructions: 100000002 cycles: 200429375
CPU 0 Branch Prediction Accuracy: 95.75% MPKI: 8.382 Average ROB Occupancy at Mispredict: 74.03
Branch type MPKI
BRANCH_DIRECT_JUMP: 1e-05
BRANCH_INDIRECT: 0.05726
BRANCH_CONDITIONAL: 8.175
BRANCH_DIRECT_CALL: 0.1499
BRANCH_INDIRECT_CALL: 6e-05
BRANCH_RETURN: 1e-05

cpu0->cpu0_STLB TOTAL        ACCESS:     866866 HIT:     565927 MISS:     300939 MSHR_MERGE:          0
cpu0->cpu0_STLB LOAD         ACCESS:     866866 HIT:     565927 MISS:     300939 MSHR_MERGE:          0
cpu0->cpu0_STLB RFO          ACCESS:          0 HIT:          0 MISS:          0 MSHR_MERGE:          0
cpu0->cpu0_STLB PREFETCH     ACCESS:          0 HIT:          0 MISS:          0 MSHR_MERGE:          0
cpu0->cpu0_STLB WRITE        ACCESS:          0 HIT:          0 MISS:          0 MSHR_MERGE:          0
cpu0->cpu0_STLB TRANSLATION  ACCESS:          0 HIT:          0 MISS:          0 MSHR_MERGE:          0
cpu0->cpu0_STLB PREFETCH REQUESTED:          0 ISSUED:          0 USEFUL:          0 USELESS:          0 LATE:          0 TOO_EARLY:          0
cpu0->cpu0_STLB AVERAGE MISS LATENCY: 26.43 cycles
cpu0->cpu0_L2C TOTAL        ACCESS:    1968473 HIT:     846293 MISS:    1122180 MSHR_MERGE:       1756
cpu0->cpu0_L2C LOAD         ACCESS:    1349640 HIT:     390767 MISS:     958873 MSHR_MERGE:          0
cpu0->cpu0_L2C RFO          ACCESS:       8187 HIT:       3785 MISS:       4402 MSHR_MERGE:         97
cpu0->cpu0_L2C PREFETCH     ACCESS:     150379 HIT:      96337 MISS:      54042 MSHR_MERGE:       1659
cpu0->cpu0_L2C WRITE        ACCESS:     189925 HIT:     189537 MISS:        388 MSHR_MERGE:          0
cpu0->cpu0_L2C TRANSLATION  ACCESS:     270342 HIT:     165867 MISS:     104475 MSHR_MERGE:          0
cpu0->cpu0_L2C PREFETCH REQUESTED:      44334 ISSUED:      44334 USEFUL:      28540 USELESS:         72 LATE:          2 TOO_EARLY:         15
cpu0->cpu0_L2C AVERAGE MISS LATENCY: 134.3 cycles
cpu0->cpu0_L1I TOTAL        ACCESS:   10798072 HIT:   10780175 MISS:      17897 MSHR_MERGE:        712
cpu0->cpu0_L1I LOAD         ACCESS:   10798072 HIT:   10780175 MISS:      17897 MSHR_MERGE:        712
cpu0->cpu0_L1I RFO          ACCESS:          0 HIT:          0 MISS:          0 MSHR_MERGE:          0
cpu0->cpu0_L1I PREFETCH     ACCESS:          0 HIT:          0 MISS:          0 MSHR_MERGE:          0
cpu0->cpu0_L1I WRITE        ACCESS:          0 HIT:          0 MISS:          0 MSHR_MERGE:          0
cpu0->cpu0_L1I TRANSLATION  ACCESS:          0 HIT:          0 MISS:          0 MSHR_MERGE:          0
cpu0->cpu0_L1I PREFETCH REQUESTED:          0 ISSUED:          0 USEFUL:          0 USELESS:          0 LATE:          0 TOO_EARLY:          0
cpu0->cpu0_L1I AVERAGE MISS LATENCY: 8.838 cycles
cpu0->cpu0_L1D TOTAL        ACCESS:   31152009 HIT:   29354495 MISS:    1797514 MSHR_MERGE:      80482
cpu0->cpu0_L1D LOAD         ACCESS:   19467084 HIT:   18057942 MISS:    1409142 MSHR_MERGE:      76687
cpu0->cpu0_L1D RFO          ACCESS:          0 HIT:          0 MISS:          0 MSHR_MERGE:          0
cpu0->cpu0_L1D PREFETCH     ACCESS:     324631 HIT:     218572 MISS:     106059 MSHR_MERGE:         11
cpu0->cpu0_L1D WRITE        ACCESS:   10749425 HIT:   10737761 MISS:      11664 MSHR_MERGE:       3477
cpu0->cpu0_L1D TRANSLATION  ACCESS:     610869 HIT:     340220 MISS:     270649 MSHR_MERGE:        307
cpu0->cpu0_L1D PREFETCH REQUESTED:     324631 ISSUED:     324631 USEFUL:      48126 USELESS:         67 LATE:        120 TOO_EARLY:          1
cpu0->cpu0_L1D AVERAGE MISS LATENCY: 97.69 cycles
cpu0->cpu0_ITLB TOTAL        ACCESS:    9379676 HIT:    9379610 MISS:         66 MSHR_MERGE:         22
cpu0->cpu0_ITLB LOAD         ACCESS:    9379676 HIT:    9379610 MISS:         66 MSHR_MERGE:         22
cpu0->cpu0_ITLB RFO          ACCESS:          0 HIT:          0 MISS:          0 MSHR_MERGE:          0
cpu0->cpu0_ITLB PREFETCH     ACCESS:          0 HIT:          0 MISS:          0 MSHR_MERGE:          0
cpu0->cpu0_ITLB WRITE        ACCESS:          0 HIT:          0 MISS:          0 MSHR_MERGE:          0
cpu0->cpu0_ITLB TRANSLATION  ACCESS:          0 HIT:          0 MISS:          0 MSHR_MERGE:          0
cpu0->cpu0_ITLB PREFETCH REQUESTED:          0 ISSUED:          0 USEFUL:          0 USELESS:          0 LATE:          0 TOO_EARLY:          0
cpu0->cpu0_ITLB AVERAGE MISS LATENCY: 172.4 cycles
cpu0->cpu0_DTLB TOTAL        ACCESS:   29211520 HIT:   28168698 MISS:    1042822 MSHR_MERGE:     176001
cpu0->cpu0_DTLB LOAD         ACCESS:   29211520 HIT:   28168698 MISS:    1042822 MSHR_MERGE:     176001
cpu0->cpu0_DTLB RFO          ACCESS:          0 HIT:          0 MISS:          0 MSHR_MERGE:          0
cpu0->cpu0_DTLB PREFETCH     ACCESS:          0 HIT:          0 MISS:          0 MSHR_MERGE:          0
cpu0->cpu0_DTLB WRITE        ACCESS:          0 HIT:          0 MISS:          0 MSHR_MERGE:          0
cpu0->cpu0_DTLB TRANSLATION  ACCESS:          0 HIT:          0 MISS:          0 MSHR_MERGE:          0
cpu0->cpu0_DTLB PREFETCH REQUESTED:          0 ISSUED:          0 USEFUL:          0 USELESS:          0 LATE:          0 TOO_EARLY:          0
cpu0->cpu0_DTLB AVERAGE MISS LATENCY: 14.51 cycles
cpu0->LLC TOTAL        ACCESS:    1305488 HIT:     545237 MISS:     760251 MSHR_MERGE:          0
cpu0->LLC LOAD         ACCESS:     958873 HIT:     275258 MISS:     683615 MSHR_MERGE:          0
cpu0->LLC RFO          ACCESS:       4305 HIT:         66 MISS:       4239 MSHR_MERGE:          0
cpu0->LLC PREFETCH     ACCESS:      52383 HIT:       4322 MISS:      48061 MSHR_MERGE:          0
cpu0->LLC WRITE        ACCESS:     185452 HIT:     164117 MISS:      21335 MSHR_MERGE:          0
cpu0->LLC TRANSLATION  ACCESS:     104475 HIT:     101474 MISS:       3001 MSHR_MERGE:          0
cpu0->LLC PREFETCH REQUESTED:          0 ISSUED:          0 USEFUL:          0 USELESS:          0 LATE:          0 TOO_EARLY:          0
cpu0->LLC AVERAGE MISS LATENCY: 178.2 cycles

DRAM Statistics

Channel 0 RQ ROW_BUFFER_HIT:        387
  ROW_BUFFER_MISS:     738528
  AVG DBUS CONGESTED CYCLE: 22.58
Channel 0 WQ ROW_BUFFER_HIT:      83817
  ROW_BUFFER_MISS:     100295
  FULL:          0
Channel 0 REFRESHES ISSUED:      16702

[ROI Statistics]
[System Configuration]
num_cpus 1
cpu_freq 4000
fetch_width 6
decode_width 6
dispatch_width 6
execute_width 6
lq_width 2
sq_width 2
retire_width 6
scheduler_size 128
branch_mispredict_penalty 15
rob_size 352
lq_size 128
sq_size 72
ifetch_buffer_size 64
decode_buffer_size 32
dispatch_buffer_size 32
register_file_size 288
decode_latency 1
dispatch_latency 1
schedule_latency 1
execute_latency 1
page_size 4096
block_size 64
core_0_itlb_set 16
core_0_itlb_way 4
core_0_itlb_rq_size 16
core_0_itlb_wq_size 16
core_0_itlb_pq_size 0
core_0_itlb_mshr_size 8
core_0_itlb_hit_latency 1
core_0_itlb_fill_latency 1
core_0_itlb_max_tag_check 2
core_0_itlb_max_fill 2
core_0_dtlb_set 16
core_0_dtlb_way 4
core_0_dtlb_rq_size 16
core_0_dtlb_wq_size 16
core_0_dtlb_pq_size 0
core_0_dtlb_mshr_size 8
core_0_dtlb_hit_latency 1
core_0_dtlb_fill_latency 1
core_0_dtlb_max_tag_check 2
core_0_dtlb_max_fill 2
core_0_stlb_set 128
core_0_stlb_way 12
core_0_stlb_rq_size 32
core_0_stlb_wq_size 32
core_0_stlb_pq_size 0
core_0_stlb_mshr_size 16
core_0_stlb_hit_latency 4
core_0_stlb_fill_latency 4
core_0_stlb_max_tag_check 1
core_0_stlb_max_fill 1
core_0_l1i_set 64
core_0_l1i_way 8
core_0_l1i_rq_size 64
core_0_l1i_wq_size 64
core_0_l1i_pq_size 32
core_0_l1i_mshr_size 8
core_0_l1i_hit_latency 2
core_0_l1i_fill_latency 2
core_0_l1i_max_tag_check 2
core_0_l1i_max_fill 2
core_0_l1d_set 64
core_0_l1d_way 12
core_0_l1d_rq_size 64
core_0_l1d_wq_size 64
core_0_l1d_pq_size 8
core_0_l1d_mshr_size 16
core_0_l1d_hit_latency 2
core_0_l1d_fill_latency 3
core_0_l1d_max_tag_check 2
core_0_l1d_max_fill 2
core_0_l2c_set 1024
core_0_l2c_way 8
core_0_l2c_rq_size 32
core_0_l2c_wq_size 32
core_0_l2c_pq_size 16
core_0_l2c_mshr_size 32
core_0_l2c_hit_latency 5
core_0_l2c_fill_latency 5
core_0_l2c_max_tag_check 1
core_0_l2c_max_fill 1
llc_set 2048
llc_way 16
llc_rq_size 32
llc_wq_size 32
llc_pq_size 32
llc_mshr_size 64
llc_hit_latency 10
llc_fill_latency 10
llc_max_tag_check 1
llc_max_fill 1
dram_channels 1
dram_ranks 1
dram_bankgroups 8
dram_banks 4
dram_rows 65536
dram_columns 1024
dram_channel_width 8
dram_rq_size 64
dram_wq_size 64
dram_size 17179869184
core_0_itlb_prefetcher no
core_0_dtlb_prefetcher no
core_0_stlb_prefetcher no
core_0_l1i_prefetcher next_line
core_0_l1d_prefetcher vberti_nocross
core_0_l2c_prefetcher ip_stride
llc_prefetcher no
llc_replacement drrip

Core_0_instructions 100000002
Core_0_cycles 200429375
Core_0_IPC 0.498929
Core_0_branch_prediction_accuracy 95.7482
Core_0_branch_MPKI 8.3818
Core_0_average_ROB_occupancy_at_mispredict 74.0319

Core_0_ITLB_total_access 9379676
Core_0_ITLB_total_hit 9379610
Core_0_ITLB_total_miss 66
Core_0_ITLB_total_MPKI 0.00066
Core_0_ITLB_total_miss_rate 7.03649e-06
Core_0_ITLB_demand_access 9379676
Core_0_ITLB_demand_hit 9379610
Core_0_ITLB_demand_miss 66
Core_0_ITLB_demand_MPKI 0.00066
Core_0_ITLB_demand_miss_rate 7.03649e-06
Core_0_ITLB_load_access 9379676
Core_0_ITLB_load_hit 9379610
Core_0_ITLB_load_miss 66
Core_0_ITLB_load_MPKI 0.00066
Core_0_ITLB_load_miss_rate 7.03649e-06
Core_0_ITLB_rfo_access 0
Core_0_ITLB_rfo_hit 0
Core_0_ITLB_rfo_miss 0
Core_0_ITLB_rfo_MPKI 0
Core_0_ITLB_rfo_miss_rate 0
Core_0_ITLB_prefetch_access 0
Core_0_ITLB_prefetch_hit 0
Core_0_ITLB_prefetch_miss 0
Core_0_ITLB_prefetch_MPKI 0
Core_0_ITLB_prefetch_miss_rate 0
Core_0_ITLB_writeback_access 0
Core_0_ITLB_writeback_hit 0
Core_0_ITLB_writeback_miss 0
Core_0_ITLB_writeback_MPKI 0
Core_0_ITLB_writeback_miss_rate 0
Core_0_ITLB_prefetch_requested 0
Core_0_ITLB_prefetch_issued 0
Core_0_ITLB_prefetch_useful 0
Core_0_ITLB_prefetch_useless 0
Core_0_ITLB_prefetch_late 0
Core_0_ITLB_prefetch_fill 0
Core_0_ITLB_prefetch_too_early 0
Core_0_ITLB_prefetch_too_early_among_fill 0
Core_0_ITLB_prefetch_too_early_among_useless 0
Core_0_ITLB_prefetch_pollution_evict 0
Core_0_ITLB_prefetch_pollution_demand 0
Core_0_ITLB_prefetch_pollution_among_prefetch_fill 0
Core_0_ITLB_prefetch_accuracy 0
Core_0_ITLB_prefetch_coverage 0

Core_0_DTLB_total_access 29211520
Core_0_DTLB_total_hit 28168698
Core_0_DTLB_total_miss 1042822
Core_0_DTLB_total_MPKI 10.4282
Core_0_DTLB_total_miss_rate 0.035699
Core_0_DTLB_demand_access 29211520
Core_0_DTLB_demand_hit 28168698
Core_0_DTLB_demand_miss 1042822
Core_0_DTLB_demand_MPKI 10.4282
Core_0_DTLB_demand_miss_rate 0.035699
Core_0_DTLB_load_access 29211520
Core_0_DTLB_load_hit 28168698
Core_0_DTLB_load_miss 1042822
Core_0_DTLB_load_MPKI 10.4282
Core_0_DTLB_load_miss_rate 0.035699
Core_0_DTLB_rfo_access 0
Core_0_DTLB_rfo_hit 0
Core_0_DTLB_rfo_miss 0
Core_0_DTLB_rfo_MPKI 0
Core_0_DTLB_rfo_miss_rate 0
Core_0_DTLB_prefetch_access 0
Core_0_DTLB_prefetch_hit 0
Core_0_DTLB_prefetch_miss 0
Core_0_DTLB_prefetch_MPKI 0
Core_0_DTLB_prefetch_miss_rate 0
Core_0_DTLB_writeback_access 0
Core_0_DTLB_writeback_hit 0
Core_0_DTLB_writeback_miss 0
Core_0_DTLB_writeback_MPKI 0
Core_0_DTLB_writeback_miss_rate 0
Core_0_DTLB_prefetch_requested 0
Core_0_DTLB_prefetch_issued 0
Core_0_DTLB_prefetch_useful 0
Core_0_DTLB_prefetch_useless 0
Core_0_DTLB_prefetch_late 0
Core_0_DTLB_prefetch_fill 0
Core_0_DTLB_prefetch_too_early 0
Core_0_DTLB_prefetch_too_early_among_fill 0
Core_0_DTLB_prefetch_too_early_among_useless 0
Core_0_DTLB_prefetch_pollution_evict 0
Core_0_DTLB_prefetch_pollution_demand 0
Core_0_DTLB_prefetch_pollution_among_prefetch_fill 0
Core_0_DTLB_prefetch_accuracy 0
Core_0_DTLB_prefetch_coverage 0

Core_0_STLB_total_access 866866
Core_0_STLB_total_hit 565927
Core_0_STLB_total_miss 300939
Core_0_STLB_total_MPKI 3.00939
Core_0_STLB_total_miss_rate 0.347157
Core_0_STLB_demand_access 866866
Core_0_STLB_demand_hit 565927
Core_0_STLB_demand_miss 300939
Core_0_STLB_demand_MPKI 3.00939
Core_0_STLB_demand_miss_rate 0.347157
Core_0_STLB_load_access 866866
Core_0_STLB_load_hit 565927
Core_0_STLB_load_miss 300939
Core_0_STLB_load_MPKI 3.00939
Core_0_STLB_load_miss_rate 0.347157
Core_0_STLB_rfo_access 0
Core_0_STLB_rfo_hit 0
Core_0_STLB_rfo_miss 0
Core_0_STLB_rfo_MPKI 0
Core_0_STLB_rfo_miss_rate 0
Core_0_STLB_prefetch_access 0
Core_0_STLB_prefetch_hit 0
Core_0_STLB_prefetch_miss 0
Core_0_STLB_prefetch_MPKI 0
Core_0_STLB_prefetch_miss_rate 0
Core_0_STLB_writeback_access 0
Core_0_STLB_writeback_hit 0
Core_0_STLB_writeback_miss 0
Core_0_STLB_writeback_MPKI 0
Core_0_STLB_writeback_miss_rate 0
Core_0_STLB_prefetch_requested 0
Core_0_STLB_prefetch_issued 0
Core_0_STLB_prefetch_useful 0
Core_0_STLB_prefetch_useless 0
Core_0_STLB_prefetch_late 0
Core_0_STLB_prefetch_fill 0
Core_0_STLB_prefetch_too_early 0
Core_0_STLB_prefetch_too_early_among_fill 0
Core_0_STLB_prefetch_too_early_among_useless 0
Core_0_STLB_prefetch_pollution_evict 0
Core_0_STLB_prefetch_pollution_demand 0
Core_0_STLB_prefetch_pollution_among_prefetch_fill 0
Core_0_STLB_prefetch_accuracy 0
Core_0_STLB_prefetch_coverage 0

Core_0_L1I_total_access 10798072
Core_0_L1I_total_hit 10780175
Core_0_L1I_total_miss 17897
Core_0_L1I_total_MPKI 0.17897
Core_0_L1I_total_miss_rate 0.00165743
Core_0_L1I_demand_access 10798072
Core_0_L1I_demand_hit 10780175
Core_0_L1I_demand_miss 17897
Core_0_L1I_demand_MPKI 0.17897
Core_0_L1I_demand_miss_rate 0.00165743
Core_0_L1I_load_access 10798072
Core_0_L1I_load_hit 10780175
Core_0_L1I_load_miss 17897
Core_0_L1I_load_MPKI 0.17897
Core_0_L1I_load_miss_rate 0.00165743
Core_0_L1I_rfo_access 0
Core_0_L1I_rfo_hit 0
Core_0_L1I_rfo_miss 0
Core_0_L1I_rfo_MPKI 0
Core_0_L1I_rfo_miss_rate 0
Core_0_L1I_prefetch_access 0
Core_0_L1I_prefetch_hit 0
Core_0_L1I_prefetch_miss 0
Core_0_L1I_prefetch_MPKI 0
Core_0_L1I_prefetch_miss_rate 0
Core_0_L1I_writeback_access 0
Core_0_L1I_writeback_hit 0
Core_0_L1I_writeback_miss 0
Core_0_L1I_writeback_MPKI 0
Core_0_L1I_writeback_miss_rate 0
Core_0_L1I_prefetch_requested 0
Core_0_L1I_prefetch_issued 0
Core_0_L1I_prefetch_useful 0
Core_0_L1I_prefetch_useless 0
Core_0_L1I_prefetch_late 0
Core_0_L1I_prefetch_fill 0
Core_0_L1I_prefetch_too_early 0
Core_0_L1I_prefetch_too_early_among_fill 0
Core_0_L1I_prefetch_too_early_among_useless 0
Core_0_L1I_prefetch_pollution_evict 0
Core_0_L1I_prefetch_pollution_demand 0
Core_0_L1I_prefetch_pollution_among_prefetch_fill 0
Core_0_L1I_prefetch_accuracy 0
Core_0_L1I_prefetch_coverage 0

Core_0_L1D_total_access 30541140
Core_0_L1D_total_hit 29014275
Core_0_L1D_total_miss 1526865
Core_0_L1D_total_MPKI 15.2686
Core_0_L1D_total_miss_rate 0.0499937
Core_0_L1D_demand_access 19467084
Core_0_L1D_demand_hit 18057942
Core_0_L1D_demand_miss 1409142
Core_0_L1D_demand_MPKI 14.0914
Core_0_L1D_demand_miss_rate 0.0723859
Core_0_L1D_load_access 19467084
Core_0_L1D_load_hit 18057942
Core_0_L1D_load_miss 1409142
Core_0_L1D_load_MPKI 14.0914
Core_0_L1D_load_miss_rate 0.0723859
Core_0_L1D_rfo_access 0
Core_0_L1D_rfo_hit 0
Core_0_L1D_rfo_miss 0
Core_0_L1D_rfo_MPKI 0
Core_0_L1D_rfo_miss_rate 0
Core_0_L1D_prefetch_access 324631
Core_0_L1D_prefetch_hit 218572
Core_0_L1D_prefetch_miss 106059
Core_0_L1D_prefetch_MPKI 1.06059
Core_0_L1D_prefetch_miss_rate 0.326706
Core_0_L1D_writeback_access 10749425
Core_0_L1D_writeback_hit 10737761
Core_0_L1D_writeback_miss 11664
Core_0_L1D_writeback_MPKI 0.11664
Core_0_L1D_writeback_miss_rate 0.00108508
Core_0_L1D_prefetch_requested 324631
Core_0_L1D_prefetch_issued 324631
Core_0_L1D_prefetch_useful 48126
Core_0_L1D_prefetch_useless 67
Core_0_L1D_prefetch_late 120
Core_0_L1D_prefetch_fill 48072
Core_0_L1D_prefetch_too_early 1
Core_0_L1D_prefetch_too_early_among_fill 2.08021e-05
Core_0_L1D_prefetch_too_early_among_useless 0.0149254
Core_0_L1D_prefetch_pollution_evict 15255
Core_0_L1D_prefetch_pollution_demand 15255
Core_0_L1D_prefetch_pollution_among_prefetch_fill 0.317336
Core_0_L1D_prefetch_accuracy 0.148248
Core_0_L1D_prefetch_coverage 0.0330248

Core_0_L2C_total_access 1698131
Core_0_L2C_total_hit 680426
Core_0_L2C_total_miss 1017705
Core_0_L2C_total_MPKI 10.177
Core_0_L2C_total_miss_rate 0.599309
Core_0_L2C_demand_access 1357827
Core_0_L2C_demand_hit 394552
Core_0_L2C_demand_miss 963275
Core_0_L2C_demand_MPKI 9.63275
Core_0_L2C_demand_miss_rate 0.709424
Core_0_L2C_load_access 1349640
Core_0_L2C_load_hit 390767
Core_0_L2C_load_miss 958873
Core_0_L2C_load_MPKI 9.58873
Core_0_L2C_load_miss_rate 0.710466
Core_0_L2C_rfo_access 8187
Core_0_L2C_rfo_hit 3785
Core_0_L2C_rfo_miss 4402
Core_0_L2C_rfo_MPKI 0.04402
Core_0_L2C_rfo_miss_rate 0.537682
Core_0_L2C_prefetch_access 150379
Core_0_L2C_prefetch_hit 96337
Core_0_L2C_prefetch_miss 54042
Core_0_L2C_prefetch_MPKI 0.54042
Core_0_L2C_prefetch_miss_rate 0.359372
Core_0_L2C_writeback_access 189925
Core_0_L2C_writeback_hit 189537
Core_0_L2C_writeback_miss 388
Core_0_L2C_writeback_MPKI 0.00388
Core_0_L2C_writeback_miss_rate 0.00204291
Core_0_L2C_prefetch_requested 44334
Core_0_L2C_prefetch_issued 44334
Core_0_L2C_prefetch_useful 28540
Core_0_L2C_prefetch_useless 72
Core_0_L2C_prefetch_late 2
Core_0_L2C_prefetch_fill 52286
Core_0_L2C_prefetch_too_early 15
Core_0_L2C_prefetch_too_early_among_fill 0.000286884
Core_0_L2C_prefetch_too_early_among_useless 0.208333
Core_0_L2C_prefetch_pollution_evict 21058
Core_0_L2C_prefetch_pollution_demand 21058
Core_0_L2C_prefetch_pollution_among_prefetch_fill 0.402746
Core_0_L2C_prefetch_accuracy 0.64375
Core_0_L2C_prefetch_coverage 0.0287755

Core_0_LLC_total_access 1201013
Core_0_LLC_total_hit 443763
Core_0_LLC_total_miss 757250
Core_0_LLC_total_MPKI 7.5725
Core_0_LLC_total_miss_rate 0.630509
Core_0_LLC_demand_access 963178
Core_0_LLC_demand_hit 275324
Core_0_LLC_demand_miss 687854
Core_0_LLC_demand_MPKI 6.87854
Core_0_LLC_demand_miss_rate 0.71415
Core_0_LLC_load_access 958873
Core_0_LLC_load_hit 275258
Core_0_LLC_load_miss 683615
Core_0_LLC_load_MPKI 6.83615
Core_0_LLC_load_miss_rate 0.712936
Core_0_LLC_rfo_access 4305
Core_0_LLC_rfo_hit 66
Core_0_LLC_rfo_miss 4239
Core_0_LLC_rfo_MPKI 0.04239
Core_0_LLC_rfo_miss_rate 0.984669
Core_0_LLC_prefetch_access 52383
Core_0_LLC_prefetch_hit 4322
Core_0_LLC_prefetch_miss 48061
Core_0_LLC_prefetch_MPKI 0.48061
Core_0_LLC_prefetch_miss_rate 0.917492
Core_0_LLC_writeback_access 185452
Core_0_LLC_writeback_hit 164117
Core_0_LLC_writeback_miss 21335
Core_0_LLC_writeback_MPKI 0.21335
Core_0_LLC_writeback_miss_rate 0.115043
Core_0_LLC_prefetch_requested 0
Core_0_LLC_prefetch_issued 0
Core_0_LLC_prefetch_useful 0
Core_0_LLC_prefetch_useless 0
Core_0_LLC_prefetch_late 0
Core_0_LLC_prefetch_fill 48061
Core_0_LLC_prefetch_too_early 0
Core_0_LLC_prefetch_too_early_among_fill 0
Core_0_LLC_prefetch_too_early_among_useless 0
Core_0_LLC_prefetch_pollution_evict 21226
Core_0_LLC_prefetch_pollution_demand 21226
Core_0_LLC_prefetch_pollution_among_prefetch_fill 0.441647
Core_0_LLC_prefetch_accuracy 0
Core_0_LLC_prefetch_coverage 0

[DRAM Statistics]
Channel_0_RQ_row_buffer_hit 387
Channel_0_RQ_row_buffer_miss 738528
Channel_0_WQ_row_buffer_hit 83817
Channel_0_WQ_row_buffer_miss 100295
Channel_0_WQ_full 0
Channel_0_dbus_congested 3224414
DRAM_total_RQ_row_buffer_hit 387
DRAM_total_RQ_row_buffer_miss 738528
DRAM_total_WQ_row_buffer_hit 83817
DRAM_total_WQ_row_buffer_miss 100295
DRAM_total_WQ_full 0
DRAM_total_dbus_congested 3224414
DRAM_avg_congested_cycle 22.5849

====== DRAM_RQ_TRAFFIC ========
DRAM_RQ_READ_TRAFFIC_BREAKDOWN:
data_demand_read.count = 687715
data_demand_read.share = 93.07%

inst_demand_read.count = 139
inst_demand_read.share = 0.02%

cache_inst_prefetch.count = 0
cache_inst_prefetch.share = 0.00%

cache_data_prefetch.count = 48061
cache_data_prefetch.share = 6.50%

stlb_data_demand.count = 2977
stlb_data_demand.share = 0.40%

stlb_inst_demand.count = 24
stlb_inst_demand.share = 0.00%

stlb_l1i_pref.count = 0
stlb_l1i_pref.share = 0.00%

stlb_l1d_pref.count = 0
stlb_l1d_pref.share = 0.00%

DRAM_RQ_READ_TRAFFIC_SUMMARY:
cache_demand.count = 687854
cache_demand.share = 93.09%

cache_prefetch.count = 48061
cache_prefetch.share = 6.50%

stlb_demand.count = 3001
stlb_demand.share = 0.41%

stlb_prefetch.count = 0
stlb_prefetch.share = 0.00%

DRAM_RQ_READ_TRAFFIC_DEBUG:
total_classified_read.count = 738916
unclassified_read.count = 0
total_read_with_other.count = 738916

classified_plus_unclassified_check.count = 738916
dram_rq_read_total_observed.count = 738916
dram_rq_read_total_observed.per_1K_instructions = 7.38916

STLB_MISS_PTW_DRAM_TOUCH_BREAKDOWN:
stlb_miss_total.count = 300939

stlb_miss_touch_dram.count = 2979
stlb_miss_touch_dram.share = 0.99%

stlb_miss_no_dram_touch.count = 297960
stlb_miss_no_dram_touch.share = 99.01%

STLB_MISS_PTW_DRAM_TOUCH_DEBUG:
stlb_miss_touch_plus_no_touch.count = 300939
stlb_miss_total_check.count = 300939

======STLB miss causes ========
Core_0_STLB_miss_cause_breakdown
Core_0_STLB_cause_Demand_Data_miss 300895
Core_0_STLB_cause_Demand_Data_miss_rate 0.347107
Core_0_STLB_cause_Demand_Instruction_miss 44
Core_0_STLB_cause_Demand_Instruction_miss_rate 5.07576e-05
Core_0_STLB_cause_L1D_Prefetch_miss 0
Core_0_STLB_cause_L1D_Prefetch_miss_rate 0
Core_0_STLB_cause_L1D_Prefetch_Same_Page_miss 0
Core_0_STLB_cause_L1D_Prefetch_Same_Page_miss_rate 0
Core_0_STLB_cause_L1D_Prefetch_Cross_Page_miss 0
Core_0_STLB_cause_L1D_Prefetch_Cross_Page_miss_rate 0
Core_0_STLB_cause_L1I_Prefetch_miss 0
Core_0_STLB_cause_L1I_Prefetch_miss_rate 0
Core_0_STLB_cause_Other_miss 0
Core_0_STLB_cause_Other_miss_rate 0
Core_0_STLB_Demand_miss 300939
Core_0_STLB_Demand_miss_rate 0.347157
Core_0_STLB_L1D_Prefetch_miss 0
Core_0_STLB_L1D_Prefetch_miss_rate 0
Core_0_STLB_Other_miss 0
Core_0_STLB_Other_miss_rate 0

========== vBerti-TLB Cross-page Flow Stats ==========

Core_0_vBerti_Requested 324631
Core_0_vBerti_Cross_page_prefetch_in_Requested 0
Core_0_vBerti_Same_page_prefetch_in_Requested 324631
Core_0_vBerti_Cross_page_prefetch_of_Requested 0
Core_0_vBerti_Issued 324631
Core_0_vBerti_InPQ_Same_page_prefetch 324631
Core_0_vBerti_InPQ_Cross_page_prefetch 0
Core_0_vBerti_PQ_Drop_Rate 0
Core_0_vBerti_InPQ_Cross_page_prefetch_of_Requested 0
Core_0_vBerti_Cross_page_PQ_Drop_rate 0
Core_0_vBerti_Cross_page_prefetch_of_Issued 0
Core_0_CP_PF_PQFULL_drop 0
Core_0_CP_PF_PQFULL_TLB_rescue_enqueued 0
Core_0_CP_PF_PQFULL_TLB_rescue_issued 0
Core_0_CP_PF_PQFULL_TLB_rescue_translated 0

========= DTLB_vBerti Prefetch Stats =========
Core_0_DTLB_demand_access 28959787
Core_0_DTLB_demand_hit 27916965
Core_0_DTLB_demand_miss 1042822
Core_0_DTLB_demand_mshr_merge 176001
Core_0_DTLB_demand_fill 866822
Core_0_DTLB_demand_miss_rate 0.0360093
Core_0_DTLB_demand_mpki 10.4282
Core_0_DTLB_vberti_prefetch_access 251733
Core_0_DTLB_vberti_prefetch_hit 251733
Core_0_DTLB_vberti_prefetch_miss 0
Core_0_DTLB_vberti_prefetch_mshr_merge 0
Core_0_DTLB_vberti_prefetch_fill 0
Core_0_DTLB_vberti_prefetch_miss_rate 0
Core_0_DTLB_vberti_prefetch_mpki 0

=== DTLB_vBerti Same/Cross-page Prefetch Stats ===
Core_0_DTLB_vberti_same_page_prefetch 251733
Core_0_DTLB_vberti_same_page_prefetch_hit 251733
Core_0_DTLB_vberti_same_page_prefetch_miss 0
Core_0_DTLB_vberti_same_page_prefetch_mshr_merge 0
Core_0_DTLB_vberti_same_page_prefetch_fill 0
Core_0_DTLB_vberti_same_page_prefetch_miss_rate 0
Core_0_DTLB_vberti_same_page_prefetch_mpki 0
Core_0_DTLB_vberti_cross_page_prefetch 0
Core_0_DTLB_vberti_cross_page_prefetch_hit 0
Core_0_DTLB_vberti_cross_page_prefetch_miss 0
Core_0_DTLB_vberti_cross_page_prefetch_mshr_merge 0
Core_0_DTLB_vberti_cross_page_prefetch_fill 0
Core_0_DTLB_vberti_cross_page_prefetch_miss_rate 0
Core_0_DTLB_vberti_cross_page_prefetch_mpki 0
Core_0_DTLB_same_page_prefetch_miss_rate 0
Core_0_DTLB_same_page_prefetch_mpki 0
Core_0_DTLB_cross_page_prefetch_miss_rate 0
Core_0_DTLB_cross_page_prefetch_mpki 0
Core_0_DTLB_cross_page_prefetch_issued 0
Core_0_DTLB_cross_page_prefetch_lookups 0
Core_0_DTLB_cross_page_prefetch_useful 0
Core_0_DTLB_cross_page_prefetch_useless 0
Core_0_DTLB_cross_page_prefetch_late 0
Core_0_DTLB_cross_page_prefetch_too_early 0
Core_0_DTLB_cross_page_prefetch_too_early_among_fill 0
Core_0_DTLB_cross_page_prefetch_too_early_among_useless 0
Core_0_DTLB_cross_page_prefetch_pollution_evict 0
Core_0_DTLB_cross_page_prefetch_pollution_demand 0
Core_0_DTLB_cross_page_prefetch_pollution_among_prefetch_fill 0
Core_0_DTLB_cross_page_prefetch_accuracy 0
Core_0_DTLB_cross_page_prefetch_coverage 0

========= STLB_vBerti Prefetch Stats =========
Core_0_STLB_demand_access 866866
Core_0_STLB_demand_hit 565927
Core_0_STLB_demand_miss 300939
Core_0_STLB_demand_mshr_merge 0
Core_0_STLB_demand_fill 300939
Core_0_STLB_demand_miss_rate 0.347157
Core_0_STLB_demand_mpki 3.00939
Core_0_STLB_vberti_prefetch_access 0
Core_0_STLB_vberti_prefetch_hit 0
Core_0_STLB_vberti_prefetch_miss 0
Core_0_STLB_vberti_prefetch_mshr_merge 0
Core_0_STLB_vberti_prefetch_fill 0
Core_0_STLB_vberti_prefetch_miss_rate 0
Core_0_STLB_vberti_prefetch_mpki 0

=== STLB_vBerti Same/Cross-page Prefetch Stats ===
Core_0_STLB_vberti_same_page_prefetch 0
Core_0_STLB_vberti_same_page_prefetch_hit 0
Core_0_STLB_vberti_same_page_prefetch_miss 0
Core_0_STLB_vberti_same_page_prefetch_mshr_merge 0
Core_0_STLB_vberti_same_page_prefetch_fill 0
Core_0_STLB_vberti_same_page_prefetch_miss_rate 0
Core_0_STLB_vberti_same_page_prefetch_mpki 0
Core_0_STLB_vberti_cross_page_prefetch 0
Core_0_STLB_vberti_cross_page_prefetch_hit 0
Core_0_STLB_vberti_cross_page_prefetch_miss 0
Core_0_STLB_vberti_cross_page_prefetch_mshr_merge 0
Core_0_STLB_vberti_cross_page_prefetch_fill 0
Core_0_STLB_vberti_cross_page_prefetch_miss_rate 0
Core_0_STLB_vberti_cross_page_prefetch_mpki 0
Core_0_STLB_same_page_prefetch_miss_rate 0
Core_0_STLB_same_page_prefetch_mpki 0
Core_0_STLB_cross_page_prefetch_miss_rate 0
Core_0_STLB_cross_page_prefetch_mpki 0
Core_0_STLB_cross_page_prefetch_issued 0
Core_0_STLB_cross_page_prefetch_lookups 0
Core_0_STLB_cross_page_prefetch_useful 0
Core_0_STLB_cross_page_prefetch_useless 0
Core_0_STLB_cross_page_prefetch_late 0
Core_0_STLB_cross_page_prefetch_too_early 0
Core_0_STLB_cross_page_prefetch_too_early_among_fill 0
Core_0_STLB_cross_page_prefetch_too_early_among_useless 0
Core_0_STLB_cross_page_prefetch_pollution_evict 0
Core_0_STLB_cross_page_prefetch_pollution_demand 0
Core_0_STLB_cross_page_prefetch_pollution_among_prefetch_fill 0
Core_0_STLB_cross_page_prefetch_accuracy 0
Core_0_STLB_cross_page_prefetch_coverage 0

========= STLB Cross-page Prefetch Buffer Stats =========
Core_0_STLB_raw_demand_miss 300895
Core_0_CP_PB_insert 0
Core_0_CP_PB_demand_hit 0
Core_0_STLB_PB_demand_miss 300895
Core_0_CP_PB_coverage 0
Core_0_STLB_raw_demand_mpki 3.00895
Core_0_STLB_PB_demand_mpki 3.00895
Core_0_CP_PB_demand_hit_mpki 0

Core_0_TLB_demand_miss_rate 0.0103916
Core_0_TLB_demand_mpki 3.00939
Core_0_TLB_same_page_prefetch_miss_rate 0
Core_0_TLB_same_page_prefetch_mpki 0
Core_0_TLB_cross_page_prefetch_miss_rate 0
Core_0_TLB_cross_page_prefetch_mpki 0
Core_0_TLB_cross_page_prefetch_issued 0
Core_0_TLB_cross_page_prefetch_lookups 0
Core_0_TLB_cross_page_prefetch_useful 0
Core_0_TLB_cross_page_prefetch_useless 0
Core_0_TLB_cross_page_prefetch_late 0
Core_0_TLB_cross_page_prefetch_too_early 0
Core_0_TLB_cross_page_prefetch_too_early_among_fill 0
Core_0_TLB_cross_page_prefetch_too_early_among_useless 0
Core_0_TLB_cross_page_prefetch_accuracy 0
Core_0_TLB_cross_page_prefetch_coverage 0
====== vBerti internal metric ========
BERTI TO_L1: 129439 TO_L2: 195192 TO_L2_BC_MSHR: 0
BERTI AVG_LAT: 112.21 NUM_TRACK_LATENCY: 1386420 NUM_CANT_TRACK_LATENCY: 0
BERTI CROSS_PAGE 5029 NO_CROSS_PAGE: 324631
BERTI FOUND_BERTI: 8159448 NO_FOUND_BERTI: 22057061
BERTI AVERAGE_ISSUED: 1.20868
