[VMEM] WARNING: physical memory size is smaller than virtual memory size.

*** ChampSim Multicore Out-of-Order Simulator ***
Warmup Instructions: 50000000
Simulation Instructions: 100000000
Number of CPUs: 1
Page size: 4096
Core 0: /data2/zcq/champsim_traces_gap/tc.urand-825B.champsimtrace.xz
VBerti Prefetcher
No Crossing Page
BERTI HASH ENTANGLING
BERTI IP MASK ffff
Off-chip DRAM Size: 16 GiB Channels: 1 Width: 64-bit Data Rate: 3205 MT/s
Warmup halting CPU 0 at instruction 50000003 cycle 38759849 for remainder of phase
Warmup finished CPU 0 instructions: 50000003 cycles: 38759849 cumulative IPC: 1.29 (Simulation time: 00 hr 06 min 41 sec)
Warmup complete CPU 0 instructions: 50000003 cycles: 38759849 cumulative IPC: 1.29 (Simulation time: 00 hr 06 min 41 sec)
Simulation finished CPU 0 instructions: 100000000 cycles: 1356306889 cumulative IPC: 0.07373 (Simulation time: 01 hr 20 min 31 sec)
Simulation complete CPU 0 instructions: 100000000 cycles: 1356306889 cumulative IPC: 0.07373 (Simulation time: 01 hr 20 min 31 sec)

ChampSim completed all CPUs

=== Simulation ===
CPU 0 runs /data2/zcq/champsim_traces_gap/tc.urand-825B.champsimtrace.xz

Region of Interest Statistics

CPU 0 cumulative IPC: 0.07373 instructions: 100000000 cycles: 1356306889
CPU 0 Branch Prediction Accuracy: 81.64% MPKI: 42.96 Average ROB Occupancy at Mispredict: 7.511
Branch type MPKI
BRANCH_DIRECT_JUMP: 0
BRANCH_INDIRECT: 0
BRANCH_CONDITIONAL: 42.96
BRANCH_DIRECT_CALL: 0
BRANCH_INDIRECT_CALL: 0
BRANCH_RETURN: 0

cpu0->cpu0_STLB TOTAL        ACCESS:    3970756 HIT:      80453 MISS:    3890303 MSHR_MERGE:          0
cpu0->cpu0_STLB LOAD         ACCESS:    3970756 HIT:      80453 MISS:    3890303 MSHR_MERGE:          0
cpu0->cpu0_STLB RFO          ACCESS:          0 HIT:          0 MISS:          0 MSHR_MERGE:          0
cpu0->cpu0_STLB PREFETCH     ACCESS:          0 HIT:          0 MISS:          0 MSHR_MERGE:          0
cpu0->cpu0_STLB WRITE        ACCESS:          0 HIT:          0 MISS:          0 MSHR_MERGE:          0
cpu0->cpu0_STLB TRANSLATION  ACCESS:          0 HIT:          0 MISS:          0 MSHR_MERGE:          0
cpu0->cpu0_STLB PREFETCH REQUESTED:          0 ISSUED:          0 USEFUL:          0 USELESS:          0 LATE:          0 TOO_EARLY:          0
cpu0->cpu0_STLB AVERAGE MISS LATENCY: 105.5 cycles
cpu0->cpu0_L2C TOTAL        ACCESS:   13401895 HIT:    4708240 MISS:    8693655 MSHR_MERGE:     101506
cpu0->cpu0_L2C LOAD         ACCESS:    4722345 HIT:     277413 MISS:    4444932 MSHR_MERGE:        346
cpu0->cpu0_L2C RFO          ACCESS:       7588 HIT:       7588 MISS:          0 MSHR_MERGE:          0
cpu0->cpu0_L2C PREFETCH     ACCESS:    4206162 HIT:    3150392 MISS:    1055770 MSHR_MERGE:     101160
cpu0->cpu0_L2C WRITE        ACCESS:       7811 HIT:       7811 MISS:          0 MSHR_MERGE:          0
cpu0->cpu0_L2C TRANSLATION  ACCESS:    4457989 HIT:    1265036 MISS:    3192953 MSHR_MERGE:          0
cpu0->cpu0_L2C PREFETCH REQUESTED:    1062424 ISSUED:    1062424 USEFUL:     349087 USELESS:      14210 LATE:         28 TOO_EARLY:          6
cpu0->cpu0_L2C AVERAGE MISS LATENCY: 156 cycles
cpu0->cpu0_L1I TOTAL        ACCESS:          5 HIT:          5 MISS:          0 MSHR_MERGE:          0
cpu0->cpu0_L1I LOAD         ACCESS:          5 HIT:          5 MISS:          0 MSHR_MERGE:          0
cpu0->cpu0_L1I RFO          ACCESS:          0 HIT:          0 MISS:          0 MSHR_MERGE:          0
cpu0->cpu0_L1I PREFETCH     ACCESS:          0 HIT:          0 MISS:          0 MSHR_MERGE:          0
cpu0->cpu0_L1I WRITE        ACCESS:          0 HIT:          0 MISS:          0 MSHR_MERGE:          0
cpu0->cpu0_L1I TRANSLATION  ACCESS:          0 HIT:          0 MISS:          0 MSHR_MERGE:          0
cpu0->cpu0_L1I PREFETCH REQUESTED:          0 ISSUED:          0 USEFUL:          0 USELESS:          0 LATE:          0 TOO_EARLY:          0
cpu0->cpu0_L1I AVERAGE MISS LATENCY: - cycles
cpu0->cpu0_L1D TOTAL        ACCESS:   32234136 HIT:   18725543 MISS:   13508593 MSHR_MERGE:    1172047
cpu0->cpu0_L1D LOAD         ACCESS:   13982324 HIT:    8089308 MISS:    5893016 MSHR_MERGE:    1170671
cpu0->cpu0_L1D RFO          ACCESS:          0 HIT:          0 MISS:          0 MSHR_MERGE:          0
cpu0->cpu0_L1D PREFETCH     ACCESS:    7047130 HIT:    3898487 MISS:    3148643 MSHR_MERGE:         18
cpu0->cpu0_L1D WRITE        ACCESS:      38575 HIT:      30987 MISS:       7588 MSHR_MERGE:          0
cpu0->cpu0_L1D TRANSLATION  ACCESS:   11166107 HIT:    6706761 MISS:    4459346 MSHR_MERGE:       1358
cpu0->cpu0_L1D PREFETCH REQUESTED:    7807783 ISSUED:    7047122 USEFUL:     409101 USELESS:     119748 LATE:        197 TOO_EARLY:         25
cpu0->cpu0_L1D AVERAGE MISS LATENCY: 138.6 cycles
cpu0->cpu0_ITLB TOTAL        ACCESS:          5 HIT:          5 MISS:          0 MSHR_MERGE:          0
cpu0->cpu0_ITLB LOAD         ACCESS:          5 HIT:          5 MISS:          0 MSHR_MERGE:          0
cpu0->cpu0_ITLB RFO          ACCESS:          0 HIT:          0 MISS:          0 MSHR_MERGE:          0
cpu0->cpu0_ITLB PREFETCH     ACCESS:          0 HIT:          0 MISS:          0 MSHR_MERGE:          0
cpu0->cpu0_ITLB WRITE        ACCESS:          0 HIT:          0 MISS:          0 MSHR_MERGE:          0
cpu0->cpu0_ITLB TRANSLATION  ACCESS:          0 HIT:          0 MISS:          0 MSHR_MERGE:          0
cpu0->cpu0_ITLB PREFETCH REQUESTED:          0 ISSUED:          0 USEFUL:          0 USELESS:          0 LATE:          0 TOO_EARLY:          0
cpu0->cpu0_ITLB AVERAGE MISS LATENCY: - cycles
cpu0->cpu0_DTLB TOTAL        ACCESS:   18460009 HIT:   13133129 MISS:    5326880 MSHR_MERGE:    1356124
cpu0->cpu0_DTLB LOAD         ACCESS:   18460009 HIT:   13133129 MISS:    5326880 MSHR_MERGE:    1356124
cpu0->cpu0_DTLB RFO          ACCESS:          0 HIT:          0 MISS:          0 MSHR_MERGE:          0
cpu0->cpu0_DTLB PREFETCH     ACCESS:          0 HIT:          0 MISS:          0 MSHR_MERGE:          0
cpu0->cpu0_DTLB WRITE        ACCESS:          0 HIT:          0 MISS:          0 MSHR_MERGE:          0
cpu0->cpu0_DTLB TRANSLATION  ACCESS:          0 HIT:          0 MISS:          0 MSHR_MERGE:          0
cpu0->cpu0_DTLB PREFETCH REQUESTED:          0 ISSUED:          0 USEFUL:          0 USELESS:          0 LATE:          0 TOO_EARLY:          0
cpu0->cpu0_DTLB AVERAGE MISS LATENCY: 109.4 cycles
cpu0->LLC TOTAL        ACCESS:    8592149 HIT:    1821022 MISS:    6771127 MSHR_MERGE:          0
cpu0->LLC LOAD         ACCESS:    4444586 HIT:       3958 MISS:    4440628 MSHR_MERGE:          0
cpu0->LLC RFO          ACCESS:          0 HIT:          0 MISS:          0 MSHR_MERGE:          0
cpu0->LLC PREFETCH     ACCESS:     954610 HIT:          7 MISS:     954603 MSHR_MERGE:          0
cpu0->LLC WRITE        ACCESS:          0 HIT:          0 MISS:          0 MSHR_MERGE:          0
cpu0->LLC TRANSLATION  ACCESS:    3192953 HIT:    1817057 MISS:    1375896 MSHR_MERGE:          0
cpu0->LLC PREFETCH REQUESTED:          0 ISSUED:          0 USEFUL:          0 USELESS:          0 LATE:          0 TOO_EARLY:          0
cpu0->LLC AVERAGE MISS LATENCY: 184.2 cycles

DRAM Statistics

Channel 0 RQ ROW_BUFFER_HIT:        456
  ROW_BUFFER_MISS:    6770672
  AVG DBUS CONGESTED CYCLE: 2.902
Channel 0 WQ ROW_BUFFER_HIT:          0
  ROW_BUFFER_MISS:          0
  FULL:          0
Channel 0 REFRESHES ISSUED:     113026

[ROI Statistics]
[System Configuration]
num_cpus 1
cpu_freq 4000
fetch_width 6
decode_width 6
dispatch_width 6
execute_width 6
lq_width 2
sq_width 2
retire_width 6
scheduler_size 128
branch_mispredict_penalty 15
rob_size 352
lq_size 128
sq_size 72
ifetch_buffer_size 64
decode_buffer_size 32
dispatch_buffer_size 32
register_file_size 288
decode_latency 1
dispatch_latency 1
schedule_latency 1
execute_latency 1
page_size 4096
block_size 64
core_0_itlb_set 16
core_0_itlb_way 4
core_0_itlb_rq_size 16
core_0_itlb_wq_size 16
core_0_itlb_pq_size 0
core_0_itlb_mshr_size 8
core_0_itlb_hit_latency 1
core_0_itlb_fill_latency 1
core_0_itlb_max_tag_check 2
core_0_itlb_max_fill 2
core_0_dtlb_set 16
core_0_dtlb_way 4
core_0_dtlb_rq_size 16
core_0_dtlb_wq_size 16
core_0_dtlb_pq_size 0
core_0_dtlb_mshr_size 8
core_0_dtlb_hit_latency 1
core_0_dtlb_fill_latency 1
core_0_dtlb_max_tag_check 2
core_0_dtlb_max_fill 2
core_0_stlb_set 128
core_0_stlb_way 12
core_0_stlb_rq_size 32
core_0_stlb_wq_size 32
core_0_stlb_pq_size 0
core_0_stlb_mshr_size 16
core_0_stlb_hit_latency 4
core_0_stlb_fill_latency 4
core_0_stlb_max_tag_check 1
core_0_stlb_max_fill 1
core_0_l1i_set 64
core_0_l1i_way 8
core_0_l1i_rq_size 64
core_0_l1i_wq_size 64
core_0_l1i_pq_size 32
core_0_l1i_mshr_size 8
core_0_l1i_hit_latency 2
core_0_l1i_fill_latency 2
core_0_l1i_max_tag_check 2
core_0_l1i_max_fill 2
core_0_l1d_set 64
core_0_l1d_way 12
core_0_l1d_rq_size 64
core_0_l1d_wq_size 64
core_0_l1d_pq_size 8
core_0_l1d_mshr_size 16
core_0_l1d_hit_latency 2
core_0_l1d_fill_latency 3
core_0_l1d_max_tag_check 2
core_0_l1d_max_fill 2
core_0_l2c_set 1024
core_0_l2c_way 8
core_0_l2c_rq_size 32
core_0_l2c_wq_size 32
core_0_l2c_pq_size 16
core_0_l2c_mshr_size 32
core_0_l2c_hit_latency 5
core_0_l2c_fill_latency 5
core_0_l2c_max_tag_check 1
core_0_l2c_max_fill 1
llc_set 2048
llc_way 16
llc_rq_size 32
llc_wq_size 32
llc_pq_size 32
llc_mshr_size 64
llc_hit_latency 10
llc_fill_latency 10
llc_max_tag_check 1
llc_max_fill 1
dram_channels 1
dram_ranks 1
dram_bankgroups 8
dram_banks 4
dram_rows 65536
dram_columns 1024
dram_channel_width 8
dram_rq_size 64
dram_wq_size 64
dram_size 17179869184
core_0_itlb_prefetcher no
core_0_dtlb_prefetcher no
core_0_stlb_prefetcher no
core_0_l1i_prefetcher next_line
core_0_l1d_prefetcher vberti_nocross
core_0_l2c_prefetcher ip_stride
llc_prefetcher no
llc_replacement drrip

Core_0_instructions 100000000
Core_0_cycles 1356306889
Core_0_IPC 0.0737296
Core_0_branch_prediction_accuracy 81.6392
Core_0_branch_MPKI 42.956
Core_0_average_ROB_occupancy_at_mispredict 7.51121

Core_0_ITLB_total_access 5
Core_0_ITLB_total_hit 5
Core_0_ITLB_total_miss 0
Core_0_ITLB_total_MPKI 0
Core_0_ITLB_total_miss_rate 0
Core_0_ITLB_demand_access 5
Core_0_ITLB_demand_hit 5
Core_0_ITLB_demand_miss 0
Core_0_ITLB_demand_MPKI 0
Core_0_ITLB_demand_miss_rate 0
Core_0_ITLB_load_access 5
Core_0_ITLB_load_hit 5
Core_0_ITLB_load_miss 0
Core_0_ITLB_load_MPKI 0
Core_0_ITLB_load_miss_rate 0
Core_0_ITLB_rfo_access 0
Core_0_ITLB_rfo_hit 0
Core_0_ITLB_rfo_miss 0
Core_0_ITLB_rfo_MPKI 0
Core_0_ITLB_rfo_miss_rate 0
Core_0_ITLB_prefetch_access 0
Core_0_ITLB_prefetch_hit 0
Core_0_ITLB_prefetch_miss 0
Core_0_ITLB_prefetch_MPKI 0
Core_0_ITLB_prefetch_miss_rate 0
Core_0_ITLB_writeback_access 0
Core_0_ITLB_writeback_hit 0
Core_0_ITLB_writeback_miss 0
Core_0_ITLB_writeback_MPKI 0
Core_0_ITLB_writeback_miss_rate 0
Core_0_ITLB_prefetch_requested 0
Core_0_ITLB_prefetch_issued 0
Core_0_ITLB_prefetch_useful 0
Core_0_ITLB_prefetch_useless 0
Core_0_ITLB_prefetch_late 0
Core_0_ITLB_prefetch_fill 0
Core_0_ITLB_prefetch_too_early 0
Core_0_ITLB_prefetch_too_early_among_fill 0
Core_0_ITLB_prefetch_too_early_among_useless 0
Core_0_ITLB_prefetch_pollution_evict 0
Core_0_ITLB_prefetch_pollution_demand 0
Core_0_ITLB_prefetch_pollution_among_prefetch_fill 0
Core_0_ITLB_prefetch_accuracy 0
Core_0_ITLB_prefetch_coverage 0

Core_0_DTLB_total_access 18460009
Core_0_DTLB_total_hit 13133129
Core_0_DTLB_total_miss 5326880
Core_0_DTLB_total_MPKI 53.2688
Core_0_DTLB_total_miss_rate 0.288563
Core_0_DTLB_demand_access 18460009
Core_0_DTLB_demand_hit 13133129
Core_0_DTLB_demand_miss 5326880
Core_0_DTLB_demand_MPKI 53.2688
Core_0_DTLB_demand_miss_rate 0.288563
Core_0_DTLB_load_access 18460009
Core_0_DTLB_load_hit 13133129
Core_0_DTLB_load_miss 5326880
Core_0_DTLB_load_MPKI 53.2688
Core_0_DTLB_load_miss_rate 0.288563
Core_0_DTLB_rfo_access 0
Core_0_DTLB_rfo_hit 0
Core_0_DTLB_rfo_miss 0
Core_0_DTLB_rfo_MPKI 0
Core_0_DTLB_rfo_miss_rate 0
Core_0_DTLB_prefetch_access 0
Core_0_DTLB_prefetch_hit 0
Core_0_DTLB_prefetch_miss 0
Core_0_DTLB_prefetch_MPKI 0
Core_0_DTLB_prefetch_miss_rate 0
Core_0_DTLB_writeback_access 0
Core_0_DTLB_writeback_hit 0
Core_0_DTLB_writeback_miss 0
Core_0_DTLB_writeback_MPKI 0
Core_0_DTLB_writeback_miss_rate 0
Core_0_DTLB_prefetch_requested 0
Core_0_DTLB_prefetch_issued 0
Core_0_DTLB_prefetch_useful 0
Core_0_DTLB_prefetch_useless 0
Core_0_DTLB_prefetch_late 0
Core_0_DTLB_prefetch_fill 0
Core_0_DTLB_prefetch_too_early 0
Core_0_DTLB_prefetch_too_early_among_fill 0
Core_0_DTLB_prefetch_too_early_among_useless 0
Core_0_DTLB_prefetch_pollution_evict 0
Core_0_DTLB_prefetch_pollution_demand 0
Core_0_DTLB_prefetch_pollution_among_prefetch_fill 0
Core_0_DTLB_prefetch_accuracy 0
Core_0_DTLB_prefetch_coverage 0

Core_0_STLB_total_access 3970756
Core_0_STLB_total_hit 80453
Core_0_STLB_total_miss 3890303
Core_0_STLB_total_MPKI 38.903
Core_0_STLB_total_miss_rate 0.979739
Core_0_STLB_demand_access 3970756
Core_0_STLB_demand_hit 80453
Core_0_STLB_demand_miss 3890303
Core_0_STLB_demand_MPKI 38.903
Core_0_STLB_demand_miss_rate 0.979739
Core_0_STLB_load_access 3970756
Core_0_STLB_load_hit 80453
Core_0_STLB_load_miss 3890303
Core_0_STLB_load_MPKI 38.903
Core_0_STLB_load_miss_rate 0.979739
Core_0_STLB_rfo_access 0
Core_0_STLB_rfo_hit 0
Core_0_STLB_rfo_miss 0
Core_0_STLB_rfo_MPKI 0
Core_0_STLB_rfo_miss_rate 0
Core_0_STLB_prefetch_access 0
Core_0_STLB_prefetch_hit 0
Core_0_STLB_prefetch_miss 0
Core_0_STLB_prefetch_MPKI 0
Core_0_STLB_prefetch_miss_rate 0
Core_0_STLB_writeback_access 0
Core_0_STLB_writeback_hit 0
Core_0_STLB_writeback_miss 0
Core_0_STLB_writeback_MPKI 0
Core_0_STLB_writeback_miss_rate 0
Core_0_STLB_prefetch_requested 0
Core_0_STLB_prefetch_issued 0
Core_0_STLB_prefetch_useful 0
Core_0_STLB_prefetch_useless 0
Core_0_STLB_prefetch_late 0
Core_0_STLB_prefetch_fill 0
Core_0_STLB_prefetch_too_early 0
Core_0_STLB_prefetch_too_early_among_fill 0
Core_0_STLB_prefetch_too_early_among_useless 0
Core_0_STLB_prefetch_pollution_evict 0
Core_0_STLB_prefetch_pollution_demand 0
Core_0_STLB_prefetch_pollution_among_prefetch_fill 0
Core_0_STLB_prefetch_accuracy 0
Core_0_STLB_prefetch_coverage 0

Core_0_L1I_total_access 5
Core_0_L1I_total_hit 5
Core_0_L1I_total_miss 0
Core_0_L1I_total_MPKI 0
Core_0_L1I_total_miss_rate 0
Core_0_L1I_demand_access 5
Core_0_L1I_demand_hit 5
Core_0_L1I_demand_miss 0
Core_0_L1I_demand_MPKI 0
Core_0_L1I_demand_miss_rate 0
Core_0_L1I_load_access 5
Core_0_L1I_load_hit 5
Core_0_L1I_load_miss 0
Core_0_L1I_load_MPKI 0
Core_0_L1I_load_miss_rate 0
Core_0_L1I_rfo_access 0
Core_0_L1I_rfo_hit 0
Core_0_L1I_rfo_miss 0
Core_0_L1I_rfo_MPKI 0
Core_0_L1I_rfo_miss_rate 0
Core_0_L1I_prefetch_access 0
Core_0_L1I_prefetch_hit 0
Core_0_L1I_prefetch_miss 0
Core_0_L1I_prefetch_MPKI 0
Core_0_L1I_prefetch_miss_rate 0
Core_0_L1I_writeback_access 0
Core_0_L1I_writeback_hit 0
Core_0_L1I_writeback_miss 0
Core_0_L1I_writeback_MPKI 0
Core_0_L1I_writeback_miss_rate 0
Core_0_L1I_prefetch_requested 0
Core_0_L1I_prefetch_issued 0
Core_0_L1I_prefetch_useful 0
Core_0_L1I_prefetch_useless 0
Core_0_L1I_prefetch_late 0
Core_0_L1I_prefetch_fill 0
Core_0_L1I_prefetch_too_early 0
Core_0_L1I_prefetch_too_early_among_fill 0
Core_0_L1I_prefetch_too_early_among_useless 0
Core_0_L1I_prefetch_pollution_evict 0
Core_0_L1I_prefetch_pollution_demand 0
Core_0_L1I_prefetch_pollution_among_prefetch_fill 0
Core_0_L1I_prefetch_accuracy 0
Core_0_L1I_prefetch_coverage 0

Core_0_L1D_total_access 21068029
Core_0_L1D_total_hit 12018782
Core_0_L1D_total_miss 9049247
Core_0_L1D_total_MPKI 90.4925
Core_0_L1D_total_miss_rate 0.429525
Core_0_L1D_demand_access 13982324
Core_0_L1D_demand_hit 8089308
Core_0_L1D_demand_miss 5893016
Core_0_L1D_demand_MPKI 58.9302
Core_0_L1D_demand_miss_rate 0.421462
Core_0_L1D_load_access 13982324
Core_0_L1D_load_hit 8089308
Core_0_L1D_load_miss 5893016
Core_0_L1D_load_MPKI 58.9302
Core_0_L1D_load_miss_rate 0.421462
Core_0_L1D_rfo_access 0
Core_0_L1D_rfo_hit 0
Core_0_L1D_rfo_miss 0
Core_0_L1D_rfo_MPKI 0
Core_0_L1D_rfo_miss_rate 0
Core_0_L1D_prefetch_access 7047130
Core_0_L1D_prefetch_hit 3898487
Core_0_L1D_prefetch_miss 3148643
Core_0_L1D_prefetch_MPKI 31.4864
Core_0_L1D_prefetch_miss_rate 0.446798
Core_0_L1D_writeback_access 38575
Core_0_L1D_writeback_hit 30987
Core_0_L1D_writeback_miss 7588
Core_0_L1D_writeback_MPKI 0.07588
Core_0_L1D_writeback_miss_rate 0.196708
Core_0_L1D_prefetch_requested 7807783
Core_0_L1D_prefetch_issued 7047122
Core_0_L1D_prefetch_useful 409101
Core_0_L1D_prefetch_useless 119748
Core_0_L1D_prefetch_late 197
Core_0_L1D_prefetch_fill 528657
Core_0_L1D_prefetch_too_early 25
Core_0_L1D_prefetch_too_early_among_fill 4.72896e-05
Core_0_L1D_prefetch_too_early_among_useless 0.000208772
Core_0_L1D_prefetch_pollution_evict 3090
Core_0_L1D_prefetch_pollution_demand 3089
Core_0_L1D_prefetch_pollution_among_prefetch_fill 0.005845
Core_0_L1D_prefetch_accuracy 0.0580522
Core_0_L1D_prefetch_coverage 0.0649149

Core_0_L2C_total_access 8943906
Core_0_L2C_total_hit 3443204
Core_0_L2C_total_miss 5500702
Core_0_L2C_total_MPKI 55.007
Core_0_L2C_total_miss_rate 0.615022
Core_0_L2C_demand_access 4729933
Core_0_L2C_demand_hit 285001
Core_0_L2C_demand_miss 4444932
Core_0_L2C_demand_MPKI 44.4493
Core_0_L2C_demand_miss_rate 0.939745
Core_0_L2C_load_access 4722345
Core_0_L2C_load_hit 277413
Core_0_L2C_load_miss 4444932
Core_0_L2C_load_MPKI 44.4493
Core_0_L2C_load_miss_rate 0.941255
Core_0_L2C_rfo_access 7588
Core_0_L2C_rfo_hit 7588
Core_0_L2C_rfo_miss 0
Core_0_L2C_rfo_MPKI 0
Core_0_L2C_rfo_miss_rate 0
Core_0_L2C_prefetch_access 4206162
Core_0_L2C_prefetch_hit 3150392
Core_0_L2C_prefetch_miss 1055770
Core_0_L2C_prefetch_MPKI 10.5577
Core_0_L2C_prefetch_miss_rate 0.251006
Core_0_L2C_writeback_access 7811
Core_0_L2C_writeback_hit 7811
Core_0_L2C_writeback_miss 0
Core_0_L2C_writeback_MPKI 0
Core_0_L2C_writeback_miss_rate 0
Core_0_L2C_prefetch_requested 1062424
Core_0_L2C_prefetch_issued 1062424
Core_0_L2C_prefetch_useful 349087
Core_0_L2C_prefetch_useless 14210
Core_0_L2C_prefetch_late 28
Core_0_L2C_prefetch_fill 954258
Core_0_L2C_prefetch_too_early 6
Core_0_L2C_prefetch_too_early_among_fill 6.28761e-06
Core_0_L2C_prefetch_too_early_among_useless 0.000422238
Core_0_L2C_prefetch_pollution_evict 2579
Core_0_L2C_prefetch_pollution_demand 2579
Core_0_L2C_prefetch_pollution_among_prefetch_fill 0.00270262
Core_0_L2C_prefetch_accuracy 0.328576
Core_0_L2C_prefetch_coverage 0.0728172

Core_0_LLC_total_access 5399196
Core_0_LLC_total_hit 3965
Core_0_LLC_total_miss 5395231
Core_0_LLC_total_MPKI 53.9523
Core_0_LLC_total_miss_rate 0.999266
Core_0_LLC_demand_access 4444586
Core_0_LLC_demand_hit 3958
Core_0_LLC_demand_miss 4440628
Core_0_LLC_demand_MPKI 44.4063
Core_0_LLC_demand_miss_rate 0.999109
Core_0_LLC_load_access 4444586
Core_0_LLC_load_hit 3958
Core_0_LLC_load_miss 4440628
Core_0_LLC_load_MPKI 44.4063
Core_0_LLC_load_miss_rate 0.999109
Core_0_LLC_rfo_access 0
Core_0_LLC_rfo_hit 0
Core_0_LLC_rfo_miss 0
Core_0_LLC_rfo_MPKI 0
Core_0_LLC_rfo_miss_rate 0
Core_0_LLC_prefetch_access 954610
Core_0_LLC_prefetch_hit 7
Core_0_LLC_prefetch_miss 954603
Core_0_LLC_prefetch_MPKI 9.54603
Core_0_LLC_prefetch_miss_rate 0.999993
Core_0_LLC_writeback_access 0
Core_0_LLC_writeback_hit 0
Core_0_LLC_writeback_miss 0
Core_0_LLC_writeback_MPKI 0
Core_0_LLC_writeback_miss_rate 0
Core_0_LLC_prefetch_requested 0
Core_0_LLC_prefetch_issued 0
Core_0_LLC_prefetch_useful 0
Core_0_LLC_prefetch_useless 0
Core_0_LLC_prefetch_late 0
Core_0_LLC_prefetch_fill 954604
Core_0_LLC_prefetch_too_early 0
Core_0_LLC_prefetch_too_early_among_fill 0
Core_0_LLC_prefetch_too_early_among_useless 0
Core_0_LLC_prefetch_pollution_evict 12533
Core_0_LLC_prefetch_pollution_demand 12533
Core_0_LLC_prefetch_pollution_among_prefetch_fill 0.013129
Core_0_LLC_prefetch_accuracy 0
Core_0_LLC_prefetch_coverage 0

[DRAM Statistics]
Channel_0_RQ_row_buffer_hit 456
Channel_0_RQ_row_buffer_miss 6770672
Channel_0_WQ_row_buffer_hit 0
Channel_0_WQ_row_buffer_miss 0
Channel_0_WQ_full 0
Channel_0_dbus_congested 2173031
DRAM_total_RQ_row_buffer_hit 456
DRAM_total_RQ_row_buffer_miss 6770672
DRAM_total_WQ_row_buffer_hit 0
DRAM_total_WQ_row_buffer_miss 0
DRAM_total_WQ_full 0
DRAM_total_dbus_congested 2173031
DRAM_avg_congested_cycle 2.90182

====== DRAM_RQ_TRAFFIC ========
DRAM_RQ_READ_TRAFFIC_BREAKDOWN:
data_demand_read.count = 4440628
data_demand_read.share = 65.58%

inst_demand_read.count = 0
inst_demand_read.share = 0.00%

cache_inst_prefetch.count = 0
cache_inst_prefetch.share = 0.00%

cache_data_prefetch.count = 954604
cache_data_prefetch.share = 14.10%

stlb_data_demand.count = 1375896
stlb_data_demand.share = 20.32%

stlb_inst_demand.count = 0
stlb_inst_demand.share = 0.00%

stlb_l1i_pref.count = 0
stlb_l1i_pref.share = 0.00%

stlb_l1d_pref.count = 0
stlb_l1d_pref.share = 0.00%

DRAM_RQ_READ_TRAFFIC_SUMMARY:
cache_demand.count = 4440628
cache_demand.share = 65.58%

cache_prefetch.count = 954604
cache_prefetch.share = 14.10%

stlb_demand.count = 1375896
stlb_demand.share = 20.32%

stlb_prefetch.count = 0
stlb_prefetch.share = 0.00%

DRAM_RQ_READ_TRAFFIC_DEBUG:
total_classified_read.count = 6771128
unclassified_read.count = 0
total_read_with_other.count = 6771128

classified_plus_unclassified_check.count = 6771128
dram_rq_read_total_observed.count = 6771128
dram_rq_read_total_observed.per_1K_instructions = 67.7113

STLB_MISS_PTW_DRAM_TOUCH_BREAKDOWN:
stlb_miss_total.count = 3890303

stlb_miss_touch_dram.count = 1374932
stlb_miss_touch_dram.share = 35.34%

stlb_miss_no_dram_touch.count = 2515371
stlb_miss_no_dram_touch.share = 64.66%

STLB_MISS_PTW_DRAM_TOUCH_DEBUG:
stlb_miss_touch_plus_no_touch.count = 3890303
stlb_miss_total_check.count = 3890303

======STLB miss causes ========
Core_0_STLB_miss_cause_breakdown
Core_0_STLB_cause_Demand_Data_miss 3890303
Core_0_STLB_cause_Demand_Data_miss_rate 0.979739
Core_0_STLB_cause_Demand_Instruction_miss 0
Core_0_STLB_cause_Demand_Instruction_miss_rate 0
Core_0_STLB_cause_L1D_Prefetch_miss 0
Core_0_STLB_cause_L1D_Prefetch_miss_rate 0
Core_0_STLB_cause_L1D_Prefetch_Same_Page_miss 0
Core_0_STLB_cause_L1D_Prefetch_Same_Page_miss_rate 0
Core_0_STLB_cause_L1D_Prefetch_Cross_Page_miss 0
Core_0_STLB_cause_L1D_Prefetch_Cross_Page_miss_rate 0
Core_0_STLB_cause_L1I_Prefetch_miss 0
Core_0_STLB_cause_L1I_Prefetch_miss_rate 0
Core_0_STLB_cause_Other_miss 0
Core_0_STLB_cause_Other_miss_rate 0
Core_0_STLB_Demand_miss 3890303
Core_0_STLB_Demand_miss_rate 0.979739
Core_0_STLB_L1D_Prefetch_miss 0
Core_0_STLB_L1D_Prefetch_miss_rate 0
Core_0_STLB_Other_miss 0
Core_0_STLB_Other_miss_rate 0

========== vBerti-TLB Cross-page Flow Stats ==========

Core_0_vBerti_Requested 7807783
Core_0_vBerti_Cross_page_prefetch_in_Requested 0
Core_0_vBerti_Same_page_prefetch_in_Requested 7807783
Core_0_vBerti_Cross_page_prefetch_of_Requested 0
Core_0_vBerti_Issued 7047122
Core_0_vBerti_InPQ_Same_page_prefetch 7047122
Core_0_vBerti_InPQ_Cross_page_prefetch 0
Core_0_vBerti_PQ_Drop_Rate 0.0974234
Core_0_vBerti_InPQ_Cross_page_prefetch_of_Requested 0
Core_0_vBerti_Cross_page_PQ_Drop_rate 0
Core_0_vBerti_Cross_page_prefetch_of_Issued 0
Core_0_CP_PF_PQFULL_drop 0
Core_0_CP_PF_PQFULL_TLB_rescue_enqueued 0
Core_0_CP_PF_PQFULL_TLB_rescue_issued 0
Core_0_CP_PF_PQFULL_TLB_rescue_translated 0

========= DTLB_vBerti Prefetch Stats =========
Core_0_DTLB_demand_access 14018252
Core_0_DTLB_demand_hit 8691372
Core_0_DTLB_demand_miss 5326880
Core_0_DTLB_demand_mshr_merge 1356124
Core_0_DTLB_demand_fill 3970764
Core_0_DTLB_demand_miss_rate 0.379996
Core_0_DTLB_demand_mpki 53.2688
Core_0_DTLB_vberti_prefetch_access 4441757
Core_0_DTLB_vberti_prefetch_hit 4441757
Core_0_DTLB_vberti_prefetch_miss 0
Core_0_DTLB_vberti_prefetch_mshr_merge 0
Core_0_DTLB_vberti_prefetch_fill 0
Core_0_DTLB_vberti_prefetch_miss_rate 0
Core_0_DTLB_vberti_prefetch_mpki 0

=== DTLB_vBerti Same/Cross-page Prefetch Stats ===
Core_0_DTLB_vberti_same_page_prefetch 4441757
Core_0_DTLB_vberti_same_page_prefetch_hit 4441757
Core_0_DTLB_vberti_same_page_prefetch_miss 0
Core_0_DTLB_vberti_same_page_prefetch_mshr_merge 0
Core_0_DTLB_vberti_same_page_prefetch_fill 0
Core_0_DTLB_vberti_same_page_prefetch_miss_rate 0
Core_0_DTLB_vberti_same_page_prefetch_mpki 0
Core_0_DTLB_vberti_cross_page_prefetch 0
Core_0_DTLB_vberti_cross_page_prefetch_hit 0
Core_0_DTLB_vberti_cross_page_prefetch_miss 0
Core_0_DTLB_vberti_cross_page_prefetch_mshr_merge 0
Core_0_DTLB_vberti_cross_page_prefetch_fill 0
Core_0_DTLB_vberti_cross_page_prefetch_miss_rate 0
Core_0_DTLB_vberti_cross_page_prefetch_mpki 0
Core_0_DTLB_same_page_prefetch_miss_rate 0
Core_0_DTLB_same_page_prefetch_mpki 0
Core_0_DTLB_cross_page_prefetch_miss_rate 0
Core_0_DTLB_cross_page_prefetch_mpki 0
Core_0_DTLB_cross_page_prefetch_issued 0
Core_0_DTLB_cross_page_prefetch_lookups 0
Core_0_DTLB_cross_page_prefetch_useful 0
Core_0_DTLB_cross_page_prefetch_useless 0
Core_0_DTLB_cross_page_prefetch_late 0
Core_0_DTLB_cross_page_prefetch_too_early 0
Core_0_DTLB_cross_page_prefetch_too_early_among_fill 0
Core_0_DTLB_cross_page_prefetch_too_early_among_useless 0
Core_0_DTLB_cross_page_prefetch_pollution_evict 0
Core_0_DTLB_cross_page_prefetch_pollution_demand 0
Core_0_DTLB_cross_page_prefetch_pollution_among_prefetch_fill 0
Core_0_DTLB_cross_page_prefetch_accuracy 0
Core_0_DTLB_cross_page_prefetch_coverage 0

========= STLB_vBerti Prefetch Stats =========
Core_0_STLB_demand_access 3970756
Core_0_STLB_demand_hit 80453
Core_0_STLB_demand_miss 3890303
Core_0_STLB_demand_mshr_merge 0
Core_0_STLB_demand_fill 3890311
Core_0_STLB_demand_miss_rate 0.979739
Core_0_STLB_demand_mpki 38.903
Core_0_STLB_vberti_prefetch_access 0
Core_0_STLB_vberti_prefetch_hit 0
Core_0_STLB_vberti_prefetch_miss 0
Core_0_STLB_vberti_prefetch_mshr_merge 0
Core_0_STLB_vberti_prefetch_fill 0
Core_0_STLB_vberti_prefetch_miss_rate 0
Core_0_STLB_vberti_prefetch_mpki 0

=== STLB_vBerti Same/Cross-page Prefetch Stats ===
Core_0_STLB_vberti_same_page_prefetch 0
Core_0_STLB_vberti_same_page_prefetch_hit 0
Core_0_STLB_vberti_same_page_prefetch_miss 0
Core_0_STLB_vberti_same_page_prefetch_mshr_merge 0
Core_0_STLB_vberti_same_page_prefetch_fill 0
Core_0_STLB_vberti_same_page_prefetch_miss_rate 0
Core_0_STLB_vberti_same_page_prefetch_mpki 0
Core_0_STLB_vberti_cross_page_prefetch 0
Core_0_STLB_vberti_cross_page_prefetch_hit 0
Core_0_STLB_vberti_cross_page_prefetch_miss 0
Core_0_STLB_vberti_cross_page_prefetch_mshr_merge 0
Core_0_STLB_vberti_cross_page_prefetch_fill 0
Core_0_STLB_vberti_cross_page_prefetch_miss_rate 0
Core_0_STLB_vberti_cross_page_prefetch_mpki 0
Core_0_STLB_same_page_prefetch_miss_rate 0
Core_0_STLB_same_page_prefetch_mpki 0
Core_0_STLB_cross_page_prefetch_miss_rate 0
Core_0_STLB_cross_page_prefetch_mpki 0
Core_0_STLB_cross_page_prefetch_issued 0
Core_0_STLB_cross_page_prefetch_lookups 0
Core_0_STLB_cross_page_prefetch_useful 0
Core_0_STLB_cross_page_prefetch_useless 0
Core_0_STLB_cross_page_prefetch_late 0
Core_0_STLB_cross_page_prefetch_too_early 0
Core_0_STLB_cross_page_prefetch_too_early_among_fill 0
Core_0_STLB_cross_page_prefetch_too_early_among_useless 0
Core_0_STLB_cross_page_prefetch_pollution_evict 0
Core_0_STLB_cross_page_prefetch_pollution_demand 0
Core_0_STLB_cross_page_prefetch_pollution_among_prefetch_fill 0
Core_0_STLB_cross_page_prefetch_accuracy 0
Core_0_STLB_cross_page_prefetch_coverage 0

========= STLB Cross-page Prefetch Buffer Stats =========
Core_0_STLB_raw_demand_miss 3890303
Core_0_CP_PB_insert 0
Core_0_CP_PB_demand_hit 0
Core_0_STLB_PB_demand_miss 3890303
Core_0_CP_PB_coverage 0
Core_0_STLB_raw_demand_mpki 38.903
Core_0_STLB_PB_demand_mpki 38.903
Core_0_CP_PB_demand_hit_mpki 0

Core_0_TLB_demand_miss_rate 0.277517
Core_0_TLB_demand_mpki 38.903
Core_0_TLB_same_page_prefetch_miss_rate 0
Core_0_TLB_same_page_prefetch_mpki 0
Core_0_TLB_cross_page_prefetch_miss_rate 0
Core_0_TLB_cross_page_prefetch_mpki 0
Core_0_TLB_cross_page_prefetch_issued 0
Core_0_TLB_cross_page_prefetch_lookups 0
Core_0_TLB_cross_page_prefetch_useful 0
Core_0_TLB_cross_page_prefetch_useless 0
Core_0_TLB_cross_page_prefetch_late 0
Core_0_TLB_cross_page_prefetch_too_early 0
Core_0_TLB_cross_page_prefetch_too_early_among_fill 0
Core_0_TLB_cross_page_prefetch_too_early_among_useless 0
Core_0_TLB_cross_page_prefetch_accuracy 0
Core_0_TLB_cross_page_prefetch_coverage 0
====== vBerti internal metric ========
BERTI TO_L1: 2657992 TO_L2: 5149791 TO_L2_BC_MSHR: 0
BERTI AVG_LAT: 189.643 NUM_TRACK_LATENCY: 5244024 NUM_CANT_TRACK_LATENCY: 0
BERTI CROSS_PAGE 932148 NO_CROSS_PAGE: 7807783
BERTI FOUND_BERTI: 13357396 NO_FOUND_BERTI: 663503
BERTI AVERAGE_ISSUED: 3.69898
