[VMEM] WARNING: physical memory size is smaller than virtual memory size.

*** ChampSim Multicore Out-of-Order Simulator ***
Warmup Instructions: 50000000
Simulation Instructions: 100000000
Number of CPUs: 1
Page size: 4096
Core 0: /data2/zcq/champsim_traces_xsbench/xs.XL64hash-126B.champsimtrace.xz
VBerti Prefetcher
No Crossing Page
BERTI HASH ENTANGLING
BERTI IP MASK ffff
Off-chip DRAM Size: 16 GiB Channels: 1 Width: 64-bit Data Rate: 3205 MT/s
Warmup halting CPU 0 at instruction 50000002 cycle 30074583 for remainder of phase
Warmup finished CPU 0 instructions: 50000002 cycles: 30074583 cumulative IPC: 1.663 (Simulation time: 00 hr 05 min 04 sec)
Warmup complete CPU 0 instructions: 50000002 cycles: 30074583 cumulative IPC: 1.663 (Simulation time: 00 hr 05 min 04 sec)
Simulation finished CPU 0 instructions: 100000001 cycles: 458776967 cumulative IPC: 0.218 (Simulation time: 00 hr 37 min 39 sec)
Simulation complete CPU 0 instructions: 100000001 cycles: 458776967 cumulative IPC: 0.218 (Simulation time: 00 hr 37 min 39 sec)

ChampSim completed all CPUs

=== Simulation ===
CPU 0 runs /data2/zcq/champsim_traces_xsbench/xs.XL64hash-126B.champsimtrace.xz

Region of Interest Statistics

CPU 0 cumulative IPC: 0.218 instructions: 100000001 cycles: 458776967
CPU 0 Branch Prediction Accuracy: 93.05% MPKI: 9.525 Average ROB Occupancy at Mispredict: 70.03
Branch type MPKI
BRANCH_DIRECT_JUMP: 0
BRANCH_INDIRECT: 0
BRANCH_CONDITIONAL: 9.525
BRANCH_DIRECT_CALL: 0
BRANCH_INDIRECT_CALL: 0
BRANCH_RETURN: 0

cpu0->cpu0_STLB TOTAL        ACCESS:     834477 HIT:      13430 MISS:     821047 MSHR_MERGE:          0
cpu0->cpu0_STLB LOAD         ACCESS:     834477 HIT:      13430 MISS:     821047 MSHR_MERGE:          0
cpu0->cpu0_STLB RFO          ACCESS:          0 HIT:          0 MISS:          0 MSHR_MERGE:          0
cpu0->cpu0_STLB PREFETCH     ACCESS:          0 HIT:          0 MISS:          0 MSHR_MERGE:          0
cpu0->cpu0_STLB WRITE        ACCESS:          0 HIT:          0 MISS:          0 MSHR_MERGE:          0
cpu0->cpu0_STLB TRANSLATION  ACCESS:          0 HIT:          0 MISS:          0 MSHR_MERGE:          0
cpu0->cpu0_STLB PREFETCH REQUESTED:          0 ISSUED:          0 USEFUL:          0 USELESS:          0 LATE:          0 TOO_EARLY:          0
cpu0->cpu0_STLB AVERAGE MISS LATENCY: 314.8 cycles
cpu0->cpu0_L2C TOTAL        ACCESS:    7379531 HIT:    2175427 MISS:    5204104 MSHR_MERGE:      56544
cpu0->cpu0_L2C LOAD         ACCESS:    4135457 HIT:      84281 MISS:    4051176 MSHR_MERGE:       2424
cpu0->cpu0_L2C RFO          ACCESS:       5083 HIT:       5083 MISS:          0 MSHR_MERGE:          0
cpu0->cpu0_L2C PREFETCH     ACCESS:    2194244 HIT:    1709003 MISS:     485241 MSHR_MERGE:      54120
cpu0->cpu0_L2C WRITE        ACCESS:      13090 HIT:      13071 MISS:         19 MSHR_MERGE:          0
cpu0->cpu0_L2C TRANSLATION  ACCESS:    1031657 HIT:     363989 MISS:     667668 MSHR_MERGE:          0
cpu0->cpu0_L2C PREFETCH REQUESTED:     606647 ISSUED:     606647 USEFUL:      46034 USELESS:     292923 LATE:       2345 TOO_EARLY:        530
cpu0->cpu0_L2C AVERAGE MISS LATENCY: 222.2 cycles
cpu0->cpu0_L1I TOTAL        ACCESS:     479013 HIT:     479013 MISS:          0 MSHR_MERGE:          0
cpu0->cpu0_L1I LOAD         ACCESS:     479013 HIT:     479013 MISS:          0 MSHR_MERGE:          0
cpu0->cpu0_L1I RFO          ACCESS:          0 HIT:          0 MISS:          0 MSHR_MERGE:          0
cpu0->cpu0_L1I PREFETCH     ACCESS:          0 HIT:          0 MISS:          0 MSHR_MERGE:          0
cpu0->cpu0_L1I WRITE        ACCESS:          0 HIT:          0 MISS:          0 MSHR_MERGE:          0
cpu0->cpu0_L1I TRANSLATION  ACCESS:          0 HIT:          0 MISS:          0 MSHR_MERGE:          0
cpu0->cpu0_L1I PREFETCH REQUESTED:          0 ISSUED:          0 USEFUL:          0 USELESS:          0 LATE:          0 TOO_EARLY:          0
cpu0->cpu0_L1I AVERAGE MISS LATENCY: - cycles
cpu0->cpu0_L1D TOTAL        ACCESS:   24643734 HIT:   16563048 MISS:    8080686 MSHR_MERGE:    1320764
cpu0->cpu0_L1D LOAD         ACCESS:   14674377 HIT:    9379372 MISS:    5295005 MSHR_MERGE:    1159552
cpu0->cpu0_L1D RFO          ACCESS:          0 HIT:          0 MISS:          0 MSHR_MERGE:          0
cpu0->cpu0_L1D PREFETCH     ACCESS:    4255869 HIT:    2668008 MISS:    1587861 MSHR_MERGE:        180
cpu0->cpu0_L1D WRITE        ACCESS:    3539051 HIT:    3515113 MISS:      23938 MSHR_MERGE:      18807
cpu0->cpu0_L1D TRANSLATION  ACCESS:    2174437 HIT:    1000555 MISS:    1173882 MSHR_MERGE:     142225
cpu0->cpu0_L1D PREFETCH REQUESTED:    4257021 ISSUED:    4255867 USEFUL:     140061 USELESS:      41200 LATE:        210 TOO_EARLY:        169
cpu0->cpu0_L1D AVERAGE MISS LATENCY: 212.2 cycles
cpu0->cpu0_ITLB TOTAL        ACCESS:     401227 HIT:     401227 MISS:          0 MSHR_MERGE:          0
cpu0->cpu0_ITLB LOAD         ACCESS:     401227 HIT:     401227 MISS:          0 MSHR_MERGE:          0
cpu0->cpu0_ITLB RFO          ACCESS:          0 HIT:          0 MISS:          0 MSHR_MERGE:          0
cpu0->cpu0_ITLB PREFETCH     ACCESS:          0 HIT:          0 MISS:          0 MSHR_MERGE:          0
cpu0->cpu0_ITLB WRITE        ACCESS:          0 HIT:          0 MISS:          0 MSHR_MERGE:          0
cpu0->cpu0_ITLB TRANSLATION  ACCESS:          0 HIT:          0 MISS:          0 MSHR_MERGE:          0
cpu0->cpu0_ITLB PREFETCH REQUESTED:          0 ISSUED:          0 USEFUL:          0 USELESS:          0 LATE:          0 TOO_EARLY:          0
cpu0->cpu0_ITLB AVERAGE MISS LATENCY: - cycles
cpu0->cpu0_DTLB TOTAL        ACCESS:   21110655 HIT:   17607894 MISS:    3502761 MSHR_MERGE:    2668284
cpu0->cpu0_DTLB LOAD         ACCESS:   21110655 HIT:   17607894 MISS:    3502761 MSHR_MERGE:    2668284
cpu0->cpu0_DTLB RFO          ACCESS:          0 HIT:          0 MISS:          0 MSHR_MERGE:          0
cpu0->cpu0_DTLB PREFETCH     ACCESS:          0 HIT:          0 MISS:          0 MSHR_MERGE:          0
cpu0->cpu0_DTLB WRITE        ACCESS:          0 HIT:          0 MISS:          0 MSHR_MERGE:          0
cpu0->cpu0_DTLB TRANSLATION  ACCESS:          0 HIT:          0 MISS:          0 MSHR_MERGE:          0
cpu0->cpu0_DTLB PREFETCH REQUESTED:          0 ISSUED:          0 USEFUL:          0 USELESS:          0 LATE:          0 TOO_EARLY:          0
cpu0->cpu0_DTLB AVERAGE MISS LATENCY: 315.7 cycles
cpu0->LLC TOTAL        ACCESS:    5148152 HIT:     116042 MISS:    5032110 MSHR_MERGE:          0
cpu0->LLC LOAD         ACCESS:    4048752 HIT:       8529 MISS:    4040223 MSHR_MERGE:          0
cpu0->LLC RFO          ACCESS:          0 HIT:          0 MISS:          0 MSHR_MERGE:          0
cpu0->LLC PREFETCH     ACCESS:     431121 HIT:      23820 MISS:     407301 MSHR_MERGE:          0
cpu0->LLC WRITE        ACCESS:        611 HIT:        607 MISS:          4 MSHR_MERGE:          0
cpu0->LLC TRANSLATION  ACCESS:     667668 HIT:      83086 MISS:     584582 MSHR_MERGE:          0
cpu0->LLC PREFETCH REQUESTED:          0 ISSUED:          0 USEFUL:          0 USELESS:          0 LATE:          0 TOO_EARLY:          0
cpu0->LLC AVERAGE MISS LATENCY: 210.3 cycles

DRAM Statistics

Channel 0 RQ ROW_BUFFER_HIT:        252
  ROW_BUFFER_MISS:    5031854
  AVG DBUS CONGESTED CYCLE: 3.005
Channel 0 WQ ROW_BUFFER_HIT:          0
  ROW_BUFFER_MISS:          4
  FULL:          0
Channel 0 REFRESHES ISSUED:      38231

[ROI Statistics]
[System Configuration]
num_cpus 1
cpu_freq 4000
fetch_width 6
decode_width 6
dispatch_width 6
execute_width 6
lq_width 2
sq_width 2
retire_width 6
scheduler_size 128
branch_mispredict_penalty 15
rob_size 352
lq_size 128
sq_size 72
ifetch_buffer_size 64
decode_buffer_size 32
dispatch_buffer_size 32
register_file_size 288
decode_latency 1
dispatch_latency 1
schedule_latency 1
execute_latency 1
page_size 4096
block_size 64
core_0_itlb_set 16
core_0_itlb_way 4
core_0_itlb_rq_size 16
core_0_itlb_wq_size 16
core_0_itlb_pq_size 0
core_0_itlb_mshr_size 8
core_0_itlb_hit_latency 1
core_0_itlb_fill_latency 1
core_0_itlb_max_tag_check 2
core_0_itlb_max_fill 2
core_0_dtlb_set 16
core_0_dtlb_way 4
core_0_dtlb_rq_size 16
core_0_dtlb_wq_size 16
core_0_dtlb_pq_size 0
core_0_dtlb_mshr_size 8
core_0_dtlb_hit_latency 1
core_0_dtlb_fill_latency 1
core_0_dtlb_max_tag_check 2
core_0_dtlb_max_fill 2
core_0_stlb_set 128
core_0_stlb_way 12
core_0_stlb_rq_size 32
core_0_stlb_wq_size 32
core_0_stlb_pq_size 0
core_0_stlb_mshr_size 16
core_0_stlb_hit_latency 4
core_0_stlb_fill_latency 4
core_0_stlb_max_tag_check 1
core_0_stlb_max_fill 1
core_0_l1i_set 64
core_0_l1i_way 8
core_0_l1i_rq_size 64
core_0_l1i_wq_size 64
core_0_l1i_pq_size 32
core_0_l1i_mshr_size 8
core_0_l1i_hit_latency 2
core_0_l1i_fill_latency 2
core_0_l1i_max_tag_check 2
core_0_l1i_max_fill 2
core_0_l1d_set 64
core_0_l1d_way 12
core_0_l1d_rq_size 64
core_0_l1d_wq_size 64
core_0_l1d_pq_size 8
core_0_l1d_mshr_size 16
core_0_l1d_hit_latency 2
core_0_l1d_fill_latency 3
core_0_l1d_max_tag_check 2
core_0_l1d_max_fill 2
core_0_l2c_set 1024
core_0_l2c_way 8
core_0_l2c_rq_size 32
core_0_l2c_wq_size 32
core_0_l2c_pq_size 16
core_0_l2c_mshr_size 32
core_0_l2c_hit_latency 5
core_0_l2c_fill_latency 5
core_0_l2c_max_tag_check 1
core_0_l2c_max_fill 1
llc_set 2048
llc_way 16
llc_rq_size 32
llc_wq_size 32
llc_pq_size 32
llc_mshr_size 64
llc_hit_latency 10
llc_fill_latency 10
llc_max_tag_check 1
llc_max_fill 1
dram_channels 1
dram_ranks 1
dram_bankgroups 8
dram_banks 4
dram_rows 65536
dram_columns 1024
dram_channel_width 8
dram_rq_size 64
dram_wq_size 64
dram_size 17179869184
core_0_itlb_prefetcher no
core_0_dtlb_prefetcher no
core_0_stlb_prefetcher no
core_0_l1i_prefetcher next_line
core_0_l1d_prefetcher vberti_nocross
core_0_l2c_prefetcher ip_stride
llc_prefetcher no
llc_replacement drrip

Core_0_instructions 100000001
Core_0_cycles 458776967
Core_0_IPC 0.217971
Core_0_branch_prediction_accuracy 93.0535
Core_0_branch_MPKI 9.52545
Core_0_average_ROB_occupancy_at_mispredict 70.0307

Core_0_ITLB_total_access 401227
Core_0_ITLB_total_hit 401227
Core_0_ITLB_total_miss 0
Core_0_ITLB_total_MPKI 0
Core_0_ITLB_total_miss_rate 0
Core_0_ITLB_demand_access 401227
Core_0_ITLB_demand_hit 401227
Core_0_ITLB_demand_miss 0
Core_0_ITLB_demand_MPKI 0
Core_0_ITLB_demand_miss_rate 0
Core_0_ITLB_load_access 401227
Core_0_ITLB_load_hit 401227
Core_0_ITLB_load_miss 0
Core_0_ITLB_load_MPKI 0
Core_0_ITLB_load_miss_rate 0
Core_0_ITLB_rfo_access 0
Core_0_ITLB_rfo_hit 0
Core_0_ITLB_rfo_miss 0
Core_0_ITLB_rfo_MPKI 0
Core_0_ITLB_rfo_miss_rate 0
Core_0_ITLB_prefetch_access 0
Core_0_ITLB_prefetch_hit 0
Core_0_ITLB_prefetch_miss 0
Core_0_ITLB_prefetch_MPKI 0
Core_0_ITLB_prefetch_miss_rate 0
Core_0_ITLB_writeback_access 0
Core_0_ITLB_writeback_hit 0
Core_0_ITLB_writeback_miss 0
Core_0_ITLB_writeback_MPKI 0
Core_0_ITLB_writeback_miss_rate 0
Core_0_ITLB_prefetch_requested 0
Core_0_ITLB_prefetch_issued 0
Core_0_ITLB_prefetch_useful 0
Core_0_ITLB_prefetch_useless 0
Core_0_ITLB_prefetch_late 0
Core_0_ITLB_prefetch_fill 0
Core_0_ITLB_prefetch_too_early 0
Core_0_ITLB_prefetch_too_early_among_fill 0
Core_0_ITLB_prefetch_too_early_among_useless 0
Core_0_ITLB_prefetch_pollution_evict 0
Core_0_ITLB_prefetch_pollution_demand 0
Core_0_ITLB_prefetch_pollution_among_prefetch_fill 0
Core_0_ITLB_prefetch_accuracy 0
Core_0_ITLB_prefetch_coverage 0

Core_0_DTLB_total_access 21110655
Core_0_DTLB_total_hit 17607894
Core_0_DTLB_total_miss 3502761
Core_0_DTLB_total_MPKI 35.0276
Core_0_DTLB_total_miss_rate 0.165924
Core_0_DTLB_demand_access 21110655
Core_0_DTLB_demand_hit 17607894
Core_0_DTLB_demand_miss 3502761
Core_0_DTLB_demand_MPKI 35.0276
Core_0_DTLB_demand_miss_rate 0.165924
Core_0_DTLB_load_access 21110655
Core_0_DTLB_load_hit 17607894
Core_0_DTLB_load_miss 3502761
Core_0_DTLB_load_MPKI 35.0276
Core_0_DTLB_load_miss_rate 0.165924
Core_0_DTLB_rfo_access 0
Core_0_DTLB_rfo_hit 0
Core_0_DTLB_rfo_miss 0
Core_0_DTLB_rfo_MPKI 0
Core_0_DTLB_rfo_miss_rate 0
Core_0_DTLB_prefetch_access 0
Core_0_DTLB_prefetch_hit 0
Core_0_DTLB_prefetch_miss 0
Core_0_DTLB_prefetch_MPKI 0
Core_0_DTLB_prefetch_miss_rate 0
Core_0_DTLB_writeback_access 0
Core_0_DTLB_writeback_hit 0
Core_0_DTLB_writeback_miss 0
Core_0_DTLB_writeback_MPKI 0
Core_0_DTLB_writeback_miss_rate 0
Core_0_DTLB_prefetch_requested 0
Core_0_DTLB_prefetch_issued 0
Core_0_DTLB_prefetch_useful 0
Core_0_DTLB_prefetch_useless 0
Core_0_DTLB_prefetch_late 0
Core_0_DTLB_prefetch_fill 0
Core_0_DTLB_prefetch_too_early 0
Core_0_DTLB_prefetch_too_early_among_fill 0
Core_0_DTLB_prefetch_too_early_among_useless 0
Core_0_DTLB_prefetch_pollution_evict 0
Core_0_DTLB_prefetch_pollution_demand 0
Core_0_DTLB_prefetch_pollution_among_prefetch_fill 0
Core_0_DTLB_prefetch_accuracy 0
Core_0_DTLB_prefetch_coverage 0

Core_0_STLB_total_access 834477
Core_0_STLB_total_hit 13430
Core_0_STLB_total_miss 821047
Core_0_STLB_total_MPKI 8.21047
Core_0_STLB_total_miss_rate 0.983906
Core_0_STLB_demand_access 834477
Core_0_STLB_demand_hit 13430
Core_0_STLB_demand_miss 821047
Core_0_STLB_demand_MPKI 8.21047
Core_0_STLB_demand_miss_rate 0.983906
Core_0_STLB_load_access 834477
Core_0_STLB_load_hit 13430
Core_0_STLB_load_miss 821047
Core_0_STLB_load_MPKI 8.21047
Core_0_STLB_load_miss_rate 0.983906
Core_0_STLB_rfo_access 0
Core_0_STLB_rfo_hit 0
Core_0_STLB_rfo_miss 0
Core_0_STLB_rfo_MPKI 0
Core_0_STLB_rfo_miss_rate 0
Core_0_STLB_prefetch_access 0
Core_0_STLB_prefetch_hit 0
Core_0_STLB_prefetch_miss 0
Core_0_STLB_prefetch_MPKI 0
Core_0_STLB_prefetch_miss_rate 0
Core_0_STLB_writeback_access 0
Core_0_STLB_writeback_hit 0
Core_0_STLB_writeback_miss 0
Core_0_STLB_writeback_MPKI 0
Core_0_STLB_writeback_miss_rate 0
Core_0_STLB_prefetch_requested 0
Core_0_STLB_prefetch_issued 0
Core_0_STLB_prefetch_useful 0
Core_0_STLB_prefetch_useless 0
Core_0_STLB_prefetch_late 0
Core_0_STLB_prefetch_fill 0
Core_0_STLB_prefetch_too_early 0
Core_0_STLB_prefetch_too_early_among_fill 0
Core_0_STLB_prefetch_too_early_among_useless 0
Core_0_STLB_prefetch_pollution_evict 0
Core_0_STLB_prefetch_pollution_demand 0
Core_0_STLB_prefetch_pollution_among_prefetch_fill 0
Core_0_STLB_prefetch_accuracy 0
Core_0_STLB_prefetch_coverage 0

Core_0_L1I_total_access 479013
Core_0_L1I_total_hit 479013
Core_0_L1I_total_miss 0
Core_0_L1I_total_MPKI 0
Core_0_L1I_total_miss_rate 0
Core_0_L1I_demand_access 479013
Core_0_L1I_demand_hit 479013
Core_0_L1I_demand_miss 0
Core_0_L1I_demand_MPKI 0
Core_0_L1I_demand_miss_rate 0
Core_0_L1I_load_access 479013
Core_0_L1I_load_hit 479013
Core_0_L1I_load_miss 0
Core_0_L1I_load_MPKI 0
Core_0_L1I_load_miss_rate 0
Core_0_L1I_rfo_access 0
Core_0_L1I_rfo_hit 0
Core_0_L1I_rfo_miss 0
Core_0_L1I_rfo_MPKI 0
Core_0_L1I_rfo_miss_rate 0
Core_0_L1I_prefetch_access 0
Core_0_L1I_prefetch_hit 0
Core_0_L1I_prefetch_miss 0
Core_0_L1I_prefetch_MPKI 0
Core_0_L1I_prefetch_miss_rate 0
Core_0_L1I_writeback_access 0
Core_0_L1I_writeback_hit 0
Core_0_L1I_writeback_miss 0
Core_0_L1I_writeback_MPKI 0
Core_0_L1I_writeback_miss_rate 0
Core_0_L1I_prefetch_requested 0
Core_0_L1I_prefetch_issued 0
Core_0_L1I_prefetch_useful 0
Core_0_L1I_prefetch_useless 0
Core_0_L1I_prefetch_late 0
Core_0_L1I_prefetch_fill 0
Core_0_L1I_prefetch_too_early 0
Core_0_L1I_prefetch_too_early_among_fill 0
Core_0_L1I_prefetch_too_early_among_useless 0
Core_0_L1I_prefetch_pollution_evict 0
Core_0_L1I_prefetch_pollution_demand 0
Core_0_L1I_prefetch_pollution_among_prefetch_fill 0
Core_0_L1I_prefetch_accuracy 0
Core_0_L1I_prefetch_coverage 0

Core_0_L1D_total_access 22469297
Core_0_L1D_total_hit 15562493
Core_0_L1D_total_miss 6906804
Core_0_L1D_total_MPKI 69.068
Core_0_L1D_total_miss_rate 0.307389
Core_0_L1D_demand_access 14674377
Core_0_L1D_demand_hit 9379372
Core_0_L1D_demand_miss 5295005
Core_0_L1D_demand_MPKI 52.95
Core_0_L1D_demand_miss_rate 0.360833
Core_0_L1D_load_access 14674377
Core_0_L1D_load_hit 9379372
Core_0_L1D_load_miss 5295005
Core_0_L1D_load_MPKI 52.95
Core_0_L1D_load_miss_rate 0.360833
Core_0_L1D_rfo_access 0
Core_0_L1D_rfo_hit 0
Core_0_L1D_rfo_miss 0
Core_0_L1D_rfo_MPKI 0
Core_0_L1D_rfo_miss_rate 0
Core_0_L1D_prefetch_access 4255869
Core_0_L1D_prefetch_hit 2668008
Core_0_L1D_prefetch_miss 1587861
Core_0_L1D_prefetch_MPKI 15.8786
Core_0_L1D_prefetch_miss_rate 0.373099
Core_0_L1D_writeback_access 3539051
Core_0_L1D_writeback_hit 3515113
Core_0_L1D_writeback_miss 23938
Core_0_L1D_writeback_MPKI 0.23938
Core_0_L1D_writeback_miss_rate 0.00676396
Core_0_L1D_prefetch_requested 4257021
Core_0_L1D_prefetch_issued 4255867
Core_0_L1D_prefetch_useful 140061
Core_0_L1D_prefetch_useless 41200
Core_0_L1D_prefetch_late 210
Core_0_L1D_prefetch_fill 181051
Core_0_L1D_prefetch_too_early 169
Core_0_L1D_prefetch_too_early_among_fill 0.000933439
Core_0_L1D_prefetch_too_early_among_useless 0.00410194
Core_0_L1D_prefetch_pollution_evict 1412
Core_0_L1D_prefetch_pollution_demand 1410
Core_0_L1D_prefetch_pollution_among_prefetch_fill 0.00779891
Core_0_L1D_prefetch_accuracy 0.0329101
Core_0_L1D_prefetch_coverage 0.0257699

Core_0_L2C_total_access 6347874
Core_0_L2C_total_hit 1811438
Core_0_L2C_total_miss 4536436
Core_0_L2C_total_MPKI 45.3644
Core_0_L2C_total_miss_rate 0.714639
Core_0_L2C_demand_access 4140540
Core_0_L2C_demand_hit 89364
Core_0_L2C_demand_miss 4051176
Core_0_L2C_demand_MPKI 40.5118
Core_0_L2C_demand_miss_rate 0.978417
Core_0_L2C_load_access 4135457
Core_0_L2C_load_hit 84281
Core_0_L2C_load_miss 4051176
Core_0_L2C_load_MPKI 40.5118
Core_0_L2C_load_miss_rate 0.97962
Core_0_L2C_rfo_access 5083
Core_0_L2C_rfo_hit 5083
Core_0_L2C_rfo_miss 0
Core_0_L2C_rfo_MPKI 0
Core_0_L2C_rfo_miss_rate 0
Core_0_L2C_prefetch_access 2194244
Core_0_L2C_prefetch_hit 1709003
Core_0_L2C_prefetch_miss 485241
Core_0_L2C_prefetch_MPKI 4.85241
Core_0_L2C_prefetch_miss_rate 0.221143
Core_0_L2C_writeback_access 13090
Core_0_L2C_writeback_hit 13071
Core_0_L2C_writeback_miss 19
Core_0_L2C_writeback_MPKI 0.00019
Core_0_L2C_writeback_miss_rate 0.00145149
Core_0_L2C_prefetch_requested 606647
Core_0_L2C_prefetch_issued 606647
Core_0_L2C_prefetch_useful 46034
Core_0_L2C_prefetch_useless 292923
Core_0_L2C_prefetch_late 2345
Core_0_L2C_prefetch_fill 428669
Core_0_L2C_prefetch_too_early 530
Core_0_L2C_prefetch_too_early_among_fill 0.00123639
Core_0_L2C_prefetch_too_early_among_useless 0.00180935
Core_0_L2C_prefetch_pollution_evict 1212
Core_0_L2C_prefetch_pollution_demand 1166
Core_0_L2C_prefetch_pollution_among_prefetch_fill 0.00282736
Core_0_L2C_prefetch_accuracy 0.0758827
Core_0_L2C_prefetch_coverage 0.0112355

Core_0_LLC_total_access 4480484
Core_0_LLC_total_hit 32956
Core_0_LLC_total_miss 4447528
Core_0_LLC_total_MPKI 44.4753
Core_0_LLC_total_miss_rate 0.992645
Core_0_LLC_demand_access 4048752
Core_0_LLC_demand_hit 8529
Core_0_LLC_demand_miss 4040223
Core_0_LLC_demand_MPKI 40.4022
Core_0_LLC_demand_miss_rate 0.997893
Core_0_LLC_load_access 4048752
Core_0_LLC_load_hit 8529
Core_0_LLC_load_miss 4040223
Core_0_LLC_load_MPKI 40.4022
Core_0_LLC_load_miss_rate 0.997893
Core_0_LLC_rfo_access 0
Core_0_LLC_rfo_hit 0
Core_0_LLC_rfo_miss 0
Core_0_LLC_rfo_MPKI 0
Core_0_LLC_rfo_miss_rate 0
Core_0_LLC_prefetch_access 431121
Core_0_LLC_prefetch_hit 23820
Core_0_LLC_prefetch_miss 407301
Core_0_LLC_prefetch_MPKI 4.07301
Core_0_LLC_prefetch_miss_rate 0.944749
Core_0_LLC_writeback_access 611
Core_0_LLC_writeback_hit 607
Core_0_LLC_writeback_miss 4
Core_0_LLC_writeback_MPKI 4e-05
Core_0_LLC_writeback_miss_rate 0.00654664
Core_0_LLC_prefetch_requested 0
Core_0_LLC_prefetch_issued 0
Core_0_LLC_prefetch_useful 0
Core_0_LLC_prefetch_useless 0
Core_0_LLC_prefetch_late 0
Core_0_LLC_prefetch_fill 407301
Core_0_LLC_prefetch_too_early 0
Core_0_LLC_prefetch_too_early_among_fill 0
Core_0_LLC_prefetch_too_early_among_useless 0
Core_0_LLC_prefetch_pollution_evict 4005
Core_0_LLC_prefetch_pollution_demand 4005
Core_0_LLC_prefetch_pollution_among_prefetch_fill 0.00983302
Core_0_LLC_prefetch_accuracy 0
Core_0_LLC_prefetch_coverage 0

[DRAM Statistics]
Channel_0_RQ_row_buffer_hit 252
Channel_0_RQ_row_buffer_miss 5031854
Channel_0_WQ_row_buffer_hit 0
Channel_0_WQ_row_buffer_miss 4
Channel_0_WQ_full 0
Channel_0_dbus_congested 8110854
DRAM_total_RQ_row_buffer_hit 252
DRAM_total_RQ_row_buffer_miss 5031854
DRAM_total_WQ_row_buffer_hit 0
DRAM_total_WQ_row_buffer_miss 4
DRAM_total_WQ_full 0
DRAM_total_dbus_congested 8110854
DRAM_avg_congested_cycle 3.00539

====== DRAM_RQ_TRAFFIC ========
DRAM_RQ_READ_TRAFFIC_BREAKDOWN:
data_demand_read.count = 4040223
data_demand_read.share = 80.29%

inst_demand_read.count = 0
inst_demand_read.share = 0.00%

cache_inst_prefetch.count = 0
cache_inst_prefetch.share = 0.00%

cache_data_prefetch.count = 407301
cache_data_prefetch.share = 8.09%

stlb_data_demand.count = 584582
stlb_data_demand.share = 11.62%

stlb_inst_demand.count = 0
stlb_inst_demand.share = 0.00%

stlb_l1i_pref.count = 0
stlb_l1i_pref.share = 0.00%

stlb_l1d_pref.count = 0
stlb_l1d_pref.share = 0.00%

DRAM_RQ_READ_TRAFFIC_SUMMARY:
cache_demand.count = 4040223
cache_demand.share = 80.29%

cache_prefetch.count = 407301
cache_prefetch.share = 8.09%

stlb_demand.count = 584582
stlb_demand.share = 11.62%

stlb_prefetch.count = 0
stlb_prefetch.share = 0.00%

DRAM_RQ_READ_TRAFFIC_DEBUG:
total_classified_read.count = 5032106
unclassified_read.count = 0
total_read_with_other.count = 5032106

classified_plus_unclassified_check.count = 5032106
dram_rq_read_total_observed.count = 5032106
dram_rq_read_total_observed.per_1K_instructions = 50.3211

STLB_MISS_PTW_DRAM_TOUCH_BREAKDOWN:
stlb_miss_total.count = 821047

stlb_miss_touch_dram.count = 675119
stlb_miss_touch_dram.share = 82.23%

stlb_miss_no_dram_touch.count = 145928
stlb_miss_no_dram_touch.share = 17.77%

STLB_MISS_PTW_DRAM_TOUCH_DEBUG:
stlb_miss_touch_plus_no_touch.count = 821047
stlb_miss_total_check.count = 821047

======STLB miss causes ========
Core_0_STLB_miss_cause_breakdown
Core_0_STLB_cause_Demand_Data_miss 821047
Core_0_STLB_cause_Demand_Data_miss_rate 0.983906
Core_0_STLB_cause_Demand_Instruction_miss 0
Core_0_STLB_cause_Demand_Instruction_miss_rate 0
Core_0_STLB_cause_L1D_Prefetch_miss 0
Core_0_STLB_cause_L1D_Prefetch_miss_rate 0
Core_0_STLB_cause_L1D_Prefetch_Same_Page_miss 0
Core_0_STLB_cause_L1D_Prefetch_Same_Page_miss_rate 0
Core_0_STLB_cause_L1D_Prefetch_Cross_Page_miss 0
Core_0_STLB_cause_L1D_Prefetch_Cross_Page_miss_rate 0
Core_0_STLB_cause_L1I_Prefetch_miss 0
Core_0_STLB_cause_L1I_Prefetch_miss_rate 0
Core_0_STLB_cause_Other_miss 0
Core_0_STLB_cause_Other_miss_rate 0
Core_0_STLB_Demand_miss 821047
Core_0_STLB_Demand_miss_rate 0.983906
Core_0_STLB_L1D_Prefetch_miss 0
Core_0_STLB_L1D_Prefetch_miss_rate 0
Core_0_STLB_Other_miss 0
Core_0_STLB_Other_miss_rate 0

========== vBerti-TLB Cross-page Flow Stats ==========

Core_0_vBerti_Requested 4257021
Core_0_vBerti_Cross_page_prefetch_in_Requested 0
Core_0_vBerti_Same_page_prefetch_in_Requested 4257021
Core_0_vBerti_Cross_page_prefetch_of_Requested 0
Core_0_vBerti_Issued 4255867
Core_0_vBerti_InPQ_Same_page_prefetch 4255867
Core_0_vBerti_InPQ_Cross_page_prefetch 0
Core_0_vBerti_PQ_Drop_Rate 0.000271082
Core_0_vBerti_InPQ_Cross_page_prefetch_of_Requested 0
Core_0_vBerti_Cross_page_PQ_Drop_rate 0
Core_0_vBerti_Cross_page_prefetch_of_Issued 0
Core_0_CP_PF_PQFULL_drop 0
Core_0_CP_PF_PQFULL_TLB_rescue_enqueued 0
Core_0_CP_PF_PQFULL_TLB_rescue_issued 0
Core_0_CP_PF_PQFULL_TLB_rescue_translated 0

========= DTLB_vBerti Prefetch Stats =========
Core_0_DTLB_demand_access 17724164
Core_0_DTLB_demand_hit 14221403
Core_0_DTLB_demand_miss 3502761
Core_0_DTLB_demand_mshr_merge 2668284
Core_0_DTLB_demand_fill 834477
Core_0_DTLB_demand_miss_rate 0.197626
Core_0_DTLB_demand_mpki 35.0276
Core_0_DTLB_vberti_prefetch_access 3386491
Core_0_DTLB_vberti_prefetch_hit 3386491
Core_0_DTLB_vberti_prefetch_miss 0
Core_0_DTLB_vberti_prefetch_mshr_merge 0
Core_0_DTLB_vberti_prefetch_fill 0
Core_0_DTLB_vberti_prefetch_miss_rate 0
Core_0_DTLB_vberti_prefetch_mpki 0

=== DTLB_vBerti Same/Cross-page Prefetch Stats ===
Core_0_DTLB_vberti_same_page_prefetch 3386491
Core_0_DTLB_vberti_same_page_prefetch_hit 3386491
Core_0_DTLB_vberti_same_page_prefetch_miss 0
Core_0_DTLB_vberti_same_page_prefetch_mshr_merge 0
Core_0_DTLB_vberti_same_page_prefetch_fill 0
Core_0_DTLB_vberti_same_page_prefetch_miss_rate 0
Core_0_DTLB_vberti_same_page_prefetch_mpki 0
Core_0_DTLB_vberti_cross_page_prefetch 0
Core_0_DTLB_vberti_cross_page_prefetch_hit 0
Core_0_DTLB_vberti_cross_page_prefetch_miss 0
Core_0_DTLB_vberti_cross_page_prefetch_mshr_merge 0
Core_0_DTLB_vberti_cross_page_prefetch_fill 0
Core_0_DTLB_vberti_cross_page_prefetch_miss_rate 0
Core_0_DTLB_vberti_cross_page_prefetch_mpki 0
Core_0_DTLB_same_page_prefetch_miss_rate 0
Core_0_DTLB_same_page_prefetch_mpki 0
Core_0_DTLB_cross_page_prefetch_miss_rate 0
Core_0_DTLB_cross_page_prefetch_mpki 0
Core_0_DTLB_cross_page_prefetch_issued 0
Core_0_DTLB_cross_page_prefetch_lookups 0
Core_0_DTLB_cross_page_prefetch_useful 0
Core_0_DTLB_cross_page_prefetch_useless 0
Core_0_DTLB_cross_page_prefetch_late 0
Core_0_DTLB_cross_page_prefetch_too_early 0
Core_0_DTLB_cross_page_prefetch_too_early_among_fill 0
Core_0_DTLB_cross_page_prefetch_too_early_among_useless 0
Core_0_DTLB_cross_page_prefetch_pollution_evict 0
Core_0_DTLB_cross_page_prefetch_pollution_demand 0
Core_0_DTLB_cross_page_prefetch_pollution_among_prefetch_fill 0
Core_0_DTLB_cross_page_prefetch_accuracy 0
Core_0_DTLB_cross_page_prefetch_coverage 0

========= STLB_vBerti Prefetch Stats =========
Core_0_STLB_demand_access 834477
Core_0_STLB_demand_hit 13430
Core_0_STLB_demand_miss 821047
Core_0_STLB_demand_mshr_merge 0
Core_0_STLB_demand_fill 821047
Core_0_STLB_demand_miss_rate 0.983906
Core_0_STLB_demand_mpki 8.21047
Core_0_STLB_vberti_prefetch_access 0
Core_0_STLB_vberti_prefetch_hit 0
Core_0_STLB_vberti_prefetch_miss 0
Core_0_STLB_vberti_prefetch_mshr_merge 0
Core_0_STLB_vberti_prefetch_fill 0
Core_0_STLB_vberti_prefetch_miss_rate 0
Core_0_STLB_vberti_prefetch_mpki 0

=== STLB_vBerti Same/Cross-page Prefetch Stats ===
Core_0_STLB_vberti_same_page_prefetch 0
Core_0_STLB_vberti_same_page_prefetch_hit 0
Core_0_STLB_vberti_same_page_prefetch_miss 0
Core_0_STLB_vberti_same_page_prefetch_mshr_merge 0
Core_0_STLB_vberti_same_page_prefetch_fill 0
Core_0_STLB_vberti_same_page_prefetch_miss_rate 0
Core_0_STLB_vberti_same_page_prefetch_mpki 0
Core_0_STLB_vberti_cross_page_prefetch 0
Core_0_STLB_vberti_cross_page_prefetch_hit 0
Core_0_STLB_vberti_cross_page_prefetch_miss 0
Core_0_STLB_vberti_cross_page_prefetch_mshr_merge 0
Core_0_STLB_vberti_cross_page_prefetch_fill 0
Core_0_STLB_vberti_cross_page_prefetch_miss_rate 0
Core_0_STLB_vberti_cross_page_prefetch_mpki 0
Core_0_STLB_same_page_prefetch_miss_rate 0
Core_0_STLB_same_page_prefetch_mpki 0
Core_0_STLB_cross_page_prefetch_miss_rate 0
Core_0_STLB_cross_page_prefetch_mpki 0
Core_0_STLB_cross_page_prefetch_issued 0
Core_0_STLB_cross_page_prefetch_lookups 0
Core_0_STLB_cross_page_prefetch_useful 0
Core_0_STLB_cross_page_prefetch_useless 0
Core_0_STLB_cross_page_prefetch_late 0
Core_0_STLB_cross_page_prefetch_too_early 0
Core_0_STLB_cross_page_prefetch_too_early_among_fill 0
Core_0_STLB_cross_page_prefetch_too_early_among_useless 0
Core_0_STLB_cross_page_prefetch_pollution_evict 0
Core_0_STLB_cross_page_prefetch_pollution_demand 0
Core_0_STLB_cross_page_prefetch_pollution_among_prefetch_fill 0
Core_0_STLB_cross_page_prefetch_accuracy 0
Core_0_STLB_cross_page_prefetch_coverage 0

========= STLB Cross-page Prefetch Buffer Stats =========
Core_0_STLB_raw_demand_miss 821047
Core_0_CP_PB_insert 0
Core_0_CP_PB_demand_hit 0
Core_0_STLB_PB_demand_miss 821047
Core_0_CP_PB_coverage 0
Core_0_STLB_raw_demand_mpki 8.21047
Core_0_STLB_PB_demand_mpki 8.21047
Core_0_CP_PB_demand_hit_mpki 0

Core_0_TLB_demand_miss_rate 0.0463236
Core_0_TLB_demand_mpki 8.21047
Core_0_TLB_same_page_prefetch_miss_rate 0
Core_0_TLB_same_page_prefetch_mpki 0
Core_0_TLB_cross_page_prefetch_miss_rate 0
Core_0_TLB_cross_page_prefetch_mpki 0
Core_0_TLB_cross_page_prefetch_issued 0
Core_0_TLB_cross_page_prefetch_lookups 0
Core_0_TLB_cross_page_prefetch_useful 0
Core_0_TLB_cross_page_prefetch_useless 0
Core_0_TLB_cross_page_prefetch_late 0
Core_0_TLB_cross_page_prefetch_too_early 0
Core_0_TLB_cross_page_prefetch_too_early_among_fill 0
Core_0_TLB_cross_page_prefetch_too_early_among_useless 0
Core_0_TLB_cross_page_prefetch_accuracy 0
Core_0_TLB_cross_page_prefetch_coverage 0
====== vBerti internal metric ========
BERTI TO_L1: 2662346 TO_L2: 1594675 TO_L2_BC_MSHR: 0
BERTI AVG_LAT: 223.965 NUM_TRACK_LATENCY: 4307225 NUM_CANT_TRACK_LATENCY: 0
BERTI CROSS_PAGE 138136 NO_CROSS_PAGE: 4257021
BERTI FOUND_BERTI: 10654497 NO_FOUND_BERTI: 7558931
BERTI AVERAGE_ISSUED: 1.85901
