[VMEM] WARNING: physical memory size is smaller than virtual memory size.

*** ChampSim Multicore Out-of-Order Simulator ***
Warmup Instructions: 20000000
Simulation Instructions: 50000000
Number of CPUs: 1
Page size: 4096
Core 0: /data0/tzh/champsim_traces/SPEC06/459.GemsFDTD-1320B.champsimtrace.xz
 L1D Berti prefetcher
Off-chip DRAM Size: 4 GiB Channels: 1 Width: 64-bit Data Rate: 3205 MT/s
Warmup halting CPU 0 at instruction 20000004 cycle 5815236 for remainder of phase
Warmup finished CPU 0 instructions: 20000004 cycles: 5815236 cumulative IPC: 3.439 (Simulation time: 00 hr 01 min 22 sec)
Warmup complete CPU 0 instructions: 20000004 cycles: 5815236 cumulative IPC: 3.439 (Simulation time: 00 hr 01 min 22 sec)
Simulation finished CPU 0 instructions: 50000005 cycles: 48097806 cumulative IPC: 1.04 (Simulation time: 00 hr 08 min 52 sec)
Simulation complete CPU 0 instructions: 50000005 cycles: 48097806 cumulative IPC: 1.04 (Simulation time: 00 hr 08 min 52 sec)

ChampSim completed all CPUs

=== Simulation ===
CPU 0 runs /data0/tzh/champsim_traces/SPEC06/459.GemsFDTD-1320B.champsimtrace.xz

Region of Interest Statistics

CPU 0 cumulative IPC: 1.04 instructions: 50000005 cycles: 48097806
CPU 0 Branch Prediction Accuracy: 99.44% MPKI: 0.01404 Average ROB Occupancy at Mispredict: 344.4
Branch type MPKI
BRANCH_DIRECT_JUMP: 6e-05
BRANCH_INDIRECT: 0
BRANCH_CONDITIONAL: 0.01398
BRANCH_DIRECT_CALL: 0
BRANCH_INDIRECT_CALL: 0
BRANCH_RETURN: 0

cpu0->cpu0_STLB TOTAL        ACCESS:     643047 HIT:     576832 MISS:      66215 MSHR_MERGE:          0
cpu0->cpu0_STLB LOAD         ACCESS:     643047 HIT:     576832 MISS:      66215 MSHR_MERGE:          0
cpu0->cpu0_STLB RFO          ACCESS:          0 HIT:          0 MISS:          0 MSHR_MERGE:          0
cpu0->cpu0_STLB PREFETCH     ACCESS:          0 HIT:          0 MISS:          0 MSHR_MERGE:          0
cpu0->cpu0_STLB WRITE        ACCESS:          0 HIT:          0 MISS:          0 MSHR_MERGE:          0
cpu0->cpu0_STLB TRANSLATION  ACCESS:          0 HIT:          0 MISS:          0 MSHR_MERGE:          0
cpu0->cpu0_STLB PREFETCH REQUESTED:          0 ISSUED:          0 USEFUL:          0 USELESS:          0 LATE:          0
cpu0->cpu0_STLB AVERAGE MISS LATENCY: 256.7 cycles
cpu0->cpu0_L2C TOTAL        ACCESS:    5248892 HIT:    4083525 MISS:    1165367 MSHR_MERGE:      68288
cpu0->cpu0_L2C LOAD         ACCESS:     906451 HIT:     648378 MISS:     258073 MSHR_MERGE:       8748
cpu0->cpu0_L2C RFO          ACCESS:        391 HIT:        389 MISS:          2 MSHR_MERGE:          0
cpu0->cpu0_L2C PREFETCH     ACCESS:    4002500 HIT:    3130761 MISS:     871739 MSHR_MERGE:      59540
cpu0->cpu0_L2C WRITE        ACCESS:     270896 HIT:     270640 MISS:        256 MSHR_MERGE:          0
cpu0->cpu0_L2C TRANSLATION  ACCESS:      68654 HIT:      33357 MISS:      35297 MSHR_MERGE:          0
cpu0->cpu0_L2C PREFETCH REQUESTED:    2854987 ISSUED:    2849104 USEFUL:     182149 USELESS:     409236 LATE:       8748
cpu0->cpu0_L2C AVERAGE MISS LATENCY: 169.4 cycles
cpu0->cpu0_L1I TOTAL        ACCESS:    8915939 HIT:    8915742 MISS:        197 MSHR_MERGE:         88
cpu0->cpu0_L1I LOAD         ACCESS:    8915939 HIT:    8915742 MISS:        197 MSHR_MERGE:         88
cpu0->cpu0_L1I RFO          ACCESS:          0 HIT:          0 MISS:          0 MSHR_MERGE:          0
cpu0->cpu0_L1I PREFETCH     ACCESS:          0 HIT:          0 MISS:          0 MSHR_MERGE:          0
cpu0->cpu0_L1I WRITE        ACCESS:          0 HIT:          0 MISS:          0 MSHR_MERGE:          0
cpu0->cpu0_L1I TRANSLATION  ACCESS:          0 HIT:          0 MISS:          0 MSHR_MERGE:          0
cpu0->cpu0_L1I PREFETCH REQUESTED:          0 ISSUED:          0 USEFUL:          0 USELESS:          0 LATE:          0
cpu0->cpu0_L1I AVERAGE MISS LATENCY: 242.8 cycles
cpu0->cpu0_L1D TOTAL        ACCESS:   22676755 HIT:   20380407 MISS:    2296348 MSHR_MERGE:     167555
cpu0->cpu0_L1D LOAD         ACCESS:   19414479 HIT:   18340926 MISS:    1073553 MSHR_MERGE:     167211
cpu0->cpu0_L1D RFO          ACCESS:          0 HIT:          0 MISS:          0 MSHR_MERGE:          0
cpu0->cpu0_L1D PREFETCH     ACCESS:    1430873 HIT:     277129 MISS:    1153744 MSHR_MERGE:        341
cpu0->cpu0_L1D WRITE        ACCESS:    1674765 HIT:    1674370 MISS:        395 MSHR_MERGE:          1
cpu0->cpu0_L1D TRANSLATION  ACCESS:     156638 HIT:      87982 MISS:      68656 MSHR_MERGE:          2
cpu0->cpu0_L1D PREFETCH REQUESTED:    1461924 ISSUED:    1430866 USEFUL:     840614 USELESS:     312765 LATE:      23900
cpu0->cpu0_L1D AVERAGE MISS LATENCY: 61.34 cycles
cpu0->cpu0_ITLB TOTAL        ACCESS:    6962575 HIT:    6962567 MISS:          8 MSHR_MERGE:          6
cpu0->cpu0_ITLB LOAD         ACCESS:    6962575 HIT:    6962567 MISS:          8 MSHR_MERGE:          6
cpu0->cpu0_ITLB RFO          ACCESS:          0 HIT:          0 MISS:          0 MSHR_MERGE:          0
cpu0->cpu0_ITLB PREFETCH     ACCESS:          0 HIT:          0 MISS:          0 MSHR_MERGE:          0
cpu0->cpu0_ITLB WRITE        ACCESS:          0 HIT:          0 MISS:          0 MSHR_MERGE:          0
cpu0->cpu0_ITLB TRANSLATION  ACCESS:          0 HIT:          0 MISS:          0 MSHR_MERGE:          0
cpu0->cpu0_ITLB PREFETCH REQUESTED:          0 ISSUED:          0 USEFUL:          0 USELESS:          0 LATE:          0
cpu0->cpu0_ITLB AVERAGE MISS LATENCY: 485 cycles
cpu0->cpu0_DTLB TOTAL        ACCESS:   21659609 HIT:   20981194 MISS:     678415 MSHR_MERGE:      35370
cpu0->cpu0_DTLB LOAD         ACCESS:   21659609 HIT:   20981194 MISS:     678415 MSHR_MERGE:      35370
cpu0->cpu0_DTLB RFO          ACCESS:          0 HIT:          0 MISS:          0 MSHR_MERGE:          0
cpu0->cpu0_DTLB PREFETCH     ACCESS:          0 HIT:          0 MISS:          0 MSHR_MERGE:          0
cpu0->cpu0_DTLB WRITE        ACCESS:          0 HIT:          0 MISS:          0 MSHR_MERGE:          0
cpu0->cpu0_DTLB TRANSLATION  ACCESS:          0 HIT:          0 MISS:          0 MSHR_MERGE:          0
cpu0->cpu0_DTLB PREFETCH REQUESTED:          0 ISSUED:          0 USEFUL:          0 USELESS:          0 LATE:          0
cpu0->cpu0_DTLB AVERAGE MISS LATENCY: 31.54 cycles
cpu0->LLC TOTAL        ACCESS:    1129638 HIT:     357475 MISS:     772163 MSHR_MERGE:          0
cpu0->LLC LOAD         ACCESS:     249324 HIT:      40231 MISS:     209093 MSHR_MERGE:          0
cpu0->LLC RFO          ACCESS:          2 HIT:          0 MISS:          2 MSHR_MERGE:          0
cpu0->LLC PREFETCH     ACCESS:     812198 HIT:     262558 MISS:     549640 MSHR_MERGE:          0
cpu0->LLC WRITE        ACCESS:      32817 HIT:      31442 MISS:       1375 MSHR_MERGE:          0
cpu0->LLC TRANSLATION  ACCESS:      35297 HIT:      23244 MISS:      12053 MSHR_MERGE:          0
cpu0->LLC PREFETCH REQUESTED:          0 ISSUED:          0 USEFUL:          0 USELESS:          0 LATE:          0
cpu0->LLC AVERAGE MISS LATENCY: 200.3 cycles

DRAM Statistics

Channel 0 RQ ROW_BUFFER_HIT:        565
  ROW_BUFFER_MISS:     770143
  AVG DBUS CONGESTED CYCLE: 4.299
Channel 0 WQ ROW_BUFFER_HIT:        990
  ROW_BUFFER_MISS:       1842
  FULL:          0
Channel 0 REFRESHES ISSUED:       4008

[ROI Statistics]
[System Configuration]
num_cpus 1
cpu_freq 4000
fetch_width 6
decode_width 6
dispatch_width 6
execute_width 6
lq_width 2
sq_width 2
retire_width 6
scheduler_size 160
branch_mispredict_penalty 1
rob_size 352
lq_size 240
sq_size 112
ifetch_buffer_size 64
decode_buffer_size 32
dispatch_buffer_size 32
register_file_size 288
decode_latency 1
dispatch_latency 1
schedule_latency 0
execute_latency 0
page_size 4096
block_size 64
core_0_itlb_set 16
core_0_itlb_way 4
core_0_itlb_rq_size 16
core_0_itlb_wq_size 16
core_0_itlb_pq_size 0
core_0_itlb_mshr_size 8
core_0_itlb_hit_latency 1
core_0_itlb_fill_latency 1
core_0_itlb_max_tag_check 2
core_0_itlb_max_fill 2
core_0_dtlb_set 16
core_0_dtlb_way 4
core_0_dtlb_rq_size 16
core_0_dtlb_wq_size 16
core_0_dtlb_pq_size 0
core_0_dtlb_mshr_size 8
core_0_dtlb_hit_latency 1
core_0_dtlb_fill_latency 1
core_0_dtlb_max_tag_check 2
core_0_dtlb_max_fill 2
core_0_stlb_set 128
core_0_stlb_way 12
core_0_stlb_rq_size 32
core_0_stlb_wq_size 32
core_0_stlb_pq_size 0
core_0_stlb_mshr_size 16
core_0_stlb_hit_latency 4
core_0_stlb_fill_latency 4
core_0_stlb_max_tag_check 1
core_0_stlb_max_fill 1
core_0_l1i_set 64
core_0_l1i_way 8
core_0_l1i_rq_size 64
core_0_l1i_wq_size 64
core_0_l1i_pq_size 32
core_0_l1i_mshr_size 8
core_0_l1i_hit_latency 2
core_0_l1i_fill_latency 2
core_0_l1i_max_tag_check 2
core_0_l1i_max_fill 2
core_0_l1d_set 64
core_0_l1d_way 12
core_0_l1d_rq_size 64
core_0_l1d_wq_size 64
core_0_l1d_pq_size 8
core_0_l1d_mshr_size 16
core_0_l1d_hit_latency 2
core_0_l1d_fill_latency 3
core_0_l1d_max_tag_check 2
core_0_l1d_max_fill 2
core_0_l2c_set 1024
core_0_l2c_way 8
core_0_l2c_rq_size 32
core_0_l2c_wq_size 32
core_0_l2c_pq_size 16
core_0_l2c_mshr_size 32
core_0_l2c_hit_latency 5
core_0_l2c_fill_latency 5
core_0_l2c_max_tag_check 1
core_0_l2c_max_fill 1
llc_set 2048
llc_way 16
llc_rq_size 32
llc_wq_size 32
llc_pq_size 32
llc_mshr_size 64
llc_hit_latency 10
llc_fill_latency 10
llc_max_tag_check 1
llc_max_fill 1
dram_channels 1
dram_ranks 1
dram_bankgroups 8
dram_banks 4
dram_rows 16384
dram_columns 1024
dram_channel_width 8
dram_rq_size 64
dram_wq_size 64
dram_size 4294967296
core_0_itlb_prefetcher no
core_0_dtlb_prefetcher no
core_0_stlb_prefetcher no
core_0_l1i_prefetcher next_line
core_0_l1d_prefetcher berti
core_0_l2c_prefetcher pythia
llc_prefetcher no
llc_replacement drrip

Core_0_instructions 50000005
Core_0_cycles 48097806
Core_0_IPC 1.03955
Core_0_branch_prediction_accuracy 99.4371
Core_0_branch_MPKI 0.01404
Core_0_average_ROB_occupancy_at_mispredict 344.434

Core_0_ITLB_total_access 6962575
Core_0_ITLB_total_hit 6962567
Core_0_ITLB_total_miss 8
Core_0_ITLB_total_MPKI 0.00016
Core_0_ITLB_total_miss_rate 1.149e-06
Core_0_ITLB_demand_access 6962575
Core_0_ITLB_demand_hit 6962567
Core_0_ITLB_demand_miss 8
Core_0_ITLB_demand_MPKI 0.00016
Core_0_ITLB_demand_miss_rate 1.149e-06
Core_0_ITLB_load_access 6962575
Core_0_ITLB_load_hit 6962567
Core_0_ITLB_load_miss 8
Core_0_ITLB_load_MPKI 0.00016
Core_0_ITLB_load_miss_rate 1.149e-06
Core_0_ITLB_rfo_access 0
Core_0_ITLB_rfo_hit 0
Core_0_ITLB_rfo_miss 0
Core_0_ITLB_rfo_MPKI 0
Core_0_ITLB_rfo_miss_rate 0
Core_0_ITLB_prefetch_access 0
Core_0_ITLB_prefetch_hit 0
Core_0_ITLB_prefetch_miss 0
Core_0_ITLB_prefetch_MPKI 0
Core_0_ITLB_prefetch_miss_rate 0
Core_0_ITLB_writeback_access 0
Core_0_ITLB_writeback_hit 0
Core_0_ITLB_writeback_miss 0
Core_0_ITLB_writeback_MPKI 0
Core_0_ITLB_writeback_miss_rate 0
Core_0_ITLB_prefetch_requested 0
Core_0_ITLB_prefetch_issued 0
Core_0_ITLB_prefetch_useful 0
Core_0_ITLB_prefetch_useless 0
Core_0_ITLB_prefetch_late 0
Core_0_ITLB_prefetch_accuracy 0
Core_0_ITLB_prefetch_coverage 0

Core_0_DTLB_total_access 21659609
Core_0_DTLB_total_hit 20981194
Core_0_DTLB_total_miss 678415
Core_0_DTLB_total_MPKI 13.5683
Core_0_DTLB_total_miss_rate 0.0313217
Core_0_DTLB_demand_access 21659609
Core_0_DTLB_demand_hit 20981194
Core_0_DTLB_demand_miss 678415
Core_0_DTLB_demand_MPKI 13.5683
Core_0_DTLB_demand_miss_rate 0.0313217
Core_0_DTLB_load_access 21659609
Core_0_DTLB_load_hit 20981194
Core_0_DTLB_load_miss 678415
Core_0_DTLB_load_MPKI 13.5683
Core_0_DTLB_load_miss_rate 0.0313217
Core_0_DTLB_rfo_access 0
Core_0_DTLB_rfo_hit 0
Core_0_DTLB_rfo_miss 0
Core_0_DTLB_rfo_MPKI 0
Core_0_DTLB_rfo_miss_rate 0
Core_0_DTLB_prefetch_access 0
Core_0_DTLB_prefetch_hit 0
Core_0_DTLB_prefetch_miss 0
Core_0_DTLB_prefetch_MPKI 0
Core_0_DTLB_prefetch_miss_rate 0
Core_0_DTLB_writeback_access 0
Core_0_DTLB_writeback_hit 0
Core_0_DTLB_writeback_miss 0
Core_0_DTLB_writeback_MPKI 0
Core_0_DTLB_writeback_miss_rate 0
Core_0_DTLB_prefetch_requested 0
Core_0_DTLB_prefetch_issued 0
Core_0_DTLB_prefetch_useful 0
Core_0_DTLB_prefetch_useless 0
Core_0_DTLB_prefetch_late 0
Core_0_DTLB_prefetch_accuracy 0
Core_0_DTLB_prefetch_coverage 0

Core_0_STLB_total_access 643047
Core_0_STLB_total_hit 576832
Core_0_STLB_total_miss 66215
Core_0_STLB_total_MPKI 1.3243
Core_0_STLB_total_miss_rate 0.102971
Core_0_STLB_demand_access 643047
Core_0_STLB_demand_hit 576832
Core_0_STLB_demand_miss 66215
Core_0_STLB_demand_MPKI 1.3243
Core_0_STLB_demand_miss_rate 0.102971
Core_0_STLB_load_access 643047
Core_0_STLB_load_hit 576832
Core_0_STLB_load_miss 66215
Core_0_STLB_load_MPKI 1.3243
Core_0_STLB_load_miss_rate 0.102971
Core_0_STLB_rfo_access 0
Core_0_STLB_rfo_hit 0
Core_0_STLB_rfo_miss 0
Core_0_STLB_rfo_MPKI 0
Core_0_STLB_rfo_miss_rate 0
Core_0_STLB_prefetch_access 0
Core_0_STLB_prefetch_hit 0
Core_0_STLB_prefetch_miss 0
Core_0_STLB_prefetch_MPKI 0
Core_0_STLB_prefetch_miss_rate 0
Core_0_STLB_writeback_access 0
Core_0_STLB_writeback_hit 0
Core_0_STLB_writeback_miss 0
Core_0_STLB_writeback_MPKI 0
Core_0_STLB_writeback_miss_rate 0
Core_0_STLB_prefetch_requested 0
Core_0_STLB_prefetch_issued 0
Core_0_STLB_prefetch_useful 0
Core_0_STLB_prefetch_useless 0
Core_0_STLB_prefetch_late 0
Core_0_STLB_prefetch_accuracy 0
Core_0_STLB_prefetch_coverage 0

Core_0_L1I_total_access 8915939
Core_0_L1I_total_hit 8915742
Core_0_L1I_total_miss 197
Core_0_L1I_total_MPKI 0.00394
Core_0_L1I_total_miss_rate 2.20953e-05
Core_0_L1I_demand_access 8915939
Core_0_L1I_demand_hit 8915742
Core_0_L1I_demand_miss 197
Core_0_L1I_demand_MPKI 0.00394
Core_0_L1I_demand_miss_rate 2.20953e-05
Core_0_L1I_load_access 8915939
Core_0_L1I_load_hit 8915742
Core_0_L1I_load_miss 197
Core_0_L1I_load_MPKI 0.00394
Core_0_L1I_load_miss_rate 2.20953e-05
Core_0_L1I_rfo_access 0
Core_0_L1I_rfo_hit 0
Core_0_L1I_rfo_miss 0
Core_0_L1I_rfo_MPKI 0
Core_0_L1I_rfo_miss_rate 0
Core_0_L1I_prefetch_access 0
Core_0_L1I_prefetch_hit 0
Core_0_L1I_prefetch_miss 0
Core_0_L1I_prefetch_MPKI 0
Core_0_L1I_prefetch_miss_rate 0
Core_0_L1I_writeback_access 0
Core_0_L1I_writeback_hit 0
Core_0_L1I_writeback_miss 0
Core_0_L1I_writeback_MPKI 0
Core_0_L1I_writeback_miss_rate 0
Core_0_L1I_prefetch_requested 0
Core_0_L1I_prefetch_issued 0
Core_0_L1I_prefetch_useful 0
Core_0_L1I_prefetch_useless 0
Core_0_L1I_prefetch_late 0
Core_0_L1I_prefetch_accuracy 0
Core_0_L1I_prefetch_coverage 0

Core_0_L1D_total_access 22520117
Core_0_L1D_total_hit 20292425
Core_0_L1D_total_miss 2227692
Core_0_L1D_total_MPKI 44.5538
Core_0_L1D_total_miss_rate 0.0989201
Core_0_L1D_demand_access 19414479
Core_0_L1D_demand_hit 18340926
Core_0_L1D_demand_miss 1073553
Core_0_L1D_demand_MPKI 21.4711
Core_0_L1D_demand_miss_rate 0.0552965
Core_0_L1D_load_access 19414479
Core_0_L1D_load_hit 18340926
Core_0_L1D_load_miss 1073553
Core_0_L1D_load_MPKI 21.4711
Core_0_L1D_load_miss_rate 0.0552965
Core_0_L1D_rfo_access 0
Core_0_L1D_rfo_hit 0
Core_0_L1D_rfo_miss 0
Core_0_L1D_rfo_MPKI 0
Core_0_L1D_rfo_miss_rate 0
Core_0_L1D_prefetch_access 1430873
Core_0_L1D_prefetch_hit 277129
Core_0_L1D_prefetch_miss 1153744
Core_0_L1D_prefetch_MPKI 23.0749
Core_0_L1D_prefetch_miss_rate 0.806322
Core_0_L1D_writeback_access 1674765
Core_0_L1D_writeback_hit 1674370
Core_0_L1D_writeback_miss 395
Core_0_L1D_writeback_MPKI 0.0079
Core_0_L1D_writeback_miss_rate 0.000235854
Core_0_L1D_prefetch_requested 1461924
Core_0_L1D_prefetch_issued 1430866
Core_0_L1D_prefetch_useful 840614
Core_0_L1D_prefetch_useless 312765
Core_0_L1D_prefetch_late 23900
Core_0_L1D_prefetch_accuracy 0.587486
Core_0_L1D_prefetch_coverage 0.439154

Core_0_L2C_total_access 5180238
Core_0_L2C_total_hit 4050168
Core_0_L2C_total_miss 1130070
Core_0_L2C_total_MPKI 22.6014
Core_0_L2C_total_miss_rate 0.21815
Core_0_L2C_demand_access 906842
Core_0_L2C_demand_hit 648767
Core_0_L2C_demand_miss 258075
Core_0_L2C_demand_MPKI 5.1615
Core_0_L2C_demand_miss_rate 0.284587
Core_0_L2C_load_access 906451
Core_0_L2C_load_hit 648378
Core_0_L2C_load_miss 258073
Core_0_L2C_load_MPKI 5.16146
Core_0_L2C_load_miss_rate 0.284707
Core_0_L2C_rfo_access 391
Core_0_L2C_rfo_hit 389
Core_0_L2C_rfo_miss 2
Core_0_L2C_rfo_MPKI 4e-05
Core_0_L2C_rfo_miss_rate 0.00511509
Core_0_L2C_prefetch_access 4002500
Core_0_L2C_prefetch_hit 3130761
Core_0_L2C_prefetch_miss 871739
Core_0_L2C_prefetch_MPKI 17.4348
Core_0_L2C_prefetch_miss_rate 0.217799
Core_0_L2C_writeback_access 270896
Core_0_L2C_writeback_hit 270640
Core_0_L2C_writeback_miss 256
Core_0_L2C_writeback_MPKI 0.00512
Core_0_L2C_writeback_miss_rate 0.000945012
Core_0_L2C_prefetch_requested 2854987
Core_0_L2C_prefetch_issued 2849104
Core_0_L2C_prefetch_useful 182149
Core_0_L2C_prefetch_useless 409236
Core_0_L2C_prefetch_late 8748
Core_0_L2C_prefetch_accuracy 0.063932
Core_0_L2C_prefetch_coverage 0.413764

Core_0_LLC_total_access 1094341
Core_0_LLC_total_hit 334231
Core_0_LLC_total_miss 760110
Core_0_LLC_total_MPKI 15.2022
Core_0_LLC_total_miss_rate 0.694582
Core_0_LLC_demand_access 249326
Core_0_LLC_demand_hit 40231
Core_0_LLC_demand_miss 209095
Core_0_LLC_demand_MPKI 4.1819
Core_0_LLC_demand_miss_rate 0.838641
Core_0_LLC_load_access 249324
Core_0_LLC_load_hit 40231
Core_0_LLC_load_miss 209093
Core_0_LLC_load_MPKI 4.18186
Core_0_LLC_load_miss_rate 0.83864
Core_0_LLC_rfo_access 2
Core_0_LLC_rfo_hit 0
Core_0_LLC_rfo_miss 2
Core_0_LLC_rfo_MPKI 4e-05
Core_0_LLC_rfo_miss_rate 1
Core_0_LLC_prefetch_access 812198
Core_0_LLC_prefetch_hit 262558
Core_0_LLC_prefetch_miss 549640
Core_0_LLC_prefetch_MPKI 10.9928
Core_0_LLC_prefetch_miss_rate 0.676732
Core_0_LLC_writeback_access 32817
Core_0_LLC_writeback_hit 31442
Core_0_LLC_writeback_miss 1375
Core_0_LLC_writeback_MPKI 0.0275
Core_0_LLC_writeback_miss_rate 0.041899
Core_0_LLC_prefetch_requested 0
Core_0_LLC_prefetch_issued 0
Core_0_LLC_prefetch_useful 0
Core_0_LLC_prefetch_useless 0
Core_0_LLC_prefetch_late 0
Core_0_LLC_prefetch_accuracy 0
Core_0_LLC_prefetch_coverage 0

[DRAM Statistics]
Channel_0_RQ_row_buffer_hit 565
Channel_0_RQ_row_buffer_miss 770143
Channel_0_WQ_row_buffer_hit 990
Channel_0_WQ_row_buffer_miss 1842
Channel_0_WQ_full 0
Channel_0_dbus_congested 834320
DRAM_total_RQ_row_buffer_hit 565
DRAM_total_RQ_row_buffer_miss 770143
DRAM_total_WQ_row_buffer_hit 990
DRAM_total_WQ_row_buffer_miss 1842
DRAM_total_WQ_full 0
DRAM_total_dbus_congested 834320
DRAM_avg_congested_cycle 4.2995

======STLB miss causes ========
Core_0_STLB_miss_cause_breakdown
Core_0_STLB_cause_Demand_Data_miss 15665
Core_0_STLB_cause_Demand_Data_miss_rate 0.0243606
Core_0_STLB_cause_Demand_Instruction_miss 2
Core_0_STLB_cause_Demand_Instruction_miss_rate 3.11019e-06
Core_0_STLB_cause_L1D_Prefetch_miss 50548
Core_0_STLB_cause_L1D_Prefetch_miss_rate 0.078607
Core_0_STLB_cause_L1I_Prefetch_miss 0
Core_0_STLB_cause_L1I_Prefetch_miss_rate 0
Core_0_STLB_cause_Other_miss 0
Core_0_STLB_cause_Other_miss_rate 0
Core_0_STLB_Demand_miss 15667
Core_0_STLB_Demand_miss_rate 0.0243637
Core_0_STLB_L1D_Prefetch_miss 50548
Core_0_STLB_L1D_Prefetch_miss_rate 0.078607
Core_0_STLB_Other_miss 0
Core_0_STLB_Other_miss_rate 0
