[VMEM] WARNING: physical memory size is smaller than virtual memory size.

*** ChampSim Multicore Out-of-Order Simulator ***
Warmup Instructions: 20000000
Simulation Instructions: 50000000
Number of CPUs: 1
Page size: 4096
Core 0: /data0/tzh/champsim_traces/SPEC17/621.wrf_s-8065B.champsimtrace.xz
 L1D Berti prefetcher
Off-chip DRAM Size: 4 GiB Channels: 1 Width: 64-bit Data Rate: 3205 MT/s
Warmup halting CPU 0 at instruction 20000000 cycle 4643269 for remainder of phase
Warmup finished CPU 0 instructions: 20000000 cycles: 4643269 cumulative IPC: 4.307 (Simulation time: 00 hr 00 min 58 sec)
Warmup complete CPU 0 instructions: 20000000 cycles: 4643269 cumulative IPC: 4.307 (Simulation time: 00 hr 00 min 58 sec)
Simulation finished CPU 0 instructions: 50000001 cycles: 16911995 cumulative IPC: 2.956 (Simulation time: 00 hr 04 min 23 sec)
Simulation complete CPU 0 instructions: 50000001 cycles: 16911995 cumulative IPC: 2.956 (Simulation time: 00 hr 04 min 23 sec)

ChampSim completed all CPUs

=== Simulation ===
CPU 0 runs /data0/tzh/champsim_traces/SPEC17/621.wrf_s-8065B.champsimtrace.xz

Region of Interest Statistics

CPU 0 cumulative IPC: 2.956 instructions: 50000001 cycles: 16911995
CPU 0 Branch Prediction Accuracy: 97.07% MPKI: 0.9427 Average ROB Occupancy at Mispredict: 215.6
Branch type MPKI
BRANCH_DIRECT_JUMP: 0.00026
BRANCH_INDIRECT: 0
BRANCH_CONDITIONAL: 0.9411
BRANCH_DIRECT_CALL: 0.00064
BRANCH_INDIRECT_CALL: 0
BRANCH_RETURN: 0.00068

cpu0->cpu0_STLB TOTAL        ACCESS:      35034 HIT:      31827 MISS:       3207 MSHR_MERGE:          0
cpu0->cpu0_STLB LOAD         ACCESS:      35034 HIT:      31827 MISS:       3207 MSHR_MERGE:          0
cpu0->cpu0_STLB RFO          ACCESS:          0 HIT:          0 MISS:          0 MSHR_MERGE:          0
cpu0->cpu0_STLB PREFETCH     ACCESS:          0 HIT:          0 MISS:          0 MSHR_MERGE:          0
cpu0->cpu0_STLB WRITE        ACCESS:          0 HIT:          0 MISS:          0 MSHR_MERGE:          0
cpu0->cpu0_STLB TRANSLATION  ACCESS:          0 HIT:          0 MISS:          0 MSHR_MERGE:          0
cpu0->cpu0_STLB PREFETCH REQUESTED:          0 ISSUED:          0 USEFUL:          0 USELESS:          0 LATE:          0
cpu0->cpu0_STLB AVERAGE MISS LATENCY: 178.6 cycles
cpu0->cpu0_L2C TOTAL        ACCESS:    3797732 HIT:    2762029 MISS:    1035703 MSHR_MERGE:     523196
cpu0->cpu0_L2C LOAD         ACCESS:      96420 HIT:      71607 MISS:      24813 MSHR_MERGE:       6555
cpu0->cpu0_L2C RFO          ACCESS:     130505 HIT:      12119 MISS:     118386 MSHR_MERGE:          1
cpu0->cpu0_L2C PREFETCH     ACCESS:    3306486 HIT:    2415238 MISS:     891248 MSHR_MERGE:     516640
cpu0->cpu0_L2C WRITE        ACCESS:     263472 HIT:     262774 MISS:        698 MSHR_MERGE:          0
cpu0->cpu0_L2C TRANSLATION  ACCESS:        849 HIT:        291 MISS:        558 MSHR_MERGE:          0
cpu0->cpu0_L2C PREFETCH REQUESTED:    3083411 ISSUED:    2798921 USEFUL:     314413 USELESS:      38523 LATE:       6556
cpu0->cpu0_L2C AVERAGE MISS LATENCY: 312.5 cycles
cpu0->cpu0_L1I TOTAL        ACCESS:    6711485 HIT:    6709260 MISS:       2225 MSHR_MERGE:       1321
cpu0->cpu0_L1I LOAD         ACCESS:    6711485 HIT:    6709260 MISS:       2225 MSHR_MERGE:       1321
cpu0->cpu0_L1I RFO          ACCESS:          0 HIT:          0 MISS:          0 MSHR_MERGE:          0
cpu0->cpu0_L1I PREFETCH     ACCESS:          0 HIT:          0 MISS:          0 MSHR_MERGE:          0
cpu0->cpu0_L1I WRITE        ACCESS:          0 HIT:          0 MISS:          0 MSHR_MERGE:          0
cpu0->cpu0_L1I TRANSLATION  ACCESS:          0 HIT:          0 MISS:          0 MSHR_MERGE:          0
cpu0->cpu0_L1I PREFETCH REQUESTED:          0 ISSUED:          0 USEFUL:          0 USELESS:          0 LATE:          0
cpu0->cpu0_L1I AVERAGE MISS LATENCY: 341.9 cycles
cpu0->cpu0_L1D TOTAL        ACCESS:   11202337 HIT:    9879955 MISS:    1322382 MSHR_MERGE:     587912
cpu0->cpu0_L1D LOAD         ACCESS:    8570342 HIT:    8375298 MISS:     195044 MSHR_MERGE:      99526
cpu0->cpu0_L1D RFO          ACCESS:          0 HIT:          0 MISS:          0 MSHR_MERGE:          0
cpu0->cpu0_L1D PREFETCH     ACCESS:     581377 HIT:      63059 MISS:     518318 MSHR_MERGE:      10739
cpu0->cpu0_L1D WRITE        ACCESS:    2044202 HIT:    1436053 MISS:     608149 MSHR_MERGE:     477625
cpu0->cpu0_L1D TRANSLATION  ACCESS:       6416 HIT:       5545 MISS:        871 MSHR_MERGE:         22
cpu0->cpu0_L1D PREFETCH REQUESTED:     593524 ISSUED:     581370 USEFUL:     496048 USELESS:      11500 LATE:      25460
cpu0->cpu0_L1D AVERAGE MISS LATENCY: 197.6 cycles
cpu0->cpu0_ITLB TOTAL        ACCESS:    4903187 HIT:    4903085 MISS:        102 MSHR_MERGE:         78
cpu0->cpu0_ITLB LOAD         ACCESS:    4903187 HIT:    4903085 MISS:        102 MSHR_MERGE:         78
cpu0->cpu0_ITLB RFO          ACCESS:          0 HIT:          0 MISS:          0 MSHR_MERGE:          0
cpu0->cpu0_ITLB PREFETCH     ACCESS:          0 HIT:          0 MISS:          0 MSHR_MERGE:          0
cpu0->cpu0_ITLB WRITE        ACCESS:          0 HIT:          0 MISS:          0 MSHR_MERGE:          0
cpu0->cpu0_ITLB TRANSLATION  ACCESS:          0 HIT:          0 MISS:          0 MSHR_MERGE:          0
cpu0->cpu0_ITLB PREFETCH REQUESTED:          0 ISSUED:          0 USEFUL:          0 USELESS:          0 LATE:          0
cpu0->cpu0_ITLB AVERAGE MISS LATENCY: 357.7 cycles
cpu0->cpu0_DTLB TOTAL        ACCESS:   10721575 HIT:   10666364 MISS:      55211 MSHR_MERGE:      20201
cpu0->cpu0_DTLB LOAD         ACCESS:   10721575 HIT:   10666364 MISS:      55211 MSHR_MERGE:      20201
cpu0->cpu0_DTLB RFO          ACCESS:          0 HIT:          0 MISS:          0 MSHR_MERGE:          0
cpu0->cpu0_DTLB PREFETCH     ACCESS:          0 HIT:          0 MISS:          0 MSHR_MERGE:          0
cpu0->cpu0_DTLB WRITE        ACCESS:          0 HIT:          0 MISS:          0 MSHR_MERGE:          0
cpu0->cpu0_DTLB TRANSLATION  ACCESS:          0 HIT:          0 MISS:          0 MSHR_MERGE:          0
cpu0->cpu0_DTLB PREFETCH REQUESTED:          0 ISSUED:          0 USEFUL:          0 USELESS:          0 LATE:          0
cpu0->cpu0_DTLB AVERAGE MISS LATENCY: 21.23 cycles
cpu0->LLC TOTAL        ACCESS:     750057 HIT:     333728 MISS:     416329 MSHR_MERGE:          0
cpu0->LLC LOAD         ACCESS:      18258 HIT:       8921 MISS:       9337 MSHR_MERGE:          0
cpu0->LLC RFO          ACCESS:     118385 HIT:      26626 MISS:      91759 MSHR_MERGE:          0
cpu0->LLC PREFETCH     ACCESS:     374608 HIT:     132676 MISS:     241932 MSHR_MERGE:          0
cpu0->LLC WRITE        ACCESS:     238248 HIT:     165489 MISS:      72759 MSHR_MERGE:          0
cpu0->LLC TRANSLATION  ACCESS:        558 HIT:         16 MISS:        542 MSHR_MERGE:          0
cpu0->LLC PREFETCH REQUESTED:          0 ISSUED:          0 USEFUL:          0 USELESS:          0 LATE:          0
cpu0->LLC AVERAGE MISS LATENCY: 244.4 cycles

DRAM Statistics

Channel 0 RQ ROW_BUFFER_HIT:      23901
  ROW_BUFFER_MISS:     319357
  AVG DBUS CONGESTED CYCLE: 6.898
Channel 0 WQ ROW_BUFFER_HIT:      21028
  ROW_BUFFER_MISS:     140441
  FULL:       1536
Channel 0 REFRESHES ISSUED:       1410

[ROI Statistics]
[System Configuration]
num_cpus 1
cpu_freq 4000
fetch_width 6
decode_width 6
dispatch_width 6
execute_width 6
lq_width 2
sq_width 2
retire_width 6
scheduler_size 160
branch_mispredict_penalty 1
rob_size 352
lq_size 240
sq_size 112
ifetch_buffer_size 64
decode_buffer_size 32
dispatch_buffer_size 32
register_file_size 288
decode_latency 1
dispatch_latency 1
schedule_latency 0
execute_latency 0
page_size 4096
block_size 64
core_0_itlb_set 16
core_0_itlb_way 4
core_0_itlb_rq_size 16
core_0_itlb_wq_size 16
core_0_itlb_pq_size 0
core_0_itlb_mshr_size 8
core_0_itlb_hit_latency 1
core_0_itlb_fill_latency 1
core_0_itlb_max_tag_check 2
core_0_itlb_max_fill 2
core_0_dtlb_set 16
core_0_dtlb_way 4
core_0_dtlb_rq_size 16
core_0_dtlb_wq_size 16
core_0_dtlb_pq_size 0
core_0_dtlb_mshr_size 8
core_0_dtlb_hit_latency 1
core_0_dtlb_fill_latency 1
core_0_dtlb_max_tag_check 2
core_0_dtlb_max_fill 2
core_0_stlb_set 128
core_0_stlb_way 12
core_0_stlb_rq_size 32
core_0_stlb_wq_size 32
core_0_stlb_pq_size 0
core_0_stlb_mshr_size 16
core_0_stlb_hit_latency 4
core_0_stlb_fill_latency 4
core_0_stlb_max_tag_check 1
core_0_stlb_max_fill 1
core_0_l1i_set 64
core_0_l1i_way 8
core_0_l1i_rq_size 64
core_0_l1i_wq_size 64
core_0_l1i_pq_size 32
core_0_l1i_mshr_size 8
core_0_l1i_hit_latency 2
core_0_l1i_fill_latency 2
core_0_l1i_max_tag_check 2
core_0_l1i_max_fill 2
core_0_l1d_set 64
core_0_l1d_way 12
core_0_l1d_rq_size 64
core_0_l1d_wq_size 64
core_0_l1d_pq_size 8
core_0_l1d_mshr_size 16
core_0_l1d_hit_latency 2
core_0_l1d_fill_latency 3
core_0_l1d_max_tag_check 2
core_0_l1d_max_fill 2
core_0_l2c_set 1024
core_0_l2c_way 8
core_0_l2c_rq_size 32
core_0_l2c_wq_size 32
core_0_l2c_pq_size 16
core_0_l2c_mshr_size 32
core_0_l2c_hit_latency 5
core_0_l2c_fill_latency 5
core_0_l2c_max_tag_check 1
core_0_l2c_max_fill 1
llc_set 2048
llc_way 16
llc_rq_size 32
llc_wq_size 32
llc_pq_size 32
llc_mshr_size 64
llc_hit_latency 10
llc_fill_latency 10
llc_max_tag_check 1
llc_max_fill 1
dram_channels 1
dram_ranks 1
dram_bankgroups 8
dram_banks 4
dram_rows 16384
dram_columns 1024
dram_channel_width 8
dram_rq_size 64
dram_wq_size 64
dram_size 4294967296
core_0_itlb_prefetcher no
core_0_dtlb_prefetcher no
core_0_stlb_prefetcher no
core_0_l1i_prefetcher next_line
core_0_l1d_prefetcher berti
core_0_l2c_prefetcher pythia
llc_prefetcher no
llc_replacement drrip

Core_0_instructions 50000001
Core_0_cycles 16911995
Core_0_IPC 2.95648
Core_0_branch_prediction_accuracy 97.0697
Core_0_branch_MPKI 0.94272
Core_0_average_ROB_occupancy_at_mispredict 215.646

Core_0_ITLB_total_access 4903187
Core_0_ITLB_total_hit 4903085
Core_0_ITLB_total_miss 102
Core_0_ITLB_total_MPKI 0.00204
Core_0_ITLB_total_miss_rate 2.08028e-05
Core_0_ITLB_demand_access 4903187
Core_0_ITLB_demand_hit 4903085
Core_0_ITLB_demand_miss 102
Core_0_ITLB_demand_MPKI 0.00204
Core_0_ITLB_demand_miss_rate 2.08028e-05
Core_0_ITLB_load_access 4903187
Core_0_ITLB_load_hit 4903085
Core_0_ITLB_load_miss 102
Core_0_ITLB_load_MPKI 0.00204
Core_0_ITLB_load_miss_rate 2.08028e-05
Core_0_ITLB_rfo_access 0
Core_0_ITLB_rfo_hit 0
Core_0_ITLB_rfo_miss 0
Core_0_ITLB_rfo_MPKI 0
Core_0_ITLB_rfo_miss_rate 0
Core_0_ITLB_prefetch_access 0
Core_0_ITLB_prefetch_hit 0
Core_0_ITLB_prefetch_miss 0
Core_0_ITLB_prefetch_MPKI 0
Core_0_ITLB_prefetch_miss_rate 0
Core_0_ITLB_writeback_access 0
Core_0_ITLB_writeback_hit 0
Core_0_ITLB_writeback_miss 0
Core_0_ITLB_writeback_MPKI 0
Core_0_ITLB_writeback_miss_rate 0
Core_0_ITLB_prefetch_requested 0
Core_0_ITLB_prefetch_issued 0
Core_0_ITLB_prefetch_useful 0
Core_0_ITLB_prefetch_useless 0
Core_0_ITLB_prefetch_late 0
Core_0_ITLB_prefetch_accuracy 0
Core_0_ITLB_prefetch_coverage 0

Core_0_DTLB_total_access 10721575
Core_0_DTLB_total_hit 10666364
Core_0_DTLB_total_miss 55211
Core_0_DTLB_total_MPKI 1.10422
Core_0_DTLB_total_miss_rate 0.00514952
Core_0_DTLB_demand_access 10721575
Core_0_DTLB_demand_hit 10666364
Core_0_DTLB_demand_miss 55211
Core_0_DTLB_demand_MPKI 1.10422
Core_0_DTLB_demand_miss_rate 0.00514952
Core_0_DTLB_load_access 10721575
Core_0_DTLB_load_hit 10666364
Core_0_DTLB_load_miss 55211
Core_0_DTLB_load_MPKI 1.10422
Core_0_DTLB_load_miss_rate 0.00514952
Core_0_DTLB_rfo_access 0
Core_0_DTLB_rfo_hit 0
Core_0_DTLB_rfo_miss 0
Core_0_DTLB_rfo_MPKI 0
Core_0_DTLB_rfo_miss_rate 0
Core_0_DTLB_prefetch_access 0
Core_0_DTLB_prefetch_hit 0
Core_0_DTLB_prefetch_miss 0
Core_0_DTLB_prefetch_MPKI 0
Core_0_DTLB_prefetch_miss_rate 0
Core_0_DTLB_writeback_access 0
Core_0_DTLB_writeback_hit 0
Core_0_DTLB_writeback_miss 0
Core_0_DTLB_writeback_MPKI 0
Core_0_DTLB_writeback_miss_rate 0
Core_0_DTLB_prefetch_requested 0
Core_0_DTLB_prefetch_issued 0
Core_0_DTLB_prefetch_useful 0
Core_0_DTLB_prefetch_useless 0
Core_0_DTLB_prefetch_late 0
Core_0_DTLB_prefetch_accuracy 0
Core_0_DTLB_prefetch_coverage 0

Core_0_STLB_total_access 35034
Core_0_STLB_total_hit 31827
Core_0_STLB_total_miss 3207
Core_0_STLB_total_MPKI 0.06414
Core_0_STLB_total_miss_rate 0.0915396
Core_0_STLB_demand_access 35034
Core_0_STLB_demand_hit 31827
Core_0_STLB_demand_miss 3207
Core_0_STLB_demand_MPKI 0.06414
Core_0_STLB_demand_miss_rate 0.0915396
Core_0_STLB_load_access 35034
Core_0_STLB_load_hit 31827
Core_0_STLB_load_miss 3207
Core_0_STLB_load_MPKI 0.06414
Core_0_STLB_load_miss_rate 0.0915396
Core_0_STLB_rfo_access 0
Core_0_STLB_rfo_hit 0
Core_0_STLB_rfo_miss 0
Core_0_STLB_rfo_MPKI 0
Core_0_STLB_rfo_miss_rate 0
Core_0_STLB_prefetch_access 0
Core_0_STLB_prefetch_hit 0
Core_0_STLB_prefetch_miss 0
Core_0_STLB_prefetch_MPKI 0
Core_0_STLB_prefetch_miss_rate 0
Core_0_STLB_writeback_access 0
Core_0_STLB_writeback_hit 0
Core_0_STLB_writeback_miss 0
Core_0_STLB_writeback_MPKI 0
Core_0_STLB_writeback_miss_rate 0
Core_0_STLB_prefetch_requested 0
Core_0_STLB_prefetch_issued 0
Core_0_STLB_prefetch_useful 0
Core_0_STLB_prefetch_useless 0
Core_0_STLB_prefetch_late 0
Core_0_STLB_prefetch_accuracy 0
Core_0_STLB_prefetch_coverage 0

Core_0_L1I_total_access 6711485
Core_0_L1I_total_hit 6709260
Core_0_L1I_total_miss 2225
Core_0_L1I_total_MPKI 0.0445
Core_0_L1I_total_miss_rate 0.000331521
Core_0_L1I_demand_access 6711485
Core_0_L1I_demand_hit 6709260
Core_0_L1I_demand_miss 2225
Core_0_L1I_demand_MPKI 0.0445
Core_0_L1I_demand_miss_rate 0.000331521
Core_0_L1I_load_access 6711485
Core_0_L1I_load_hit 6709260
Core_0_L1I_load_miss 2225
Core_0_L1I_load_MPKI 0.0445
Core_0_L1I_load_miss_rate 0.000331521
Core_0_L1I_rfo_access 0
Core_0_L1I_rfo_hit 0
Core_0_L1I_rfo_miss 0
Core_0_L1I_rfo_MPKI 0
Core_0_L1I_rfo_miss_rate 0
Core_0_L1I_prefetch_access 0
Core_0_L1I_prefetch_hit 0
Core_0_L1I_prefetch_miss 0
Core_0_L1I_prefetch_MPKI 0
Core_0_L1I_prefetch_miss_rate 0
Core_0_L1I_writeback_access 0
Core_0_L1I_writeback_hit 0
Core_0_L1I_writeback_miss 0
Core_0_L1I_writeback_MPKI 0
Core_0_L1I_writeback_miss_rate 0
Core_0_L1I_prefetch_requested 0
Core_0_L1I_prefetch_issued 0
Core_0_L1I_prefetch_useful 0
Core_0_L1I_prefetch_useless 0
Core_0_L1I_prefetch_late 0
Core_0_L1I_prefetch_accuracy 0
Core_0_L1I_prefetch_coverage 0

Core_0_L1D_total_access 11195921
Core_0_L1D_total_hit 9874410
Core_0_L1D_total_miss 1321511
Core_0_L1D_total_MPKI 26.4302
Core_0_L1D_total_miss_rate 0.118035
Core_0_L1D_demand_access 8570342
Core_0_L1D_demand_hit 8375298
Core_0_L1D_demand_miss 195044
Core_0_L1D_demand_MPKI 3.90088
Core_0_L1D_demand_miss_rate 0.022758
Core_0_L1D_load_access 8570342
Core_0_L1D_load_hit 8375298
Core_0_L1D_load_miss 195044
Core_0_L1D_load_MPKI 3.90088
Core_0_L1D_load_miss_rate 0.022758
Core_0_L1D_rfo_access 0
Core_0_L1D_rfo_hit 0
Core_0_L1D_rfo_miss 0
Core_0_L1D_rfo_MPKI 0
Core_0_L1D_rfo_miss_rate 0
Core_0_L1D_prefetch_access 581377
Core_0_L1D_prefetch_hit 63059
Core_0_L1D_prefetch_miss 518318
Core_0_L1D_prefetch_MPKI 10.3664
Core_0_L1D_prefetch_miss_rate 0.891535
Core_0_L1D_writeback_access 2044202
Core_0_L1D_writeback_hit 1436053
Core_0_L1D_writeback_miss 608149
Core_0_L1D_writeback_MPKI 12.163
Core_0_L1D_writeback_miss_rate 0.297499
Core_0_L1D_prefetch_requested 593524
Core_0_L1D_prefetch_issued 581370
Core_0_L1D_prefetch_useful 496048
Core_0_L1D_prefetch_useless 11500
Core_0_L1D_prefetch_late 25460
Core_0_L1D_prefetch_accuracy 0.85324
Core_0_L1D_prefetch_coverage 0.717774

Core_0_L2C_total_access 3796883
Core_0_L2C_total_hit 2761738
Core_0_L2C_total_miss 1035145
Core_0_L2C_total_MPKI 20.7029
Core_0_L2C_total_miss_rate 0.27263
Core_0_L2C_demand_access 226925
Core_0_L2C_demand_hit 83726
Core_0_L2C_demand_miss 143199
Core_0_L2C_demand_MPKI 2.86398
Core_0_L2C_demand_miss_rate 0.631041
Core_0_L2C_load_access 96420
Core_0_L2C_load_hit 71607
Core_0_L2C_load_miss 24813
Core_0_L2C_load_MPKI 0.49626
Core_0_L2C_load_miss_rate 0.257343
Core_0_L2C_rfo_access 130505
Core_0_L2C_rfo_hit 12119
Core_0_L2C_rfo_miss 118386
Core_0_L2C_rfo_MPKI 2.36772
Core_0_L2C_rfo_miss_rate 0.907138
Core_0_L2C_prefetch_access 3306486
Core_0_L2C_prefetch_hit 2415238
Core_0_L2C_prefetch_miss 891248
Core_0_L2C_prefetch_MPKI 17.825
Core_0_L2C_prefetch_miss_rate 0.269545
Core_0_L2C_writeback_access 263472
Core_0_L2C_writeback_hit 262774
Core_0_L2C_writeback_miss 698
Core_0_L2C_writeback_MPKI 0.01396
Core_0_L2C_writeback_miss_rate 0.00264924
Core_0_L2C_prefetch_requested 3083411
Core_0_L2C_prefetch_issued 2798921
Core_0_L2C_prefetch_useful 314413
Core_0_L2C_prefetch_useless 38523
Core_0_L2C_prefetch_late 6556
Core_0_L2C_prefetch_accuracy 0.112334
Core_0_L2C_prefetch_coverage 0.687073

Core_0_LLC_total_access 749499
Core_0_LLC_total_hit 333712
Core_0_LLC_total_miss 415787
Core_0_LLC_total_MPKI 8.31574
Core_0_LLC_total_miss_rate 0.554753
Core_0_LLC_demand_access 136643
Core_0_LLC_demand_hit 35547
Core_0_LLC_demand_miss 101096
Core_0_LLC_demand_MPKI 2.02192
Core_0_LLC_demand_miss_rate 0.739855
Core_0_LLC_load_access 18258
Core_0_LLC_load_hit 8921
Core_0_LLC_load_miss 9337
Core_0_LLC_load_MPKI 0.18674
Core_0_LLC_load_miss_rate 0.511392
Core_0_LLC_rfo_access 118385
Core_0_LLC_rfo_hit 26626
Core_0_LLC_rfo_miss 91759
Core_0_LLC_rfo_MPKI 1.83518
Core_0_LLC_rfo_miss_rate 0.77509
Core_0_LLC_prefetch_access 374608
Core_0_LLC_prefetch_hit 132676
Core_0_LLC_prefetch_miss 241932
Core_0_LLC_prefetch_MPKI 4.83864
Core_0_LLC_prefetch_miss_rate 0.645827
Core_0_LLC_writeback_access 238248
Core_0_LLC_writeback_hit 165489
Core_0_LLC_writeback_miss 72759
Core_0_LLC_writeback_MPKI 1.45518
Core_0_LLC_writeback_miss_rate 0.305392
Core_0_LLC_prefetch_requested 0
Core_0_LLC_prefetch_issued 0
Core_0_LLC_prefetch_useful 0
Core_0_LLC_prefetch_useless 0
Core_0_LLC_prefetch_late 0
Core_0_LLC_prefetch_accuracy 0
Core_0_LLC_prefetch_coverage 0

[DRAM Statistics]
Channel_0_RQ_row_buffer_hit 23901
Channel_0_RQ_row_buffer_miss 319357
Channel_0_WQ_row_buffer_hit 21028
Channel_0_WQ_row_buffer_miss 140441
Channel_0_WQ_full 1536
Channel_0_dbus_congested 1396314
DRAM_total_RQ_row_buffer_hit 23901
DRAM_total_RQ_row_buffer_miss 319357
DRAM_total_WQ_row_buffer_hit 21028
DRAM_total_WQ_row_buffer_miss 140441
DRAM_total_WQ_full 1536
DRAM_total_dbus_congested 1396314
DRAM_avg_congested_cycle 6.89819

======STLB miss causes ========
Core_0_STLB_miss_cause_breakdown
Core_0_STLB_cause_Demand_Data_miss 2775
Core_0_STLB_cause_Demand_Data_miss_rate 0.0792088
Core_0_STLB_cause_Demand_Instruction_miss 24
Core_0_STLB_cause_Demand_Instruction_miss_rate 0.000685049
Core_0_STLB_cause_L1D_Prefetch_miss 408
Core_0_STLB_cause_L1D_Prefetch_miss_rate 0.0116458
Core_0_STLB_cause_L1I_Prefetch_miss 0
Core_0_STLB_cause_L1I_Prefetch_miss_rate 0
Core_0_STLB_cause_Other_miss 0
Core_0_STLB_cause_Other_miss_rate 0
Core_0_STLB_Demand_miss 2799
Core_0_STLB_Demand_miss_rate 0.0798938
Core_0_STLB_L1D_Prefetch_miss 408
Core_0_STLB_L1D_Prefetch_miss_rate 0.0116458
Core_0_STLB_Other_miss 0
Core_0_STLB_Other_miss_rate 0
