[VMEM] WARNING: physical memory size is smaller than virtual memory size.

*** ChampSim Multicore Out-of-Order Simulator ***
Warmup Instructions: 20000000
Simulation Instructions: 50000000
Number of CPUs: 1
Page size: 4096
Core 0: /data0/tzh/champsim_traces/SPEC17/644.nab_s-9322B.champsimtrace.xz
 L1D Berti prefetcher
Off-chip DRAM Size: 4 GiB Channels: 1 Width: 64-bit Data Rate: 3205 MT/s
Warmup halting CPU 0 at instruction 20000002 cycle 4121861 for remainder of phase
Warmup finished CPU 0 instructions: 20000002 cycles: 4121861 cumulative IPC: 4.852 (Simulation time: 00 hr 00 min 45 sec)
Warmup complete CPU 0 instructions: 20000002 cycles: 4121861 cumulative IPC: 4.852 (Simulation time: 00 hr 00 min 45 sec)
Simulation finished CPU 0 instructions: 50000005 cycles: 28014049 cumulative IPC: 1.785 (Simulation time: 00 hr 04 min 30 sec)
Simulation complete CPU 0 instructions: 50000005 cycles: 28014049 cumulative IPC: 1.785 (Simulation time: 00 hr 04 min 30 sec)

ChampSim completed all CPUs

=== Simulation ===
CPU 0 runs /data0/tzh/champsim_traces/SPEC17/644.nab_s-9322B.champsimtrace.xz

Region of Interest Statistics

CPU 0 cumulative IPC: 1.785 instructions: 50000005 cycles: 28014049
CPU 0 Branch Prediction Accuracy: 96.6% MPKI: 4.394 Average ROB Occupancy at Mispredict: 86.8
Branch type MPKI
BRANCH_DIRECT_JUMP: 0
BRANCH_INDIRECT: 0
BRANCH_CONDITIONAL: 4.394
BRANCH_DIRECT_CALL: 0
BRANCH_INDIRECT_CALL: 0
BRANCH_RETURN: 0

cpu0->cpu0_STLB TOTAL        ACCESS:      16372 HIT:      15663 MISS:        709 MSHR_MERGE:          0
cpu0->cpu0_STLB LOAD         ACCESS:      16372 HIT:      15663 MISS:        709 MSHR_MERGE:          0
cpu0->cpu0_STLB RFO          ACCESS:          0 HIT:          0 MISS:          0 MSHR_MERGE:          0
cpu0->cpu0_STLB PREFETCH     ACCESS:          0 HIT:          0 MISS:          0 MSHR_MERGE:          0
cpu0->cpu0_STLB WRITE        ACCESS:          0 HIT:          0 MISS:          0 MSHR_MERGE:          0
cpu0->cpu0_STLB TRANSLATION  ACCESS:          0 HIT:          0 MISS:          0 MSHR_MERGE:          0
cpu0->cpu0_STLB PREFETCH REQUESTED:          0 ISSUED:          0 USEFUL:          0 USELESS:          0 LATE:          0
cpu0->cpu0_STLB AVERAGE MISS LATENCY: 258.8 cycles
cpu0->cpu0_L2C TOTAL        ACCESS:    2696220 HIT:    2653096 MISS:      43124 MSHR_MERGE:       3331
cpu0->cpu0_L2C LOAD         ACCESS:      75631 HIT:      74001 MISS:       1630 MSHR_MERGE:         29
cpu0->cpu0_L2C RFO          ACCESS:       1119 HIT:       1081 MISS:         38 MSHR_MERGE:          0
cpu0->cpu0_L2C PREFETCH     ACCESS:    2617745 HIT:    2576557 MISS:      41188 MSHR_MERGE:       3302
cpu0->cpu0_L2C WRITE        ACCESS:       1133 HIT:       1133 MISS:          0 MSHR_MERGE:          0
cpu0->cpu0_L2C TRANSLATION  ACCESS:        592 HIT:        324 MISS:        268 MSHR_MERGE:          0
cpu0->cpu0_L2C PREFETCH REQUESTED:    2236917 ISSUED:    2224228 USEFUL:      33375 USELESS:       2854 LATE:         29
cpu0->cpu0_L2C AVERAGE MISS LATENCY: 128 cycles
cpu0->cpu0_L1I TOTAL        ACCESS:    4943470 HIT:    4943470 MISS:          0 MSHR_MERGE:          0
cpu0->cpu0_L1I LOAD         ACCESS:    4943470 HIT:    4943470 MISS:          0 MSHR_MERGE:          0
cpu0->cpu0_L1I RFO          ACCESS:          0 HIT:          0 MISS:          0 MSHR_MERGE:          0
cpu0->cpu0_L1I PREFETCH     ACCESS:          0 HIT:          0 MISS:          0 MSHR_MERGE:          0
cpu0->cpu0_L1I WRITE        ACCESS:          0 HIT:          0 MISS:          0 MSHR_MERGE:          0
cpu0->cpu0_L1I TRANSLATION  ACCESS:          0 HIT:          0 MISS:          0 MSHR_MERGE:          0
cpu0->cpu0_L1I PREFETCH REQUESTED:          0 ISSUED:          0 USEFUL:          0 USELESS:          0 LATE:          0
cpu0->cpu0_L1I AVERAGE MISS LATENCY: - cycles
cpu0->cpu0_L1D TOTAL        ACCESS:   15408840 HIT:   14920473 MISS:     488367 MSHR_MERGE:      17501
cpu0->cpu0_L1D LOAD         ACCESS:   13941010 HIT:   13850377 MISS:      90633 MSHR_MERGE:      15002
cpu0->cpu0_L1D RFO          ACCESS:          0 HIT:          0 MISS:          0 MSHR_MERGE:          0
cpu0->cpu0_L1D PREFETCH     ACCESS:     516560 HIT:     120554 MISS:     396006 MSHR_MERGE:       2495
cpu0->cpu0_L1D WRITE        ACCESS:     949846 HIT:     948710 MISS:       1136 MSHR_MERGE:          4
cpu0->cpu0_L1D TRANSLATION  ACCESS:       1424 HIT:        832 MISS:        592 MSHR_MERGE:          0
cpu0->cpu0_L1D PREFETCH REQUESTED:     516605 ISSUED:     516552 USEFUL:     357607 USELESS:      35846 LATE:        434
cpu0->cpu0_L1D AVERAGE MISS LATENCY: 11.21 cycles
cpu0->cpu0_ITLB TOTAL        ACCESS:    4023387 HIT:    4023387 MISS:          0 MSHR_MERGE:          0
cpu0->cpu0_ITLB LOAD         ACCESS:    4023387 HIT:    4023387 MISS:          0 MSHR_MERGE:          0
cpu0->cpu0_ITLB RFO          ACCESS:          0 HIT:          0 MISS:          0 MSHR_MERGE:          0
cpu0->cpu0_ITLB PREFETCH     ACCESS:          0 HIT:          0 MISS:          0 MSHR_MERGE:          0
cpu0->cpu0_ITLB WRITE        ACCESS:          0 HIT:          0 MISS:          0 MSHR_MERGE:          0
cpu0->cpu0_ITLB TRANSLATION  ACCESS:          0 HIT:          0 MISS:          0 MSHR_MERGE:          0
cpu0->cpu0_ITLB PREFETCH REQUESTED:          0 ISSUED:          0 USEFUL:          0 USELESS:          0 LATE:          0
cpu0->cpu0_ITLB AVERAGE MISS LATENCY: - cycles
cpu0->cpu0_DTLB TOTAL        ACCESS:   15325349 HIT:   15305325 MISS:      20024 MSHR_MERGE:       3652
cpu0->cpu0_DTLB LOAD         ACCESS:   15325349 HIT:   15305325 MISS:      20024 MSHR_MERGE:       3652
cpu0->cpu0_DTLB RFO          ACCESS:          0 HIT:          0 MISS:          0 MSHR_MERGE:          0
cpu0->cpu0_DTLB PREFETCH     ACCESS:          0 HIT:          0 MISS:          0 MSHR_MERGE:          0
cpu0->cpu0_DTLB WRITE        ACCESS:          0 HIT:          0 MISS:          0 MSHR_MERGE:          0
cpu0->cpu0_DTLB TRANSLATION  ACCESS:          0 HIT:          0 MISS:          0 MSHR_MERGE:          0
cpu0->cpu0_DTLB PREFETCH REQUESTED:          0 ISSUED:          0 USEFUL:          0 USELESS:          0 LATE:          0
cpu0->cpu0_DTLB AVERAGE MISS LATENCY: 16.25 cycles
cpu0->LLC TOTAL        ACCESS:      39827 HIT:       2426 MISS:      37401 MSHR_MERGE:          0
cpu0->LLC LOAD         ACCESS:       1601 HIT:        424 MISS:       1177 MSHR_MERGE:          0
cpu0->LLC RFO          ACCESS:         38 HIT:          0 MISS:         38 MSHR_MERGE:          0
cpu0->LLC PREFETCH     ACCESS:      37886 HIT:       1855 MISS:      36031 MSHR_MERGE:          0
cpu0->LLC WRITE        ACCESS:         34 HIT:         31 MISS:          3 MSHR_MERGE:          0
cpu0->LLC TRANSLATION  ACCESS:        268 HIT:        116 MISS:        152 MSHR_MERGE:          0
cpu0->LLC PREFETCH REQUESTED:          0 ISSUED:          0 USEFUL:          0 USELESS:          0 LATE:          0
cpu0->LLC AVERAGE MISS LATENCY: 157.6 cycles

DRAM Statistics

Channel 0 RQ ROW_BUFFER_HIT:         57
  ROW_BUFFER_MISS:      37341
  AVG DBUS CONGESTED CYCLE: 2.843
Channel 0 WQ ROW_BUFFER_HIT:          0
  ROW_BUFFER_MISS:          7
  FULL:          0
Channel 0 REFRESHES ISSUED:       2334

[ROI Statistics]
[System Configuration]
num_cpus 1
cpu_freq 4000
fetch_width 6
decode_width 6
dispatch_width 6
execute_width 6
lq_width 2
sq_width 2
retire_width 6
scheduler_size 160
branch_mispredict_penalty 1
rob_size 352
lq_size 240
sq_size 112
ifetch_buffer_size 64
decode_buffer_size 32
dispatch_buffer_size 32
register_file_size 288
decode_latency 1
dispatch_latency 1
schedule_latency 0
execute_latency 0
page_size 4096
block_size 64
core_0_itlb_set 16
core_0_itlb_way 4
core_0_itlb_rq_size 16
core_0_itlb_wq_size 16
core_0_itlb_pq_size 0
core_0_itlb_mshr_size 8
core_0_itlb_hit_latency 1
core_0_itlb_fill_latency 1
core_0_itlb_max_tag_check 2
core_0_itlb_max_fill 2
core_0_dtlb_set 16
core_0_dtlb_way 4
core_0_dtlb_rq_size 16
core_0_dtlb_wq_size 16
core_0_dtlb_pq_size 0
core_0_dtlb_mshr_size 8
core_0_dtlb_hit_latency 1
core_0_dtlb_fill_latency 1
core_0_dtlb_max_tag_check 2
core_0_dtlb_max_fill 2
core_0_stlb_set 128
core_0_stlb_way 12
core_0_stlb_rq_size 32
core_0_stlb_wq_size 32
core_0_stlb_pq_size 0
core_0_stlb_mshr_size 16
core_0_stlb_hit_latency 4
core_0_stlb_fill_latency 4
core_0_stlb_max_tag_check 1
core_0_stlb_max_fill 1
core_0_l1i_set 64
core_0_l1i_way 8
core_0_l1i_rq_size 64
core_0_l1i_wq_size 64
core_0_l1i_pq_size 32
core_0_l1i_mshr_size 8
core_0_l1i_hit_latency 2
core_0_l1i_fill_latency 2
core_0_l1i_max_tag_check 2
core_0_l1i_max_fill 2
core_0_l1d_set 64
core_0_l1d_way 12
core_0_l1d_rq_size 64
core_0_l1d_wq_size 64
core_0_l1d_pq_size 8
core_0_l1d_mshr_size 16
core_0_l1d_hit_latency 2
core_0_l1d_fill_latency 3
core_0_l1d_max_tag_check 2
core_0_l1d_max_fill 2
core_0_l2c_set 1024
core_0_l2c_way 8
core_0_l2c_rq_size 32
core_0_l2c_wq_size 32
core_0_l2c_pq_size 16
core_0_l2c_mshr_size 32
core_0_l2c_hit_latency 5
core_0_l2c_fill_latency 5
core_0_l2c_max_tag_check 1
core_0_l2c_max_fill 1
llc_set 2048
llc_way 16
llc_rq_size 32
llc_wq_size 32
llc_pq_size 32
llc_mshr_size 64
llc_hit_latency 10
llc_fill_latency 10
llc_max_tag_check 1
llc_max_fill 1
dram_channels 1
dram_ranks 1
dram_bankgroups 8
dram_banks 4
dram_rows 16384
dram_columns 1024
dram_channel_width 8
dram_rq_size 64
dram_wq_size 64
dram_size 4294967296
core_0_itlb_prefetcher no
core_0_dtlb_prefetcher no
core_0_stlb_prefetcher no
core_0_l1i_prefetcher next_line
core_0_l1d_prefetcher berti
core_0_l2c_prefetcher pythia
llc_prefetcher no
llc_replacement drrip

Core_0_instructions 50000005
Core_0_cycles 28014049
Core_0_IPC 1.78482
Core_0_branch_prediction_accuracy 96.596
Core_0_branch_MPKI 4.394
Core_0_average_ROB_occupancy_at_mispredict 86.7969

Core_0_ITLB_total_access 4023387
Core_0_ITLB_total_hit 4023387
Core_0_ITLB_total_miss 0
Core_0_ITLB_total_MPKI 0
Core_0_ITLB_total_miss_rate 0
Core_0_ITLB_demand_access 4023387
Core_0_ITLB_demand_hit 4023387
Core_0_ITLB_demand_miss 0
Core_0_ITLB_demand_MPKI 0
Core_0_ITLB_demand_miss_rate 0
Core_0_ITLB_load_access 4023387
Core_0_ITLB_load_hit 4023387
Core_0_ITLB_load_miss 0
Core_0_ITLB_load_MPKI 0
Core_0_ITLB_load_miss_rate 0
Core_0_ITLB_rfo_access 0
Core_0_ITLB_rfo_hit 0
Core_0_ITLB_rfo_miss 0
Core_0_ITLB_rfo_MPKI 0
Core_0_ITLB_rfo_miss_rate 0
Core_0_ITLB_prefetch_access 0
Core_0_ITLB_prefetch_hit 0
Core_0_ITLB_prefetch_miss 0
Core_0_ITLB_prefetch_MPKI 0
Core_0_ITLB_prefetch_miss_rate 0
Core_0_ITLB_writeback_access 0
Core_0_ITLB_writeback_hit 0
Core_0_ITLB_writeback_miss 0
Core_0_ITLB_writeback_MPKI 0
Core_0_ITLB_writeback_miss_rate 0
Core_0_ITLB_prefetch_requested 0
Core_0_ITLB_prefetch_issued 0
Core_0_ITLB_prefetch_useful 0
Core_0_ITLB_prefetch_useless 0
Core_0_ITLB_prefetch_late 0
Core_0_ITLB_prefetch_accuracy 0
Core_0_ITLB_prefetch_coverage 0

Core_0_DTLB_total_access 15325349
Core_0_DTLB_total_hit 15305325
Core_0_DTLB_total_miss 20024
Core_0_DTLB_total_MPKI 0.40048
Core_0_DTLB_total_miss_rate 0.00130659
Core_0_DTLB_demand_access 15325349
Core_0_DTLB_demand_hit 15305325
Core_0_DTLB_demand_miss 20024
Core_0_DTLB_demand_MPKI 0.40048
Core_0_DTLB_demand_miss_rate 0.00130659
Core_0_DTLB_load_access 15325349
Core_0_DTLB_load_hit 15305325
Core_0_DTLB_load_miss 20024
Core_0_DTLB_load_MPKI 0.40048
Core_0_DTLB_load_miss_rate 0.00130659
Core_0_DTLB_rfo_access 0
Core_0_DTLB_rfo_hit 0
Core_0_DTLB_rfo_miss 0
Core_0_DTLB_rfo_MPKI 0
Core_0_DTLB_rfo_miss_rate 0
Core_0_DTLB_prefetch_access 0
Core_0_DTLB_prefetch_hit 0
Core_0_DTLB_prefetch_miss 0
Core_0_DTLB_prefetch_MPKI 0
Core_0_DTLB_prefetch_miss_rate 0
Core_0_DTLB_writeback_access 0
Core_0_DTLB_writeback_hit 0
Core_0_DTLB_writeback_miss 0
Core_0_DTLB_writeback_MPKI 0
Core_0_DTLB_writeback_miss_rate 0
Core_0_DTLB_prefetch_requested 0
Core_0_DTLB_prefetch_issued 0
Core_0_DTLB_prefetch_useful 0
Core_0_DTLB_prefetch_useless 0
Core_0_DTLB_prefetch_late 0
Core_0_DTLB_prefetch_accuracy 0
Core_0_DTLB_prefetch_coverage 0

Core_0_STLB_total_access 16372
Core_0_STLB_total_hit 15663
Core_0_STLB_total_miss 709
Core_0_STLB_total_MPKI 0.01418
Core_0_STLB_total_miss_rate 0.0433056
Core_0_STLB_demand_access 16372
Core_0_STLB_demand_hit 15663
Core_0_STLB_demand_miss 709
Core_0_STLB_demand_MPKI 0.01418
Core_0_STLB_demand_miss_rate 0.0433056
Core_0_STLB_load_access 16372
Core_0_STLB_load_hit 15663
Core_0_STLB_load_miss 709
Core_0_STLB_load_MPKI 0.01418
Core_0_STLB_load_miss_rate 0.0433056
Core_0_STLB_rfo_access 0
Core_0_STLB_rfo_hit 0
Core_0_STLB_rfo_miss 0
Core_0_STLB_rfo_MPKI 0
Core_0_STLB_rfo_miss_rate 0
Core_0_STLB_prefetch_access 0
Core_0_STLB_prefetch_hit 0
Core_0_STLB_prefetch_miss 0
Core_0_STLB_prefetch_MPKI 0
Core_0_STLB_prefetch_miss_rate 0
Core_0_STLB_writeback_access 0
Core_0_STLB_writeback_hit 0
Core_0_STLB_writeback_miss 0
Core_0_STLB_writeback_MPKI 0
Core_0_STLB_writeback_miss_rate 0
Core_0_STLB_prefetch_requested 0
Core_0_STLB_prefetch_issued 0
Core_0_STLB_prefetch_useful 0
Core_0_STLB_prefetch_useless 0
Core_0_STLB_prefetch_late 0
Core_0_STLB_prefetch_accuracy 0
Core_0_STLB_prefetch_coverage 0

Core_0_L1I_total_access 4943470
Core_0_L1I_total_hit 4943470
Core_0_L1I_total_miss 0
Core_0_L1I_total_MPKI 0
Core_0_L1I_total_miss_rate 0
Core_0_L1I_demand_access 4943470
Core_0_L1I_demand_hit 4943470
Core_0_L1I_demand_miss 0
Core_0_L1I_demand_MPKI 0
Core_0_L1I_demand_miss_rate 0
Core_0_L1I_load_access 4943470
Core_0_L1I_load_hit 4943470
Core_0_L1I_load_miss 0
Core_0_L1I_load_MPKI 0
Core_0_L1I_load_miss_rate 0
Core_0_L1I_rfo_access 0
Core_0_L1I_rfo_hit 0
Core_0_L1I_rfo_miss 0
Core_0_L1I_rfo_MPKI 0
Core_0_L1I_rfo_miss_rate 0
Core_0_L1I_prefetch_access 0
Core_0_L1I_prefetch_hit 0
Core_0_L1I_prefetch_miss 0
Core_0_L1I_prefetch_MPKI 0
Core_0_L1I_prefetch_miss_rate 0
Core_0_L1I_writeback_access 0
Core_0_L1I_writeback_hit 0
Core_0_L1I_writeback_miss 0
Core_0_L1I_writeback_MPKI 0
Core_0_L1I_writeback_miss_rate 0
Core_0_L1I_prefetch_requested 0
Core_0_L1I_prefetch_issued 0
Core_0_L1I_prefetch_useful 0
Core_0_L1I_prefetch_useless 0
Core_0_L1I_prefetch_late 0
Core_0_L1I_prefetch_accuracy 0
Core_0_L1I_prefetch_coverage 0

Core_0_L1D_total_access 15407416
Core_0_L1D_total_hit 14919641
Core_0_L1D_total_miss 487775
Core_0_L1D_total_MPKI 9.7555
Core_0_L1D_total_miss_rate 0.0316585
Core_0_L1D_demand_access 13941010
Core_0_L1D_demand_hit 13850377
Core_0_L1D_demand_miss 90633
Core_0_L1D_demand_MPKI 1.81266
Core_0_L1D_demand_miss_rate 0.00650118
Core_0_L1D_load_access 13941010
Core_0_L1D_load_hit 13850377
Core_0_L1D_load_miss 90633
Core_0_L1D_load_MPKI 1.81266
Core_0_L1D_load_miss_rate 0.00650118
Core_0_L1D_rfo_access 0
Core_0_L1D_rfo_hit 0
Core_0_L1D_rfo_miss 0
Core_0_L1D_rfo_MPKI 0
Core_0_L1D_rfo_miss_rate 0
Core_0_L1D_prefetch_access 516560
Core_0_L1D_prefetch_hit 120554
Core_0_L1D_prefetch_miss 396006
Core_0_L1D_prefetch_MPKI 7.92012
Core_0_L1D_prefetch_miss_rate 0.766621
Core_0_L1D_writeback_access 949846
Core_0_L1D_writeback_hit 948710
Core_0_L1D_writeback_miss 1136
Core_0_L1D_writeback_MPKI 0.02272
Core_0_L1D_writeback_miss_rate 0.00119598
Core_0_L1D_prefetch_requested 516605
Core_0_L1D_prefetch_issued 516552
Core_0_L1D_prefetch_useful 357607
Core_0_L1D_prefetch_useless 35846
Core_0_L1D_prefetch_late 434
Core_0_L1D_prefetch_accuracy 0.692296
Core_0_L1D_prefetch_coverage 0.797803

Core_0_L2C_total_access 2695628
Core_0_L2C_total_hit 2652772
Core_0_L2C_total_miss 42856
Core_0_L2C_total_MPKI 0.85712
Core_0_L2C_total_miss_rate 0.0158983
Core_0_L2C_demand_access 76750
Core_0_L2C_demand_hit 75082
Core_0_L2C_demand_miss 1668
Core_0_L2C_demand_MPKI 0.03336
Core_0_L2C_demand_miss_rate 0.0217329
Core_0_L2C_load_access 75631
Core_0_L2C_load_hit 74001
Core_0_L2C_load_miss 1630
Core_0_L2C_load_MPKI 0.0326
Core_0_L2C_load_miss_rate 0.021552
Core_0_L2C_rfo_access 1119
Core_0_L2C_rfo_hit 1081
Core_0_L2C_rfo_miss 38
Core_0_L2C_rfo_MPKI 0.00076
Core_0_L2C_rfo_miss_rate 0.0339589
Core_0_L2C_prefetch_access 2617745
Core_0_L2C_prefetch_hit 2576557
Core_0_L2C_prefetch_miss 41188
Core_0_L2C_prefetch_MPKI 0.82376
Core_0_L2C_prefetch_miss_rate 0.0157342
Core_0_L2C_writeback_access 1133
Core_0_L2C_writeback_hit 1133
Core_0_L2C_writeback_miss 0
Core_0_L2C_writeback_MPKI 0
Core_0_L2C_writeback_miss_rate 0
Core_0_L2C_prefetch_requested 2236917
Core_0_L2C_prefetch_issued 2224228
Core_0_L2C_prefetch_useful 33375
Core_0_L2C_prefetch_useless 2854
Core_0_L2C_prefetch_late 29
Core_0_L2C_prefetch_accuracy 0.0150052
Core_0_L2C_prefetch_coverage 0.952401

Core_0_LLC_total_access 39559
Core_0_LLC_total_hit 2310
Core_0_LLC_total_miss 37249
Core_0_LLC_total_MPKI 0.74498
Core_0_LLC_total_miss_rate 0.941606
Core_0_LLC_demand_access 1639
Core_0_LLC_demand_hit 424
Core_0_LLC_demand_miss 1215
Core_0_LLC_demand_MPKI 0.0243
Core_0_LLC_demand_miss_rate 0.741306
Core_0_LLC_load_access 1601
Core_0_LLC_load_hit 424
Core_0_LLC_load_miss 1177
Core_0_LLC_load_MPKI 0.02354
Core_0_LLC_load_miss_rate 0.735166
Core_0_LLC_rfo_access 38
Core_0_LLC_rfo_hit 0
Core_0_LLC_rfo_miss 38
Core_0_LLC_rfo_MPKI 0.00076
Core_0_LLC_rfo_miss_rate 1
Core_0_LLC_prefetch_access 37886
Core_0_LLC_prefetch_hit 1855
Core_0_LLC_prefetch_miss 36031
Core_0_LLC_prefetch_MPKI 0.72062
Core_0_LLC_prefetch_miss_rate 0.951037
Core_0_LLC_writeback_access 34
Core_0_LLC_writeback_hit 31
Core_0_LLC_writeback_miss 3
Core_0_LLC_writeback_MPKI 6e-05
Core_0_LLC_writeback_miss_rate 0.0882353
Core_0_LLC_prefetch_requested 0
Core_0_LLC_prefetch_issued 0
Core_0_LLC_prefetch_useful 0
Core_0_LLC_prefetch_useless 0
Core_0_LLC_prefetch_late 0
Core_0_LLC_prefetch_accuracy 0
Core_0_LLC_prefetch_coverage 0

[DRAM Statistics]
Channel_0_RQ_row_buffer_hit 57
Channel_0_RQ_row_buffer_miss 37341
Channel_0_WQ_row_buffer_hit 0
Channel_0_WQ_row_buffer_miss 7
Channel_0_WQ_full 0
Channel_0_dbus_congested 17239
DRAM_total_RQ_row_buffer_hit 57
DRAM_total_RQ_row_buffer_miss 37341
DRAM_total_WQ_row_buffer_hit 0
DRAM_total_WQ_row_buffer_miss 7
DRAM_total_WQ_full 0
DRAM_total_dbus_congested 17239
DRAM_avg_congested_cycle 2.84338

======STLB miss causes ========
Core_0_STLB_miss_cause_breakdown
Core_0_STLB_cause_Demand_Data_miss 326
Core_0_STLB_cause_Demand_Data_miss_rate 0.019912
Core_0_STLB_cause_Demand_Instruction_miss 0
Core_0_STLB_cause_Demand_Instruction_miss_rate 0
Core_0_STLB_cause_L1D_Prefetch_miss 383
Core_0_STLB_cause_L1D_Prefetch_miss_rate 0.0233936
Core_0_STLB_cause_L1I_Prefetch_miss 0
Core_0_STLB_cause_L1I_Prefetch_miss_rate 0
Core_0_STLB_cause_Other_miss 0
Core_0_STLB_cause_Other_miss_rate 0
Core_0_STLB_Demand_miss 326
Core_0_STLB_Demand_miss_rate 0.019912
Core_0_STLB_L1D_Prefetch_miss 383
Core_0_STLB_L1D_Prefetch_miss_rate 0.0233936
Core_0_STLB_Other_miss 0
Core_0_STLB_Other_miss_rate 0
