[VMEM] WARNING: physical memory size is smaller than virtual memory size.

*** ChampSim Multicore Out-of-Order Simulator ***
Warmup Instructions: 20000000
Simulation Instructions: 50000000
Number of CPUs: 1
Page size: 4096
Core 0: /data0/tzh/champsim_traces/SPEC17/654.roms_s-294B.champsimtrace.xz
 L1D Berti prefetcher
Off-chip DRAM Size: 4 GiB Channels: 1 Width: 64-bit Data Rate: 3205 MT/s
Warmup halting CPU 0 at instruction 20000002 cycle 4369829 for remainder of phase
Warmup finished CPU 0 instructions: 20000002 cycles: 4369829 cumulative IPC: 4.577 (Simulation time: 00 hr 00 min 54 sec)
Warmup complete CPU 0 instructions: 20000002 cycles: 4369829 cumulative IPC: 4.577 (Simulation time: 00 hr 00 min 54 sec)
Simulation finished CPU 0 instructions: 50000000 cycles: 18443217 cumulative IPC: 2.711 (Simulation time: 00 hr 04 min 40 sec)
Simulation complete CPU 0 instructions: 50000000 cycles: 18443217 cumulative IPC: 2.711 (Simulation time: 00 hr 04 min 40 sec)

ChampSim completed all CPUs

=== Simulation ===
CPU 0 runs /data0/tzh/champsim_traces/SPEC17/654.roms_s-294B.champsimtrace.xz

Region of Interest Statistics

CPU 0 cumulative IPC: 2.711 instructions: 50000000 cycles: 18443217
CPU 0 Branch Prediction Accuracy: 99.93% MPKI: 0.03674 Average ROB Occupancy at Mispredict: 322.4
Branch type MPKI
BRANCH_DIRECT_JUMP: 0
BRANCH_INDIRECT: 0
BRANCH_CONDITIONAL: 0.03674
BRANCH_DIRECT_CALL: 0
BRANCH_INDIRECT_CALL: 0
BRANCH_RETURN: 0

cpu0->cpu0_STLB TOTAL        ACCESS:      19925 HIT:       3490 MISS:      16435 MSHR_MERGE:          0
cpu0->cpu0_STLB LOAD         ACCESS:      19925 HIT:       3490 MISS:      16435 MSHR_MERGE:          0
cpu0->cpu0_STLB RFO          ACCESS:          0 HIT:          0 MISS:          0 MSHR_MERGE:          0
cpu0->cpu0_STLB PREFETCH     ACCESS:          0 HIT:          0 MISS:          0 MSHR_MERGE:          0
cpu0->cpu0_STLB WRITE        ACCESS:          0 HIT:          0 MISS:          0 MSHR_MERGE:          0
cpu0->cpu0_STLB TRANSLATION  ACCESS:          0 HIT:          0 MISS:          0 MSHR_MERGE:          0
cpu0->cpu0_STLB PREFETCH REQUESTED:          0 ISSUED:          0 USEFUL:          0 USELESS:          0 LATE:          0
cpu0->cpu0_STLB AVERAGE MISS LATENCY: 307.1 cycles
cpu0->cpu0_L2C TOTAL        ACCESS:    3808375 HIT:    2485174 MISS:    1323201 MSHR_MERGE:     602562
cpu0->cpu0_L2C LOAD         ACCESS:      24743 HIT:       8204 MISS:      16539 MSHR_MERGE:        698
cpu0->cpu0_L2C RFO          ACCESS:       5159 HIT:        519 MISS:       4640 MSHR_MERGE:          1
cpu0->cpu0_L2C PREFETCH     ACCESS:    3752581 HIT:    2466248 MISS:    1286333 MSHR_MERGE:     601863
cpu0->cpu0_L2C WRITE        ACCESS:      12164 HIT:      10014 MISS:       2150 MSHR_MERGE:          0
cpu0->cpu0_L2C TRANSLATION  ACCESS:      13728 HIT:        189 MISS:      13539 MSHR_MERGE:          0
cpu0->cpu0_L2C PREFETCH REQUESTED:    3127258 ISSUED:    3117473 USEFUL:     570345 USELESS:      87592 LATE:        699
cpu0->cpu0_L2C AVERAGE MISS LATENCY: 166.1 cycles
cpu0->cpu0_L1I TOTAL        ACCESS:    9211639 HIT:    9211639 MISS:          0 MSHR_MERGE:          0
cpu0->cpu0_L1I LOAD         ACCESS:    9211639 HIT:    9211639 MISS:          0 MSHR_MERGE:          0
cpu0->cpu0_L1I RFO          ACCESS:          0 HIT:          0 MISS:          0 MSHR_MERGE:          0
cpu0->cpu0_L1I PREFETCH     ACCESS:          0 HIT:          0 MISS:          0 MSHR_MERGE:          0
cpu0->cpu0_L1I WRITE        ACCESS:          0 HIT:          0 MISS:          0 MSHR_MERGE:          0
cpu0->cpu0_L1I TRANSLATION  ACCESS:          0 HIT:          0 MISS:          0 MSHR_MERGE:          0
cpu0->cpu0_L1I PREFETCH REQUESTED:          0 ISSUED:          0 USEFUL:          0 USELESS:          0 LATE:          0
cpu0->cpu0_L1I AVERAGE MISS LATENCY: - cycles
cpu0->cpu0_L1D TOTAL        ACCESS:   14731032 HIT:   13944310 MISS:     786722 MSHR_MERGE:     107974
cpu0->cpu0_L1D LOAD         ACCESS:   12177972 HIT:   12075129 MISS:     102843 MSHR_MERGE:      78100
cpu0->cpu0_L1D RFO          ACCESS:          0 HIT:          0 MISS:          0 MSHR_MERGE:          0
cpu0->cpu0_L1D PREFETCH     ACCESS:     812061 HIT:     171937 MISS:     640124 MSHR_MERGE:       5006
cpu0->cpu0_L1D WRITE        ACCESS:    1699869 HIT:    1669884 MISS:      29985 MSHR_MERGE:      24826
cpu0->cpu0_L1D TRANSLATION  ACCESS:      41130 HIT:      27360 MISS:      13770 MSHR_MERGE:         42
cpu0->cpu0_L1D PREFETCH REQUESTED:     812201 ISSUED:     812055 USEFUL:     622547 USELESS:      12560 LATE:      14208
cpu0->cpu0_L1D AVERAGE MISS LATENCY: 148.2 cycles
cpu0->cpu0_ITLB TOTAL        ACCESS:    7529678 HIT:    7529678 MISS:          0 MSHR_MERGE:          0
cpu0->cpu0_ITLB LOAD         ACCESS:    7529678 HIT:    7529678 MISS:          0 MSHR_MERGE:          0
cpu0->cpu0_ITLB RFO          ACCESS:          0 HIT:          0 MISS:          0 MSHR_MERGE:          0
cpu0->cpu0_ITLB PREFETCH     ACCESS:          0 HIT:          0 MISS:          0 MSHR_MERGE:          0
cpu0->cpu0_ITLB WRITE        ACCESS:          0 HIT:          0 MISS:          0 MSHR_MERGE:          0
cpu0->cpu0_ITLB TRANSLATION  ACCESS:          0 HIT:          0 MISS:          0 MSHR_MERGE:          0
cpu0->cpu0_ITLB PREFETCH REQUESTED:          0 ISSUED:          0 USEFUL:          0 USELESS:          0 LATE:          0
cpu0->cpu0_ITLB AVERAGE MISS LATENCY: - cycles
cpu0->cpu0_DTLB TOTAL        ACCESS:   14341074 HIT:   14275193 MISS:      65881 MSHR_MERGE:      45956
cpu0->cpu0_DTLB LOAD         ACCESS:   14341074 HIT:   14275193 MISS:      65881 MSHR_MERGE:      45956
cpu0->cpu0_DTLB RFO          ACCESS:          0 HIT:          0 MISS:          0 MSHR_MERGE:          0
cpu0->cpu0_DTLB PREFETCH     ACCESS:          0 HIT:          0 MISS:          0 MSHR_MERGE:          0
cpu0->cpu0_DTLB WRITE        ACCESS:          0 HIT:          0 MISS:          0 MSHR_MERGE:          0
cpu0->cpu0_DTLB TRANSLATION  ACCESS:          0 HIT:          0 MISS:          0 MSHR_MERGE:          0
cpu0->cpu0_DTLB PREFETCH REQUESTED:          0 ISSUED:          0 USEFUL:          0 USELESS:          0 LATE:          0
cpu0->cpu0_DTLB AVERAGE MISS LATENCY: 259.1 cycles
cpu0->LLC TOTAL        ACCESS:     724779 HIT:     101937 MISS:     622842 MSHR_MERGE:          0
cpu0->LLC LOAD         ACCESS:      15841 HIT:       1903 MISS:      13938 MSHR_MERGE:          0
cpu0->LLC RFO          ACCESS:       4639 HIT:        112 MISS:       4527 MSHR_MERGE:          0
cpu0->LLC PREFETCH     ACCESS:     684469 HIT:      87123 MISS:     597346 MSHR_MERGE:          0
cpu0->LLC WRITE        ACCESS:       6291 HIT:       4524 MISS:       1767 MSHR_MERGE:          0
cpu0->LLC TRANSLATION  ACCESS:      13539 HIT:       8275 MISS:       5264 MSHR_MERGE:          0
cpu0->LLC PREFETCH REQUESTED:          0 ISSUED:          0 USEFUL:          0 USELESS:          0 LATE:          0
cpu0->LLC AVERAGE MISS LATENCY: 216.8 cycles

DRAM Statistics

Channel 0 RQ ROW_BUFFER_HIT:        643
  ROW_BUFFER_MISS:     620426
  AVG DBUS CONGESTED CYCLE: 2.926
Channel 0 WQ ROW_BUFFER_HIT:        470
  ROW_BUFFER_MISS:       4514
  FULL:          0
Channel 0 REFRESHES ISSUED:       1537

[ROI Statistics]
[System Configuration]
num_cpus 1
cpu_freq 4000
fetch_width 6
decode_width 6
dispatch_width 6
execute_width 6
lq_width 2
sq_width 2
retire_width 6
scheduler_size 160
branch_mispredict_penalty 1
rob_size 352
lq_size 240
sq_size 112
ifetch_buffer_size 64
decode_buffer_size 32
dispatch_buffer_size 32
register_file_size 288
decode_latency 1
dispatch_latency 1
schedule_latency 0
execute_latency 0
page_size 4096
block_size 64
core_0_itlb_set 16
core_0_itlb_way 4
core_0_itlb_rq_size 16
core_0_itlb_wq_size 16
core_0_itlb_pq_size 0
core_0_itlb_mshr_size 8
core_0_itlb_hit_latency 1
core_0_itlb_fill_latency 1
core_0_itlb_max_tag_check 2
core_0_itlb_max_fill 2
core_0_dtlb_set 16
core_0_dtlb_way 4
core_0_dtlb_rq_size 16
core_0_dtlb_wq_size 16
core_0_dtlb_pq_size 0
core_0_dtlb_mshr_size 8
core_0_dtlb_hit_latency 1
core_0_dtlb_fill_latency 1
core_0_dtlb_max_tag_check 2
core_0_dtlb_max_fill 2
core_0_stlb_set 128
core_0_stlb_way 12
core_0_stlb_rq_size 32
core_0_stlb_wq_size 32
core_0_stlb_pq_size 0
core_0_stlb_mshr_size 16
core_0_stlb_hit_latency 4
core_0_stlb_fill_latency 4
core_0_stlb_max_tag_check 1
core_0_stlb_max_fill 1
core_0_l1i_set 64
core_0_l1i_way 8
core_0_l1i_rq_size 64
core_0_l1i_wq_size 64
core_0_l1i_pq_size 32
core_0_l1i_mshr_size 8
core_0_l1i_hit_latency 2
core_0_l1i_fill_latency 2
core_0_l1i_max_tag_check 2
core_0_l1i_max_fill 2
core_0_l1d_set 64
core_0_l1d_way 12
core_0_l1d_rq_size 64
core_0_l1d_wq_size 64
core_0_l1d_pq_size 8
core_0_l1d_mshr_size 16
core_0_l1d_hit_latency 2
core_0_l1d_fill_latency 3
core_0_l1d_max_tag_check 2
core_0_l1d_max_fill 2
core_0_l2c_set 1024
core_0_l2c_way 8
core_0_l2c_rq_size 32
core_0_l2c_wq_size 32
core_0_l2c_pq_size 16
core_0_l2c_mshr_size 32
core_0_l2c_hit_latency 5
core_0_l2c_fill_latency 5
core_0_l2c_max_tag_check 1
core_0_l2c_max_fill 1
llc_set 2048
llc_way 16
llc_rq_size 32
llc_wq_size 32
llc_pq_size 32
llc_mshr_size 64
llc_hit_latency 10
llc_fill_latency 10
llc_max_tag_check 1
llc_max_fill 1
dram_channels 1
dram_ranks 1
dram_bankgroups 8
dram_banks 4
dram_rows 16384
dram_columns 1024
dram_channel_width 8
dram_rq_size 64
dram_wq_size 64
dram_size 4294967296
core_0_itlb_prefetcher no
core_0_dtlb_prefetcher no
core_0_stlb_prefetcher no
core_0_l1i_prefetcher next_line
core_0_l1d_prefetcher berti
core_0_l2c_prefetcher pythia
llc_prefetcher no
llc_replacement drrip

Core_0_instructions 50000000
Core_0_cycles 18443217
Core_0_IPC 2.71102
Core_0_branch_prediction_accuracy 99.9268
Core_0_branch_MPKI 0.03674
Core_0_average_ROB_occupancy_at_mispredict 322.401

Core_0_ITLB_total_access 7529678
Core_0_ITLB_total_hit 7529678
Core_0_ITLB_total_miss 0
Core_0_ITLB_total_MPKI 0
Core_0_ITLB_total_miss_rate 0
Core_0_ITLB_demand_access 7529678
Core_0_ITLB_demand_hit 7529678
Core_0_ITLB_demand_miss 0
Core_0_ITLB_demand_MPKI 0
Core_0_ITLB_demand_miss_rate 0
Core_0_ITLB_load_access 7529678
Core_0_ITLB_load_hit 7529678
Core_0_ITLB_load_miss 0
Core_0_ITLB_load_MPKI 0
Core_0_ITLB_load_miss_rate 0
Core_0_ITLB_rfo_access 0
Core_0_ITLB_rfo_hit 0
Core_0_ITLB_rfo_miss 0
Core_0_ITLB_rfo_MPKI 0
Core_0_ITLB_rfo_miss_rate 0
Core_0_ITLB_prefetch_access 0
Core_0_ITLB_prefetch_hit 0
Core_0_ITLB_prefetch_miss 0
Core_0_ITLB_prefetch_MPKI 0
Core_0_ITLB_prefetch_miss_rate 0
Core_0_ITLB_writeback_access 0
Core_0_ITLB_writeback_hit 0
Core_0_ITLB_writeback_miss 0
Core_0_ITLB_writeback_MPKI 0
Core_0_ITLB_writeback_miss_rate 0
Core_0_ITLB_prefetch_requested 0
Core_0_ITLB_prefetch_issued 0
Core_0_ITLB_prefetch_useful 0
Core_0_ITLB_prefetch_useless 0
Core_0_ITLB_prefetch_late 0
Core_0_ITLB_prefetch_accuracy 0
Core_0_ITLB_prefetch_coverage 0

Core_0_DTLB_total_access 14341074
Core_0_DTLB_total_hit 14275193
Core_0_DTLB_total_miss 65881
Core_0_DTLB_total_MPKI 1.31762
Core_0_DTLB_total_miss_rate 0.00459387
Core_0_DTLB_demand_access 14341074
Core_0_DTLB_demand_hit 14275193
Core_0_DTLB_demand_miss 65881
Core_0_DTLB_demand_MPKI 1.31762
Core_0_DTLB_demand_miss_rate 0.00459387
Core_0_DTLB_load_access 14341074
Core_0_DTLB_load_hit 14275193
Core_0_DTLB_load_miss 65881
Core_0_DTLB_load_MPKI 1.31762
Core_0_DTLB_load_miss_rate 0.00459387
Core_0_DTLB_rfo_access 0
Core_0_DTLB_rfo_hit 0
Core_0_DTLB_rfo_miss 0
Core_0_DTLB_rfo_MPKI 0
Core_0_DTLB_rfo_miss_rate 0
Core_0_DTLB_prefetch_access 0
Core_0_DTLB_prefetch_hit 0
Core_0_DTLB_prefetch_miss 0
Core_0_DTLB_prefetch_MPKI 0
Core_0_DTLB_prefetch_miss_rate 0
Core_0_DTLB_writeback_access 0
Core_0_DTLB_writeback_hit 0
Core_0_DTLB_writeback_miss 0
Core_0_DTLB_writeback_MPKI 0
Core_0_DTLB_writeback_miss_rate 0
Core_0_DTLB_prefetch_requested 0
Core_0_DTLB_prefetch_issued 0
Core_0_DTLB_prefetch_useful 0
Core_0_DTLB_prefetch_useless 0
Core_0_DTLB_prefetch_late 0
Core_0_DTLB_prefetch_accuracy 0
Core_0_DTLB_prefetch_coverage 0

Core_0_STLB_total_access 19925
Core_0_STLB_total_hit 3490
Core_0_STLB_total_miss 16435
Core_0_STLB_total_MPKI 0.3287
Core_0_STLB_total_miss_rate 0.824843
Core_0_STLB_demand_access 19925
Core_0_STLB_demand_hit 3490
Core_0_STLB_demand_miss 16435
Core_0_STLB_demand_MPKI 0.3287
Core_0_STLB_demand_miss_rate 0.824843
Core_0_STLB_load_access 19925
Core_0_STLB_load_hit 3490
Core_0_STLB_load_miss 16435
Core_0_STLB_load_MPKI 0.3287
Core_0_STLB_load_miss_rate 0.824843
Core_0_STLB_rfo_access 0
Core_0_STLB_rfo_hit 0
Core_0_STLB_rfo_miss 0
Core_0_STLB_rfo_MPKI 0
Core_0_STLB_rfo_miss_rate 0
Core_0_STLB_prefetch_access 0
Core_0_STLB_prefetch_hit 0
Core_0_STLB_prefetch_miss 0
Core_0_STLB_prefetch_MPKI 0
Core_0_STLB_prefetch_miss_rate 0
Core_0_STLB_writeback_access 0
Core_0_STLB_writeback_hit 0
Core_0_STLB_writeback_miss 0
Core_0_STLB_writeback_MPKI 0
Core_0_STLB_writeback_miss_rate 0
Core_0_STLB_prefetch_requested 0
Core_0_STLB_prefetch_issued 0
Core_0_STLB_prefetch_useful 0
Core_0_STLB_prefetch_useless 0
Core_0_STLB_prefetch_late 0
Core_0_STLB_prefetch_accuracy 0
Core_0_STLB_prefetch_coverage 0

Core_0_L1I_total_access 9211639
Core_0_L1I_total_hit 9211639
Core_0_L1I_total_miss 0
Core_0_L1I_total_MPKI 0
Core_0_L1I_total_miss_rate 0
Core_0_L1I_demand_access 9211639
Core_0_L1I_demand_hit 9211639
Core_0_L1I_demand_miss 0
Core_0_L1I_demand_MPKI 0
Core_0_L1I_demand_miss_rate 0
Core_0_L1I_load_access 9211639
Core_0_L1I_load_hit 9211639
Core_0_L1I_load_miss 0
Core_0_L1I_load_MPKI 0
Core_0_L1I_load_miss_rate 0
Core_0_L1I_rfo_access 0
Core_0_L1I_rfo_hit 0
Core_0_L1I_rfo_miss 0
Core_0_L1I_rfo_MPKI 0
Core_0_L1I_rfo_miss_rate 0
Core_0_L1I_prefetch_access 0
Core_0_L1I_prefetch_hit 0
Core_0_L1I_prefetch_miss 0
Core_0_L1I_prefetch_MPKI 0
Core_0_L1I_prefetch_miss_rate 0
Core_0_L1I_writeback_access 0
Core_0_L1I_writeback_hit 0
Core_0_L1I_writeback_miss 0
Core_0_L1I_writeback_MPKI 0
Core_0_L1I_writeback_miss_rate 0
Core_0_L1I_prefetch_requested 0
Core_0_L1I_prefetch_issued 0
Core_0_L1I_prefetch_useful 0
Core_0_L1I_prefetch_useless 0
Core_0_L1I_prefetch_late 0
Core_0_L1I_prefetch_accuracy 0
Core_0_L1I_prefetch_coverage 0

Core_0_L1D_total_access 14689902
Core_0_L1D_total_hit 13916950
Core_0_L1D_total_miss 772952
Core_0_L1D_total_MPKI 15.459
Core_0_L1D_total_miss_rate 0.0526179
Core_0_L1D_demand_access 12177972
Core_0_L1D_demand_hit 12075129
Core_0_L1D_demand_miss 102843
Core_0_L1D_demand_MPKI 2.05686
Core_0_L1D_demand_miss_rate 0.008445
Core_0_L1D_load_access 12177972
Core_0_L1D_load_hit 12075129
Core_0_L1D_load_miss 102843
Core_0_L1D_load_MPKI 2.05686
Core_0_L1D_load_miss_rate 0.008445
Core_0_L1D_rfo_access 0
Core_0_L1D_rfo_hit 0
Core_0_L1D_rfo_miss 0
Core_0_L1D_rfo_MPKI 0
Core_0_L1D_rfo_miss_rate 0
Core_0_L1D_prefetch_access 812061
Core_0_L1D_prefetch_hit 171937
Core_0_L1D_prefetch_miss 640124
Core_0_L1D_prefetch_MPKI 12.8025
Core_0_L1D_prefetch_miss_rate 0.788271
Core_0_L1D_writeback_access 1699869
Core_0_L1D_writeback_hit 1669884
Core_0_L1D_writeback_miss 29985
Core_0_L1D_writeback_MPKI 0.5997
Core_0_L1D_writeback_miss_rate 0.0176396
Core_0_L1D_prefetch_requested 812201
Core_0_L1D_prefetch_issued 812055
Core_0_L1D_prefetch_useful 622547
Core_0_L1D_prefetch_useless 12560
Core_0_L1D_prefetch_late 14208
Core_0_L1D_prefetch_accuracy 0.766632
Core_0_L1D_prefetch_coverage 0.858224

Core_0_L2C_total_access 3794647
Core_0_L2C_total_hit 2484985
Core_0_L2C_total_miss 1309662
Core_0_L2C_total_MPKI 26.1932
Core_0_L2C_total_miss_rate 0.345134
Core_0_L2C_demand_access 29902
Core_0_L2C_demand_hit 8723
Core_0_L2C_demand_miss 21179
Core_0_L2C_demand_MPKI 0.42358
Core_0_L2C_demand_miss_rate 0.70828
Core_0_L2C_load_access 24743
Core_0_L2C_load_hit 8204
Core_0_L2C_load_miss 16539
Core_0_L2C_load_MPKI 0.33078
Core_0_L2C_load_miss_rate 0.668431
Core_0_L2C_rfo_access 5159
Core_0_L2C_rfo_hit 519
Core_0_L2C_rfo_miss 4640
Core_0_L2C_rfo_MPKI 0.0928
Core_0_L2C_rfo_miss_rate 0.899399
Core_0_L2C_prefetch_access 3752581
Core_0_L2C_prefetch_hit 2466248
Core_0_L2C_prefetch_miss 1286333
Core_0_L2C_prefetch_MPKI 25.7267
Core_0_L2C_prefetch_miss_rate 0.342786
Core_0_L2C_writeback_access 12164
Core_0_L2C_writeback_hit 10014
Core_0_L2C_writeback_miss 2150
Core_0_L2C_writeback_MPKI 0.043
Core_0_L2C_writeback_miss_rate 0.176751
Core_0_L2C_prefetch_requested 3127258
Core_0_L2C_prefetch_issued 3117473
Core_0_L2C_prefetch_useful 570345
Core_0_L2C_prefetch_useless 87592
Core_0_L2C_prefetch_late 699
Core_0_L2C_prefetch_accuracy 0.182951
Core_0_L2C_prefetch_coverage 0.964196

Core_0_LLC_total_access 711240
Core_0_LLC_total_hit 93662
Core_0_LLC_total_miss 617578
Core_0_LLC_total_MPKI 12.3516
Core_0_LLC_total_miss_rate 0.868312
Core_0_LLC_demand_access 20480
Core_0_LLC_demand_hit 2015
Core_0_LLC_demand_miss 18465
Core_0_LLC_demand_MPKI 0.3693
Core_0_LLC_demand_miss_rate 0.901611
Core_0_LLC_load_access 15841
Core_0_LLC_load_hit 1903
Core_0_LLC_load_miss 13938
Core_0_LLC_load_MPKI 0.27876
Core_0_LLC_load_miss_rate 0.879869
Core_0_LLC_rfo_access 4639
Core_0_LLC_rfo_hit 112
Core_0_LLC_rfo_miss 4527
Core_0_LLC_rfo_MPKI 0.09054
Core_0_LLC_rfo_miss_rate 0.975857
Core_0_LLC_prefetch_access 684469
Core_0_LLC_prefetch_hit 87123
Core_0_LLC_prefetch_miss 597346
Core_0_LLC_prefetch_MPKI 11.9469
Core_0_LLC_prefetch_miss_rate 0.872714
Core_0_LLC_writeback_access 6291
Core_0_LLC_writeback_hit 4524
Core_0_LLC_writeback_miss 1767
Core_0_LLC_writeback_MPKI 0.03534
Core_0_LLC_writeback_miss_rate 0.280877
Core_0_LLC_prefetch_requested 0
Core_0_LLC_prefetch_issued 0
Core_0_LLC_prefetch_useful 0
Core_0_LLC_prefetch_useless 0
Core_0_LLC_prefetch_late 0
Core_0_LLC_prefetch_accuracy 0
Core_0_LLC_prefetch_coverage 0

[DRAM Statistics]
Channel_0_RQ_row_buffer_hit 643
Channel_0_RQ_row_buffer_miss 620426
Channel_0_WQ_row_buffer_hit 470
Channel_0_WQ_row_buffer_miss 4514
Channel_0_WQ_full 0
Channel_0_dbus_congested 714261
DRAM_total_RQ_row_buffer_hit 643
DRAM_total_RQ_row_buffer_miss 620426
DRAM_total_WQ_row_buffer_hit 470
DRAM_total_WQ_row_buffer_miss 4514
DRAM_total_WQ_full 0
DRAM_total_dbus_congested 714261
DRAM_avg_congested_cycle 2.92582

======STLB miss causes ========
Core_0_STLB_miss_cause_breakdown
Core_0_STLB_cause_Demand_Data_miss 8534
Core_0_STLB_cause_Demand_Data_miss_rate 0.428306
Core_0_STLB_cause_Demand_Instruction_miss 0
Core_0_STLB_cause_Demand_Instruction_miss_rate 0
Core_0_STLB_cause_L1D_Prefetch_miss 7901
Core_0_STLB_cause_L1D_Prefetch_miss_rate 0.396537
Core_0_STLB_cause_L1I_Prefetch_miss 0
Core_0_STLB_cause_L1I_Prefetch_miss_rate 0
Core_0_STLB_cause_Other_miss 0
Core_0_STLB_cause_Other_miss_rate 0
Core_0_STLB_Demand_miss 8534
Core_0_STLB_Demand_miss_rate 0.428306
Core_0_STLB_L1D_Prefetch_miss 7901
Core_0_STLB_L1D_Prefetch_miss_rate 0.396537
Core_0_STLB_Other_miss 0
Core_0_STLB_Other_miss_rate 0
