[VMEM] WARNING: physical memory size is smaller than virtual memory size.

*** ChampSim Multicore Out-of-Order Simulator ***
Warmup Instructions: 20000000
Simulation Instructions: 50000000
Number of CPUs: 1
Page size: 4096
Core 0: /data0/tzh/champsim_traces/Ligra/ligra_PageRank.com-lj.ungraph.gcc_6.3.0_O3.drop_18500M.length_250M.champsimtrace.xz
 L1D Berti prefetcher
Off-chip DRAM Size: 4 GiB Channels: 1 Width: 64-bit Data Rate: 3205 MT/s
Warmup halting CPU 0 at instruction 20000003 cycle 6295616 for remainder of phase
Warmup finished CPU 0 instructions: 20000003 cycles: 6295616 cumulative IPC: 3.177 (Simulation time: 00 hr 01 min 04 sec)
Warmup complete CPU 0 instructions: 20000003 cycles: 6295616 cumulative IPC: 3.177 (Simulation time: 00 hr 01 min 04 sec)
Simulation finished CPU 0 instructions: 50000000 cycles: 19369941 cumulative IPC: 2.581 (Simulation time: 00 hr 04 min 42 sec)
Simulation complete CPU 0 instructions: 50000000 cycles: 19369941 cumulative IPC: 2.581 (Simulation time: 00 hr 04 min 42 sec)

ChampSim completed all CPUs

=== Simulation ===
CPU 0 runs /data0/tzh/champsim_traces/Ligra/ligra_PageRank.com-lj.ungraph.gcc_6.3.0_O3.drop_18500M.length_250M.champsimtrace.xz

Region of Interest Statistics

CPU 0 cumulative IPC: 2.581 instructions: 50000000 cycles: 19369941
CPU 0 Branch Prediction Accuracy: 98.95% MPKI: 1.068 Average ROB Occupancy at Mispredict: 86.36
Branch type MPKI
BRANCH_DIRECT_JUMP: 2e-05
BRANCH_INDIRECT: 0
BRANCH_CONDITIONAL: 1.067
BRANCH_DIRECT_CALL: 0
BRANCH_INDIRECT_CALL: 0
BRANCH_RETURN: 0.0007

cpu0->cpu0_STLB TOTAL        ACCESS:      17132 HIT:      13149 MISS:       3983 MSHR_MERGE:          0
cpu0->cpu0_STLB LOAD         ACCESS:      17132 HIT:      13149 MISS:       3983 MSHR_MERGE:          0
cpu0->cpu0_STLB RFO          ACCESS:          0 HIT:          0 MISS:          0 MSHR_MERGE:          0
cpu0->cpu0_STLB PREFETCH     ACCESS:          0 HIT:          0 MISS:          0 MSHR_MERGE:          0
cpu0->cpu0_STLB WRITE        ACCESS:          0 HIT:          0 MISS:          0 MSHR_MERGE:          0
cpu0->cpu0_STLB TRANSLATION  ACCESS:          0 HIT:          0 MISS:          0 MSHR_MERGE:          0
cpu0->cpu0_STLB PREFETCH REQUESTED:          0 ISSUED:          0 USEFUL:          0 USELESS:          0 LATE:          0
cpu0->cpu0_STLB AVERAGE MISS LATENCY: 284.9 cycles
cpu0->cpu0_L2C TOTAL        ACCESS:    4120357 HIT:    2482621 MISS:    1637736 MSHR_MERGE:     733745
cpu0->cpu0_L2C LOAD         ACCESS:     418137 HIT:     353284 MISS:      64853 MSHR_MERGE:      25975
cpu0->cpu0_L2C RFO          ACCESS:     556066 HIT:      84735 MISS:     471331 MSHR_MERGE:         44
cpu0->cpu0_L2C PREFETCH     ACCESS:    2586756 HIT:    1485831 MISS:    1100925 MSHR_MERGE:     707726
cpu0->cpu0_L2C WRITE        ACCESS:     558484 HIT:     558450 MISS:         34 MSHR_MERGE:          0
cpu0->cpu0_L2C TRANSLATION  ACCESS:        914 HIT:        321 MISS:        593 MSHR_MERGE:          0
cpu0->cpu0_L2C PREFETCH REQUESTED:    2881383 ISSUED:    2311196 USEFUL:     278043 USELESS:      45347 LATE:      26019
cpu0->cpu0_L2C AVERAGE MISS LATENCY: 175.4 cycles
cpu0->cpu0_L1I TOTAL        ACCESS:    5919004 HIT:    5919003 MISS:          1 MSHR_MERGE:          0
cpu0->cpu0_L1I LOAD         ACCESS:    5919004 HIT:    5919003 MISS:          1 MSHR_MERGE:          0
cpu0->cpu0_L1I RFO          ACCESS:          0 HIT:          0 MISS:          0 MSHR_MERGE:          0
cpu0->cpu0_L1I PREFETCH     ACCESS:          0 HIT:          0 MISS:          0 MSHR_MERGE:          0
cpu0->cpu0_L1I WRITE        ACCESS:          0 HIT:          0 MISS:          0 MSHR_MERGE:          0
cpu0->cpu0_L1I TRANSLATION  ACCESS:          0 HIT:          0 MISS:          0 MSHR_MERGE:          0
cpu0->cpu0_L1I PREFETCH REQUESTED:          0 ISSUED:          0 USEFUL:          0 USELESS:          0 LATE:          0
cpu0->cpu0_L1I AVERAGE MISS LATENCY: 224 cycles
cpu0->cpu0_L1D TOTAL        ACCESS:   13797564 HIT:    9682916 MISS:    4114648 MSHR_MERGE:    2863967
cpu0->cpu0_L1D LOAD         ACCESS:    3582321 HIT:    2916286 MISS:     666035 MSHR_MERGE:     247895
cpu0->cpu0_L1D RFO          ACCESS:          0 HIT:          0 MISS:          0 MSHR_MERGE:          0
cpu0->cpu0_L1D PREFETCH     ACCESS:     399910 HIT:      94385 MISS:     305525 MSHR_MERGE:      29978
cpu0->cpu0_L1D WRITE        ACCESS:    9807716 HIT:    6665878 MISS:    3141838 MSHR_MERGE:    2585758
cpu0->cpu0_L1D TRANSLATION  ACCESS:       7617 HIT:       6367 MISS:       1250 MSHR_MERGE:        336
cpu0->cpu0_L1D PREFETCH REQUESTED:     704907 ISSUED:     399910 USEFUL:     264368 USELESS:      11182 LATE:      37754
cpu0->cpu0_L1D AVERAGE MISS LATENCY: 106.9 cycles
cpu0->cpu0_ITLB TOTAL        ACCESS:    4211260 HIT:    4211260 MISS:          0 MSHR_MERGE:          0
cpu0->cpu0_ITLB LOAD         ACCESS:    4211260 HIT:    4211260 MISS:          0 MSHR_MERGE:          0
cpu0->cpu0_ITLB RFO          ACCESS:          0 HIT:          0 MISS:          0 MSHR_MERGE:          0
cpu0->cpu0_ITLB PREFETCH     ACCESS:          0 HIT:          0 MISS:          0 MSHR_MERGE:          0
cpu0->cpu0_ITLB WRITE        ACCESS:          0 HIT:          0 MISS:          0 MSHR_MERGE:          0
cpu0->cpu0_ITLB TRANSLATION  ACCESS:          0 HIT:          0 MISS:          0 MSHR_MERGE:          0
cpu0->cpu0_ITLB PREFETCH REQUESTED:          0 ISSUED:          0 USEFUL:          0 USELESS:          0 LATE:          0
cpu0->cpu0_ITLB AVERAGE MISS LATENCY: - cycles
cpu0->cpu0_DTLB TOTAL        ACCESS:   12107429 HIT:   12044583 MISS:      62846 MSHR_MERGE:      45714
cpu0->cpu0_DTLB LOAD         ACCESS:   12107429 HIT:   12044583 MISS:      62846 MSHR_MERGE:      45714
cpu0->cpu0_DTLB RFO          ACCESS:          0 HIT:          0 MISS:          0 MSHR_MERGE:          0
cpu0->cpu0_DTLB PREFETCH     ACCESS:          0 HIT:          0 MISS:          0 MSHR_MERGE:          0
cpu0->cpu0_DTLB WRITE        ACCESS:          0 HIT:          0 MISS:          0 MSHR_MERGE:          0
cpu0->cpu0_DTLB TRANSLATION  ACCESS:          0 HIT:          0 MISS:          0 MSHR_MERGE:          0
cpu0->cpu0_DTLB PREFETCH REQUESTED:          0 ISSUED:          0 USEFUL:          0 USELESS:          0 LATE:          0
cpu0->cpu0_DTLB AVERAGE MISS LATENCY: 71.47 cycles
cpu0->LLC TOTAL        ACCESS:    1411087 HIT:    1078261 MISS:     332826 MSHR_MERGE:          0
cpu0->LLC LOAD         ACCESS:      38878 HIT:      33103 MISS:       5775 MSHR_MERGE:          0
cpu0->LLC RFO          ACCESS:     471287 HIT:     301922 MISS:     169365 MSHR_MERGE:          0
cpu0->LLC PREFETCH     ACCESS:     393199 HIT:     272202 MISS:     120997 MSHR_MERGE:          0
cpu0->LLC WRITE        ACCESS:     507130 HIT:     470968 MISS:      36162 MSHR_MERGE:          0
cpu0->LLC TRANSLATION  ACCESS:        593 HIT:         66 MISS:        527 MSHR_MERGE:          0
cpu0->LLC PREFETCH REQUESTED:          0 ISSUED:          0 USEFUL:          0 USELESS:          0 LATE:          0
cpu0->LLC AVERAGE MISS LATENCY: 392.3 cycles

DRAM Statistics

Channel 0 RQ ROW_BUFFER_HIT:      20599
  ROW_BUFFER_MISS:     275881
  AVG DBUS CONGESTED CYCLE: 7.762
Channel 0 WQ ROW_BUFFER_HIT:      37234
  ROW_BUFFER_MISS:     224015
  FULL:        129
Channel 0 REFRESHES ISSUED:       1614

[ROI Statistics]
[System Configuration]
num_cpus 1
cpu_freq 4000
fetch_width 6
decode_width 6
dispatch_width 6
execute_width 6
lq_width 2
sq_width 2
retire_width 6
scheduler_size 160
branch_mispredict_penalty 1
rob_size 352
lq_size 240
sq_size 112
ifetch_buffer_size 64
decode_buffer_size 32
dispatch_buffer_size 32
register_file_size 288
decode_latency 1
dispatch_latency 1
schedule_latency 0
execute_latency 0
page_size 4096
block_size 64
core_0_itlb_set 16
core_0_itlb_way 4
core_0_itlb_rq_size 16
core_0_itlb_wq_size 16
core_0_itlb_pq_size 0
core_0_itlb_mshr_size 8
core_0_itlb_hit_latency 1
core_0_itlb_fill_latency 1
core_0_itlb_max_tag_check 2
core_0_itlb_max_fill 2
core_0_dtlb_set 16
core_0_dtlb_way 4
core_0_dtlb_rq_size 16
core_0_dtlb_wq_size 16
core_0_dtlb_pq_size 0
core_0_dtlb_mshr_size 8
core_0_dtlb_hit_latency 1
core_0_dtlb_fill_latency 1
core_0_dtlb_max_tag_check 2
core_0_dtlb_max_fill 2
core_0_stlb_set 128
core_0_stlb_way 12
core_0_stlb_rq_size 32
core_0_stlb_wq_size 32
core_0_stlb_pq_size 0
core_0_stlb_mshr_size 16
core_0_stlb_hit_latency 4
core_0_stlb_fill_latency 4
core_0_stlb_max_tag_check 1
core_0_stlb_max_fill 1
core_0_l1i_set 64
core_0_l1i_way 8
core_0_l1i_rq_size 64
core_0_l1i_wq_size 64
core_0_l1i_pq_size 32
core_0_l1i_mshr_size 8
core_0_l1i_hit_latency 2
core_0_l1i_fill_latency 2
core_0_l1i_max_tag_check 2
core_0_l1i_max_fill 2
core_0_l1d_set 64
core_0_l1d_way 12
core_0_l1d_rq_size 64
core_0_l1d_wq_size 64
core_0_l1d_pq_size 8
core_0_l1d_mshr_size 16
core_0_l1d_hit_latency 2
core_0_l1d_fill_latency 3
core_0_l1d_max_tag_check 2
core_0_l1d_max_fill 2
core_0_l2c_set 1024
core_0_l2c_way 8
core_0_l2c_rq_size 32
core_0_l2c_wq_size 32
core_0_l2c_pq_size 16
core_0_l2c_mshr_size 32
core_0_l2c_hit_latency 5
core_0_l2c_fill_latency 5
core_0_l2c_max_tag_check 1
core_0_l2c_max_fill 1
llc_set 2048
llc_way 16
llc_rq_size 32
llc_wq_size 32
llc_pq_size 32
llc_mshr_size 64
llc_hit_latency 10
llc_fill_latency 10
llc_max_tag_check 1
llc_max_fill 1
dram_channels 1
dram_ranks 1
dram_bankgroups 8
dram_banks 4
dram_rows 16384
dram_columns 1024
dram_channel_width 8
dram_rq_size 64
dram_wq_size 64
dram_size 4294967296
core_0_itlb_prefetcher no
core_0_dtlb_prefetcher no
core_0_stlb_prefetcher no
core_0_l1i_prefetcher next_line
core_0_l1d_prefetcher berti
core_0_l2c_prefetcher pythia
llc_prefetcher no
llc_replacement drrip

Core_0_instructions 50000000
Core_0_cycles 19369941
Core_0_IPC 2.58132
Core_0_branch_prediction_accuracy 98.9488
Core_0_branch_MPKI 1.06806
Core_0_average_ROB_occupancy_at_mispredict 86.3557

Core_0_ITLB_total_access 4211260
Core_0_ITLB_total_hit 4211260
Core_0_ITLB_total_miss 0
Core_0_ITLB_total_MPKI 0
Core_0_ITLB_total_miss_rate 0
Core_0_ITLB_demand_access 4211260
Core_0_ITLB_demand_hit 4211260
Core_0_ITLB_demand_miss 0
Core_0_ITLB_demand_MPKI 0
Core_0_ITLB_demand_miss_rate 0
Core_0_ITLB_load_access 4211260
Core_0_ITLB_load_hit 4211260
Core_0_ITLB_load_miss 0
Core_0_ITLB_load_MPKI 0
Core_0_ITLB_load_miss_rate 0
Core_0_ITLB_rfo_access 0
Core_0_ITLB_rfo_hit 0
Core_0_ITLB_rfo_miss 0
Core_0_ITLB_rfo_MPKI 0
Core_0_ITLB_rfo_miss_rate 0
Core_0_ITLB_prefetch_access 0
Core_0_ITLB_prefetch_hit 0
Core_0_ITLB_prefetch_miss 0
Core_0_ITLB_prefetch_MPKI 0
Core_0_ITLB_prefetch_miss_rate 0
Core_0_ITLB_writeback_access 0
Core_0_ITLB_writeback_hit 0
Core_0_ITLB_writeback_miss 0
Core_0_ITLB_writeback_MPKI 0
Core_0_ITLB_writeback_miss_rate 0
Core_0_ITLB_prefetch_requested 0
Core_0_ITLB_prefetch_issued 0
Core_0_ITLB_prefetch_useful 0
Core_0_ITLB_prefetch_useless 0
Core_0_ITLB_prefetch_late 0
Core_0_ITLB_prefetch_accuracy 0
Core_0_ITLB_prefetch_coverage 0

Core_0_DTLB_total_access 12107429
Core_0_DTLB_total_hit 12044583
Core_0_DTLB_total_miss 62846
Core_0_DTLB_total_MPKI 1.25692
Core_0_DTLB_total_miss_rate 0.0051907
Core_0_DTLB_demand_access 12107429
Core_0_DTLB_demand_hit 12044583
Core_0_DTLB_demand_miss 62846
Core_0_DTLB_demand_MPKI 1.25692
Core_0_DTLB_demand_miss_rate 0.0051907
Core_0_DTLB_load_access 12107429
Core_0_DTLB_load_hit 12044583
Core_0_DTLB_load_miss 62846
Core_0_DTLB_load_MPKI 1.25692
Core_0_DTLB_load_miss_rate 0.0051907
Core_0_DTLB_rfo_access 0
Core_0_DTLB_rfo_hit 0
Core_0_DTLB_rfo_miss 0
Core_0_DTLB_rfo_MPKI 0
Core_0_DTLB_rfo_miss_rate 0
Core_0_DTLB_prefetch_access 0
Core_0_DTLB_prefetch_hit 0
Core_0_DTLB_prefetch_miss 0
Core_0_DTLB_prefetch_MPKI 0
Core_0_DTLB_prefetch_miss_rate 0
Core_0_DTLB_writeback_access 0
Core_0_DTLB_writeback_hit 0
Core_0_DTLB_writeback_miss 0
Core_0_DTLB_writeback_MPKI 0
Core_0_DTLB_writeback_miss_rate 0
Core_0_DTLB_prefetch_requested 0
Core_0_DTLB_prefetch_issued 0
Core_0_DTLB_prefetch_useful 0
Core_0_DTLB_prefetch_useless 0
Core_0_DTLB_prefetch_late 0
Core_0_DTLB_prefetch_accuracy 0
Core_0_DTLB_prefetch_coverage 0

Core_0_STLB_total_access 17132
Core_0_STLB_total_hit 13149
Core_0_STLB_total_miss 3983
Core_0_STLB_total_MPKI 0.07966
Core_0_STLB_total_miss_rate 0.232489
Core_0_STLB_demand_access 17132
Core_0_STLB_demand_hit 13149
Core_0_STLB_demand_miss 3983
Core_0_STLB_demand_MPKI 0.07966
Core_0_STLB_demand_miss_rate 0.232489
Core_0_STLB_load_access 17132
Core_0_STLB_load_hit 13149
Core_0_STLB_load_miss 3983
Core_0_STLB_load_MPKI 0.07966
Core_0_STLB_load_miss_rate 0.232489
Core_0_STLB_rfo_access 0
Core_0_STLB_rfo_hit 0
Core_0_STLB_rfo_miss 0
Core_0_STLB_rfo_MPKI 0
Core_0_STLB_rfo_miss_rate 0
Core_0_STLB_prefetch_access 0
Core_0_STLB_prefetch_hit 0
Core_0_STLB_prefetch_miss 0
Core_0_STLB_prefetch_MPKI 0
Core_0_STLB_prefetch_miss_rate 0
Core_0_STLB_writeback_access 0
Core_0_STLB_writeback_hit 0
Core_0_STLB_writeback_miss 0
Core_0_STLB_writeback_MPKI 0
Core_0_STLB_writeback_miss_rate 0
Core_0_STLB_prefetch_requested 0
Core_0_STLB_prefetch_issued 0
Core_0_STLB_prefetch_useful 0
Core_0_STLB_prefetch_useless 0
Core_0_STLB_prefetch_late 0
Core_0_STLB_prefetch_accuracy 0
Core_0_STLB_prefetch_coverage 0

Core_0_L1I_total_access 5919004
Core_0_L1I_total_hit 5919003
Core_0_L1I_total_miss 1
Core_0_L1I_total_MPKI 2e-05
Core_0_L1I_total_miss_rate 1.68947e-07
Core_0_L1I_demand_access 5919004
Core_0_L1I_demand_hit 5919003
Core_0_L1I_demand_miss 1
Core_0_L1I_demand_MPKI 2e-05
Core_0_L1I_demand_miss_rate 1.68947e-07
Core_0_L1I_load_access 5919004
Core_0_L1I_load_hit 5919003
Core_0_L1I_load_miss 1
Core_0_L1I_load_MPKI 2e-05
Core_0_L1I_load_miss_rate 1.68947e-07
Core_0_L1I_rfo_access 0
Core_0_L1I_rfo_hit 0
Core_0_L1I_rfo_miss 0
Core_0_L1I_rfo_MPKI 0
Core_0_L1I_rfo_miss_rate 0
Core_0_L1I_prefetch_access 0
Core_0_L1I_prefetch_hit 0
Core_0_L1I_prefetch_miss 0
Core_0_L1I_prefetch_MPKI 0
Core_0_L1I_prefetch_miss_rate 0
Core_0_L1I_writeback_access 0
Core_0_L1I_writeback_hit 0
Core_0_L1I_writeback_miss 0
Core_0_L1I_writeback_MPKI 0
Core_0_L1I_writeback_miss_rate 0
Core_0_L1I_prefetch_requested 0
Core_0_L1I_prefetch_issued 0
Core_0_L1I_prefetch_useful 0
Core_0_L1I_prefetch_useless 0
Core_0_L1I_prefetch_late 0
Core_0_L1I_prefetch_accuracy 0
Core_0_L1I_prefetch_coverage 0

Core_0_L1D_total_access 13789947
Core_0_L1D_total_hit 9676549
Core_0_L1D_total_miss 4113398
Core_0_L1D_total_MPKI 82.268
Core_0_L1D_total_miss_rate 0.29829
Core_0_L1D_demand_access 3582321
Core_0_L1D_demand_hit 2916286
Core_0_L1D_demand_miss 666035
Core_0_L1D_demand_MPKI 13.3207
Core_0_L1D_demand_miss_rate 0.185923
Core_0_L1D_load_access 3582321
Core_0_L1D_load_hit 2916286
Core_0_L1D_load_miss 666035
Core_0_L1D_load_MPKI 13.3207
Core_0_L1D_load_miss_rate 0.185923
Core_0_L1D_rfo_access 0
Core_0_L1D_rfo_hit 0
Core_0_L1D_rfo_miss 0
Core_0_L1D_rfo_MPKI 0
Core_0_L1D_rfo_miss_rate 0
Core_0_L1D_prefetch_access 399910
Core_0_L1D_prefetch_hit 94385
Core_0_L1D_prefetch_miss 305525
Core_0_L1D_prefetch_MPKI 6.1105
Core_0_L1D_prefetch_miss_rate 0.763984
Core_0_L1D_writeback_access 9807716
Core_0_L1D_writeback_hit 6665878
Core_0_L1D_writeback_miss 3141838
Core_0_L1D_writeback_MPKI 62.8368
Core_0_L1D_writeback_miss_rate 0.320343
Core_0_L1D_prefetch_requested 704907
Core_0_L1D_prefetch_issued 399910
Core_0_L1D_prefetch_useful 264368
Core_0_L1D_prefetch_useless 11182
Core_0_L1D_prefetch_late 37754
Core_0_L1D_prefetch_accuracy 0.661069
Core_0_L1D_prefetch_coverage 0.284144

Core_0_L2C_total_access 4119443
Core_0_L2C_total_hit 2482300
Core_0_L2C_total_miss 1637143
Core_0_L2C_total_MPKI 32.7429
Core_0_L2C_total_miss_rate 0.397419
Core_0_L2C_demand_access 974203
Core_0_L2C_demand_hit 438019
Core_0_L2C_demand_miss 536184
Core_0_L2C_demand_MPKI 10.7237
Core_0_L2C_demand_miss_rate 0.550382
Core_0_L2C_load_access 418137
Core_0_L2C_load_hit 353284
Core_0_L2C_load_miss 64853
Core_0_L2C_load_MPKI 1.29706
Core_0_L2C_load_miss_rate 0.1551
Core_0_L2C_rfo_access 556066
Core_0_L2C_rfo_hit 84735
Core_0_L2C_rfo_miss 471331
Core_0_L2C_rfo_MPKI 9.42662
Core_0_L2C_rfo_miss_rate 0.847617
Core_0_L2C_prefetch_access 2586756
Core_0_L2C_prefetch_hit 1485831
Core_0_L2C_prefetch_miss 1100925
Core_0_L2C_prefetch_MPKI 22.0185
Core_0_L2C_prefetch_miss_rate 0.425601
Core_0_L2C_writeback_access 558484
Core_0_L2C_writeback_hit 558450
Core_0_L2C_writeback_miss 34
Core_0_L2C_writeback_MPKI 0.00068
Core_0_L2C_writeback_miss_rate 6.08791e-05
Core_0_L2C_prefetch_requested 2881383
Core_0_L2C_prefetch_issued 2311196
Core_0_L2C_prefetch_useful 278043
Core_0_L2C_prefetch_useless 45347
Core_0_L2C_prefetch_late 26019
Core_0_L2C_prefetch_accuracy 0.120303
Core_0_L2C_prefetch_coverage 0.341481

Core_0_LLC_total_access 1410494
Core_0_LLC_total_hit 1078195
Core_0_LLC_total_miss 332299
Core_0_LLC_total_MPKI 6.64598
Core_0_LLC_total_miss_rate 0.235591
Core_0_LLC_demand_access 510165
Core_0_LLC_demand_hit 335025
Core_0_LLC_demand_miss 175140
Core_0_LLC_demand_MPKI 3.5028
Core_0_LLC_demand_miss_rate 0.343301
Core_0_LLC_load_access 38878
Core_0_LLC_load_hit 33103
Core_0_LLC_load_miss 5775
Core_0_LLC_load_MPKI 0.1155
Core_0_LLC_load_miss_rate 0.148542
Core_0_LLC_rfo_access 471287
Core_0_LLC_rfo_hit 301922
Core_0_LLC_rfo_miss 169365
Core_0_LLC_rfo_MPKI 3.3873
Core_0_LLC_rfo_miss_rate 0.359367
Core_0_LLC_prefetch_access 393199
Core_0_LLC_prefetch_hit 272202
Core_0_LLC_prefetch_miss 120997
Core_0_LLC_prefetch_MPKI 2.41994
Core_0_LLC_prefetch_miss_rate 0.307725
Core_0_LLC_writeback_access 507130
Core_0_LLC_writeback_hit 470968
Core_0_LLC_writeback_miss 36162
Core_0_LLC_writeback_MPKI 0.72324
Core_0_LLC_writeback_miss_rate 0.0713072
Core_0_LLC_prefetch_requested 0
Core_0_LLC_prefetch_issued 0
Core_0_LLC_prefetch_useful 0
Core_0_LLC_prefetch_useless 0
Core_0_LLC_prefetch_late 0
Core_0_LLC_prefetch_accuracy 0
Core_0_LLC_prefetch_coverage 0

[DRAM Statistics]
Channel_0_RQ_row_buffer_hit 20599
Channel_0_RQ_row_buffer_miss 275881
Channel_0_WQ_row_buffer_hit 37234
Channel_0_WQ_row_buffer_miss 224015
Channel_0_WQ_full 129
Channel_0_dbus_congested 2113009
DRAM_total_RQ_row_buffer_hit 20599
DRAM_total_RQ_row_buffer_miss 275881
DRAM_total_WQ_row_buffer_hit 37234
DRAM_total_WQ_row_buffer_miss 224015
DRAM_total_WQ_full 129
DRAM_total_dbus_congested 2113009
DRAM_avg_congested_cycle 7.76178

======STLB miss causes ========
Core_0_STLB_miss_cause_breakdown
Core_0_STLB_cause_Demand_Data_miss 3894
Core_0_STLB_cause_Demand_Data_miss_rate 0.227294
Core_0_STLB_cause_Demand_Instruction_miss 0
Core_0_STLB_cause_Demand_Instruction_miss_rate 0
Core_0_STLB_cause_L1D_Prefetch_miss 89
Core_0_STLB_cause_L1D_Prefetch_miss_rate 0.00519496
Core_0_STLB_cause_L1I_Prefetch_miss 0
Core_0_STLB_cause_L1I_Prefetch_miss_rate 0
Core_0_STLB_cause_Other_miss 0
Core_0_STLB_cause_Other_miss_rate 0
Core_0_STLB_Demand_miss 3894
Core_0_STLB_Demand_miss_rate 0.227294
Core_0_STLB_L1D_Prefetch_miss 89
Core_0_STLB_L1D_Prefetch_miss_rate 0.00519496
Core_0_STLB_Other_miss 0
Core_0_STLB_Other_miss_rate 0
