[VMEM] WARNING: physical memory size is smaller than virtual memory size.

*** ChampSim Multicore Out-of-Order Simulator ***
Warmup Instructions: 20000000
Simulation Instructions: 50000000
Number of CPUs: 1
Page size: 4096
Core 0: /data0/tzh/champsim_traces/Ligra/ligra_MIS.com-lj.ungraph.gcc_6.3.0_O3.drop_17000M.length_250M.champsimtrace.xz
 L1D Berti prefetcher
Off-chip DRAM Size: 4 GiB Channels: 1 Width: 64-bit Data Rate: 3205 MT/s
Warmup halting CPU 0 at instruction 20000004 cycle 6253198 for remainder of phase
Warmup finished CPU 0 instructions: 20000004 cycles: 6253198 cumulative IPC: 3.198 (Simulation time: 00 hr 01 min 06 sec)
Warmup complete CPU 0 instructions: 20000004 cycles: 6253198 cumulative IPC: 3.198 (Simulation time: 00 hr 01 min 06 sec)
Simulation finished CPU 0 instructions: 50000002 cycles: 31662826 cumulative IPC: 1.579 (Simulation time: 00 hr 05 min 59 sec)
Simulation complete CPU 0 instructions: 50000002 cycles: 31662826 cumulative IPC: 1.579 (Simulation time: 00 hr 05 min 59 sec)

ChampSim completed all CPUs

=== Simulation ===
CPU 0 runs /data0/tzh/champsim_traces/Ligra/ligra_MIS.com-lj.ungraph.gcc_6.3.0_O3.drop_17000M.length_250M.champsimtrace.xz

Region of Interest Statistics

CPU 0 cumulative IPC: 1.579 instructions: 50000002 cycles: 31662826
CPU 0 Branch Prediction Accuracy: 99.3% MPKI: 0.6945 Average ROB Occupancy at Mispredict: 200.9
Branch type MPKI
BRANCH_DIRECT_JUMP: 2e-05
BRANCH_INDIRECT: 0
BRANCH_CONDITIONAL: 0.6943
BRANCH_DIRECT_CALL: 4e-05
BRANCH_INDIRECT_CALL: 0
BRANCH_RETURN: 0.00012

cpu0->cpu0_STLB TOTAL        ACCESS:      21990 HIT:      11416 MISS:      10574 MSHR_MERGE:          0
cpu0->cpu0_STLB LOAD         ACCESS:      21990 HIT:      11416 MISS:      10574 MSHR_MERGE:          0
cpu0->cpu0_STLB RFO          ACCESS:          0 HIT:          0 MISS:          0 MSHR_MERGE:          0
cpu0->cpu0_STLB PREFETCH     ACCESS:          0 HIT:          0 MISS:          0 MSHR_MERGE:          0
cpu0->cpu0_STLB WRITE        ACCESS:          0 HIT:          0 MISS:          0 MSHR_MERGE:          0
cpu0->cpu0_STLB TRANSLATION  ACCESS:          0 HIT:          0 MISS:          0 MSHR_MERGE:          0
cpu0->cpu0_STLB PREFETCH REQUESTED:          0 ISSUED:          0 USEFUL:          0 USELESS:          0 LATE:          0
cpu0->cpu0_STLB AVERAGE MISS LATENCY: 191 cycles
cpu0->cpu0_L2C TOTAL        ACCESS:    3968171 HIT:    1511004 MISS:    2457167 MSHR_MERGE:    1561353
cpu0->cpu0_L2C LOAD         ACCESS:     341015 HIT:     242906 MISS:      98109 MSHR_MERGE:      77964
cpu0->cpu0_L2C RFO          ACCESS:     485259 HIT:      34600 MISS:     450659 MSHR_MERGE:         41
cpu0->cpu0_L2C PREFETCH     ACCESS:    2613097 HIT:     706857 MISS:    1906240 MSHR_MERGE:    1483348
cpu0->cpu0_L2C WRITE        ACCESS:     524794 HIT:     524759 MISS:         35 MSHR_MERGE:          0
cpu0->cpu0_L2C TRANSLATION  ACCESS:       4006 HIT:       1882 MISS:       2124 MSHR_MERGE:          0
cpu0->cpu0_L2C PREFETCH REQUESTED:    2484979 ISSUED:    2342467 USEFUL:     295092 USELESS:      94802 LATE:      78005
cpu0->cpu0_L2C AVERAGE MISS LATENCY: 436.8 cycles
cpu0->cpu0_L1I TOTAL        ACCESS:    7024955 HIT:    7024950 MISS:          5 MSHR_MERGE:          2
cpu0->cpu0_L1I LOAD         ACCESS:    7024955 HIT:    7024950 MISS:          5 MSHR_MERGE:          2
cpu0->cpu0_L1I RFO          ACCESS:          0 HIT:          0 MISS:          0 MSHR_MERGE:          0
cpu0->cpu0_L1I PREFETCH     ACCESS:          0 HIT:          0 MISS:          0 MSHR_MERGE:          0
cpu0->cpu0_L1I WRITE        ACCESS:          0 HIT:          0 MISS:          0 MSHR_MERGE:          0
cpu0->cpu0_L1I TRANSLATION  ACCESS:          0 HIT:          0 MISS:          0 MSHR_MERGE:          0
cpu0->cpu0_L1I PREFETCH REQUESTED:          0 ISSUED:          0 USEFUL:          0 USELESS:          0 LATE:          0
cpu0->cpu0_L1I AVERAGE MISS LATENCY: 225.7 cycles
cpu0->cpu0_L1D TOTAL        ACCESS:   14638237 HIT:   10009693 MISS:    4628544 MSHR_MERGE:    3527617
cpu0->cpu0_L1D LOAD         ACCESS:    4118189 HIT:    3459937 MISS:     658252 MSHR_MERGE:     317237
cpu0->cpu0_L1D RFO          ACCESS:          0 HIT:          0 MISS:          0 MSHR_MERGE:          0
cpu0->cpu0_L1D PREFETCH     ACCESS:     458625 HIT:     135244 MISS:     323381 MSHR_MERGE:      52750
cpu0->cpu0_L1D WRITE        ACCESS:   10040983 HIT:    6398842 MISS:    3642141 MSHR_MERGE:    3156866
cpu0->cpu0_L1D TRANSLATION  ACCESS:      20440 HIT:      15670 MISS:       4770 MSHR_MERGE:        764
cpu0->cpu0_L1D PREFETCH REQUESTED:     663104 ISSUED:     458621 USEFUL:     261598 USELESS:       9032 LATE:      76159
cpu0->cpu0_L1D AVERAGE MISS LATENCY: 290.8 cycles
cpu0->cpu0_ITLB TOTAL        ACCESS:    6588437 HIT:    6588437 MISS:          0 MSHR_MERGE:          0
cpu0->cpu0_ITLB LOAD         ACCESS:    6588437 HIT:    6588437 MISS:          0 MSHR_MERGE:          0
cpu0->cpu0_ITLB RFO          ACCESS:          0 HIT:          0 MISS:          0 MSHR_MERGE:          0
cpu0->cpu0_ITLB PREFETCH     ACCESS:          0 HIT:          0 MISS:          0 MSHR_MERGE:          0
cpu0->cpu0_ITLB WRITE        ACCESS:          0 HIT:          0 MISS:          0 MSHR_MERGE:          0
cpu0->cpu0_ITLB TRANSLATION  ACCESS:          0 HIT:          0 MISS:          0 MSHR_MERGE:          0
cpu0->cpu0_ITLB PREFETCH REQUESTED:          0 ISSUED:          0 USEFUL:          0 USELESS:          0 LATE:          0
cpu0->cpu0_ITLB AVERAGE MISS LATENCY: - cycles
cpu0->cpu0_DTLB TOTAL        ACCESS:   13158588 HIT:   13056002 MISS:     102586 MSHR_MERGE:      80596
cpu0->cpu0_DTLB LOAD         ACCESS:   13158588 HIT:   13056002 MISS:     102586 MSHR_MERGE:      80596
cpu0->cpu0_DTLB RFO          ACCESS:          0 HIT:          0 MISS:          0 MSHR_MERGE:          0
cpu0->cpu0_DTLB PREFETCH     ACCESS:          0 HIT:          0 MISS:          0 MSHR_MERGE:          0
cpu0->cpu0_DTLB WRITE        ACCESS:          0 HIT:          0 MISS:          0 MSHR_MERGE:          0
cpu0->cpu0_DTLB TRANSLATION  ACCESS:          0 HIT:          0 MISS:          0 MSHR_MERGE:          0
cpu0->cpu0_DTLB PREFETCH REQUESTED:          0 ISSUED:          0 USEFUL:          0 USELESS:          0 LATE:          0
cpu0->cpu0_DTLB AVERAGE MISS LATENCY: 97.31 cycles
cpu0->LLC TOTAL        ACCESS:    1391599 HIT:     110314 MISS:    1281285 MSHR_MERGE:          0
cpu0->LLC LOAD         ACCESS:      20145 HIT:       1866 MISS:      18279 MSHR_MERGE:          0
cpu0->LLC RFO          ACCESS:     450618 HIT:       3476 MISS:     447142 MSHR_MERGE:          0
cpu0->LLC PREFETCH     ACCESS:     422892 HIT:      25644 MISS:     397248 MSHR_MERGE:          0
cpu0->LLC WRITE        ACCESS:     495820 HIT:      79266 MISS:     416554 MSHR_MERGE:          0
cpu0->LLC TRANSLATION  ACCESS:       2124 HIT:         62 MISS:       2062 MSHR_MERGE:          0
cpu0->LLC PREFETCH REQUESTED:          0 ISSUED:          0 USEFUL:          0 USELESS:          0 LATE:          0
cpu0->LLC AVERAGE MISS LATENCY: 243.7 cycles

DRAM Statistics

Channel 0 RQ ROW_BUFFER_HIT:      64072
  ROW_BUFFER_MISS:     800553
  AVG DBUS CONGESTED CYCLE: 6.9
Channel 0 WQ ROW_BUFFER_HIT:      54792
  ROW_BUFFER_MISS:     440083
  FULL:       3041
Channel 0 REFRESHES ISSUED:       2638

[ROI Statistics]
[System Configuration]
num_cpus 1
cpu_freq 4000
fetch_width 6
decode_width 6
dispatch_width 6
execute_width 6
lq_width 2
sq_width 2
retire_width 6
scheduler_size 160
branch_mispredict_penalty 1
rob_size 352
lq_size 240
sq_size 112
ifetch_buffer_size 64
decode_buffer_size 32
dispatch_buffer_size 32
register_file_size 288
decode_latency 1
dispatch_latency 1
schedule_latency 0
execute_latency 0
page_size 4096
block_size 64
core_0_itlb_set 16
core_0_itlb_way 4
core_0_itlb_rq_size 16
core_0_itlb_wq_size 16
core_0_itlb_pq_size 0
core_0_itlb_mshr_size 8
core_0_itlb_hit_latency 1
core_0_itlb_fill_latency 1
core_0_itlb_max_tag_check 2
core_0_itlb_max_fill 2
core_0_dtlb_set 16
core_0_dtlb_way 4
core_0_dtlb_rq_size 16
core_0_dtlb_wq_size 16
core_0_dtlb_pq_size 0
core_0_dtlb_mshr_size 8
core_0_dtlb_hit_latency 1
core_0_dtlb_fill_latency 1
core_0_dtlb_max_tag_check 2
core_0_dtlb_max_fill 2
core_0_stlb_set 128
core_0_stlb_way 12
core_0_stlb_rq_size 32
core_0_stlb_wq_size 32
core_0_stlb_pq_size 0
core_0_stlb_mshr_size 16
core_0_stlb_hit_latency 4
core_0_stlb_fill_latency 4
core_0_stlb_max_tag_check 1
core_0_stlb_max_fill 1
core_0_l1i_set 64
core_0_l1i_way 8
core_0_l1i_rq_size 64
core_0_l1i_wq_size 64
core_0_l1i_pq_size 32
core_0_l1i_mshr_size 8
core_0_l1i_hit_latency 2
core_0_l1i_fill_latency 2
core_0_l1i_max_tag_check 2
core_0_l1i_max_fill 2
core_0_l1d_set 64
core_0_l1d_way 12
core_0_l1d_rq_size 64
core_0_l1d_wq_size 64
core_0_l1d_pq_size 8
core_0_l1d_mshr_size 16
core_0_l1d_hit_latency 2
core_0_l1d_fill_latency 3
core_0_l1d_max_tag_check 2
core_0_l1d_max_fill 2
core_0_l2c_set 1024
core_0_l2c_way 8
core_0_l2c_rq_size 32
core_0_l2c_wq_size 32
core_0_l2c_pq_size 16
core_0_l2c_mshr_size 32
core_0_l2c_hit_latency 5
core_0_l2c_fill_latency 5
core_0_l2c_max_tag_check 1
core_0_l2c_max_fill 1
llc_set 2048
llc_way 16
llc_rq_size 32
llc_wq_size 32
llc_pq_size 32
llc_mshr_size 64
llc_hit_latency 10
llc_fill_latency 10
llc_max_tag_check 1
llc_max_fill 1
dram_channels 1
dram_ranks 1
dram_bankgroups 8
dram_banks 4
dram_rows 16384
dram_columns 1024
dram_channel_width 8
dram_rq_size 64
dram_wq_size 64
dram_size 4294967296
core_0_itlb_prefetcher no
core_0_dtlb_prefetcher no
core_0_stlb_prefetcher no
core_0_l1i_prefetcher next_line
core_0_l1d_prefetcher berti
core_0_l2c_prefetcher pythia
llc_prefetcher no
llc_replacement drrip

Core_0_instructions 50000002
Core_0_cycles 31662826
Core_0_IPC 1.57914
Core_0_branch_prediction_accuracy 99.3043
Core_0_branch_MPKI 0.6945
Core_0_average_ROB_occupancy_at_mispredict 200.852

Core_0_ITLB_total_access 6588437
Core_0_ITLB_total_hit 6588437
Core_0_ITLB_total_miss 0
Core_0_ITLB_total_MPKI 0
Core_0_ITLB_total_miss_rate 0
Core_0_ITLB_demand_access 6588437
Core_0_ITLB_demand_hit 6588437
Core_0_ITLB_demand_miss 0
Core_0_ITLB_demand_MPKI 0
Core_0_ITLB_demand_miss_rate 0
Core_0_ITLB_load_access 6588437
Core_0_ITLB_load_hit 6588437
Core_0_ITLB_load_miss 0
Core_0_ITLB_load_MPKI 0
Core_0_ITLB_load_miss_rate 0
Core_0_ITLB_rfo_access 0
Core_0_ITLB_rfo_hit 0
Core_0_ITLB_rfo_miss 0
Core_0_ITLB_rfo_MPKI 0
Core_0_ITLB_rfo_miss_rate 0
Core_0_ITLB_prefetch_access 0
Core_0_ITLB_prefetch_hit 0
Core_0_ITLB_prefetch_miss 0
Core_0_ITLB_prefetch_MPKI 0
Core_0_ITLB_prefetch_miss_rate 0
Core_0_ITLB_writeback_access 0
Core_0_ITLB_writeback_hit 0
Core_0_ITLB_writeback_miss 0
Core_0_ITLB_writeback_MPKI 0
Core_0_ITLB_writeback_miss_rate 0
Core_0_ITLB_prefetch_requested 0
Core_0_ITLB_prefetch_issued 0
Core_0_ITLB_prefetch_useful 0
Core_0_ITLB_prefetch_useless 0
Core_0_ITLB_prefetch_late 0
Core_0_ITLB_prefetch_accuracy 0
Core_0_ITLB_prefetch_coverage 0

Core_0_DTLB_total_access 13158588
Core_0_DTLB_total_hit 13056002
Core_0_DTLB_total_miss 102586
Core_0_DTLB_total_MPKI 2.05172
Core_0_DTLB_total_miss_rate 0.00779613
Core_0_DTLB_demand_access 13158588
Core_0_DTLB_demand_hit 13056002
Core_0_DTLB_demand_miss 102586
Core_0_DTLB_demand_MPKI 2.05172
Core_0_DTLB_demand_miss_rate 0.00779613
Core_0_DTLB_load_access 13158588
Core_0_DTLB_load_hit 13056002
Core_0_DTLB_load_miss 102586
Core_0_DTLB_load_MPKI 2.05172
Core_0_DTLB_load_miss_rate 0.00779613
Core_0_DTLB_rfo_access 0
Core_0_DTLB_rfo_hit 0
Core_0_DTLB_rfo_miss 0
Core_0_DTLB_rfo_MPKI 0
Core_0_DTLB_rfo_miss_rate 0
Core_0_DTLB_prefetch_access 0
Core_0_DTLB_prefetch_hit 0
Core_0_DTLB_prefetch_miss 0
Core_0_DTLB_prefetch_MPKI 0
Core_0_DTLB_prefetch_miss_rate 0
Core_0_DTLB_writeback_access 0
Core_0_DTLB_writeback_hit 0
Core_0_DTLB_writeback_miss 0
Core_0_DTLB_writeback_MPKI 0
Core_0_DTLB_writeback_miss_rate 0
Core_0_DTLB_prefetch_requested 0
Core_0_DTLB_prefetch_issued 0
Core_0_DTLB_prefetch_useful 0
Core_0_DTLB_prefetch_useless 0
Core_0_DTLB_prefetch_late 0
Core_0_DTLB_prefetch_accuracy 0
Core_0_DTLB_prefetch_coverage 0

Core_0_STLB_total_access 21990
Core_0_STLB_total_hit 11416
Core_0_STLB_total_miss 10574
Core_0_STLB_total_MPKI 0.21148
Core_0_STLB_total_miss_rate 0.480855
Core_0_STLB_demand_access 21990
Core_0_STLB_demand_hit 11416
Core_0_STLB_demand_miss 10574
Core_0_STLB_demand_MPKI 0.21148
Core_0_STLB_demand_miss_rate 0.480855
Core_0_STLB_load_access 21990
Core_0_STLB_load_hit 11416
Core_0_STLB_load_miss 10574
Core_0_STLB_load_MPKI 0.21148
Core_0_STLB_load_miss_rate 0.480855
Core_0_STLB_rfo_access 0
Core_0_STLB_rfo_hit 0
Core_0_STLB_rfo_miss 0
Core_0_STLB_rfo_MPKI 0
Core_0_STLB_rfo_miss_rate 0
Core_0_STLB_prefetch_access 0
Core_0_STLB_prefetch_hit 0
Core_0_STLB_prefetch_miss 0
Core_0_STLB_prefetch_MPKI 0
Core_0_STLB_prefetch_miss_rate 0
Core_0_STLB_writeback_access 0
Core_0_STLB_writeback_hit 0
Core_0_STLB_writeback_miss 0
Core_0_STLB_writeback_MPKI 0
Core_0_STLB_writeback_miss_rate 0
Core_0_STLB_prefetch_requested 0
Core_0_STLB_prefetch_issued 0
Core_0_STLB_prefetch_useful 0
Core_0_STLB_prefetch_useless 0
Core_0_STLB_prefetch_late 0
Core_0_STLB_prefetch_accuracy 0
Core_0_STLB_prefetch_coverage 0

Core_0_L1I_total_access 7024955
Core_0_L1I_total_hit 7024950
Core_0_L1I_total_miss 5
Core_0_L1I_total_MPKI 0.0001
Core_0_L1I_total_miss_rate 7.11748e-07
Core_0_L1I_demand_access 7024955
Core_0_L1I_demand_hit 7024950
Core_0_L1I_demand_miss 5
Core_0_L1I_demand_MPKI 0.0001
Core_0_L1I_demand_miss_rate 7.11748e-07
Core_0_L1I_load_access 7024955
Core_0_L1I_load_hit 7024950
Core_0_L1I_load_miss 5
Core_0_L1I_load_MPKI 0.0001
Core_0_L1I_load_miss_rate 7.11748e-07
Core_0_L1I_rfo_access 0
Core_0_L1I_rfo_hit 0
Core_0_L1I_rfo_miss 0
Core_0_L1I_rfo_MPKI 0
Core_0_L1I_rfo_miss_rate 0
Core_0_L1I_prefetch_access 0
Core_0_L1I_prefetch_hit 0
Core_0_L1I_prefetch_miss 0
Core_0_L1I_prefetch_MPKI 0
Core_0_L1I_prefetch_miss_rate 0
Core_0_L1I_writeback_access 0
Core_0_L1I_writeback_hit 0
Core_0_L1I_writeback_miss 0
Core_0_L1I_writeback_MPKI 0
Core_0_L1I_writeback_miss_rate 0
Core_0_L1I_prefetch_requested 0
Core_0_L1I_prefetch_issued 0
Core_0_L1I_prefetch_useful 0
Core_0_L1I_prefetch_useless 0
Core_0_L1I_prefetch_late 0
Core_0_L1I_prefetch_accuracy 0
Core_0_L1I_prefetch_coverage 0

Core_0_L1D_total_access 14617797
Core_0_L1D_total_hit 9994023
Core_0_L1D_total_miss 4623774
Core_0_L1D_total_MPKI 92.4755
Core_0_L1D_total_miss_rate 0.316311
Core_0_L1D_demand_access 4118189
Core_0_L1D_demand_hit 3459937
Core_0_L1D_demand_miss 658252
Core_0_L1D_demand_MPKI 13.165
Core_0_L1D_demand_miss_rate 0.15984
Core_0_L1D_load_access 4118189
Core_0_L1D_load_hit 3459937
Core_0_L1D_load_miss 658252
Core_0_L1D_load_MPKI 13.165
Core_0_L1D_load_miss_rate 0.15984
Core_0_L1D_rfo_access 0
Core_0_L1D_rfo_hit 0
Core_0_L1D_rfo_miss 0
Core_0_L1D_rfo_MPKI 0
Core_0_L1D_rfo_miss_rate 0
Core_0_L1D_prefetch_access 458625
Core_0_L1D_prefetch_hit 135244
Core_0_L1D_prefetch_miss 323381
Core_0_L1D_prefetch_MPKI 6.46762
Core_0_L1D_prefetch_miss_rate 0.70511
Core_0_L1D_writeback_access 10040983
Core_0_L1D_writeback_hit 6398842
Core_0_L1D_writeback_miss 3642141
Core_0_L1D_writeback_MPKI 72.8428
Core_0_L1D_writeback_miss_rate 0.362728
Core_0_L1D_prefetch_requested 663104
Core_0_L1D_prefetch_issued 458621
Core_0_L1D_prefetch_useful 261598
Core_0_L1D_prefetch_useless 9032
Core_0_L1D_prefetch_late 76159
Core_0_L1D_prefetch_accuracy 0.570401
Core_0_L1D_prefetch_coverage 0.284392

Core_0_L2C_total_access 3964165
Core_0_L2C_total_hit 1509122
Core_0_L2C_total_miss 2455043
Core_0_L2C_total_MPKI 49.1009
Core_0_L2C_total_miss_rate 0.619309
Core_0_L2C_demand_access 826274
Core_0_L2C_demand_hit 277506
Core_0_L2C_demand_miss 548768
Core_0_L2C_demand_MPKI 10.9754
Core_0_L2C_demand_miss_rate 0.664148
Core_0_L2C_load_access 341015
Core_0_L2C_load_hit 242906
Core_0_L2C_load_miss 98109
Core_0_L2C_load_MPKI 1.96218
Core_0_L2C_load_miss_rate 0.287697
Core_0_L2C_rfo_access 485259
Core_0_L2C_rfo_hit 34600
Core_0_L2C_rfo_miss 450659
Core_0_L2C_rfo_MPKI 9.01318
Core_0_L2C_rfo_miss_rate 0.928698
Core_0_L2C_prefetch_access 2613097
Core_0_L2C_prefetch_hit 706857
Core_0_L2C_prefetch_miss 1906240
Core_0_L2C_prefetch_MPKI 38.1248
Core_0_L2C_prefetch_miss_rate 0.729495
Core_0_L2C_writeback_access 524794
Core_0_L2C_writeback_hit 524759
Core_0_L2C_writeback_miss 35
Core_0_L2C_writeback_MPKI 0.0007
Core_0_L2C_writeback_miss_rate 6.66928e-05
Core_0_L2C_prefetch_requested 2484979
Core_0_L2C_prefetch_issued 2342467
Core_0_L2C_prefetch_useful 295092
Core_0_L2C_prefetch_useless 94802
Core_0_L2C_prefetch_late 78005
Core_0_L2C_prefetch_accuracy 0.125975
Core_0_L2C_prefetch_coverage 0.349693

Core_0_LLC_total_access 1389475
Core_0_LLC_total_hit 110252
Core_0_LLC_total_miss 1279223
Core_0_LLC_total_MPKI 25.5845
Core_0_LLC_total_miss_rate 0.920652
Core_0_LLC_demand_access 470763
Core_0_LLC_demand_hit 5342
Core_0_LLC_demand_miss 465421
Core_0_LLC_demand_MPKI 9.30842
Core_0_LLC_demand_miss_rate 0.988652
Core_0_LLC_load_access 20145
Core_0_LLC_load_hit 1866
Core_0_LLC_load_miss 18279
Core_0_LLC_load_MPKI 0.36558
Core_0_LLC_load_miss_rate 0.907372
Core_0_LLC_rfo_access 450618
Core_0_LLC_rfo_hit 3476
Core_0_LLC_rfo_miss 447142
Core_0_LLC_rfo_MPKI 8.94284
Core_0_LLC_rfo_miss_rate 0.992286
Core_0_LLC_prefetch_access 422892
Core_0_LLC_prefetch_hit 25644
Core_0_LLC_prefetch_miss 397248
Core_0_LLC_prefetch_MPKI 7.94496
Core_0_LLC_prefetch_miss_rate 0.93936
Core_0_LLC_writeback_access 495820
Core_0_LLC_writeback_hit 79266
Core_0_LLC_writeback_miss 416554
Core_0_LLC_writeback_MPKI 8.33108
Core_0_LLC_writeback_miss_rate 0.840131
Core_0_LLC_prefetch_requested 0
Core_0_LLC_prefetch_issued 0
Core_0_LLC_prefetch_useful 0
Core_0_LLC_prefetch_useless 0
Core_0_LLC_prefetch_late 0
Core_0_LLC_prefetch_accuracy 0
Core_0_LLC_prefetch_coverage 0

[DRAM Statistics]
Channel_0_RQ_row_buffer_hit 64072
Channel_0_RQ_row_buffer_miss 800553
Channel_0_WQ_row_buffer_hit 54792
Channel_0_WQ_row_buffer_miss 440083
Channel_0_WQ_full 3041
Channel_0_dbus_congested 4596894
DRAM_total_RQ_row_buffer_hit 64072
DRAM_total_RQ_row_buffer_miss 800553
DRAM_total_WQ_row_buffer_hit 54792
DRAM_total_WQ_row_buffer_miss 440083
DRAM_total_WQ_full 3041
DRAM_total_dbus_congested 4596894
DRAM_avg_congested_cycle 6.90042

======STLB miss causes ========
Core_0_STLB_miss_cause_breakdown
Core_0_STLB_cause_Demand_Data_miss 10115
Core_0_STLB_cause_Demand_Data_miss_rate 0.459982
Core_0_STLB_cause_Demand_Instruction_miss 0
Core_0_STLB_cause_Demand_Instruction_miss_rate 0
Core_0_STLB_cause_L1D_Prefetch_miss 459
Core_0_STLB_cause_L1D_Prefetch_miss_rate 0.0208731
Core_0_STLB_cause_L1I_Prefetch_miss 0
Core_0_STLB_cause_L1I_Prefetch_miss_rate 0
Core_0_STLB_cause_Other_miss 0
Core_0_STLB_cause_Other_miss_rate 0
Core_0_STLB_Demand_miss 10115
Core_0_STLB_Demand_miss_rate 0.459982
Core_0_STLB_L1D_Prefetch_miss 459
Core_0_STLB_L1D_Prefetch_miss_rate 0.0208731
Core_0_STLB_Other_miss 0
Core_0_STLB_Other_miss_rate 0
