[VMEM] WARNING: physical memory size is smaller than virtual memory size.

*** ChampSim Multicore Out-of-Order Simulator ***
Warmup Instructions: 20000000
Simulation Instructions: 50000000
Number of CPUs: 1
Page size: 4096
Core 0: /data0/tzh/champsim_traces/Ligra/ligra_Components-Shortcut.com-lj.ungraph.gcc_6.3.0_O3.drop_17000M.length_250M.champsimtrace.xz
 L1D Berti prefetcher
Off-chip DRAM Size: 4 GiB Channels: 1 Width: 64-bit Data Rate: 3205 MT/s
Warmup halting CPU 0 at instruction 20000005 cycle 6415467 for remainder of phase
Warmup finished CPU 0 instructions: 20000005 cycles: 6415467 cumulative IPC: 3.117 (Simulation time: 00 hr 01 min 11 sec)
Warmup complete CPU 0 instructions: 20000005 cycles: 6415467 cumulative IPC: 3.117 (Simulation time: 00 hr 01 min 11 sec)
Simulation finished CPU 0 instructions: 50000002 cycles: 31689942 cumulative IPC: 1.578 (Simulation time: 00 hr 06 min 12 sec)
Simulation complete CPU 0 instructions: 50000002 cycles: 31689942 cumulative IPC: 1.578 (Simulation time: 00 hr 06 min 12 sec)

ChampSim completed all CPUs

=== Simulation ===
CPU 0 runs /data0/tzh/champsim_traces/Ligra/ligra_Components-Shortcut.com-lj.ungraph.gcc_6.3.0_O3.drop_17000M.length_250M.champsimtrace.xz

Region of Interest Statistics

CPU 0 cumulative IPC: 1.578 instructions: 50000002 cycles: 31689942
CPU 0 Branch Prediction Accuracy: 99.3% MPKI: 0.6965 Average ROB Occupancy at Mispredict: 200
Branch type MPKI
BRANCH_DIRECT_JUMP: 2e-05
BRANCH_INDIRECT: 0
BRANCH_CONDITIONAL: 0.6964
BRANCH_DIRECT_CALL: 4e-05
BRANCH_INDIRECT_CALL: 0
BRANCH_RETURN: 0.0001

cpu0->cpu0_STLB TOTAL        ACCESS:      21909 HIT:      11178 MISS:      10731 MSHR_MERGE:          0
cpu0->cpu0_STLB LOAD         ACCESS:      21909 HIT:      11178 MISS:      10731 MSHR_MERGE:          0
cpu0->cpu0_STLB RFO          ACCESS:          0 HIT:          0 MISS:          0 MSHR_MERGE:          0
cpu0->cpu0_STLB PREFETCH     ACCESS:          0 HIT:          0 MISS:          0 MSHR_MERGE:          0
cpu0->cpu0_STLB WRITE        ACCESS:          0 HIT:          0 MISS:          0 MSHR_MERGE:          0
cpu0->cpu0_STLB TRANSLATION  ACCESS:          0 HIT:          0 MISS:          0 MSHR_MERGE:          0
cpu0->cpu0_STLB PREFETCH REQUESTED:          0 ISSUED:          0 USEFUL:          0 USELESS:          0 LATE:          0
cpu0->cpu0_STLB AVERAGE MISS LATENCY: 191.6 cycles
cpu0->cpu0_L2C TOTAL        ACCESS:    3914113 HIT:    1486609 MISS:    2427504 MSHR_MERGE:    1540158
cpu0->cpu0_L2C LOAD         ACCESS:     331168 HIT:     233478 MISS:      97690 MSHR_MERGE:      77491
cpu0->cpu0_L2C RFO          ACCESS:     480515 HIT:      34191 MISS:     446324 MSHR_MERGE:         39
cpu0->cpu0_L2C PREFETCH     ACCESS:    2567655 HIT:     686375 MISS:    1881280 MSHR_MERGE:    1462628
cpu0->cpu0_L2C WRITE        ACCESS:     530712 HIT:     530689 MISS:         23 MSHR_MERGE:          0
cpu0->cpu0_L2C TRANSLATION  ACCESS:       4063 HIT:       1876 MISS:       2187 MSHR_MERGE:          0
cpu0->cpu0_L2C PREFETCH REQUESTED:    2451913 ISSUED:    2301573 USEFUL:     293505 USELESS:      92722 LATE:      77530
cpu0->cpu0_L2C AVERAGE MISS LATENCY: 441.3 cycles
cpu0->cpu0_L1I TOTAL        ACCESS:    7314581 HIT:    7314579 MISS:          2 MSHR_MERGE:          1
cpu0->cpu0_L1I LOAD         ACCESS:    7314581 HIT:    7314579 MISS:          2 MSHR_MERGE:          1
cpu0->cpu0_L1I RFO          ACCESS:          0 HIT:          0 MISS:          0 MSHR_MERGE:          0
cpu0->cpu0_L1I PREFETCH     ACCESS:          0 HIT:          0 MISS:          0 MSHR_MERGE:          0
cpu0->cpu0_L1I WRITE        ACCESS:          0 HIT:          0 MISS:          0 MSHR_MERGE:          0
cpu0->cpu0_L1I TRANSLATION  ACCESS:          0 HIT:          0 MISS:          0 MSHR_MERGE:          0
cpu0->cpu0_L1I PREFETCH REQUESTED:          0 ISSUED:          0 USEFUL:          0 USELESS:          0 LATE:          0
cpu0->cpu0_L1I AVERAGE MISS LATENCY: 166 cycles
cpu0->cpu0_L1D TOTAL        ACCESS:   14695465 HIT:   10111655 MISS:    4583810 MSHR_MERGE:    3501969
cpu0->cpu0_L1D LOAD         ACCESS:    4295827 HIT:    3648627 MISS:     647200 MSHR_MERGE:     316029
cpu0->cpu0_L1D RFO          ACCESS:          0 HIT:          0 MISS:          0 MSHR_MERGE:          0
cpu0->cpu0_L1D PREFETCH     ACCESS:     449256 HIT:     130892 MISS:     318364 MSHR_MERGE:      52282
cpu0->cpu0_L1D WRITE        ACCESS:    9929621 HIT:    6316198 MISS:    3613423 MSHR_MERGE:    3132898
cpu0->cpu0_L1D TRANSLATION  ACCESS:      20761 HIT:      15938 MISS:       4823 MSHR_MERGE:        760
cpu0->cpu0_L1D PREFETCH REQUESTED:     668394 ISSUED:     449256 USEFUL:     256652 USELESS:       9430 LATE:      74561
cpu0->cpu0_L1D AVERAGE MISS LATENCY: 296.2 cycles
cpu0->cpu0_ITLB TOTAL        ACCESS:    6496268 HIT:    6496268 MISS:          0 MSHR_MERGE:          0
cpu0->cpu0_ITLB LOAD         ACCESS:    6496268 HIT:    6496268 MISS:          0 MSHR_MERGE:          0
cpu0->cpu0_ITLB RFO          ACCESS:          0 HIT:          0 MISS:          0 MSHR_MERGE:          0
cpu0->cpu0_ITLB PREFETCH     ACCESS:          0 HIT:          0 MISS:          0 MSHR_MERGE:          0
cpu0->cpu0_ITLB WRITE        ACCESS:          0 HIT:          0 MISS:          0 MSHR_MERGE:          0
cpu0->cpu0_ITLB TRANSLATION  ACCESS:          0 HIT:          0 MISS:          0 MSHR_MERGE:          0
cpu0->cpu0_ITLB PREFETCH REQUESTED:          0 ISSUED:          0 USEFUL:          0 USELESS:          0 LATE:          0
cpu0->cpu0_ITLB AVERAGE MISS LATENCY: - cycles
cpu0->cpu0_DTLB TOTAL        ACCESS:   13298422 HIT:   13195125 MISS:     103297 MSHR_MERGE:      81388
cpu0->cpu0_DTLB LOAD         ACCESS:   13298422 HIT:   13195125 MISS:     103297 MSHR_MERGE:      81388
cpu0->cpu0_DTLB RFO          ACCESS:          0 HIT:          0 MISS:          0 MSHR_MERGE:          0
cpu0->cpu0_DTLB PREFETCH     ACCESS:          0 HIT:          0 MISS:          0 MSHR_MERGE:          0
cpu0->cpu0_DTLB WRITE        ACCESS:          0 HIT:          0 MISS:          0 MSHR_MERGE:          0
cpu0->cpu0_DTLB TRANSLATION  ACCESS:          0 HIT:          0 MISS:          0 MSHR_MERGE:          0
cpu0->cpu0_DTLB PREFETCH REQUESTED:          0 ISSUED:          0 USEFUL:          0 USELESS:          0 LATE:          0
cpu0->cpu0_DTLB AVERAGE MISS LATENCY: 99.33 cycles
cpu0->LLC TOTAL        ACCESS:    1390970 HIT:     108871 MISS:    1282099 MSHR_MERGE:          0
cpu0->LLC LOAD         ACCESS:      20199 HIT:       1918 MISS:      18281 MSHR_MERGE:          0
cpu0->LLC RFO          ACCESS:     446284 HIT:       1893 MISS:     444391 MSHR_MERGE:          0
cpu0->LLC PREFETCH     ACCESS:     418652 HIT:      25962 MISS:     392690 MSHR_MERGE:          0
cpu0->LLC WRITE        ACCESS:     503648 HIT:      79032 MISS:     424616 MSHR_MERGE:          0
cpu0->LLC TRANSLATION  ACCESS:       2187 HIT:         66 MISS:       2121 MSHR_MERGE:          0
cpu0->LLC PREFETCH REQUESTED:          0 ISSUED:          0 USEFUL:          0 USELESS:          0 LATE:          0
cpu0->LLC AVERAGE MISS LATENCY: 242.9 cycles

DRAM Statistics

Channel 0 RQ ROW_BUFFER_HIT:      63841
  ROW_BUFFER_MISS:     793561
  AVG DBUS CONGESTED CYCLE: 6.944
Channel 0 WQ ROW_BUFFER_HIT:      56452
  ROW_BUFFER_MISS:     447506
  FULL:       3209
Channel 0 REFRESHES ISSUED:       2641

[ROI Statistics]
[System Configuration]
num_cpus 1
cpu_freq 4000
fetch_width 6
decode_width 6
dispatch_width 6
execute_width 6
lq_width 2
sq_width 2
retire_width 6
scheduler_size 160
branch_mispredict_penalty 1
rob_size 352
lq_size 240
sq_size 112
ifetch_buffer_size 64
decode_buffer_size 32
dispatch_buffer_size 32
register_file_size 288
decode_latency 1
dispatch_latency 1
schedule_latency 0
execute_latency 0
page_size 4096
block_size 64
core_0_itlb_set 16
core_0_itlb_way 4
core_0_itlb_rq_size 16
core_0_itlb_wq_size 16
core_0_itlb_pq_size 0
core_0_itlb_mshr_size 8
core_0_itlb_hit_latency 1
core_0_itlb_fill_latency 1
core_0_itlb_max_tag_check 2
core_0_itlb_max_fill 2
core_0_dtlb_set 16
core_0_dtlb_way 4
core_0_dtlb_rq_size 16
core_0_dtlb_wq_size 16
core_0_dtlb_pq_size 0
core_0_dtlb_mshr_size 8
core_0_dtlb_hit_latency 1
core_0_dtlb_fill_latency 1
core_0_dtlb_max_tag_check 2
core_0_dtlb_max_fill 2
core_0_stlb_set 128
core_0_stlb_way 12
core_0_stlb_rq_size 32
core_0_stlb_wq_size 32
core_0_stlb_pq_size 0
core_0_stlb_mshr_size 16
core_0_stlb_hit_latency 4
core_0_stlb_fill_latency 4
core_0_stlb_max_tag_check 1
core_0_stlb_max_fill 1
core_0_l1i_set 64
core_0_l1i_way 8
core_0_l1i_rq_size 64
core_0_l1i_wq_size 64
core_0_l1i_pq_size 32
core_0_l1i_mshr_size 8
core_0_l1i_hit_latency 2
core_0_l1i_fill_latency 2
core_0_l1i_max_tag_check 2
core_0_l1i_max_fill 2
core_0_l1d_set 64
core_0_l1d_way 12
core_0_l1d_rq_size 64
core_0_l1d_wq_size 64
core_0_l1d_pq_size 8
core_0_l1d_mshr_size 16
core_0_l1d_hit_latency 2
core_0_l1d_fill_latency 3
core_0_l1d_max_tag_check 2
core_0_l1d_max_fill 2
core_0_l2c_set 1024
core_0_l2c_way 8
core_0_l2c_rq_size 32
core_0_l2c_wq_size 32
core_0_l2c_pq_size 16
core_0_l2c_mshr_size 32
core_0_l2c_hit_latency 5
core_0_l2c_fill_latency 5
core_0_l2c_max_tag_check 1
core_0_l2c_max_fill 1
llc_set 2048
llc_way 16
llc_rq_size 32
llc_wq_size 32
llc_pq_size 32
llc_mshr_size 64
llc_hit_latency 10
llc_fill_latency 10
llc_max_tag_check 1
llc_max_fill 1
dram_channels 1
dram_ranks 1
dram_bankgroups 8
dram_banks 4
dram_rows 16384
dram_columns 1024
dram_channel_width 8
dram_rq_size 64
dram_wq_size 64
dram_size 4294967296
core_0_itlb_prefetcher no
core_0_dtlb_prefetcher no
core_0_stlb_prefetcher no
core_0_l1i_prefetcher next_line
core_0_l1d_prefetcher berti
core_0_l2c_prefetcher pythia
llc_prefetcher no
llc_replacement drrip

Core_0_instructions 50000002
Core_0_cycles 31689942
Core_0_IPC 1.57779
Core_0_branch_prediction_accuracy 99.3003
Core_0_branch_MPKI 0.69652
Core_0_average_ROB_occupancy_at_mispredict 199.956

Core_0_ITLB_total_access 6496268
Core_0_ITLB_total_hit 6496268
Core_0_ITLB_total_miss 0
Core_0_ITLB_total_MPKI 0
Core_0_ITLB_total_miss_rate 0
Core_0_ITLB_demand_access 6496268
Core_0_ITLB_demand_hit 6496268
Core_0_ITLB_demand_miss 0
Core_0_ITLB_demand_MPKI 0
Core_0_ITLB_demand_miss_rate 0
Core_0_ITLB_load_access 6496268
Core_0_ITLB_load_hit 6496268
Core_0_ITLB_load_miss 0
Core_0_ITLB_load_MPKI 0
Core_0_ITLB_load_miss_rate 0
Core_0_ITLB_rfo_access 0
Core_0_ITLB_rfo_hit 0
Core_0_ITLB_rfo_miss 0
Core_0_ITLB_rfo_MPKI 0
Core_0_ITLB_rfo_miss_rate 0
Core_0_ITLB_prefetch_access 0
Core_0_ITLB_prefetch_hit 0
Core_0_ITLB_prefetch_miss 0
Core_0_ITLB_prefetch_MPKI 0
Core_0_ITLB_prefetch_miss_rate 0
Core_0_ITLB_writeback_access 0
Core_0_ITLB_writeback_hit 0
Core_0_ITLB_writeback_miss 0
Core_0_ITLB_writeback_MPKI 0
Core_0_ITLB_writeback_miss_rate 0
Core_0_ITLB_prefetch_requested 0
Core_0_ITLB_prefetch_issued 0
Core_0_ITLB_prefetch_useful 0
Core_0_ITLB_prefetch_useless 0
Core_0_ITLB_prefetch_late 0
Core_0_ITLB_prefetch_accuracy 0
Core_0_ITLB_prefetch_coverage 0

Core_0_DTLB_total_access 13298422
Core_0_DTLB_total_hit 13195125
Core_0_DTLB_total_miss 103297
Core_0_DTLB_total_MPKI 2.06594
Core_0_DTLB_total_miss_rate 0.00776761
Core_0_DTLB_demand_access 13298422
Core_0_DTLB_demand_hit 13195125
Core_0_DTLB_demand_miss 103297
Core_0_DTLB_demand_MPKI 2.06594
Core_0_DTLB_demand_miss_rate 0.00776761
Core_0_DTLB_load_access 13298422
Core_0_DTLB_load_hit 13195125
Core_0_DTLB_load_miss 103297
Core_0_DTLB_load_MPKI 2.06594
Core_0_DTLB_load_miss_rate 0.00776761
Core_0_DTLB_rfo_access 0
Core_0_DTLB_rfo_hit 0
Core_0_DTLB_rfo_miss 0
Core_0_DTLB_rfo_MPKI 0
Core_0_DTLB_rfo_miss_rate 0
Core_0_DTLB_prefetch_access 0
Core_0_DTLB_prefetch_hit 0
Core_0_DTLB_prefetch_miss 0
Core_0_DTLB_prefetch_MPKI 0
Core_0_DTLB_prefetch_miss_rate 0
Core_0_DTLB_writeback_access 0
Core_0_DTLB_writeback_hit 0
Core_0_DTLB_writeback_miss 0
Core_0_DTLB_writeback_MPKI 0
Core_0_DTLB_writeback_miss_rate 0
Core_0_DTLB_prefetch_requested 0
Core_0_DTLB_prefetch_issued 0
Core_0_DTLB_prefetch_useful 0
Core_0_DTLB_prefetch_useless 0
Core_0_DTLB_prefetch_late 0
Core_0_DTLB_prefetch_accuracy 0
Core_0_DTLB_prefetch_coverage 0

Core_0_STLB_total_access 21909
Core_0_STLB_total_hit 11178
Core_0_STLB_total_miss 10731
Core_0_STLB_total_MPKI 0.21462
Core_0_STLB_total_miss_rate 0.489799
Core_0_STLB_demand_access 21909
Core_0_STLB_demand_hit 11178
Core_0_STLB_demand_miss 10731
Core_0_STLB_demand_MPKI 0.21462
Core_0_STLB_demand_miss_rate 0.489799
Core_0_STLB_load_access 21909
Core_0_STLB_load_hit 11178
Core_0_STLB_load_miss 10731
Core_0_STLB_load_MPKI 0.21462
Core_0_STLB_load_miss_rate 0.489799
Core_0_STLB_rfo_access 0
Core_0_STLB_rfo_hit 0
Core_0_STLB_rfo_miss 0
Core_0_STLB_rfo_MPKI 0
Core_0_STLB_rfo_miss_rate 0
Core_0_STLB_prefetch_access 0
Core_0_STLB_prefetch_hit 0
Core_0_STLB_prefetch_miss 0
Core_0_STLB_prefetch_MPKI 0
Core_0_STLB_prefetch_miss_rate 0
Core_0_STLB_writeback_access 0
Core_0_STLB_writeback_hit 0
Core_0_STLB_writeback_miss 0
Core_0_STLB_writeback_MPKI 0
Core_0_STLB_writeback_miss_rate 0
Core_0_STLB_prefetch_requested 0
Core_0_STLB_prefetch_issued 0
Core_0_STLB_prefetch_useful 0
Core_0_STLB_prefetch_useless 0
Core_0_STLB_prefetch_late 0
Core_0_STLB_prefetch_accuracy 0
Core_0_STLB_prefetch_coverage 0

Core_0_L1I_total_access 7314581
Core_0_L1I_total_hit 7314579
Core_0_L1I_total_miss 2
Core_0_L1I_total_MPKI 4e-05
Core_0_L1I_total_miss_rate 2.73426e-07
Core_0_L1I_demand_access 7314581
Core_0_L1I_demand_hit 7314579
Core_0_L1I_demand_miss 2
Core_0_L1I_demand_MPKI 4e-05
Core_0_L1I_demand_miss_rate 2.73426e-07
Core_0_L1I_load_access 7314581
Core_0_L1I_load_hit 7314579
Core_0_L1I_load_miss 2
Core_0_L1I_load_MPKI 4e-05
Core_0_L1I_load_miss_rate 2.73426e-07
Core_0_L1I_rfo_access 0
Core_0_L1I_rfo_hit 0
Core_0_L1I_rfo_miss 0
Core_0_L1I_rfo_MPKI 0
Core_0_L1I_rfo_miss_rate 0
Core_0_L1I_prefetch_access 0
Core_0_L1I_prefetch_hit 0
Core_0_L1I_prefetch_miss 0
Core_0_L1I_prefetch_MPKI 0
Core_0_L1I_prefetch_miss_rate 0
Core_0_L1I_writeback_access 0
Core_0_L1I_writeback_hit 0
Core_0_L1I_writeback_miss 0
Core_0_L1I_writeback_MPKI 0
Core_0_L1I_writeback_miss_rate 0
Core_0_L1I_prefetch_requested 0
Core_0_L1I_prefetch_issued 0
Core_0_L1I_prefetch_useful 0
Core_0_L1I_prefetch_useless 0
Core_0_L1I_prefetch_late 0
Core_0_L1I_prefetch_accuracy 0
Core_0_L1I_prefetch_coverage 0

Core_0_L1D_total_access 14674704
Core_0_L1D_total_hit 10095717
Core_0_L1D_total_miss 4578987
Core_0_L1D_total_MPKI 91.5797
Core_0_L1D_total_miss_rate 0.312033
Core_0_L1D_demand_access 4295827
Core_0_L1D_demand_hit 3648627
Core_0_L1D_demand_miss 647200
Core_0_L1D_demand_MPKI 12.944
Core_0_L1D_demand_miss_rate 0.150658
Core_0_L1D_load_access 4295827
Core_0_L1D_load_hit 3648627
Core_0_L1D_load_miss 647200
Core_0_L1D_load_MPKI 12.944
Core_0_L1D_load_miss_rate 0.150658
Core_0_L1D_rfo_access 0
Core_0_L1D_rfo_hit 0
Core_0_L1D_rfo_miss 0
Core_0_L1D_rfo_MPKI 0
Core_0_L1D_rfo_miss_rate 0
Core_0_L1D_prefetch_access 449256
Core_0_L1D_prefetch_hit 130892
Core_0_L1D_prefetch_miss 318364
Core_0_L1D_prefetch_MPKI 6.36728
Core_0_L1D_prefetch_miss_rate 0.708647
Core_0_L1D_writeback_access 9929621
Core_0_L1D_writeback_hit 6316198
Core_0_L1D_writeback_miss 3613423
Core_0_L1D_writeback_MPKI 72.2685
Core_0_L1D_writeback_miss_rate 0.363903
Core_0_L1D_prefetch_requested 668394
Core_0_L1D_prefetch_issued 449256
Core_0_L1D_prefetch_useful 256652
Core_0_L1D_prefetch_useless 9430
Core_0_L1D_prefetch_late 74561
Core_0_L1D_prefetch_accuracy 0.571282
Core_0_L1D_prefetch_coverage 0.283954

Core_0_L2C_total_access 3910050
Core_0_L2C_total_hit 1484733
Core_0_L2C_total_miss 2425317
Core_0_L2C_total_MPKI 48.5063
Core_0_L2C_total_miss_rate 0.620278
Core_0_L2C_demand_access 811683
Core_0_L2C_demand_hit 267669
Core_0_L2C_demand_miss 544014
Core_0_L2C_demand_MPKI 10.8803
Core_0_L2C_demand_miss_rate 0.67023
Core_0_L2C_load_access 331168
Core_0_L2C_load_hit 233478
Core_0_L2C_load_miss 97690
Core_0_L2C_load_MPKI 1.9538
Core_0_L2C_load_miss_rate 0.294986
Core_0_L2C_rfo_access 480515
Core_0_L2C_rfo_hit 34191
Core_0_L2C_rfo_miss 446324
Core_0_L2C_rfo_MPKI 8.92648
Core_0_L2C_rfo_miss_rate 0.928845
Core_0_L2C_prefetch_access 2567655
Core_0_L2C_prefetch_hit 686375
Core_0_L2C_prefetch_miss 1881280
Core_0_L2C_prefetch_MPKI 37.6256
Core_0_L2C_prefetch_miss_rate 0.732684
Core_0_L2C_writeback_access 530712
Core_0_L2C_writeback_hit 530689
Core_0_L2C_writeback_miss 23
Core_0_L2C_writeback_MPKI 0.00046
Core_0_L2C_writeback_miss_rate 4.3338e-05
Core_0_L2C_prefetch_requested 2451913
Core_0_L2C_prefetch_issued 2301573
Core_0_L2C_prefetch_useful 293505
Core_0_L2C_prefetch_useless 92722
Core_0_L2C_prefetch_late 77530
Core_0_L2C_prefetch_accuracy 0.127524
Core_0_L2C_prefetch_coverage 0.350446

Core_0_LLC_total_access 1388783
Core_0_LLC_total_hit 108805
Core_0_LLC_total_miss 1279978
Core_0_LLC_total_MPKI 25.5996
Core_0_LLC_total_miss_rate 0.921654
Core_0_LLC_demand_access 466483
Core_0_LLC_demand_hit 3811
Core_0_LLC_demand_miss 462672
Core_0_LLC_demand_MPKI 9.25344
Core_0_LLC_demand_miss_rate 0.99183
Core_0_LLC_load_access 20199
Core_0_LLC_load_hit 1918
Core_0_LLC_load_miss 18281
Core_0_LLC_load_MPKI 0.36562
Core_0_LLC_load_miss_rate 0.905045
Core_0_LLC_rfo_access 446284
Core_0_LLC_rfo_hit 1893
Core_0_LLC_rfo_miss 444391
Core_0_LLC_rfo_MPKI 8.88782
Core_0_LLC_rfo_miss_rate 0.995758
Core_0_LLC_prefetch_access 418652
Core_0_LLC_prefetch_hit 25962
Core_0_LLC_prefetch_miss 392690
Core_0_LLC_prefetch_MPKI 7.8538
Core_0_LLC_prefetch_miss_rate 0.937987
Core_0_LLC_writeback_access 503648
Core_0_LLC_writeback_hit 79032
Core_0_LLC_writeback_miss 424616
Core_0_LLC_writeback_MPKI 8.49232
Core_0_LLC_writeback_miss_rate 0.843081
Core_0_LLC_prefetch_requested 0
Core_0_LLC_prefetch_issued 0
Core_0_LLC_prefetch_useful 0
Core_0_LLC_prefetch_useless 0
Core_0_LLC_prefetch_late 0
Core_0_LLC_prefetch_accuracy 0
Core_0_LLC_prefetch_coverage 0

[DRAM Statistics]
Channel_0_RQ_row_buffer_hit 63841
Channel_0_RQ_row_buffer_miss 793561
Channel_0_WQ_row_buffer_hit 56452
Channel_0_WQ_row_buffer_miss 447506
Channel_0_WQ_full 3209
Channel_0_dbus_congested 4628886
DRAM_total_RQ_row_buffer_hit 63841
DRAM_total_RQ_row_buffer_miss 793561
DRAM_total_WQ_row_buffer_hit 56452
DRAM_total_WQ_row_buffer_miss 447506
DRAM_total_WQ_full 3209
DRAM_total_dbus_congested 4628886
DRAM_avg_congested_cycle 6.94419

======STLB miss causes ========
Core_0_STLB_miss_cause_breakdown
Core_0_STLB_cause_Demand_Data_miss 10267
Core_0_STLB_cause_Demand_Data_miss_rate 0.46862
Core_0_STLB_cause_Demand_Instruction_miss 0
Core_0_STLB_cause_Demand_Instruction_miss_rate 0
Core_0_STLB_cause_L1D_Prefetch_miss 464
Core_0_STLB_cause_L1D_Prefetch_miss_rate 0.0211785
Core_0_STLB_cause_L1I_Prefetch_miss 0
Core_0_STLB_cause_L1I_Prefetch_miss_rate 0
Core_0_STLB_cause_Other_miss 0
Core_0_STLB_cause_Other_miss_rate 0
Core_0_STLB_Demand_miss 10267
Core_0_STLB_Demand_miss_rate 0.46862
Core_0_STLB_L1D_Prefetch_miss 464
Core_0_STLB_L1D_Prefetch_miss_rate 0.0211785
Core_0_STLB_Other_miss 0
Core_0_STLB_Other_miss_rate 0
