[VMEM] WARNING: physical memory size is smaller than virtual memory size.

*** ChampSim Multicore Out-of-Order Simulator ***
Warmup Instructions: 20000000
Simulation Instructions: 50000000
Number of CPUs: 1
Page size: 4096
Core 0: /data0/tzh/champsim_traces/Ligra/ligra_Components.com-lj.ungraph.gcc_6.3.0_O3.drop_15750M.length_250M.champsimtrace.xz
 L1D Berti prefetcher
Off-chip DRAM Size: 4 GiB Channels: 1 Width: 64-bit Data Rate: 3205 MT/s
Warmup halting CPU 0 at instruction 20000001 cycle 5789155 for remainder of phase
Warmup finished CPU 0 instructions: 20000001 cycles: 5789155 cumulative IPC: 3.455 (Simulation time: 00 hr 01 min 02 sec)
Warmup complete CPU 0 instructions: 20000001 cycles: 5789155 cumulative IPC: 3.455 (Simulation time: 00 hr 01 min 02 sec)
Simulation finished CPU 0 instructions: 50000002 cycles: 37352926 cumulative IPC: 1.339 (Simulation time: 00 hr 06 min 05 sec)
Simulation complete CPU 0 instructions: 50000002 cycles: 37352926 cumulative IPC: 1.339 (Simulation time: 00 hr 06 min 05 sec)

ChampSim completed all CPUs

=== Simulation ===
CPU 0 runs /data0/tzh/champsim_traces/Ligra/ligra_Components.com-lj.ungraph.gcc_6.3.0_O3.drop_15750M.length_250M.champsimtrace.xz

Region of Interest Statistics

CPU 0 cumulative IPC: 1.339 instructions: 50000002 cycles: 37352926
CPU 0 Branch Prediction Accuracy: 92.53% MPKI: 8.804 Average ROB Occupancy at Mispredict: 74.28
Branch type MPKI
BRANCH_DIRECT_JUMP: 0
BRANCH_INDIRECT: 0
BRANCH_CONDITIONAL: 8.804
BRANCH_DIRECT_CALL: 0
BRANCH_INDIRECT_CALL: 0
BRANCH_RETURN: 0

cpu0->cpu0_STLB TOTAL        ACCESS:      17699 HIT:          0 MISS:      17699 MSHR_MERGE:          0
cpu0->cpu0_STLB LOAD         ACCESS:      17699 HIT:          0 MISS:      17699 MSHR_MERGE:          0
cpu0->cpu0_STLB RFO          ACCESS:          0 HIT:          0 MISS:          0 MSHR_MERGE:          0
cpu0->cpu0_STLB PREFETCH     ACCESS:          0 HIT:          0 MISS:          0 MSHR_MERGE:          0
cpu0->cpu0_STLB WRITE        ACCESS:          0 HIT:          0 MISS:          0 MSHR_MERGE:          0
cpu0->cpu0_STLB TRANSLATION  ACCESS:          0 HIT:          0 MISS:          0 MSHR_MERGE:          0
cpu0->cpu0_STLB PREFETCH REQUESTED:          0 ISSUED:          0 USEFUL:          0 USELESS:          0 LATE:          0
cpu0->cpu0_STLB AVERAGE MISS LATENCY: 280.2 cycles
cpu0->cpu0_L2C TOTAL        ACCESS:    4359798 HIT:    1671398 MISS:    2688400 MSHR_MERGE:    1553387
cpu0->cpu0_L2C LOAD         ACCESS:      26951 HIT:      13015 MISS:      13936 MSHR_MERGE:       4069
cpu0->cpu0_L2C RFO          ACCESS:     624000 HIT:          0 MISS:     624000 MSHR_MERGE:          0
cpu0->cpu0_L2C PREFETCH     ACCESS:    3082063 HIT:    1033851 MISS:    2048212 MSHR_MERGE:    1549318
cpu0->cpu0_L2C WRITE        ACCESS:     624065 HIT:     624065 MISS:          0 MSHR_MERGE:          0
cpu0->cpu0_L2C TRANSLATION  ACCESS:       2719 HIT:        467 MISS:       2252 MSHR_MERGE:          0
cpu0->cpu0_L2C PREFETCH REQUESTED:    2616279 ISSUED:    2600249 USEFUL:     318889 USELESS:     146022 LATE:       4069
cpu0->cpu0_L2C AVERAGE MISS LATENCY: 545.8 cycles
cpu0->cpu0_L1I TOTAL        ACCESS:     295782 HIT:     295782 MISS:          0 MSHR_MERGE:          0
cpu0->cpu0_L1I LOAD         ACCESS:     295782 HIT:     295782 MISS:          0 MSHR_MERGE:          0
cpu0->cpu0_L1I RFO          ACCESS:          0 HIT:          0 MISS:          0 MSHR_MERGE:          0
cpu0->cpu0_L1I PREFETCH     ACCESS:          0 HIT:          0 MISS:          0 MSHR_MERGE:          0
cpu0->cpu0_L1I WRITE        ACCESS:          0 HIT:          0 MISS:          0 MSHR_MERGE:          0
cpu0->cpu0_L1I TRANSLATION  ACCESS:          0 HIT:          0 MISS:          0 MSHR_MERGE:          0
cpu0->cpu0_L1I PREFETCH REQUESTED:          0 ISSUED:          0 USEFUL:          0 USELESS:          0 LATE:          0
cpu0->cpu0_L1I AVERAGE MISS LATENCY: - cycles
cpu0->cpu0_L1D TOTAL        ACCESS:   14410145 HIT:    3728450 MISS:   10681695 MSHR_MERGE:    9546208
cpu0->cpu0_L1D LOAD         ACCESS:    3886434 HIT:    3623279 MISS:     263155 MSHR_MERGE:     236204
cpu0->cpu0_L1D RFO          ACCESS:          0 HIT:          0 MISS:          0 MSHR_MERGE:          0
cpu0->cpu0_L1D PREFETCH     ACCESS:     504278 HIT:      11472 MISS:     492806 MSHR_MERGE:      10989
cpu0->cpu0_L1D WRITE        ACCESS:    9984000 HIT:      60985 MISS:    9923015 MSHR_MERGE:    9299015
cpu0->cpu0_L1D TRANSLATION  ACCESS:      35433 HIT:      32714 MISS:       2719 MSHR_MERGE:          0
cpu0->cpu0_L1D PREFETCH REQUESTED:     505715 ISSUED:     504270 USEFUL:     481804 USELESS:          1 LATE:      27651
cpu0->cpu0_L1D AVERAGE MISS LATENCY: 533.7 cycles
cpu0->cpu0_ITLB TOTAL        ACCESS:     295781 HIT:     295781 MISS:          0 MSHR_MERGE:          0
cpu0->cpu0_ITLB LOAD         ACCESS:     295781 HIT:     295781 MISS:          0 MSHR_MERGE:          0
cpu0->cpu0_ITLB RFO          ACCESS:          0 HIT:          0 MISS:          0 MSHR_MERGE:          0
cpu0->cpu0_ITLB PREFETCH     ACCESS:          0 HIT:          0 MISS:          0 MSHR_MERGE:          0
cpu0->cpu0_ITLB WRITE        ACCESS:          0 HIT:          0 MISS:          0 MSHR_MERGE:          0
cpu0->cpu0_ITLB TRANSLATION  ACCESS:          0 HIT:          0 MISS:          0 MSHR_MERGE:          0
cpu0->cpu0_ITLB PREFETCH REQUESTED:          0 ISSUED:          0 USEFUL:          0 USELESS:          0 LATE:          0
cpu0->cpu0_ITLB AVERAGE MISS LATENCY: - cycles
cpu0->cpu0_DTLB TOTAL        ACCESS:   12780647 HIT:   12555228 MISS:     225419 MSHR_MERGE:     207720
cpu0->cpu0_DTLB LOAD         ACCESS:   12780647 HIT:   12555228 MISS:     225419 MSHR_MERGE:     207720
cpu0->cpu0_DTLB RFO          ACCESS:          0 HIT:          0 MISS:          0 MSHR_MERGE:          0
cpu0->cpu0_DTLB PREFETCH     ACCESS:          0 HIT:          0 MISS:          0 MSHR_MERGE:          0
cpu0->cpu0_DTLB WRITE        ACCESS:          0 HIT:          0 MISS:          0 MSHR_MERGE:          0
cpu0->cpu0_DTLB TRANSLATION  ACCESS:          0 HIT:          0 MISS:          0 MSHR_MERGE:          0
cpu0->cpu0_DTLB PREFETCH REQUESTED:          0 ISSUED:          0 USEFUL:          0 USELESS:          0 LATE:          0
cpu0->cpu0_DTLB AVERAGE MISS LATENCY: 286.2 cycles
cpu0->LLC TOTAL        ACCESS:    1760772 HIT:     509528 MISS:    1251244 MSHR_MERGE:          0
cpu0->LLC LOAD         ACCESS:       9867 HIT:          0 MISS:       9867 MSHR_MERGE:          0
cpu0->LLC RFO          ACCESS:     624000 HIT:          0 MISS:     624000 MSHR_MERGE:          0
cpu0->LLC PREFETCH     ACCESS:     498893 HIT:          0 MISS:     498893 MSHR_MERGE:          0
cpu0->LLC WRITE        ACCESS:     625760 HIT:     509523 MISS:     116237 MSHR_MERGE:          0
cpu0->LLC TRANSLATION  ACCESS:       2252 HIT:          5 MISS:       2247 MSHR_MERGE:          0
cpu0->LLC PREFETCH REQUESTED:          0 ISSUED:          0 USEFUL:          0 USELESS:          0 LATE:          0
cpu0->LLC AVERAGE MISS LATENCY: 450.3 cycles

DRAM Statistics

Channel 0 RQ ROW_BUFFER_HIT:      72534
  ROW_BUFFER_MISS:    1062457
  AVG DBUS CONGESTED CYCLE: 6.711
Channel 0 WQ ROW_BUFFER_HIT:      51236
  ROW_BUFFER_MISS:     573896
  FULL:          0
Channel 0 REFRESHES ISSUED:       3113

[ROI Statistics]
[System Configuration]
num_cpus 1
cpu_freq 4000
fetch_width 6
decode_width 6
dispatch_width 6
execute_width 6
lq_width 2
sq_width 2
retire_width 6
scheduler_size 160
branch_mispredict_penalty 1
rob_size 352
lq_size 240
sq_size 112
ifetch_buffer_size 64
decode_buffer_size 32
dispatch_buffer_size 32
register_file_size 288
decode_latency 1
dispatch_latency 1
schedule_latency 0
execute_latency 0
page_size 4096
block_size 64
core_0_itlb_set 16
core_0_itlb_way 4
core_0_itlb_rq_size 16
core_0_itlb_wq_size 16
core_0_itlb_pq_size 0
core_0_itlb_mshr_size 8
core_0_itlb_hit_latency 1
core_0_itlb_fill_latency 1
core_0_itlb_max_tag_check 2
core_0_itlb_max_fill 2
core_0_dtlb_set 16
core_0_dtlb_way 4
core_0_dtlb_rq_size 16
core_0_dtlb_wq_size 16
core_0_dtlb_pq_size 0
core_0_dtlb_mshr_size 8
core_0_dtlb_hit_latency 1
core_0_dtlb_fill_latency 1
core_0_dtlb_max_tag_check 2
core_0_dtlb_max_fill 2
core_0_stlb_set 128
core_0_stlb_way 12
core_0_stlb_rq_size 32
core_0_stlb_wq_size 32
core_0_stlb_pq_size 0
core_0_stlb_mshr_size 16
core_0_stlb_hit_latency 4
core_0_stlb_fill_latency 4
core_0_stlb_max_tag_check 1
core_0_stlb_max_fill 1
core_0_l1i_set 64
core_0_l1i_way 8
core_0_l1i_rq_size 64
core_0_l1i_wq_size 64
core_0_l1i_pq_size 32
core_0_l1i_mshr_size 8
core_0_l1i_hit_latency 2
core_0_l1i_fill_latency 2
core_0_l1i_max_tag_check 2
core_0_l1i_max_fill 2
core_0_l1d_set 64
core_0_l1d_way 12
core_0_l1d_rq_size 64
core_0_l1d_wq_size 64
core_0_l1d_pq_size 8
core_0_l1d_mshr_size 16
core_0_l1d_hit_latency 2
core_0_l1d_fill_latency 3
core_0_l1d_max_tag_check 2
core_0_l1d_max_fill 2
core_0_l2c_set 1024
core_0_l2c_way 8
core_0_l2c_rq_size 32
core_0_l2c_wq_size 32
core_0_l2c_pq_size 16
core_0_l2c_mshr_size 32
core_0_l2c_hit_latency 5
core_0_l2c_fill_latency 5
core_0_l2c_max_tag_check 1
core_0_l2c_max_fill 1
llc_set 2048
llc_way 16
llc_rq_size 32
llc_wq_size 32
llc_pq_size 32
llc_mshr_size 64
llc_hit_latency 10
llc_fill_latency 10
llc_max_tag_check 1
llc_max_fill 1
dram_channels 1
dram_ranks 1
dram_bankgroups 8
dram_banks 4
dram_rows 16384
dram_columns 1024
dram_channel_width 8
dram_rq_size 64
dram_wq_size 64
dram_size 4294967296
core_0_itlb_prefetcher no
core_0_dtlb_prefetcher no
core_0_stlb_prefetcher no
core_0_l1i_prefetcher next_line
core_0_l1d_prefetcher berti
core_0_l2c_prefetcher pythia
llc_prefetcher no
llc_replacement drrip

Core_0_instructions 50000002
Core_0_cycles 37352926
Core_0_IPC 1.33858
Core_0_branch_prediction_accuracy 92.5281
Core_0_branch_MPKI 8.804
Core_0_average_ROB_occupancy_at_mispredict 74.2841

Core_0_ITLB_total_access 295781
Core_0_ITLB_total_hit 295781
Core_0_ITLB_total_miss 0
Core_0_ITLB_total_MPKI 0
Core_0_ITLB_total_miss_rate 0
Core_0_ITLB_demand_access 295781
Core_0_ITLB_demand_hit 295781
Core_0_ITLB_demand_miss 0
Core_0_ITLB_demand_MPKI 0
Core_0_ITLB_demand_miss_rate 0
Core_0_ITLB_load_access 295781
Core_0_ITLB_load_hit 295781
Core_0_ITLB_load_miss 0
Core_0_ITLB_load_MPKI 0
Core_0_ITLB_load_miss_rate 0
Core_0_ITLB_rfo_access 0
Core_0_ITLB_rfo_hit 0
Core_0_ITLB_rfo_miss 0
Core_0_ITLB_rfo_MPKI 0
Core_0_ITLB_rfo_miss_rate 0
Core_0_ITLB_prefetch_access 0
Core_0_ITLB_prefetch_hit 0
Core_0_ITLB_prefetch_miss 0
Core_0_ITLB_prefetch_MPKI 0
Core_0_ITLB_prefetch_miss_rate 0
Core_0_ITLB_writeback_access 0
Core_0_ITLB_writeback_hit 0
Core_0_ITLB_writeback_miss 0
Core_0_ITLB_writeback_MPKI 0
Core_0_ITLB_writeback_miss_rate 0
Core_0_ITLB_prefetch_requested 0
Core_0_ITLB_prefetch_issued 0
Core_0_ITLB_prefetch_useful 0
Core_0_ITLB_prefetch_useless 0
Core_0_ITLB_prefetch_late 0
Core_0_ITLB_prefetch_accuracy 0
Core_0_ITLB_prefetch_coverage 0

Core_0_DTLB_total_access 12780647
Core_0_DTLB_total_hit 12555228
Core_0_DTLB_total_miss 225419
Core_0_DTLB_total_MPKI 4.50838
Core_0_DTLB_total_miss_rate 0.0176375
Core_0_DTLB_demand_access 12780647
Core_0_DTLB_demand_hit 12555228
Core_0_DTLB_demand_miss 225419
Core_0_DTLB_demand_MPKI 4.50838
Core_0_DTLB_demand_miss_rate 0.0176375
Core_0_DTLB_load_access 12780647
Core_0_DTLB_load_hit 12555228
Core_0_DTLB_load_miss 225419
Core_0_DTLB_load_MPKI 4.50838
Core_0_DTLB_load_miss_rate 0.0176375
Core_0_DTLB_rfo_access 0
Core_0_DTLB_rfo_hit 0
Core_0_DTLB_rfo_miss 0
Core_0_DTLB_rfo_MPKI 0
Core_0_DTLB_rfo_miss_rate 0
Core_0_DTLB_prefetch_access 0
Core_0_DTLB_prefetch_hit 0
Core_0_DTLB_prefetch_miss 0
Core_0_DTLB_prefetch_MPKI 0
Core_0_DTLB_prefetch_miss_rate 0
Core_0_DTLB_writeback_access 0
Core_0_DTLB_writeback_hit 0
Core_0_DTLB_writeback_miss 0
Core_0_DTLB_writeback_MPKI 0
Core_0_DTLB_writeback_miss_rate 0
Core_0_DTLB_prefetch_requested 0
Core_0_DTLB_prefetch_issued 0
Core_0_DTLB_prefetch_useful 0
Core_0_DTLB_prefetch_useless 0
Core_0_DTLB_prefetch_late 0
Core_0_DTLB_prefetch_accuracy 0
Core_0_DTLB_prefetch_coverage 0

Core_0_STLB_total_access 17699
Core_0_STLB_total_hit 0
Core_0_STLB_total_miss 17699
Core_0_STLB_total_MPKI 0.35398
Core_0_STLB_total_miss_rate 1
Core_0_STLB_demand_access 17699
Core_0_STLB_demand_hit 0
Core_0_STLB_demand_miss 17699
Core_0_STLB_demand_MPKI 0.35398
Core_0_STLB_demand_miss_rate 1
Core_0_STLB_load_access 17699
Core_0_STLB_load_hit 0
Core_0_STLB_load_miss 17699
Core_0_STLB_load_MPKI 0.35398
Core_0_STLB_load_miss_rate 1
Core_0_STLB_rfo_access 0
Core_0_STLB_rfo_hit 0
Core_0_STLB_rfo_miss 0
Core_0_STLB_rfo_MPKI 0
Core_0_STLB_rfo_miss_rate 0
Core_0_STLB_prefetch_access 0
Core_0_STLB_prefetch_hit 0
Core_0_STLB_prefetch_miss 0
Core_0_STLB_prefetch_MPKI 0
Core_0_STLB_prefetch_miss_rate 0
Core_0_STLB_writeback_access 0
Core_0_STLB_writeback_hit 0
Core_0_STLB_writeback_miss 0
Core_0_STLB_writeback_MPKI 0
Core_0_STLB_writeback_miss_rate 0
Core_0_STLB_prefetch_requested 0
Core_0_STLB_prefetch_issued 0
Core_0_STLB_prefetch_useful 0
Core_0_STLB_prefetch_useless 0
Core_0_STLB_prefetch_late 0
Core_0_STLB_prefetch_accuracy 0
Core_0_STLB_prefetch_coverage 0

Core_0_L1I_total_access 295782
Core_0_L1I_total_hit 295782
Core_0_L1I_total_miss 0
Core_0_L1I_total_MPKI 0
Core_0_L1I_total_miss_rate 0
Core_0_L1I_demand_access 295782
Core_0_L1I_demand_hit 295782
Core_0_L1I_demand_miss 0
Core_0_L1I_demand_MPKI 0
Core_0_L1I_demand_miss_rate 0
Core_0_L1I_load_access 295782
Core_0_L1I_load_hit 295782
Core_0_L1I_load_miss 0
Core_0_L1I_load_MPKI 0
Core_0_L1I_load_miss_rate 0
Core_0_L1I_rfo_access 0
Core_0_L1I_rfo_hit 0
Core_0_L1I_rfo_miss 0
Core_0_L1I_rfo_MPKI 0
Core_0_L1I_rfo_miss_rate 0
Core_0_L1I_prefetch_access 0
Core_0_L1I_prefetch_hit 0
Core_0_L1I_prefetch_miss 0
Core_0_L1I_prefetch_MPKI 0
Core_0_L1I_prefetch_miss_rate 0
Core_0_L1I_writeback_access 0
Core_0_L1I_writeback_hit 0
Core_0_L1I_writeback_miss 0
Core_0_L1I_writeback_MPKI 0
Core_0_L1I_writeback_miss_rate 0
Core_0_L1I_prefetch_requested 0
Core_0_L1I_prefetch_issued 0
Core_0_L1I_prefetch_useful 0
Core_0_L1I_prefetch_useless 0
Core_0_L1I_prefetch_late 0
Core_0_L1I_prefetch_accuracy 0
Core_0_L1I_prefetch_coverage 0

Core_0_L1D_total_access 14374712
Core_0_L1D_total_hit 3695736
Core_0_L1D_total_miss 10678976
Core_0_L1D_total_MPKI 213.58
Core_0_L1D_total_miss_rate 0.7429
Core_0_L1D_demand_access 3886434
Core_0_L1D_demand_hit 3623279
Core_0_L1D_demand_miss 263155
Core_0_L1D_demand_MPKI 5.2631
Core_0_L1D_demand_miss_rate 0.0677112
Core_0_L1D_load_access 3886434
Core_0_L1D_load_hit 3623279
Core_0_L1D_load_miss 263155
Core_0_L1D_load_MPKI 5.2631
Core_0_L1D_load_miss_rate 0.0677112
Core_0_L1D_rfo_access 0
Core_0_L1D_rfo_hit 0
Core_0_L1D_rfo_miss 0
Core_0_L1D_rfo_MPKI 0
Core_0_L1D_rfo_miss_rate 0
Core_0_L1D_prefetch_access 504278
Core_0_L1D_prefetch_hit 11472
Core_0_L1D_prefetch_miss 492806
Core_0_L1D_prefetch_MPKI 9.85612
Core_0_L1D_prefetch_miss_rate 0.977251
Core_0_L1D_writeback_access 9984000
Core_0_L1D_writeback_hit 60985
Core_0_L1D_writeback_miss 9923015
Core_0_L1D_writeback_MPKI 198.46
Core_0_L1D_writeback_miss_rate 0.993892
Core_0_L1D_prefetch_requested 505715
Core_0_L1D_prefetch_issued 504270
Core_0_L1D_prefetch_useful 481804
Core_0_L1D_prefetch_useless 1
Core_0_L1D_prefetch_late 27651
Core_0_L1D_prefetch_accuracy 0.955448
Core_0_L1D_prefetch_coverage 0.646752

Core_0_L2C_total_access 4357079
Core_0_L2C_total_hit 1670931
Core_0_L2C_total_miss 2686148
Core_0_L2C_total_MPKI 53.723
Core_0_L2C_total_miss_rate 0.616502
Core_0_L2C_demand_access 650951
Core_0_L2C_demand_hit 13015
Core_0_L2C_demand_miss 637936
Core_0_L2C_demand_MPKI 12.7587
Core_0_L2C_demand_miss_rate 0.980006
Core_0_L2C_load_access 26951
Core_0_L2C_load_hit 13015
Core_0_L2C_load_miss 13936
Core_0_L2C_load_MPKI 0.27872
Core_0_L2C_load_miss_rate 0.517087
Core_0_L2C_rfo_access 624000
Core_0_L2C_rfo_hit 0
Core_0_L2C_rfo_miss 624000
Core_0_L2C_rfo_MPKI 12.48
Core_0_L2C_rfo_miss_rate 1
Core_0_L2C_prefetch_access 3082063
Core_0_L2C_prefetch_hit 1033851
Core_0_L2C_prefetch_miss 2048212
Core_0_L2C_prefetch_MPKI 40.9642
Core_0_L2C_prefetch_miss_rate 0.664559
Core_0_L2C_writeback_access 624065
Core_0_L2C_writeback_hit 624065
Core_0_L2C_writeback_miss 0
Core_0_L2C_writeback_MPKI 0
Core_0_L2C_writeback_miss_rate 0
Core_0_L2C_prefetch_requested 2616279
Core_0_L2C_prefetch_issued 2600249
Core_0_L2C_prefetch_useful 318889
Core_0_L2C_prefetch_useless 146022
Core_0_L2C_prefetch_late 4069
Core_0_L2C_prefetch_accuracy 0.122638
Core_0_L2C_prefetch_coverage 0.333278

Core_0_LLC_total_access 1758520
Core_0_LLC_total_hit 509523
Core_0_LLC_total_miss 1248997
Core_0_LLC_total_MPKI 24.9799
Core_0_LLC_total_miss_rate 0.710255
Core_0_LLC_demand_access 633867
Core_0_LLC_demand_hit 0
Core_0_LLC_demand_miss 633867
Core_0_LLC_demand_MPKI 12.6773
Core_0_LLC_demand_miss_rate 1
Core_0_LLC_load_access 9867
Core_0_LLC_load_hit 0
Core_0_LLC_load_miss 9867
Core_0_LLC_load_MPKI 0.19734
Core_0_LLC_load_miss_rate 1
Core_0_LLC_rfo_access 624000
Core_0_LLC_rfo_hit 0
Core_0_LLC_rfo_miss 624000
Core_0_LLC_rfo_MPKI 12.48
Core_0_LLC_rfo_miss_rate 1
Core_0_LLC_prefetch_access 498893
Core_0_LLC_prefetch_hit 0
Core_0_LLC_prefetch_miss 498893
Core_0_LLC_prefetch_MPKI 9.97786
Core_0_LLC_prefetch_miss_rate 1
Core_0_LLC_writeback_access 625760
Core_0_LLC_writeback_hit 509523
Core_0_LLC_writeback_miss 116237
Core_0_LLC_writeback_MPKI 2.32474
Core_0_LLC_writeback_miss_rate 0.185753
Core_0_LLC_prefetch_requested 0
Core_0_LLC_prefetch_issued 0
Core_0_LLC_prefetch_useful 0
Core_0_LLC_prefetch_useless 0
Core_0_LLC_prefetch_late 0
Core_0_LLC_prefetch_accuracy 0
Core_0_LLC_prefetch_coverage 0

[DRAM Statistics]
Channel_0_RQ_row_buffer_hit 72534
Channel_0_RQ_row_buffer_miss 1062457
Channel_0_WQ_row_buffer_hit 51236
Channel_0_WQ_row_buffer_miss 573896
Channel_0_WQ_full 0
Channel_0_dbus_congested 6243029
DRAM_total_RQ_row_buffer_hit 72534
DRAM_total_RQ_row_buffer_miss 1062457
DRAM_total_WQ_row_buffer_hit 51236
DRAM_total_WQ_row_buffer_miss 573896
DRAM_total_WQ_full 0
DRAM_total_dbus_congested 6243029
DRAM_avg_congested_cycle 6.71058

======STLB miss causes ========
Core_0_STLB_miss_cause_breakdown
Core_0_STLB_cause_Demand_Data_miss 17338
Core_0_STLB_cause_Demand_Data_miss_rate 0.979603
Core_0_STLB_cause_Demand_Instruction_miss 0
Core_0_STLB_cause_Demand_Instruction_miss_rate 0
Core_0_STLB_cause_L1D_Prefetch_miss 361
Core_0_STLB_cause_L1D_Prefetch_miss_rate 0.0203966
Core_0_STLB_cause_L1I_Prefetch_miss 0
Core_0_STLB_cause_L1I_Prefetch_miss_rate 0
Core_0_STLB_cause_Other_miss 0
Core_0_STLB_cause_Other_miss_rate 0
Core_0_STLB_Demand_miss 17338
Core_0_STLB_Demand_miss_rate 0.979603
Core_0_STLB_L1D_Prefetch_miss 361
Core_0_STLB_L1D_Prefetch_miss_rate 0.0203966
Core_0_STLB_Other_miss 0
Core_0_STLB_Other_miss_rate 0
