[VMEM] WARNING: physical memory size is smaller than virtual memory size.

*** ChampSim Multicore Out-of-Order Simulator ***
Warmup Instructions: 20000000
Simulation Instructions: 50000000
Number of CPUs: 1
Page size: 4096
STLB ideal mode: demand
Core 0: /data0/tzh/champsim_traces/SPEC06/401.bzip2-277B.champsimtrace.xz
 L1D Berti prefetcher
Off-chip DRAM Size: 4 GiB Channels: 1 Width: 64-bit Data Rate: 3205 MT/s
Warmup halting CPU 0 at instruction 20000001 cycle 4110285 for remainder of phase
Warmup finished CPU 0 instructions: 20000001 cycles: 4110285 cumulative IPC: 4.866 (Simulation time: 00 hr 00 min 53 sec)
Warmup complete CPU 0 instructions: 20000001 cycles: 4110285 cumulative IPC: 4.866 (Simulation time: 00 hr 00 min 53 sec)
Simulation finished CPU 0 instructions: 50000005 cycles: 28043006 cumulative IPC: 1.783 (Simulation time: 00 hr 04 min 28 sec)
Simulation complete CPU 0 instructions: 50000005 cycles: 28043006 cumulative IPC: 1.783 (Simulation time: 00 hr 04 min 28 sec)

ChampSim completed all CPUs

=== Simulation ===
CPU 0 runs /data0/tzh/champsim_traces/SPEC06/401.bzip2-277B.champsimtrace.xz

Region of Interest Statistics

CPU 0 cumulative IPC: 1.783 instructions: 50000005 cycles: 28043006
CPU 0 Branch Prediction Accuracy: 89.8% MPKI: 16.13 Average ROB Occupancy at Mispredict: 24.82
Branch type MPKI
BRANCH_DIRECT_JUMP: 0.04232
BRANCH_INDIRECT: 0.00032
BRANCH_CONDITIONAL: 16.08
BRANCH_DIRECT_CALL: 0
BRANCH_INDIRECT_CALL: 0
BRANCH_RETURN: 0

cpu0->cpu0_STLB TOTAL        ACCESS:       9120 HIT:       9093 MISS:         27 MSHR_MERGE:          0
cpu0->cpu0_STLB LOAD         ACCESS:       9120 HIT:       9093 MISS:         27 MSHR_MERGE:          0
cpu0->cpu0_STLB RFO          ACCESS:          0 HIT:          0 MISS:          0 MSHR_MERGE:          0
cpu0->cpu0_STLB PREFETCH     ACCESS:          0 HIT:          0 MISS:          0 MSHR_MERGE:          0
cpu0->cpu0_STLB WRITE        ACCESS:          0 HIT:          0 MISS:          0 MSHR_MERGE:          0
cpu0->cpu0_STLB TRANSLATION  ACCESS:          0 HIT:          0 MISS:          0 MSHR_MERGE:          0
cpu0->cpu0_STLB PREFETCH REQUESTED:          0 ISSUED:          0 USEFUL:          0 USELESS:          0 LATE:          0
cpu0->cpu0_STLB AVERAGE MISS LATENCY: 258.6 cycles
cpu0->cpu0_L2C TOTAL        ACCESS:     590209 HIT:     388971 MISS:     201238 MSHR_MERGE:      83564
cpu0->cpu0_L2C LOAD         ACCESS:      20365 HIT:      14865 MISS:       5500 MSHR_MERGE:        263
cpu0->cpu0_L2C RFO          ACCESS:      44612 HIT:       1998 MISS:      42614 MSHR_MERGE:          0
cpu0->cpu0_L2C PREFETCH     ACCESS:     432608 HIT:     279524 MISS:     153084 MSHR_MERGE:      83301
cpu0->cpu0_L2C WRITE        ACCESS:      92597 HIT:      92563 MISS:         34 MSHR_MERGE:          0
cpu0->cpu0_L2C TRANSLATION  ACCESS:         27 HIT:         21 MISS:          6 MSHR_MERGE:          0
cpu0->cpu0_L2C PREFETCH REQUESTED:     359591 ISSUED:     355871 USEFUL:      60263 USELESS:       6342 LATE:        263
cpu0->cpu0_L2C AVERAGE MISS LATENCY: 93.94 cycles
cpu0->cpu0_L1I TOTAL        ACCESS:    1461341 HIT:    1461334 MISS:          7 MSHR_MERGE:          0
cpu0->cpu0_L1I LOAD         ACCESS:    1461341 HIT:    1461334 MISS:          7 MSHR_MERGE:          0
cpu0->cpu0_L1I RFO          ACCESS:          0 HIT:          0 MISS:          0 MSHR_MERGE:          0
cpu0->cpu0_L1I PREFETCH     ACCESS:          0 HIT:          0 MISS:          0 MSHR_MERGE:          0
cpu0->cpu0_L1I WRITE        ACCESS:          0 HIT:          0 MISS:          0 MSHR_MERGE:          0
cpu0->cpu0_L1I TRANSLATION  ACCESS:          0 HIT:          0 MISS:          0 MSHR_MERGE:          0
cpu0->cpu0_L1I PREFETCH REQUESTED:          0 ISSUED:          0 USEFUL:          0 USELESS:          0 LATE:          0
cpu0->cpu0_L1I AVERAGE MISS LATENCY: 201.9 cycles
cpu0->cpu0_L1D TOTAL        ACCESS:   15029763 HIT:   14561588 MISS:     468175 MSHR_MERGE:     326440
cpu0->cpu0_L1D LOAD         ACCESS:    8764889 HIT:    8717686 MISS:      47203 MSHR_MERGE:      26844
cpu0->cpu0_L1D RFO          ACCESS:          0 HIT:          0 MISS:          0 MSHR_MERGE:          0
cpu0->cpu0_L1D PREFETCH     ACCESS:      97139 HIT:      19232 MISS:      77907 MSHR_MERGE:       1170
cpu0->cpu0_L1D WRITE        ACCESS:    6167681 HIT:    5824643 MISS:     343038 MSHR_MERGE:     298426
cpu0->cpu0_L1D TRANSLATION  ACCESS:         54 HIT:         27 MISS:         27 MSHR_MERGE:          0
cpu0->cpu0_L1D PREFETCH REQUESTED:      97881 ISSUED:      97139 USEFUL:      73590 USELESS:       3056 LATE:       3667
cpu0->cpu0_L1D AVERAGE MISS LATENCY: 78.95 cycles
cpu0->cpu0_ITLB TOTAL        ACCESS:    1433761 HIT:    1433761 MISS:          0 MSHR_MERGE:          0
cpu0->cpu0_ITLB LOAD         ACCESS:    1433761 HIT:    1433761 MISS:          0 MSHR_MERGE:          0
cpu0->cpu0_ITLB RFO          ACCESS:          0 HIT:          0 MISS:          0 MSHR_MERGE:          0
cpu0->cpu0_ITLB PREFETCH     ACCESS:          0 HIT:          0 MISS:          0 MSHR_MERGE:          0
cpu0->cpu0_ITLB WRITE        ACCESS:          0 HIT:          0 MISS:          0 MSHR_MERGE:          0
cpu0->cpu0_ITLB TRANSLATION  ACCESS:          0 HIT:          0 MISS:          0 MSHR_MERGE:          0
cpu0->cpu0_ITLB PREFETCH REQUESTED:          0 ISSUED:          0 USEFUL:          0 USELESS:          0 LATE:          0
cpu0->cpu0_ITLB AVERAGE MISS LATENCY: - cycles
cpu0->cpu0_DTLB TOTAL        ACCESS:   14215757 HIT:   14204865 MISS:      10892 MSHR_MERGE:       1772
cpu0->cpu0_DTLB LOAD         ACCESS:   14215757 HIT:   14204865 MISS:      10892 MSHR_MERGE:       1772
cpu0->cpu0_DTLB RFO          ACCESS:          0 HIT:          0 MISS:          0 MSHR_MERGE:          0
cpu0->cpu0_DTLB PREFETCH     ACCESS:          0 HIT:          0 MISS:          0 MSHR_MERGE:          0
cpu0->cpu0_DTLB WRITE        ACCESS:          0 HIT:          0 MISS:          0 MSHR_MERGE:          0
cpu0->cpu0_DTLB TRANSLATION  ACCESS:          0 HIT:          0 MISS:          0 MSHR_MERGE:          0
cpu0->cpu0_DTLB PREFETCH REQUESTED:          0 ISSUED:          0 USEFUL:          0 USELESS:          0 LATE:          0
cpu0->cpu0_DTLB AVERAGE MISS LATENCY: 5.77 cycles
cpu0->LLC TOTAL        ACCESS:     202281 HIT:     119303 MISS:      82978 MSHR_MERGE:          0
cpu0->LLC LOAD         ACCESS:       5237 HIT:       3189 MISS:       2048 MSHR_MERGE:          0
cpu0->LLC RFO          ACCESS:      42614 HIT:      20941 MISS:      21673 MSHR_MERGE:          0
cpu0->LLC PREFETCH     ACCESS:      69783 HIT:      33713 MISS:      36070 MSHR_MERGE:          0
cpu0->LLC WRITE        ACCESS:      84641 HIT:      61460 MISS:      23181 MSHR_MERGE:          0
cpu0->LLC TRANSLATION  ACCESS:          6 HIT:          0 MISS:          6 MSHR_MERGE:          0
cpu0->LLC PREFETCH REQUESTED:          0 ISSUED:          0 USEFUL:          0 USELESS:          0 LATE:          0
cpu0->LLC AVERAGE MISS LATENCY: 84.34 cycles

DRAM Statistics

Channel 0 RQ ROW_BUFFER_HIT:       3105
  ROW_BUFFER_MISS:      56624
  AVG DBUS CONGESTED CYCLE: 8.199
Channel 0 WQ ROW_BUFFER_HIT:       5421
  ROW_BUFFER_MISS:      31875
  FULL:          0
Channel 0 REFRESHES ISSUED:       2337

[ROI Statistics]
[System Configuration]
num_cpus 1
cpu_freq 4000
fetch_width 6
decode_width 6
dispatch_width 6
execute_width 6
lq_width 2
sq_width 2
retire_width 6
scheduler_size 160
branch_mispredict_penalty 1
rob_size 352
lq_size 240
sq_size 112
ifetch_buffer_size 64
decode_buffer_size 32
dispatch_buffer_size 32
register_file_size 288
decode_latency 1
dispatch_latency 1
schedule_latency 0
execute_latency 0
page_size 4096
block_size 64
core_0_itlb_set 16
core_0_itlb_way 4
core_0_itlb_rq_size 16
core_0_itlb_wq_size 16
core_0_itlb_pq_size 0
core_0_itlb_mshr_size 8
core_0_itlb_hit_latency 1
core_0_itlb_fill_latency 1
core_0_itlb_max_tag_check 2
core_0_itlb_max_fill 2
core_0_dtlb_set 16
core_0_dtlb_way 4
core_0_dtlb_rq_size 16
core_0_dtlb_wq_size 16
core_0_dtlb_pq_size 0
core_0_dtlb_mshr_size 8
core_0_dtlb_hit_latency 1
core_0_dtlb_fill_latency 1
core_0_dtlb_max_tag_check 2
core_0_dtlb_max_fill 2
core_0_stlb_set 128
core_0_stlb_way 12
core_0_stlb_rq_size 32
core_0_stlb_wq_size 32
core_0_stlb_pq_size 0
core_0_stlb_mshr_size 16
core_0_stlb_hit_latency 4
core_0_stlb_fill_latency 4
core_0_stlb_max_tag_check 1
core_0_stlb_max_fill 1
core_0_l1i_set 64
core_0_l1i_way 8
core_0_l1i_rq_size 64
core_0_l1i_wq_size 64
core_0_l1i_pq_size 32
core_0_l1i_mshr_size 8
core_0_l1i_hit_latency 2
core_0_l1i_fill_latency 2
core_0_l1i_max_tag_check 2
core_0_l1i_max_fill 2
core_0_l1d_set 64
core_0_l1d_way 12
core_0_l1d_rq_size 64
core_0_l1d_wq_size 64
core_0_l1d_pq_size 8
core_0_l1d_mshr_size 16
core_0_l1d_hit_latency 2
core_0_l1d_fill_latency 3
core_0_l1d_max_tag_check 2
core_0_l1d_max_fill 2
core_0_l2c_set 1024
core_0_l2c_way 8
core_0_l2c_rq_size 32
core_0_l2c_wq_size 32
core_0_l2c_pq_size 16
core_0_l2c_mshr_size 32
core_0_l2c_hit_latency 5
core_0_l2c_fill_latency 5
core_0_l2c_max_tag_check 1
core_0_l2c_max_fill 1
llc_set 2048
llc_way 16
llc_rq_size 32
llc_wq_size 32
llc_pq_size 32
llc_mshr_size 64
llc_hit_latency 10
llc_fill_latency 10
llc_max_tag_check 1
llc_max_fill 1
dram_channels 1
dram_ranks 1
dram_bankgroups 8
dram_banks 4
dram_rows 16384
dram_columns 1024
dram_channel_width 8
dram_rq_size 64
dram_wq_size 64
dram_size 4294967296
core_0_itlb_prefetcher no
core_0_dtlb_prefetcher no
core_0_stlb_prefetcher no
core_0_l1i_prefetcher next_line
core_0_l1d_prefetcher berti
core_0_l2c_prefetcher pythia
llc_prefetcher no
llc_replacement drrip

Core_0_instructions 50000005
Core_0_cycles 28043006
Core_0_IPC 1.78298
Core_0_branch_prediction_accuracy 89.7989
Core_0_branch_MPKI 16.1257
Core_0_average_ROB_occupancy_at_mispredict 24.8241

Core_0_ITLB_total_access 1433761
Core_0_ITLB_total_hit 1433761
Core_0_ITLB_total_miss 0
Core_0_ITLB_total_MPKI 0
Core_0_ITLB_total_miss_rate 0
Core_0_ITLB_demand_access 1433761
Core_0_ITLB_demand_hit 1433761
Core_0_ITLB_demand_miss 0
Core_0_ITLB_demand_MPKI 0
Core_0_ITLB_demand_miss_rate 0
Core_0_ITLB_load_access 1433761
Core_0_ITLB_load_hit 1433761
Core_0_ITLB_load_miss 0
Core_0_ITLB_load_MPKI 0
Core_0_ITLB_load_miss_rate 0
Core_0_ITLB_rfo_access 0
Core_0_ITLB_rfo_hit 0
Core_0_ITLB_rfo_miss 0
Core_0_ITLB_rfo_MPKI 0
Core_0_ITLB_rfo_miss_rate 0
Core_0_ITLB_prefetch_access 0
Core_0_ITLB_prefetch_hit 0
Core_0_ITLB_prefetch_miss 0
Core_0_ITLB_prefetch_MPKI 0
Core_0_ITLB_prefetch_miss_rate 0
Core_0_ITLB_writeback_access 0
Core_0_ITLB_writeback_hit 0
Core_0_ITLB_writeback_miss 0
Core_0_ITLB_writeback_MPKI 0
Core_0_ITLB_writeback_miss_rate 0
Core_0_ITLB_prefetch_requested 0
Core_0_ITLB_prefetch_issued 0
Core_0_ITLB_prefetch_useful 0
Core_0_ITLB_prefetch_useless 0
Core_0_ITLB_prefetch_late 0
Core_0_ITLB_prefetch_accuracy 0
Core_0_ITLB_prefetch_coverage 0

Core_0_DTLB_total_access 14215757
Core_0_DTLB_total_hit 14204865
Core_0_DTLB_total_miss 10892
Core_0_DTLB_total_MPKI 0.21784
Core_0_DTLB_total_miss_rate 0.000766192
Core_0_DTLB_demand_access 14215757
Core_0_DTLB_demand_hit 14204865
Core_0_DTLB_demand_miss 10892
Core_0_DTLB_demand_MPKI 0.21784
Core_0_DTLB_demand_miss_rate 0.000766192
Core_0_DTLB_load_access 14215757
Core_0_DTLB_load_hit 14204865
Core_0_DTLB_load_miss 10892
Core_0_DTLB_load_MPKI 0.21784
Core_0_DTLB_load_miss_rate 0.000766192
Core_0_DTLB_rfo_access 0
Core_0_DTLB_rfo_hit 0
Core_0_DTLB_rfo_miss 0
Core_0_DTLB_rfo_MPKI 0
Core_0_DTLB_rfo_miss_rate 0
Core_0_DTLB_prefetch_access 0
Core_0_DTLB_prefetch_hit 0
Core_0_DTLB_prefetch_miss 0
Core_0_DTLB_prefetch_MPKI 0
Core_0_DTLB_prefetch_miss_rate 0
Core_0_DTLB_writeback_access 0
Core_0_DTLB_writeback_hit 0
Core_0_DTLB_writeback_miss 0
Core_0_DTLB_writeback_MPKI 0
Core_0_DTLB_writeback_miss_rate 0
Core_0_DTLB_prefetch_requested 0
Core_0_DTLB_prefetch_issued 0
Core_0_DTLB_prefetch_useful 0
Core_0_DTLB_prefetch_useless 0
Core_0_DTLB_prefetch_late 0
Core_0_DTLB_prefetch_accuracy 0
Core_0_DTLB_prefetch_coverage 0

Core_0_STLB_total_access 9120
Core_0_STLB_total_hit 9093
Core_0_STLB_total_miss 27
Core_0_STLB_total_MPKI 0.00054
Core_0_STLB_total_miss_rate 0.00296053
Core_0_STLB_demand_access 9120
Core_0_STLB_demand_hit 9093
Core_0_STLB_demand_miss 27
Core_0_STLB_demand_MPKI 0.00054
Core_0_STLB_demand_miss_rate 0.00296053
Core_0_STLB_load_access 9120
Core_0_STLB_load_hit 9093
Core_0_STLB_load_miss 27
Core_0_STLB_load_MPKI 0.00054
Core_0_STLB_load_miss_rate 0.00296053
Core_0_STLB_rfo_access 0
Core_0_STLB_rfo_hit 0
Core_0_STLB_rfo_miss 0
Core_0_STLB_rfo_MPKI 0
Core_0_STLB_rfo_miss_rate 0
Core_0_STLB_prefetch_access 0
Core_0_STLB_prefetch_hit 0
Core_0_STLB_prefetch_miss 0
Core_0_STLB_prefetch_MPKI 0
Core_0_STLB_prefetch_miss_rate 0
Core_0_STLB_writeback_access 0
Core_0_STLB_writeback_hit 0
Core_0_STLB_writeback_miss 0
Core_0_STLB_writeback_MPKI 0
Core_0_STLB_writeback_miss_rate 0
Core_0_STLB_prefetch_requested 0
Core_0_STLB_prefetch_issued 0
Core_0_STLB_prefetch_useful 0
Core_0_STLB_prefetch_useless 0
Core_0_STLB_prefetch_late 0
Core_0_STLB_prefetch_accuracy 0
Core_0_STLB_prefetch_coverage 0

Core_0_L1I_total_access 1461341
Core_0_L1I_total_hit 1461334
Core_0_L1I_total_miss 7
Core_0_L1I_total_MPKI 0.00014
Core_0_L1I_total_miss_rate 4.79012e-06
Core_0_L1I_demand_access 1461341
Core_0_L1I_demand_hit 1461334
Core_0_L1I_demand_miss 7
Core_0_L1I_demand_MPKI 0.00014
Core_0_L1I_demand_miss_rate 4.79012e-06
Core_0_L1I_load_access 1461341
Core_0_L1I_load_hit 1461334
Core_0_L1I_load_miss 7
Core_0_L1I_load_MPKI 0.00014
Core_0_L1I_load_miss_rate 4.79012e-06
Core_0_L1I_rfo_access 0
Core_0_L1I_rfo_hit 0
Core_0_L1I_rfo_miss 0
Core_0_L1I_rfo_MPKI 0
Core_0_L1I_rfo_miss_rate 0
Core_0_L1I_prefetch_access 0
Core_0_L1I_prefetch_hit 0
Core_0_L1I_prefetch_miss 0
Core_0_L1I_prefetch_MPKI 0
Core_0_L1I_prefetch_miss_rate 0
Core_0_L1I_writeback_access 0
Core_0_L1I_writeback_hit 0
Core_0_L1I_writeback_miss 0
Core_0_L1I_writeback_MPKI 0
Core_0_L1I_writeback_miss_rate 0
Core_0_L1I_prefetch_requested 0
Core_0_L1I_prefetch_issued 0
Core_0_L1I_prefetch_useful 0
Core_0_L1I_prefetch_useless 0
Core_0_L1I_prefetch_late 0
Core_0_L1I_prefetch_accuracy 0
Core_0_L1I_prefetch_coverage 0

Core_0_L1D_total_access 15029709
Core_0_L1D_total_hit 14561561
Core_0_L1D_total_miss 468148
Core_0_L1D_total_MPKI 9.36296
Core_0_L1D_total_miss_rate 0.0311482
Core_0_L1D_demand_access 8764889
Core_0_L1D_demand_hit 8717686
Core_0_L1D_demand_miss 47203
Core_0_L1D_demand_MPKI 0.94406
Core_0_L1D_demand_miss_rate 0.00538546
Core_0_L1D_load_access 8764889
Core_0_L1D_load_hit 8717686
Core_0_L1D_load_miss 47203
Core_0_L1D_load_MPKI 0.94406
Core_0_L1D_load_miss_rate 0.00538546
Core_0_L1D_rfo_access 0
Core_0_L1D_rfo_hit 0
Core_0_L1D_rfo_miss 0
Core_0_L1D_rfo_MPKI 0
Core_0_L1D_rfo_miss_rate 0
Core_0_L1D_prefetch_access 97139
Core_0_L1D_prefetch_hit 19232
Core_0_L1D_prefetch_miss 77907
Core_0_L1D_prefetch_MPKI 1.55814
Core_0_L1D_prefetch_miss_rate 0.802016
Core_0_L1D_writeback_access 6167681
Core_0_L1D_writeback_hit 5824643
Core_0_L1D_writeback_miss 343038
Core_0_L1D_writeback_MPKI 6.86076
Core_0_L1D_writeback_miss_rate 0.0556186
Core_0_L1D_prefetch_requested 97881
Core_0_L1D_prefetch_issued 97139
Core_0_L1D_prefetch_useful 73590
Core_0_L1D_prefetch_useless 3056
Core_0_L1D_prefetch_late 3667
Core_0_L1D_prefetch_accuracy 0.757574
Core_0_L1D_prefetch_coverage 0.609224

Core_0_L2C_total_access 590182
Core_0_L2C_total_hit 388950
Core_0_L2C_total_miss 201232
Core_0_L2C_total_MPKI 4.02464
Core_0_L2C_total_miss_rate 0.340966
Core_0_L2C_demand_access 64977
Core_0_L2C_demand_hit 16863
Core_0_L2C_demand_miss 48114
Core_0_L2C_demand_MPKI 0.96228
Core_0_L2C_demand_miss_rate 0.740477
Core_0_L2C_load_access 20365
Core_0_L2C_load_hit 14865
Core_0_L2C_load_miss 5500
Core_0_L2C_load_MPKI 0.11
Core_0_L2C_load_miss_rate 0.270071
Core_0_L2C_rfo_access 44612
Core_0_L2C_rfo_hit 1998
Core_0_L2C_rfo_miss 42614
Core_0_L2C_rfo_MPKI 0.85228
Core_0_L2C_rfo_miss_rate 0.955214
Core_0_L2C_prefetch_access 432608
Core_0_L2C_prefetch_hit 279524
Core_0_L2C_prefetch_miss 153084
Core_0_L2C_prefetch_MPKI 3.06168
Core_0_L2C_prefetch_miss_rate 0.353863
Core_0_L2C_writeback_access 92597
Core_0_L2C_writeback_hit 92563
Core_0_L2C_writeback_miss 34
Core_0_L2C_writeback_MPKI 0.00068
Core_0_L2C_writeback_miss_rate 0.000367183
Core_0_L2C_prefetch_requested 359591
Core_0_L2C_prefetch_issued 355871
Core_0_L2C_prefetch_useful 60263
Core_0_L2C_prefetch_useless 6342
Core_0_L2C_prefetch_late 263
Core_0_L2C_prefetch_accuracy 0.169339
Core_0_L2C_prefetch_coverage 0.55605

Core_0_LLC_total_access 202275
Core_0_LLC_total_hit 119303
Core_0_LLC_total_miss 82972
Core_0_LLC_total_MPKI 1.65944
Core_0_LLC_total_miss_rate 0.410194
Core_0_LLC_demand_access 47851
Core_0_LLC_demand_hit 24130
Core_0_LLC_demand_miss 23721
Core_0_LLC_demand_MPKI 0.47442
Core_0_LLC_demand_miss_rate 0.495726
Core_0_LLC_load_access 5237
Core_0_LLC_load_hit 3189
Core_0_LLC_load_miss 2048
Core_0_LLC_load_MPKI 0.04096
Core_0_LLC_load_miss_rate 0.391064
Core_0_LLC_rfo_access 42614
Core_0_LLC_rfo_hit 20941
Core_0_LLC_rfo_miss 21673
Core_0_LLC_rfo_MPKI 0.43346
Core_0_LLC_rfo_miss_rate 0.508589
Core_0_LLC_prefetch_access 69783
Core_0_LLC_prefetch_hit 33713
Core_0_LLC_prefetch_miss 36070
Core_0_LLC_prefetch_MPKI 0.7214
Core_0_LLC_prefetch_miss_rate 0.516888
Core_0_LLC_writeback_access 84641
Core_0_LLC_writeback_hit 61460
Core_0_LLC_writeback_miss 23181
Core_0_LLC_writeback_MPKI 0.46362
Core_0_LLC_writeback_miss_rate 0.273874
Core_0_LLC_prefetch_requested 0
Core_0_LLC_prefetch_issued 0
Core_0_LLC_prefetch_useful 0
Core_0_LLC_prefetch_useless 0
Core_0_LLC_prefetch_late 0
Core_0_LLC_prefetch_accuracy 0
Core_0_LLC_prefetch_coverage 0

[DRAM Statistics]
Channel_0_RQ_row_buffer_hit 3105
Channel_0_RQ_row_buffer_miss 56624
Channel_0_WQ_row_buffer_hit 5421
Channel_0_WQ_row_buffer_miss 31875
Channel_0_WQ_full 0
Channel_0_dbus_congested 212536
DRAM_total_RQ_row_buffer_hit 3105
DRAM_total_RQ_row_buffer_miss 56624
DRAM_total_WQ_row_buffer_hit 5421
DRAM_total_WQ_row_buffer_miss 31875
DRAM_total_WQ_full 0
DRAM_total_dbus_congested 212536
DRAM_avg_congested_cycle 8.19905

======STLB miss causes ========
Core_0_STLB_miss_cause_breakdown
Core_0_STLB_cause_Demand_Data_miss 0
Core_0_STLB_cause_Demand_Data_miss_rate 0
Core_0_STLB_cause_Demand_Instruction_miss 0
Core_0_STLB_cause_Demand_Instruction_miss_rate 0
Core_0_STLB_cause_L1D_Prefetch_miss 27
Core_0_STLB_cause_L1D_Prefetch_miss_rate 0.00296053
Core_0_STLB_cause_L1I_Prefetch_miss 0
Core_0_STLB_cause_L1I_Prefetch_miss_rate 0
Core_0_STLB_cause_Other_miss 0
Core_0_STLB_cause_Other_miss_rate 0
Core_0_STLB_Demand_miss 0
Core_0_STLB_Demand_miss_rate 0
Core_0_STLB_L1D_Prefetch_miss 27
Core_0_STLB_L1D_Prefetch_miss_rate 0.00296053
Core_0_STLB_Other_miss 0
Core_0_STLB_Other_miss_rate 0
