[VMEM] WARNING: physical memory size is smaller than virtual memory size.

*** ChampSim Multicore Out-of-Order Simulator ***
Warmup Instructions: 20000000
Simulation Instructions: 50000000
Number of CPUs: 1
Page size: 4096
STLB ideal mode: demand
Core 0: /data0/tzh/champsim_traces/SPEC06/445.gobmk-17B.champsimtrace.xz
 L1D Berti prefetcher
Off-chip DRAM Size: 4 GiB Channels: 1 Width: 64-bit Data Rate: 3205 MT/s
Warmup halting CPU 0 at instruction 20000000 cycle 4472904 for remainder of phase
Warmup finished CPU 0 instructions: 20000000 cycles: 4472904 cumulative IPC: 4.471 (Simulation time: 00 hr 00 min 59 sec)
Warmup complete CPU 0 instructions: 20000000 cycles: 4472904 cumulative IPC: 4.471 (Simulation time: 00 hr 00 min 59 sec)
Simulation finished CPU 0 instructions: 50000000 cycles: 36228705 cumulative IPC: 1.38 (Simulation time: 00 hr 04 min 45 sec)
Simulation complete CPU 0 instructions: 50000000 cycles: 36228705 cumulative IPC: 1.38 (Simulation time: 00 hr 04 min 45 sec)

ChampSim completed all CPUs

=== Simulation ===
CPU 0 runs /data0/tzh/champsim_traces/SPEC06/445.gobmk-17B.champsimtrace.xz

Region of Interest Statistics

CPU 0 cumulative IPC: 1.38 instructions: 50000000 cycles: 36228705
CPU 0 Branch Prediction Accuracy: 84.99% MPKI: 26.59 Average ROB Occupancy at Mispredict: 18.42
Branch type MPKI
BRANCH_DIRECT_JUMP: 0.03078
BRANCH_INDIRECT: 0
BRANCH_CONDITIONAL: 26.5
BRANCH_DIRECT_CALL: 0.0645
BRANCH_INDIRECT_CALL: 0.00028
BRANCH_RETURN: 0.00064

cpu0->cpu0_STLB TOTAL        ACCESS:       6011 HIT:       5954 MISS:         57 MSHR_MERGE:          0
cpu0->cpu0_STLB LOAD         ACCESS:       6011 HIT:       5954 MISS:         57 MSHR_MERGE:          0
cpu0->cpu0_STLB RFO          ACCESS:          0 HIT:          0 MISS:          0 MSHR_MERGE:          0
cpu0->cpu0_STLB PREFETCH     ACCESS:          0 HIT:          0 MISS:          0 MSHR_MERGE:          0
cpu0->cpu0_STLB WRITE        ACCESS:          0 HIT:          0 MISS:          0 MSHR_MERGE:          0
cpu0->cpu0_STLB TRANSLATION  ACCESS:          0 HIT:          0 MISS:          0 MSHR_MERGE:          0
cpu0->cpu0_STLB PREFETCH REQUESTED:          0 ISSUED:          0 USEFUL:          0 USELESS:          0 LATE:          0
cpu0->cpu0_STLB AVERAGE MISS LATENCY: 115.2 cycles
cpu0->cpu0_L2C TOTAL        ACCESS:     165437 HIT:     155301 MISS:      10136 MSHR_MERGE:        249
cpu0->cpu0_L2C LOAD         ACCESS:      19778 HIT:      17127 MISS:       2651 MSHR_MERGE:         23
cpu0->cpu0_L2C RFO          ACCESS:      38258 HIT:      37893 MISS:        365 MSHR_MERGE:          1
cpu0->cpu0_L2C PREFETCH     ACCESS:      55389 HIT:      48315 MISS:       7074 MSHR_MERGE:        225
cpu0->cpu0_L2C WRITE        ACCESS:      51962 HIT:      51948 MISS:         14 MSHR_MERGE:          0
cpu0->cpu0_L2C TRANSLATION  ACCESS:         50 HIT:         18 MISS:         32 MSHR_MERGE:          0
cpu0->cpu0_L2C PREFETCH REQUESTED:      31528 ISSUED:      31345 USEFUL:       2424 USELESS:       2475 LATE:         24
cpu0->cpu0_L2C AVERAGE MISS LATENCY: 80.27 cycles
cpu0->cpu0_L1I TOTAL        ACCESS:     428619 HIT:     426128 MISS:       2491 MSHR_MERGE:        431
cpu0->cpu0_L1I LOAD         ACCESS:     428619 HIT:     426128 MISS:       2491 MSHR_MERGE:        431
cpu0->cpu0_L1I RFO          ACCESS:          0 HIT:          0 MISS:          0 MSHR_MERGE:          0
cpu0->cpu0_L1I PREFETCH     ACCESS:          0 HIT:          0 MISS:          0 MSHR_MERGE:          0
cpu0->cpu0_L1I WRITE        ACCESS:          0 HIT:          0 MISS:          0 MSHR_MERGE:          0
cpu0->cpu0_L1I TRANSLATION  ACCESS:          0 HIT:          0 MISS:          0 MSHR_MERGE:          0
cpu0->cpu0_L1I PREFETCH REQUESTED:          0 ISSUED:          0 USEFUL:          0 USELESS:          0 LATE:          0
cpu0->cpu0_L1I AVERAGE MISS LATENCY: 18.59 cycles
cpu0->cpu0_L1D TOTAL        ACCESS:   17442190 HIT:   17303883 MISS:     138307 MSHR_MERGE:      58235
cpu0->cpu0_L1D LOAD         ACCESS:    9134879 HIT:    9111148 MISS:      23731 MSHR_MERGE:       6013
cpu0->cpu0_L1D RFO          ACCESS:          0 HIT:          0 MISS:          0 MSHR_MERGE:          0
cpu0->cpu0_L1D PREFETCH     ACCESS:     121970 HIT:      96361 MISS:      25609 MSHR_MERGE:       1563
cpu0->cpu0_L1D WRITE        ACCESS:    8185226 HIT:    8096309 MISS:      88917 MSHR_MERGE:      50659
cpu0->cpu0_L1D TRANSLATION  ACCESS:        115 HIT:         65 MISS:         50 MSHR_MERGE:          0
cpu0->cpu0_L1D PREFETCH REQUESTED:     128047 ISSUED:     121967 USEFUL:      12244 USELESS:      11770 LATE:        480
cpu0->cpu0_L1D AVERAGE MISS LATENCY: 12.03 cycles
cpu0->cpu0_ITLB TOTAL        ACCESS:     316048 HIT:     316029 MISS:         19 MSHR_MERGE:         10
cpu0->cpu0_ITLB LOAD         ACCESS:     316048 HIT:     316029 MISS:         19 MSHR_MERGE:         10
cpu0->cpu0_ITLB RFO          ACCESS:          0 HIT:          0 MISS:          0 MSHR_MERGE:          0
cpu0->cpu0_ITLB PREFETCH     ACCESS:          0 HIT:          0 MISS:          0 MSHR_MERGE:          0
cpu0->cpu0_ITLB WRITE        ACCESS:          0 HIT:          0 MISS:          0 MSHR_MERGE:          0
cpu0->cpu0_ITLB TRANSLATION  ACCESS:          0 HIT:          0 MISS:          0 MSHR_MERGE:          0
cpu0->cpu0_ITLB PREFETCH REQUESTED:          0 ISSUED:          0 USEFUL:          0 USELESS:          0 LATE:          0
cpu0->cpu0_ITLB AVERAGE MISS LATENCY: 5 cycles
cpu0->cpu0_DTLB TOTAL        ACCESS:   16655565 HIT:   16645817 MISS:       9748 MSHR_MERGE:       3746
cpu0->cpu0_DTLB LOAD         ACCESS:   16655565 HIT:   16645817 MISS:       9748 MSHR_MERGE:       3746
cpu0->cpu0_DTLB RFO          ACCESS:          0 HIT:          0 MISS:          0 MSHR_MERGE:          0
cpu0->cpu0_DTLB PREFETCH     ACCESS:          0 HIT:          0 MISS:          0 MSHR_MERGE:          0
cpu0->cpu0_DTLB WRITE        ACCESS:          0 HIT:          0 MISS:          0 MSHR_MERGE:          0
cpu0->cpu0_DTLB TRANSLATION  ACCESS:          0 HIT:          0 MISS:          0 MSHR_MERGE:          0
cpu0->cpu0_DTLB PREFETCH REQUESTED:          0 ISSUED:          0 USEFUL:          0 USELESS:          0 LATE:          0
cpu0->cpu0_DTLB AVERAGE MISS LATENCY: 6.104 cycles
cpu0->LLC TOTAL        ACCESS:      12014 HIT:       7795 MISS:       4219 MSHR_MERGE:          0
cpu0->LLC LOAD         ACCESS:       2628 HIT:       1378 MISS:       1250 MSHR_MERGE:          0
cpu0->LLC RFO          ACCESS:        364 HIT:        300 MISS:         64 MSHR_MERGE:          0
cpu0->LLC PREFETCH     ACCESS:       6849 HIT:       3980 MISS:       2869 MSHR_MERGE:          0
cpu0->LLC WRITE        ACCESS:       2141 HIT:       2122 MISS:         19 MSHR_MERGE:          0
cpu0->LLC TRANSLATION  ACCESS:         32 HIT:         15 MISS:         17 MSHR_MERGE:          0
cpu0->LLC PREFETCH REQUESTED:          0 ISSUED:          0 USEFUL:          0 USELESS:          0 LATE:          0
cpu0->LLC AVERAGE MISS LATENCY: 146.9 cycles

DRAM Statistics

Channel 0 RQ ROW_BUFFER_HIT:         50
  ROW_BUFFER_MISS:       4150
  AVG DBUS CONGESTED CYCLE: 2.68
Channel 0 WQ ROW_BUFFER_HIT:          1
  ROW_BUFFER_MISS:         12
  FULL:          0
Channel 0 REFRESHES ISSUED:       3019

[ROI Statistics]
[System Configuration]
num_cpus 1
cpu_freq 4000
fetch_width 6
decode_width 6
dispatch_width 6
execute_width 6
lq_width 2
sq_width 2
retire_width 6
scheduler_size 160
branch_mispredict_penalty 1
rob_size 352
lq_size 240
sq_size 112
ifetch_buffer_size 64
decode_buffer_size 32
dispatch_buffer_size 32
register_file_size 288
decode_latency 1
dispatch_latency 1
schedule_latency 0
execute_latency 0
page_size 4096
block_size 64
core_0_itlb_set 16
core_0_itlb_way 4
core_0_itlb_rq_size 16
core_0_itlb_wq_size 16
core_0_itlb_pq_size 0
core_0_itlb_mshr_size 8
core_0_itlb_hit_latency 1
core_0_itlb_fill_latency 1
core_0_itlb_max_tag_check 2
core_0_itlb_max_fill 2
core_0_dtlb_set 16
core_0_dtlb_way 4
core_0_dtlb_rq_size 16
core_0_dtlb_wq_size 16
core_0_dtlb_pq_size 0
core_0_dtlb_mshr_size 8
core_0_dtlb_hit_latency 1
core_0_dtlb_fill_latency 1
core_0_dtlb_max_tag_check 2
core_0_dtlb_max_fill 2
core_0_stlb_set 128
core_0_stlb_way 12
core_0_stlb_rq_size 32
core_0_stlb_wq_size 32
core_0_stlb_pq_size 0
core_0_stlb_mshr_size 16
core_0_stlb_hit_latency 4
core_0_stlb_fill_latency 4
core_0_stlb_max_tag_check 1
core_0_stlb_max_fill 1
core_0_l1i_set 64
core_0_l1i_way 8
core_0_l1i_rq_size 64
core_0_l1i_wq_size 64
core_0_l1i_pq_size 32
core_0_l1i_mshr_size 8
core_0_l1i_hit_latency 2
core_0_l1i_fill_latency 2
core_0_l1i_max_tag_check 2
core_0_l1i_max_fill 2
core_0_l1d_set 64
core_0_l1d_way 12
core_0_l1d_rq_size 64
core_0_l1d_wq_size 64
core_0_l1d_pq_size 8
core_0_l1d_mshr_size 16
core_0_l1d_hit_latency 2
core_0_l1d_fill_latency 3
core_0_l1d_max_tag_check 2
core_0_l1d_max_fill 2
core_0_l2c_set 1024
core_0_l2c_way 8
core_0_l2c_rq_size 32
core_0_l2c_wq_size 32
core_0_l2c_pq_size 16
core_0_l2c_mshr_size 32
core_0_l2c_hit_latency 5
core_0_l2c_fill_latency 5
core_0_l2c_max_tag_check 1
core_0_l2c_max_fill 1
llc_set 2048
llc_way 16
llc_rq_size 32
llc_wq_size 32
llc_pq_size 32
llc_mshr_size 64
llc_hit_latency 10
llc_fill_latency 10
llc_max_tag_check 1
llc_max_fill 1
dram_channels 1
dram_ranks 1
dram_bankgroups 8
dram_banks 4
dram_rows 16384
dram_columns 1024
dram_channel_width 8
dram_rq_size 64
dram_wq_size 64
dram_size 4294967296
core_0_itlb_prefetcher no
core_0_dtlb_prefetcher no
core_0_stlb_prefetcher no
core_0_l1i_prefetcher next_line
core_0_l1d_prefetcher berti
core_0_l2c_prefetcher pythia
llc_prefetcher no
llc_replacement drrip

Core_0_instructions 50000000
Core_0_cycles 36228705
Core_0_IPC 1.38012
Core_0_branch_prediction_accuracy 84.9907
Core_0_branch_MPKI 26.5928
Core_0_average_ROB_occupancy_at_mispredict 18.4188

Core_0_ITLB_total_access 316048
Core_0_ITLB_total_hit 316029
Core_0_ITLB_total_miss 19
Core_0_ITLB_total_MPKI 0.00038
Core_0_ITLB_total_miss_rate 6.01175e-05
Core_0_ITLB_demand_access 316048
Core_0_ITLB_demand_hit 316029
Core_0_ITLB_demand_miss 19
Core_0_ITLB_demand_MPKI 0.00038
Core_0_ITLB_demand_miss_rate 6.01175e-05
Core_0_ITLB_load_access 316048
Core_0_ITLB_load_hit 316029
Core_0_ITLB_load_miss 19
Core_0_ITLB_load_MPKI 0.00038
Core_0_ITLB_load_miss_rate 6.01175e-05
Core_0_ITLB_rfo_access 0
Core_0_ITLB_rfo_hit 0
Core_0_ITLB_rfo_miss 0
Core_0_ITLB_rfo_MPKI 0
Core_0_ITLB_rfo_miss_rate 0
Core_0_ITLB_prefetch_access 0
Core_0_ITLB_prefetch_hit 0
Core_0_ITLB_prefetch_miss 0
Core_0_ITLB_prefetch_MPKI 0
Core_0_ITLB_prefetch_miss_rate 0
Core_0_ITLB_writeback_access 0
Core_0_ITLB_writeback_hit 0
Core_0_ITLB_writeback_miss 0
Core_0_ITLB_writeback_MPKI 0
Core_0_ITLB_writeback_miss_rate 0
Core_0_ITLB_prefetch_requested 0
Core_0_ITLB_prefetch_issued 0
Core_0_ITLB_prefetch_useful 0
Core_0_ITLB_prefetch_useless 0
Core_0_ITLB_prefetch_late 0
Core_0_ITLB_prefetch_accuracy 0
Core_0_ITLB_prefetch_coverage 0

Core_0_DTLB_total_access 16655565
Core_0_DTLB_total_hit 16645817
Core_0_DTLB_total_miss 9748
Core_0_DTLB_total_MPKI 0.19496
Core_0_DTLB_total_miss_rate 0.00058527
Core_0_DTLB_demand_access 16655565
Core_0_DTLB_demand_hit 16645817
Core_0_DTLB_demand_miss 9748
Core_0_DTLB_demand_MPKI 0.19496
Core_0_DTLB_demand_miss_rate 0.00058527
Core_0_DTLB_load_access 16655565
Core_0_DTLB_load_hit 16645817
Core_0_DTLB_load_miss 9748
Core_0_DTLB_load_MPKI 0.19496
Core_0_DTLB_load_miss_rate 0.00058527
Core_0_DTLB_rfo_access 0
Core_0_DTLB_rfo_hit 0
Core_0_DTLB_rfo_miss 0
Core_0_DTLB_rfo_MPKI 0
Core_0_DTLB_rfo_miss_rate 0
Core_0_DTLB_prefetch_access 0
Core_0_DTLB_prefetch_hit 0
Core_0_DTLB_prefetch_miss 0
Core_0_DTLB_prefetch_MPKI 0
Core_0_DTLB_prefetch_miss_rate 0
Core_0_DTLB_writeback_access 0
Core_0_DTLB_writeback_hit 0
Core_0_DTLB_writeback_miss 0
Core_0_DTLB_writeback_MPKI 0
Core_0_DTLB_writeback_miss_rate 0
Core_0_DTLB_prefetch_requested 0
Core_0_DTLB_prefetch_issued 0
Core_0_DTLB_prefetch_useful 0
Core_0_DTLB_prefetch_useless 0
Core_0_DTLB_prefetch_late 0
Core_0_DTLB_prefetch_accuracy 0
Core_0_DTLB_prefetch_coverage 0

Core_0_STLB_total_access 6011
Core_0_STLB_total_hit 5954
Core_0_STLB_total_miss 57
Core_0_STLB_total_MPKI 0.00114
Core_0_STLB_total_miss_rate 0.00948262
Core_0_STLB_demand_access 6011
Core_0_STLB_demand_hit 5954
Core_0_STLB_demand_miss 57
Core_0_STLB_demand_MPKI 0.00114
Core_0_STLB_demand_miss_rate 0.00948262
Core_0_STLB_load_access 6011
Core_0_STLB_load_hit 5954
Core_0_STLB_load_miss 57
Core_0_STLB_load_MPKI 0.00114
Core_0_STLB_load_miss_rate 0.00948262
Core_0_STLB_rfo_access 0
Core_0_STLB_rfo_hit 0
Core_0_STLB_rfo_miss 0
Core_0_STLB_rfo_MPKI 0
Core_0_STLB_rfo_miss_rate 0
Core_0_STLB_prefetch_access 0
Core_0_STLB_prefetch_hit 0
Core_0_STLB_prefetch_miss 0
Core_0_STLB_prefetch_MPKI 0
Core_0_STLB_prefetch_miss_rate 0
Core_0_STLB_writeback_access 0
Core_0_STLB_writeback_hit 0
Core_0_STLB_writeback_miss 0
Core_0_STLB_writeback_MPKI 0
Core_0_STLB_writeback_miss_rate 0
Core_0_STLB_prefetch_requested 0
Core_0_STLB_prefetch_issued 0
Core_0_STLB_prefetch_useful 0
Core_0_STLB_prefetch_useless 0
Core_0_STLB_prefetch_late 0
Core_0_STLB_prefetch_accuracy 0
Core_0_STLB_prefetch_coverage 0

Core_0_L1I_total_access 428619
Core_0_L1I_total_hit 426128
Core_0_L1I_total_miss 2491
Core_0_L1I_total_MPKI 0.04982
Core_0_L1I_total_miss_rate 0.00581169
Core_0_L1I_demand_access 428619
Core_0_L1I_demand_hit 426128
Core_0_L1I_demand_miss 2491
Core_0_L1I_demand_MPKI 0.04982
Core_0_L1I_demand_miss_rate 0.00581169
Core_0_L1I_load_access 428619
Core_0_L1I_load_hit 426128
Core_0_L1I_load_miss 2491
Core_0_L1I_load_MPKI 0.04982
Core_0_L1I_load_miss_rate 0.00581169
Core_0_L1I_rfo_access 0
Core_0_L1I_rfo_hit 0
Core_0_L1I_rfo_miss 0
Core_0_L1I_rfo_MPKI 0
Core_0_L1I_rfo_miss_rate 0
Core_0_L1I_prefetch_access 0
Core_0_L1I_prefetch_hit 0
Core_0_L1I_prefetch_miss 0
Core_0_L1I_prefetch_MPKI 0
Core_0_L1I_prefetch_miss_rate 0
Core_0_L1I_writeback_access 0
Core_0_L1I_writeback_hit 0
Core_0_L1I_writeback_miss 0
Core_0_L1I_writeback_MPKI 0
Core_0_L1I_writeback_miss_rate 0
Core_0_L1I_prefetch_requested 0
Core_0_L1I_prefetch_issued 0
Core_0_L1I_prefetch_useful 0
Core_0_L1I_prefetch_useless 0
Core_0_L1I_prefetch_late 0
Core_0_L1I_prefetch_accuracy 0
Core_0_L1I_prefetch_coverage 0

Core_0_L1D_total_access 17442075
Core_0_L1D_total_hit 17303818
Core_0_L1D_total_miss 138257
Core_0_L1D_total_MPKI 2.76514
Core_0_L1D_total_miss_rate 0.00792664
Core_0_L1D_demand_access 9134879
Core_0_L1D_demand_hit 9111148
Core_0_L1D_demand_miss 23731
Core_0_L1D_demand_MPKI 0.47462
Core_0_L1D_demand_miss_rate 0.00259785
Core_0_L1D_load_access 9134879
Core_0_L1D_load_hit 9111148
Core_0_L1D_load_miss 23731
Core_0_L1D_load_MPKI 0.47462
Core_0_L1D_load_miss_rate 0.00259785
Core_0_L1D_rfo_access 0
Core_0_L1D_rfo_hit 0
Core_0_L1D_rfo_miss 0
Core_0_L1D_rfo_MPKI 0
Core_0_L1D_rfo_miss_rate 0
Core_0_L1D_prefetch_access 121970
Core_0_L1D_prefetch_hit 96361
Core_0_L1D_prefetch_miss 25609
Core_0_L1D_prefetch_MPKI 0.51218
Core_0_L1D_prefetch_miss_rate 0.209961
Core_0_L1D_writeback_access 8185226
Core_0_L1D_writeback_hit 8096309
Core_0_L1D_writeback_miss 88917
Core_0_L1D_writeback_MPKI 1.77834
Core_0_L1D_writeback_miss_rate 0.0108631
Core_0_L1D_prefetch_requested 128047
Core_0_L1D_prefetch_issued 121967
Core_0_L1D_prefetch_useful 12244
Core_0_L1D_prefetch_useless 11770
Core_0_L1D_prefetch_late 480
Core_0_L1D_prefetch_accuracy 0.100388
Core_0_L1D_prefetch_coverage 0.340347

Core_0_L2C_total_access 165387
Core_0_L2C_total_hit 155283
Core_0_L2C_total_miss 10104
Core_0_L2C_total_MPKI 0.20208
Core_0_L2C_total_miss_rate 0.0610931
Core_0_L2C_demand_access 58036
Core_0_L2C_demand_hit 55020
Core_0_L2C_demand_miss 3016
Core_0_L2C_demand_MPKI 0.06032
Core_0_L2C_demand_miss_rate 0.0519677
Core_0_L2C_load_access 19778
Core_0_L2C_load_hit 17127
Core_0_L2C_load_miss 2651
Core_0_L2C_load_MPKI 0.05302
Core_0_L2C_load_miss_rate 0.134038
Core_0_L2C_rfo_access 38258
Core_0_L2C_rfo_hit 37893
Core_0_L2C_rfo_miss 365
Core_0_L2C_rfo_MPKI 0.0073
Core_0_L2C_rfo_miss_rate 0.00954049
Core_0_L2C_prefetch_access 55389
Core_0_L2C_prefetch_hit 48315
Core_0_L2C_prefetch_miss 7074
Core_0_L2C_prefetch_MPKI 0.14148
Core_0_L2C_prefetch_miss_rate 0.127715
Core_0_L2C_writeback_access 51962
Core_0_L2C_writeback_hit 51948
Core_0_L2C_writeback_miss 14
Core_0_L2C_writeback_MPKI 0.00028
Core_0_L2C_writeback_miss_rate 0.000269428
Core_0_L2C_prefetch_requested 31528
Core_0_L2C_prefetch_issued 31345
Core_0_L2C_prefetch_useful 2424
Core_0_L2C_prefetch_useless 2475
Core_0_L2C_prefetch_late 24
Core_0_L2C_prefetch_accuracy 0.0773329
Core_0_L2C_prefetch_coverage 0.445588

Core_0_LLC_total_access 11982
Core_0_LLC_total_hit 7780
Core_0_LLC_total_miss 4202
Core_0_LLC_total_MPKI 0.08404
Core_0_LLC_total_miss_rate 0.350693
Core_0_LLC_demand_access 2992
Core_0_LLC_demand_hit 1678
Core_0_LLC_demand_miss 1314
Core_0_LLC_demand_MPKI 0.02628
Core_0_LLC_demand_miss_rate 0.439171
Core_0_LLC_load_access 2628
Core_0_LLC_load_hit 1378
Core_0_LLC_load_miss 1250
Core_0_LLC_load_MPKI 0.025
Core_0_LLC_load_miss_rate 0.475647
Core_0_LLC_rfo_access 364
Core_0_LLC_rfo_hit 300
Core_0_LLC_rfo_miss 64
Core_0_LLC_rfo_MPKI 0.00128
Core_0_LLC_rfo_miss_rate 0.175824
Core_0_LLC_prefetch_access 6849
Core_0_LLC_prefetch_hit 3980
Core_0_LLC_prefetch_miss 2869
Core_0_LLC_prefetch_MPKI 0.05738
Core_0_LLC_prefetch_miss_rate 0.418893
Core_0_LLC_writeback_access 2141
Core_0_LLC_writeback_hit 2122
Core_0_LLC_writeback_miss 19
Core_0_LLC_writeback_MPKI 0.00038
Core_0_LLC_writeback_miss_rate 0.00887436
Core_0_LLC_prefetch_requested 0
Core_0_LLC_prefetch_issued 0
Core_0_LLC_prefetch_useful 0
Core_0_LLC_prefetch_useless 0
Core_0_LLC_prefetch_late 0
Core_0_LLC_prefetch_accuracy 0
Core_0_LLC_prefetch_coverage 0

[DRAM Statistics]
Channel_0_RQ_row_buffer_hit 50
Channel_0_RQ_row_buffer_miss 4150
Channel_0_WQ_row_buffer_hit 1
Channel_0_WQ_row_buffer_miss 12
Channel_0_WQ_full 0
Channel_0_dbus_congested 3207
DRAM_total_RQ_row_buffer_hit 50
DRAM_total_RQ_row_buffer_miss 4150
DRAM_total_WQ_row_buffer_hit 1
DRAM_total_WQ_row_buffer_miss 12
DRAM_total_WQ_full 0
DRAM_total_dbus_congested 3207
DRAM_avg_congested_cycle 2.68007

======STLB miss causes ========
Core_0_STLB_miss_cause_breakdown
Core_0_STLB_cause_Demand_Data_miss 0
Core_0_STLB_cause_Demand_Data_miss_rate 0
Core_0_STLB_cause_Demand_Instruction_miss 0
Core_0_STLB_cause_Demand_Instruction_miss_rate 0
Core_0_STLB_cause_L1D_Prefetch_miss 57
Core_0_STLB_cause_L1D_Prefetch_miss_rate 0.00948262
Core_0_STLB_cause_L1I_Prefetch_miss 0
Core_0_STLB_cause_L1I_Prefetch_miss_rate 0
Core_0_STLB_cause_Other_miss 0
Core_0_STLB_cause_Other_miss_rate 0
Core_0_STLB_Demand_miss 0
Core_0_STLB_Demand_miss_rate 0
Core_0_STLB_L1D_Prefetch_miss 57
Core_0_STLB_L1D_Prefetch_miss_rate 0.00948262
Core_0_STLB_Other_miss 0
Core_0_STLB_Other_miss_rate 0
