[VMEM] WARNING: physical memory size is smaller than virtual memory size.

*** ChampSim Multicore Out-of-Order Simulator ***
Warmup Instructions: 20000000
Simulation Instructions: 50000000
Number of CPUs: 1
Page size: 4096
STLB ideal mode: demand
Core 0: /data0/tzh/champsim_traces/SPEC06/482.sphinx3-1100B.champsimtrace.xz
 L1D Berti prefetcher
Off-chip DRAM Size: 4 GiB Channels: 1 Width: 64-bit Data Rate: 3205 MT/s
Warmup halting CPU 0 at instruction 20000000 cycle 4137300 for remainder of phase
Warmup finished CPU 0 instructions: 20000000 cycles: 4137300 cumulative IPC: 4.834 (Simulation time: 00 hr 00 min 59 sec)
Warmup complete CPU 0 instructions: 20000000 cycles: 4137300 cumulative IPC: 4.834 (Simulation time: 00 hr 00 min 59 sec)
Simulation finished CPU 0 instructions: 50000001 cycles: 20184842 cumulative IPC: 2.477 (Simulation time: 00 hr 04 min 07 sec)
Simulation complete CPU 0 instructions: 50000001 cycles: 20184842 cumulative IPC: 2.477 (Simulation time: 00 hr 04 min 07 sec)

ChampSim completed all CPUs

=== Simulation ===
CPU 0 runs /data0/tzh/champsim_traces/SPEC06/482.sphinx3-1100B.champsimtrace.xz

Region of Interest Statistics

CPU 0 cumulative IPC: 2.477 instructions: 50000001 cycles: 20184842
CPU 0 Branch Prediction Accuracy: 96.15% MPKI: 3.556 Average ROB Occupancy at Mispredict: 119.2
Branch type MPKI
BRANCH_DIRECT_JUMP: 0.00088
BRANCH_INDIRECT: 0
BRANCH_CONDITIONAL: 3.552
BRANCH_DIRECT_CALL: 0.00152
BRANCH_INDIRECT_CALL: 4e-05
BRANCH_RETURN: 0.00206

cpu0->cpu0_STLB TOTAL        ACCESS:      60427 HIT:      59704 MISS:        723 MSHR_MERGE:          0
cpu0->cpu0_STLB LOAD         ACCESS:      60427 HIT:      59704 MISS:        723 MSHR_MERGE:          0
cpu0->cpu0_STLB RFO          ACCESS:          0 HIT:          0 MISS:          0 MSHR_MERGE:          0
cpu0->cpu0_STLB PREFETCH     ACCESS:          0 HIT:          0 MISS:          0 MSHR_MERGE:          0
cpu0->cpu0_STLB WRITE        ACCESS:          0 HIT:          0 MISS:          0 MSHR_MERGE:          0
cpu0->cpu0_STLB TRANSLATION  ACCESS:          0 HIT:          0 MISS:          0 MSHR_MERGE:          0
cpu0->cpu0_STLB PREFETCH REQUESTED:          0 ISSUED:          0 USEFUL:          0 USELESS:          0 LATE:          0
cpu0->cpu0_STLB AVERAGE MISS LATENCY: 229.4 cycles
cpu0->cpu0_L2C TOTAL        ACCESS:    3429231 HIT:    2134469 MISS:    1294762 MSHR_MERGE:     439182
cpu0->cpu0_L2C LOAD         ACCESS:     217572 HIT:     141424 MISS:      76148 MSHR_MERGE:       5281
cpu0->cpu0_L2C RFO          ACCESS:      39423 HIT:       4439 MISS:      34984 MSHR_MERGE:          4
cpu0->cpu0_L2C PREFETCH     ACCESS:    3110077 HIT:    1927133 MISS:    1182944 MSHR_MERGE:     433897
cpu0->cpu0_L2C WRITE        ACCESS:      61548 HIT:      61416 MISS:        132 MSHR_MERGE:          0
cpu0->cpu0_L2C TRANSLATION  ACCESS:        611 HIT:         57 MISS:        554 MSHR_MERGE:          0
cpu0->cpu0_L2C PREFETCH REQUESTED:    2607058 ISSUED:    2534645 USEFUL:     458797 USELESS:     215984 LATE:       5285
cpu0->cpu0_L2C AVERAGE MISS LATENCY: 123.4 cycles
cpu0->cpu0_L1I TOTAL        ACCESS:    2931086 HIT:    2930821 MISS:        265 MSHR_MERGE:         43
cpu0->cpu0_L1I LOAD         ACCESS:    2931086 HIT:    2930821 MISS:        265 MSHR_MERGE:         43
cpu0->cpu0_L1I RFO          ACCESS:          0 HIT:          0 MISS:          0 MSHR_MERGE:          0
cpu0->cpu0_L1I PREFETCH     ACCESS:          0 HIT:          0 MISS:          0 MSHR_MERGE:          0
cpu0->cpu0_L1I WRITE        ACCESS:          0 HIT:          0 MISS:          0 MSHR_MERGE:          0
cpu0->cpu0_L1I TRANSLATION  ACCESS:          0 HIT:          0 MISS:          0 MSHR_MERGE:          0
cpu0->cpu0_L1I PREFETCH REQUESTED:          0 ISSUED:          0 USEFUL:          0 USELESS:          0 LATE:          0
cpu0->cpu0_L1I AVERAGE MISS LATENCY: 212.1 cycles
cpu0->cpu0_L1D TOTAL        ACCESS:   10637489 HIT:    9303588 MISS:    1333901 MSHR_MERGE:     501079
cpu0->cpu0_L1D LOAD         ACCESS:    9007508 HIT:    8491020 MISS:     516488 MSHR_MERGE:     299138
cpu0->cpu0_L1D RFO          ACCESS:          0 HIT:          0 MISS:          0 MSHR_MERGE:          0
cpu0->cpu0_L1D PREFETCH     ACCESS:     659126 HIT:      77990 MISS:     581136 MSHR_MERGE:       5700
cpu0->cpu0_L1D WRITE        ACCESS:     969408 HIT:     733744 MISS:     235664 MSHR_MERGE:     196239
cpu0->cpu0_L1D TRANSLATION  ACCESS:       1447 HIT:        834 MISS:        613 MSHR_MERGE:          2
cpu0->cpu0_L1D PREFETCH REQUESTED:     661874 ISSUED:     659118 USEFUL:     484416 USELESS:      91022 LATE:      21673
cpu0->cpu0_L1D AVERAGE MISS LATENCY: 65.31 cycles
cpu0->cpu0_ITLB TOTAL        ACCESS:    1845488 HIT:    1845472 MISS:         16 MSHR_MERGE:          4
cpu0->cpu0_ITLB LOAD         ACCESS:    1845488 HIT:    1845472 MISS:         16 MSHR_MERGE:          4
cpu0->cpu0_ITLB RFO          ACCESS:          0 HIT:          0 MISS:          0 MSHR_MERGE:          0
cpu0->cpu0_ITLB PREFETCH     ACCESS:          0 HIT:          0 MISS:          0 MSHR_MERGE:          0
cpu0->cpu0_ITLB WRITE        ACCESS:          0 HIT:          0 MISS:          0 MSHR_MERGE:          0
cpu0->cpu0_ITLB TRANSLATION  ACCESS:          0 HIT:          0 MISS:          0 MSHR_MERGE:          0
cpu0->cpu0_ITLB PREFETCH REQUESTED:          0 ISSUED:          0 USEFUL:          0 USELESS:          0 LATE:          0
cpu0->cpu0_ITLB AVERAGE MISS LATENCY: 5 cycles
cpu0->cpu0_DTLB TOTAL        ACCESS:   10220816 HIT:   10113441 MISS:     107375 MSHR_MERGE:      46960
cpu0->cpu0_DTLB LOAD         ACCESS:   10220816 HIT:   10113441 MISS:     107375 MSHR_MERGE:      46960
cpu0->cpu0_DTLB RFO          ACCESS:          0 HIT:          0 MISS:          0 MSHR_MERGE:          0
cpu0->cpu0_DTLB PREFETCH     ACCESS:          0 HIT:          0 MISS:          0 MSHR_MERGE:          0
cpu0->cpu0_DTLB WRITE        ACCESS:          0 HIT:          0 MISS:          0 MSHR_MERGE:          0
cpu0->cpu0_DTLB TRANSLATION  ACCESS:          0 HIT:          0 MISS:          0 MSHR_MERGE:          0
cpu0->cpu0_DTLB PREFETCH REQUESTED:          0 ISSUED:          0 USEFUL:          0 USELESS:          0 LATE:          0
cpu0->cpu0_DTLB AVERAGE MISS LATENCY: 7.758 cycles
cpu0->LLC TOTAL        ACCESS:     907826 HIT:     296684 MISS:     611142 MSHR_MERGE:          0
cpu0->LLC LOAD         ACCESS:      70867 HIT:      30370 MISS:      40497 MSHR_MERGE:          0
cpu0->LLC RFO          ACCESS:      34980 HIT:      22718 MISS:      12262 MSHR_MERGE:          0
cpu0->LLC PREFETCH     ACCESS:     749046 HIT:     203895 MISS:     545151 MSHR_MERGE:          0
cpu0->LLC WRITE        ACCESS:      52379 HIT:      39684 MISS:      12695 MSHR_MERGE:          0
cpu0->LLC TRANSLATION  ACCESS:        554 HIT:         17 MISS:        537 MSHR_MERGE:          0
cpu0->LLC PREFETCH REQUESTED:          0 ISSUED:          0 USEFUL:          0 USELESS:          0 LATE:          0
cpu0->LLC AVERAGE MISS LATENCY: 173.9 cycles

DRAM Statistics

Channel 0 RQ ROW_BUFFER_HIT:      18513
  ROW_BUFFER_MISS:     579439
  AVG DBUS CONGESTED CYCLE: 4.741
Channel 0 WQ ROW_BUFFER_HIT:       4073
  ROW_BUFFER_MISS:      14488
  FULL:          0
Channel 0 REFRESHES ISSUED:       1682

[ROI Statistics]
[System Configuration]
num_cpus 1
cpu_freq 4000
fetch_width 6
decode_width 6
dispatch_width 6
execute_width 6
lq_width 2
sq_width 2
retire_width 6
scheduler_size 160
branch_mispredict_penalty 1
rob_size 352
lq_size 240
sq_size 112
ifetch_buffer_size 64
decode_buffer_size 32
dispatch_buffer_size 32
register_file_size 288
decode_latency 1
dispatch_latency 1
schedule_latency 0
execute_latency 0
page_size 4096
block_size 64
core_0_itlb_set 16
core_0_itlb_way 4
core_0_itlb_rq_size 16
core_0_itlb_wq_size 16
core_0_itlb_pq_size 0
core_0_itlb_mshr_size 8
core_0_itlb_hit_latency 1
core_0_itlb_fill_latency 1
core_0_itlb_max_tag_check 2
core_0_itlb_max_fill 2
core_0_dtlb_set 16
core_0_dtlb_way 4
core_0_dtlb_rq_size 16
core_0_dtlb_wq_size 16
core_0_dtlb_pq_size 0
core_0_dtlb_mshr_size 8
core_0_dtlb_hit_latency 1
core_0_dtlb_fill_latency 1
core_0_dtlb_max_tag_check 2
core_0_dtlb_max_fill 2
core_0_stlb_set 128
core_0_stlb_way 12
core_0_stlb_rq_size 32
core_0_stlb_wq_size 32
core_0_stlb_pq_size 0
core_0_stlb_mshr_size 16
core_0_stlb_hit_latency 4
core_0_stlb_fill_latency 4
core_0_stlb_max_tag_check 1
core_0_stlb_max_fill 1
core_0_l1i_set 64
core_0_l1i_way 8
core_0_l1i_rq_size 64
core_0_l1i_wq_size 64
core_0_l1i_pq_size 32
core_0_l1i_mshr_size 8
core_0_l1i_hit_latency 2
core_0_l1i_fill_latency 2
core_0_l1i_max_tag_check 2
core_0_l1i_max_fill 2
core_0_l1d_set 64
core_0_l1d_way 12
core_0_l1d_rq_size 64
core_0_l1d_wq_size 64
core_0_l1d_pq_size 8
core_0_l1d_mshr_size 16
core_0_l1d_hit_latency 2
core_0_l1d_fill_latency 3
core_0_l1d_max_tag_check 2
core_0_l1d_max_fill 2
core_0_l2c_set 1024
core_0_l2c_way 8
core_0_l2c_rq_size 32
core_0_l2c_wq_size 32
core_0_l2c_pq_size 16
core_0_l2c_mshr_size 32
core_0_l2c_hit_latency 5
core_0_l2c_fill_latency 5
core_0_l2c_max_tag_check 1
core_0_l2c_max_fill 1
llc_set 2048
llc_way 16
llc_rq_size 32
llc_wq_size 32
llc_pq_size 32
llc_mshr_size 64
llc_hit_latency 10
llc_fill_latency 10
llc_max_tag_check 1
llc_max_fill 1
dram_channels 1
dram_ranks 1
dram_bankgroups 8
dram_banks 4
dram_rows 16384
dram_columns 1024
dram_channel_width 8
dram_rq_size 64
dram_wq_size 64
dram_size 4294967296
core_0_itlb_prefetcher no
core_0_dtlb_prefetcher no
core_0_stlb_prefetcher no
core_0_l1i_prefetcher next_line
core_0_l1d_prefetcher berti
core_0_l2c_prefetcher pythia
llc_prefetcher no
llc_replacement drrip

Core_0_instructions 50000001
Core_0_cycles 20184842
Core_0_IPC 2.47711
Core_0_branch_prediction_accuracy 96.1484
Core_0_branch_MPKI 3.55634
Core_0_average_ROB_occupancy_at_mispredict 119.199

Core_0_ITLB_total_access 1845488
Core_0_ITLB_total_hit 1845472
Core_0_ITLB_total_miss 16
Core_0_ITLB_total_MPKI 0.00032
Core_0_ITLB_total_miss_rate 8.66979e-06
Core_0_ITLB_demand_access 1845488
Core_0_ITLB_demand_hit 1845472
Core_0_ITLB_demand_miss 16
Core_0_ITLB_demand_MPKI 0.00032
Core_0_ITLB_demand_miss_rate 8.66979e-06
Core_0_ITLB_load_access 1845488
Core_0_ITLB_load_hit 1845472
Core_0_ITLB_load_miss 16
Core_0_ITLB_load_MPKI 0.00032
Core_0_ITLB_load_miss_rate 8.66979e-06
Core_0_ITLB_rfo_access 0
Core_0_ITLB_rfo_hit 0
Core_0_ITLB_rfo_miss 0
Core_0_ITLB_rfo_MPKI 0
Core_0_ITLB_rfo_miss_rate 0
Core_0_ITLB_prefetch_access 0
Core_0_ITLB_prefetch_hit 0
Core_0_ITLB_prefetch_miss 0
Core_0_ITLB_prefetch_MPKI 0
Core_0_ITLB_prefetch_miss_rate 0
Core_0_ITLB_writeback_access 0
Core_0_ITLB_writeback_hit 0
Core_0_ITLB_writeback_miss 0
Core_0_ITLB_writeback_MPKI 0
Core_0_ITLB_writeback_miss_rate 0
Core_0_ITLB_prefetch_requested 0
Core_0_ITLB_prefetch_issued 0
Core_0_ITLB_prefetch_useful 0
Core_0_ITLB_prefetch_useless 0
Core_0_ITLB_prefetch_late 0
Core_0_ITLB_prefetch_accuracy 0
Core_0_ITLB_prefetch_coverage 0

Core_0_DTLB_total_access 10220816
Core_0_DTLB_total_hit 10113441
Core_0_DTLB_total_miss 107375
Core_0_DTLB_total_MPKI 2.1475
Core_0_DTLB_total_miss_rate 0.0105055
Core_0_DTLB_demand_access 10220816
Core_0_DTLB_demand_hit 10113441
Core_0_DTLB_demand_miss 107375
Core_0_DTLB_demand_MPKI 2.1475
Core_0_DTLB_demand_miss_rate 0.0105055
Core_0_DTLB_load_access 10220816
Core_0_DTLB_load_hit 10113441
Core_0_DTLB_load_miss 107375
Core_0_DTLB_load_MPKI 2.1475
Core_0_DTLB_load_miss_rate 0.0105055
Core_0_DTLB_rfo_access 0
Core_0_DTLB_rfo_hit 0
Core_0_DTLB_rfo_miss 0
Core_0_DTLB_rfo_MPKI 0
Core_0_DTLB_rfo_miss_rate 0
Core_0_DTLB_prefetch_access 0
Core_0_DTLB_prefetch_hit 0
Core_0_DTLB_prefetch_miss 0
Core_0_DTLB_prefetch_MPKI 0
Core_0_DTLB_prefetch_miss_rate 0
Core_0_DTLB_writeback_access 0
Core_0_DTLB_writeback_hit 0
Core_0_DTLB_writeback_miss 0
Core_0_DTLB_writeback_MPKI 0
Core_0_DTLB_writeback_miss_rate 0
Core_0_DTLB_prefetch_requested 0
Core_0_DTLB_prefetch_issued 0
Core_0_DTLB_prefetch_useful 0
Core_0_DTLB_prefetch_useless 0
Core_0_DTLB_prefetch_late 0
Core_0_DTLB_prefetch_accuracy 0
Core_0_DTLB_prefetch_coverage 0

Core_0_STLB_total_access 60427
Core_0_STLB_total_hit 59704
Core_0_STLB_total_miss 723
Core_0_STLB_total_MPKI 0.01446
Core_0_STLB_total_miss_rate 0.0119649
Core_0_STLB_demand_access 60427
Core_0_STLB_demand_hit 59704
Core_0_STLB_demand_miss 723
Core_0_STLB_demand_MPKI 0.01446
Core_0_STLB_demand_miss_rate 0.0119649
Core_0_STLB_load_access 60427
Core_0_STLB_load_hit 59704
Core_0_STLB_load_miss 723
Core_0_STLB_load_MPKI 0.01446
Core_0_STLB_load_miss_rate 0.0119649
Core_0_STLB_rfo_access 0
Core_0_STLB_rfo_hit 0
Core_0_STLB_rfo_miss 0
Core_0_STLB_rfo_MPKI 0
Core_0_STLB_rfo_miss_rate 0
Core_0_STLB_prefetch_access 0
Core_0_STLB_prefetch_hit 0
Core_0_STLB_prefetch_miss 0
Core_0_STLB_prefetch_MPKI 0
Core_0_STLB_prefetch_miss_rate 0
Core_0_STLB_writeback_access 0
Core_0_STLB_writeback_hit 0
Core_0_STLB_writeback_miss 0
Core_0_STLB_writeback_MPKI 0
Core_0_STLB_writeback_miss_rate 0
Core_0_STLB_prefetch_requested 0
Core_0_STLB_prefetch_issued 0
Core_0_STLB_prefetch_useful 0
Core_0_STLB_prefetch_useless 0
Core_0_STLB_prefetch_late 0
Core_0_STLB_prefetch_accuracy 0
Core_0_STLB_prefetch_coverage 0

Core_0_L1I_total_access 2931086
Core_0_L1I_total_hit 2930821
Core_0_L1I_total_miss 265
Core_0_L1I_total_MPKI 0.0053
Core_0_L1I_total_miss_rate 9.04102e-05
Core_0_L1I_demand_access 2931086
Core_0_L1I_demand_hit 2930821
Core_0_L1I_demand_miss 265
Core_0_L1I_demand_MPKI 0.0053
Core_0_L1I_demand_miss_rate 9.04102e-05
Core_0_L1I_load_access 2931086
Core_0_L1I_load_hit 2930821
Core_0_L1I_load_miss 265
Core_0_L1I_load_MPKI 0.0053
Core_0_L1I_load_miss_rate 9.04102e-05
Core_0_L1I_rfo_access 0
Core_0_L1I_rfo_hit 0
Core_0_L1I_rfo_miss 0
Core_0_L1I_rfo_MPKI 0
Core_0_L1I_rfo_miss_rate 0
Core_0_L1I_prefetch_access 0
Core_0_L1I_prefetch_hit 0
Core_0_L1I_prefetch_miss 0
Core_0_L1I_prefetch_MPKI 0
Core_0_L1I_prefetch_miss_rate 0
Core_0_L1I_writeback_access 0
Core_0_L1I_writeback_hit 0
Core_0_L1I_writeback_miss 0
Core_0_L1I_writeback_MPKI 0
Core_0_L1I_writeback_miss_rate 0
Core_0_L1I_prefetch_requested 0
Core_0_L1I_prefetch_issued 0
Core_0_L1I_prefetch_useful 0
Core_0_L1I_prefetch_useless 0
Core_0_L1I_prefetch_late 0
Core_0_L1I_prefetch_accuracy 0
Core_0_L1I_prefetch_coverage 0

Core_0_L1D_total_access 10636042
Core_0_L1D_total_hit 9302754
Core_0_L1D_total_miss 1333288
Core_0_L1D_total_MPKI 26.6658
Core_0_L1D_total_miss_rate 0.125356
Core_0_L1D_demand_access 9007508
Core_0_L1D_demand_hit 8491020
Core_0_L1D_demand_miss 516488
Core_0_L1D_demand_MPKI 10.3298
Core_0_L1D_demand_miss_rate 0.0573397
Core_0_L1D_load_access 9007508
Core_0_L1D_load_hit 8491020
Core_0_L1D_load_miss 516488
Core_0_L1D_load_MPKI 10.3298
Core_0_L1D_load_miss_rate 0.0573397
Core_0_L1D_rfo_access 0
Core_0_L1D_rfo_hit 0
Core_0_L1D_rfo_miss 0
Core_0_L1D_rfo_MPKI 0
Core_0_L1D_rfo_miss_rate 0
Core_0_L1D_prefetch_access 659126
Core_0_L1D_prefetch_hit 77990
Core_0_L1D_prefetch_miss 581136
Core_0_L1D_prefetch_MPKI 11.6227
Core_0_L1D_prefetch_miss_rate 0.881677
Core_0_L1D_writeback_access 969408
Core_0_L1D_writeback_hit 733744
Core_0_L1D_writeback_miss 235664
Core_0_L1D_writeback_MPKI 4.71328
Core_0_L1D_writeback_miss_rate 0.243101
Core_0_L1D_prefetch_requested 661874
Core_0_L1D_prefetch_issued 659118
Core_0_L1D_prefetch_useful 484416
Core_0_L1D_prefetch_useless 91022
Core_0_L1D_prefetch_late 21673
Core_0_L1D_prefetch_accuracy 0.734946
Core_0_L1D_prefetch_coverage 0.483978

Core_0_L2C_total_access 3428620
Core_0_L2C_total_hit 2134412
Core_0_L2C_total_miss 1294208
Core_0_L2C_total_MPKI 25.8842
Core_0_L2C_total_miss_rate 0.377472
Core_0_L2C_demand_access 256995
Core_0_L2C_demand_hit 145863
Core_0_L2C_demand_miss 111132
Core_0_L2C_demand_MPKI 2.22264
Core_0_L2C_demand_miss_rate 0.432429
Core_0_L2C_load_access 217572
Core_0_L2C_load_hit 141424
Core_0_L2C_load_miss 76148
Core_0_L2C_load_MPKI 1.52296
Core_0_L2C_load_miss_rate 0.34999
Core_0_L2C_rfo_access 39423
Core_0_L2C_rfo_hit 4439
Core_0_L2C_rfo_miss 34984
Core_0_L2C_rfo_MPKI 0.69968
Core_0_L2C_rfo_miss_rate 0.887401
Core_0_L2C_prefetch_access 3110077
Core_0_L2C_prefetch_hit 1927133
Core_0_L2C_prefetch_miss 1182944
Core_0_L2C_prefetch_MPKI 23.6589
Core_0_L2C_prefetch_miss_rate 0.380358
Core_0_L2C_writeback_access 61548
Core_0_L2C_writeback_hit 61416
Core_0_L2C_writeback_miss 132
Core_0_L2C_writeback_MPKI 0.00264
Core_0_L2C_writeback_miss_rate 0.00214467
Core_0_L2C_prefetch_requested 2607058
Core_0_L2C_prefetch_issued 2534645
Core_0_L2C_prefetch_useful 458797
Core_0_L2C_prefetch_useless 215984
Core_0_L2C_prefetch_late 5285
Core_0_L2C_prefetch_accuracy 0.18101
Core_0_L2C_prefetch_coverage 0.805007

Core_0_LLC_total_access 907272
Core_0_LLC_total_hit 296667
Core_0_LLC_total_miss 610605
Core_0_LLC_total_MPKI 12.2121
Core_0_LLC_total_miss_rate 0.673012
Core_0_LLC_demand_access 105847
Core_0_LLC_demand_hit 53088
Core_0_LLC_demand_miss 52759
Core_0_LLC_demand_MPKI 1.05518
Core_0_LLC_demand_miss_rate 0.498446
Core_0_LLC_load_access 70867
Core_0_LLC_load_hit 30370
Core_0_LLC_load_miss 40497
Core_0_LLC_load_MPKI 0.80994
Core_0_LLC_load_miss_rate 0.571451
Core_0_LLC_rfo_access 34980
Core_0_LLC_rfo_hit 22718
Core_0_LLC_rfo_miss 12262
Core_0_LLC_rfo_MPKI 0.24524
Core_0_LLC_rfo_miss_rate 0.350543
Core_0_LLC_prefetch_access 749046
Core_0_LLC_prefetch_hit 203895
Core_0_LLC_prefetch_miss 545151
Core_0_LLC_prefetch_MPKI 10.903
Core_0_LLC_prefetch_miss_rate 0.727794
Core_0_LLC_writeback_access 52379
Core_0_LLC_writeback_hit 39684
Core_0_LLC_writeback_miss 12695
Core_0_LLC_writeback_MPKI 0.2539
Core_0_LLC_writeback_miss_rate 0.242368
Core_0_LLC_prefetch_requested 0
Core_0_LLC_prefetch_issued 0
Core_0_LLC_prefetch_useful 0
Core_0_LLC_prefetch_useless 0
Core_0_LLC_prefetch_late 0
Core_0_LLC_prefetch_accuracy 0
Core_0_LLC_prefetch_coverage 0

[DRAM Statistics]
Channel_0_RQ_row_buffer_hit 18513
Channel_0_RQ_row_buffer_miss 579439
Channel_0_WQ_row_buffer_hit 4073
Channel_0_WQ_row_buffer_miss 14488
Channel_0_WQ_full 0
Channel_0_dbus_congested 1138991
DRAM_total_RQ_row_buffer_hit 18513
DRAM_total_RQ_row_buffer_miss 579439
DRAM_total_WQ_row_buffer_hit 4073
DRAM_total_WQ_row_buffer_miss 14488
DRAM_total_WQ_full 0
DRAM_total_dbus_congested 1138991
DRAM_avg_congested_cycle 4.74055

======STLB miss causes ========
Core_0_STLB_miss_cause_breakdown
Core_0_STLB_cause_Demand_Data_miss 0
Core_0_STLB_cause_Demand_Data_miss_rate 0
Core_0_STLB_cause_Demand_Instruction_miss 0
Core_0_STLB_cause_Demand_Instruction_miss_rate 0
Core_0_STLB_cause_L1D_Prefetch_miss 723
Core_0_STLB_cause_L1D_Prefetch_miss_rate 0.0119649
Core_0_STLB_cause_L1I_Prefetch_miss 0
Core_0_STLB_cause_L1I_Prefetch_miss_rate 0
Core_0_STLB_cause_Other_miss 0
Core_0_STLB_cause_Other_miss_rate 0
Core_0_STLB_Demand_miss 0
Core_0_STLB_Demand_miss_rate 0
Core_0_STLB_L1D_Prefetch_miss 723
Core_0_STLB_L1D_Prefetch_miss_rate 0.0119649
Core_0_STLB_Other_miss 0
Core_0_STLB_Other_miss_rate 0
