[VMEM] WARNING: physical memory size is smaller than virtual memory size.

*** ChampSim Multicore Out-of-Order Simulator ***
Warmup Instructions: 20000000
Simulation Instructions: 50000000
Number of CPUs: 1
Page size: 4096
STLB ideal mode: demand
Core 0: /data0/tzh/champsim_traces/SPEC06/482.sphinx3-234B.champsimtrace.xz
 L1D Berti prefetcher
Off-chip DRAM Size: 4 GiB Channels: 1 Width: 64-bit Data Rate: 3205 MT/s
Warmup halting CPU 0 at instruction 20000004 cycle 4109749 for remainder of phase
Warmup finished CPU 0 instructions: 20000004 cycles: 4109749 cumulative IPC: 4.866 (Simulation time: 00 hr 00 min 46 sec)
Warmup complete CPU 0 instructions: 20000004 cycles: 4109749 cumulative IPC: 4.866 (Simulation time: 00 hr 00 min 46 sec)
Simulation finished CPU 0 instructions: 50000002 cycles: 19510868 cumulative IPC: 2.563 (Simulation time: 00 hr 03 min 52 sec)
Simulation complete CPU 0 instructions: 50000002 cycles: 19510868 cumulative IPC: 2.563 (Simulation time: 00 hr 03 min 52 sec)

ChampSim completed all CPUs

=== Simulation ===
CPU 0 runs /data0/tzh/champsim_traces/SPEC06/482.sphinx3-234B.champsimtrace.xz

Region of Interest Statistics

CPU 0 cumulative IPC: 2.563 instructions: 50000002 cycles: 19510868
CPU 0 Branch Prediction Accuracy: 95.85% MPKI: 3.869 Average ROB Occupancy at Mispredict: 115.4
Branch type MPKI
BRANCH_DIRECT_JUMP: 0.00078
BRANCH_INDIRECT: 0
BRANCH_CONDITIONAL: 3.865
BRANCH_DIRECT_CALL: 0.00134
BRANCH_INDIRECT_CALL: 4e-05
BRANCH_RETURN: 0.00186

cpu0->cpu0_STLB TOTAL        ACCESS:      70522 HIT:      68869 MISS:       1653 MSHR_MERGE:          0
cpu0->cpu0_STLB LOAD         ACCESS:      70522 HIT:      68869 MISS:       1653 MSHR_MERGE:          0
cpu0->cpu0_STLB RFO          ACCESS:          0 HIT:          0 MISS:          0 MSHR_MERGE:          0
cpu0->cpu0_STLB PREFETCH     ACCESS:          0 HIT:          0 MISS:          0 MSHR_MERGE:          0
cpu0->cpu0_STLB WRITE        ACCESS:          0 HIT:          0 MISS:          0 MSHR_MERGE:          0
cpu0->cpu0_STLB TRANSLATION  ACCESS:          0 HIT:          0 MISS:          0 MSHR_MERGE:          0
cpu0->cpu0_STLB PREFETCH REQUESTED:          0 ISSUED:          0 USEFUL:          0 USELESS:          0 LATE:          0
cpu0->cpu0_STLB AVERAGE MISS LATENCY: 164.1 cycles
cpu0->cpu0_L2C TOTAL        ACCESS:    3561852 HIT:    1818752 MISS:    1743100 MSHR_MERGE:     978365
cpu0->cpu0_L2C LOAD         ACCESS:     224630 HIT:     158112 MISS:      66518 MSHR_MERGE:       4784
cpu0->cpu0_L2C RFO          ACCESS:      29720 HIT:       4658 MISS:      25062 MSHR_MERGE:          3
cpu0->cpu0_L2C PREFETCH     ACCESS:    3262083 HIT:    1611778 MISS:    1650305 MSHR_MERGE:     973578
cpu0->cpu0_L2C WRITE        ACCESS:      44100 HIT:      44008 MISS:         92 MSHR_MERGE:          0
cpu0->cpu0_L2C TRANSLATION  ACCESS:       1319 HIT:        196 MISS:       1123 MSHR_MERGE:          0
cpu0->cpu0_L2C PREFETCH REQUESTED:    2838732 ISSUED:    2706689 USEFUL:     408939 USELESS:     213209 LATE:       4787
cpu0->cpu0_L2C AVERAGE MISS LATENCY: 123.2 cycles
cpu0->cpu0_L1I TOTAL        ACCESS:    3053089 HIT:    3052825 MISS:        264 MSHR_MERGE:         57
cpu0->cpu0_L1I LOAD         ACCESS:    3053089 HIT:    3052825 MISS:        264 MSHR_MERGE:         57
cpu0->cpu0_L1I RFO          ACCESS:          0 HIT:          0 MISS:          0 MSHR_MERGE:          0
cpu0->cpu0_L1I PREFETCH     ACCESS:          0 HIT:          0 MISS:          0 MSHR_MERGE:          0
cpu0->cpu0_L1I WRITE        ACCESS:          0 HIT:          0 MISS:          0 MSHR_MERGE:          0
cpu0->cpu0_L1I TRANSLATION  ACCESS:          0 HIT:          0 MISS:          0 MSHR_MERGE:          0
cpu0->cpu0_L1I PREFETCH REQUESTED:          0 ISSUED:          0 USEFUL:          0 USELESS:          0 LATE:          0
cpu0->cpu0_L1I AVERAGE MISS LATENCY: 218.5 cycles
cpu0->cpu0_L1D TOTAL        ACCESS:   10603565 HIT:    9336356 MISS:    1267209 MSHR_MERGE:     456345
cpu0->cpu0_L1D LOAD         ACCESS:    8910043 HIT:    8370513 MISS:     539530 MSHR_MERGE:     315107
cpu0->cpu0_L1D RFO          ACCESS:          0 HIT:          0 MISS:          0 MSHR_MERGE:          0
cpu0->cpu0_L1D PREFETCH     ACCESS:     657717 HIT:      95995 MISS:     561722 MSHR_MERGE:       6321
cpu0->cpu0_L1D WRITE        ACCESS:    1032498 HIT:     867860 MISS:     164638 MSHR_MERGE:     134917
cpu0->cpu0_L1D TRANSLATION  ACCESS:       3307 HIT:       1988 MISS:       1319 MSHR_MERGE:          0
cpu0->cpu0_L1D PREFETCH REQUESTED:     659716 ISSUED:     657709 USEFUL:     468036 USELESS:      87305 LATE:      25258
cpu0->cpu0_L1D AVERAGE MISS LATENCY: 56.45 cycles
cpu0->cpu0_ITLB TOTAL        ACCESS:    1775347 HIT:    1775329 MISS:         18 MSHR_MERGE:          6
cpu0->cpu0_ITLB LOAD         ACCESS:    1775347 HIT:    1775329 MISS:         18 MSHR_MERGE:          6
cpu0->cpu0_ITLB RFO          ACCESS:          0 HIT:          0 MISS:          0 MSHR_MERGE:          0
cpu0->cpu0_ITLB PREFETCH     ACCESS:          0 HIT:          0 MISS:          0 MSHR_MERGE:          0
cpu0->cpu0_ITLB WRITE        ACCESS:          0 HIT:          0 MISS:          0 MSHR_MERGE:          0
cpu0->cpu0_ITLB TRANSLATION  ACCESS:          0 HIT:          0 MISS:          0 MSHR_MERGE:          0
cpu0->cpu0_ITLB PREFETCH REQUESTED:          0 ISSUED:          0 USEFUL:          0 USELESS:          0 LATE:          0
cpu0->cpu0_ITLB AVERAGE MISS LATENCY: 5 cycles
cpu0->cpu0_DTLB TOTAL        ACCESS:   10186193 HIT:   10064905 MISS:     121288 MSHR_MERGE:      50778
cpu0->cpu0_DTLB LOAD         ACCESS:   10186193 HIT:   10064905 MISS:     121288 MSHR_MERGE:      50778
cpu0->cpu0_DTLB RFO          ACCESS:          0 HIT:          0 MISS:          0 MSHR_MERGE:          0
cpu0->cpu0_DTLB PREFETCH     ACCESS:          0 HIT:          0 MISS:          0 MSHR_MERGE:          0
cpu0->cpu0_DTLB WRITE        ACCESS:          0 HIT:          0 MISS:          0 MSHR_MERGE:          0
cpu0->cpu0_DTLB TRANSLATION  ACCESS:          0 HIT:          0 MISS:          0 MSHR_MERGE:          0
cpu0->cpu0_DTLB PREFETCH REQUESTED:          0 ISSUED:          0 USEFUL:          0 USELESS:          0 LATE:          0
cpu0->cpu0_DTLB AVERAGE MISS LATENCY: 8.871 cycles
cpu0->LLC TOTAL        ACCESS:     800144 HIT:     194076 MISS:     606068 MSHR_MERGE:          0
cpu0->LLC LOAD         ACCESS:      61734 HIT:      25446 MISS:      36288 MSHR_MERGE:          0
cpu0->LLC RFO          ACCESS:      25059 HIT:      18631 MISS:       6428 MSHR_MERGE:          0
cpu0->LLC PREFETCH     ACCESS:     676727 HIT:     119929 MISS:     556798 MSHR_MERGE:          0
cpu0->LLC WRITE        ACCESS:      35501 HIT:      29950 MISS:       5551 MSHR_MERGE:          0
cpu0->LLC TRANSLATION  ACCESS:       1123 HIT:        120 MISS:       1003 MSHR_MERGE:          0
cpu0->LLC PREFETCH REQUESTED:          0 ISSUED:          0 USEFUL:          0 USELESS:          0 LATE:          0
cpu0->LLC AVERAGE MISS LATENCY: 191.8 cycles

DRAM Statistics

Channel 0 RQ ROW_BUFFER_HIT:      14753
  ROW_BUFFER_MISS:     585587
  AVG DBUS CONGESTED CYCLE: 4.182
Channel 0 WQ ROW_BUFFER_HIT:       2073
  ROW_BUFFER_MISS:       9298
  FULL:          0
Channel 0 REFRESHES ISSUED:       1626

[ROI Statistics]
[System Configuration]
num_cpus 1
cpu_freq 4000
fetch_width 6
decode_width 6
dispatch_width 6
execute_width 6
lq_width 2
sq_width 2
retire_width 6
scheduler_size 160
branch_mispredict_penalty 1
rob_size 352
lq_size 240
sq_size 112
ifetch_buffer_size 64
decode_buffer_size 32
dispatch_buffer_size 32
register_file_size 288
decode_latency 1
dispatch_latency 1
schedule_latency 0
execute_latency 0
page_size 4096
block_size 64
core_0_itlb_set 16
core_0_itlb_way 4
core_0_itlb_rq_size 16
core_0_itlb_wq_size 16
core_0_itlb_pq_size 0
core_0_itlb_mshr_size 8
core_0_itlb_hit_latency 1
core_0_itlb_fill_latency 1
core_0_itlb_max_tag_check 2
core_0_itlb_max_fill 2
core_0_dtlb_set 16
core_0_dtlb_way 4
core_0_dtlb_rq_size 16
core_0_dtlb_wq_size 16
core_0_dtlb_pq_size 0
core_0_dtlb_mshr_size 8
core_0_dtlb_hit_latency 1
core_0_dtlb_fill_latency 1
core_0_dtlb_max_tag_check 2
core_0_dtlb_max_fill 2
core_0_stlb_set 128
core_0_stlb_way 12
core_0_stlb_rq_size 32
core_0_stlb_wq_size 32
core_0_stlb_pq_size 0
core_0_stlb_mshr_size 16
core_0_stlb_hit_latency 4
core_0_stlb_fill_latency 4
core_0_stlb_max_tag_check 1
core_0_stlb_max_fill 1
core_0_l1i_set 64
core_0_l1i_way 8
core_0_l1i_rq_size 64
core_0_l1i_wq_size 64
core_0_l1i_pq_size 32
core_0_l1i_mshr_size 8
core_0_l1i_hit_latency 2
core_0_l1i_fill_latency 2
core_0_l1i_max_tag_check 2
core_0_l1i_max_fill 2
core_0_l1d_set 64
core_0_l1d_way 12
core_0_l1d_rq_size 64
core_0_l1d_wq_size 64
core_0_l1d_pq_size 8
core_0_l1d_mshr_size 16
core_0_l1d_hit_latency 2
core_0_l1d_fill_latency 3
core_0_l1d_max_tag_check 2
core_0_l1d_max_fill 2
core_0_l2c_set 1024
core_0_l2c_way 8
core_0_l2c_rq_size 32
core_0_l2c_wq_size 32
core_0_l2c_pq_size 16
core_0_l2c_mshr_size 32
core_0_l2c_hit_latency 5
core_0_l2c_fill_latency 5
core_0_l2c_max_tag_check 1
core_0_l2c_max_fill 1
llc_set 2048
llc_way 16
llc_rq_size 32
llc_wq_size 32
llc_pq_size 32
llc_mshr_size 64
llc_hit_latency 10
llc_fill_latency 10
llc_max_tag_check 1
llc_max_fill 1
dram_channels 1
dram_ranks 1
dram_bankgroups 8
dram_banks 4
dram_rows 16384
dram_columns 1024
dram_channel_width 8
dram_rq_size 64
dram_wq_size 64
dram_size 4294967296
core_0_itlb_prefetcher no
core_0_dtlb_prefetcher no
core_0_stlb_prefetcher no
core_0_l1i_prefetcher next_line
core_0_l1d_prefetcher berti
core_0_l2c_prefetcher pythia
llc_prefetcher no
llc_replacement drrip

Core_0_instructions 50000002
Core_0_cycles 19510868
Core_0_IPC 2.56267
Core_0_branch_prediction_accuracy 95.8523
Core_0_branch_MPKI 3.86942
Core_0_average_ROB_occupancy_at_mispredict 115.387

Core_0_ITLB_total_access 1775347
Core_0_ITLB_total_hit 1775329
Core_0_ITLB_total_miss 18
Core_0_ITLB_total_MPKI 0.00036
Core_0_ITLB_total_miss_rate 1.01389e-05
Core_0_ITLB_demand_access 1775347
Core_0_ITLB_demand_hit 1775329
Core_0_ITLB_demand_miss 18
Core_0_ITLB_demand_MPKI 0.00036
Core_0_ITLB_demand_miss_rate 1.01389e-05
Core_0_ITLB_load_access 1775347
Core_0_ITLB_load_hit 1775329
Core_0_ITLB_load_miss 18
Core_0_ITLB_load_MPKI 0.00036
Core_0_ITLB_load_miss_rate 1.01389e-05
Core_0_ITLB_rfo_access 0
Core_0_ITLB_rfo_hit 0
Core_0_ITLB_rfo_miss 0
Core_0_ITLB_rfo_MPKI 0
Core_0_ITLB_rfo_miss_rate 0
Core_0_ITLB_prefetch_access 0
Core_0_ITLB_prefetch_hit 0
Core_0_ITLB_prefetch_miss 0
Core_0_ITLB_prefetch_MPKI 0
Core_0_ITLB_prefetch_miss_rate 0
Core_0_ITLB_writeback_access 0
Core_0_ITLB_writeback_hit 0
Core_0_ITLB_writeback_miss 0
Core_0_ITLB_writeback_MPKI 0
Core_0_ITLB_writeback_miss_rate 0
Core_0_ITLB_prefetch_requested 0
Core_0_ITLB_prefetch_issued 0
Core_0_ITLB_prefetch_useful 0
Core_0_ITLB_prefetch_useless 0
Core_0_ITLB_prefetch_late 0
Core_0_ITLB_prefetch_accuracy 0
Core_0_ITLB_prefetch_coverage 0

Core_0_DTLB_total_access 10186193
Core_0_DTLB_total_hit 10064905
Core_0_DTLB_total_miss 121288
Core_0_DTLB_total_MPKI 2.42576
Core_0_DTLB_total_miss_rate 0.0119071
Core_0_DTLB_demand_access 10186193
Core_0_DTLB_demand_hit 10064905
Core_0_DTLB_demand_miss 121288
Core_0_DTLB_demand_MPKI 2.42576
Core_0_DTLB_demand_miss_rate 0.0119071
Core_0_DTLB_load_access 10186193
Core_0_DTLB_load_hit 10064905
Core_0_DTLB_load_miss 121288
Core_0_DTLB_load_MPKI 2.42576
Core_0_DTLB_load_miss_rate 0.0119071
Core_0_DTLB_rfo_access 0
Core_0_DTLB_rfo_hit 0
Core_0_DTLB_rfo_miss 0
Core_0_DTLB_rfo_MPKI 0
Core_0_DTLB_rfo_miss_rate 0
Core_0_DTLB_prefetch_access 0
Core_0_DTLB_prefetch_hit 0
Core_0_DTLB_prefetch_miss 0
Core_0_DTLB_prefetch_MPKI 0
Core_0_DTLB_prefetch_miss_rate 0
Core_0_DTLB_writeback_access 0
Core_0_DTLB_writeback_hit 0
Core_0_DTLB_writeback_miss 0
Core_0_DTLB_writeback_MPKI 0
Core_0_DTLB_writeback_miss_rate 0
Core_0_DTLB_prefetch_requested 0
Core_0_DTLB_prefetch_issued 0
Core_0_DTLB_prefetch_useful 0
Core_0_DTLB_prefetch_useless 0
Core_0_DTLB_prefetch_late 0
Core_0_DTLB_prefetch_accuracy 0
Core_0_DTLB_prefetch_coverage 0

Core_0_STLB_total_access 70522
Core_0_STLB_total_hit 68869
Core_0_STLB_total_miss 1653
Core_0_STLB_total_MPKI 0.03306
Core_0_STLB_total_miss_rate 0.0234395
Core_0_STLB_demand_access 70522
Core_0_STLB_demand_hit 68869
Core_0_STLB_demand_miss 1653
Core_0_STLB_demand_MPKI 0.03306
Core_0_STLB_demand_miss_rate 0.0234395
Core_0_STLB_load_access 70522
Core_0_STLB_load_hit 68869
Core_0_STLB_load_miss 1653
Core_0_STLB_load_MPKI 0.03306
Core_0_STLB_load_miss_rate 0.0234395
Core_0_STLB_rfo_access 0
Core_0_STLB_rfo_hit 0
Core_0_STLB_rfo_miss 0
Core_0_STLB_rfo_MPKI 0
Core_0_STLB_rfo_miss_rate 0
Core_0_STLB_prefetch_access 0
Core_0_STLB_prefetch_hit 0
Core_0_STLB_prefetch_miss 0
Core_0_STLB_prefetch_MPKI 0
Core_0_STLB_prefetch_miss_rate 0
Core_0_STLB_writeback_access 0
Core_0_STLB_writeback_hit 0
Core_0_STLB_writeback_miss 0
Core_0_STLB_writeback_MPKI 0
Core_0_STLB_writeback_miss_rate 0
Core_0_STLB_prefetch_requested 0
Core_0_STLB_prefetch_issued 0
Core_0_STLB_prefetch_useful 0
Core_0_STLB_prefetch_useless 0
Core_0_STLB_prefetch_late 0
Core_0_STLB_prefetch_accuracy 0
Core_0_STLB_prefetch_coverage 0

Core_0_L1I_total_access 3053089
Core_0_L1I_total_hit 3052825
Core_0_L1I_total_miss 264
Core_0_L1I_total_MPKI 0.00528
Core_0_L1I_total_miss_rate 8.64698e-05
Core_0_L1I_demand_access 3053089
Core_0_L1I_demand_hit 3052825
Core_0_L1I_demand_miss 264
Core_0_L1I_demand_MPKI 0.00528
Core_0_L1I_demand_miss_rate 8.64698e-05
Core_0_L1I_load_access 3053089
Core_0_L1I_load_hit 3052825
Core_0_L1I_load_miss 264
Core_0_L1I_load_MPKI 0.00528
Core_0_L1I_load_miss_rate 8.64698e-05
Core_0_L1I_rfo_access 0
Core_0_L1I_rfo_hit 0
Core_0_L1I_rfo_miss 0
Core_0_L1I_rfo_MPKI 0
Core_0_L1I_rfo_miss_rate 0
Core_0_L1I_prefetch_access 0
Core_0_L1I_prefetch_hit 0
Core_0_L1I_prefetch_miss 0
Core_0_L1I_prefetch_MPKI 0
Core_0_L1I_prefetch_miss_rate 0
Core_0_L1I_writeback_access 0
Core_0_L1I_writeback_hit 0
Core_0_L1I_writeback_miss 0
Core_0_L1I_writeback_MPKI 0
Core_0_L1I_writeback_miss_rate 0
Core_0_L1I_prefetch_requested 0
Core_0_L1I_prefetch_issued 0
Core_0_L1I_prefetch_useful 0
Core_0_L1I_prefetch_useless 0
Core_0_L1I_prefetch_late 0
Core_0_L1I_prefetch_accuracy 0
Core_0_L1I_prefetch_coverage 0

Core_0_L1D_total_access 10600258
Core_0_L1D_total_hit 9334368
Core_0_L1D_total_miss 1265890
Core_0_L1D_total_MPKI 25.3178
Core_0_L1D_total_miss_rate 0.119421
Core_0_L1D_demand_access 8910043
Core_0_L1D_demand_hit 8370513
Core_0_L1D_demand_miss 539530
Core_0_L1D_demand_MPKI 10.7906
Core_0_L1D_demand_miss_rate 0.060553
Core_0_L1D_load_access 8910043
Core_0_L1D_load_hit 8370513
Core_0_L1D_load_miss 539530
Core_0_L1D_load_MPKI 10.7906
Core_0_L1D_load_miss_rate 0.060553
Core_0_L1D_rfo_access 0
Core_0_L1D_rfo_hit 0
Core_0_L1D_rfo_miss 0
Core_0_L1D_rfo_MPKI 0
Core_0_L1D_rfo_miss_rate 0
Core_0_L1D_prefetch_access 657717
Core_0_L1D_prefetch_hit 95995
Core_0_L1D_prefetch_miss 561722
Core_0_L1D_prefetch_MPKI 11.2344
Core_0_L1D_prefetch_miss_rate 0.854048
Core_0_L1D_writeback_access 1032498
Core_0_L1D_writeback_hit 867860
Core_0_L1D_writeback_miss 164638
Core_0_L1D_writeback_MPKI 3.29276
Core_0_L1D_writeback_miss_rate 0.159456
Core_0_L1D_prefetch_requested 659716
Core_0_L1D_prefetch_issued 657709
Core_0_L1D_prefetch_useful 468036
Core_0_L1D_prefetch_useless 87305
Core_0_L1D_prefetch_late 25258
Core_0_L1D_prefetch_accuracy 0.711616
Core_0_L1D_prefetch_coverage 0.464521

Core_0_L2C_total_access 3560533
Core_0_L2C_total_hit 1818556
Core_0_L2C_total_miss 1741977
Core_0_L2C_total_MPKI 34.8395
Core_0_L2C_total_miss_rate 0.489246
Core_0_L2C_demand_access 254350
Core_0_L2C_demand_hit 162770
Core_0_L2C_demand_miss 91580
Core_0_L2C_demand_MPKI 1.8316
Core_0_L2C_demand_miss_rate 0.360055
Core_0_L2C_load_access 224630
Core_0_L2C_load_hit 158112
Core_0_L2C_load_miss 66518
Core_0_L2C_load_MPKI 1.33036
Core_0_L2C_load_miss_rate 0.296123
Core_0_L2C_rfo_access 29720
Core_0_L2C_rfo_hit 4658
Core_0_L2C_rfo_miss 25062
Core_0_L2C_rfo_MPKI 0.50124
Core_0_L2C_rfo_miss_rate 0.843271
Core_0_L2C_prefetch_access 3262083
Core_0_L2C_prefetch_hit 1611778
Core_0_L2C_prefetch_miss 1650305
Core_0_L2C_prefetch_MPKI 33.0061
Core_0_L2C_prefetch_miss_rate 0.505905
Core_0_L2C_writeback_access 44100
Core_0_L2C_writeback_hit 44008
Core_0_L2C_writeback_miss 92
Core_0_L2C_writeback_MPKI 0.00184
Core_0_L2C_writeback_miss_rate 0.00208617
Core_0_L2C_prefetch_requested 2838732
Core_0_L2C_prefetch_issued 2706689
Core_0_L2C_prefetch_useful 408939
Core_0_L2C_prefetch_useless 213209
Core_0_L2C_prefetch_late 4787
Core_0_L2C_prefetch_accuracy 0.151085
Core_0_L2C_prefetch_coverage 0.81703

Core_0_LLC_total_access 799021
Core_0_LLC_total_hit 193956
Core_0_LLC_total_miss 605065
Core_0_LLC_total_MPKI 12.1013
Core_0_LLC_total_miss_rate 0.757258
Core_0_LLC_demand_access 86793
Core_0_LLC_demand_hit 44077
Core_0_LLC_demand_miss 42716
Core_0_LLC_demand_MPKI 0.85432
Core_0_LLC_demand_miss_rate 0.49216
Core_0_LLC_load_access 61734
Core_0_LLC_load_hit 25446
Core_0_LLC_load_miss 36288
Core_0_LLC_load_MPKI 0.72576
Core_0_LLC_load_miss_rate 0.587812
Core_0_LLC_rfo_access 25059
Core_0_LLC_rfo_hit 18631
Core_0_LLC_rfo_miss 6428
Core_0_LLC_rfo_MPKI 0.12856
Core_0_LLC_rfo_miss_rate 0.256515
Core_0_LLC_prefetch_access 676727
Core_0_LLC_prefetch_hit 119929
Core_0_LLC_prefetch_miss 556798
Core_0_LLC_prefetch_MPKI 11.136
Core_0_LLC_prefetch_miss_rate 0.822781
Core_0_LLC_writeback_access 35501
Core_0_LLC_writeback_hit 29950
Core_0_LLC_writeback_miss 5551
Core_0_LLC_writeback_MPKI 0.11102
Core_0_LLC_writeback_miss_rate 0.156362
Core_0_LLC_prefetch_requested 0
Core_0_LLC_prefetch_issued 0
Core_0_LLC_prefetch_useful 0
Core_0_LLC_prefetch_useless 0
Core_0_LLC_prefetch_late 0
Core_0_LLC_prefetch_accuracy 0
Core_0_LLC_prefetch_coverage 0

[DRAM Statistics]
Channel_0_RQ_row_buffer_hit 14753
Channel_0_RQ_row_buffer_miss 585587
Channel_0_WQ_row_buffer_hit 2073
Channel_0_WQ_row_buffer_miss 9298
Channel_0_WQ_full 0
Channel_0_dbus_congested 990183
DRAM_total_RQ_row_buffer_hit 14753
DRAM_total_RQ_row_buffer_miss 585587
DRAM_total_WQ_row_buffer_hit 2073
DRAM_total_WQ_row_buffer_miss 9298
DRAM_total_WQ_full 0
DRAM_total_dbus_congested 990183
DRAM_avg_congested_cycle 4.18205

======STLB miss causes ========
Core_0_STLB_miss_cause_breakdown
Core_0_STLB_cause_Demand_Data_miss 0
Core_0_STLB_cause_Demand_Data_miss_rate 0
Core_0_STLB_cause_Demand_Instruction_miss 0
Core_0_STLB_cause_Demand_Instruction_miss_rate 0
Core_0_STLB_cause_L1D_Prefetch_miss 1653
Core_0_STLB_cause_L1D_Prefetch_miss_rate 0.0234395
Core_0_STLB_cause_L1I_Prefetch_miss 0
Core_0_STLB_cause_L1I_Prefetch_miss_rate 0
Core_0_STLB_cause_Other_miss 0
Core_0_STLB_cause_Other_miss_rate 0
Core_0_STLB_Demand_miss 0
Core_0_STLB_Demand_miss_rate 0
Core_0_STLB_L1D_Prefetch_miss 1653
Core_0_STLB_L1D_Prefetch_miss_rate 0.0234395
Core_0_STLB_Other_miss 0
Core_0_STLB_Other_miss_rate 0
