[VMEM] WARNING: physical memory size is smaller than virtual memory size.

*** ChampSim Multicore Out-of-Order Simulator ***
Warmup Instructions: 20000000
Simulation Instructions: 50000000
Number of CPUs: 1
Page size: 4096
STLB ideal mode: demand
Core 0: /data0/tzh/champsim_traces/SPEC17/627.cam4_s-490B.champsimtrace.xz
 L1D Berti prefetcher
Off-chip DRAM Size: 4 GiB Channels: 1 Width: 64-bit Data Rate: 3205 MT/s
Warmup halting CPU 0 at instruction 20000004 cycle 4290925 for remainder of phase
Warmup finished CPU 0 instructions: 20000004 cycles: 4290925 cumulative IPC: 4.661 (Simulation time: 00 hr 00 min 52 sec)
Warmup complete CPU 0 instructions: 20000004 cycles: 4290925 cumulative IPC: 4.661 (Simulation time: 00 hr 00 min 52 sec)
Simulation finished CPU 0 instructions: 50000004 cycles: 21607659 cumulative IPC: 2.314 (Simulation time: 00 hr 04 min 01 sec)
Simulation complete CPU 0 instructions: 50000004 cycles: 21607659 cumulative IPC: 2.314 (Simulation time: 00 hr 04 min 01 sec)

ChampSim completed all CPUs

=== Simulation ===
CPU 0 runs /data0/tzh/champsim_traces/SPEC17/627.cam4_s-490B.champsimtrace.xz

Region of Interest Statistics

CPU 0 cumulative IPC: 2.314 instructions: 50000004 cycles: 21607659
CPU 0 Branch Prediction Accuracy: 93.9% MPKI: 5.873 Average ROB Occupancy at Mispredict: 43.06
Branch type MPKI
BRANCH_DIRECT_JUMP: 0.00564
BRANCH_INDIRECT: 0
BRANCH_CONDITIONAL: 5.868
BRANCH_DIRECT_CALL: 0
BRANCH_INDIRECT_CALL: 0
BRANCH_RETURN: 2e-05

cpu0->cpu0_STLB TOTAL        ACCESS:      15755 HIT:      15675 MISS:         80 MSHR_MERGE:          0
cpu0->cpu0_STLB LOAD         ACCESS:      15755 HIT:      15675 MISS:         80 MSHR_MERGE:          0
cpu0->cpu0_STLB RFO          ACCESS:          0 HIT:          0 MISS:          0 MSHR_MERGE:          0
cpu0->cpu0_STLB PREFETCH     ACCESS:          0 HIT:          0 MISS:          0 MSHR_MERGE:          0
cpu0->cpu0_STLB WRITE        ACCESS:          0 HIT:          0 MISS:          0 MSHR_MERGE:          0
cpu0->cpu0_STLB TRANSLATION  ACCESS:          0 HIT:          0 MISS:          0 MSHR_MERGE:          0
cpu0->cpu0_STLB PREFETCH REQUESTED:          0 ISSUED:          0 USEFUL:          0 USELESS:          0 LATE:          0
cpu0->cpu0_STLB AVERAGE MISS LATENCY: 430.5 cycles
cpu0->cpu0_L2C TOTAL        ACCESS:    3381558 HIT:    2572218 MISS:     809340 MSHR_MERGE:     172625
cpu0->cpu0_L2C LOAD         ACCESS:     176629 HIT:     134822 MISS:      41807 MSHR_MERGE:      14348
cpu0->cpu0_L2C RFO          ACCESS:     266316 HIT:      17300 MISS:     249016 MSHR_MERGE:        177
cpu0->cpu0_L2C PREFETCH     ACCESS:    2555316 HIT:    2037551 MISS:     517765 MSHR_MERGE:     158100
cpu0->cpu0_L2C WRITE        ACCESS:     383212 HIT:     382545 MISS:        667 MSHR_MERGE:          0
cpu0->cpu0_L2C TRANSLATION  ACCESS:         85 HIT:          0 MISS:         85 MSHR_MERGE:          0
cpu0->cpu0_L2C PREFETCH REQUESTED:    2512051 ISSUED:    2087609 USEFUL:     297996 USELESS:      25539 LATE:      14525
cpu0->cpu0_L2C AVERAGE MISS LATENCY: 144.7 cycles
cpu0->cpu0_L1I TOTAL        ACCESS:    2297562 HIT:    2297001 MISS:        561 MSHR_MERGE:        449
cpu0->cpu0_L1I LOAD         ACCESS:    2297562 HIT:    2297001 MISS:        561 MSHR_MERGE:        449
cpu0->cpu0_L1I RFO          ACCESS:          0 HIT:          0 MISS:          0 MSHR_MERGE:          0
cpu0->cpu0_L1I PREFETCH     ACCESS:          0 HIT:          0 MISS:          0 MSHR_MERGE:          0
cpu0->cpu0_L1I WRITE        ACCESS:          0 HIT:          0 MISS:          0 MSHR_MERGE:          0
cpu0->cpu0_L1I TRANSLATION  ACCESS:          0 HIT:          0 MISS:          0 MSHR_MERGE:          0
cpu0->cpu0_L1I PREFETCH REQUESTED:          0 ISSUED:          0 USEFUL:          0 USELESS:          0 LATE:          0
cpu0->cpu0_L1I AVERAGE MISS LATENCY: 339.7 cycles
cpu0->cpu0_L1D TOTAL        ACCESS:    9256494 HIT:    7057940 MISS:    2198554 MSHR_MERGE:    1287924
cpu0->cpu0_L1D LOAD         ACCESS:    5433577 HIT:    5128451 MISS:     305126 MSHR_MERGE:     128609
cpu0->cpu0_L1D RFO          ACCESS:          0 HIT:          0 MISS:          0 MSHR_MERGE:          0
cpu0->cpu0_L1D PREFETCH     ACCESS:     570471 HIT:      69880 MISS:     500591 MSHR_MERGE:      32879
cpu0->cpu0_L1D WRITE        ACCESS:    3252275 HIT:    1859523 MISS:    1392752 MSHR_MERGE:    1126436
cpu0->cpu0_L1D TRANSLATION  ACCESS:        171 HIT:         86 MISS:         85 MSHR_MERGE:          0
cpu0->cpu0_L1D PREFETCH REQUESTED:     644538 ISSUED:     570471 USEFUL:     460058 USELESS:       7623 LATE:      31275
cpu0->cpu0_L1D AVERAGE MISS LATENCY: 104.2 cycles
cpu0->cpu0_ITLB TOTAL        ACCESS:    2025412 HIT:    2025412 MISS:          0 MSHR_MERGE:          0
cpu0->cpu0_ITLB LOAD         ACCESS:    2025412 HIT:    2025412 MISS:          0 MSHR_MERGE:          0
cpu0->cpu0_ITLB RFO          ACCESS:          0 HIT:          0 MISS:          0 MSHR_MERGE:          0
cpu0->cpu0_ITLB PREFETCH     ACCESS:          0 HIT:          0 MISS:          0 MSHR_MERGE:          0
cpu0->cpu0_ITLB WRITE        ACCESS:          0 HIT:          0 MISS:          0 MSHR_MERGE:          0
cpu0->cpu0_ITLB TRANSLATION  ACCESS:          0 HIT:          0 MISS:          0 MSHR_MERGE:          0
cpu0->cpu0_ITLB PREFETCH REQUESTED:          0 ISSUED:          0 USEFUL:          0 USELESS:          0 LATE:          0
cpu0->cpu0_ITLB AVERAGE MISS LATENCY: - cycles
cpu0->cpu0_DTLB TOTAL        ACCESS:    8711393 HIT:    8684712 MISS:      26681 MSHR_MERGE:      10926
cpu0->cpu0_DTLB LOAD         ACCESS:    8711393 HIT:    8684712 MISS:      26681 MSHR_MERGE:      10926
cpu0->cpu0_DTLB RFO          ACCESS:          0 HIT:          0 MISS:          0 MSHR_MERGE:          0
cpu0->cpu0_DTLB PREFETCH     ACCESS:          0 HIT:          0 MISS:          0 MSHR_MERGE:          0
cpu0->cpu0_DTLB WRITE        ACCESS:          0 HIT:          0 MISS:          0 MSHR_MERGE:          0
cpu0->cpu0_DTLB TRANSLATION  ACCESS:          0 HIT:          0 MISS:          0 MSHR_MERGE:          0
cpu0->cpu0_DTLB PREFETCH REQUESTED:          0 ISSUED:          0 USEFUL:          0 USELESS:          0 LATE:          0
cpu0->cpu0_DTLB AVERAGE MISS LATENCY: 7.191 cycles
cpu0->LLC TOTAL        ACCESS:     952623 HIT:     622494 MISS:     330129 MSHR_MERGE:          0
cpu0->LLC LOAD         ACCESS:      27456 HIT:      18699 MISS:       8757 MSHR_MERGE:          0
cpu0->LLC RFO          ACCESS:     248839 HIT:     150507 MISS:      98332 MSHR_MERGE:          0
cpu0->LLC PREFETCH     ACCESS:     359661 HIT:     231922 MISS:     127739 MSHR_MERGE:          0
cpu0->LLC WRITE        ACCESS:     316582 HIT:     221360 MISS:      95222 MSHR_MERGE:          0
cpu0->LLC TRANSLATION  ACCESS:         85 HIT:          6 MISS:         79 MSHR_MERGE:          0
cpu0->LLC PREFETCH REQUESTED:          0 ISSUED:          0 USEFUL:          0 USELESS:          0 LATE:          0
cpu0->LLC AVERAGE MISS LATENCY: 175.2 cycles

DRAM Statistics

Channel 0 RQ ROW_BUFFER_HIT:      25272
  ROW_BUFFER_MISS:     209063
  AVG DBUS CONGESTED CYCLE: 7.062
Channel 0 WQ ROW_BUFFER_HIT:      15541
  ROW_BUFFER_MISS:     120423
  FULL:       7041
Channel 0 REFRESHES ISSUED:       1801

[ROI Statistics]
[System Configuration]
num_cpus 1
cpu_freq 4000
fetch_width 6
decode_width 6
dispatch_width 6
execute_width 6
lq_width 2
sq_width 2
retire_width 6
scheduler_size 160
branch_mispredict_penalty 1
rob_size 352
lq_size 240
sq_size 112
ifetch_buffer_size 64
decode_buffer_size 32
dispatch_buffer_size 32
register_file_size 288
decode_latency 1
dispatch_latency 1
schedule_latency 0
execute_latency 0
page_size 4096
block_size 64
core_0_itlb_set 16
core_0_itlb_way 4
core_0_itlb_rq_size 16
core_0_itlb_wq_size 16
core_0_itlb_pq_size 0
core_0_itlb_mshr_size 8
core_0_itlb_hit_latency 1
core_0_itlb_fill_latency 1
core_0_itlb_max_tag_check 2
core_0_itlb_max_fill 2
core_0_dtlb_set 16
core_0_dtlb_way 4
core_0_dtlb_rq_size 16
core_0_dtlb_wq_size 16
core_0_dtlb_pq_size 0
core_0_dtlb_mshr_size 8
core_0_dtlb_hit_latency 1
core_0_dtlb_fill_latency 1
core_0_dtlb_max_tag_check 2
core_0_dtlb_max_fill 2
core_0_stlb_set 128
core_0_stlb_way 12
core_0_stlb_rq_size 32
core_0_stlb_wq_size 32
core_0_stlb_pq_size 0
core_0_stlb_mshr_size 16
core_0_stlb_hit_latency 4
core_0_stlb_fill_latency 4
core_0_stlb_max_tag_check 1
core_0_stlb_max_fill 1
core_0_l1i_set 64
core_0_l1i_way 8
core_0_l1i_rq_size 64
core_0_l1i_wq_size 64
core_0_l1i_pq_size 32
core_0_l1i_mshr_size 8
core_0_l1i_hit_latency 2
core_0_l1i_fill_latency 2
core_0_l1i_max_tag_check 2
core_0_l1i_max_fill 2
core_0_l1d_set 64
core_0_l1d_way 12
core_0_l1d_rq_size 64
core_0_l1d_wq_size 64
core_0_l1d_pq_size 8
core_0_l1d_mshr_size 16
core_0_l1d_hit_latency 2
core_0_l1d_fill_latency 3
core_0_l1d_max_tag_check 2
core_0_l1d_max_fill 2
core_0_l2c_set 1024
core_0_l2c_way 8
core_0_l2c_rq_size 32
core_0_l2c_wq_size 32
core_0_l2c_pq_size 16
core_0_l2c_mshr_size 32
core_0_l2c_hit_latency 5
core_0_l2c_fill_latency 5
core_0_l2c_max_tag_check 1
core_0_l2c_max_fill 1
llc_set 2048
llc_way 16
llc_rq_size 32
llc_wq_size 32
llc_pq_size 32
llc_mshr_size 64
llc_hit_latency 10
llc_fill_latency 10
llc_max_tag_check 1
llc_max_fill 1
dram_channels 1
dram_ranks 1
dram_bankgroups 8
dram_banks 4
dram_rows 16384
dram_columns 1024
dram_channel_width 8
dram_rq_size 64
dram_wq_size 64
dram_size 4294967296
core_0_itlb_prefetcher no
core_0_dtlb_prefetcher no
core_0_stlb_prefetcher no
core_0_l1i_prefetcher next_line
core_0_l1d_prefetcher berti
core_0_l2c_prefetcher pythia
llc_prefetcher no
llc_replacement drrip

Core_0_instructions 50000004
Core_0_cycles 21607659
Core_0_IPC 2.31399
Core_0_branch_prediction_accuracy 93.8969
Core_0_branch_MPKI 5.87328
Core_0_average_ROB_occupancy_at_mispredict 43.0644

Core_0_ITLB_total_access 2025412
Core_0_ITLB_total_hit 2025412
Core_0_ITLB_total_miss 0
Core_0_ITLB_total_MPKI 0
Core_0_ITLB_total_miss_rate 0
Core_0_ITLB_demand_access 2025412
Core_0_ITLB_demand_hit 2025412
Core_0_ITLB_demand_miss 0
Core_0_ITLB_demand_MPKI 0
Core_0_ITLB_demand_miss_rate 0
Core_0_ITLB_load_access 2025412
Core_0_ITLB_load_hit 2025412
Core_0_ITLB_load_miss 0
Core_0_ITLB_load_MPKI 0
Core_0_ITLB_load_miss_rate 0
Core_0_ITLB_rfo_access 0
Core_0_ITLB_rfo_hit 0
Core_0_ITLB_rfo_miss 0
Core_0_ITLB_rfo_MPKI 0
Core_0_ITLB_rfo_miss_rate 0
Core_0_ITLB_prefetch_access 0
Core_0_ITLB_prefetch_hit 0
Core_0_ITLB_prefetch_miss 0
Core_0_ITLB_prefetch_MPKI 0
Core_0_ITLB_prefetch_miss_rate 0
Core_0_ITLB_writeback_access 0
Core_0_ITLB_writeback_hit 0
Core_0_ITLB_writeback_miss 0
Core_0_ITLB_writeback_MPKI 0
Core_0_ITLB_writeback_miss_rate 0
Core_0_ITLB_prefetch_requested 0
Core_0_ITLB_prefetch_issued 0
Core_0_ITLB_prefetch_useful 0
Core_0_ITLB_prefetch_useless 0
Core_0_ITLB_prefetch_late 0
Core_0_ITLB_prefetch_accuracy 0
Core_0_ITLB_prefetch_coverage 0

Core_0_DTLB_total_access 8711393
Core_0_DTLB_total_hit 8684712
Core_0_DTLB_total_miss 26681
Core_0_DTLB_total_MPKI 0.53362
Core_0_DTLB_total_miss_rate 0.00306277
Core_0_DTLB_demand_access 8711393
Core_0_DTLB_demand_hit 8684712
Core_0_DTLB_demand_miss 26681
Core_0_DTLB_demand_MPKI 0.53362
Core_0_DTLB_demand_miss_rate 0.00306277
Core_0_DTLB_load_access 8711393
Core_0_DTLB_load_hit 8684712
Core_0_DTLB_load_miss 26681
Core_0_DTLB_load_MPKI 0.53362
Core_0_DTLB_load_miss_rate 0.00306277
Core_0_DTLB_rfo_access 0
Core_0_DTLB_rfo_hit 0
Core_0_DTLB_rfo_miss 0
Core_0_DTLB_rfo_MPKI 0
Core_0_DTLB_rfo_miss_rate 0
Core_0_DTLB_prefetch_access 0
Core_0_DTLB_prefetch_hit 0
Core_0_DTLB_prefetch_miss 0
Core_0_DTLB_prefetch_MPKI 0
Core_0_DTLB_prefetch_miss_rate 0
Core_0_DTLB_writeback_access 0
Core_0_DTLB_writeback_hit 0
Core_0_DTLB_writeback_miss 0
Core_0_DTLB_writeback_MPKI 0
Core_0_DTLB_writeback_miss_rate 0
Core_0_DTLB_prefetch_requested 0
Core_0_DTLB_prefetch_issued 0
Core_0_DTLB_prefetch_useful 0
Core_0_DTLB_prefetch_useless 0
Core_0_DTLB_prefetch_late 0
Core_0_DTLB_prefetch_accuracy 0
Core_0_DTLB_prefetch_coverage 0

Core_0_STLB_total_access 15755
Core_0_STLB_total_hit 15675
Core_0_STLB_total_miss 80
Core_0_STLB_total_MPKI 0.0016
Core_0_STLB_total_miss_rate 0.00507775
Core_0_STLB_demand_access 15755
Core_0_STLB_demand_hit 15675
Core_0_STLB_demand_miss 80
Core_0_STLB_demand_MPKI 0.0016
Core_0_STLB_demand_miss_rate 0.00507775
Core_0_STLB_load_access 15755
Core_0_STLB_load_hit 15675
Core_0_STLB_load_miss 80
Core_0_STLB_load_MPKI 0.0016
Core_0_STLB_load_miss_rate 0.00507775
Core_0_STLB_rfo_access 0
Core_0_STLB_rfo_hit 0
Core_0_STLB_rfo_miss 0
Core_0_STLB_rfo_MPKI 0
Core_0_STLB_rfo_miss_rate 0
Core_0_STLB_prefetch_access 0
Core_0_STLB_prefetch_hit 0
Core_0_STLB_prefetch_miss 0
Core_0_STLB_prefetch_MPKI 0
Core_0_STLB_prefetch_miss_rate 0
Core_0_STLB_writeback_access 0
Core_0_STLB_writeback_hit 0
Core_0_STLB_writeback_miss 0
Core_0_STLB_writeback_MPKI 0
Core_0_STLB_writeback_miss_rate 0
Core_0_STLB_prefetch_requested 0
Core_0_STLB_prefetch_issued 0
Core_0_STLB_prefetch_useful 0
Core_0_STLB_prefetch_useless 0
Core_0_STLB_prefetch_late 0
Core_0_STLB_prefetch_accuracy 0
Core_0_STLB_prefetch_coverage 0

Core_0_L1I_total_access 2297562
Core_0_L1I_total_hit 2297001
Core_0_L1I_total_miss 561
Core_0_L1I_total_MPKI 0.01122
Core_0_L1I_total_miss_rate 0.000244172
Core_0_L1I_demand_access 2297562
Core_0_L1I_demand_hit 2297001
Core_0_L1I_demand_miss 561
Core_0_L1I_demand_MPKI 0.01122
Core_0_L1I_demand_miss_rate 0.000244172
Core_0_L1I_load_access 2297562
Core_0_L1I_load_hit 2297001
Core_0_L1I_load_miss 561
Core_0_L1I_load_MPKI 0.01122
Core_0_L1I_load_miss_rate 0.000244172
Core_0_L1I_rfo_access 0
Core_0_L1I_rfo_hit 0
Core_0_L1I_rfo_miss 0
Core_0_L1I_rfo_MPKI 0
Core_0_L1I_rfo_miss_rate 0
Core_0_L1I_prefetch_access 0
Core_0_L1I_prefetch_hit 0
Core_0_L1I_prefetch_miss 0
Core_0_L1I_prefetch_MPKI 0
Core_0_L1I_prefetch_miss_rate 0
Core_0_L1I_writeback_access 0
Core_0_L1I_writeback_hit 0
Core_0_L1I_writeback_miss 0
Core_0_L1I_writeback_MPKI 0
Core_0_L1I_writeback_miss_rate 0
Core_0_L1I_prefetch_requested 0
Core_0_L1I_prefetch_issued 0
Core_0_L1I_prefetch_useful 0
Core_0_L1I_prefetch_useless 0
Core_0_L1I_prefetch_late 0
Core_0_L1I_prefetch_accuracy 0
Core_0_L1I_prefetch_coverage 0

Core_0_L1D_total_access 9256323
Core_0_L1D_total_hit 7057854
Core_0_L1D_total_miss 2198469
Core_0_L1D_total_MPKI 43.9694
Core_0_L1D_total_miss_rate 0.23751
Core_0_L1D_demand_access 5433577
Core_0_L1D_demand_hit 5128451
Core_0_L1D_demand_miss 305126
Core_0_L1D_demand_MPKI 6.10252
Core_0_L1D_demand_miss_rate 0.0561556
Core_0_L1D_load_access 5433577
Core_0_L1D_load_hit 5128451
Core_0_L1D_load_miss 305126
Core_0_L1D_load_MPKI 6.10252
Core_0_L1D_load_miss_rate 0.0561556
Core_0_L1D_rfo_access 0
Core_0_L1D_rfo_hit 0
Core_0_L1D_rfo_miss 0
Core_0_L1D_rfo_MPKI 0
Core_0_L1D_rfo_miss_rate 0
Core_0_L1D_prefetch_access 570471
Core_0_L1D_prefetch_hit 69880
Core_0_L1D_prefetch_miss 500591
Core_0_L1D_prefetch_MPKI 10.0118
Core_0_L1D_prefetch_miss_rate 0.877505
Core_0_L1D_writeback_access 3252275
Core_0_L1D_writeback_hit 1859523
Core_0_L1D_writeback_miss 1392752
Core_0_L1D_writeback_MPKI 27.855
Core_0_L1D_writeback_miss_rate 0.428239
Core_0_L1D_prefetch_requested 644538
Core_0_L1D_prefetch_issued 570471
Core_0_L1D_prefetch_useful 460058
Core_0_L1D_prefetch_useless 7623
Core_0_L1D_prefetch_late 31275
Core_0_L1D_prefetch_accuracy 0.806453
Core_0_L1D_prefetch_coverage 0.601238

Core_0_L2C_total_access 3381473
Core_0_L2C_total_hit 2572218
Core_0_L2C_total_miss 809255
Core_0_L2C_total_MPKI 16.1851
Core_0_L2C_total_miss_rate 0.23932
Core_0_L2C_demand_access 442945
Core_0_L2C_demand_hit 152122
Core_0_L2C_demand_miss 290823
Core_0_L2C_demand_MPKI 5.81646
Core_0_L2C_demand_miss_rate 0.656567
Core_0_L2C_load_access 176629
Core_0_L2C_load_hit 134822
Core_0_L2C_load_miss 41807
Core_0_L2C_load_MPKI 0.83614
Core_0_L2C_load_miss_rate 0.236694
Core_0_L2C_rfo_access 266316
Core_0_L2C_rfo_hit 17300
Core_0_L2C_rfo_miss 249016
Core_0_L2C_rfo_MPKI 4.98032
Core_0_L2C_rfo_miss_rate 0.93504
Core_0_L2C_prefetch_access 2555316
Core_0_L2C_prefetch_hit 2037551
Core_0_L2C_prefetch_miss 517765
Core_0_L2C_prefetch_MPKI 10.3553
Core_0_L2C_prefetch_miss_rate 0.202623
Core_0_L2C_writeback_access 383212
Core_0_L2C_writeback_hit 382545
Core_0_L2C_writeback_miss 667
Core_0_L2C_writeback_MPKI 0.01334
Core_0_L2C_writeback_miss_rate 0.00174055
Core_0_L2C_prefetch_requested 2512051
Core_0_L2C_prefetch_issued 2087609
Core_0_L2C_prefetch_useful 297996
Core_0_L2C_prefetch_useless 25539
Core_0_L2C_prefetch_late 14525
Core_0_L2C_prefetch_accuracy 0.142745
Core_0_L2C_prefetch_coverage 0.506091

Core_0_LLC_total_access 952538
Core_0_LLC_total_hit 622488
Core_0_LLC_total_miss 330050
Core_0_LLC_total_MPKI 6.601
Core_0_LLC_total_miss_rate 0.346495
Core_0_LLC_demand_access 276295
Core_0_LLC_demand_hit 169206
Core_0_LLC_demand_miss 107089
Core_0_LLC_demand_MPKI 2.14178
Core_0_LLC_demand_miss_rate 0.387589
Core_0_LLC_load_access 27456
Core_0_LLC_load_hit 18699
Core_0_LLC_load_miss 8757
Core_0_LLC_load_MPKI 0.17514
Core_0_LLC_load_miss_rate 0.318947
Core_0_LLC_rfo_access 248839
Core_0_LLC_rfo_hit 150507
Core_0_LLC_rfo_miss 98332
Core_0_LLC_rfo_MPKI 1.96664
Core_0_LLC_rfo_miss_rate 0.395163
Core_0_LLC_prefetch_access 359661
Core_0_LLC_prefetch_hit 231922
Core_0_LLC_prefetch_miss 127739
Core_0_LLC_prefetch_MPKI 2.55478
Core_0_LLC_prefetch_miss_rate 0.355165
Core_0_LLC_writeback_access 316582
Core_0_LLC_writeback_hit 221360
Core_0_LLC_writeback_miss 95222
Core_0_LLC_writeback_MPKI 1.90444
Core_0_LLC_writeback_miss_rate 0.300781
Core_0_LLC_prefetch_requested 0
Core_0_LLC_prefetch_issued 0
Core_0_LLC_prefetch_useful 0
Core_0_LLC_prefetch_useless 0
Core_0_LLC_prefetch_late 0
Core_0_LLC_prefetch_accuracy 0
Core_0_LLC_prefetch_coverage 0

[DRAM Statistics]
Channel_0_RQ_row_buffer_hit 25272
Channel_0_RQ_row_buffer_miss 209063
Channel_0_WQ_row_buffer_hit 15541
Channel_0_WQ_row_buffer_miss 120423
Channel_0_WQ_full 7041
Channel_0_dbus_congested 1075994
DRAM_total_RQ_row_buffer_hit 25272
DRAM_total_RQ_row_buffer_miss 209063
DRAM_total_WQ_row_buffer_hit 15541
DRAM_total_WQ_row_buffer_miss 120423
DRAM_total_WQ_full 7041
DRAM_total_dbus_congested 1075994
DRAM_avg_congested_cycle 7.06185

======STLB miss causes ========
Core_0_STLB_miss_cause_breakdown
Core_0_STLB_cause_Demand_Data_miss 0
Core_0_STLB_cause_Demand_Data_miss_rate 0
Core_0_STLB_cause_Demand_Instruction_miss 0
Core_0_STLB_cause_Demand_Instruction_miss_rate 0
Core_0_STLB_cause_L1D_Prefetch_miss 80
Core_0_STLB_cause_L1D_Prefetch_miss_rate 0.00507775
Core_0_STLB_cause_L1I_Prefetch_miss 0
Core_0_STLB_cause_L1I_Prefetch_miss_rate 0
Core_0_STLB_cause_Other_miss 0
Core_0_STLB_cause_Other_miss_rate 0
Core_0_STLB_Demand_miss 0
Core_0_STLB_Demand_miss_rate 0
Core_0_STLB_L1D_Prefetch_miss 80
Core_0_STLB_L1D_Prefetch_miss_rate 0.00507775
Core_0_STLB_Other_miss 0
Core_0_STLB_Other_miss_rate 0
