[VMEM] WARNING: physical memory size is smaller than virtual memory size.

*** ChampSim Multicore Out-of-Order Simulator ***
Warmup Instructions: 20000000
Simulation Instructions: 50000000
Number of CPUs: 1
Page size: 4096
STLB ideal mode: demand
Core 0: /data0/tzh/champsim_traces/SPEC17/641.leela_s-334B.champsimtrace.xz
 L1D Berti prefetcher
Off-chip DRAM Size: 4 GiB Channels: 1 Width: 64-bit Data Rate: 3205 MT/s
Warmup halting CPU 0 at instruction 20000004 cycle 4442518 for remainder of phase
Warmup finished CPU 0 instructions: 20000004 cycles: 4442518 cumulative IPC: 4.502 (Simulation time: 00 hr 00 min 52 sec)
Warmup complete CPU 0 instructions: 20000004 cycles: 4442518 cumulative IPC: 4.502 (Simulation time: 00 hr 00 min 52 sec)
Simulation finished CPU 0 instructions: 50000000 cycles: 32855138 cumulative IPC: 1.522 (Simulation time: 00 hr 04 min 34 sec)
Simulation complete CPU 0 instructions: 50000000 cycles: 32855138 cumulative IPC: 1.522 (Simulation time: 00 hr 04 min 34 sec)

ChampSim completed all CPUs

=== Simulation ===
CPU 0 runs /data0/tzh/champsim_traces/SPEC17/641.leela_s-334B.champsimtrace.xz

Region of Interest Statistics

CPU 0 cumulative IPC: 1.522 instructions: 50000000 cycles: 32855138
CPU 0 Branch Prediction Accuracy: 88.98% MPKI: 19.29 Average ROB Occupancy at Mispredict: 25.9
Branch type MPKI
BRANCH_DIRECT_JUMP: 0.1991
BRANCH_INDIRECT: 0.00166
BRANCH_CONDITIONAL: 19.06
BRANCH_DIRECT_CALL: 0
BRANCH_INDIRECT_CALL: 0
BRANCH_RETURN: 0.02578

cpu0->cpu0_STLB TOTAL        ACCESS:      36062 HIT:      35965 MISS:         97 MSHR_MERGE:          0
cpu0->cpu0_STLB LOAD         ACCESS:      36062 HIT:      35965 MISS:         97 MSHR_MERGE:          0
cpu0->cpu0_STLB RFO          ACCESS:          0 HIT:          0 MISS:          0 MSHR_MERGE:          0
cpu0->cpu0_STLB PREFETCH     ACCESS:          0 HIT:          0 MISS:          0 MSHR_MERGE:          0
cpu0->cpu0_STLB WRITE        ACCESS:          0 HIT:          0 MISS:          0 MSHR_MERGE:          0
cpu0->cpu0_STLB TRANSLATION  ACCESS:          0 HIT:          0 MISS:          0 MSHR_MERGE:          0
cpu0->cpu0_STLB PREFETCH REQUESTED:          0 ISSUED:          0 USEFUL:          0 USELESS:          0 LATE:          0
cpu0->cpu0_STLB AVERAGE MISS LATENCY: 166.9 cycles
cpu0->cpu0_L2C TOTAL        ACCESS:     302328 HIT:     295803 MISS:       6525 MSHR_MERGE:        584
cpu0->cpu0_L2C LOAD         ACCESS:      46598 HIT:      45840 MISS:        758 MSHR_MERGE:         14
cpu0->cpu0_L2C RFO          ACCESS:      28857 HIT:      28698 MISS:        159 MSHR_MERGE:          0
cpu0->cpu0_L2C PREFETCH     ACCESS:     179294 HIT:     173761 MISS:       5533 MSHR_MERGE:        570
cpu0->cpu0_L2C WRITE        ACCESS:      47483 HIT:      47465 MISS:         18 MSHR_MERGE:          0
cpu0->cpu0_L2C TRANSLATION  ACCESS:         96 HIT:         39 MISS:         57 MSHR_MERGE:          0
cpu0->cpu0_L2C PREFETCH REQUESTED:     127243 ISSUED:     127197 USEFUL:       1523 USELESS:       2012 LATE:         14
cpu0->cpu0_L2C AVERAGE MISS LATENCY: 104 cycles
cpu0->cpu0_L1I TOTAL        ACCESS:     349773 HIT:     349772 MISS:          1 MSHR_MERGE:          0
cpu0->cpu0_L1I LOAD         ACCESS:     349773 HIT:     349772 MISS:          1 MSHR_MERGE:          0
cpu0->cpu0_L1I RFO          ACCESS:          0 HIT:          0 MISS:          0 MSHR_MERGE:          0
cpu0->cpu0_L1I PREFETCH     ACCESS:          0 HIT:          0 MISS:          0 MSHR_MERGE:          0
cpu0->cpu0_L1I WRITE        ACCESS:          0 HIT:          0 MISS:          0 MSHR_MERGE:          0
cpu0->cpu0_L1I TRANSLATION  ACCESS:          0 HIT:          0 MISS:          0 MSHR_MERGE:          0
cpu0->cpu0_L1I PREFETCH REQUESTED:          0 ISSUED:          0 USEFUL:          0 USELESS:          0 LATE:          0
cpu0->cpu0_L1I AVERAGE MISS LATENCY: 164 cycles
cpu0->cpu0_L1D TOTAL        ACCESS:   14939358 HIT:   14762838 MISS:     176520 MSHR_MERGE:      48860
cpu0->cpu0_L1D LOAD         ACCESS:    8730513 HIT:    8677588 MISS:      52925 MSHR_MERGE:       6325
cpu0->cpu0_L1D RFO          ACCESS:          0 HIT:          0 MISS:          0 MSHR_MERGE:          0
cpu0->cpu0_L1D PREFETCH     ACCESS:     270822 HIT:     217479 MISS:      53343 MSHR_MERGE:       1245
cpu0->cpu0_L1D WRITE        ACCESS:    5937829 HIT:    5867673 MISS:      70156 MSHR_MERGE:      41290
cpu0->cpu0_L1D TRANSLATION  ACCESS:        194 HIT:         98 MISS:         96 MSHR_MERGE:          0
cpu0->cpu0_L1D PREFETCH REQUESTED:     292499 ISSUED:     270822 USEFUL:      32847 USELESS:      19221 LATE:        924
cpu0->cpu0_L1D AVERAGE MISS LATENCY: 9.364 cycles
cpu0->cpu0_ITLB TOTAL        ACCESS:     349707 HIT:     349707 MISS:          0 MSHR_MERGE:          0
cpu0->cpu0_ITLB LOAD         ACCESS:     349707 HIT:     349707 MISS:          0 MSHR_MERGE:          0
cpu0->cpu0_ITLB RFO          ACCESS:          0 HIT:          0 MISS:          0 MSHR_MERGE:          0
cpu0->cpu0_ITLB PREFETCH     ACCESS:          0 HIT:          0 MISS:          0 MSHR_MERGE:          0
cpu0->cpu0_ITLB WRITE        ACCESS:          0 HIT:          0 MISS:          0 MSHR_MERGE:          0
cpu0->cpu0_ITLB TRANSLATION  ACCESS:          0 HIT:          0 MISS:          0 MSHR_MERGE:          0
cpu0->cpu0_ITLB PREFETCH REQUESTED:          0 ISSUED:          0 USEFUL:          0 USELESS:          0 LATE:          0
cpu0->cpu0_ITLB AVERAGE MISS LATENCY: - cycles
cpu0->cpu0_DTLB TOTAL        ACCESS:   14136019 HIT:   14091923 MISS:      44096 MSHR_MERGE:       8034
cpu0->cpu0_DTLB LOAD         ACCESS:   14136019 HIT:   14091923 MISS:      44096 MSHR_MERGE:       8034
cpu0->cpu0_DTLB RFO          ACCESS:          0 HIT:          0 MISS:          0 MSHR_MERGE:          0
cpu0->cpu0_DTLB PREFETCH     ACCESS:          0 HIT:          0 MISS:          0 MSHR_MERGE:          0
cpu0->cpu0_DTLB WRITE        ACCESS:          0 HIT:          0 MISS:          0 MSHR_MERGE:          0
cpu0->cpu0_DTLB TRANSLATION  ACCESS:          0 HIT:          0 MISS:          0 MSHR_MERGE:          0
cpu0->cpu0_DTLB PREFETCH REQUESTED:          0 ISSUED:          0 USEFUL:          0 USELESS:          0 LATE:          0
cpu0->cpu0_DTLB AVERAGE MISS LATENCY: 5.452 cycles
cpu0->LLC TOTAL        ACCESS:       6332 HIT:       2672 MISS:       3660 MSHR_MERGE:          0
cpu0->LLC LOAD         ACCESS:        744 HIT:        345 MISS:        399 MSHR_MERGE:          0
cpu0->LLC RFO          ACCESS:        159 HIT:          4 MISS:        155 MSHR_MERGE:          0
cpu0->LLC PREFETCH     ACCESS:       4963 HIT:       1892 MISS:       3071 MSHR_MERGE:          0
cpu0->LLC WRITE        ACCESS:        409 HIT:        409 MISS:          0 MSHR_MERGE:          0
cpu0->LLC TRANSLATION  ACCESS:         57 HIT:         22 MISS:         35 MSHR_MERGE:          0
cpu0->LLC PREFETCH REQUESTED:          0 ISSUED:          0 USEFUL:          0 USELESS:          0 LATE:          0
cpu0->LLC AVERAGE MISS LATENCY: 146.5 cycles

DRAM Statistics

Channel 0 RQ ROW_BUFFER_HIT:          8
  ROW_BUFFER_MISS:       3652
  AVG DBUS CONGESTED CYCLE: 2.337
Channel 0 WQ ROW_BUFFER_HIT:          0
  ROW_BUFFER_MISS:          0
  FULL:          0
Channel 0 REFRESHES ISSUED:       2738

[ROI Statistics]
[System Configuration]
num_cpus 1
cpu_freq 4000
fetch_width 6
decode_width 6
dispatch_width 6
execute_width 6
lq_width 2
sq_width 2
retire_width 6
scheduler_size 160
branch_mispredict_penalty 1
rob_size 352
lq_size 240
sq_size 112
ifetch_buffer_size 64
decode_buffer_size 32
dispatch_buffer_size 32
register_file_size 288
decode_latency 1
dispatch_latency 1
schedule_latency 0
execute_latency 0
page_size 4096
block_size 64
core_0_itlb_set 16
core_0_itlb_way 4
core_0_itlb_rq_size 16
core_0_itlb_wq_size 16
core_0_itlb_pq_size 0
core_0_itlb_mshr_size 8
core_0_itlb_hit_latency 1
core_0_itlb_fill_latency 1
core_0_itlb_max_tag_check 2
core_0_itlb_max_fill 2
core_0_dtlb_set 16
core_0_dtlb_way 4
core_0_dtlb_rq_size 16
core_0_dtlb_wq_size 16
core_0_dtlb_pq_size 0
core_0_dtlb_mshr_size 8
core_0_dtlb_hit_latency 1
core_0_dtlb_fill_latency 1
core_0_dtlb_max_tag_check 2
core_0_dtlb_max_fill 2
core_0_stlb_set 128
core_0_stlb_way 12
core_0_stlb_rq_size 32
core_0_stlb_wq_size 32
core_0_stlb_pq_size 0
core_0_stlb_mshr_size 16
core_0_stlb_hit_latency 4
core_0_stlb_fill_latency 4
core_0_stlb_max_tag_check 1
core_0_stlb_max_fill 1
core_0_l1i_set 64
core_0_l1i_way 8
core_0_l1i_rq_size 64
core_0_l1i_wq_size 64
core_0_l1i_pq_size 32
core_0_l1i_mshr_size 8
core_0_l1i_hit_latency 2
core_0_l1i_fill_latency 2
core_0_l1i_max_tag_check 2
core_0_l1i_max_fill 2
core_0_l1d_set 64
core_0_l1d_way 12
core_0_l1d_rq_size 64
core_0_l1d_wq_size 64
core_0_l1d_pq_size 8
core_0_l1d_mshr_size 16
core_0_l1d_hit_latency 2
core_0_l1d_fill_latency 3
core_0_l1d_max_tag_check 2
core_0_l1d_max_fill 2
core_0_l2c_set 1024
core_0_l2c_way 8
core_0_l2c_rq_size 32
core_0_l2c_wq_size 32
core_0_l2c_pq_size 16
core_0_l2c_mshr_size 32
core_0_l2c_hit_latency 5
core_0_l2c_fill_latency 5
core_0_l2c_max_tag_check 1
core_0_l2c_max_fill 1
llc_set 2048
llc_way 16
llc_rq_size 32
llc_wq_size 32
llc_pq_size 32
llc_mshr_size 64
llc_hit_latency 10
llc_fill_latency 10
llc_max_tag_check 1
llc_max_fill 1
dram_channels 1
dram_ranks 1
dram_bankgroups 8
dram_banks 4
dram_rows 16384
dram_columns 1024
dram_channel_width 8
dram_rq_size 64
dram_wq_size 64
dram_size 4294967296
core_0_itlb_prefetcher no
core_0_dtlb_prefetcher no
core_0_stlb_prefetcher no
core_0_l1i_prefetcher next_line
core_0_l1d_prefetcher berti
core_0_l2c_prefetcher pythia
llc_prefetcher no
llc_replacement drrip

Core_0_instructions 50000000
Core_0_cycles 32855138
Core_0_IPC 1.52183
Core_0_branch_prediction_accuracy 88.9762
Core_0_branch_MPKI 19.2906
Core_0_average_ROB_occupancy_at_mispredict 25.9026

Core_0_ITLB_total_access 349707
Core_0_ITLB_total_hit 349707
Core_0_ITLB_total_miss 0
Core_0_ITLB_total_MPKI 0
Core_0_ITLB_total_miss_rate 0
Core_0_ITLB_demand_access 349707
Core_0_ITLB_demand_hit 349707
Core_0_ITLB_demand_miss 0
Core_0_ITLB_demand_MPKI 0
Core_0_ITLB_demand_miss_rate 0
Core_0_ITLB_load_access 349707
Core_0_ITLB_load_hit 349707
Core_0_ITLB_load_miss 0
Core_0_ITLB_load_MPKI 0
Core_0_ITLB_load_miss_rate 0
Core_0_ITLB_rfo_access 0
Core_0_ITLB_rfo_hit 0
Core_0_ITLB_rfo_miss 0
Core_0_ITLB_rfo_MPKI 0
Core_0_ITLB_rfo_miss_rate 0
Core_0_ITLB_prefetch_access 0
Core_0_ITLB_prefetch_hit 0
Core_0_ITLB_prefetch_miss 0
Core_0_ITLB_prefetch_MPKI 0
Core_0_ITLB_prefetch_miss_rate 0
Core_0_ITLB_writeback_access 0
Core_0_ITLB_writeback_hit 0
Core_0_ITLB_writeback_miss 0
Core_0_ITLB_writeback_MPKI 0
Core_0_ITLB_writeback_miss_rate 0
Core_0_ITLB_prefetch_requested 0
Core_0_ITLB_prefetch_issued 0
Core_0_ITLB_prefetch_useful 0
Core_0_ITLB_prefetch_useless 0
Core_0_ITLB_prefetch_late 0
Core_0_ITLB_prefetch_accuracy 0
Core_0_ITLB_prefetch_coverage 0

Core_0_DTLB_total_access 14136019
Core_0_DTLB_total_hit 14091923
Core_0_DTLB_total_miss 44096
Core_0_DTLB_total_MPKI 0.88192
Core_0_DTLB_total_miss_rate 0.00311941
Core_0_DTLB_demand_access 14136019
Core_0_DTLB_demand_hit 14091923
Core_0_DTLB_demand_miss 44096
Core_0_DTLB_demand_MPKI 0.88192
Core_0_DTLB_demand_miss_rate 0.00311941
Core_0_DTLB_load_access 14136019
Core_0_DTLB_load_hit 14091923
Core_0_DTLB_load_miss 44096
Core_0_DTLB_load_MPKI 0.88192
Core_0_DTLB_load_miss_rate 0.00311941
Core_0_DTLB_rfo_access 0
Core_0_DTLB_rfo_hit 0
Core_0_DTLB_rfo_miss 0
Core_0_DTLB_rfo_MPKI 0
Core_0_DTLB_rfo_miss_rate 0
Core_0_DTLB_prefetch_access 0
Core_0_DTLB_prefetch_hit 0
Core_0_DTLB_prefetch_miss 0
Core_0_DTLB_prefetch_MPKI 0
Core_0_DTLB_prefetch_miss_rate 0
Core_0_DTLB_writeback_access 0
Core_0_DTLB_writeback_hit 0
Core_0_DTLB_writeback_miss 0
Core_0_DTLB_writeback_MPKI 0
Core_0_DTLB_writeback_miss_rate 0
Core_0_DTLB_prefetch_requested 0
Core_0_DTLB_prefetch_issued 0
Core_0_DTLB_prefetch_useful 0
Core_0_DTLB_prefetch_useless 0
Core_0_DTLB_prefetch_late 0
Core_0_DTLB_prefetch_accuracy 0
Core_0_DTLB_prefetch_coverage 0

Core_0_STLB_total_access 36062
Core_0_STLB_total_hit 35965
Core_0_STLB_total_miss 97
Core_0_STLB_total_MPKI 0.00194
Core_0_STLB_total_miss_rate 0.00268981
Core_0_STLB_demand_access 36062
Core_0_STLB_demand_hit 35965
Core_0_STLB_demand_miss 97
Core_0_STLB_demand_MPKI 0.00194
Core_0_STLB_demand_miss_rate 0.00268981
Core_0_STLB_load_access 36062
Core_0_STLB_load_hit 35965
Core_0_STLB_load_miss 97
Core_0_STLB_load_MPKI 0.00194
Core_0_STLB_load_miss_rate 0.00268981
Core_0_STLB_rfo_access 0
Core_0_STLB_rfo_hit 0
Core_0_STLB_rfo_miss 0
Core_0_STLB_rfo_MPKI 0
Core_0_STLB_rfo_miss_rate 0
Core_0_STLB_prefetch_access 0
Core_0_STLB_prefetch_hit 0
Core_0_STLB_prefetch_miss 0
Core_0_STLB_prefetch_MPKI 0
Core_0_STLB_prefetch_miss_rate 0
Core_0_STLB_writeback_access 0
Core_0_STLB_writeback_hit 0
Core_0_STLB_writeback_miss 0
Core_0_STLB_writeback_MPKI 0
Core_0_STLB_writeback_miss_rate 0
Core_0_STLB_prefetch_requested 0
Core_0_STLB_prefetch_issued 0
Core_0_STLB_prefetch_useful 0
Core_0_STLB_prefetch_useless 0
Core_0_STLB_prefetch_late 0
Core_0_STLB_prefetch_accuracy 0
Core_0_STLB_prefetch_coverage 0

Core_0_L1I_total_access 349773
Core_0_L1I_total_hit 349772
Core_0_L1I_total_miss 1
Core_0_L1I_total_MPKI 2e-05
Core_0_L1I_total_miss_rate 2.859e-06
Core_0_L1I_demand_access 349773
Core_0_L1I_demand_hit 349772
Core_0_L1I_demand_miss 1
Core_0_L1I_demand_MPKI 2e-05
Core_0_L1I_demand_miss_rate 2.859e-06
Core_0_L1I_load_access 349773
Core_0_L1I_load_hit 349772
Core_0_L1I_load_miss 1
Core_0_L1I_load_MPKI 2e-05
Core_0_L1I_load_miss_rate 2.859e-06
Core_0_L1I_rfo_access 0
Core_0_L1I_rfo_hit 0
Core_0_L1I_rfo_miss 0
Core_0_L1I_rfo_MPKI 0
Core_0_L1I_rfo_miss_rate 0
Core_0_L1I_prefetch_access 0
Core_0_L1I_prefetch_hit 0
Core_0_L1I_prefetch_miss 0
Core_0_L1I_prefetch_MPKI 0
Core_0_L1I_prefetch_miss_rate 0
Core_0_L1I_writeback_access 0
Core_0_L1I_writeback_hit 0
Core_0_L1I_writeback_miss 0
Core_0_L1I_writeback_MPKI 0
Core_0_L1I_writeback_miss_rate 0
Core_0_L1I_prefetch_requested 0
Core_0_L1I_prefetch_issued 0
Core_0_L1I_prefetch_useful 0
Core_0_L1I_prefetch_useless 0
Core_0_L1I_prefetch_late 0
Core_0_L1I_prefetch_accuracy 0
Core_0_L1I_prefetch_coverage 0

Core_0_L1D_total_access 14939164
Core_0_L1D_total_hit 14762740
Core_0_L1D_total_miss 176424
Core_0_L1D_total_MPKI 3.52848
Core_0_L1D_total_miss_rate 0.0118095
Core_0_L1D_demand_access 8730513
Core_0_L1D_demand_hit 8677588
Core_0_L1D_demand_miss 52925
Core_0_L1D_demand_MPKI 1.0585
Core_0_L1D_demand_miss_rate 0.00606207
Core_0_L1D_load_access 8730513
Core_0_L1D_load_hit 8677588
Core_0_L1D_load_miss 52925
Core_0_L1D_load_MPKI 1.0585
Core_0_L1D_load_miss_rate 0.00606207
Core_0_L1D_rfo_access 0
Core_0_L1D_rfo_hit 0
Core_0_L1D_rfo_miss 0
Core_0_L1D_rfo_MPKI 0
Core_0_L1D_rfo_miss_rate 0
Core_0_L1D_prefetch_access 270822
Core_0_L1D_prefetch_hit 217479
Core_0_L1D_prefetch_miss 53343
Core_0_L1D_prefetch_MPKI 1.06686
Core_0_L1D_prefetch_miss_rate 0.196967
Core_0_L1D_writeback_access 5937829
Core_0_L1D_writeback_hit 5867673
Core_0_L1D_writeback_miss 70156
Core_0_L1D_writeback_MPKI 1.40312
Core_0_L1D_writeback_miss_rate 0.0118151
Core_0_L1D_prefetch_requested 292499
Core_0_L1D_prefetch_issued 270822
Core_0_L1D_prefetch_useful 32847
Core_0_L1D_prefetch_useless 19221
Core_0_L1D_prefetch_late 924
Core_0_L1D_prefetch_accuracy 0.121286
Core_0_L1D_prefetch_coverage 0.382957

Core_0_L2C_total_access 302232
Core_0_L2C_total_hit 295764
Core_0_L2C_total_miss 6468
Core_0_L2C_total_MPKI 0.12936
Core_0_L2C_total_miss_rate 0.0214008
Core_0_L2C_demand_access 75455
Core_0_L2C_demand_hit 74538
Core_0_L2C_demand_miss 917
Core_0_L2C_demand_MPKI 0.01834
Core_0_L2C_demand_miss_rate 0.0121529
Core_0_L2C_load_access 46598
Core_0_L2C_load_hit 45840
Core_0_L2C_load_miss 758
Core_0_L2C_load_MPKI 0.01516
Core_0_L2C_load_miss_rate 0.0162668
Core_0_L2C_rfo_access 28857
Core_0_L2C_rfo_hit 28698
Core_0_L2C_rfo_miss 159
Core_0_L2C_rfo_MPKI 0.00318
Core_0_L2C_rfo_miss_rate 0.00550993
Core_0_L2C_prefetch_access 179294
Core_0_L2C_prefetch_hit 173761
Core_0_L2C_prefetch_miss 5533
Core_0_L2C_prefetch_MPKI 0.11066
Core_0_L2C_prefetch_miss_rate 0.0308599
Core_0_L2C_writeback_access 47483
Core_0_L2C_writeback_hit 47465
Core_0_L2C_writeback_miss 18
Core_0_L2C_writeback_MPKI 0.00036
Core_0_L2C_writeback_miss_rate 0.000379083
Core_0_L2C_prefetch_requested 127243
Core_0_L2C_prefetch_issued 127197
Core_0_L2C_prefetch_useful 1523
Core_0_L2C_prefetch_useless 2012
Core_0_L2C_prefetch_late 14
Core_0_L2C_prefetch_accuracy 0.0119736
Core_0_L2C_prefetch_coverage 0.62418

Core_0_LLC_total_access 6275
Core_0_LLC_total_hit 2650
Core_0_LLC_total_miss 3625
Core_0_LLC_total_MPKI 0.0725
Core_0_LLC_total_miss_rate 0.577689
Core_0_LLC_demand_access 903
Core_0_LLC_demand_hit 349
Core_0_LLC_demand_miss 554
Core_0_LLC_demand_MPKI 0.01108
Core_0_LLC_demand_miss_rate 0.613511
Core_0_LLC_load_access 744
Core_0_LLC_load_hit 345
Core_0_LLC_load_miss 399
Core_0_LLC_load_MPKI 0.00798
Core_0_LLC_load_miss_rate 0.53629
Core_0_LLC_rfo_access 159
Core_0_LLC_rfo_hit 4
Core_0_LLC_rfo_miss 155
Core_0_LLC_rfo_MPKI 0.0031
Core_0_LLC_rfo_miss_rate 0.974843
Core_0_LLC_prefetch_access 4963
Core_0_LLC_prefetch_hit 1892
Core_0_LLC_prefetch_miss 3071
Core_0_LLC_prefetch_MPKI 0.06142
Core_0_LLC_prefetch_miss_rate 0.618779
Core_0_LLC_writeback_access 409
Core_0_LLC_writeback_hit 409
Core_0_LLC_writeback_miss 0
Core_0_LLC_writeback_MPKI 0
Core_0_LLC_writeback_miss_rate 0
Core_0_LLC_prefetch_requested 0
Core_0_LLC_prefetch_issued 0
Core_0_LLC_prefetch_useful 0
Core_0_LLC_prefetch_useless 0
Core_0_LLC_prefetch_late 0
Core_0_LLC_prefetch_accuracy 0
Core_0_LLC_prefetch_coverage 0

[DRAM Statistics]
Channel_0_RQ_row_buffer_hit 8
Channel_0_RQ_row_buffer_miss 3652
Channel_0_WQ_row_buffer_hit 0
Channel_0_WQ_row_buffer_miss 0
Channel_0_WQ_full 0
Channel_0_dbus_congested 2419
DRAM_total_RQ_row_buffer_hit 8
DRAM_total_RQ_row_buffer_miss 3652
DRAM_total_WQ_row_buffer_hit 0
DRAM_total_WQ_row_buffer_miss 0
DRAM_total_WQ_full 0
DRAM_total_dbus_congested 2419
DRAM_avg_congested_cycle 2.33692

======STLB miss causes ========
Core_0_STLB_miss_cause_breakdown
Core_0_STLB_cause_Demand_Data_miss 0
Core_0_STLB_cause_Demand_Data_miss_rate 0
Core_0_STLB_cause_Demand_Instruction_miss 0
Core_0_STLB_cause_Demand_Instruction_miss_rate 0
Core_0_STLB_cause_L1D_Prefetch_miss 97
Core_0_STLB_cause_L1D_Prefetch_miss_rate 0.00268981
Core_0_STLB_cause_L1I_Prefetch_miss 0
Core_0_STLB_cause_L1I_Prefetch_miss_rate 0
Core_0_STLB_cause_Other_miss 0
Core_0_STLB_cause_Other_miss_rate 0
Core_0_STLB_Demand_miss 0
Core_0_STLB_Demand_miss_rate 0
Core_0_STLB_L1D_Prefetch_miss 97
Core_0_STLB_L1D_Prefetch_miss_rate 0.00268981
Core_0_STLB_Other_miss 0
Core_0_STLB_Other_miss_rate 0
