[VMEM] WARNING: physical memory size is smaller than virtual memory size.

*** ChampSim Multicore Out-of-Order Simulator ***
Warmup Instructions: 20000000
Simulation Instructions: 50000000
Number of CPUs: 1
Page size: 4096
STLB ideal mode: demand
Core 0: /data0/tzh/champsim_traces/SPEC17/654.roms_s-842B.champsimtrace.xz
 L1D Berti prefetcher
Off-chip DRAM Size: 4 GiB Channels: 1 Width: 64-bit Data Rate: 3205 MT/s
Warmup halting CPU 0 at instruction 20000000 cycle 4130271 for remainder of phase
Warmup finished CPU 0 instructions: 20000000 cycles: 4130271 cumulative IPC: 4.842 (Simulation time: 00 hr 00 min 42 sec)
Warmup complete CPU 0 instructions: 20000000 cycles: 4130271 cumulative IPC: 4.842 (Simulation time: 00 hr 00 min 42 sec)
Simulation finished CPU 0 instructions: 50000005 cycles: 21408889 cumulative IPC: 2.335 (Simulation time: 00 hr 03 min 29 sec)
Simulation complete CPU 0 instructions: 50000005 cycles: 21408889 cumulative IPC: 2.335 (Simulation time: 00 hr 03 min 29 sec)

ChampSim completed all CPUs

=== Simulation ===
CPU 0 runs /data0/tzh/champsim_traces/SPEC17/654.roms_s-842B.champsimtrace.xz

Region of Interest Statistics

CPU 0 cumulative IPC: 2.335 instructions: 50000005 cycles: 21408889
CPU 0 Branch Prediction Accuracy: 94.63% MPKI: 8.661 Average ROB Occupancy at Mispredict: 60.04
Branch type MPKI
BRANCH_DIRECT_JUMP: 0.1451
BRANCH_INDIRECT: 0
BRANCH_CONDITIONAL: 6.982
BRANCH_DIRECT_CALL: 0
BRANCH_INDIRECT_CALL: 0
BRANCH_RETURN: 1.534

cpu0->cpu0_STLB TOTAL        ACCESS:        263 HIT:        234 MISS:         29 MSHR_MERGE:          0
cpu0->cpu0_STLB LOAD         ACCESS:        263 HIT:        234 MISS:         29 MSHR_MERGE:          0
cpu0->cpu0_STLB RFO          ACCESS:          0 HIT:          0 MISS:          0 MSHR_MERGE:          0
cpu0->cpu0_STLB PREFETCH     ACCESS:          0 HIT:          0 MISS:          0 MSHR_MERGE:          0
cpu0->cpu0_STLB WRITE        ACCESS:          0 HIT:          0 MISS:          0 MSHR_MERGE:          0
cpu0->cpu0_STLB TRANSLATION  ACCESS:          0 HIT:          0 MISS:          0 MSHR_MERGE:          0
cpu0->cpu0_STLB PREFETCH REQUESTED:          0 ISSUED:          0 USEFUL:          0 USELESS:          0 LATE:          0
cpu0->cpu0_STLB AVERAGE MISS LATENCY: 344.2 cycles
cpu0->cpu0_L2C TOTAL        ACCESS:      42770 HIT:      28665 MISS:      14105 MSHR_MERGE:       3556
cpu0->cpu0_L2C LOAD         ACCESS:       1019 HIT:        648 MISS:        371 MSHR_MERGE:        181
cpu0->cpu0_L2C RFO          ACCESS:       4050 HIT:        119 MISS:       3931 MSHR_MERGE:          0
cpu0->cpu0_L2C PREFETCH     ACCESS:      33599 HIT:      23813 MISS:       9786 MSHR_MERGE:       3375
cpu0->cpu0_L2C WRITE        ACCESS:       4084 HIT:       4084 MISS:          0 MSHR_MERGE:          0
cpu0->cpu0_L2C TRANSLATION  ACCESS:         18 HIT:          1 MISS:         17 MSHR_MERGE:          0
cpu0->cpu0_L2C PREFETCH REQUESTED:      28645 ISSUED:      28371 USEFUL:       5118 USELESS:        323 LATE:        181
cpu0->cpu0_L2C AVERAGE MISS LATENCY: 163 cycles
cpu0->cpu0_L1I TOTAL        ACCESS:      63710 HIT:      63710 MISS:          0 MSHR_MERGE:          0
cpu0->cpu0_L1I LOAD         ACCESS:      63710 HIT:      63710 MISS:          0 MSHR_MERGE:          0
cpu0->cpu0_L1I RFO          ACCESS:          0 HIT:          0 MISS:          0 MSHR_MERGE:          0
cpu0->cpu0_L1I PREFETCH     ACCESS:          0 HIT:          0 MISS:          0 MSHR_MERGE:          0
cpu0->cpu0_L1I WRITE        ACCESS:          0 HIT:          0 MISS:          0 MSHR_MERGE:          0
cpu0->cpu0_L1I TRANSLATION  ACCESS:          0 HIT:          0 MISS:          0 MSHR_MERGE:          0
cpu0->cpu0_L1I PREFETCH REQUESTED:          0 ISSUED:          0 USEFUL:          0 USELESS:          0 LATE:          0
cpu0->cpu0_L1I AVERAGE MISS LATENCY: - cycles
cpu0->cpu0_L1D TOTAL        ACCESS:    9567488 HIT:    9554441 MISS:      13047 MSHR_MERGE:       2732
cpu0->cpu0_L1D LOAD         ACCESS:    5822710 HIT:    5819778 MISS:       2932 MSHR_MERGE:       1913
cpu0->cpu0_L1D RFO          ACCESS:          0 HIT:          0 MISS:          0 MSHR_MERGE:          0
cpu0->cpu0_L1D PREFETCH     ACCESS:       6465 HIT:       1038 MISS:       5427 MSHR_MERGE:        199
cpu0->cpu0_L1D WRITE        ACCESS:    3738253 HIT:    3733583 MISS:       4670 MSHR_MERGE:        620
cpu0->cpu0_L1D TRANSLATION  ACCESS:         60 HIT:         42 MISS:         18 MSHR_MERGE:          0
cpu0->cpu0_L1D PREFETCH REQUESTED:       6558 ISSUED:       6465 USEFUL:       5003 USELESS:        223 LATE:        108
cpu0->cpu0_L1D AVERAGE MISS LATENCY: 146.5 cycles
cpu0->cpu0_ITLB TOTAL        ACCESS:      63412 HIT:      63412 MISS:          0 MSHR_MERGE:          0
cpu0->cpu0_ITLB LOAD         ACCESS:      63412 HIT:      63412 MISS:          0 MSHR_MERGE:          0
cpu0->cpu0_ITLB RFO          ACCESS:          0 HIT:          0 MISS:          0 MSHR_MERGE:          0
cpu0->cpu0_ITLB PREFETCH     ACCESS:          0 HIT:          0 MISS:          0 MSHR_MERGE:          0
cpu0->cpu0_ITLB WRITE        ACCESS:          0 HIT:          0 MISS:          0 MSHR_MERGE:          0
cpu0->cpu0_ITLB TRANSLATION  ACCESS:          0 HIT:          0 MISS:          0 MSHR_MERGE:          0
cpu0->cpu0_ITLB PREFETCH REQUESTED:          0 ISSUED:          0 USEFUL:          0 USELESS:          0 LATE:          0
cpu0->cpu0_ITLB AVERAGE MISS LATENCY: - cycles
cpu0->cpu0_DTLB TOTAL        ACCESS:    9059558 HIT:    9058794 MISS:        764 MSHR_MERGE:        501
cpu0->cpu0_DTLB LOAD         ACCESS:    9059558 HIT:    9058794 MISS:        764 MSHR_MERGE:        501
cpu0->cpu0_DTLB RFO          ACCESS:          0 HIT:          0 MISS:          0 MSHR_MERGE:          0
cpu0->cpu0_DTLB PREFETCH     ACCESS:          0 HIT:          0 MISS:          0 MSHR_MERGE:          0
cpu0->cpu0_DTLB WRITE        ACCESS:          0 HIT:          0 MISS:          0 MSHR_MERGE:          0
cpu0->cpu0_DTLB TRANSLATION  ACCESS:          0 HIT:          0 MISS:          0 MSHR_MERGE:          0
cpu0->cpu0_DTLB PREFETCH REQUESTED:          0 ISSUED:          0 USEFUL:          0 USELESS:          0 LATE:          0
cpu0->cpu0_DTLB AVERAGE MISS LATENCY: 43.06 cycles
cpu0->LLC TOTAL        ACCESS:      12623 HIT:       2083 MISS:      10540 MSHR_MERGE:          0
cpu0->LLC LOAD         ACCESS:        190 HIT:          2 MISS:        188 MSHR_MERGE:          0
cpu0->LLC RFO          ACCESS:       3931 HIT:          0 MISS:       3931 MSHR_MERGE:          0
cpu0->LLC PREFETCH     ACCESS:       6411 HIT:          7 MISS:       6404 MSHR_MERGE:          0
cpu0->LLC WRITE        ACCESS:       2074 HIT:       2074 MISS:          0 MSHR_MERGE:          0
cpu0->LLC TRANSLATION  ACCESS:         17 HIT:          0 MISS:         17 MSHR_MERGE:          0
cpu0->LLC PREFETCH REQUESTED:          0 ISSUED:          0 USEFUL:          0 USELESS:          0 LATE:          0
cpu0->LLC AVERAGE MISS LATENCY: 149 cycles

DRAM Statistics

Channel 0 RQ ROW_BUFFER_HIT:         40
  ROW_BUFFER_MISS:      10500
  AVG DBUS CONGESTED CYCLE: 2.888
Channel 0 WQ ROW_BUFFER_HIT:          0
  ROW_BUFFER_MISS:          0
  FULL:          0
Channel 0 REFRESHES ISSUED:       1784

[ROI Statistics]
[System Configuration]
num_cpus 1
cpu_freq 4000
fetch_width 6
decode_width 6
dispatch_width 6
execute_width 6
lq_width 2
sq_width 2
retire_width 6
scheduler_size 160
branch_mispredict_penalty 1
rob_size 352
lq_size 240
sq_size 112
ifetch_buffer_size 64
decode_buffer_size 32
dispatch_buffer_size 32
register_file_size 288
decode_latency 1
dispatch_latency 1
schedule_latency 0
execute_latency 0
page_size 4096
block_size 64
core_0_itlb_set 16
core_0_itlb_way 4
core_0_itlb_rq_size 16
core_0_itlb_wq_size 16
core_0_itlb_pq_size 0
core_0_itlb_mshr_size 8
core_0_itlb_hit_latency 1
core_0_itlb_fill_latency 1
core_0_itlb_max_tag_check 2
core_0_itlb_max_fill 2
core_0_dtlb_set 16
core_0_dtlb_way 4
core_0_dtlb_rq_size 16
core_0_dtlb_wq_size 16
core_0_dtlb_pq_size 0
core_0_dtlb_mshr_size 8
core_0_dtlb_hit_latency 1
core_0_dtlb_fill_latency 1
core_0_dtlb_max_tag_check 2
core_0_dtlb_max_fill 2
core_0_stlb_set 128
core_0_stlb_way 12
core_0_stlb_rq_size 32
core_0_stlb_wq_size 32
core_0_stlb_pq_size 0
core_0_stlb_mshr_size 16
core_0_stlb_hit_latency 4
core_0_stlb_fill_latency 4
core_0_stlb_max_tag_check 1
core_0_stlb_max_fill 1
core_0_l1i_set 64
core_0_l1i_way 8
core_0_l1i_rq_size 64
core_0_l1i_wq_size 64
core_0_l1i_pq_size 32
core_0_l1i_mshr_size 8
core_0_l1i_hit_latency 2
core_0_l1i_fill_latency 2
core_0_l1i_max_tag_check 2
core_0_l1i_max_fill 2
core_0_l1d_set 64
core_0_l1d_way 12
core_0_l1d_rq_size 64
core_0_l1d_wq_size 64
core_0_l1d_pq_size 8
core_0_l1d_mshr_size 16
core_0_l1d_hit_latency 2
core_0_l1d_fill_latency 3
core_0_l1d_max_tag_check 2
core_0_l1d_max_fill 2
core_0_l2c_set 1024
core_0_l2c_way 8
core_0_l2c_rq_size 32
core_0_l2c_wq_size 32
core_0_l2c_pq_size 16
core_0_l2c_mshr_size 32
core_0_l2c_hit_latency 5
core_0_l2c_fill_latency 5
core_0_l2c_max_tag_check 1
core_0_l2c_max_fill 1
llc_set 2048
llc_way 16
llc_rq_size 32
llc_wq_size 32
llc_pq_size 32
llc_mshr_size 64
llc_hit_latency 10
llc_fill_latency 10
llc_max_tag_check 1
llc_max_fill 1
dram_channels 1
dram_ranks 1
dram_bankgroups 8
dram_banks 4
dram_rows 16384
dram_columns 1024
dram_channel_width 8
dram_rq_size 64
dram_wq_size 64
dram_size 4294967296
core_0_itlb_prefetcher no
core_0_dtlb_prefetcher no
core_0_stlb_prefetcher no
core_0_l1i_prefetcher next_line
core_0_l1d_prefetcher berti
core_0_l2c_prefetcher pythia
llc_prefetcher no
llc_replacement drrip

Core_0_instructions 50000005
Core_0_cycles 21408889
Core_0_IPC 2.33548
Core_0_branch_prediction_accuracy 94.6312
Core_0_branch_MPKI 8.66096
Core_0_average_ROB_occupancy_at_mispredict 60.0386

Core_0_ITLB_total_access 63412
Core_0_ITLB_total_hit 63412
Core_0_ITLB_total_miss 0
Core_0_ITLB_total_MPKI 0
Core_0_ITLB_total_miss_rate 0
Core_0_ITLB_demand_access 63412
Core_0_ITLB_demand_hit 63412
Core_0_ITLB_demand_miss 0
Core_0_ITLB_demand_MPKI 0
Core_0_ITLB_demand_miss_rate 0
Core_0_ITLB_load_access 63412
Core_0_ITLB_load_hit 63412
Core_0_ITLB_load_miss 0
Core_0_ITLB_load_MPKI 0
Core_0_ITLB_load_miss_rate 0
Core_0_ITLB_rfo_access 0
Core_0_ITLB_rfo_hit 0
Core_0_ITLB_rfo_miss 0
Core_0_ITLB_rfo_MPKI 0
Core_0_ITLB_rfo_miss_rate 0
Core_0_ITLB_prefetch_access 0
Core_0_ITLB_prefetch_hit 0
Core_0_ITLB_prefetch_miss 0
Core_0_ITLB_prefetch_MPKI 0
Core_0_ITLB_prefetch_miss_rate 0
Core_0_ITLB_writeback_access 0
Core_0_ITLB_writeback_hit 0
Core_0_ITLB_writeback_miss 0
Core_0_ITLB_writeback_MPKI 0
Core_0_ITLB_writeback_miss_rate 0
Core_0_ITLB_prefetch_requested 0
Core_0_ITLB_prefetch_issued 0
Core_0_ITLB_prefetch_useful 0
Core_0_ITLB_prefetch_useless 0
Core_0_ITLB_prefetch_late 0
Core_0_ITLB_prefetch_accuracy 0
Core_0_ITLB_prefetch_coverage 0

Core_0_DTLB_total_access 9059558
Core_0_DTLB_total_hit 9058794
Core_0_DTLB_total_miss 764
Core_0_DTLB_total_MPKI 0.01528
Core_0_DTLB_total_miss_rate 8.43308e-05
Core_0_DTLB_demand_access 9059558
Core_0_DTLB_demand_hit 9058794
Core_0_DTLB_demand_miss 764
Core_0_DTLB_demand_MPKI 0.01528
Core_0_DTLB_demand_miss_rate 8.43308e-05
Core_0_DTLB_load_access 9059558
Core_0_DTLB_load_hit 9058794
Core_0_DTLB_load_miss 764
Core_0_DTLB_load_MPKI 0.01528
Core_0_DTLB_load_miss_rate 8.43308e-05
Core_0_DTLB_rfo_access 0
Core_0_DTLB_rfo_hit 0
Core_0_DTLB_rfo_miss 0
Core_0_DTLB_rfo_MPKI 0
Core_0_DTLB_rfo_miss_rate 0
Core_0_DTLB_prefetch_access 0
Core_0_DTLB_prefetch_hit 0
Core_0_DTLB_prefetch_miss 0
Core_0_DTLB_prefetch_MPKI 0
Core_0_DTLB_prefetch_miss_rate 0
Core_0_DTLB_writeback_access 0
Core_0_DTLB_writeback_hit 0
Core_0_DTLB_writeback_miss 0
Core_0_DTLB_writeback_MPKI 0
Core_0_DTLB_writeback_miss_rate 0
Core_0_DTLB_prefetch_requested 0
Core_0_DTLB_prefetch_issued 0
Core_0_DTLB_prefetch_useful 0
Core_0_DTLB_prefetch_useless 0
Core_0_DTLB_prefetch_late 0
Core_0_DTLB_prefetch_accuracy 0
Core_0_DTLB_prefetch_coverage 0

Core_0_STLB_total_access 263
Core_0_STLB_total_hit 234
Core_0_STLB_total_miss 29
Core_0_STLB_total_MPKI 0.00058
Core_0_STLB_total_miss_rate 0.110266
Core_0_STLB_demand_access 263
Core_0_STLB_demand_hit 234
Core_0_STLB_demand_miss 29
Core_0_STLB_demand_MPKI 0.00058
Core_0_STLB_demand_miss_rate 0.110266
Core_0_STLB_load_access 263
Core_0_STLB_load_hit 234
Core_0_STLB_load_miss 29
Core_0_STLB_load_MPKI 0.00058
Core_0_STLB_load_miss_rate 0.110266
Core_0_STLB_rfo_access 0
Core_0_STLB_rfo_hit 0
Core_0_STLB_rfo_miss 0
Core_0_STLB_rfo_MPKI 0
Core_0_STLB_rfo_miss_rate 0
Core_0_STLB_prefetch_access 0
Core_0_STLB_prefetch_hit 0
Core_0_STLB_prefetch_miss 0
Core_0_STLB_prefetch_MPKI 0
Core_0_STLB_prefetch_miss_rate 0
Core_0_STLB_writeback_access 0
Core_0_STLB_writeback_hit 0
Core_0_STLB_writeback_miss 0
Core_0_STLB_writeback_MPKI 0
Core_0_STLB_writeback_miss_rate 0
Core_0_STLB_prefetch_requested 0
Core_0_STLB_prefetch_issued 0
Core_0_STLB_prefetch_useful 0
Core_0_STLB_prefetch_useless 0
Core_0_STLB_prefetch_late 0
Core_0_STLB_prefetch_accuracy 0
Core_0_STLB_prefetch_coverage 0

Core_0_L1I_total_access 63710
Core_0_L1I_total_hit 63710
Core_0_L1I_total_miss 0
Core_0_L1I_total_MPKI 0
Core_0_L1I_total_miss_rate 0
Core_0_L1I_demand_access 63710
Core_0_L1I_demand_hit 63710
Core_0_L1I_demand_miss 0
Core_0_L1I_demand_MPKI 0
Core_0_L1I_demand_miss_rate 0
Core_0_L1I_load_access 63710
Core_0_L1I_load_hit 63710
Core_0_L1I_load_miss 0
Core_0_L1I_load_MPKI 0
Core_0_L1I_load_miss_rate 0
Core_0_L1I_rfo_access 0
Core_0_L1I_rfo_hit 0
Core_0_L1I_rfo_miss 0
Core_0_L1I_rfo_MPKI 0
Core_0_L1I_rfo_miss_rate 0
Core_0_L1I_prefetch_access 0
Core_0_L1I_prefetch_hit 0
Core_0_L1I_prefetch_miss 0
Core_0_L1I_prefetch_MPKI 0
Core_0_L1I_prefetch_miss_rate 0
Core_0_L1I_writeback_access 0
Core_0_L1I_writeback_hit 0
Core_0_L1I_writeback_miss 0
Core_0_L1I_writeback_MPKI 0
Core_0_L1I_writeback_miss_rate 0
Core_0_L1I_prefetch_requested 0
Core_0_L1I_prefetch_issued 0
Core_0_L1I_prefetch_useful 0
Core_0_L1I_prefetch_useless 0
Core_0_L1I_prefetch_late 0
Core_0_L1I_prefetch_accuracy 0
Core_0_L1I_prefetch_coverage 0

Core_0_L1D_total_access 9567428
Core_0_L1D_total_hit 9554399
Core_0_L1D_total_miss 13029
Core_0_L1D_total_MPKI 0.26058
Core_0_L1D_total_miss_rate 0.00136181
Core_0_L1D_demand_access 5822710
Core_0_L1D_demand_hit 5819778
Core_0_L1D_demand_miss 2932
Core_0_L1D_demand_MPKI 0.05864
Core_0_L1D_demand_miss_rate 0.000503546
Core_0_L1D_load_access 5822710
Core_0_L1D_load_hit 5819778
Core_0_L1D_load_miss 2932
Core_0_L1D_load_MPKI 0.05864
Core_0_L1D_load_miss_rate 0.000503546
Core_0_L1D_rfo_access 0
Core_0_L1D_rfo_hit 0
Core_0_L1D_rfo_miss 0
Core_0_L1D_rfo_MPKI 0
Core_0_L1D_rfo_miss_rate 0
Core_0_L1D_prefetch_access 6465
Core_0_L1D_prefetch_hit 1038
Core_0_L1D_prefetch_miss 5427
Core_0_L1D_prefetch_MPKI 0.10854
Core_0_L1D_prefetch_miss_rate 0.839443
Core_0_L1D_writeback_access 3738253
Core_0_L1D_writeback_hit 3733583
Core_0_L1D_writeback_miss 4670
Core_0_L1D_writeback_MPKI 0.0934
Core_0_L1D_writeback_miss_rate 0.00124925
Core_0_L1D_prefetch_requested 6558
Core_0_L1D_prefetch_issued 6465
Core_0_L1D_prefetch_useful 5003
Core_0_L1D_prefetch_useless 223
Core_0_L1D_prefetch_late 108
Core_0_L1D_prefetch_accuracy 0.773859
Core_0_L1D_prefetch_coverage 0.630498

Core_0_L2C_total_access 42752
Core_0_L2C_total_hit 28664
Core_0_L2C_total_miss 14088
Core_0_L2C_total_MPKI 0.28176
Core_0_L2C_total_miss_rate 0.329528
Core_0_L2C_demand_access 5069
Core_0_L2C_demand_hit 767
Core_0_L2C_demand_miss 4302
Core_0_L2C_demand_MPKI 0.08604
Core_0_L2C_demand_miss_rate 0.848688
Core_0_L2C_load_access 1019
Core_0_L2C_load_hit 648
Core_0_L2C_load_miss 371
Core_0_L2C_load_MPKI 0.00742
Core_0_L2C_load_miss_rate 0.364082
Core_0_L2C_rfo_access 4050
Core_0_L2C_rfo_hit 119
Core_0_L2C_rfo_miss 3931
Core_0_L2C_rfo_MPKI 0.07862
Core_0_L2C_rfo_miss_rate 0.970617
Core_0_L2C_prefetch_access 33599
Core_0_L2C_prefetch_hit 23813
Core_0_L2C_prefetch_miss 9786
Core_0_L2C_prefetch_MPKI 0.19572
Core_0_L2C_prefetch_miss_rate 0.291259
Core_0_L2C_writeback_access 4084
Core_0_L2C_writeback_hit 4084
Core_0_L2C_writeback_miss 0
Core_0_L2C_writeback_MPKI 0
Core_0_L2C_writeback_miss_rate 0
Core_0_L2C_prefetch_requested 28645
Core_0_L2C_prefetch_issued 28371
Core_0_L2C_prefetch_useful 5118
Core_0_L2C_prefetch_useless 323
Core_0_L2C_prefetch_late 181
Core_0_L2C_prefetch_accuracy 0.180395
Core_0_L2C_prefetch_coverage 0.543312

Core_0_LLC_total_access 12606
Core_0_LLC_total_hit 2083
Core_0_LLC_total_miss 10523
Core_0_LLC_total_MPKI 0.21046
Core_0_LLC_total_miss_rate 0.834761
Core_0_LLC_demand_access 4121
Core_0_LLC_demand_hit 2
Core_0_LLC_demand_miss 4119
Core_0_LLC_demand_MPKI 0.08238
Core_0_LLC_demand_miss_rate 0.999515
Core_0_LLC_load_access 190
Core_0_LLC_load_hit 2
Core_0_LLC_load_miss 188
Core_0_LLC_load_MPKI 0.00376
Core_0_LLC_load_miss_rate 0.989474
Core_0_LLC_rfo_access 3931
Core_0_LLC_rfo_hit 0
Core_0_LLC_rfo_miss 3931
Core_0_LLC_rfo_MPKI 0.07862
Core_0_LLC_rfo_miss_rate 1
Core_0_LLC_prefetch_access 6411
Core_0_LLC_prefetch_hit 7
Core_0_LLC_prefetch_miss 6404
Core_0_LLC_prefetch_MPKI 0.12808
Core_0_LLC_prefetch_miss_rate 0.998908
Core_0_LLC_writeback_access 2074
Core_0_LLC_writeback_hit 2074
Core_0_LLC_writeback_miss 0
Core_0_LLC_writeback_MPKI 0
Core_0_LLC_writeback_miss_rate 0
Core_0_LLC_prefetch_requested 0
Core_0_LLC_prefetch_issued 0
Core_0_LLC_prefetch_useful 0
Core_0_LLC_prefetch_useless 0
Core_0_LLC_prefetch_late 0
Core_0_LLC_prefetch_accuracy 0
Core_0_LLC_prefetch_coverage 0

[DRAM Statistics]
Channel_0_RQ_row_buffer_hit 40
Channel_0_RQ_row_buffer_miss 10500
Channel_0_WQ_row_buffer_hit 0
Channel_0_WQ_row_buffer_miss 0
Channel_0_WQ_full 0
Channel_0_dbus_congested 5615
DRAM_total_RQ_row_buffer_hit 40
DRAM_total_RQ_row_buffer_miss 10500
DRAM_total_WQ_row_buffer_hit 0
DRAM_total_WQ_row_buffer_miss 0
DRAM_total_WQ_full 0
DRAM_total_dbus_congested 5615
DRAM_avg_congested_cycle 2.88816

======STLB miss causes ========
Core_0_STLB_miss_cause_breakdown
Core_0_STLB_cause_Demand_Data_miss 0
Core_0_STLB_cause_Demand_Data_miss_rate 0
Core_0_STLB_cause_Demand_Instruction_miss 0
Core_0_STLB_cause_Demand_Instruction_miss_rate 0
Core_0_STLB_cause_L1D_Prefetch_miss 29
Core_0_STLB_cause_L1D_Prefetch_miss_rate 0.110266
Core_0_STLB_cause_L1I_Prefetch_miss 0
Core_0_STLB_cause_L1I_Prefetch_miss_rate 0
Core_0_STLB_cause_Other_miss 0
Core_0_STLB_cause_Other_miss_rate 0
Core_0_STLB_Demand_miss 0
Core_0_STLB_Demand_miss_rate 0
Core_0_STLB_L1D_Prefetch_miss 29
Core_0_STLB_L1D_Prefetch_miss_rate 0.110266
Core_0_STLB_Other_miss 0
Core_0_STLB_Other_miss_rate 0
