[VMEM] WARNING: physical memory size is smaller than virtual memory size.

*** ChampSim Multicore Out-of-Order Simulator ***
Warmup Instructions: 20000000
Simulation Instructions: 50000000
Number of CPUs: 1
Page size: 4096
STLB ideal mode: demand
Core 0: /data0/tzh/champsim_traces/GAP/gap.bc.twitter-10B.champsimtrace.xz
 L1D Berti prefetcher
Off-chip DRAM Size: 4 GiB Channels: 1 Width: 64-bit Data Rate: 3205 MT/s
Warmup halting CPU 0 at instruction 20000001 cycle 4175568 for remainder of phase
Warmup finished CPU 0 instructions: 20000001 cycles: 4175568 cumulative IPC: 4.79 (Simulation time: 00 hr 01 min 13 sec)
Warmup complete CPU 0 instructions: 20000001 cycles: 4175568 cumulative IPC: 4.79 (Simulation time: 00 hr 01 min 13 sec)
Simulation finished CPU 0 instructions: 50000000 cycles: 279082383 cumulative IPC: 0.1792 (Simulation time: 00 hr 28 min 25 sec)
Simulation complete CPU 0 instructions: 50000000 cycles: 279082383 cumulative IPC: 0.1792 (Simulation time: 00 hr 28 min 25 sec)

ChampSim completed all CPUs

=== Simulation ===
CPU 0 runs /data0/tzh/champsim_traces/GAP/gap.bc.twitter-10B.champsimtrace.xz

Region of Interest Statistics

CPU 0 cumulative IPC: 0.1792 instructions: 50000000 cycles: 279082383
CPU 0 Branch Prediction Accuracy: 90.93% MPKI: 13.41 Average ROB Occupancy at Mispredict: 70.88
Branch type MPKI
BRANCH_DIRECT_JUMP: 0
BRANCH_INDIRECT: 0
BRANCH_CONDITIONAL: 13.41
BRANCH_DIRECT_CALL: 0
BRANCH_INDIRECT_CALL: 0
BRANCH_RETURN: 0

cpu0->cpu0_STLB TOTAL        ACCESS:    1849653 HIT:    1725685 MISS:     123968 MSHR_MERGE:          0
cpu0->cpu0_STLB LOAD         ACCESS:    1849653 HIT:    1725685 MISS:     123968 MSHR_MERGE:          0
cpu0->cpu0_STLB RFO          ACCESS:          0 HIT:          0 MISS:          0 MSHR_MERGE:          0
cpu0->cpu0_STLB PREFETCH     ACCESS:          0 HIT:          0 MISS:          0 MSHR_MERGE:          0
cpu0->cpu0_STLB WRITE        ACCESS:          0 HIT:          0 MISS:          0 MSHR_MERGE:          0
cpu0->cpu0_STLB TRANSLATION  ACCESS:          0 HIT:          0 MISS:          0 MSHR_MERGE:          0
cpu0->cpu0_STLB PREFETCH REQUESTED:          0 ISSUED:          0 USEFUL:          0 USELESS:          0 LATE:          0
cpu0->cpu0_STLB AVERAGE MISS LATENCY: 165.6 cycles
cpu0->cpu0_L2C TOTAL        ACCESS:   17404623 HIT:    3705936 MISS:   13698687 MSHR_MERGE:    3131134
cpu0->cpu0_L2C LOAD         ACCESS:    3470630 HIT:     293102 MISS:    3177528 MSHR_MERGE:     290145
cpu0->cpu0_L2C RFO          ACCESS:      11646 HIT:       3796 MISS:       7850 MSHR_MERGE:          0
cpu0->cpu0_L2C PREFETCH     ACCESS:   12353707 HIT:    1876976 MISS:   10476731 MSHR_MERGE:    2840989
cpu0->cpu0_L2C WRITE        ACCESS:    1531704 HIT:    1530801 MISS:        903 MSHR_MERGE:          0
cpu0->cpu0_L2C TRANSLATION  ACCESS:      36936 HIT:       1261 MISS:      35675 MSHR_MERGE:          0
cpu0->cpu0_L2C PREFETCH REQUESTED:   14786684 ISSUED:   10622948 USEFUL:     787600 USELESS:    5579715 LATE:     290145
cpu0->cpu0_L2C AVERAGE MISS LATENCY: 346.4 cycles
cpu0->cpu0_L1I TOTAL        ACCESS:     413296 HIT:     413296 MISS:          0 MSHR_MERGE:          0
cpu0->cpu0_L1I LOAD         ACCESS:     413296 HIT:     413296 MISS:          0 MSHR_MERGE:          0
cpu0->cpu0_L1I RFO          ACCESS:          0 HIT:          0 MISS:          0 MSHR_MERGE:          0
cpu0->cpu0_L1I PREFETCH     ACCESS:          0 HIT:          0 MISS:          0 MSHR_MERGE:          0
cpu0->cpu0_L1I WRITE        ACCESS:          0 HIT:          0 MISS:          0 MSHR_MERGE:          0
cpu0->cpu0_L1I TRANSLATION  ACCESS:          0 HIT:          0 MISS:          0 MSHR_MERGE:          0
cpu0->cpu0_L1I PREFETCH REQUESTED:          0 ISSUED:          0 USEFUL:          0 USELESS:          0 LATE:          0
cpu0->cpu0_L1I AVERAGE MISS LATENCY: - cycles
cpu0->cpu0_L1D TOTAL        ACCESS:   16425686 HIT:   10651590 MISS:    5774096 MSHR_MERGE:     524116
cpu0->cpu0_L1D LOAD         ACCESS:   10922794 HIT:    7161067 MISS:    3761727 MSHR_MERGE:     291098
cpu0->cpu0_L1D RFO          ACCESS:          0 HIT:          0 MISS:          0 MSHR_MERGE:          0
cpu0->cpu0_L1D PREFETCH     ACCESS:    1890333 HIT:      91184 MISS:    1799149 MSHR_MERGE:      68381
cpu0->cpu0_L1D WRITE        ACCESS:    3362059 HIT:    3186206 MISS:     175853 MSHR_MERGE:     164206
cpu0->cpu0_L1D TRANSLATION  ACCESS:     250500 HIT:     213133 MISS:      37367 MSHR_MERGE:        431
cpu0->cpu0_L1D PREFETCH REQUESTED:    1901663 ISSUED:    1890333 USEFUL:     410964 USELESS:    1319518 LATE:     130389
cpu0->cpu0_L1D AVERAGE MISS LATENCY: 330.4 cycles
cpu0->cpu0_ITLB TOTAL        ACCESS:     409696 HIT:     409696 MISS:          0 MSHR_MERGE:          0
cpu0->cpu0_ITLB LOAD         ACCESS:     409696 HIT:     409696 MISS:          0 MSHR_MERGE:          0
cpu0->cpu0_ITLB RFO          ACCESS:          0 HIT:          0 MISS:          0 MSHR_MERGE:          0
cpu0->cpu0_ITLB PREFETCH     ACCESS:          0 HIT:          0 MISS:          0 MSHR_MERGE:          0
cpu0->cpu0_ITLB WRITE        ACCESS:          0 HIT:          0 MISS:          0 MSHR_MERGE:          0
cpu0->cpu0_ITLB TRANSLATION  ACCESS:          0 HIT:          0 MISS:          0 MSHR_MERGE:          0
cpu0->cpu0_ITLB PREFETCH REQUESTED:          0 ISSUED:          0 USEFUL:          0 USELESS:          0 LATE:          0
cpu0->cpu0_ITLB AVERAGE MISS LATENCY: - cycles
cpu0->cpu0_DTLB TOTAL        ACCESS:   15904959 HIT:   13774803 MISS:    2130156 MSHR_MERGE:     280503
cpu0->cpu0_DTLB LOAD         ACCESS:   15904959 HIT:   13774803 MISS:    2130156 MSHR_MERGE:     280503
cpu0->cpu0_DTLB RFO          ACCESS:          0 HIT:          0 MISS:          0 MSHR_MERGE:          0
cpu0->cpu0_DTLB PREFETCH     ACCESS:          0 HIT:          0 MISS:          0 MSHR_MERGE:          0
cpu0->cpu0_DTLB WRITE        ACCESS:          0 HIT:          0 MISS:          0 MSHR_MERGE:          0
cpu0->cpu0_DTLB TRANSLATION  ACCESS:          0 HIT:          0 MISS:          0 MSHR_MERGE:          0
cpu0->cpu0_DTLB PREFETCH REQUESTED:          0 ISSUED:          0 USEFUL:          0 USELESS:          0 LATE:          0
cpu0->cpu0_DTLB AVERAGE MISS LATENCY: 16.17 cycles
cpu0->LLC TOTAL        ACCESS:   12093844 HIT:     298520 MISS:   11795324 MSHR_MERGE:          0
cpu0->LLC LOAD         ACCESS:    2887383 HIT:      29265 MISS:    2858118 MSHR_MERGE:          0
cpu0->LLC RFO          ACCESS:       7850 HIT:         52 MISS:       7798 MSHR_MERGE:          0
cpu0->LLC PREFETCH     ACCESS:    7635741 HIT:      24553 MISS:    7611188 MSHR_MERGE:          0
cpu0->LLC WRITE        ACCESS:    1527195 HIT:     244171 MISS:    1283024 MSHR_MERGE:          0
cpu0->LLC TRANSLATION  ACCESS:      35675 HIT:        479 MISS:      35196 MSHR_MERGE:          0
cpu0->LLC PREFETCH REQUESTED:          0 ISSUED:          0 USEFUL:          0 USELESS:          0 LATE:          0
cpu0->LLC AVERAGE MISS LATENCY: 239 cycles

DRAM Statistics

Channel 0 RQ ROW_BUFFER_HIT:     780998
  ROW_BUFFER_MISS:    9731252
  AVG DBUS CONGESTED CYCLE: 4.304
Channel 0 WQ ROW_BUFFER_HIT:     158109
  ROW_BUFFER_MISS:    1359079
  FULL:          0
Channel 0 REFRESHES ISSUED:      23257

[ROI Statistics]
[System Configuration]
num_cpus 1
cpu_freq 4000
fetch_width 6
decode_width 6
dispatch_width 6
execute_width 6
lq_width 2
sq_width 2
retire_width 6
scheduler_size 160
branch_mispredict_penalty 1
rob_size 352
lq_size 240
sq_size 112
ifetch_buffer_size 64
decode_buffer_size 32
dispatch_buffer_size 32
register_file_size 288
decode_latency 1
dispatch_latency 1
schedule_latency 0
execute_latency 0
page_size 4096
block_size 64
core_0_itlb_set 16
core_0_itlb_way 4
core_0_itlb_rq_size 16
core_0_itlb_wq_size 16
core_0_itlb_pq_size 0
core_0_itlb_mshr_size 8
core_0_itlb_hit_latency 1
core_0_itlb_fill_latency 1
core_0_itlb_max_tag_check 2
core_0_itlb_max_fill 2
core_0_dtlb_set 16
core_0_dtlb_way 4
core_0_dtlb_rq_size 16
core_0_dtlb_wq_size 16
core_0_dtlb_pq_size 0
core_0_dtlb_mshr_size 8
core_0_dtlb_hit_latency 1
core_0_dtlb_fill_latency 1
core_0_dtlb_max_tag_check 2
core_0_dtlb_max_fill 2
core_0_stlb_set 128
core_0_stlb_way 12
core_0_stlb_rq_size 32
core_0_stlb_wq_size 32
core_0_stlb_pq_size 0
core_0_stlb_mshr_size 16
core_0_stlb_hit_latency 4
core_0_stlb_fill_latency 4
core_0_stlb_max_tag_check 1
core_0_stlb_max_fill 1
core_0_l1i_set 64
core_0_l1i_way 8
core_0_l1i_rq_size 64
core_0_l1i_wq_size 64
core_0_l1i_pq_size 32
core_0_l1i_mshr_size 8
core_0_l1i_hit_latency 2
core_0_l1i_fill_latency 2
core_0_l1i_max_tag_check 2
core_0_l1i_max_fill 2
core_0_l1d_set 64
core_0_l1d_way 12
core_0_l1d_rq_size 64
core_0_l1d_wq_size 64
core_0_l1d_pq_size 8
core_0_l1d_mshr_size 16
core_0_l1d_hit_latency 2
core_0_l1d_fill_latency 3
core_0_l1d_max_tag_check 2
core_0_l1d_max_fill 2
core_0_l2c_set 1024
core_0_l2c_way 8
core_0_l2c_rq_size 32
core_0_l2c_wq_size 32
core_0_l2c_pq_size 16
core_0_l2c_mshr_size 32
core_0_l2c_hit_latency 5
core_0_l2c_fill_latency 5
core_0_l2c_max_tag_check 1
core_0_l2c_max_fill 1
llc_set 2048
llc_way 16
llc_rq_size 32
llc_wq_size 32
llc_pq_size 32
llc_mshr_size 64
llc_hit_latency 10
llc_fill_latency 10
llc_max_tag_check 1
llc_max_fill 1
dram_channels 1
dram_ranks 1
dram_bankgroups 8
dram_banks 4
dram_rows 16384
dram_columns 1024
dram_channel_width 8
dram_rq_size 64
dram_wq_size 64
dram_size 4294967296
core_0_itlb_prefetcher no
core_0_dtlb_prefetcher no
core_0_stlb_prefetcher no
core_0_l1i_prefetcher next_line
core_0_l1d_prefetcher berti
core_0_l2c_prefetcher pythia
llc_prefetcher no
llc_replacement drrip

Core_0_instructions 50000000
Core_0_cycles 279082383
Core_0_IPC 0.179159
Core_0_branch_prediction_accuracy 90.9297
Core_0_branch_MPKI 13.4056
Core_0_average_ROB_occupancy_at_mispredict 70.8815

Core_0_ITLB_total_access 409696
Core_0_ITLB_total_hit 409696
Core_0_ITLB_total_miss 0
Core_0_ITLB_total_MPKI 0
Core_0_ITLB_total_miss_rate 0
Core_0_ITLB_demand_access 409696
Core_0_ITLB_demand_hit 409696
Core_0_ITLB_demand_miss 0
Core_0_ITLB_demand_MPKI 0
Core_0_ITLB_demand_miss_rate 0
Core_0_ITLB_load_access 409696
Core_0_ITLB_load_hit 409696
Core_0_ITLB_load_miss 0
Core_0_ITLB_load_MPKI 0
Core_0_ITLB_load_miss_rate 0
Core_0_ITLB_rfo_access 0
Core_0_ITLB_rfo_hit 0
Core_0_ITLB_rfo_miss 0
Core_0_ITLB_rfo_MPKI 0
Core_0_ITLB_rfo_miss_rate 0
Core_0_ITLB_prefetch_access 0
Core_0_ITLB_prefetch_hit 0
Core_0_ITLB_prefetch_miss 0
Core_0_ITLB_prefetch_MPKI 0
Core_0_ITLB_prefetch_miss_rate 0
Core_0_ITLB_writeback_access 0
Core_0_ITLB_writeback_hit 0
Core_0_ITLB_writeback_miss 0
Core_0_ITLB_writeback_MPKI 0
Core_0_ITLB_writeback_miss_rate 0
Core_0_ITLB_prefetch_requested 0
Core_0_ITLB_prefetch_issued 0
Core_0_ITLB_prefetch_useful 0
Core_0_ITLB_prefetch_useless 0
Core_0_ITLB_prefetch_late 0
Core_0_ITLB_prefetch_accuracy 0
Core_0_ITLB_prefetch_coverage 0

Core_0_DTLB_total_access 15904959
Core_0_DTLB_total_hit 13774803
Core_0_DTLB_total_miss 2130156
Core_0_DTLB_total_MPKI 42.6031
Core_0_DTLB_total_miss_rate 0.13393
Core_0_DTLB_demand_access 15904959
Core_0_DTLB_demand_hit 13774803
Core_0_DTLB_demand_miss 2130156
Core_0_DTLB_demand_MPKI 42.6031
Core_0_DTLB_demand_miss_rate 0.13393
Core_0_DTLB_load_access 15904959
Core_0_DTLB_load_hit 13774803
Core_0_DTLB_load_miss 2130156
Core_0_DTLB_load_MPKI 42.6031
Core_0_DTLB_load_miss_rate 0.13393
Core_0_DTLB_rfo_access 0
Core_0_DTLB_rfo_hit 0
Core_0_DTLB_rfo_miss 0
Core_0_DTLB_rfo_MPKI 0
Core_0_DTLB_rfo_miss_rate 0
Core_0_DTLB_prefetch_access 0
Core_0_DTLB_prefetch_hit 0
Core_0_DTLB_prefetch_miss 0
Core_0_DTLB_prefetch_MPKI 0
Core_0_DTLB_prefetch_miss_rate 0
Core_0_DTLB_writeback_access 0
Core_0_DTLB_writeback_hit 0
Core_0_DTLB_writeback_miss 0
Core_0_DTLB_writeback_MPKI 0
Core_0_DTLB_writeback_miss_rate 0
Core_0_DTLB_prefetch_requested 0
Core_0_DTLB_prefetch_issued 0
Core_0_DTLB_prefetch_useful 0
Core_0_DTLB_prefetch_useless 0
Core_0_DTLB_prefetch_late 0
Core_0_DTLB_prefetch_accuracy 0
Core_0_DTLB_prefetch_coverage 0

Core_0_STLB_total_access 1849653
Core_0_STLB_total_hit 1725685
Core_0_STLB_total_miss 123968
Core_0_STLB_total_MPKI 2.47936
Core_0_STLB_total_miss_rate 0.0670223
Core_0_STLB_demand_access 1849653
Core_0_STLB_demand_hit 1725685
Core_0_STLB_demand_miss 123968
Core_0_STLB_demand_MPKI 2.47936
Core_0_STLB_demand_miss_rate 0.0670223
Core_0_STLB_load_access 1849653
Core_0_STLB_load_hit 1725685
Core_0_STLB_load_miss 123968
Core_0_STLB_load_MPKI 2.47936
Core_0_STLB_load_miss_rate 0.0670223
Core_0_STLB_rfo_access 0
Core_0_STLB_rfo_hit 0
Core_0_STLB_rfo_miss 0
Core_0_STLB_rfo_MPKI 0
Core_0_STLB_rfo_miss_rate 0
Core_0_STLB_prefetch_access 0
Core_0_STLB_prefetch_hit 0
Core_0_STLB_prefetch_miss 0
Core_0_STLB_prefetch_MPKI 0
Core_0_STLB_prefetch_miss_rate 0
Core_0_STLB_writeback_access 0
Core_0_STLB_writeback_hit 0
Core_0_STLB_writeback_miss 0
Core_0_STLB_writeback_MPKI 0
Core_0_STLB_writeback_miss_rate 0
Core_0_STLB_prefetch_requested 0
Core_0_STLB_prefetch_issued 0
Core_0_STLB_prefetch_useful 0
Core_0_STLB_prefetch_useless 0
Core_0_STLB_prefetch_late 0
Core_0_STLB_prefetch_accuracy 0
Core_0_STLB_prefetch_coverage 0

Core_0_L1I_total_access 413296
Core_0_L1I_total_hit 413296
Core_0_L1I_total_miss 0
Core_0_L1I_total_MPKI 0
Core_0_L1I_total_miss_rate 0
Core_0_L1I_demand_access 413296
Core_0_L1I_demand_hit 413296
Core_0_L1I_demand_miss 0
Core_0_L1I_demand_MPKI 0
Core_0_L1I_demand_miss_rate 0
Core_0_L1I_load_access 413296
Core_0_L1I_load_hit 413296
Core_0_L1I_load_miss 0
Core_0_L1I_load_MPKI 0
Core_0_L1I_load_miss_rate 0
Core_0_L1I_rfo_access 0
Core_0_L1I_rfo_hit 0
Core_0_L1I_rfo_miss 0
Core_0_L1I_rfo_MPKI 0
Core_0_L1I_rfo_miss_rate 0
Core_0_L1I_prefetch_access 0
Core_0_L1I_prefetch_hit 0
Core_0_L1I_prefetch_miss 0
Core_0_L1I_prefetch_MPKI 0
Core_0_L1I_prefetch_miss_rate 0
Core_0_L1I_writeback_access 0
Core_0_L1I_writeback_hit 0
Core_0_L1I_writeback_miss 0
Core_0_L1I_writeback_MPKI 0
Core_0_L1I_writeback_miss_rate 0
Core_0_L1I_prefetch_requested 0
Core_0_L1I_prefetch_issued 0
Core_0_L1I_prefetch_useful 0
Core_0_L1I_prefetch_useless 0
Core_0_L1I_prefetch_late 0
Core_0_L1I_prefetch_accuracy 0
Core_0_L1I_prefetch_coverage 0

Core_0_L1D_total_access 16175186
Core_0_L1D_total_hit 10438457
Core_0_L1D_total_miss 5736729
Core_0_L1D_total_MPKI 114.735
Core_0_L1D_total_miss_rate 0.354662
Core_0_L1D_demand_access 10922794
Core_0_L1D_demand_hit 7161067
Core_0_L1D_demand_miss 3761727
Core_0_L1D_demand_MPKI 75.2345
Core_0_L1D_demand_miss_rate 0.344392
Core_0_L1D_load_access 10922794
Core_0_L1D_load_hit 7161067
Core_0_L1D_load_miss 3761727
Core_0_L1D_load_MPKI 75.2345
Core_0_L1D_load_miss_rate 0.344392
Core_0_L1D_rfo_access 0
Core_0_L1D_rfo_hit 0
Core_0_L1D_rfo_miss 0
Core_0_L1D_rfo_MPKI 0
Core_0_L1D_rfo_miss_rate 0
Core_0_L1D_prefetch_access 1890333
Core_0_L1D_prefetch_hit 91184
Core_0_L1D_prefetch_miss 1799149
Core_0_L1D_prefetch_MPKI 35.983
Core_0_L1D_prefetch_miss_rate 0.951763
Core_0_L1D_writeback_access 3362059
Core_0_L1D_writeback_hit 3186206
Core_0_L1D_writeback_miss 175853
Core_0_L1D_writeback_MPKI 3.51706
Core_0_L1D_writeback_miss_rate 0.0523051
Core_0_L1D_prefetch_requested 1901663
Core_0_L1D_prefetch_issued 1890333
Core_0_L1D_prefetch_useful 410964
Core_0_L1D_prefetch_useless 1319518
Core_0_L1D_prefetch_late 130389
Core_0_L1D_prefetch_accuracy 0.217403
Core_0_L1D_prefetch_coverage 0.098489

Core_0_L2C_total_access 17367687
Core_0_L2C_total_hit 3704675
Core_0_L2C_total_miss 13663012
Core_0_L2C_total_MPKI 273.26
Core_0_L2C_total_miss_rate 0.786692
Core_0_L2C_demand_access 3482276
Core_0_L2C_demand_hit 296898
Core_0_L2C_demand_miss 3185378
Core_0_L2C_demand_MPKI 63.7076
Core_0_L2C_demand_miss_rate 0.91474
Core_0_L2C_load_access 3470630
Core_0_L2C_load_hit 293102
Core_0_L2C_load_miss 3177528
Core_0_L2C_load_MPKI 63.5506
Core_0_L2C_load_miss_rate 0.915548
Core_0_L2C_rfo_access 11646
Core_0_L2C_rfo_hit 3796
Core_0_L2C_rfo_miss 7850
Core_0_L2C_rfo_MPKI 0.157
Core_0_L2C_rfo_miss_rate 0.674051
Core_0_L2C_prefetch_access 12353707
Core_0_L2C_prefetch_hit 1876976
Core_0_L2C_prefetch_miss 10476731
Core_0_L2C_prefetch_MPKI 209.535
Core_0_L2C_prefetch_miss_rate 0.848064
Core_0_L2C_writeback_access 1531704
Core_0_L2C_writeback_hit 1530801
Core_0_L2C_writeback_miss 903
Core_0_L2C_writeback_MPKI 0.01806
Core_0_L2C_writeback_miss_rate 0.000589539
Core_0_L2C_prefetch_requested 14786684
Core_0_L2C_prefetch_issued 10622948
Core_0_L2C_prefetch_useful 787600
Core_0_L2C_prefetch_useless 5579715
Core_0_L2C_prefetch_late 290145
Core_0_L2C_prefetch_accuracy 0.0741414
Core_0_L2C_prefetch_coverage 0.198239

Core_0_LLC_total_access 12058169
Core_0_LLC_total_hit 298041
Core_0_LLC_total_miss 11760128
Core_0_LLC_total_MPKI 235.203
Core_0_LLC_total_miss_rate 0.975283
Core_0_LLC_demand_access 2895233
Core_0_LLC_demand_hit 29317
Core_0_LLC_demand_miss 2865916
Core_0_LLC_demand_MPKI 57.3183
Core_0_LLC_demand_miss_rate 0.989874
Core_0_LLC_load_access 2887383
Core_0_LLC_load_hit 29265
Core_0_LLC_load_miss 2858118
Core_0_LLC_load_MPKI 57.1624
Core_0_LLC_load_miss_rate 0.989865
Core_0_LLC_rfo_access 7850
Core_0_LLC_rfo_hit 52
Core_0_LLC_rfo_miss 7798
Core_0_LLC_rfo_MPKI 0.15596
Core_0_LLC_rfo_miss_rate 0.993376
Core_0_LLC_prefetch_access 7635741
Core_0_LLC_prefetch_hit 24553
Core_0_LLC_prefetch_miss 7611188
Core_0_LLC_prefetch_MPKI 152.224
Core_0_LLC_prefetch_miss_rate 0.996784
Core_0_LLC_writeback_access 1527195
Core_0_LLC_writeback_hit 244171
Core_0_LLC_writeback_miss 1283024
Core_0_LLC_writeback_MPKI 25.6605
Core_0_LLC_writeback_miss_rate 0.840118
Core_0_LLC_prefetch_requested 0
Core_0_LLC_prefetch_issued 0
Core_0_LLC_prefetch_useful 0
Core_0_LLC_prefetch_useless 0
Core_0_LLC_prefetch_late 0
Core_0_LLC_prefetch_accuracy 0
Core_0_LLC_prefetch_coverage 0

[DRAM Statistics]
Channel_0_RQ_row_buffer_hit 780998
Channel_0_RQ_row_buffer_miss 9731252
Channel_0_WQ_row_buffer_hit 158109
Channel_0_WQ_row_buffer_miss 1359079
Channel_0_WQ_full 0
Channel_0_dbus_congested 33903157
DRAM_total_RQ_row_buffer_hit 780998
DRAM_total_RQ_row_buffer_miss 9731252
DRAM_total_WQ_row_buffer_hit 158109
DRAM_total_WQ_row_buffer_miss 1359079
DRAM_total_WQ_full 0
DRAM_total_dbus_congested 33903157
DRAM_avg_congested_cycle 4.3042

======STLB miss causes ========
Core_0_STLB_miss_cause_breakdown
Core_0_STLB_cause_Demand_Data_miss 0
Core_0_STLB_cause_Demand_Data_miss_rate 0
Core_0_STLB_cause_Demand_Instruction_miss 0
Core_0_STLB_cause_Demand_Instruction_miss_rate 0
Core_0_STLB_cause_L1D_Prefetch_miss 123968
Core_0_STLB_cause_L1D_Prefetch_miss_rate 0.0670223
Core_0_STLB_cause_L1I_Prefetch_miss 0
Core_0_STLB_cause_L1I_Prefetch_miss_rate 0
Core_0_STLB_cause_Other_miss 0
Core_0_STLB_cause_Other_miss_rate 0
Core_0_STLB_Demand_miss 0
Core_0_STLB_Demand_miss_rate 0
Core_0_STLB_L1D_Prefetch_miss 123968
Core_0_STLB_L1D_Prefetch_miss_rate 0.0670223
Core_0_STLB_Other_miss 0
Core_0_STLB_Other_miss_rate 0
