[VMEM] WARNING: physical memory size is smaller than virtual memory size.

*** ChampSim Multicore Out-of-Order Simulator ***
Warmup Instructions: 20000000
Simulation Instructions: 50000000
Number of CPUs: 1
Page size: 4096
STLB ideal mode: demand
Core 0: /data0/tzh/champsim_traces/GAP/gap.tc.web-10B.champsimtrace.xz
 L1D Berti prefetcher
Off-chip DRAM Size: 4 GiB Channels: 1 Width: 64-bit Data Rate: 3205 MT/s
Warmup halting CPU 0 at instruction 20000001 cycle 4337852 for remainder of phase
Warmup finished CPU 0 instructions: 20000001 cycles: 4337852 cumulative IPC: 4.611 (Simulation time: 00 hr 00 min 48 sec)
Warmup complete CPU 0 instructions: 20000001 cycles: 4337852 cumulative IPC: 4.611 (Simulation time: 00 hr 00 min 48 sec)
Simulation finished CPU 0 instructions: 50000000 cycles: 45937350 cumulative IPC: 1.088 (Simulation time: 00 hr 05 min 00 sec)
Simulation complete CPU 0 instructions: 50000000 cycles: 45937350 cumulative IPC: 1.088 (Simulation time: 00 hr 05 min 00 sec)

ChampSim completed all CPUs

=== Simulation ===
CPU 0 runs /data0/tzh/champsim_traces/GAP/gap.tc.web-10B.champsimtrace.xz

Region of Interest Statistics

CPU 0 cumulative IPC: 1.088 instructions: 50000000 cycles: 45937350
CPU 0 Branch Prediction Accuracy: 89.19% MPKI: 35.05 Average ROB Occupancy at Mispredict: 12.17
Branch type MPKI
BRANCH_DIRECT_JUMP: 0.0408
BRANCH_INDIRECT: 0
BRANCH_CONDITIONAL: 35.01
BRANCH_DIRECT_CALL: 4e-05
BRANCH_INDIRECT_CALL: 0
BRANCH_RETURN: 8e-05

cpu0->cpu0_STLB TOTAL        ACCESS:       5442 HIT:       5407 MISS:         35 MSHR_MERGE:          0
cpu0->cpu0_STLB LOAD         ACCESS:       5442 HIT:       5407 MISS:         35 MSHR_MERGE:          0
cpu0->cpu0_STLB RFO          ACCESS:          0 HIT:          0 MISS:          0 MSHR_MERGE:          0
cpu0->cpu0_STLB PREFETCH     ACCESS:          0 HIT:          0 MISS:          0 MSHR_MERGE:          0
cpu0->cpu0_STLB WRITE        ACCESS:          0 HIT:          0 MISS:          0 MSHR_MERGE:          0
cpu0->cpu0_STLB TRANSLATION  ACCESS:          0 HIT:          0 MISS:          0 MSHR_MERGE:          0
cpu0->cpu0_STLB PREFETCH REQUESTED:          0 ISSUED:          0 USEFUL:          0 USELESS:          0 LATE:          0
cpu0->cpu0_STLB AVERAGE MISS LATENCY: 180.1 cycles
cpu0->cpu0_L2C TOTAL        ACCESS:    3347726 HIT:    2640110 MISS:     707616 MSHR_MERGE:     433700
cpu0->cpu0_L2C LOAD         ACCESS:      22553 HIT:      16812 MISS:       5741 MSHR_MERGE:        610
cpu0->cpu0_L2C RFO          ACCESS:        986 HIT:        886 MISS:        100 MSHR_MERGE:          0
cpu0->cpu0_L2C PREFETCH     ACCESS:    2889190 HIT:    2187462 MISS:     701728 MSHR_MERGE:     433090
cpu0->cpu0_L2C WRITE        ACCESS:     434959 HIT:     434944 MISS:         15 MSHR_MERGE:          0
cpu0->cpu0_L2C TRANSLATION  ACCESS:         38 HIT:          6 MISS:         32 MSHR_MERGE:          0
cpu0->cpu0_L2C PREFETCH REQUESTED:    2374611 ISSUED:    2365510 USEFUL:     223182 USELESS:       7565 LATE:        610
cpu0->cpu0_L2C AVERAGE MISS LATENCY: 131.5 cycles
cpu0->cpu0_L1I TOTAL        ACCESS:      39532 HIT:      39516 MISS:         16 MSHR_MERGE:          2
cpu0->cpu0_L1I LOAD         ACCESS:      39532 HIT:      39516 MISS:         16 MSHR_MERGE:          2
cpu0->cpu0_L1I RFO          ACCESS:          0 HIT:          0 MISS:          0 MSHR_MERGE:          0
cpu0->cpu0_L1I PREFETCH     ACCESS:          0 HIT:          0 MISS:          0 MSHR_MERGE:          0
cpu0->cpu0_L1I WRITE        ACCESS:          0 HIT:          0 MISS:          0 MSHR_MERGE:          0
cpu0->cpu0_L1I TRANSLATION  ACCESS:          0 HIT:          0 MISS:          0 MSHR_MERGE:          0
cpu0->cpu0_L1I PREFETCH REQUESTED:          0 ISSUED:          0 USEFUL:          0 USELESS:          0 LATE:          0
cpu0->cpu0_L1I AVERAGE MISS LATENCY: 174.4 cycles
cpu0->cpu0_L1D TOTAL        ACCESS:   17896248 HIT:   17239845 MISS:     656403 MSHR_MERGE:     109160
cpu0->cpu0_L1D LOAD         ACCESS:   13320083 HIT:   13191394 MISS:     128689 MSHR_MERGE:     106150
cpu0->cpu0_L1D RFO          ACCESS:          0 HIT:          0 MISS:          0 MSHR_MERGE:          0
cpu0->cpu0_L1D PREFETCH     ACCESS:     546348 HIT:      20823 MISS:     525525 MSHR_MERGE:       1845
cpu0->cpu0_L1D WRITE        ACCESS:    4029744 HIT:    4027593 MISS:       2151 MSHR_MERGE:       1165
cpu0->cpu0_L1D TRANSLATION  ACCESS:         73 HIT:         35 MISS:         38 MSHR_MERGE:          0
cpu0->cpu0_L1D PREFETCH REQUESTED:     546356 ISSUED:     546348 USEFUL:     523287 USELESS:        401 LATE:      28569
cpu0->cpu0_L1D AVERAGE MISS LATENCY: 49.41 cycles
cpu0->cpu0_ITLB TOTAL        ACCESS:      39531 HIT:      39529 MISS:          2 MSHR_MERGE:          1
cpu0->cpu0_ITLB LOAD         ACCESS:      39531 HIT:      39529 MISS:          2 MSHR_MERGE:          1
cpu0->cpu0_ITLB RFO          ACCESS:          0 HIT:          0 MISS:          0 MSHR_MERGE:          0
cpu0->cpu0_ITLB PREFETCH     ACCESS:          0 HIT:          0 MISS:          0 MSHR_MERGE:          0
cpu0->cpu0_ITLB WRITE        ACCESS:          0 HIT:          0 MISS:          0 MSHR_MERGE:          0
cpu0->cpu0_ITLB TRANSLATION  ACCESS:          0 HIT:          0 MISS:          0 MSHR_MERGE:          0
cpu0->cpu0_ITLB PREFETCH REQUESTED:          0 ISSUED:          0 USEFUL:          0 USELESS:          0 LATE:          0
cpu0->cpu0_ITLB AVERAGE MISS LATENCY: 5 cycles
cpu0->cpu0_DTLB TOTAL        ACCESS:   17089435 HIT:   17078813 MISS:      10622 MSHR_MERGE:       5181
cpu0->cpu0_DTLB LOAD         ACCESS:   17089435 HIT:   17078813 MISS:      10622 MSHR_MERGE:       5181
cpu0->cpu0_DTLB RFO          ACCESS:          0 HIT:          0 MISS:          0 MSHR_MERGE:          0
cpu0->cpu0_DTLB PREFETCH     ACCESS:          0 HIT:          0 MISS:          0 MSHR_MERGE:          0
cpu0->cpu0_DTLB WRITE        ACCESS:          0 HIT:          0 MISS:          0 MSHR_MERGE:          0
cpu0->cpu0_DTLB TRANSLATION  ACCESS:          0 HIT:          0 MISS:          0 MSHR_MERGE:          0
cpu0->cpu0_DTLB PREFETCH REQUESTED:          0 ISSUED:          0 USEFUL:          0 USELESS:          0 LATE:          0
cpu0->cpu0_DTLB AVERAGE MISS LATENCY: 6.17 cycles
cpu0->LLC TOTAL        ACCESS:     507846 HIT:     340929 MISS:     166917 MSHR_MERGE:          0
cpu0->LLC LOAD         ACCESS:       5131 HIT:       2456 MISS:       2675 MSHR_MERGE:          0
cpu0->LLC RFO          ACCESS:        100 HIT:         72 MISS:         28 MSHR_MERGE:          0
cpu0->LLC PREFETCH     ACCESS:     268638 HIT:     122562 MISS:     146076 MSHR_MERGE:          0
cpu0->LLC WRITE        ACCESS:     233945 HIT:     215831 MISS:      18114 MSHR_MERGE:          0
cpu0->LLC TRANSLATION  ACCESS:         32 HIT:          8 MISS:         24 MSHR_MERGE:          0
cpu0->LLC PREFETCH REQUESTED:          0 ISSUED:          0 USEFUL:          0 USELESS:          0 LATE:          0
cpu0->LLC AVERAGE MISS LATENCY: 38.29 cycles

DRAM Statistics

Channel 0 RQ ROW_BUFFER_HIT:       6902
  ROW_BUFFER_MISS:     141869
  AVG DBUS CONGESTED CYCLE: 7.86
Channel 0 WQ ROW_BUFFER_HIT:      26358
  ROW_BUFFER_MISS:     108413
  FULL:          0
Channel 0 REFRESHES ISSUED:       3828

[ROI Statistics]
[System Configuration]
num_cpus 1
cpu_freq 4000
fetch_width 6
decode_width 6
dispatch_width 6
execute_width 6
lq_width 2
sq_width 2
retire_width 6
scheduler_size 160
branch_mispredict_penalty 1
rob_size 352
lq_size 240
sq_size 112
ifetch_buffer_size 64
decode_buffer_size 32
dispatch_buffer_size 32
register_file_size 288
decode_latency 1
dispatch_latency 1
schedule_latency 0
execute_latency 0
page_size 4096
block_size 64
core_0_itlb_set 16
core_0_itlb_way 4
core_0_itlb_rq_size 16
core_0_itlb_wq_size 16
core_0_itlb_pq_size 0
core_0_itlb_mshr_size 8
core_0_itlb_hit_latency 1
core_0_itlb_fill_latency 1
core_0_itlb_max_tag_check 2
core_0_itlb_max_fill 2
core_0_dtlb_set 16
core_0_dtlb_way 4
core_0_dtlb_rq_size 16
core_0_dtlb_wq_size 16
core_0_dtlb_pq_size 0
core_0_dtlb_mshr_size 8
core_0_dtlb_hit_latency 1
core_0_dtlb_fill_latency 1
core_0_dtlb_max_tag_check 2
core_0_dtlb_max_fill 2
core_0_stlb_set 128
core_0_stlb_way 12
core_0_stlb_rq_size 32
core_0_stlb_wq_size 32
core_0_stlb_pq_size 0
core_0_stlb_mshr_size 16
core_0_stlb_hit_latency 4
core_0_stlb_fill_latency 4
core_0_stlb_max_tag_check 1
core_0_stlb_max_fill 1
core_0_l1i_set 64
core_0_l1i_way 8
core_0_l1i_rq_size 64
core_0_l1i_wq_size 64
core_0_l1i_pq_size 32
core_0_l1i_mshr_size 8
core_0_l1i_hit_latency 2
core_0_l1i_fill_latency 2
core_0_l1i_max_tag_check 2
core_0_l1i_max_fill 2
core_0_l1d_set 64
core_0_l1d_way 12
core_0_l1d_rq_size 64
core_0_l1d_wq_size 64
core_0_l1d_pq_size 8
core_0_l1d_mshr_size 16
core_0_l1d_hit_latency 2
core_0_l1d_fill_latency 3
core_0_l1d_max_tag_check 2
core_0_l1d_max_fill 2
core_0_l2c_set 1024
core_0_l2c_way 8
core_0_l2c_rq_size 32
core_0_l2c_wq_size 32
core_0_l2c_pq_size 16
core_0_l2c_mshr_size 32
core_0_l2c_hit_latency 5
core_0_l2c_fill_latency 5
core_0_l2c_max_tag_check 1
core_0_l2c_max_fill 1
llc_set 2048
llc_way 16
llc_rq_size 32
llc_wq_size 32
llc_pq_size 32
llc_mshr_size 64
llc_hit_latency 10
llc_fill_latency 10
llc_max_tag_check 1
llc_max_fill 1
dram_channels 1
dram_ranks 1
dram_bankgroups 8
dram_banks 4
dram_rows 16384
dram_columns 1024
dram_channel_width 8
dram_rq_size 64
dram_wq_size 64
dram_size 4294967296
core_0_itlb_prefetcher no
core_0_dtlb_prefetcher no
core_0_stlb_prefetcher no
core_0_l1i_prefetcher next_line
core_0_l1d_prefetcher berti
core_0_l2c_prefetcher pythia
llc_prefetcher no
llc_replacement drrip

Core_0_instructions 50000000
Core_0_cycles 45937350
Core_0_IPC 1.08844
Core_0_branch_prediction_accuracy 89.1904
Core_0_branch_MPKI 35.0498
Core_0_average_ROB_occupancy_at_mispredict 12.174

Core_0_ITLB_total_access 39531
Core_0_ITLB_total_hit 39529
Core_0_ITLB_total_miss 2
Core_0_ITLB_total_MPKI 4e-05
Core_0_ITLB_total_miss_rate 5.05932e-05
Core_0_ITLB_demand_access 39531
Core_0_ITLB_demand_hit 39529
Core_0_ITLB_demand_miss 2
Core_0_ITLB_demand_MPKI 4e-05
Core_0_ITLB_demand_miss_rate 5.05932e-05
Core_0_ITLB_load_access 39531
Core_0_ITLB_load_hit 39529
Core_0_ITLB_load_miss 2
Core_0_ITLB_load_MPKI 4e-05
Core_0_ITLB_load_miss_rate 5.05932e-05
Core_0_ITLB_rfo_access 0
Core_0_ITLB_rfo_hit 0
Core_0_ITLB_rfo_miss 0
Core_0_ITLB_rfo_MPKI 0
Core_0_ITLB_rfo_miss_rate 0
Core_0_ITLB_prefetch_access 0
Core_0_ITLB_prefetch_hit 0
Core_0_ITLB_prefetch_miss 0
Core_0_ITLB_prefetch_MPKI 0
Core_0_ITLB_prefetch_miss_rate 0
Core_0_ITLB_writeback_access 0
Core_0_ITLB_writeback_hit 0
Core_0_ITLB_writeback_miss 0
Core_0_ITLB_writeback_MPKI 0
Core_0_ITLB_writeback_miss_rate 0
Core_0_ITLB_prefetch_requested 0
Core_0_ITLB_prefetch_issued 0
Core_0_ITLB_prefetch_useful 0
Core_0_ITLB_prefetch_useless 0
Core_0_ITLB_prefetch_late 0
Core_0_ITLB_prefetch_accuracy 0
Core_0_ITLB_prefetch_coverage 0

Core_0_DTLB_total_access 17089435
Core_0_DTLB_total_hit 17078813
Core_0_DTLB_total_miss 10622
Core_0_DTLB_total_MPKI 0.21244
Core_0_DTLB_total_miss_rate 0.000621554
Core_0_DTLB_demand_access 17089435
Core_0_DTLB_demand_hit 17078813
Core_0_DTLB_demand_miss 10622
Core_0_DTLB_demand_MPKI 0.21244
Core_0_DTLB_demand_miss_rate 0.000621554
Core_0_DTLB_load_access 17089435
Core_0_DTLB_load_hit 17078813
Core_0_DTLB_load_miss 10622
Core_0_DTLB_load_MPKI 0.21244
Core_0_DTLB_load_miss_rate 0.000621554
Core_0_DTLB_rfo_access 0
Core_0_DTLB_rfo_hit 0
Core_0_DTLB_rfo_miss 0
Core_0_DTLB_rfo_MPKI 0
Core_0_DTLB_rfo_miss_rate 0
Core_0_DTLB_prefetch_access 0
Core_0_DTLB_prefetch_hit 0
Core_0_DTLB_prefetch_miss 0
Core_0_DTLB_prefetch_MPKI 0
Core_0_DTLB_prefetch_miss_rate 0
Core_0_DTLB_writeback_access 0
Core_0_DTLB_writeback_hit 0
Core_0_DTLB_writeback_miss 0
Core_0_DTLB_writeback_MPKI 0
Core_0_DTLB_writeback_miss_rate 0
Core_0_DTLB_prefetch_requested 0
Core_0_DTLB_prefetch_issued 0
Core_0_DTLB_prefetch_useful 0
Core_0_DTLB_prefetch_useless 0
Core_0_DTLB_prefetch_late 0
Core_0_DTLB_prefetch_accuracy 0
Core_0_DTLB_prefetch_coverage 0

Core_0_STLB_total_access 5442
Core_0_STLB_total_hit 5407
Core_0_STLB_total_miss 35
Core_0_STLB_total_MPKI 0.0007
Core_0_STLB_total_miss_rate 0.00643146
Core_0_STLB_demand_access 5442
Core_0_STLB_demand_hit 5407
Core_0_STLB_demand_miss 35
Core_0_STLB_demand_MPKI 0.0007
Core_0_STLB_demand_miss_rate 0.00643146
Core_0_STLB_load_access 5442
Core_0_STLB_load_hit 5407
Core_0_STLB_load_miss 35
Core_0_STLB_load_MPKI 0.0007
Core_0_STLB_load_miss_rate 0.00643146
Core_0_STLB_rfo_access 0
Core_0_STLB_rfo_hit 0
Core_0_STLB_rfo_miss 0
Core_0_STLB_rfo_MPKI 0
Core_0_STLB_rfo_miss_rate 0
Core_0_STLB_prefetch_access 0
Core_0_STLB_prefetch_hit 0
Core_0_STLB_prefetch_miss 0
Core_0_STLB_prefetch_MPKI 0
Core_0_STLB_prefetch_miss_rate 0
Core_0_STLB_writeback_access 0
Core_0_STLB_writeback_hit 0
Core_0_STLB_writeback_miss 0
Core_0_STLB_writeback_MPKI 0
Core_0_STLB_writeback_miss_rate 0
Core_0_STLB_prefetch_requested 0
Core_0_STLB_prefetch_issued 0
Core_0_STLB_prefetch_useful 0
Core_0_STLB_prefetch_useless 0
Core_0_STLB_prefetch_late 0
Core_0_STLB_prefetch_accuracy 0
Core_0_STLB_prefetch_coverage 0

Core_0_L1I_total_access 39532
Core_0_L1I_total_hit 39516
Core_0_L1I_total_miss 16
Core_0_L1I_total_MPKI 0.00032
Core_0_L1I_total_miss_rate 0.000404735
Core_0_L1I_demand_access 39532
Core_0_L1I_demand_hit 39516
Core_0_L1I_demand_miss 16
Core_0_L1I_demand_MPKI 0.00032
Core_0_L1I_demand_miss_rate 0.000404735
Core_0_L1I_load_access 39532
Core_0_L1I_load_hit 39516
Core_0_L1I_load_miss 16
Core_0_L1I_load_MPKI 0.00032
Core_0_L1I_load_miss_rate 0.000404735
Core_0_L1I_rfo_access 0
Core_0_L1I_rfo_hit 0
Core_0_L1I_rfo_miss 0
Core_0_L1I_rfo_MPKI 0
Core_0_L1I_rfo_miss_rate 0
Core_0_L1I_prefetch_access 0
Core_0_L1I_prefetch_hit 0
Core_0_L1I_prefetch_miss 0
Core_0_L1I_prefetch_MPKI 0
Core_0_L1I_prefetch_miss_rate 0
Core_0_L1I_writeback_access 0
Core_0_L1I_writeback_hit 0
Core_0_L1I_writeback_miss 0
Core_0_L1I_writeback_MPKI 0
Core_0_L1I_writeback_miss_rate 0
Core_0_L1I_prefetch_requested 0
Core_0_L1I_prefetch_issued 0
Core_0_L1I_prefetch_useful 0
Core_0_L1I_prefetch_useless 0
Core_0_L1I_prefetch_late 0
Core_0_L1I_prefetch_accuracy 0
Core_0_L1I_prefetch_coverage 0

Core_0_L1D_total_access 17896175
Core_0_L1D_total_hit 17239810
Core_0_L1D_total_miss 656365
Core_0_L1D_total_MPKI 13.1273
Core_0_L1D_total_miss_rate 0.0366763
Core_0_L1D_demand_access 13320083
Core_0_L1D_demand_hit 13191394
Core_0_L1D_demand_miss 128689
Core_0_L1D_demand_MPKI 2.57378
Core_0_L1D_demand_miss_rate 0.00966128
Core_0_L1D_load_access 13320083
Core_0_L1D_load_hit 13191394
Core_0_L1D_load_miss 128689
Core_0_L1D_load_MPKI 2.57378
Core_0_L1D_load_miss_rate 0.00966128
Core_0_L1D_rfo_access 0
Core_0_L1D_rfo_hit 0
Core_0_L1D_rfo_miss 0
Core_0_L1D_rfo_MPKI 0
Core_0_L1D_rfo_miss_rate 0
Core_0_L1D_prefetch_access 546348
Core_0_L1D_prefetch_hit 20823
Core_0_L1D_prefetch_miss 525525
Core_0_L1D_prefetch_MPKI 10.5105
Core_0_L1D_prefetch_miss_rate 0.961887
Core_0_L1D_writeback_access 4029744
Core_0_L1D_writeback_hit 4027593
Core_0_L1D_writeback_miss 2151
Core_0_L1D_writeback_MPKI 0.04302
Core_0_L1D_writeback_miss_rate 0.000533781
Core_0_L1D_prefetch_requested 546356
Core_0_L1D_prefetch_issued 546348
Core_0_L1D_prefetch_useful 523287
Core_0_L1D_prefetch_useless 401
Core_0_L1D_prefetch_late 28569
Core_0_L1D_prefetch_accuracy 0.957791
Core_0_L1D_prefetch_coverage 0.802617

Core_0_L2C_total_access 3347688
Core_0_L2C_total_hit 2640104
Core_0_L2C_total_miss 707584
Core_0_L2C_total_MPKI 14.1517
Core_0_L2C_total_miss_rate 0.211365
Core_0_L2C_demand_access 23539
Core_0_L2C_demand_hit 17698
Core_0_L2C_demand_miss 5841
Core_0_L2C_demand_MPKI 0.11682
Core_0_L2C_demand_miss_rate 0.248141
Core_0_L2C_load_access 22553
Core_0_L2C_load_hit 16812
Core_0_L2C_load_miss 5741
Core_0_L2C_load_MPKI 0.11482
Core_0_L2C_load_miss_rate 0.254556
Core_0_L2C_rfo_access 986
Core_0_L2C_rfo_hit 886
Core_0_L2C_rfo_miss 100
Core_0_L2C_rfo_MPKI 0.002
Core_0_L2C_rfo_miss_rate 0.10142
Core_0_L2C_prefetch_access 2889190
Core_0_L2C_prefetch_hit 2187462
Core_0_L2C_prefetch_miss 701728
Core_0_L2C_prefetch_MPKI 14.0346
Core_0_L2C_prefetch_miss_rate 0.242881
Core_0_L2C_writeback_access 434959
Core_0_L2C_writeback_hit 434944
Core_0_L2C_writeback_miss 15
Core_0_L2C_writeback_MPKI 0.0003
Core_0_L2C_writeback_miss_rate 3.4486e-05
Core_0_L2C_prefetch_requested 2374611
Core_0_L2C_prefetch_issued 2365510
Core_0_L2C_prefetch_useful 223182
Core_0_L2C_prefetch_useless 7565
Core_0_L2C_prefetch_late 610
Core_0_L2C_prefetch_accuracy 0.0943484
Core_0_L2C_prefetch_coverage 0.974496

Core_0_LLC_total_access 507814
Core_0_LLC_total_hit 340921
Core_0_LLC_total_miss 166893
Core_0_LLC_total_MPKI 3.33786
Core_0_LLC_total_miss_rate 0.32865
Core_0_LLC_demand_access 5231
Core_0_LLC_demand_hit 2528
Core_0_LLC_demand_miss 2703
Core_0_LLC_demand_MPKI 0.05406
Core_0_LLC_demand_miss_rate 0.516727
Core_0_LLC_load_access 5131
Core_0_LLC_load_hit 2456
Core_0_LLC_load_miss 2675
Core_0_LLC_load_MPKI 0.0535
Core_0_LLC_load_miss_rate 0.521341
Core_0_LLC_rfo_access 100
Core_0_LLC_rfo_hit 72
Core_0_LLC_rfo_miss 28
Core_0_LLC_rfo_MPKI 0.00056
Core_0_LLC_rfo_miss_rate 0.28
Core_0_LLC_prefetch_access 268638
Core_0_LLC_prefetch_hit 122562
Core_0_LLC_prefetch_miss 146076
Core_0_LLC_prefetch_MPKI 2.92152
Core_0_LLC_prefetch_miss_rate 0.543765
Core_0_LLC_writeback_access 233945
Core_0_LLC_writeback_hit 215831
Core_0_LLC_writeback_miss 18114
Core_0_LLC_writeback_MPKI 0.36228
Core_0_LLC_writeback_miss_rate 0.0774285
Core_0_LLC_prefetch_requested 0
Core_0_LLC_prefetch_issued 0
Core_0_LLC_prefetch_useful 0
Core_0_LLC_prefetch_useless 0
Core_0_LLC_prefetch_late 0
Core_0_LLC_prefetch_accuracy 0
Core_0_LLC_prefetch_coverage 0

[DRAM Statistics]
Channel_0_RQ_row_buffer_hit 6902
Channel_0_RQ_row_buffer_miss 141869
Channel_0_WQ_row_buffer_hit 26358
Channel_0_WQ_row_buffer_miss 108413
Channel_0_WQ_full 0
Channel_0_dbus_congested 948732
DRAM_total_RQ_row_buffer_hit 6902
DRAM_total_RQ_row_buffer_miss 141869
DRAM_total_WQ_row_buffer_hit 26358
DRAM_total_WQ_row_buffer_miss 108413
DRAM_total_WQ_full 0
DRAM_total_dbus_congested 948732
DRAM_avg_congested_cycle 7.86006

======STLB miss causes ========
Core_0_STLB_miss_cause_breakdown
Core_0_STLB_cause_Demand_Data_miss 0
Core_0_STLB_cause_Demand_Data_miss_rate 0
Core_0_STLB_cause_Demand_Instruction_miss 0
Core_0_STLB_cause_Demand_Instruction_miss_rate 0
Core_0_STLB_cause_L1D_Prefetch_miss 35
Core_0_STLB_cause_L1D_Prefetch_miss_rate 0.00643146
Core_0_STLB_cause_L1I_Prefetch_miss 0
Core_0_STLB_cause_L1I_Prefetch_miss_rate 0
Core_0_STLB_cause_Other_miss 0
Core_0_STLB_cause_Other_miss_rate 0
Core_0_STLB_Demand_miss 0
Core_0_STLB_Demand_miss_rate 0
Core_0_STLB_L1D_Prefetch_miss 35
Core_0_STLB_L1D_Prefetch_miss_rate 0.00643146
Core_0_STLB_Other_miss 0
Core_0_STLB_Other_miss_rate 0
