[VMEM] WARNING: physical memory size is smaller than virtual memory size.

*** ChampSim Multicore Out-of-Order Simulator ***
Warmup Instructions: 20000000
Simulation Instructions: 50000000
Number of CPUs: 1
Page size: 4096
STLB ideal mode: demand
Core 0: /data0/tzh/champsim_traces/GAP/gap.pr.twitter-10B.champsimtrace.xz
 L1D Berti prefetcher
Off-chip DRAM Size: 4 GiB Channels: 1 Width: 64-bit Data Rate: 3205 MT/s
Warmup halting CPU 0 at instruction 20000003 cycle 4838320 for remainder of phase
Warmup finished CPU 0 instructions: 20000003 cycles: 4838320 cumulative IPC: 4.134 (Simulation time: 00 hr 01 min 53 sec)
Warmup complete CPU 0 instructions: 20000003 cycles: 4838320 cumulative IPC: 4.134 (Simulation time: 00 hr 01 min 53 sec)
Simulation CPU 0 warning: IPC 0.035105 < 0.05
Simulation CPU 0 warning: IPC 0.037726 < 0.05
Simulation CPU 0 warning: IPC 0.034252 < 0.05
Simulation CPU 0 warning: IPC 0.035201 < 0.05
Simulation CPU 0 warning: IPC 0.033133 < 0.05
Simulation CPU 0 warning: IPC 0.035459 < 0.05
Simulation CPU 0 warning: IPC 0.036093 < 0.05
Simulation CPU 0 warning: IPC 0.037074 < 0.05
Simulation CPU 0 warning: IPC 0.033525 < 0.05
Simulation CPU 0 warning: IPC 0.035503 < 0.05
Simulation CPU 0 warning: IPC 0.036838 < 0.05
Simulation CPU 0 warning: IPC 0.036377 < 0.05
Simulation CPU 0 warning: IPC 0.034723 < 0.05
Simulation CPU 0 warning: IPC 0.03481 < 0.05
Simulation CPU 0 warning: IPC 0.03491 < 0.05
Simulation CPU 0 warning: IPC 0.039848 < 0.05
Simulation CPU 0 warning: IPC 0.04178 < 0.05
Simulation CPU 0 warning: IPC 0.037721 < 0.05
Simulation CPU 0 warning: IPC 0.040854 < 0.05
Simulation CPU 0 warning: IPC 0.038208 < 0.05
Simulation CPU 0 warning: IPC 0.046882 < 0.05
Simulation CPU 0 warning: IPC 0.046226 < 0.05
Simulation CPU 0 warning: IPC 0.045379 < 0.05
Simulation CPU 0 warning: IPC 0.045963 < 0.05
Simulation CPU 0 warning: IPC 0.042217 < 0.05
Simulation CPU 0 warning: IPC 0.037379 < 0.05
Simulation CPU 0 warning: IPC 0.03504 < 0.05
Simulation CPU 0 warning: IPC 0.035466 < 0.05
Simulation CPU 0 warning: IPC 0.035667 < 0.05
Simulation CPU 0 warning: IPC 0.036176 < 0.05
Simulation CPU 0 warning: IPC 0.035966 < 0.05
Simulation CPU 0 warning: IPC 0.037892 < 0.05
Simulation CPU 0 warning: IPC 0.039401 < 0.05
Simulation CPU 0 warning: IPC 0.039605 < 0.05
Simulation CPU 0 warning: IPC 0.037952 < 0.05
Simulation CPU 0 warning: IPC 0.037237 < 0.05
Simulation CPU 0 warning: IPC 0.034487 < 0.05
Simulation CPU 0 warning: IPC 0.037088 < 0.05
Simulation CPU 0 warning: IPC 0.037666 < 0.05
Simulation CPU 0 warning: IPC 0.04233 < 0.05
Simulation CPU 0 warning: IPC 0.037354 < 0.05
Simulation CPU 0 warning: IPC 0.037938 < 0.05
Simulation CPU 0 warning: IPC 0.035042 < 0.05
Simulation CPU 0 warning: IPC 0.039648 < 0.05
Simulation CPU 0 warning: IPC 0.036674 < 0.05
Simulation CPU 0 warning: IPC 0.035612 < 0.05
Simulation CPU 0 warning: IPC 0.033821 < 0.05
Simulation CPU 0 warning: IPC 0.034196 < 0.05
Simulation CPU 0 warning: IPC 0.035012 < 0.05
Simulation CPU 0 warning: IPC 0.040002 < 0.05
Simulation CPU 0 warning: IPC 0.040806 < 0.05
Simulation CPU 0 warning: IPC 0.039053 < 0.05
Simulation CPU 0 warning: IPC 0.037561 < 0.05
Simulation CPU 0 warning: IPC 0.041349 < 0.05
Simulation CPU 0 warning: IPC 0.035715 < 0.05
Simulation CPU 0 warning: IPC 0.034138 < 0.05
Simulation CPU 0 warning: IPC 0.039067 < 0.05
Simulation CPU 0 warning: IPC 0.039642 < 0.05
Simulation CPU 0 warning: IPC 0.037914 < 0.05
Simulation CPU 0 warning: IPC 0.040475 < 0.05
Simulation CPU 0 warning: IPC 0.03892 < 0.05
Simulation CPU 0 warning: IPC 0.040788 < 0.05
Simulation CPU 0 warning: IPC 0.039046 < 0.05
Simulation CPU 0 warning: IPC 0.03703 < 0.05
Simulation CPU 0 warning: IPC 0.038071 < 0.05
Simulation CPU 0 warning: IPC 0.037372 < 0.05
Simulation CPU 0 warning: IPC 0.039864 < 0.05
Simulation CPU 0 warning: IPC 0.03192 < 0.05
Simulation CPU 0 warning: IPC 0.032324 < 0.05
Simulation CPU 0 warning: IPC 0.030389 < 0.05
Simulation CPU 0 warning: IPC 0.035591 < 0.05
Simulation CPU 0 warning: IPC 0.037825 < 0.05
Simulation CPU 0 warning: IPC 0.035119 < 0.05
Simulation CPU 0 warning: IPC 0.030081 < 0.05
Simulation CPU 0 warning: IPC 0.034237 < 0.05
Simulation CPU 0 warning: IPC 0.032727 < 0.05
Simulation CPU 0 warning: IPC 0.030763 < 0.05
Simulation CPU 0 warning: IPC 0.029896 < 0.05
Simulation CPU 0 warning: IPC 0.031584 < 0.05
Simulation CPU 0 warning: IPC 0.035132 < 0.05
Simulation CPU 0 warning: IPC 0.040971 < 0.05
Simulation CPU 0 warning: IPC 0.039141 < 0.05
Simulation CPU 0 warning: IPC 0.029226 < 0.05
Simulation CPU 0 warning: IPC 0.03451 < 0.05
Simulation CPU 0 warning: IPC 0.033147 < 0.05
Simulation CPU 0 warning: IPC 0.033168 < 0.05
Simulation CPU 0 warning: IPC 0.031704 < 0.05
Simulation CPU 0 warning: IPC 0.035357 < 0.05
Simulation CPU 0 warning: IPC 0.04 < 0.05
Simulation CPU 0 warning: IPC 0.043696 < 0.05
Simulation CPU 0 warning: IPC 0.033062 < 0.05
Simulation CPU 0 warning: IPC 0.02981 < 0.05
Simulation CPU 0 warning: IPC 0.029412 < 0.05
Simulation CPU 0 warning: IPC 0.033158 < 0.05
Simulation CPU 0 warning: IPC 0.029762 < 0.05
Simulation CPU 0 warning: IPC 0.031493 < 0.05
Simulation CPU 0 warning: IPC 0.030516 < 0.05
Simulation CPU 0 warning: IPC 0.033647 < 0.05
Simulation CPU 0 warning: IPC 0.040379 < 0.05
Simulation CPU 0 warning: IPC 0.040238 < 0.05
Simulation CPU 0 warning: IPC 0.03866 < 0.05
Simulation CPU 0 warning: IPC 0.041068 < 0.05
Simulation CPU 0 warning: IPC 0.044579 < 0.05
Simulation CPU 0 warning: IPC 0.044179 < 0.05
Simulation CPU 0 warning: IPC 0.042647 < 0.05
Simulation CPU 0 warning: IPC 0.038811 < 0.05
Simulation CPU 0 warning: IPC 0.03716 < 0.05
Simulation CPU 0 warning: IPC 0.035508 < 0.05
Simulation CPU 0 warning: IPC 0.035633 < 0.05
Simulation CPU 0 warning: IPC 0.037095 < 0.05
Simulation CPU 0 warning: IPC 0.035831 < 0.05
Simulation CPU 0 warning: IPC 0.035456 < 0.05
Simulation CPU 0 warning: IPC 0.033343 < 0.05
Simulation CPU 0 warning: IPC 0.033299 < 0.05
Simulation CPU 0 warning: IPC 0.035001 < 0.05
Simulation CPU 0 warning: IPC 0.040493 < 0.05
Simulation CPU 0 warning: IPC 0.037644 < 0.05
Simulation CPU 0 warning: IPC 0.037739 < 0.05
Simulation CPU 0 warning: IPC 0.037398 < 0.05
Simulation CPU 0 warning: IPC 0.036115 < 0.05
Simulation CPU 0 warning: IPC 0.036485 < 0.05
Simulation CPU 0 warning: IPC 0.036364 < 0.05
Simulation CPU 0 warning: IPC 0.035657 < 0.05
Simulation CPU 0 warning: IPC 0.035489 < 0.05
Simulation CPU 0 warning: IPC 0.035193 < 0.05
Simulation CPU 0 warning: IPC 0.034877 < 0.05
Simulation CPU 0 warning: IPC 0.034819 < 0.05
Simulation CPU 0 warning: IPC 0.035768 < 0.05
Simulation CPU 0 warning: IPC 0.033778 < 0.05
Simulation CPU 0 warning: IPC 0.034368 < 0.05
Simulation CPU 0 warning: IPC 0.03631 < 0.05
Simulation CPU 0 warning: IPC 0.034854 < 0.05
Simulation CPU 0 warning: IPC 0.035798 < 0.05
Simulation CPU 0 warning: IPC 0.03621 < 0.05
Simulation CPU 0 warning: IPC 0.033096 < 0.05
Simulation CPU 0 warning: IPC 0.033258 < 0.05
Simulation finished CPU 0 instructions: 50000002 cycles: 1366527801 cumulative IPC: 0.03659 (Simulation time: 01 hr 57 min 28 sec)
Simulation complete CPU 0 instructions: 50000002 cycles: 1366527801 cumulative IPC: 0.03659 (Simulation time: 01 hr 57 min 28 sec)

ChampSim completed all CPUs

=== Simulation ===
CPU 0 runs /data0/tzh/champsim_traces/GAP/gap.pr.twitter-10B.champsimtrace.xz

Region of Interest Statistics

CPU 0 cumulative IPC: 0.03659 instructions: 50000002 cycles: 1366527801
CPU 0 Branch Prediction Accuracy: 96.84% MPKI: 5.771 Average ROB Occupancy at Mispredict: 284.4
Branch type MPKI
BRANCH_DIRECT_JUMP: 0
BRANCH_INDIRECT: 0
BRANCH_CONDITIONAL: 5.771
BRANCH_DIRECT_CALL: 0
BRANCH_INDIRECT_CALL: 0
BRANCH_RETURN: 0

cpu0->cpu0_STLB TOTAL        ACCESS:    7634550 HIT:    7574758 MISS:      59792 MSHR_MERGE:          0
cpu0->cpu0_STLB LOAD         ACCESS:    7634550 HIT:    7574758 MISS:      59792 MSHR_MERGE:          0
cpu0->cpu0_STLB RFO          ACCESS:          0 HIT:          0 MISS:          0 MSHR_MERGE:          0
cpu0->cpu0_STLB PREFETCH     ACCESS:          0 HIT:          0 MISS:          0 MSHR_MERGE:          0
cpu0->cpu0_STLB WRITE        ACCESS:          0 HIT:          0 MISS:          0 MSHR_MERGE:          0
cpu0->cpu0_STLB TRANSLATION  ACCESS:          0 HIT:          0 MISS:          0 MSHR_MERGE:          0
cpu0->cpu0_STLB PREFETCH REQUESTED:          0 ISSUED:          0 USEFUL:          0 USELESS:          0 LATE:          0
cpu0->cpu0_STLB AVERAGE MISS LATENCY: 224.1 cycles
cpu0->cpu0_L2C TOTAL        ACCESS:   20971567 HIT:    5323716 MISS:   15647851 MSHR_MERGE:     864187
cpu0->cpu0_L2C LOAD         ACCESS:    7546065 HIT:    1060360 MISS:    6485705 MSHR_MERGE:      94310
cpu0->cpu0_L2C RFO          ACCESS:      20165 HIT:      15262 MISS:       4903 MSHR_MERGE:          5
cpu0->cpu0_L2C PREFETCH     ACCESS:   13284686 HIT:    4188118 MISS:    9096568 MSHR_MERGE:     769872
cpu0->cpu0_L2C WRITE        ACCESS:      43958 HIT:      43088 MISS:        870 MSHR_MERGE:          0
cpu0->cpu0_L2C TRANSLATION  ACCESS:      76693 HIT:      16888 MISS:      59805 MSHR_MERGE:          0
cpu0->cpu0_L2C PREFETCH REQUESTED:   12285591 ISSUED:   12266892 USEFUL:     888353 USELESS:    7087040 LATE:      94315
cpu0->cpu0_L2C AVERAGE MISS LATENCY: 182.4 cycles
cpu0->cpu0_L1I TOTAL        ACCESS:    5451435 HIT:    5451435 MISS:          0 MSHR_MERGE:          0
cpu0->cpu0_L1I LOAD         ACCESS:    5451435 HIT:    5451435 MISS:          0 MSHR_MERGE:          0
cpu0->cpu0_L1I RFO          ACCESS:          0 HIT:          0 MISS:          0 MSHR_MERGE:          0
cpu0->cpu0_L1I PREFETCH     ACCESS:          0 HIT:          0 MISS:          0 MSHR_MERGE:          0
cpu0->cpu0_L1I WRITE        ACCESS:          0 HIT:          0 MISS:          0 MSHR_MERGE:          0
cpu0->cpu0_L1I TRANSLATION  ACCESS:          0 HIT:          0 MISS:          0 MSHR_MERGE:          0
cpu0->cpu0_L1I PREFETCH REQUESTED:          0 ISSUED:          0 USEFUL:          0 USELESS:          0 LATE:          0
cpu0->cpu0_L1I AVERAGE MISS LATENCY: - cycles
cpu0->cpu0_L1D TOTAL        ACCESS:   20990728 HIT:   12270949 MISS:    8719779 MSHR_MERGE:      59078
cpu0->cpu0_L1D LOAD         ACCESS:   18843216 HIT:   11243901 MISS:    7599315 MSHR_MERGE:      53251
cpu0->cpu0_L1D RFO          ACCESS:          0 HIT:          0 MISS:          0 MSHR_MERGE:          0
cpu0->cpu0_L1D PREFETCH     ACCESS:    1153801 HIT:     132438 MISS:    1021363 MSHR_MERGE:       3585
cpu0->cpu0_L1D WRITE        ACCESS:     845642 HIT:     823294 MISS:      22348 MSHR_MERGE:       2182
cpu0->cpu0_L1D TRANSLATION  ACCESS:     148069 HIT:      71316 MISS:      76753 MSHR_MERGE:         60
cpu0->cpu0_L1D PREFETCH REQUESTED:    1153801 ISSUED:    1153801 USEFUL:     598590 USELESS:     419057 LATE:      25946
cpu0->cpu0_L1D AVERAGE MISS LATENCY: 164.9 cycles
cpu0->cpu0_ITLB TOTAL        ACCESS:    5451435 HIT:    5451435 MISS:          0 MSHR_MERGE:          0
cpu0->cpu0_ITLB LOAD         ACCESS:    5451435 HIT:    5451435 MISS:          0 MSHR_MERGE:          0
cpu0->cpu0_ITLB RFO          ACCESS:          0 HIT:          0 MISS:          0 MSHR_MERGE:          0
cpu0->cpu0_ITLB PREFETCH     ACCESS:          0 HIT:          0 MISS:          0 MSHR_MERGE:          0
cpu0->cpu0_ITLB WRITE        ACCESS:          0 HIT:          0 MISS:          0 MSHR_MERGE:          0
cpu0->cpu0_ITLB TRANSLATION  ACCESS:          0 HIT:          0 MISS:          0 MSHR_MERGE:          0
cpu0->cpu0_ITLB PREFETCH REQUESTED:          0 ISSUED:          0 USEFUL:          0 USELESS:          0 LATE:          0
cpu0->cpu0_ITLB AVERAGE MISS LATENCY: - cycles
cpu0->cpu0_DTLB TOTAL        ACCESS:   20821601 HIT:   13166260 MISS:    7655341 MSHR_MERGE:      20790
cpu0->cpu0_DTLB LOAD         ACCESS:   20821601 HIT:   13166260 MISS:    7655341 MSHR_MERGE:      20790
cpu0->cpu0_DTLB RFO          ACCESS:          0 HIT:          0 MISS:          0 MSHR_MERGE:          0
cpu0->cpu0_DTLB PREFETCH     ACCESS:          0 HIT:          0 MISS:          0 MSHR_MERGE:          0
cpu0->cpu0_DTLB WRITE        ACCESS:          0 HIT:          0 MISS:          0 MSHR_MERGE:          0
cpu0->cpu0_DTLB TRANSLATION  ACCESS:          0 HIT:          0 MISS:          0 MSHR_MERGE:          0
cpu0->cpu0_DTLB PREFETCH REQUESTED:          0 ISSUED:          0 USEFUL:          0 USELESS:          0 LATE:          0
cpu0->cpu0_DTLB AVERAGE MISS LATENCY: 6.765 cycles
cpu0->LLC TOTAL        ACCESS:   14818897 HIT:    1293112 MISS:   13525785 MSHR_MERGE:          0
cpu0->LLC LOAD         ACCESS:    6391395 HIT:     614774 MISS:    5776621 MSHR_MERGE:          0
cpu0->LLC RFO          ACCESS:       4898 HIT:       1481 MISS:       3417 MSHR_MERGE:          0
cpu0->LLC PREFETCH     ACCESS:    8326696 HIT:     655731 MISS:    7670965 MSHR_MERGE:          0
cpu0->LLC WRITE        ACCESS:      36103 HIT:       9065 MISS:      27038 MSHR_MERGE:          0
cpu0->LLC TRANSLATION  ACCESS:      59805 HIT:      12061 MISS:      47744 MSHR_MERGE:          0
cpu0->LLC PREFETCH REQUESTED:          0 ISSUED:          0 USEFUL:          0 USELESS:          0 LATE:          0
cpu0->LLC AVERAGE MISS LATENCY: 185.2 cycles

DRAM Statistics

Channel 0 RQ ROW_BUFFER_HIT:     262685
  ROW_BUFFER_MISS:   13236029
  AVG DBUS CONGESTED CYCLE: 5.096
Channel 0 WQ ROW_BUFFER_HIT:      13579
  ROW_BUFFER_MISS:      21883
  FULL:          0
Channel 0 REFRESHES ISSUED:     113877

[ROI Statistics]
[System Configuration]
num_cpus 1
cpu_freq 4000
fetch_width 6
decode_width 6
dispatch_width 6
execute_width 6
lq_width 2
sq_width 2
retire_width 6
scheduler_size 160
branch_mispredict_penalty 1
rob_size 352
lq_size 240
sq_size 112
ifetch_buffer_size 64
decode_buffer_size 32
dispatch_buffer_size 32
register_file_size 288
decode_latency 1
dispatch_latency 1
schedule_latency 0
execute_latency 0
page_size 4096
block_size 64
core_0_itlb_set 16
core_0_itlb_way 4
core_0_itlb_rq_size 16
core_0_itlb_wq_size 16
core_0_itlb_pq_size 0
core_0_itlb_mshr_size 8
core_0_itlb_hit_latency 1
core_0_itlb_fill_latency 1
core_0_itlb_max_tag_check 2
core_0_itlb_max_fill 2
core_0_dtlb_set 16
core_0_dtlb_way 4
core_0_dtlb_rq_size 16
core_0_dtlb_wq_size 16
core_0_dtlb_pq_size 0
core_0_dtlb_mshr_size 8
core_0_dtlb_hit_latency 1
core_0_dtlb_fill_latency 1
core_0_dtlb_max_tag_check 2
core_0_dtlb_max_fill 2
core_0_stlb_set 128
core_0_stlb_way 12
core_0_stlb_rq_size 32
core_0_stlb_wq_size 32
core_0_stlb_pq_size 0
core_0_stlb_mshr_size 16
core_0_stlb_hit_latency 4
core_0_stlb_fill_latency 4
core_0_stlb_max_tag_check 1
core_0_stlb_max_fill 1
core_0_l1i_set 64
core_0_l1i_way 8
core_0_l1i_rq_size 64
core_0_l1i_wq_size 64
core_0_l1i_pq_size 32
core_0_l1i_mshr_size 8
core_0_l1i_hit_latency 2
core_0_l1i_fill_latency 2
core_0_l1i_max_tag_check 2
core_0_l1i_max_fill 2
core_0_l1d_set 64
core_0_l1d_way 12
core_0_l1d_rq_size 64
core_0_l1d_wq_size 64
core_0_l1d_pq_size 8
core_0_l1d_mshr_size 16
core_0_l1d_hit_latency 2
core_0_l1d_fill_latency 3
core_0_l1d_max_tag_check 2
core_0_l1d_max_fill 2
core_0_l2c_set 1024
core_0_l2c_way 8
core_0_l2c_rq_size 32
core_0_l2c_wq_size 32
core_0_l2c_pq_size 16
core_0_l2c_mshr_size 32
core_0_l2c_hit_latency 5
core_0_l2c_fill_latency 5
core_0_l2c_max_tag_check 1
core_0_l2c_max_fill 1
llc_set 2048
llc_way 16
llc_rq_size 32
llc_wq_size 32
llc_pq_size 32
llc_mshr_size 64
llc_hit_latency 10
llc_fill_latency 10
llc_max_tag_check 1
llc_max_fill 1
dram_channels 1
dram_ranks 1
dram_bankgroups 8
dram_banks 4
dram_rows 16384
dram_columns 1024
dram_channel_width 8
dram_rq_size 64
dram_wq_size 64
dram_size 4294967296
core_0_itlb_prefetcher no
core_0_dtlb_prefetcher no
core_0_stlb_prefetcher no
core_0_l1i_prefetcher next_line
core_0_l1d_prefetcher berti
core_0_l2c_prefetcher pythia
llc_prefetcher no
llc_replacement drrip

Core_0_instructions 50000002
Core_0_cycles 1366527801
Core_0_IPC 0.0365891
Core_0_branch_prediction_accuracy 96.8391
Core_0_branch_MPKI 5.7706
Core_0_average_ROB_occupancy_at_mispredict 284.36

Core_0_ITLB_total_access 5451435
Core_0_ITLB_total_hit 5451435
Core_0_ITLB_total_miss 0
Core_0_ITLB_total_MPKI 0
Core_0_ITLB_total_miss_rate 0
Core_0_ITLB_demand_access 5451435
Core_0_ITLB_demand_hit 5451435
Core_0_ITLB_demand_miss 0
Core_0_ITLB_demand_MPKI 0
Core_0_ITLB_demand_miss_rate 0
Core_0_ITLB_load_access 5451435
Core_0_ITLB_load_hit 5451435
Core_0_ITLB_load_miss 0
Core_0_ITLB_load_MPKI 0
Core_0_ITLB_load_miss_rate 0
Core_0_ITLB_rfo_access 0
Core_0_ITLB_rfo_hit 0
Core_0_ITLB_rfo_miss 0
Core_0_ITLB_rfo_MPKI 0
Core_0_ITLB_rfo_miss_rate 0
Core_0_ITLB_prefetch_access 0
Core_0_ITLB_prefetch_hit 0
Core_0_ITLB_prefetch_miss 0
Core_0_ITLB_prefetch_MPKI 0
Core_0_ITLB_prefetch_miss_rate 0
Core_0_ITLB_writeback_access 0
Core_0_ITLB_writeback_hit 0
Core_0_ITLB_writeback_miss 0
Core_0_ITLB_writeback_MPKI 0
Core_0_ITLB_writeback_miss_rate 0
Core_0_ITLB_prefetch_requested 0
Core_0_ITLB_prefetch_issued 0
Core_0_ITLB_prefetch_useful 0
Core_0_ITLB_prefetch_useless 0
Core_0_ITLB_prefetch_late 0
Core_0_ITLB_prefetch_accuracy 0
Core_0_ITLB_prefetch_coverage 0

Core_0_DTLB_total_access 20821601
Core_0_DTLB_total_hit 13166260
Core_0_DTLB_total_miss 7655341
Core_0_DTLB_total_MPKI 153.107
Core_0_DTLB_total_miss_rate 0.367663
Core_0_DTLB_demand_access 20821601
Core_0_DTLB_demand_hit 13166260
Core_0_DTLB_demand_miss 7655341
Core_0_DTLB_demand_MPKI 153.107
Core_0_DTLB_demand_miss_rate 0.367663
Core_0_DTLB_load_access 20821601
Core_0_DTLB_load_hit 13166260
Core_0_DTLB_load_miss 7655341
Core_0_DTLB_load_MPKI 153.107
Core_0_DTLB_load_miss_rate 0.367663
Core_0_DTLB_rfo_access 0
Core_0_DTLB_rfo_hit 0
Core_0_DTLB_rfo_miss 0
Core_0_DTLB_rfo_MPKI 0
Core_0_DTLB_rfo_miss_rate 0
Core_0_DTLB_prefetch_access 0
Core_0_DTLB_prefetch_hit 0
Core_0_DTLB_prefetch_miss 0
Core_0_DTLB_prefetch_MPKI 0
Core_0_DTLB_prefetch_miss_rate 0
Core_0_DTLB_writeback_access 0
Core_0_DTLB_writeback_hit 0
Core_0_DTLB_writeback_miss 0
Core_0_DTLB_writeback_MPKI 0
Core_0_DTLB_writeback_miss_rate 0
Core_0_DTLB_prefetch_requested 0
Core_0_DTLB_prefetch_issued 0
Core_0_DTLB_prefetch_useful 0
Core_0_DTLB_prefetch_useless 0
Core_0_DTLB_prefetch_late 0
Core_0_DTLB_prefetch_accuracy 0
Core_0_DTLB_prefetch_coverage 0

Core_0_STLB_total_access 7634550
Core_0_STLB_total_hit 7574758
Core_0_STLB_total_miss 59792
Core_0_STLB_total_MPKI 1.19584
Core_0_STLB_total_miss_rate 0.00783176
Core_0_STLB_demand_access 7634550
Core_0_STLB_demand_hit 7574758
Core_0_STLB_demand_miss 59792
Core_0_STLB_demand_MPKI 1.19584
Core_0_STLB_demand_miss_rate 0.00783176
Core_0_STLB_load_access 7634550
Core_0_STLB_load_hit 7574758
Core_0_STLB_load_miss 59792
Core_0_STLB_load_MPKI 1.19584
Core_0_STLB_load_miss_rate 0.00783176
Core_0_STLB_rfo_access 0
Core_0_STLB_rfo_hit 0
Core_0_STLB_rfo_miss 0
Core_0_STLB_rfo_MPKI 0
Core_0_STLB_rfo_miss_rate 0
Core_0_STLB_prefetch_access 0
Core_0_STLB_prefetch_hit 0
Core_0_STLB_prefetch_miss 0
Core_0_STLB_prefetch_MPKI 0
Core_0_STLB_prefetch_miss_rate 0
Core_0_STLB_writeback_access 0
Core_0_STLB_writeback_hit 0
Core_0_STLB_writeback_miss 0
Core_0_STLB_writeback_MPKI 0
Core_0_STLB_writeback_miss_rate 0
Core_0_STLB_prefetch_requested 0
Core_0_STLB_prefetch_issued 0
Core_0_STLB_prefetch_useful 0
Core_0_STLB_prefetch_useless 0
Core_0_STLB_prefetch_late 0
Core_0_STLB_prefetch_accuracy 0
Core_0_STLB_prefetch_coverage 0

Core_0_L1I_total_access 5451435
Core_0_L1I_total_hit 5451435
Core_0_L1I_total_miss 0
Core_0_L1I_total_MPKI 0
Core_0_L1I_total_miss_rate 0
Core_0_L1I_demand_access 5451435
Core_0_L1I_demand_hit 5451435
Core_0_L1I_demand_miss 0
Core_0_L1I_demand_MPKI 0
Core_0_L1I_demand_miss_rate 0
Core_0_L1I_load_access 5451435
Core_0_L1I_load_hit 5451435
Core_0_L1I_load_miss 0
Core_0_L1I_load_MPKI 0
Core_0_L1I_load_miss_rate 0
Core_0_L1I_rfo_access 0
Core_0_L1I_rfo_hit 0
Core_0_L1I_rfo_miss 0
Core_0_L1I_rfo_MPKI 0
Core_0_L1I_rfo_miss_rate 0
Core_0_L1I_prefetch_access 0
Core_0_L1I_prefetch_hit 0
Core_0_L1I_prefetch_miss 0
Core_0_L1I_prefetch_MPKI 0
Core_0_L1I_prefetch_miss_rate 0
Core_0_L1I_writeback_access 0
Core_0_L1I_writeback_hit 0
Core_0_L1I_writeback_miss 0
Core_0_L1I_writeback_MPKI 0
Core_0_L1I_writeback_miss_rate 0
Core_0_L1I_prefetch_requested 0
Core_0_L1I_prefetch_issued 0
Core_0_L1I_prefetch_useful 0
Core_0_L1I_prefetch_useless 0
Core_0_L1I_prefetch_late 0
Core_0_L1I_prefetch_accuracy 0
Core_0_L1I_prefetch_coverage 0

Core_0_L1D_total_access 20842659
Core_0_L1D_total_hit 12199633
Core_0_L1D_total_miss 8643026
Core_0_L1D_total_MPKI 172.861
Core_0_L1D_total_miss_rate 0.41468
Core_0_L1D_demand_access 18843216
Core_0_L1D_demand_hit 11243901
Core_0_L1D_demand_miss 7599315
Core_0_L1D_demand_MPKI 151.986
Core_0_L1D_demand_miss_rate 0.403292
Core_0_L1D_load_access 18843216
Core_0_L1D_load_hit 11243901
Core_0_L1D_load_miss 7599315
Core_0_L1D_load_MPKI 151.986
Core_0_L1D_load_miss_rate 0.403292
Core_0_L1D_rfo_access 0
Core_0_L1D_rfo_hit 0
Core_0_L1D_rfo_miss 0
Core_0_L1D_rfo_MPKI 0
Core_0_L1D_rfo_miss_rate 0
Core_0_L1D_prefetch_access 1153801
Core_0_L1D_prefetch_hit 132438
Core_0_L1D_prefetch_miss 1021363
Core_0_L1D_prefetch_MPKI 20.4273
Core_0_L1D_prefetch_miss_rate 0.885216
Core_0_L1D_writeback_access 845642
Core_0_L1D_writeback_hit 823294
Core_0_L1D_writeback_miss 22348
Core_0_L1D_writeback_MPKI 0.44696
Core_0_L1D_writeback_miss_rate 0.0264273
Core_0_L1D_prefetch_requested 1153801
Core_0_L1D_prefetch_issued 1153801
Core_0_L1D_prefetch_useful 598590
Core_0_L1D_prefetch_useless 419057
Core_0_L1D_prefetch_late 25946
Core_0_L1D_prefetch_accuracy 0.518798
Core_0_L1D_prefetch_coverage 0.0730174

Core_0_L2C_total_access 20894874
Core_0_L2C_total_hit 5306828
Core_0_L2C_total_miss 15588046
Core_0_L2C_total_MPKI 311.761
Core_0_L2C_total_miss_rate 0.746022
Core_0_L2C_demand_access 7566230
Core_0_L2C_demand_hit 1075622
Core_0_L2C_demand_miss 6490608
Core_0_L2C_demand_MPKI 129.812
Core_0_L2C_demand_miss_rate 0.857839
Core_0_L2C_load_access 7546065
Core_0_L2C_load_hit 1060360
Core_0_L2C_load_miss 6485705
Core_0_L2C_load_MPKI 129.714
Core_0_L2C_load_miss_rate 0.859482
Core_0_L2C_rfo_access 20165
Core_0_L2C_rfo_hit 15262
Core_0_L2C_rfo_miss 4903
Core_0_L2C_rfo_MPKI 0.09806
Core_0_L2C_rfo_miss_rate 0.243144
Core_0_L2C_prefetch_access 13284686
Core_0_L2C_prefetch_hit 4188118
Core_0_L2C_prefetch_miss 9096568
Core_0_L2C_prefetch_MPKI 181.931
Core_0_L2C_prefetch_miss_rate 0.684741
Core_0_L2C_writeback_access 43958
Core_0_L2C_writeback_hit 43088
Core_0_L2C_writeback_miss 870
Core_0_L2C_writeback_MPKI 0.0174
Core_0_L2C_writeback_miss_rate 0.0197916
Core_0_L2C_prefetch_requested 12285591
Core_0_L2C_prefetch_issued 12266892
Core_0_L2C_prefetch_useful 888353
Core_0_L2C_prefetch_useless 7087040
Core_0_L2C_prefetch_late 94315
Core_0_L2C_prefetch_accuracy 0.0724188
Core_0_L2C_prefetch_coverage 0.12039

Core_0_LLC_total_access 14759092
Core_0_LLC_total_hit 1281051
Core_0_LLC_total_miss 13478041
Core_0_LLC_total_MPKI 269.561
Core_0_LLC_total_miss_rate 0.913203
Core_0_LLC_demand_access 6396293
Core_0_LLC_demand_hit 616255
Core_0_LLC_demand_miss 5780038
Core_0_LLC_demand_MPKI 115.601
Core_0_LLC_demand_miss_rate 0.903654
Core_0_LLC_load_access 6391395
Core_0_LLC_load_hit 614774
Core_0_LLC_load_miss 5776621
Core_0_LLC_load_MPKI 115.532
Core_0_LLC_load_miss_rate 0.903812
Core_0_LLC_rfo_access 4898
Core_0_LLC_rfo_hit 1481
Core_0_LLC_rfo_miss 3417
Core_0_LLC_rfo_MPKI 0.06834
Core_0_LLC_rfo_miss_rate 0.697632
Core_0_LLC_prefetch_access 8326696
Core_0_LLC_prefetch_hit 655731
Core_0_LLC_prefetch_miss 7670965
Core_0_LLC_prefetch_MPKI 153.419
Core_0_LLC_prefetch_miss_rate 0.92125
Core_0_LLC_writeback_access 36103
Core_0_LLC_writeback_hit 9065
Core_0_LLC_writeback_miss 27038
Core_0_LLC_writeback_MPKI 0.54076
Core_0_LLC_writeback_miss_rate 0.748913
Core_0_LLC_prefetch_requested 0
Core_0_LLC_prefetch_issued 0
Core_0_LLC_prefetch_useful 0
Core_0_LLC_prefetch_useless 0
Core_0_LLC_prefetch_late 0
Core_0_LLC_prefetch_accuracy 0
Core_0_LLC_prefetch_coverage 0

[DRAM Statistics]
Channel_0_RQ_row_buffer_hit 262685
Channel_0_RQ_row_buffer_miss 13236029
Channel_0_WQ_row_buffer_hit 13579
Channel_0_WQ_row_buffer_miss 21883
Channel_0_WQ_full 0
Channel_0_dbus_congested 17869186
DRAM_total_RQ_row_buffer_hit 262685
DRAM_total_RQ_row_buffer_miss 13236029
DRAM_total_WQ_row_buffer_hit 13579
DRAM_total_WQ_row_buffer_miss 21883
DRAM_total_WQ_full 0
DRAM_total_dbus_congested 17869186
DRAM_avg_congested_cycle 5.0956

======STLB miss causes ========
Core_0_STLB_miss_cause_breakdown
Core_0_STLB_cause_Demand_Data_miss 0
Core_0_STLB_cause_Demand_Data_miss_rate 0
Core_0_STLB_cause_Demand_Instruction_miss 0
Core_0_STLB_cause_Demand_Instruction_miss_rate 0
Core_0_STLB_cause_L1D_Prefetch_miss 59792
Core_0_STLB_cause_L1D_Prefetch_miss_rate 0.00783176
Core_0_STLB_cause_L1I_Prefetch_miss 0
Core_0_STLB_cause_L1I_Prefetch_miss_rate 0
Core_0_STLB_cause_Other_miss 0
Core_0_STLB_cause_Other_miss_rate 0
Core_0_STLB_Demand_miss 0
Core_0_STLB_Demand_miss_rate 0
Core_0_STLB_L1D_Prefetch_miss 59792
Core_0_STLB_L1D_Prefetch_miss_rate 0.00783176
Core_0_STLB_Other_miss 0
Core_0_STLB_Other_miss_rate 0
