[VMEM] WARNING: physical memory size is smaller than virtual memory size.

*** ChampSim Multicore Out-of-Order Simulator ***
Warmup Instructions: 20000000
Simulation Instructions: 50000000
Number of CPUs: 1
Page size: 4096
STLB ideal mode: demand
Core 0: /data0/tzh/champsim_traces/Ligra/ligra_Triangle.com-lj.ungraph.gcc_6.3.0_O3.drop_18000M.length_250M.champsimtrace.xz
 L1D Berti prefetcher
Off-chip DRAM Size: 4 GiB Channels: 1 Width: 64-bit Data Rate: 3205 MT/s
Warmup halting CPU 0 at instruction 20000005 cycle 5179492 for remainder of phase
Warmup finished CPU 0 instructions: 20000005 cycles: 5179492 cumulative IPC: 3.861 (Simulation time: 00 hr 01 min 06 sec)
Warmup complete CPU 0 instructions: 20000005 cycles: 5179492 cumulative IPC: 3.861 (Simulation time: 00 hr 01 min 06 sec)
Simulation finished CPU 0 instructions: 50000003 cycles: 25930698 cumulative IPC: 1.928 (Simulation time: 00 hr 05 min 16 sec)
Simulation complete CPU 0 instructions: 50000003 cycles: 25930698 cumulative IPC: 1.928 (Simulation time: 00 hr 05 min 16 sec)

ChampSim completed all CPUs

=== Simulation ===
CPU 0 runs /data0/tzh/champsim_traces/Ligra/ligra_Triangle.com-lj.ungraph.gcc_6.3.0_O3.drop_18000M.length_250M.champsimtrace.xz

Region of Interest Statistics

CPU 0 cumulative IPC: 1.928 instructions: 50000003 cycles: 25930698
CPU 0 Branch Prediction Accuracy: 99% MPKI: 1.013 Average ROB Occupancy at Mispredict: 161.1
Branch type MPKI
BRANCH_DIRECT_JUMP: 0
BRANCH_INDIRECT: 0
BRANCH_CONDITIONAL: 1.013
BRANCH_DIRECT_CALL: 0
BRANCH_INDIRECT_CALL: 0
BRANCH_RETURN: 0.00028

cpu0->cpu0_STLB TOTAL        ACCESS:      23740 HIT:      23154 MISS:        586 MSHR_MERGE:          0
cpu0->cpu0_STLB LOAD         ACCESS:      23740 HIT:      23154 MISS:        586 MSHR_MERGE:          0
cpu0->cpu0_STLB RFO          ACCESS:          0 HIT:          0 MISS:          0 MSHR_MERGE:          0
cpu0->cpu0_STLB PREFETCH     ACCESS:          0 HIT:          0 MISS:          0 MSHR_MERGE:          0
cpu0->cpu0_STLB WRITE        ACCESS:          0 HIT:          0 MISS:          0 MSHR_MERGE:          0
cpu0->cpu0_STLB TRANSLATION  ACCESS:          0 HIT:          0 MISS:          0 MSHR_MERGE:          0
cpu0->cpu0_STLB PREFETCH REQUESTED:          0 ISSUED:          0 USEFUL:          0 USELESS:          0 LATE:          0
cpu0->cpu0_STLB AVERAGE MISS LATENCY: 430.5 cycles
cpu0->cpu0_L2C TOTAL        ACCESS:    3899711 HIT:    2489369 MISS:    1410342 MSHR_MERGE:     377309
cpu0->cpu0_L2C LOAD         ACCESS:     475960 HIT:     400608 MISS:      75352 MSHR_MERGE:      47695
cpu0->cpu0_L2C RFO          ACCESS:     554813 HIT:      36144 MISS:     518669 MSHR_MERGE:         39
cpu0->cpu0_L2C PREFETCH     ACCESS:    2311175 HIT:    1495468 MISS:     815707 MSHR_MERGE:     329575
cpu0->cpu0_L2C WRITE        ACCESS:     557165 HIT:     557105 MISS:         60 MSHR_MERGE:          0
cpu0->cpu0_L2C TRANSLATION  ACCESS:        598 HIT:         44 MISS:        554 MSHR_MERGE:          0
cpu0->cpu0_L2C PREFETCH REQUESTED:    2213348 ISSUED:    2088796 USEFUL:     401868 USELESS:      39809 LATE:      47734
cpu0->cpu0_L2C AVERAGE MISS LATENCY: 307.1 cycles
cpu0->cpu0_L1I TOTAL        ACCESS:    4893552 HIT:    4893552 MISS:          0 MSHR_MERGE:          0
cpu0->cpu0_L1I LOAD         ACCESS:    4893552 HIT:    4893552 MISS:          0 MSHR_MERGE:          0
cpu0->cpu0_L1I RFO          ACCESS:          0 HIT:          0 MISS:          0 MSHR_MERGE:          0
cpu0->cpu0_L1I PREFETCH     ACCESS:          0 HIT:          0 MISS:          0 MSHR_MERGE:          0
cpu0->cpu0_L1I WRITE        ACCESS:          0 HIT:          0 MISS:          0 MSHR_MERGE:          0
cpu0->cpu0_L1I TRANSLATION  ACCESS:          0 HIT:          0 MISS:          0 MSHR_MERGE:          0
cpu0->cpu0_L1I PREFETCH REQUESTED:          0 ISSUED:          0 USEFUL:          0 USELESS:          0 LATE:          0
cpu0->cpu0_L1I AVERAGE MISS LATENCY: - cycles
cpu0->cpu0_L1D TOTAL        ACCESS:   14000145 HIT:    9364442 MISS:    4635703 MSHR_MERGE:    3381925
cpu0->cpu0_L1D LOAD         ACCESS:    3819270 HIT:    3113544 MISS:     705726 MSHR_MERGE:     229761
cpu0->cpu0_L1D RFO          ACCESS:          0 HIT:          0 MISS:          0 MSHR_MERGE:          0
cpu0->cpu0_L1D PREFETCH     ACCESS:     399465 HIT:     149771 MISS:     249694 MSHR_MERGE:      27315
cpu0->cpu0_L1D WRITE        ACCESS:    9780226 HIT:    6100541 MISS:    3679685 MSHR_MERGE:    3124849
cpu0->cpu0_L1D TRANSLATION  ACCESS:       1184 HIT:        586 MISS:        598 MSHR_MERGE:          0
cpu0->cpu0_L1D PREFETCH REQUESTED:     709857 ISSUED:     399465 USEFUL:     213150 USELESS:       9229 LATE:      33791
cpu0->cpu0_L1D AVERAGE MISS LATENCY: 187.8 cycles
cpu0->cpu0_ITLB TOTAL        ACCESS:    4818758 HIT:    4818758 MISS:          0 MSHR_MERGE:          0
cpu0->cpu0_ITLB LOAD         ACCESS:    4818758 HIT:    4818758 MISS:          0 MSHR_MERGE:          0
cpu0->cpu0_ITLB RFO          ACCESS:          0 HIT:          0 MISS:          0 MSHR_MERGE:          0
cpu0->cpu0_ITLB PREFETCH     ACCESS:          0 HIT:          0 MISS:          0 MSHR_MERGE:          0
cpu0->cpu0_ITLB WRITE        ACCESS:          0 HIT:          0 MISS:          0 MSHR_MERGE:          0
cpu0->cpu0_ITLB TRANSLATION  ACCESS:          0 HIT:          0 MISS:          0 MSHR_MERGE:          0
cpu0->cpu0_ITLB PREFETCH REQUESTED:          0 ISSUED:          0 USEFUL:          0 USELESS:          0 LATE:          0
cpu0->cpu0_ITLB AVERAGE MISS LATENCY: - cycles
cpu0->cpu0_DTLB TOTAL        ACCESS:   12462335 HIT:   12389776 MISS:      72559 MSHR_MERGE:      48819
cpu0->cpu0_DTLB LOAD         ACCESS:   12462335 HIT:   12389776 MISS:      72559 MSHR_MERGE:      48819
cpu0->cpu0_DTLB RFO          ACCESS:          0 HIT:          0 MISS:          0 MSHR_MERGE:          0
cpu0->cpu0_DTLB PREFETCH     ACCESS:          0 HIT:          0 MISS:          0 MSHR_MERGE:          0
cpu0->cpu0_DTLB WRITE        ACCESS:          0 HIT:          0 MISS:          0 MSHR_MERGE:          0
cpu0->cpu0_DTLB TRANSLATION  ACCESS:          0 HIT:          0 MISS:          0 MSHR_MERGE:          0
cpu0->cpu0_DTLB PREFETCH REQUESTED:          0 ISSUED:          0 USEFUL:          0 USELESS:          0 LATE:          0
cpu0->cpu0_DTLB AVERAGE MISS LATENCY: 15.65 cycles
cpu0->LLC TOTAL        ACCESS:    1554767 HIT:     626534 MISS:     928233 MSHR_MERGE:          0
cpu0->LLC LOAD         ACCESS:      27657 HIT:      17956 MISS:       9701 MSHR_MERGE:          0
cpu0->LLC RFO          ACCESS:     518630 HIT:     153086 MISS:     365544 MSHR_MERGE:          0
cpu0->LLC PREFETCH     ACCESS:     486132 HIT:     229101 MISS:     257031 MSHR_MERGE:          0
cpu0->LLC WRITE        ACCESS:     521794 HIT:     226360 MISS:     295434 MSHR_MERGE:          0
cpu0->LLC TRANSLATION  ACCESS:        554 HIT:         31 MISS:        523 MSHR_MERGE:          0
cpu0->LLC PREFETCH REQUESTED:          0 ISSUED:          0 USEFUL:          0 USELESS:          0 LATE:          0
cpu0->LLC AVERAGE MISS LATENCY: 248.1 cycles

DRAM Statistics

Channel 0 RQ ROW_BUFFER_HIT:      57069
  ROW_BUFFER_MISS:     574653
  AVG DBUS CONGESTED CYCLE: 6.85
Channel 0 WQ ROW_BUFFER_HIT:      44514
  ROW_BUFFER_MISS:     337885
  FULL:      18660
Channel 0 REFRESHES ISSUED:       2161

[ROI Statistics]
[System Configuration]
num_cpus 1
cpu_freq 4000
fetch_width 6
decode_width 6
dispatch_width 6
execute_width 6
lq_width 2
sq_width 2
retire_width 6
scheduler_size 160
branch_mispredict_penalty 1
rob_size 352
lq_size 240
sq_size 112
ifetch_buffer_size 64
decode_buffer_size 32
dispatch_buffer_size 32
register_file_size 288
decode_latency 1
dispatch_latency 1
schedule_latency 0
execute_latency 0
page_size 4096
block_size 64
core_0_itlb_set 16
core_0_itlb_way 4
core_0_itlb_rq_size 16
core_0_itlb_wq_size 16
core_0_itlb_pq_size 0
core_0_itlb_mshr_size 8
core_0_itlb_hit_latency 1
core_0_itlb_fill_latency 1
core_0_itlb_max_tag_check 2
core_0_itlb_max_fill 2
core_0_dtlb_set 16
core_0_dtlb_way 4
core_0_dtlb_rq_size 16
core_0_dtlb_wq_size 16
core_0_dtlb_pq_size 0
core_0_dtlb_mshr_size 8
core_0_dtlb_hit_latency 1
core_0_dtlb_fill_latency 1
core_0_dtlb_max_tag_check 2
core_0_dtlb_max_fill 2
core_0_stlb_set 128
core_0_stlb_way 12
core_0_stlb_rq_size 32
core_0_stlb_wq_size 32
core_0_stlb_pq_size 0
core_0_stlb_mshr_size 16
core_0_stlb_hit_latency 4
core_0_stlb_fill_latency 4
core_0_stlb_max_tag_check 1
core_0_stlb_max_fill 1
core_0_l1i_set 64
core_0_l1i_way 8
core_0_l1i_rq_size 64
core_0_l1i_wq_size 64
core_0_l1i_pq_size 32
core_0_l1i_mshr_size 8
core_0_l1i_hit_latency 2
core_0_l1i_fill_latency 2
core_0_l1i_max_tag_check 2
core_0_l1i_max_fill 2
core_0_l1d_set 64
core_0_l1d_way 12
core_0_l1d_rq_size 64
core_0_l1d_wq_size 64
core_0_l1d_pq_size 8
core_0_l1d_mshr_size 16
core_0_l1d_hit_latency 2
core_0_l1d_fill_latency 3
core_0_l1d_max_tag_check 2
core_0_l1d_max_fill 2
core_0_l2c_set 1024
core_0_l2c_way 8
core_0_l2c_rq_size 32
core_0_l2c_wq_size 32
core_0_l2c_pq_size 16
core_0_l2c_mshr_size 32
core_0_l2c_hit_latency 5
core_0_l2c_fill_latency 5
core_0_l2c_max_tag_check 1
core_0_l2c_max_fill 1
llc_set 2048
llc_way 16
llc_rq_size 32
llc_wq_size 32
llc_pq_size 32
llc_mshr_size 64
llc_hit_latency 10
llc_fill_latency 10
llc_max_tag_check 1
llc_max_fill 1
dram_channels 1
dram_ranks 1
dram_bankgroups 8
dram_banks 4
dram_rows 16384
dram_columns 1024
dram_channel_width 8
dram_rq_size 64
dram_wq_size 64
dram_size 4294967296
core_0_itlb_prefetcher no
core_0_dtlb_prefetcher no
core_0_stlb_prefetcher no
core_0_l1i_prefetcher next_line
core_0_l1d_prefetcher berti
core_0_l2c_prefetcher pythia
llc_prefetcher no
llc_replacement drrip

Core_0_instructions 50000003
Core_0_cycles 25930698
Core_0_IPC 1.92822
Core_0_branch_prediction_accuracy 99.0016
Core_0_branch_MPKI 1.01342
Core_0_average_ROB_occupancy_at_mispredict 161.13

Core_0_ITLB_total_access 4818758
Core_0_ITLB_total_hit 4818758
Core_0_ITLB_total_miss 0
Core_0_ITLB_total_MPKI 0
Core_0_ITLB_total_miss_rate 0
Core_0_ITLB_demand_access 4818758
Core_0_ITLB_demand_hit 4818758
Core_0_ITLB_demand_miss 0
Core_0_ITLB_demand_MPKI 0
Core_0_ITLB_demand_miss_rate 0
Core_0_ITLB_load_access 4818758
Core_0_ITLB_load_hit 4818758
Core_0_ITLB_load_miss 0
Core_0_ITLB_load_MPKI 0
Core_0_ITLB_load_miss_rate 0
Core_0_ITLB_rfo_access 0
Core_0_ITLB_rfo_hit 0
Core_0_ITLB_rfo_miss 0
Core_0_ITLB_rfo_MPKI 0
Core_0_ITLB_rfo_miss_rate 0
Core_0_ITLB_prefetch_access 0
Core_0_ITLB_prefetch_hit 0
Core_0_ITLB_prefetch_miss 0
Core_0_ITLB_prefetch_MPKI 0
Core_0_ITLB_prefetch_miss_rate 0
Core_0_ITLB_writeback_access 0
Core_0_ITLB_writeback_hit 0
Core_0_ITLB_writeback_miss 0
Core_0_ITLB_writeback_MPKI 0
Core_0_ITLB_writeback_miss_rate 0
Core_0_ITLB_prefetch_requested 0
Core_0_ITLB_prefetch_issued 0
Core_0_ITLB_prefetch_useful 0
Core_0_ITLB_prefetch_useless 0
Core_0_ITLB_prefetch_late 0
Core_0_ITLB_prefetch_accuracy 0
Core_0_ITLB_prefetch_coverage 0

Core_0_DTLB_total_access 12462335
Core_0_DTLB_total_hit 12389776
Core_0_DTLB_total_miss 72559
Core_0_DTLB_total_MPKI 1.45118
Core_0_DTLB_total_miss_rate 0.00582226
Core_0_DTLB_demand_access 12462335
Core_0_DTLB_demand_hit 12389776
Core_0_DTLB_demand_miss 72559
Core_0_DTLB_demand_MPKI 1.45118
Core_0_DTLB_demand_miss_rate 0.00582226
Core_0_DTLB_load_access 12462335
Core_0_DTLB_load_hit 12389776
Core_0_DTLB_load_miss 72559
Core_0_DTLB_load_MPKI 1.45118
Core_0_DTLB_load_miss_rate 0.00582226
Core_0_DTLB_rfo_access 0
Core_0_DTLB_rfo_hit 0
Core_0_DTLB_rfo_miss 0
Core_0_DTLB_rfo_MPKI 0
Core_0_DTLB_rfo_miss_rate 0
Core_0_DTLB_prefetch_access 0
Core_0_DTLB_prefetch_hit 0
Core_0_DTLB_prefetch_miss 0
Core_0_DTLB_prefetch_MPKI 0
Core_0_DTLB_prefetch_miss_rate 0
Core_0_DTLB_writeback_access 0
Core_0_DTLB_writeback_hit 0
Core_0_DTLB_writeback_miss 0
Core_0_DTLB_writeback_MPKI 0
Core_0_DTLB_writeback_miss_rate 0
Core_0_DTLB_prefetch_requested 0
Core_0_DTLB_prefetch_issued 0
Core_0_DTLB_prefetch_useful 0
Core_0_DTLB_prefetch_useless 0
Core_0_DTLB_prefetch_late 0
Core_0_DTLB_prefetch_accuracy 0
Core_0_DTLB_prefetch_coverage 0

Core_0_STLB_total_access 23740
Core_0_STLB_total_hit 23154
Core_0_STLB_total_miss 586
Core_0_STLB_total_MPKI 0.01172
Core_0_STLB_total_miss_rate 0.0246841
Core_0_STLB_demand_access 23740
Core_0_STLB_demand_hit 23154
Core_0_STLB_demand_miss 586
Core_0_STLB_demand_MPKI 0.01172
Core_0_STLB_demand_miss_rate 0.0246841
Core_0_STLB_load_access 23740
Core_0_STLB_load_hit 23154
Core_0_STLB_load_miss 586
Core_0_STLB_load_MPKI 0.01172
Core_0_STLB_load_miss_rate 0.0246841
Core_0_STLB_rfo_access 0
Core_0_STLB_rfo_hit 0
Core_0_STLB_rfo_miss 0
Core_0_STLB_rfo_MPKI 0
Core_0_STLB_rfo_miss_rate 0
Core_0_STLB_prefetch_access 0
Core_0_STLB_prefetch_hit 0
Core_0_STLB_prefetch_miss 0
Core_0_STLB_prefetch_MPKI 0
Core_0_STLB_prefetch_miss_rate 0
Core_0_STLB_writeback_access 0
Core_0_STLB_writeback_hit 0
Core_0_STLB_writeback_miss 0
Core_0_STLB_writeback_MPKI 0
Core_0_STLB_writeback_miss_rate 0
Core_0_STLB_prefetch_requested 0
Core_0_STLB_prefetch_issued 0
Core_0_STLB_prefetch_useful 0
Core_0_STLB_prefetch_useless 0
Core_0_STLB_prefetch_late 0
Core_0_STLB_prefetch_accuracy 0
Core_0_STLB_prefetch_coverage 0

Core_0_L1I_total_access 4893552
Core_0_L1I_total_hit 4893552
Core_0_L1I_total_miss 0
Core_0_L1I_total_MPKI 0
Core_0_L1I_total_miss_rate 0
Core_0_L1I_demand_access 4893552
Core_0_L1I_demand_hit 4893552
Core_0_L1I_demand_miss 0
Core_0_L1I_demand_MPKI 0
Core_0_L1I_demand_miss_rate 0
Core_0_L1I_load_access 4893552
Core_0_L1I_load_hit 4893552
Core_0_L1I_load_miss 0
Core_0_L1I_load_MPKI 0
Core_0_L1I_load_miss_rate 0
Core_0_L1I_rfo_access 0
Core_0_L1I_rfo_hit 0
Core_0_L1I_rfo_miss 0
Core_0_L1I_rfo_MPKI 0
Core_0_L1I_rfo_miss_rate 0
Core_0_L1I_prefetch_access 0
Core_0_L1I_prefetch_hit 0
Core_0_L1I_prefetch_miss 0
Core_0_L1I_prefetch_MPKI 0
Core_0_L1I_prefetch_miss_rate 0
Core_0_L1I_writeback_access 0
Core_0_L1I_writeback_hit 0
Core_0_L1I_writeback_miss 0
Core_0_L1I_writeback_MPKI 0
Core_0_L1I_writeback_miss_rate 0
Core_0_L1I_prefetch_requested 0
Core_0_L1I_prefetch_issued 0
Core_0_L1I_prefetch_useful 0
Core_0_L1I_prefetch_useless 0
Core_0_L1I_prefetch_late 0
Core_0_L1I_prefetch_accuracy 0
Core_0_L1I_prefetch_coverage 0

Core_0_L1D_total_access 13998961
Core_0_L1D_total_hit 9363856
Core_0_L1D_total_miss 4635105
Core_0_L1D_total_MPKI 92.7021
Core_0_L1D_total_miss_rate 0.331104
Core_0_L1D_demand_access 3819270
Core_0_L1D_demand_hit 3113544
Core_0_L1D_demand_miss 705726
Core_0_L1D_demand_MPKI 14.1145
Core_0_L1D_demand_miss_rate 0.18478
Core_0_L1D_load_access 3819270
Core_0_L1D_load_hit 3113544
Core_0_L1D_load_miss 705726
Core_0_L1D_load_MPKI 14.1145
Core_0_L1D_load_miss_rate 0.18478
Core_0_L1D_rfo_access 0
Core_0_L1D_rfo_hit 0
Core_0_L1D_rfo_miss 0
Core_0_L1D_rfo_MPKI 0
Core_0_L1D_rfo_miss_rate 0
Core_0_L1D_prefetch_access 399465
Core_0_L1D_prefetch_hit 149771
Core_0_L1D_prefetch_miss 249694
Core_0_L1D_prefetch_MPKI 4.99388
Core_0_L1D_prefetch_miss_rate 0.625071
Core_0_L1D_writeback_access 9780226
Core_0_L1D_writeback_hit 6100541
Core_0_L1D_writeback_miss 3679685
Core_0_L1D_writeback_MPKI 73.5937
Core_0_L1D_writeback_miss_rate 0.376237
Core_0_L1D_prefetch_requested 709857
Core_0_L1D_prefetch_issued 399465
Core_0_L1D_prefetch_useful 213150
Core_0_L1D_prefetch_useless 9229
Core_0_L1D_prefetch_late 33791
Core_0_L1D_prefetch_accuracy 0.533589
Core_0_L1D_prefetch_coverage 0.231968

Core_0_L2C_total_access 3899113
Core_0_L2C_total_hit 2489325
Core_0_L2C_total_miss 1409788
Core_0_L2C_total_MPKI 28.1958
Core_0_L2C_total_miss_rate 0.361566
Core_0_L2C_demand_access 1030773
Core_0_L2C_demand_hit 436752
Core_0_L2C_demand_miss 594021
Core_0_L2C_demand_MPKI 11.8804
Core_0_L2C_demand_miss_rate 0.576287
Core_0_L2C_load_access 475960
Core_0_L2C_load_hit 400608
Core_0_L2C_load_miss 75352
Core_0_L2C_load_MPKI 1.50704
Core_0_L2C_load_miss_rate 0.158316
Core_0_L2C_rfo_access 554813
Core_0_L2C_rfo_hit 36144
Core_0_L2C_rfo_miss 518669
Core_0_L2C_rfo_MPKI 10.3734
Core_0_L2C_rfo_miss_rate 0.934854
Core_0_L2C_prefetch_access 2311175
Core_0_L2C_prefetch_hit 1495468
Core_0_L2C_prefetch_miss 815707
Core_0_L2C_prefetch_MPKI 16.3141
Core_0_L2C_prefetch_miss_rate 0.35294
Core_0_L2C_writeback_access 557165
Core_0_L2C_writeback_hit 557105
Core_0_L2C_writeback_miss 60
Core_0_L2C_writeback_MPKI 0.0012
Core_0_L2C_writeback_miss_rate 0.000107688
Core_0_L2C_prefetch_requested 2213348
Core_0_L2C_prefetch_issued 2088796
Core_0_L2C_prefetch_useful 401868
Core_0_L2C_prefetch_useless 39809
Core_0_L2C_prefetch_late 47734
Core_0_L2C_prefetch_accuracy 0.192392
Core_0_L2C_prefetch_coverage 0.403527

Core_0_LLC_total_access 1554213
Core_0_LLC_total_hit 626503
Core_0_LLC_total_miss 927710
Core_0_LLC_total_MPKI 18.5542
Core_0_LLC_total_miss_rate 0.5969
Core_0_LLC_demand_access 546287
Core_0_LLC_demand_hit 171042
Core_0_LLC_demand_miss 375245
Core_0_LLC_demand_MPKI 7.5049
Core_0_LLC_demand_miss_rate 0.686901
Core_0_LLC_load_access 27657
Core_0_LLC_load_hit 17956
Core_0_LLC_load_miss 9701
Core_0_LLC_load_MPKI 0.19402
Core_0_LLC_load_miss_rate 0.350761
Core_0_LLC_rfo_access 518630
Core_0_LLC_rfo_hit 153086
Core_0_LLC_rfo_miss 365544
Core_0_LLC_rfo_MPKI 7.31088
Core_0_LLC_rfo_miss_rate 0.704826
Core_0_LLC_prefetch_access 486132
Core_0_LLC_prefetch_hit 229101
Core_0_LLC_prefetch_miss 257031
Core_0_LLC_prefetch_MPKI 5.14062
Core_0_LLC_prefetch_miss_rate 0.528727
Core_0_LLC_writeback_access 521794
Core_0_LLC_writeback_hit 226360
Core_0_LLC_writeback_miss 295434
Core_0_LLC_writeback_MPKI 5.90868
Core_0_LLC_writeback_miss_rate 0.566189
Core_0_LLC_prefetch_requested 0
Core_0_LLC_prefetch_issued 0
Core_0_LLC_prefetch_useful 0
Core_0_LLC_prefetch_useless 0
Core_0_LLC_prefetch_late 0
Core_0_LLC_prefetch_accuracy 0
Core_0_LLC_prefetch_coverage 0

[DRAM Statistics]
Channel_0_RQ_row_buffer_hit 57069
Channel_0_RQ_row_buffer_miss 574653
Channel_0_WQ_row_buffer_hit 44514
Channel_0_WQ_row_buffer_miss 337885
Channel_0_WQ_full 18660
Channel_0_dbus_congested 3375344
DRAM_total_RQ_row_buffer_hit 57069
DRAM_total_RQ_row_buffer_miss 574653
DRAM_total_WQ_row_buffer_hit 44514
DRAM_total_WQ_row_buffer_miss 337885
DRAM_total_WQ_full 18660
DRAM_total_dbus_congested 3375344
DRAM_avg_congested_cycle 6.8496

======STLB miss causes ========
Core_0_STLB_miss_cause_breakdown
Core_0_STLB_cause_Demand_Data_miss 0
Core_0_STLB_cause_Demand_Data_miss_rate 0
Core_0_STLB_cause_Demand_Instruction_miss 0
Core_0_STLB_cause_Demand_Instruction_miss_rate 0
Core_0_STLB_cause_L1D_Prefetch_miss 586
Core_0_STLB_cause_L1D_Prefetch_miss_rate 0.0246841
Core_0_STLB_cause_L1I_Prefetch_miss 0
Core_0_STLB_cause_L1I_Prefetch_miss_rate 0
Core_0_STLB_cause_Other_miss 0
Core_0_STLB_cause_Other_miss_rate 0
Core_0_STLB_Demand_miss 0
Core_0_STLB_Demand_miss_rate 0
Core_0_STLB_L1D_Prefetch_miss 586
Core_0_STLB_L1D_Prefetch_miss_rate 0.0246841
Core_0_STLB_Other_miss 0
Core_0_STLB_Other_miss_rate 0
