[VMEM] WARNING: physical memory size is smaller than virtual memory size.

*** ChampSim Multicore Out-of-Order Simulator ***
Warmup Instructions: 20000000
Simulation Instructions: 50000000
Number of CPUs: 1
Page size: 4096
STLB ideal mode: demand
Core 0: /data0/tzh/champsim_traces/Ligra/ligra_BFSCC.com-lj.ungraph.gcc_6.3.0_O3.drop_22000M.length_250M.champsimtrace.xz
 L1D Berti prefetcher
Off-chip DRAM Size: 4 GiB Channels: 1 Width: 64-bit Data Rate: 3205 MT/s
Warmup halting CPU 0 at instruction 20000000 cycle 5062598 for remainder of phase
Warmup finished CPU 0 instructions: 20000000 cycles: 5062598 cumulative IPC: 3.951 (Simulation time: 00 hr 01 min 00 sec)
Warmup complete CPU 0 instructions: 20000000 cycles: 5062598 cumulative IPC: 3.951 (Simulation time: 00 hr 01 min 00 sec)
Simulation finished CPU 0 instructions: 50000002 cycles: 143213711 cumulative IPC: 0.3491 (Simulation time: 00 hr 10 min 47 sec)
Simulation complete CPU 0 instructions: 50000002 cycles: 143213711 cumulative IPC: 0.3491 (Simulation time: 00 hr 10 min 47 sec)

ChampSim completed all CPUs

=== Simulation ===
CPU 0 runs /data0/tzh/champsim_traces/Ligra/ligra_BFSCC.com-lj.ungraph.gcc_6.3.0_O3.drop_22000M.length_250M.champsimtrace.xz

Region of Interest Statistics

CPU 0 cumulative IPC: 0.3491 instructions: 50000002 cycles: 143213711
CPU 0 Branch Prediction Accuracy: 81.56% MPKI: 50.83 Average ROB Occupancy at Mispredict: 8.835
Branch type MPKI
BRANCH_DIRECT_JUMP: 13.27
BRANCH_INDIRECT: 0
BRANCH_CONDITIONAL: 37.56
BRANCH_DIRECT_CALL: 0
BRANCH_INDIRECT_CALL: 0
BRANCH_RETURN: 0

cpu0->cpu0_STLB TOTAL        ACCESS:    1246781 HIT:    1242724 MISS:       4057 MSHR_MERGE:          0
cpu0->cpu0_STLB LOAD         ACCESS:    1246781 HIT:    1242724 MISS:       4057 MSHR_MERGE:          0
cpu0->cpu0_STLB RFO          ACCESS:          0 HIT:          0 MISS:          0 MSHR_MERGE:          0
cpu0->cpu0_STLB PREFETCH     ACCESS:          0 HIT:          0 MISS:          0 MSHR_MERGE:          0
cpu0->cpu0_STLB WRITE        ACCESS:          0 HIT:          0 MISS:          0 MSHR_MERGE:          0
cpu0->cpu0_STLB TRANSLATION  ACCESS:          0 HIT:          0 MISS:          0 MSHR_MERGE:          0
cpu0->cpu0_STLB PREFETCH REQUESTED:          0 ISSUED:          0 USEFUL:          0 USELESS:          0 LATE:          0
cpu0->cpu0_STLB AVERAGE MISS LATENCY: 274.2 cycles
cpu0->cpu0_L2C TOTAL        ACCESS:    8149458 HIT:    4335080 MISS:    3814378 MSHR_MERGE:     410853
cpu0->cpu0_L2C LOAD         ACCESS:    1432358 HIT:     271494 MISS:    1160864 MSHR_MERGE:       3628
cpu0->cpu0_L2C RFO          ACCESS:      18936 HIT:          0 MISS:      18936 MSHR_MERGE:          0
cpu0->cpu0_L2C PREFETCH     ACCESS:    6654108 HIT:    4020814 MISS:    2633294 MSHR_MERGE:     407225
cpu0->cpu0_L2C WRITE        ACCESS:      40927 HIT:      40926 MISS:          1 MSHR_MERGE:          0
cpu0->cpu0_L2C TRANSLATION  ACCESS:       3129 HIT:       1846 MISS:       1283 MSHR_MERGE:          0
cpu0->cpu0_L2C PREFETCH REQUESTED:    5728143 ISSUED:    5717095 USEFUL:     900347 USELESS:    1166593 LATE:       3628
cpu0->cpu0_L2C AVERAGE MISS LATENCY: 82.06 cycles
cpu0->cpu0_L1I TOTAL        ACCESS:      20843 HIT:      20843 MISS:          0 MSHR_MERGE:          0
cpu0->cpu0_L1I LOAD         ACCESS:      20843 HIT:      20843 MISS:          0 MSHR_MERGE:          0
cpu0->cpu0_L1I RFO          ACCESS:          0 HIT:          0 MISS:          0 MSHR_MERGE:          0
cpu0->cpu0_L1I PREFETCH     ACCESS:          0 HIT:          0 MISS:          0 MSHR_MERGE:          0
cpu0->cpu0_L1I WRITE        ACCESS:          0 HIT:          0 MISS:          0 MSHR_MERGE:          0
cpu0->cpu0_L1I TRANSLATION  ACCESS:          0 HIT:          0 MISS:          0 MSHR_MERGE:          0
cpu0->cpu0_L1I PREFETCH REQUESTED:          0 ISSUED:          0 USEFUL:          0 USELESS:          0 LATE:          0
cpu0->cpu0_L1I AVERAGE MISS LATENCY: - cycles
cpu0->cpu0_L1D TOTAL        ACCESS:   16069444 HIT:   13445805 MISS:    2623639 MSHR_MERGE:     232219
cpu0->cpu0_L1D LOAD         ACCESS:   13738640 HIT:   12118149 MISS:    1620491 MSHR_MERGE:     188133
cpu0->cpu0_L1D RFO          ACCESS:          0 HIT:          0 MISS:          0 MSHR_MERGE:          0
cpu0->cpu0_L1D PREFETCH     ACCESS:    1005017 HIT:      66438 MISS:     938579 MSHR_MERGE:       1582
cpu0->cpu0_L1D WRITE        ACCESS:    1317651 HIT:    1256211 MISS:      61440 MSHR_MERGE:      42504
cpu0->cpu0_L1D TRANSLATION  ACCESS:       8136 HIT:       5007 MISS:       3129 MSHR_MERGE:          0
cpu0->cpu0_L1D PREFETCH REQUESTED:    1005100 ISSUED:    1005017 USEFUL:     758369 USELESS:     178674 LATE:      10563
cpu0->cpu0_L1D AVERAGE MISS LATENCY: 75.62 cycles
cpu0->cpu0_ITLB TOTAL        ACCESS:      17925 HIT:      17925 MISS:          0 MSHR_MERGE:          0
cpu0->cpu0_ITLB LOAD         ACCESS:      17925 HIT:      17925 MISS:          0 MSHR_MERGE:          0
cpu0->cpu0_ITLB RFO          ACCESS:          0 HIT:          0 MISS:          0 MSHR_MERGE:          0
cpu0->cpu0_ITLB PREFETCH     ACCESS:          0 HIT:          0 MISS:          0 MSHR_MERGE:          0
cpu0->cpu0_ITLB WRITE        ACCESS:          0 HIT:          0 MISS:          0 MSHR_MERGE:          0
cpu0->cpu0_ITLB TRANSLATION  ACCESS:          0 HIT:          0 MISS:          0 MSHR_MERGE:          0
cpu0->cpu0_ITLB PREFETCH REQUESTED:          0 ISSUED:          0 USEFUL:          0 USELESS:          0 LATE:          0
cpu0->cpu0_ITLB AVERAGE MISS LATENCY: - cycles
cpu0->cpu0_DTLB TOTAL        ACCESS:   15923057 HIT:   14597546 MISS:    1325511 MSHR_MERGE:      78731
cpu0->cpu0_DTLB LOAD         ACCESS:   15923057 HIT:   14597546 MISS:    1325511 MSHR_MERGE:      78731
cpu0->cpu0_DTLB RFO          ACCESS:          0 HIT:          0 MISS:          0 MSHR_MERGE:          0
cpu0->cpu0_DTLB PREFETCH     ACCESS:          0 HIT:          0 MISS:          0 MSHR_MERGE:          0
cpu0->cpu0_DTLB WRITE        ACCESS:          0 HIT:          0 MISS:          0 MSHR_MERGE:          0
cpu0->cpu0_DTLB TRANSLATION  ACCESS:          0 HIT:          0 MISS:          0 MSHR_MERGE:          0
cpu0->cpu0_DTLB PREFETCH REQUESTED:          0 ISSUED:          0 USEFUL:          0 USELESS:          0 LATE:          0
cpu0->cpu0_DTLB AVERAGE MISS LATENCY: 5.896 cycles
cpu0->LLC TOTAL        ACCESS:    3444438 HIT:    1756313 MISS:    1688125 MSHR_MERGE:          0
cpu0->LLC LOAD         ACCESS:    1157236 HIT:     778440 MISS:     378796 MSHR_MERGE:          0
cpu0->LLC RFO          ACCESS:      18936 HIT:          0 MISS:      18936 MSHR_MERGE:          0
cpu0->LLC PREFETCH     ACCESS:    2226068 HIT:     967347 MISS:    1258721 MSHR_MERGE:          0
cpu0->LLC WRITE        ACCESS:      40915 HIT:      10460 MISS:      30455 MSHR_MERGE:          0
cpu0->LLC TRANSLATION  ACCESS:       1283 HIT:         66 MISS:       1217 MSHR_MERGE:          0
cpu0->LLC PREFETCH REQUESTED:          0 ISSUED:          0 USEFUL:          0 USELESS:          0 LATE:          0
cpu0->LLC AVERAGE MISS LATENCY: 183.2 cycles

DRAM Statistics

Channel 0 RQ ROW_BUFFER_HIT:      16304
  ROW_BUFFER_MISS:    1641362
  AVG DBUS CONGESTED CYCLE: 12.99
Channel 0 WQ ROW_BUFFER_HIT:      14642
  ROW_BUFFER_MISS:      26590
  FULL:          0
Channel 0 REFRESHES ISSUED:      11935

[ROI Statistics]
[System Configuration]
num_cpus 1
cpu_freq 4000
fetch_width 6
decode_width 6
dispatch_width 6
execute_width 6
lq_width 2
sq_width 2
retire_width 6
scheduler_size 160
branch_mispredict_penalty 1
rob_size 352
lq_size 240
sq_size 112
ifetch_buffer_size 64
decode_buffer_size 32
dispatch_buffer_size 32
register_file_size 288
decode_latency 1
dispatch_latency 1
schedule_latency 0
execute_latency 0
page_size 4096
block_size 64
core_0_itlb_set 16
core_0_itlb_way 4
core_0_itlb_rq_size 16
core_0_itlb_wq_size 16
core_0_itlb_pq_size 0
core_0_itlb_mshr_size 8
core_0_itlb_hit_latency 1
core_0_itlb_fill_latency 1
core_0_itlb_max_tag_check 2
core_0_itlb_max_fill 2
core_0_dtlb_set 16
core_0_dtlb_way 4
core_0_dtlb_rq_size 16
core_0_dtlb_wq_size 16
core_0_dtlb_pq_size 0
core_0_dtlb_mshr_size 8
core_0_dtlb_hit_latency 1
core_0_dtlb_fill_latency 1
core_0_dtlb_max_tag_check 2
core_0_dtlb_max_fill 2
core_0_stlb_set 128
core_0_stlb_way 12
core_0_stlb_rq_size 32
core_0_stlb_wq_size 32
core_0_stlb_pq_size 0
core_0_stlb_mshr_size 16
core_0_stlb_hit_latency 4
core_0_stlb_fill_latency 4
core_0_stlb_max_tag_check 1
core_0_stlb_max_fill 1
core_0_l1i_set 64
core_0_l1i_way 8
core_0_l1i_rq_size 64
core_0_l1i_wq_size 64
core_0_l1i_pq_size 32
core_0_l1i_mshr_size 8
core_0_l1i_hit_latency 2
core_0_l1i_fill_latency 2
core_0_l1i_max_tag_check 2
core_0_l1i_max_fill 2
core_0_l1d_set 64
core_0_l1d_way 12
core_0_l1d_rq_size 64
core_0_l1d_wq_size 64
core_0_l1d_pq_size 8
core_0_l1d_mshr_size 16
core_0_l1d_hit_latency 2
core_0_l1d_fill_latency 3
core_0_l1d_max_tag_check 2
core_0_l1d_max_fill 2
core_0_l2c_set 1024
core_0_l2c_way 8
core_0_l2c_rq_size 32
core_0_l2c_wq_size 32
core_0_l2c_pq_size 16
core_0_l2c_mshr_size 32
core_0_l2c_hit_latency 5
core_0_l2c_fill_latency 5
core_0_l2c_max_tag_check 1
core_0_l2c_max_fill 1
llc_set 2048
llc_way 16
llc_rq_size 32
llc_wq_size 32
llc_pq_size 32
llc_mshr_size 64
llc_hit_latency 10
llc_fill_latency 10
llc_max_tag_check 1
llc_max_fill 1
dram_channels 1
dram_ranks 1
dram_bankgroups 8
dram_banks 4
dram_rows 16384
dram_columns 1024
dram_channel_width 8
dram_rq_size 64
dram_wq_size 64
dram_size 4294967296
core_0_itlb_prefetcher no
core_0_dtlb_prefetcher no
core_0_stlb_prefetcher no
core_0_l1i_prefetcher next_line
core_0_l1d_prefetcher berti
core_0_l2c_prefetcher pythia
llc_prefetcher no
llc_replacement drrip

Core_0_instructions 50000002
Core_0_cycles 143213711
Core_0_IPC 0.349129
Core_0_branch_prediction_accuracy 81.5554
Core_0_branch_MPKI 50.83
Core_0_average_ROB_occupancy_at_mispredict 8.83513

Core_0_ITLB_total_access 17925
Core_0_ITLB_total_hit 17925
Core_0_ITLB_total_miss 0
Core_0_ITLB_total_MPKI 0
Core_0_ITLB_total_miss_rate 0
Core_0_ITLB_demand_access 17925
Core_0_ITLB_demand_hit 17925
Core_0_ITLB_demand_miss 0
Core_0_ITLB_demand_MPKI 0
Core_0_ITLB_demand_miss_rate 0
Core_0_ITLB_load_access 17925
Core_0_ITLB_load_hit 17925
Core_0_ITLB_load_miss 0
Core_0_ITLB_load_MPKI 0
Core_0_ITLB_load_miss_rate 0
Core_0_ITLB_rfo_access 0
Core_0_ITLB_rfo_hit 0
Core_0_ITLB_rfo_miss 0
Core_0_ITLB_rfo_MPKI 0
Core_0_ITLB_rfo_miss_rate 0
Core_0_ITLB_prefetch_access 0
Core_0_ITLB_prefetch_hit 0
Core_0_ITLB_prefetch_miss 0
Core_0_ITLB_prefetch_MPKI 0
Core_0_ITLB_prefetch_miss_rate 0
Core_0_ITLB_writeback_access 0
Core_0_ITLB_writeback_hit 0
Core_0_ITLB_writeback_miss 0
Core_0_ITLB_writeback_MPKI 0
Core_0_ITLB_writeback_miss_rate 0
Core_0_ITLB_prefetch_requested 0
Core_0_ITLB_prefetch_issued 0
Core_0_ITLB_prefetch_useful 0
Core_0_ITLB_prefetch_useless 0
Core_0_ITLB_prefetch_late 0
Core_0_ITLB_prefetch_accuracy 0
Core_0_ITLB_prefetch_coverage 0

Core_0_DTLB_total_access 15923057
Core_0_DTLB_total_hit 14597546
Core_0_DTLB_total_miss 1325511
Core_0_DTLB_total_MPKI 26.5102
Core_0_DTLB_total_miss_rate 0.0832448
Core_0_DTLB_demand_access 15923057
Core_0_DTLB_demand_hit 14597546
Core_0_DTLB_demand_miss 1325511
Core_0_DTLB_demand_MPKI 26.5102
Core_0_DTLB_demand_miss_rate 0.0832448
Core_0_DTLB_load_access 15923057
Core_0_DTLB_load_hit 14597546
Core_0_DTLB_load_miss 1325511
Core_0_DTLB_load_MPKI 26.5102
Core_0_DTLB_load_miss_rate 0.0832448
Core_0_DTLB_rfo_access 0
Core_0_DTLB_rfo_hit 0
Core_0_DTLB_rfo_miss 0
Core_0_DTLB_rfo_MPKI 0
Core_0_DTLB_rfo_miss_rate 0
Core_0_DTLB_prefetch_access 0
Core_0_DTLB_prefetch_hit 0
Core_0_DTLB_prefetch_miss 0
Core_0_DTLB_prefetch_MPKI 0
Core_0_DTLB_prefetch_miss_rate 0
Core_0_DTLB_writeback_access 0
Core_0_DTLB_writeback_hit 0
Core_0_DTLB_writeback_miss 0
Core_0_DTLB_writeback_MPKI 0
Core_0_DTLB_writeback_miss_rate 0
Core_0_DTLB_prefetch_requested 0
Core_0_DTLB_prefetch_issued 0
Core_0_DTLB_prefetch_useful 0
Core_0_DTLB_prefetch_useless 0
Core_0_DTLB_prefetch_late 0
Core_0_DTLB_prefetch_accuracy 0
Core_0_DTLB_prefetch_coverage 0

Core_0_STLB_total_access 1246781
Core_0_STLB_total_hit 1242724
Core_0_STLB_total_miss 4057
Core_0_STLB_total_MPKI 0.08114
Core_0_STLB_total_miss_rate 0.00325398
Core_0_STLB_demand_access 1246781
Core_0_STLB_demand_hit 1242724
Core_0_STLB_demand_miss 4057
Core_0_STLB_demand_MPKI 0.08114
Core_0_STLB_demand_miss_rate 0.00325398
Core_0_STLB_load_access 1246781
Core_0_STLB_load_hit 1242724
Core_0_STLB_load_miss 4057
Core_0_STLB_load_MPKI 0.08114
Core_0_STLB_load_miss_rate 0.00325398
Core_0_STLB_rfo_access 0
Core_0_STLB_rfo_hit 0
Core_0_STLB_rfo_miss 0
Core_0_STLB_rfo_MPKI 0
Core_0_STLB_rfo_miss_rate 0
Core_0_STLB_prefetch_access 0
Core_0_STLB_prefetch_hit 0
Core_0_STLB_prefetch_miss 0
Core_0_STLB_prefetch_MPKI 0
Core_0_STLB_prefetch_miss_rate 0
Core_0_STLB_writeback_access 0
Core_0_STLB_writeback_hit 0
Core_0_STLB_writeback_miss 0
Core_0_STLB_writeback_MPKI 0
Core_0_STLB_writeback_miss_rate 0
Core_0_STLB_prefetch_requested 0
Core_0_STLB_prefetch_issued 0
Core_0_STLB_prefetch_useful 0
Core_0_STLB_prefetch_useless 0
Core_0_STLB_prefetch_late 0
Core_0_STLB_prefetch_accuracy 0
Core_0_STLB_prefetch_coverage 0

Core_0_L1I_total_access 20843
Core_0_L1I_total_hit 20843
Core_0_L1I_total_miss 0
Core_0_L1I_total_MPKI 0
Core_0_L1I_total_miss_rate 0
Core_0_L1I_demand_access 20843
Core_0_L1I_demand_hit 20843
Core_0_L1I_demand_miss 0
Core_0_L1I_demand_MPKI 0
Core_0_L1I_demand_miss_rate 0
Core_0_L1I_load_access 20843
Core_0_L1I_load_hit 20843
Core_0_L1I_load_miss 0
Core_0_L1I_load_MPKI 0
Core_0_L1I_load_miss_rate 0
Core_0_L1I_rfo_access 0
Core_0_L1I_rfo_hit 0
Core_0_L1I_rfo_miss 0
Core_0_L1I_rfo_MPKI 0
Core_0_L1I_rfo_miss_rate 0
Core_0_L1I_prefetch_access 0
Core_0_L1I_prefetch_hit 0
Core_0_L1I_prefetch_miss 0
Core_0_L1I_prefetch_MPKI 0
Core_0_L1I_prefetch_miss_rate 0
Core_0_L1I_writeback_access 0
Core_0_L1I_writeback_hit 0
Core_0_L1I_writeback_miss 0
Core_0_L1I_writeback_MPKI 0
Core_0_L1I_writeback_miss_rate 0
Core_0_L1I_prefetch_requested 0
Core_0_L1I_prefetch_issued 0
Core_0_L1I_prefetch_useful 0
Core_0_L1I_prefetch_useless 0
Core_0_L1I_prefetch_late 0
Core_0_L1I_prefetch_accuracy 0
Core_0_L1I_prefetch_coverage 0

Core_0_L1D_total_access 16061308
Core_0_L1D_total_hit 13440798
Core_0_L1D_total_miss 2620510
Core_0_L1D_total_MPKI 52.4102
Core_0_L1D_total_miss_rate 0.163157
Core_0_L1D_demand_access 13738640
Core_0_L1D_demand_hit 12118149
Core_0_L1D_demand_miss 1620491
Core_0_L1D_demand_MPKI 32.4098
Core_0_L1D_demand_miss_rate 0.117951
Core_0_L1D_load_access 13738640
Core_0_L1D_load_hit 12118149
Core_0_L1D_load_miss 1620491
Core_0_L1D_load_MPKI 32.4098
Core_0_L1D_load_miss_rate 0.117951
Core_0_L1D_rfo_access 0
Core_0_L1D_rfo_hit 0
Core_0_L1D_rfo_miss 0
Core_0_L1D_rfo_MPKI 0
Core_0_L1D_rfo_miss_rate 0
Core_0_L1D_prefetch_access 1005017
Core_0_L1D_prefetch_hit 66438
Core_0_L1D_prefetch_miss 938579
Core_0_L1D_prefetch_MPKI 18.7716
Core_0_L1D_prefetch_miss_rate 0.933894
Core_0_L1D_writeback_access 1317651
Core_0_L1D_writeback_hit 1256211
Core_0_L1D_writeback_miss 61440
Core_0_L1D_writeback_MPKI 1.2288
Core_0_L1D_writeback_miss_rate 0.0466284
Core_0_L1D_prefetch_requested 1005100
Core_0_L1D_prefetch_issued 1005017
Core_0_L1D_prefetch_useful 758369
Core_0_L1D_prefetch_useless 178674
Core_0_L1D_prefetch_late 10563
Core_0_L1D_prefetch_accuracy 0.754583
Core_0_L1D_prefetch_coverage 0.318795

Core_0_L2C_total_access 8146329
Core_0_L2C_total_hit 4333234
Core_0_L2C_total_miss 3813095
Core_0_L2C_total_MPKI 76.2619
Core_0_L2C_total_miss_rate 0.468075
Core_0_L2C_demand_access 1451294
Core_0_L2C_demand_hit 271494
Core_0_L2C_demand_miss 1179800
Core_0_L2C_demand_MPKI 23.596
Core_0_L2C_demand_miss_rate 0.81293
Core_0_L2C_load_access 1432358
Core_0_L2C_load_hit 271494
Core_0_L2C_load_miss 1160864
Core_0_L2C_load_MPKI 23.2173
Core_0_L2C_load_miss_rate 0.810457
Core_0_L2C_rfo_access 18936
Core_0_L2C_rfo_hit 0
Core_0_L2C_rfo_miss 18936
Core_0_L2C_rfo_MPKI 0.37872
Core_0_L2C_rfo_miss_rate 1
Core_0_L2C_prefetch_access 6654108
Core_0_L2C_prefetch_hit 4020814
Core_0_L2C_prefetch_miss 2633294
Core_0_L2C_prefetch_MPKI 52.6659
Core_0_L2C_prefetch_miss_rate 0.39574
Core_0_L2C_writeback_access 40927
Core_0_L2C_writeback_hit 40926
Core_0_L2C_writeback_miss 1
Core_0_L2C_writeback_MPKI 2e-05
Core_0_L2C_writeback_miss_rate 2.44337e-05
Core_0_L2C_prefetch_requested 5728143
Core_0_L2C_prefetch_issued 5717095
Core_0_L2C_prefetch_useful 900347
Core_0_L2C_prefetch_useless 1166593
Core_0_L2C_prefetch_late 3628
Core_0_L2C_prefetch_accuracy 0.157483
Core_0_L2C_prefetch_coverage 0.432829

Core_0_LLC_total_access 3443155
Core_0_LLC_total_hit 1756247
Core_0_LLC_total_miss 1686908
Core_0_LLC_total_MPKI 33.7382
Core_0_LLC_total_miss_rate 0.489931
Core_0_LLC_demand_access 1176172
Core_0_LLC_demand_hit 778440
Core_0_LLC_demand_miss 397732
Core_0_LLC_demand_MPKI 7.95464
Core_0_LLC_demand_miss_rate 0.338158
Core_0_LLC_load_access 1157236
Core_0_LLC_load_hit 778440
Core_0_LLC_load_miss 378796
Core_0_LLC_load_MPKI 7.57592
Core_0_LLC_load_miss_rate 0.327328
Core_0_LLC_rfo_access 18936
Core_0_LLC_rfo_hit 0
Core_0_LLC_rfo_miss 18936
Core_0_LLC_rfo_MPKI 0.37872
Core_0_LLC_rfo_miss_rate 1
Core_0_LLC_prefetch_access 2226068
Core_0_LLC_prefetch_hit 967347
Core_0_LLC_prefetch_miss 1258721
Core_0_LLC_prefetch_MPKI 25.1744
Core_0_LLC_prefetch_miss_rate 0.565446
Core_0_LLC_writeback_access 40915
Core_0_LLC_writeback_hit 10460
Core_0_LLC_writeback_miss 30455
Core_0_LLC_writeback_MPKI 0.6091
Core_0_LLC_writeback_miss_rate 0.744348
Core_0_LLC_prefetch_requested 0
Core_0_LLC_prefetch_issued 0
Core_0_LLC_prefetch_useful 0
Core_0_LLC_prefetch_useless 0
Core_0_LLC_prefetch_late 0
Core_0_LLC_prefetch_accuracy 0
Core_0_LLC_prefetch_coverage 0

[DRAM Statistics]
Channel_0_RQ_row_buffer_hit 16304
Channel_0_RQ_row_buffer_miss 1641362
Channel_0_WQ_row_buffer_hit 14642
Channel_0_WQ_row_buffer_miss 26590
Channel_0_WQ_full 0
Channel_0_dbus_congested 2394210
DRAM_total_RQ_row_buffer_hit 16304
DRAM_total_RQ_row_buffer_miss 1641362
DRAM_total_WQ_row_buffer_hit 14642
DRAM_total_WQ_row_buffer_miss 26590
DRAM_total_WQ_full 0
DRAM_total_dbus_congested 2394210
DRAM_avg_congested_cycle 12.9941

======STLB miss causes ========
Core_0_STLB_miss_cause_breakdown
Core_0_STLB_cause_Demand_Data_miss 0
Core_0_STLB_cause_Demand_Data_miss_rate 0
Core_0_STLB_cause_Demand_Instruction_miss 0
Core_0_STLB_cause_Demand_Instruction_miss_rate 0
Core_0_STLB_cause_L1D_Prefetch_miss 4057
Core_0_STLB_cause_L1D_Prefetch_miss_rate 0.00325398
Core_0_STLB_cause_L1I_Prefetch_miss 0
Core_0_STLB_cause_L1I_Prefetch_miss_rate 0
Core_0_STLB_cause_Other_miss 0
Core_0_STLB_cause_Other_miss_rate 0
Core_0_STLB_Demand_miss 0
Core_0_STLB_Demand_miss_rate 0
Core_0_STLB_L1D_Prefetch_miss 4057
Core_0_STLB_L1D_Prefetch_miss_rate 0.00325398
Core_0_STLB_Other_miss 0
Core_0_STLB_Other_miss_rate 0
