[VMEM] WARNING: physical memory size is smaller than virtual memory size.

*** ChampSim Multicore Out-of-Order Simulator ***
Warmup Instructions: 20000000
Simulation Instructions: 50000000
Number of CPUs: 1
Page size: 4096
STLB ideal mode: demand
Core 0: /data0/tzh/champsim_traces/Ligra/ligra_BFSCC.com-lj.ungraph.gcc_6.3.0_O3.drop_18750M.length_250M.champsimtrace.xz
 L1D Berti prefetcher
Off-chip DRAM Size: 4 GiB Channels: 1 Width: 64-bit Data Rate: 3205 MT/s
Warmup halting CPU 0 at instruction 20000002 cycle 5855117 for remainder of phase
Warmup finished CPU 0 instructions: 20000002 cycles: 5855117 cumulative IPC: 3.416 (Simulation time: 00 hr 00 min 58 sec)
Warmup complete CPU 0 instructions: 20000002 cycles: 5855117 cumulative IPC: 3.416 (Simulation time: 00 hr 00 min 58 sec)
Simulation finished CPU 0 instructions: 50000000 cycles: 41455652 cumulative IPC: 1.206 (Simulation time: 00 hr 05 min 54 sec)
Simulation complete CPU 0 instructions: 50000000 cycles: 41455652 cumulative IPC: 1.206 (Simulation time: 00 hr 05 min 54 sec)

ChampSim completed all CPUs

=== Simulation ===
CPU 0 runs /data0/tzh/champsim_traces/Ligra/ligra_BFSCC.com-lj.ungraph.gcc_6.3.0_O3.drop_18750M.length_250M.champsimtrace.xz

Region of Interest Statistics

CPU 0 cumulative IPC: 1.206 instructions: 50000000 cycles: 41455652
CPU 0 Branch Prediction Accuracy: 93.07% MPKI: 14.42 Average ROB Occupancy at Mispredict: 29.39
Branch type MPKI
BRANCH_DIRECT_JUMP: 0
BRANCH_INDIRECT: 0
BRANCH_CONDITIONAL: 14.42
BRANCH_DIRECT_CALL: 0
BRANCH_INDIRECT_CALL: 0
BRANCH_RETURN: 0

cpu0->cpu0_STLB TOTAL        ACCESS:      21027 HIT:      21026 MISS:          1 MSHR_MERGE:          0
cpu0->cpu0_STLB LOAD         ACCESS:      21027 HIT:      21026 MISS:          1 MSHR_MERGE:          0
cpu0->cpu0_STLB RFO          ACCESS:          0 HIT:          0 MISS:          0 MSHR_MERGE:          0
cpu0->cpu0_STLB PREFETCH     ACCESS:          0 HIT:          0 MISS:          0 MSHR_MERGE:          0
cpu0->cpu0_STLB WRITE        ACCESS:          0 HIT:          0 MISS:          0 MSHR_MERGE:          0
cpu0->cpu0_STLB TRANSLATION  ACCESS:          0 HIT:          0 MISS:          0 MSHR_MERGE:          0
cpu0->cpu0_STLB PREFETCH REQUESTED:          0 ISSUED:          0 USEFUL:          0 USELESS:          0 LATE:          0
cpu0->cpu0_STLB AVERAGE MISS LATENCY: 2081 cycles
cpu0->cpu0_L2C TOTAL        ACCESS:    6273800 HIT:    1216563 MISS:    5057237 MSHR_MERGE:    3711532
cpu0->cpu0_L2C LOAD         ACCESS:      18372 HIT:       1913 MISS:      16459 MSHR_MERGE:       1094
cpu0->cpu0_L2C RFO          ACCESS:     478352 HIT:          4 MISS:     478348 MSHR_MERGE:          0
cpu0->cpu0_L2C PREFETCH     ACCESS:    5298731 HIT:     736306 MISS:    4562425 MSHR_MERGE:    3710438
cpu0->cpu0_L2C WRITE        ACCESS:     478340 HIT:     478340 MISS:          0 MSHR_MERGE:          0
cpu0->cpu0_L2C TRANSLATION  ACCESS:          5 HIT:          0 MISS:          5 MSHR_MERGE:          0
cpu0->cpu0_L2C PREFETCH REQUESTED:    4460197 ISSUED:    4449755 USEFUL:     259569 USELESS:     507237 LATE:       1094
cpu0->cpu0_L2C AVERAGE MISS LATENCY: 371.5 cycles
cpu0->cpu0_L1I TOTAL        ACCESS:      68565 HIT:      68565 MISS:          0 MSHR_MERGE:          0
cpu0->cpu0_L1I LOAD         ACCESS:      68565 HIT:      68565 MISS:          0 MSHR_MERGE:          0
cpu0->cpu0_L1I RFO          ACCESS:          0 HIT:          0 MISS:          0 MSHR_MERGE:          0
cpu0->cpu0_L1I PREFETCH     ACCESS:          0 HIT:          0 MISS:          0 MSHR_MERGE:          0
cpu0->cpu0_L1I WRITE        ACCESS:          0 HIT:          0 MISS:          0 MSHR_MERGE:          0
cpu0->cpu0_L1I TRANSLATION  ACCESS:          0 HIT:          0 MISS:          0 MSHR_MERGE:          0
cpu0->cpu0_L1I PREFETCH REQUESTED:          0 ISSUED:          0 USEFUL:          0 USELESS:          0 LATE:          0
cpu0->cpu0_L1I AVERAGE MISS LATENCY: - cycles
cpu0->cpu0_L1D TOTAL        ACCESS:   14762206 HIT:    6129755 MISS:    8632451 MSHR_MERGE:    7286746
cpu0->cpu0_L1D LOAD         ACCESS:    6231124 HIT:    5587649 MISS:     643475 MSHR_MERGE:     625103
cpu0->cpu0_L1D RFO          ACCESS:          0 HIT:          0 MISS:          0 MSHR_MERGE:          0
cpu0->cpu0_L1D PREFETCH     ACCESS:     877566 HIT:      14613 MISS:     862953 MSHR_MERGE:      13977
cpu0->cpu0_L1D WRITE        ACCESS:    7653511 HIT:     527493 MISS:    7126018 MSHR_MERGE:    6647666
cpu0->cpu0_L1D TRANSLATION  ACCESS:          5 HIT:          0 MISS:          5 MSHR_MERGE:          0
cpu0->cpu0_L1D PREFETCH REQUESTED:     877816 ISSUED:     877558 USEFUL:     848961 USELESS:          8 LATE:     116583
cpu0->cpu0_L1D AVERAGE MISS LATENCY: 346 cycles
cpu0->cpu0_ITLB TOTAL        ACCESS:      68563 HIT:      68563 MISS:          0 MSHR_MERGE:          0
cpu0->cpu0_ITLB LOAD         ACCESS:      68563 HIT:      68563 MISS:          0 MSHR_MERGE:          0
cpu0->cpu0_ITLB RFO          ACCESS:          0 HIT:          0 MISS:          0 MSHR_MERGE:          0
cpu0->cpu0_ITLB PREFETCH     ACCESS:          0 HIT:          0 MISS:          0 MSHR_MERGE:          0
cpu0->cpu0_ITLB WRITE        ACCESS:          0 HIT:          0 MISS:          0 MSHR_MERGE:          0
cpu0->cpu0_ITLB TRANSLATION  ACCESS:          0 HIT:          0 MISS:          0 MSHR_MERGE:          0
cpu0->cpu0_ITLB PREFETCH REQUESTED:          0 ISSUED:          0 USEFUL:          0 USELESS:          0 LATE:          0
cpu0->cpu0_ITLB AVERAGE MISS LATENCY: - cycles
cpu0->cpu0_DTLB TOTAL        ACCESS:   13366536 HIT:   13310963 MISS:      55573 MSHR_MERGE:      34546
cpu0->cpu0_DTLB LOAD         ACCESS:   13366536 HIT:   13310963 MISS:      55573 MSHR_MERGE:      34546
cpu0->cpu0_DTLB RFO          ACCESS:          0 HIT:          0 MISS:          0 MSHR_MERGE:          0
cpu0->cpu0_DTLB PREFETCH     ACCESS:          0 HIT:          0 MISS:          0 MSHR_MERGE:          0
cpu0->cpu0_DTLB WRITE        ACCESS:          0 HIT:          0 MISS:          0 MSHR_MERGE:          0
cpu0->cpu0_DTLB TRANSLATION  ACCESS:          0 HIT:          0 MISS:          0 MSHR_MERGE:          0
cpu0->cpu0_DTLB PREFETCH REQUESTED:          0 ISSUED:          0 USEFUL:          0 USELESS:          0 LATE:          0
cpu0->cpu0_DTLB AVERAGE MISS LATENCY: 5.099 cycles
cpu0->LLC TOTAL        ACCESS:    1824213 HIT:      85283 MISS:    1738930 MSHR_MERGE:          0
cpu0->LLC LOAD         ACCESS:      15365 HIT:          0 MISS:      15365 MSHR_MERGE:          0
cpu0->LLC RFO          ACCESS:     478348 HIT:          0 MISS:     478348 MSHR_MERGE:          0
cpu0->LLC PREFETCH     ACCESS:     851986 HIT:          0 MISS:     851986 MSHR_MERGE:          0
cpu0->LLC WRITE        ACCESS:     478509 HIT:      85283 MISS:     393226 MSHR_MERGE:          0
cpu0->LLC TRANSLATION  ACCESS:          5 HIT:          0 MISS:          5 MSHR_MERGE:          0
cpu0->LLC PREFETCH REQUESTED:          0 ISSUED:          0 USEFUL:          0 USELESS:          0 LATE:          0
cpu0->LLC AVERAGE MISS LATENCY: 202 cycles

DRAM Statistics

Channel 0 RQ ROW_BUFFER_HIT:      89132
  ROW_BUFFER_MISS:    1256562
  AVG DBUS CONGESTED CYCLE: 6.162
Channel 0 WQ ROW_BUFFER_HIT:      42648
  ROW_BUFFER_MISS:     437244
  FULL:          0
Channel 0 REFRESHES ISSUED:       3455

[ROI Statistics]
[System Configuration]
num_cpus 1
cpu_freq 4000
fetch_width 6
decode_width 6
dispatch_width 6
execute_width 6
lq_width 2
sq_width 2
retire_width 6
scheduler_size 160
branch_mispredict_penalty 1
rob_size 352
lq_size 240
sq_size 112
ifetch_buffer_size 64
decode_buffer_size 32
dispatch_buffer_size 32
register_file_size 288
decode_latency 1
dispatch_latency 1
schedule_latency 0
execute_latency 0
page_size 4096
block_size 64
core_0_itlb_set 16
core_0_itlb_way 4
core_0_itlb_rq_size 16
core_0_itlb_wq_size 16
core_0_itlb_pq_size 0
core_0_itlb_mshr_size 8
core_0_itlb_hit_latency 1
core_0_itlb_fill_latency 1
core_0_itlb_max_tag_check 2
core_0_itlb_max_fill 2
core_0_dtlb_set 16
core_0_dtlb_way 4
core_0_dtlb_rq_size 16
core_0_dtlb_wq_size 16
core_0_dtlb_pq_size 0
core_0_dtlb_mshr_size 8
core_0_dtlb_hit_latency 1
core_0_dtlb_fill_latency 1
core_0_dtlb_max_tag_check 2
core_0_dtlb_max_fill 2
core_0_stlb_set 128
core_0_stlb_way 12
core_0_stlb_rq_size 32
core_0_stlb_wq_size 32
core_0_stlb_pq_size 0
core_0_stlb_mshr_size 16
core_0_stlb_hit_latency 4
core_0_stlb_fill_latency 4
core_0_stlb_max_tag_check 1
core_0_stlb_max_fill 1
core_0_l1i_set 64
core_0_l1i_way 8
core_0_l1i_rq_size 64
core_0_l1i_wq_size 64
core_0_l1i_pq_size 32
core_0_l1i_mshr_size 8
core_0_l1i_hit_latency 2
core_0_l1i_fill_latency 2
core_0_l1i_max_tag_check 2
core_0_l1i_max_fill 2
core_0_l1d_set 64
core_0_l1d_way 12
core_0_l1d_rq_size 64
core_0_l1d_wq_size 64
core_0_l1d_pq_size 8
core_0_l1d_mshr_size 16
core_0_l1d_hit_latency 2
core_0_l1d_fill_latency 3
core_0_l1d_max_tag_check 2
core_0_l1d_max_fill 2
core_0_l2c_set 1024
core_0_l2c_way 8
core_0_l2c_rq_size 32
core_0_l2c_wq_size 32
core_0_l2c_pq_size 16
core_0_l2c_mshr_size 32
core_0_l2c_hit_latency 5
core_0_l2c_fill_latency 5
core_0_l2c_max_tag_check 1
core_0_l2c_max_fill 1
llc_set 2048
llc_way 16
llc_rq_size 32
llc_wq_size 32
llc_pq_size 32
llc_mshr_size 64
llc_hit_latency 10
llc_fill_latency 10
llc_max_tag_check 1
llc_max_fill 1
dram_channels 1
dram_ranks 1
dram_bankgroups 8
dram_banks 4
dram_rows 16384
dram_columns 1024
dram_channel_width 8
dram_rq_size 64
dram_wq_size 64
dram_size 4294967296
core_0_itlb_prefetcher no
core_0_dtlb_prefetcher no
core_0_stlb_prefetcher no
core_0_l1i_prefetcher next_line
core_0_l1d_prefetcher berti
core_0_l2c_prefetcher pythia
llc_prefetcher no
llc_replacement drrip

Core_0_instructions 50000000
Core_0_cycles 41455652
Core_0_IPC 1.20611
Core_0_branch_prediction_accuracy 93.0735
Core_0_branch_MPKI 14.4182
Core_0_average_ROB_occupancy_at_mispredict 29.3859

Core_0_ITLB_total_access 68563
Core_0_ITLB_total_hit 68563
Core_0_ITLB_total_miss 0
Core_0_ITLB_total_MPKI 0
Core_0_ITLB_total_miss_rate 0
Core_0_ITLB_demand_access 68563
Core_0_ITLB_demand_hit 68563
Core_0_ITLB_demand_miss 0
Core_0_ITLB_demand_MPKI 0
Core_0_ITLB_demand_miss_rate 0
Core_0_ITLB_load_access 68563
Core_0_ITLB_load_hit 68563
Core_0_ITLB_load_miss 0
Core_0_ITLB_load_MPKI 0
Core_0_ITLB_load_miss_rate 0
Core_0_ITLB_rfo_access 0
Core_0_ITLB_rfo_hit 0
Core_0_ITLB_rfo_miss 0
Core_0_ITLB_rfo_MPKI 0
Core_0_ITLB_rfo_miss_rate 0
Core_0_ITLB_prefetch_access 0
Core_0_ITLB_prefetch_hit 0
Core_0_ITLB_prefetch_miss 0
Core_0_ITLB_prefetch_MPKI 0
Core_0_ITLB_prefetch_miss_rate 0
Core_0_ITLB_writeback_access 0
Core_0_ITLB_writeback_hit 0
Core_0_ITLB_writeback_miss 0
Core_0_ITLB_writeback_MPKI 0
Core_0_ITLB_writeback_miss_rate 0
Core_0_ITLB_prefetch_requested 0
Core_0_ITLB_prefetch_issued 0
Core_0_ITLB_prefetch_useful 0
Core_0_ITLB_prefetch_useless 0
Core_0_ITLB_prefetch_late 0
Core_0_ITLB_prefetch_accuracy 0
Core_0_ITLB_prefetch_coverage 0

Core_0_DTLB_total_access 13366536
Core_0_DTLB_total_hit 13310963
Core_0_DTLB_total_miss 55573
Core_0_DTLB_total_MPKI 1.11146
Core_0_DTLB_total_miss_rate 0.00415762
Core_0_DTLB_demand_access 13366536
Core_0_DTLB_demand_hit 13310963
Core_0_DTLB_demand_miss 55573
Core_0_DTLB_demand_MPKI 1.11146
Core_0_DTLB_demand_miss_rate 0.00415762
Core_0_DTLB_load_access 13366536
Core_0_DTLB_load_hit 13310963
Core_0_DTLB_load_miss 55573
Core_0_DTLB_load_MPKI 1.11146
Core_0_DTLB_load_miss_rate 0.00415762
Core_0_DTLB_rfo_access 0
Core_0_DTLB_rfo_hit 0
Core_0_DTLB_rfo_miss 0
Core_0_DTLB_rfo_MPKI 0
Core_0_DTLB_rfo_miss_rate 0
Core_0_DTLB_prefetch_access 0
Core_0_DTLB_prefetch_hit 0
Core_0_DTLB_prefetch_miss 0
Core_0_DTLB_prefetch_MPKI 0
Core_0_DTLB_prefetch_miss_rate 0
Core_0_DTLB_writeback_access 0
Core_0_DTLB_writeback_hit 0
Core_0_DTLB_writeback_miss 0
Core_0_DTLB_writeback_MPKI 0
Core_0_DTLB_writeback_miss_rate 0
Core_0_DTLB_prefetch_requested 0
Core_0_DTLB_prefetch_issued 0
Core_0_DTLB_prefetch_useful 0
Core_0_DTLB_prefetch_useless 0
Core_0_DTLB_prefetch_late 0
Core_0_DTLB_prefetch_accuracy 0
Core_0_DTLB_prefetch_coverage 0

Core_0_STLB_total_access 21027
Core_0_STLB_total_hit 21026
Core_0_STLB_total_miss 1
Core_0_STLB_total_MPKI 2e-05
Core_0_STLB_total_miss_rate 4.75579e-05
Core_0_STLB_demand_access 21027
Core_0_STLB_demand_hit 21026
Core_0_STLB_demand_miss 1
Core_0_STLB_demand_MPKI 2e-05
Core_0_STLB_demand_miss_rate 4.75579e-05
Core_0_STLB_load_access 21027
Core_0_STLB_load_hit 21026
Core_0_STLB_load_miss 1
Core_0_STLB_load_MPKI 2e-05
Core_0_STLB_load_miss_rate 4.75579e-05
Core_0_STLB_rfo_access 0
Core_0_STLB_rfo_hit 0
Core_0_STLB_rfo_miss 0
Core_0_STLB_rfo_MPKI 0
Core_0_STLB_rfo_miss_rate 0
Core_0_STLB_prefetch_access 0
Core_0_STLB_prefetch_hit 0
Core_0_STLB_prefetch_miss 0
Core_0_STLB_prefetch_MPKI 0
Core_0_STLB_prefetch_miss_rate 0
Core_0_STLB_writeback_access 0
Core_0_STLB_writeback_hit 0
Core_0_STLB_writeback_miss 0
Core_0_STLB_writeback_MPKI 0
Core_0_STLB_writeback_miss_rate 0
Core_0_STLB_prefetch_requested 0
Core_0_STLB_prefetch_issued 0
Core_0_STLB_prefetch_useful 0
Core_0_STLB_prefetch_useless 0
Core_0_STLB_prefetch_late 0
Core_0_STLB_prefetch_accuracy 0
Core_0_STLB_prefetch_coverage 0

Core_0_L1I_total_access 68565
Core_0_L1I_total_hit 68565
Core_0_L1I_total_miss 0
Core_0_L1I_total_MPKI 0
Core_0_L1I_total_miss_rate 0
Core_0_L1I_demand_access 68565
Core_0_L1I_demand_hit 68565
Core_0_L1I_demand_miss 0
Core_0_L1I_demand_MPKI 0
Core_0_L1I_demand_miss_rate 0
Core_0_L1I_load_access 68565
Core_0_L1I_load_hit 68565
Core_0_L1I_load_miss 0
Core_0_L1I_load_MPKI 0
Core_0_L1I_load_miss_rate 0
Core_0_L1I_rfo_access 0
Core_0_L1I_rfo_hit 0
Core_0_L1I_rfo_miss 0
Core_0_L1I_rfo_MPKI 0
Core_0_L1I_rfo_miss_rate 0
Core_0_L1I_prefetch_access 0
Core_0_L1I_prefetch_hit 0
Core_0_L1I_prefetch_miss 0
Core_0_L1I_prefetch_MPKI 0
Core_0_L1I_prefetch_miss_rate 0
Core_0_L1I_writeback_access 0
Core_0_L1I_writeback_hit 0
Core_0_L1I_writeback_miss 0
Core_0_L1I_writeback_MPKI 0
Core_0_L1I_writeback_miss_rate 0
Core_0_L1I_prefetch_requested 0
Core_0_L1I_prefetch_issued 0
Core_0_L1I_prefetch_useful 0
Core_0_L1I_prefetch_useless 0
Core_0_L1I_prefetch_late 0
Core_0_L1I_prefetch_accuracy 0
Core_0_L1I_prefetch_coverage 0

Core_0_L1D_total_access 14762201
Core_0_L1D_total_hit 6129755
Core_0_L1D_total_miss 8632446
Core_0_L1D_total_MPKI 172.649
Core_0_L1D_total_miss_rate 0.584767
Core_0_L1D_demand_access 6231124
Core_0_L1D_demand_hit 5587649
Core_0_L1D_demand_miss 643475
Core_0_L1D_demand_MPKI 12.8695
Core_0_L1D_demand_miss_rate 0.103268
Core_0_L1D_load_access 6231124
Core_0_L1D_load_hit 5587649
Core_0_L1D_load_miss 643475
Core_0_L1D_load_MPKI 12.8695
Core_0_L1D_load_miss_rate 0.103268
Core_0_L1D_rfo_access 0
Core_0_L1D_rfo_hit 0
Core_0_L1D_rfo_miss 0
Core_0_L1D_rfo_MPKI 0
Core_0_L1D_rfo_miss_rate 0
Core_0_L1D_prefetch_access 877566
Core_0_L1D_prefetch_hit 14613
Core_0_L1D_prefetch_miss 862953
Core_0_L1D_prefetch_MPKI 17.2591
Core_0_L1D_prefetch_miss_rate 0.983348
Core_0_L1D_writeback_access 7653511
Core_0_L1D_writeback_hit 527493
Core_0_L1D_writeback_miss 7126018
Core_0_L1D_writeback_MPKI 142.52
Core_0_L1D_writeback_miss_rate 0.931078
Core_0_L1D_prefetch_requested 877816
Core_0_L1D_prefetch_issued 877558
Core_0_L1D_prefetch_useful 848961
Core_0_L1D_prefetch_useless 8
Core_0_L1D_prefetch_late 116583
Core_0_L1D_prefetch_accuracy 0.967413
Core_0_L1D_prefetch_coverage 0.568842

Core_0_L2C_total_access 6273795
Core_0_L2C_total_hit 1216563
Core_0_L2C_total_miss 5057232
Core_0_L2C_total_MPKI 101.145
Core_0_L2C_total_miss_rate 0.806088
Core_0_L2C_demand_access 496724
Core_0_L2C_demand_hit 1917
Core_0_L2C_demand_miss 494807
Core_0_L2C_demand_MPKI 9.89614
Core_0_L2C_demand_miss_rate 0.996141
Core_0_L2C_load_access 18372
Core_0_L2C_load_hit 1913
Core_0_L2C_load_miss 16459
Core_0_L2C_load_MPKI 0.32918
Core_0_L2C_load_miss_rate 0.895874
Core_0_L2C_rfo_access 478352
Core_0_L2C_rfo_hit 4
Core_0_L2C_rfo_miss 478348
Core_0_L2C_rfo_MPKI 9.56696
Core_0_L2C_rfo_miss_rate 0.999992
Core_0_L2C_prefetch_access 5298731
Core_0_L2C_prefetch_hit 736306
Core_0_L2C_prefetch_miss 4562425
Core_0_L2C_prefetch_MPKI 91.2485
Core_0_L2C_prefetch_miss_rate 0.861041
Core_0_L2C_writeback_access 478340
Core_0_L2C_writeback_hit 478340
Core_0_L2C_writeback_miss 0
Core_0_L2C_writeback_MPKI 0
Core_0_L2C_writeback_miss_rate 0
Core_0_L2C_prefetch_requested 4460197
Core_0_L2C_prefetch_issued 4449755
Core_0_L2C_prefetch_useful 259569
Core_0_L2C_prefetch_useless 507237
Core_0_L2C_prefetch_late 1094
Core_0_L2C_prefetch_accuracy 0.0583333
Core_0_L2C_prefetch_coverage 0.344084

Core_0_LLC_total_access 1824208
Core_0_LLC_total_hit 85283
Core_0_LLC_total_miss 1738925
Core_0_LLC_total_MPKI 34.7785
Core_0_LLC_total_miss_rate 0.953249
Core_0_LLC_demand_access 493713
Core_0_LLC_demand_hit 0
Core_0_LLC_demand_miss 493713
Core_0_LLC_demand_MPKI 9.87426
Core_0_LLC_demand_miss_rate 1
Core_0_LLC_load_access 15365
Core_0_LLC_load_hit 0
Core_0_LLC_load_miss 15365
Core_0_LLC_load_MPKI 0.3073
Core_0_LLC_load_miss_rate 1
Core_0_LLC_rfo_access 478348
Core_0_LLC_rfo_hit 0
Core_0_LLC_rfo_miss 478348
Core_0_LLC_rfo_MPKI 9.56696
Core_0_LLC_rfo_miss_rate 1
Core_0_LLC_prefetch_access 851986
Core_0_LLC_prefetch_hit 0
Core_0_LLC_prefetch_miss 851986
Core_0_LLC_prefetch_MPKI 17.0397
Core_0_LLC_prefetch_miss_rate 1
Core_0_LLC_writeback_access 478509
Core_0_LLC_writeback_hit 85283
Core_0_LLC_writeback_miss 393226
Core_0_LLC_writeback_MPKI 7.86452
Core_0_LLC_writeback_miss_rate 0.821773
Core_0_LLC_prefetch_requested 0
Core_0_LLC_prefetch_issued 0
Core_0_LLC_prefetch_useful 0
Core_0_LLC_prefetch_useless 0
Core_0_LLC_prefetch_late 0
Core_0_LLC_prefetch_accuracy 0
Core_0_LLC_prefetch_coverage 0

[DRAM Statistics]
Channel_0_RQ_row_buffer_hit 89132
Channel_0_RQ_row_buffer_miss 1256562
Channel_0_WQ_row_buffer_hit 42648
Channel_0_WQ_row_buffer_miss 437244
Channel_0_WQ_full 0
Channel_0_dbus_congested 5204564
DRAM_total_RQ_row_buffer_hit 89132
DRAM_total_RQ_row_buffer_miss 1256562
DRAM_total_WQ_row_buffer_hit 42648
DRAM_total_WQ_row_buffer_miss 437244
DRAM_total_WQ_full 0
DRAM_total_dbus_congested 5204564
DRAM_avg_congested_cycle 6.16179

======STLB miss causes ========
Core_0_STLB_miss_cause_breakdown
Core_0_STLB_cause_Demand_Data_miss 0
Core_0_STLB_cause_Demand_Data_miss_rate 0
Core_0_STLB_cause_Demand_Instruction_miss 0
Core_0_STLB_cause_Demand_Instruction_miss_rate 0
Core_0_STLB_cause_L1D_Prefetch_miss 1
Core_0_STLB_cause_L1D_Prefetch_miss_rate 4.75579e-05
Core_0_STLB_cause_L1I_Prefetch_miss 0
Core_0_STLB_cause_L1I_Prefetch_miss_rate 0
Core_0_STLB_cause_Other_miss 0
Core_0_STLB_cause_Other_miss_rate 0
Core_0_STLB_Demand_miss 0
Core_0_STLB_Demand_miss_rate 0
Core_0_STLB_L1D_Prefetch_miss 1
Core_0_STLB_L1D_Prefetch_miss_rate 4.75579e-05
Core_0_STLB_Other_miss 0
Core_0_STLB_Other_miss_rate 0
