[VMEM] WARNING: physical memory size is smaller than virtual memory size.

*** ChampSim Multicore Out-of-Order Simulator ***
Warmup Instructions: 20000000
Simulation Instructions: 50000000
Number of CPUs: 1
Page size: 4096
STLB ideal mode: demand
Core 0: /data0/tzh/champsim_traces/Ligra/ligra_Radii.com-lj.ungraph.gcc_6.3.0_O3.drop_36000M.length_250M.champsimtrace.xz
 L1D Berti prefetcher
Off-chip DRAM Size: 4 GiB Channels: 1 Width: 64-bit Data Rate: 3205 MT/s
Warmup halting CPU 0 at instruction 20000000 cycle 4207897 for remainder of phase
Warmup finished CPU 0 instructions: 20000000 cycles: 4207897 cumulative IPC: 4.753 (Simulation time: 00 hr 01 min 18 sec)
Warmup complete CPU 0 instructions: 20000000 cycles: 4207897 cumulative IPC: 4.753 (Simulation time: 00 hr 01 min 18 sec)
Simulation finished CPU 0 instructions: 50000002 cycles: 143772599 cumulative IPC: 0.3478 (Simulation time: 00 hr 12 min 43 sec)
Simulation complete CPU 0 instructions: 50000002 cycles: 143772599 cumulative IPC: 0.3478 (Simulation time: 00 hr 12 min 43 sec)

ChampSim completed all CPUs

=== Simulation ===
CPU 0 runs /data0/tzh/champsim_traces/Ligra/ligra_Radii.com-lj.ungraph.gcc_6.3.0_O3.drop_36000M.length_250M.champsimtrace.xz

Region of Interest Statistics

CPU 0 cumulative IPC: 0.3478 instructions: 50000002 cycles: 143772599
CPU 0 Branch Prediction Accuracy: 88.07% MPKI: 31.46 Average ROB Occupancy at Mispredict: 14.56
Branch type MPKI
BRANCH_DIRECT_JUMP: 0
BRANCH_INDIRECT: 0
BRANCH_CONDITIONAL: 31.46
BRANCH_DIRECT_CALL: 0
BRANCH_INDIRECT_CALL: 0
BRANCH_RETURN: 0

cpu0->cpu0_STLB TOTAL        ACCESS:    1872248 HIT:    1863122 MISS:       9126 MSHR_MERGE:          0
cpu0->cpu0_STLB LOAD         ACCESS:    1872248 HIT:    1863122 MISS:       9126 MSHR_MERGE:          0
cpu0->cpu0_STLB RFO          ACCESS:          0 HIT:          0 MISS:          0 MSHR_MERGE:          0
cpu0->cpu0_STLB PREFETCH     ACCESS:          0 HIT:          0 MISS:          0 MSHR_MERGE:          0
cpu0->cpu0_STLB WRITE        ACCESS:          0 HIT:          0 MISS:          0 MSHR_MERGE:          0
cpu0->cpu0_STLB TRANSLATION  ACCESS:          0 HIT:          0 MISS:          0 MSHR_MERGE:          0
cpu0->cpu0_STLB PREFETCH REQUESTED:          0 ISSUED:          0 USEFUL:          0 USELESS:          0 LATE:          0
cpu0->cpu0_STLB AVERAGE MISS LATENCY: 263.9 cycles
cpu0->cpu0_L2C TOTAL        ACCESS:    8715915 HIT:    4327262 MISS:    4388653 MSHR_MERGE:     335337
cpu0->cpu0_L2C LOAD         ACCESS:    1974838 HIT:     504335 MISS:    1470503 MSHR_MERGE:       4318
cpu0->cpu0_L2C RFO          ACCESS:      11091 HIT:        103 MISS:      10988 MSHR_MERGE:          0
cpu0->cpu0_L2C PREFETCH     ACCESS:    6607813 HIT:    3704081 MISS:    2903732 MSHR_MERGE:     331019
cpu0->cpu0_L2C WRITE        ACCESS:     114679 HIT:     114669 MISS:         10 MSHR_MERGE:          0
cpu0->cpu0_L2C TRANSLATION  ACCESS:       7494 HIT:       4074 MISS:       3420 MSHR_MERGE:          0
cpu0->cpu0_L2C PREFETCH REQUESTED:    5766914 ISSUED:    5710518 USEFUL:     932612 USELESS:    1438892 LATE:       4318
cpu0->cpu0_L2C AVERAGE MISS LATENCY: 80.01 cycles
cpu0->cpu0_L1I TOTAL        ACCESS:     597799 HIT:     597799 MISS:          0 MSHR_MERGE:          0
cpu0->cpu0_L1I LOAD         ACCESS:     597799 HIT:     597799 MISS:          0 MSHR_MERGE:          0
cpu0->cpu0_L1I RFO          ACCESS:          0 HIT:          0 MISS:          0 MSHR_MERGE:          0
cpu0->cpu0_L1I PREFETCH     ACCESS:          0 HIT:          0 MISS:          0 MSHR_MERGE:          0
cpu0->cpu0_L1I WRITE        ACCESS:          0 HIT:          0 MISS:          0 MSHR_MERGE:          0
cpu0->cpu0_L1I TRANSLATION  ACCESS:          0 HIT:          0 MISS:          0 MSHR_MERGE:          0
cpu0->cpu0_L1I PREFETCH REQUESTED:          0 ISSUED:          0 USEFUL:          0 USELESS:          0 LATE:          0
cpu0->cpu0_L1I AVERAGE MISS LATENCY: - cycles
cpu0->cpu0_L1D TOTAL        ACCESS:   16992187 HIT:   13978197 MISS:    3013990 MSHR_MERGE:     123266
cpu0->cpu0_L1D LOAD         ACCESS:   13919824 HIT:   11846263 MISS:    2073561 MSHR_MERGE:      98723
cpu0->cpu0_L1D RFO          ACCESS:          0 HIT:          0 MISS:          0 MSHR_MERGE:          0
cpu0->cpu0_L1D PREFETCH     ACCESS:    1101560 HIT:     201582 MISS:     899978 MSHR_MERGE:       2677
cpu0->cpu0_L1D WRITE        ACCESS:    1952526 HIT:    1919569 MISS:      32957 MSHR_MERGE:      21866
cpu0->cpu0_L1D TRANSLATION  ACCESS:      18277 HIT:      10783 MISS:       7494 MSHR_MERGE:          0
cpu0->cpu0_L1D PREFETCH REQUESTED:    1102048 ISSUED:    1101552 USEFUL:     641492 USELESS:     255780 LATE:       8635
cpu0->cpu0_L1D AVERAGE MISS LATENCY: 68.61 cycles
cpu0->cpu0_ITLB TOTAL        ACCESS:     463759 HIT:     463759 MISS:          0 MSHR_MERGE:          0
cpu0->cpu0_ITLB LOAD         ACCESS:     463759 HIT:     463759 MISS:          0 MSHR_MERGE:          0
cpu0->cpu0_ITLB RFO          ACCESS:          0 HIT:          0 MISS:          0 MSHR_MERGE:          0
cpu0->cpu0_ITLB PREFETCH     ACCESS:          0 HIT:          0 MISS:          0 MSHR_MERGE:          0
cpu0->cpu0_ITLB WRITE        ACCESS:          0 HIT:          0 MISS:          0 MSHR_MERGE:          0
cpu0->cpu0_ITLB TRANSLATION  ACCESS:          0 HIT:          0 MISS:          0 MSHR_MERGE:          0
cpu0->cpu0_ITLB PREFETCH REQUESTED:          0 ISSUED:          0 USEFUL:          0 USELESS:          0 LATE:          0
cpu0->cpu0_ITLB AVERAGE MISS LATENCY: - cycles
cpu0->cpu0_DTLB TOTAL        ACCESS:   16722049 HIT:   14748336 MISS:    1973713 MSHR_MERGE:     101465
cpu0->cpu0_DTLB LOAD         ACCESS:   16722049 HIT:   14748336 MISS:    1973713 MSHR_MERGE:     101465
cpu0->cpu0_DTLB RFO          ACCESS:          0 HIT:          0 MISS:          0 MSHR_MERGE:          0
cpu0->cpu0_DTLB PREFETCH     ACCESS:          0 HIT:          0 MISS:          0 MSHR_MERGE:          0
cpu0->cpu0_DTLB WRITE        ACCESS:          0 HIT:          0 MISS:          0 MSHR_MERGE:          0
cpu0->cpu0_DTLB TRANSLATION  ACCESS:          0 HIT:          0 MISS:          0 MSHR_MERGE:          0
cpu0->cpu0_DTLB PREFETCH REQUESTED:          0 ISSUED:          0 USEFUL:          0 USELESS:          0 LATE:          0
cpu0->cpu0_DTLB AVERAGE MISS LATENCY: 6.297 cycles
cpu0->LLC TOTAL        ACCESS:    4167875 HIT:    2268146 MISS:    1899729 MSHR_MERGE:          0
cpu0->LLC LOAD         ACCESS:    1466185 HIT:     997299 MISS:     468886 MSHR_MERGE:          0
cpu0->LLC RFO          ACCESS:      10988 HIT:          0 MISS:      10988 MSHR_MERGE:          0
cpu0->LLC PREFETCH     ACCESS:    2572713 HIT:    1238485 MISS:    1334228 MSHR_MERGE:          0
cpu0->LLC WRITE        ACCESS:     114569 HIT:      32194 MISS:      82375 MSHR_MERGE:          0
cpu0->LLC TRANSLATION  ACCESS:       3420 HIT:        168 MISS:       3252 MSHR_MERGE:          0
cpu0->LLC PREFETCH REQUESTED:          0 ISSUED:          0 USEFUL:          0 USELESS:          0 LATE:          0
cpu0->LLC AVERAGE MISS LATENCY: 170.4 cycles

DRAM Statistics

Channel 0 RQ ROW_BUFFER_HIT:      15670
  ROW_BUFFER_MISS:    1801684
  AVG DBUS CONGESTED CYCLE: 12.01
Channel 0 WQ ROW_BUFFER_HIT:      44608
  ROW_BUFFER_MISS:      71297
  FULL:          0
Channel 0 REFRESHES ISSUED:      11981

[ROI Statistics]
[System Configuration]
num_cpus 1
cpu_freq 4000
fetch_width 6
decode_width 6
dispatch_width 6
execute_width 6
lq_width 2
sq_width 2
retire_width 6
scheduler_size 160
branch_mispredict_penalty 1
rob_size 352
lq_size 240
sq_size 112
ifetch_buffer_size 64
decode_buffer_size 32
dispatch_buffer_size 32
register_file_size 288
decode_latency 1
dispatch_latency 1
schedule_latency 0
execute_latency 0
page_size 4096
block_size 64
core_0_itlb_set 16
core_0_itlb_way 4
core_0_itlb_rq_size 16
core_0_itlb_wq_size 16
core_0_itlb_pq_size 0
core_0_itlb_mshr_size 8
core_0_itlb_hit_latency 1
core_0_itlb_fill_latency 1
core_0_itlb_max_tag_check 2
core_0_itlb_max_fill 2
core_0_dtlb_set 16
core_0_dtlb_way 4
core_0_dtlb_rq_size 16
core_0_dtlb_wq_size 16
core_0_dtlb_pq_size 0
core_0_dtlb_mshr_size 8
core_0_dtlb_hit_latency 1
core_0_dtlb_fill_latency 1
core_0_dtlb_max_tag_check 2
core_0_dtlb_max_fill 2
core_0_stlb_set 128
core_0_stlb_way 12
core_0_stlb_rq_size 32
core_0_stlb_wq_size 32
core_0_stlb_pq_size 0
core_0_stlb_mshr_size 16
core_0_stlb_hit_latency 4
core_0_stlb_fill_latency 4
core_0_stlb_max_tag_check 1
core_0_stlb_max_fill 1
core_0_l1i_set 64
core_0_l1i_way 8
core_0_l1i_rq_size 64
core_0_l1i_wq_size 64
core_0_l1i_pq_size 32
core_0_l1i_mshr_size 8
core_0_l1i_hit_latency 2
core_0_l1i_fill_latency 2
core_0_l1i_max_tag_check 2
core_0_l1i_max_fill 2
core_0_l1d_set 64
core_0_l1d_way 12
core_0_l1d_rq_size 64
core_0_l1d_wq_size 64
core_0_l1d_pq_size 8
core_0_l1d_mshr_size 16
core_0_l1d_hit_latency 2
core_0_l1d_fill_latency 3
core_0_l1d_max_tag_check 2
core_0_l1d_max_fill 2
core_0_l2c_set 1024
core_0_l2c_way 8
core_0_l2c_rq_size 32
core_0_l2c_wq_size 32
core_0_l2c_pq_size 16
core_0_l2c_mshr_size 32
core_0_l2c_hit_latency 5
core_0_l2c_fill_latency 5
core_0_l2c_max_tag_check 1
core_0_l2c_max_fill 1
llc_set 2048
llc_way 16
llc_rq_size 32
llc_wq_size 32
llc_pq_size 32
llc_mshr_size 64
llc_hit_latency 10
llc_fill_latency 10
llc_max_tag_check 1
llc_max_fill 1
dram_channels 1
dram_ranks 1
dram_bankgroups 8
dram_banks 4
dram_rows 16384
dram_columns 1024
dram_channel_width 8
dram_rq_size 64
dram_wq_size 64
dram_size 4294967296
core_0_itlb_prefetcher no
core_0_dtlb_prefetcher no
core_0_stlb_prefetcher no
core_0_l1i_prefetcher next_line
core_0_l1d_prefetcher berti
core_0_l2c_prefetcher pythia
llc_prefetcher no
llc_replacement drrip

Core_0_instructions 50000002
Core_0_cycles 143772599
Core_0_IPC 0.347771
Core_0_branch_prediction_accuracy 88.0709
Core_0_branch_MPKI 31.4593
Core_0_average_ROB_occupancy_at_mispredict 14.5613

Core_0_ITLB_total_access 463759
Core_0_ITLB_total_hit 463759
Core_0_ITLB_total_miss 0
Core_0_ITLB_total_MPKI 0
Core_0_ITLB_total_miss_rate 0
Core_0_ITLB_demand_access 463759
Core_0_ITLB_demand_hit 463759
Core_0_ITLB_demand_miss 0
Core_0_ITLB_demand_MPKI 0
Core_0_ITLB_demand_miss_rate 0
Core_0_ITLB_load_access 463759
Core_0_ITLB_load_hit 463759
Core_0_ITLB_load_miss 0
Core_0_ITLB_load_MPKI 0
Core_0_ITLB_load_miss_rate 0
Core_0_ITLB_rfo_access 0
Core_0_ITLB_rfo_hit 0
Core_0_ITLB_rfo_miss 0
Core_0_ITLB_rfo_MPKI 0
Core_0_ITLB_rfo_miss_rate 0
Core_0_ITLB_prefetch_access 0
Core_0_ITLB_prefetch_hit 0
Core_0_ITLB_prefetch_miss 0
Core_0_ITLB_prefetch_MPKI 0
Core_0_ITLB_prefetch_miss_rate 0
Core_0_ITLB_writeback_access 0
Core_0_ITLB_writeback_hit 0
Core_0_ITLB_writeback_miss 0
Core_0_ITLB_writeback_MPKI 0
Core_0_ITLB_writeback_miss_rate 0
Core_0_ITLB_prefetch_requested 0
Core_0_ITLB_prefetch_issued 0
Core_0_ITLB_prefetch_useful 0
Core_0_ITLB_prefetch_useless 0
Core_0_ITLB_prefetch_late 0
Core_0_ITLB_prefetch_accuracy 0
Core_0_ITLB_prefetch_coverage 0

Core_0_DTLB_total_access 16722049
Core_0_DTLB_total_hit 14748336
Core_0_DTLB_total_miss 1973713
Core_0_DTLB_total_MPKI 39.4743
Core_0_DTLB_total_miss_rate 0.118031
Core_0_DTLB_demand_access 16722049
Core_0_DTLB_demand_hit 14748336
Core_0_DTLB_demand_miss 1973713
Core_0_DTLB_demand_MPKI 39.4743
Core_0_DTLB_demand_miss_rate 0.118031
Core_0_DTLB_load_access 16722049
Core_0_DTLB_load_hit 14748336
Core_0_DTLB_load_miss 1973713
Core_0_DTLB_load_MPKI 39.4743
Core_0_DTLB_load_miss_rate 0.118031
Core_0_DTLB_rfo_access 0
Core_0_DTLB_rfo_hit 0
Core_0_DTLB_rfo_miss 0
Core_0_DTLB_rfo_MPKI 0
Core_0_DTLB_rfo_miss_rate 0
Core_0_DTLB_prefetch_access 0
Core_0_DTLB_prefetch_hit 0
Core_0_DTLB_prefetch_miss 0
Core_0_DTLB_prefetch_MPKI 0
Core_0_DTLB_prefetch_miss_rate 0
Core_0_DTLB_writeback_access 0
Core_0_DTLB_writeback_hit 0
Core_0_DTLB_writeback_miss 0
Core_0_DTLB_writeback_MPKI 0
Core_0_DTLB_writeback_miss_rate 0
Core_0_DTLB_prefetch_requested 0
Core_0_DTLB_prefetch_issued 0
Core_0_DTLB_prefetch_useful 0
Core_0_DTLB_prefetch_useless 0
Core_0_DTLB_prefetch_late 0
Core_0_DTLB_prefetch_accuracy 0
Core_0_DTLB_prefetch_coverage 0

Core_0_STLB_total_access 1872248
Core_0_STLB_total_hit 1863122
Core_0_STLB_total_miss 9126
Core_0_STLB_total_MPKI 0.18252
Core_0_STLB_total_miss_rate 0.00487435
Core_0_STLB_demand_access 1872248
Core_0_STLB_demand_hit 1863122
Core_0_STLB_demand_miss 9126
Core_0_STLB_demand_MPKI 0.18252
Core_0_STLB_demand_miss_rate 0.00487435
Core_0_STLB_load_access 1872248
Core_0_STLB_load_hit 1863122
Core_0_STLB_load_miss 9126
Core_0_STLB_load_MPKI 0.18252
Core_0_STLB_load_miss_rate 0.00487435
Core_0_STLB_rfo_access 0
Core_0_STLB_rfo_hit 0
Core_0_STLB_rfo_miss 0
Core_0_STLB_rfo_MPKI 0
Core_0_STLB_rfo_miss_rate 0
Core_0_STLB_prefetch_access 0
Core_0_STLB_prefetch_hit 0
Core_0_STLB_prefetch_miss 0
Core_0_STLB_prefetch_MPKI 0
Core_0_STLB_prefetch_miss_rate 0
Core_0_STLB_writeback_access 0
Core_0_STLB_writeback_hit 0
Core_0_STLB_writeback_miss 0
Core_0_STLB_writeback_MPKI 0
Core_0_STLB_writeback_miss_rate 0
Core_0_STLB_prefetch_requested 0
Core_0_STLB_prefetch_issued 0
Core_0_STLB_prefetch_useful 0
Core_0_STLB_prefetch_useless 0
Core_0_STLB_prefetch_late 0
Core_0_STLB_prefetch_accuracy 0
Core_0_STLB_prefetch_coverage 0

Core_0_L1I_total_access 597799
Core_0_L1I_total_hit 597799
Core_0_L1I_total_miss 0
Core_0_L1I_total_MPKI 0
Core_0_L1I_total_miss_rate 0
Core_0_L1I_demand_access 597799
Core_0_L1I_demand_hit 597799
Core_0_L1I_demand_miss 0
Core_0_L1I_demand_MPKI 0
Core_0_L1I_demand_miss_rate 0
Core_0_L1I_load_access 597799
Core_0_L1I_load_hit 597799
Core_0_L1I_load_miss 0
Core_0_L1I_load_MPKI 0
Core_0_L1I_load_miss_rate 0
Core_0_L1I_rfo_access 0
Core_0_L1I_rfo_hit 0
Core_0_L1I_rfo_miss 0
Core_0_L1I_rfo_MPKI 0
Core_0_L1I_rfo_miss_rate 0
Core_0_L1I_prefetch_access 0
Core_0_L1I_prefetch_hit 0
Core_0_L1I_prefetch_miss 0
Core_0_L1I_prefetch_MPKI 0
Core_0_L1I_prefetch_miss_rate 0
Core_0_L1I_writeback_access 0
Core_0_L1I_writeback_hit 0
Core_0_L1I_writeback_miss 0
Core_0_L1I_writeback_MPKI 0
Core_0_L1I_writeback_miss_rate 0
Core_0_L1I_prefetch_requested 0
Core_0_L1I_prefetch_issued 0
Core_0_L1I_prefetch_useful 0
Core_0_L1I_prefetch_useless 0
Core_0_L1I_prefetch_late 0
Core_0_L1I_prefetch_accuracy 0
Core_0_L1I_prefetch_coverage 0

Core_0_L1D_total_access 16973910
Core_0_L1D_total_hit 13967414
Core_0_L1D_total_miss 3006496
Core_0_L1D_total_MPKI 60.1299
Core_0_L1D_total_miss_rate 0.177125
Core_0_L1D_demand_access 13919824
Core_0_L1D_demand_hit 11846263
Core_0_L1D_demand_miss 2073561
Core_0_L1D_demand_MPKI 41.4712
Core_0_L1D_demand_miss_rate 0.148965
Core_0_L1D_load_access 13919824
Core_0_L1D_load_hit 11846263
Core_0_L1D_load_miss 2073561
Core_0_L1D_load_MPKI 41.4712
Core_0_L1D_load_miss_rate 0.148965
Core_0_L1D_rfo_access 0
Core_0_L1D_rfo_hit 0
Core_0_L1D_rfo_miss 0
Core_0_L1D_rfo_MPKI 0
Core_0_L1D_rfo_miss_rate 0
Core_0_L1D_prefetch_access 1101560
Core_0_L1D_prefetch_hit 201582
Core_0_L1D_prefetch_miss 899978
Core_0_L1D_prefetch_MPKI 17.9996
Core_0_L1D_prefetch_miss_rate 0.817003
Core_0_L1D_writeback_access 1952526
Core_0_L1D_writeback_hit 1919569
Core_0_L1D_writeback_miss 32957
Core_0_L1D_writeback_MPKI 0.65914
Core_0_L1D_writeback_miss_rate 0.0168792
Core_0_L1D_prefetch_requested 1102048
Core_0_L1D_prefetch_issued 1101552
Core_0_L1D_prefetch_useful 641492
Core_0_L1D_prefetch_useless 255780
Core_0_L1D_prefetch_late 8635
Core_0_L1D_prefetch_accuracy 0.582353
Core_0_L1D_prefetch_coverage 0.236272

Core_0_L2C_total_access 8708421
Core_0_L2C_total_hit 4323188
Core_0_L2C_total_miss 4385233
Core_0_L2C_total_MPKI 87.7047
Core_0_L2C_total_miss_rate 0.503562
Core_0_L2C_demand_access 1985929
Core_0_L2C_demand_hit 504438
Core_0_L2C_demand_miss 1481491
Core_0_L2C_demand_MPKI 29.6298
Core_0_L2C_demand_miss_rate 0.745994
Core_0_L2C_load_access 1974838
Core_0_L2C_load_hit 504335
Core_0_L2C_load_miss 1470503
Core_0_L2C_load_MPKI 29.4101
Core_0_L2C_load_miss_rate 0.74462
Core_0_L2C_rfo_access 11091
Core_0_L2C_rfo_hit 103
Core_0_L2C_rfo_miss 10988
Core_0_L2C_rfo_MPKI 0.21976
Core_0_L2C_rfo_miss_rate 0.990713
Core_0_L2C_prefetch_access 6607813
Core_0_L2C_prefetch_hit 3704081
Core_0_L2C_prefetch_miss 2903732
Core_0_L2C_prefetch_MPKI 58.0746
Core_0_L2C_prefetch_miss_rate 0.439439
Core_0_L2C_writeback_access 114679
Core_0_L2C_writeback_hit 114669
Core_0_L2C_writeback_miss 10
Core_0_L2C_writeback_MPKI 0.0002
Core_0_L2C_writeback_miss_rate 8.71999e-05
Core_0_L2C_prefetch_requested 5766914
Core_0_L2C_prefetch_issued 5710518
Core_0_L2C_prefetch_useful 932612
Core_0_L2C_prefetch_useless 1438892
Core_0_L2C_prefetch_late 4318
Core_0_L2C_prefetch_accuracy 0.163315
Core_0_L2C_prefetch_coverage 0.386318

Core_0_LLC_total_access 4164455
Core_0_LLC_total_hit 2267978
Core_0_LLC_total_miss 1896477
Core_0_LLC_total_MPKI 37.9295
Core_0_LLC_total_miss_rate 0.455396
Core_0_LLC_demand_access 1477173
Core_0_LLC_demand_hit 997299
Core_0_LLC_demand_miss 479874
Core_0_LLC_demand_MPKI 9.59748
Core_0_LLC_demand_miss_rate 0.32486
Core_0_LLC_load_access 1466185
Core_0_LLC_load_hit 997299
Core_0_LLC_load_miss 468886
Core_0_LLC_load_MPKI 9.37772
Core_0_LLC_load_miss_rate 0.3198
Core_0_LLC_rfo_access 10988
Core_0_LLC_rfo_hit 0
Core_0_LLC_rfo_miss 10988
Core_0_LLC_rfo_MPKI 0.21976
Core_0_LLC_rfo_miss_rate 1
Core_0_LLC_prefetch_access 2572713
Core_0_LLC_prefetch_hit 1238485
Core_0_LLC_prefetch_miss 1334228
Core_0_LLC_prefetch_MPKI 26.6846
Core_0_LLC_prefetch_miss_rate 0.518607
Core_0_LLC_writeback_access 114569
Core_0_LLC_writeback_hit 32194
Core_0_LLC_writeback_miss 82375
Core_0_LLC_writeback_MPKI 1.6475
Core_0_LLC_writeback_miss_rate 0.718999
Core_0_LLC_prefetch_requested 0
Core_0_LLC_prefetch_issued 0
Core_0_LLC_prefetch_useful 0
Core_0_LLC_prefetch_useless 0
Core_0_LLC_prefetch_late 0
Core_0_LLC_prefetch_accuracy 0
Core_0_LLC_prefetch_coverage 0

[DRAM Statistics]
Channel_0_RQ_row_buffer_hit 15670
Channel_0_RQ_row_buffer_miss 1801684
Channel_0_WQ_row_buffer_hit 44608
Channel_0_WQ_row_buffer_miss 71297
Channel_0_WQ_full 0
Channel_0_dbus_congested 3661927
DRAM_total_RQ_row_buffer_hit 15670
DRAM_total_RQ_row_buffer_miss 1801684
DRAM_total_WQ_row_buffer_hit 44608
DRAM_total_WQ_row_buffer_miss 71297
DRAM_total_WQ_full 0
DRAM_total_dbus_congested 3661927
DRAM_avg_congested_cycle 12.0107

======STLB miss causes ========
Core_0_STLB_miss_cause_breakdown
Core_0_STLB_cause_Demand_Data_miss 0
Core_0_STLB_cause_Demand_Data_miss_rate 0
Core_0_STLB_cause_Demand_Instruction_miss 0
Core_0_STLB_cause_Demand_Instruction_miss_rate 0
Core_0_STLB_cause_L1D_Prefetch_miss 9126
Core_0_STLB_cause_L1D_Prefetch_miss_rate 0.00487435
Core_0_STLB_cause_L1I_Prefetch_miss 0
Core_0_STLB_cause_L1I_Prefetch_miss_rate 0
Core_0_STLB_cause_Other_miss 0
Core_0_STLB_cause_Other_miss_rate 0
Core_0_STLB_Demand_miss 0
Core_0_STLB_Demand_miss_rate 0
Core_0_STLB_L1D_Prefetch_miss 9126
Core_0_STLB_L1D_Prefetch_miss_rate 0.00487435
Core_0_STLB_Other_miss 0
Core_0_STLB_Other_miss_rate 0
