[VMEM] WARNING: physical memory size is smaller than virtual memory size.

*** ChampSim Multicore Out-of-Order Simulator ***
Warmup Instructions: 20000000
Simulation Instructions: 50000000
Number of CPUs: 1
Page size: 4096
STLB ideal mode: demand
Core 0: /data0/tzh/champsim_traces/Ligra/ligra_PageRankDelta.com-lj.ungraph.gcc_6.3.0_O3.drop_35250M.length_250M.champsimtrace.xz
 L1D Berti prefetcher
Off-chip DRAM Size: 4 GiB Channels: 1 Width: 64-bit Data Rate: 3205 MT/s
Warmup halting CPU 0 at instruction 20000000 cycle 4954780 for remainder of phase
Warmup finished CPU 0 instructions: 20000000 cycles: 4954780 cumulative IPC: 4.037 (Simulation time: 00 hr 00 min 52 sec)
Warmup complete CPU 0 instructions: 20000000 cycles: 4954780 cumulative IPC: 4.037 (Simulation time: 00 hr 00 min 52 sec)
Simulation finished CPU 0 instructions: 50000000 cycles: 29420998 cumulative IPC: 1.699 (Simulation time: 00 hr 04 min 47 sec)
Simulation complete CPU 0 instructions: 50000000 cycles: 29420998 cumulative IPC: 1.699 (Simulation time: 00 hr 04 min 47 sec)

ChampSim completed all CPUs

=== Simulation ===
CPU 0 runs /data0/tzh/champsim_traces/Ligra/ligra_PageRankDelta.com-lj.ungraph.gcc_6.3.0_O3.drop_35250M.length_250M.champsimtrace.xz

Region of Interest Statistics

CPU 0 cumulative IPC: 1.699 instructions: 50000000 cycles: 29420998
CPU 0 Branch Prediction Accuracy: 93.81% MPKI: 10.64 Average ROB Occupancy at Mispredict: 28.94
Branch type MPKI
BRANCH_DIRECT_JUMP: 0.00012
BRANCH_INDIRECT: 0
BRANCH_CONDITIONAL: 10.64
BRANCH_DIRECT_CALL: 0.00012
BRANCH_INDIRECT_CALL: 0
BRANCH_RETURN: 0.00012

cpu0->cpu0_STLB TOTAL        ACCESS:      11460 HIT:      11189 MISS:        271 MSHR_MERGE:          0
cpu0->cpu0_STLB LOAD         ACCESS:      11460 HIT:      11189 MISS:        271 MSHR_MERGE:          0
cpu0->cpu0_STLB RFO          ACCESS:          0 HIT:          0 MISS:          0 MSHR_MERGE:          0
cpu0->cpu0_STLB PREFETCH     ACCESS:          0 HIT:          0 MISS:          0 MSHR_MERGE:          0
cpu0->cpu0_STLB WRITE        ACCESS:          0 HIT:          0 MISS:          0 MSHR_MERGE:          0
cpu0->cpu0_STLB TRANSLATION  ACCESS:          0 HIT:          0 MISS:          0 MSHR_MERGE:          0
cpu0->cpu0_STLB PREFETCH REQUESTED:          0 ISSUED:          0 USEFUL:          0 USELESS:          0 LATE:          0
cpu0->cpu0_STLB AVERAGE MISS LATENCY: 345.4 cycles
cpu0->cpu0_L2C TOTAL        ACCESS:    3709662 HIT:    1557712 MISS:    2151950 MSHR_MERGE:    1419664
cpu0->cpu0_L2C LOAD         ACCESS:      16658 HIT:       8887 MISS:       7771 MSHR_MERGE:        230
cpu0->cpu0_L2C RFO          ACCESS:     237802 HIT:          3 MISS:     237799 MSHR_MERGE:          0
cpu0->cpu0_L2C PREFETCH     ACCESS:    3011718 HIT:    1105405 MISS:    1906313 MSHR_MERGE:    1419434
cpu0->cpu0_L2C WRITE        ACCESS:     443205 HIT:     443205 MISS:          0 MSHR_MERGE:          0
cpu0->cpu0_L2C TRANSLATION  ACCESS:        279 HIT:        212 MISS:         67 MSHR_MERGE:          0
cpu0->cpu0_L2C PREFETCH REQUESTED:    2541970 ISSUED:    2533996 USEFUL:     396849 USELESS:      64305 LATE:        230
cpu0->cpu0_L2C AVERAGE MISS LATENCY: 494.7 cycles
cpu0->cpu0_L1I TOTAL        ACCESS:    1135237 HIT:    1135189 MISS:         48 MSHR_MERGE:          4
cpu0->cpu0_L1I LOAD         ACCESS:    1135237 HIT:    1135189 MISS:         48 MSHR_MERGE:          4
cpu0->cpu0_L1I RFO          ACCESS:          0 HIT:          0 MISS:          0 MSHR_MERGE:          0
cpu0->cpu0_L1I PREFETCH     ACCESS:          0 HIT:          0 MISS:          0 MSHR_MERGE:          0
cpu0->cpu0_L1I WRITE        ACCESS:          0 HIT:          0 MISS:          0 MSHR_MERGE:          0
cpu0->cpu0_L1I TRANSLATION  ACCESS:          0 HIT:          0 MISS:          0 MSHR_MERGE:          0
cpu0->cpu0_L1I PREFETCH REQUESTED:          0 ISSUED:          0 USEFUL:          0 USELESS:          0 LATE:          0
cpu0->cpu0_L1I AVERAGE MISS LATENCY: 289.2 cycles
cpu0->cpu0_L1D TOTAL        ACCESS:   12215093 HIT:    8968082 MISS:    3247011 MSHR_MERGE:    2514594
cpu0->cpu0_L1D LOAD         ACCESS:    7277532 HIT:    7132179 MISS:     145353 MSHR_MERGE:     128739
cpu0->cpu0_L1D RFO          ACCESS:          0 HIT:          0 MISS:          0 MSHR_MERGE:          0
cpu0->cpu0_L1D PREFETCH     ACCESS:     486168 HIT:       7363 MISS:     478805 MSHR_MERGE:       1083
cpu0->cpu0_L1D WRITE        ACCESS:    4450843 HIT:    1828269 MISS:    2622574 MSHR_MERGE:    2384772
cpu0->cpu0_L1D TRANSLATION  ACCESS:        550 HIT:        271 MISS:        279 MSHR_MERGE:          0
cpu0->cpu0_L1D PREFETCH REQUESTED:     486334 ISSUED:     486160 USEFUL:     477683 USELESS:         37 LATE:      22499
cpu0->cpu0_L1D AVERAGE MISS LATENCY: 470.3 cycles
cpu0->cpu0_ITLB TOTAL        ACCESS:    1123950 HIT:    1123944 MISS:          6 MSHR_MERGE:          1
cpu0->cpu0_ITLB LOAD         ACCESS:    1123950 HIT:    1123944 MISS:          6 MSHR_MERGE:          1
cpu0->cpu0_ITLB RFO          ACCESS:          0 HIT:          0 MISS:          0 MSHR_MERGE:          0
cpu0->cpu0_ITLB PREFETCH     ACCESS:          0 HIT:          0 MISS:          0 MSHR_MERGE:          0
cpu0->cpu0_ITLB WRITE        ACCESS:          0 HIT:          0 MISS:          0 MSHR_MERGE:          0
cpu0->cpu0_ITLB TRANSLATION  ACCESS:          0 HIT:          0 MISS:          0 MSHR_MERGE:          0
cpu0->cpu0_ITLB PREFETCH REQUESTED:          0 ISSUED:          0 USEFUL:          0 USELESS:          0 LATE:          0
cpu0->cpu0_ITLB AVERAGE MISS LATENCY: 5 cycles
cpu0->cpu0_DTLB TOTAL        ACCESS:   12020783 HIT:   12000478 MISS:      20305 MSHR_MERGE:       8850
cpu0->cpu0_DTLB LOAD         ACCESS:   12020783 HIT:   12000478 MISS:      20305 MSHR_MERGE:       8850
cpu0->cpu0_DTLB RFO          ACCESS:          0 HIT:          0 MISS:          0 MSHR_MERGE:          0
cpu0->cpu0_DTLB PREFETCH     ACCESS:          0 HIT:          0 MISS:          0 MSHR_MERGE:          0
cpu0->cpu0_DTLB WRITE        ACCESS:          0 HIT:          0 MISS:          0 MSHR_MERGE:          0
cpu0->cpu0_DTLB TRANSLATION  ACCESS:          0 HIT:          0 MISS:          0 MSHR_MERGE:          0
cpu0->cpu0_DTLB PREFETCH REQUESTED:          0 ISSUED:          0 USEFUL:          0 USELESS:          0 LATE:          0
cpu0->cpu0_DTLB AVERAGE MISS LATENCY: 13.19 cycles
cpu0->LLC TOTAL        ACCESS:    1180169 HIT:     380160 MISS:     800009 MSHR_MERGE:          0
cpu0->LLC LOAD         ACCESS:       7541 HIT:          0 MISS:       7541 MSHR_MERGE:          0
cpu0->LLC RFO          ACCESS:     237799 HIT:          0 MISS:     237799 MSHR_MERGE:          0
cpu0->LLC PREFETCH     ACCESS:     486879 HIT:          0 MISS:     486879 MSHR_MERGE:          0
cpu0->LLC WRITE        ACCESS:     447883 HIT:     380156 MISS:      67727 MSHR_MERGE:          0
cpu0->LLC TRANSLATION  ACCESS:         67 HIT:          4 MISS:         63 MSHR_MERGE:          0
cpu0->LLC PREFETCH REQUESTED:          0 ISSUED:          0 USEFUL:          0 USELESS:          0 LATE:          0
cpu0->LLC AVERAGE MISS LATENCY: 377.2 cycles

DRAM Statistics

Channel 0 RQ ROW_BUFFER_HIT:      52940
  ROW_BUFFER_MISS:     679341
  AVG DBUS CONGESTED CYCLE: 7.431
Channel 0 WQ ROW_BUFFER_HIT:      57196
  ROW_BUFFER_MISS:     392524
  FULL:          0
Channel 0 REFRESHES ISSUED:       2452

[ROI Statistics]
[System Configuration]
num_cpus 1
cpu_freq 4000
fetch_width 6
decode_width 6
dispatch_width 6
execute_width 6
lq_width 2
sq_width 2
retire_width 6
scheduler_size 160
branch_mispredict_penalty 1
rob_size 352
lq_size 240
sq_size 112
ifetch_buffer_size 64
decode_buffer_size 32
dispatch_buffer_size 32
register_file_size 288
decode_latency 1
dispatch_latency 1
schedule_latency 0
execute_latency 0
page_size 4096
block_size 64
core_0_itlb_set 16
core_0_itlb_way 4
core_0_itlb_rq_size 16
core_0_itlb_wq_size 16
core_0_itlb_pq_size 0
core_0_itlb_mshr_size 8
core_0_itlb_hit_latency 1
core_0_itlb_fill_latency 1
core_0_itlb_max_tag_check 2
core_0_itlb_max_fill 2
core_0_dtlb_set 16
core_0_dtlb_way 4
core_0_dtlb_rq_size 16
core_0_dtlb_wq_size 16
core_0_dtlb_pq_size 0
core_0_dtlb_mshr_size 8
core_0_dtlb_hit_latency 1
core_0_dtlb_fill_latency 1
core_0_dtlb_max_tag_check 2
core_0_dtlb_max_fill 2
core_0_stlb_set 128
core_0_stlb_way 12
core_0_stlb_rq_size 32
core_0_stlb_wq_size 32
core_0_stlb_pq_size 0
core_0_stlb_mshr_size 16
core_0_stlb_hit_latency 4
core_0_stlb_fill_latency 4
core_0_stlb_max_tag_check 1
core_0_stlb_max_fill 1
core_0_l1i_set 64
core_0_l1i_way 8
core_0_l1i_rq_size 64
core_0_l1i_wq_size 64
core_0_l1i_pq_size 32
core_0_l1i_mshr_size 8
core_0_l1i_hit_latency 2
core_0_l1i_fill_latency 2
core_0_l1i_max_tag_check 2
core_0_l1i_max_fill 2
core_0_l1d_set 64
core_0_l1d_way 12
core_0_l1d_rq_size 64
core_0_l1d_wq_size 64
core_0_l1d_pq_size 8
core_0_l1d_mshr_size 16
core_0_l1d_hit_latency 2
core_0_l1d_fill_latency 3
core_0_l1d_max_tag_check 2
core_0_l1d_max_fill 2
core_0_l2c_set 1024
core_0_l2c_way 8
core_0_l2c_rq_size 32
core_0_l2c_wq_size 32
core_0_l2c_pq_size 16
core_0_l2c_mshr_size 32
core_0_l2c_hit_latency 5
core_0_l2c_fill_latency 5
core_0_l2c_max_tag_check 1
core_0_l2c_max_fill 1
llc_set 2048
llc_way 16
llc_rq_size 32
llc_wq_size 32
llc_pq_size 32
llc_mshr_size 64
llc_hit_latency 10
llc_fill_latency 10
llc_max_tag_check 1
llc_max_fill 1
dram_channels 1
dram_ranks 1
dram_bankgroups 8
dram_banks 4
dram_rows 16384
dram_columns 1024
dram_channel_width 8
dram_rq_size 64
dram_wq_size 64
dram_size 4294967296
core_0_itlb_prefetcher no
core_0_dtlb_prefetcher no
core_0_stlb_prefetcher no
core_0_l1i_prefetcher next_line
core_0_l1d_prefetcher berti
core_0_l2c_prefetcher pythia
llc_prefetcher no
llc_replacement drrip

Core_0_instructions 50000000
Core_0_cycles 29420998
Core_0_IPC 1.69947
Core_0_branch_prediction_accuracy 93.8089
Core_0_branch_MPKI 10.6385
Core_0_average_ROB_occupancy_at_mispredict 28.9396

Core_0_ITLB_total_access 1123950
Core_0_ITLB_total_hit 1123944
Core_0_ITLB_total_miss 6
Core_0_ITLB_total_MPKI 0.00012
Core_0_ITLB_total_miss_rate 5.33832e-06
Core_0_ITLB_demand_access 1123950
Core_0_ITLB_demand_hit 1123944
Core_0_ITLB_demand_miss 6
Core_0_ITLB_demand_MPKI 0.00012
Core_0_ITLB_demand_miss_rate 5.33832e-06
Core_0_ITLB_load_access 1123950
Core_0_ITLB_load_hit 1123944
Core_0_ITLB_load_miss 6
Core_0_ITLB_load_MPKI 0.00012
Core_0_ITLB_load_miss_rate 5.33832e-06
Core_0_ITLB_rfo_access 0
Core_0_ITLB_rfo_hit 0
Core_0_ITLB_rfo_miss 0
Core_0_ITLB_rfo_MPKI 0
Core_0_ITLB_rfo_miss_rate 0
Core_0_ITLB_prefetch_access 0
Core_0_ITLB_prefetch_hit 0
Core_0_ITLB_prefetch_miss 0
Core_0_ITLB_prefetch_MPKI 0
Core_0_ITLB_prefetch_miss_rate 0
Core_0_ITLB_writeback_access 0
Core_0_ITLB_writeback_hit 0
Core_0_ITLB_writeback_miss 0
Core_0_ITLB_writeback_MPKI 0
Core_0_ITLB_writeback_miss_rate 0
Core_0_ITLB_prefetch_requested 0
Core_0_ITLB_prefetch_issued 0
Core_0_ITLB_prefetch_useful 0
Core_0_ITLB_prefetch_useless 0
Core_0_ITLB_prefetch_late 0
Core_0_ITLB_prefetch_accuracy 0
Core_0_ITLB_prefetch_coverage 0

Core_0_DTLB_total_access 12020783
Core_0_DTLB_total_hit 12000478
Core_0_DTLB_total_miss 20305
Core_0_DTLB_total_MPKI 0.4061
Core_0_DTLB_total_miss_rate 0.00168916
Core_0_DTLB_demand_access 12020783
Core_0_DTLB_demand_hit 12000478
Core_0_DTLB_demand_miss 20305
Core_0_DTLB_demand_MPKI 0.4061
Core_0_DTLB_demand_miss_rate 0.00168916
Core_0_DTLB_load_access 12020783
Core_0_DTLB_load_hit 12000478
Core_0_DTLB_load_miss 20305
Core_0_DTLB_load_MPKI 0.4061
Core_0_DTLB_load_miss_rate 0.00168916
Core_0_DTLB_rfo_access 0
Core_0_DTLB_rfo_hit 0
Core_0_DTLB_rfo_miss 0
Core_0_DTLB_rfo_MPKI 0
Core_0_DTLB_rfo_miss_rate 0
Core_0_DTLB_prefetch_access 0
Core_0_DTLB_prefetch_hit 0
Core_0_DTLB_prefetch_miss 0
Core_0_DTLB_prefetch_MPKI 0
Core_0_DTLB_prefetch_miss_rate 0
Core_0_DTLB_writeback_access 0
Core_0_DTLB_writeback_hit 0
Core_0_DTLB_writeback_miss 0
Core_0_DTLB_writeback_MPKI 0
Core_0_DTLB_writeback_miss_rate 0
Core_0_DTLB_prefetch_requested 0
Core_0_DTLB_prefetch_issued 0
Core_0_DTLB_prefetch_useful 0
Core_0_DTLB_prefetch_useless 0
Core_0_DTLB_prefetch_late 0
Core_0_DTLB_prefetch_accuracy 0
Core_0_DTLB_prefetch_coverage 0

Core_0_STLB_total_access 11460
Core_0_STLB_total_hit 11189
Core_0_STLB_total_miss 271
Core_0_STLB_total_MPKI 0.00542
Core_0_STLB_total_miss_rate 0.0236475
Core_0_STLB_demand_access 11460
Core_0_STLB_demand_hit 11189
Core_0_STLB_demand_miss 271
Core_0_STLB_demand_MPKI 0.00542
Core_0_STLB_demand_miss_rate 0.0236475
Core_0_STLB_load_access 11460
Core_0_STLB_load_hit 11189
Core_0_STLB_load_miss 271
Core_0_STLB_load_MPKI 0.00542
Core_0_STLB_load_miss_rate 0.0236475
Core_0_STLB_rfo_access 0
Core_0_STLB_rfo_hit 0
Core_0_STLB_rfo_miss 0
Core_0_STLB_rfo_MPKI 0
Core_0_STLB_rfo_miss_rate 0
Core_0_STLB_prefetch_access 0
Core_0_STLB_prefetch_hit 0
Core_0_STLB_prefetch_miss 0
Core_0_STLB_prefetch_MPKI 0
Core_0_STLB_prefetch_miss_rate 0
Core_0_STLB_writeback_access 0
Core_0_STLB_writeback_hit 0
Core_0_STLB_writeback_miss 0
Core_0_STLB_writeback_MPKI 0
Core_0_STLB_writeback_miss_rate 0
Core_0_STLB_prefetch_requested 0
Core_0_STLB_prefetch_issued 0
Core_0_STLB_prefetch_useful 0
Core_0_STLB_prefetch_useless 0
Core_0_STLB_prefetch_late 0
Core_0_STLB_prefetch_accuracy 0
Core_0_STLB_prefetch_coverage 0

Core_0_L1I_total_access 1135237
Core_0_L1I_total_hit 1135189
Core_0_L1I_total_miss 48
Core_0_L1I_total_MPKI 0.00096
Core_0_L1I_total_miss_rate 4.22819e-05
Core_0_L1I_demand_access 1135237
Core_0_L1I_demand_hit 1135189
Core_0_L1I_demand_miss 48
Core_0_L1I_demand_MPKI 0.00096
Core_0_L1I_demand_miss_rate 4.22819e-05
Core_0_L1I_load_access 1135237
Core_0_L1I_load_hit 1135189
Core_0_L1I_load_miss 48
Core_0_L1I_load_MPKI 0.00096
Core_0_L1I_load_miss_rate 4.22819e-05
Core_0_L1I_rfo_access 0
Core_0_L1I_rfo_hit 0
Core_0_L1I_rfo_miss 0
Core_0_L1I_rfo_MPKI 0
Core_0_L1I_rfo_miss_rate 0
Core_0_L1I_prefetch_access 0
Core_0_L1I_prefetch_hit 0
Core_0_L1I_prefetch_miss 0
Core_0_L1I_prefetch_MPKI 0
Core_0_L1I_prefetch_miss_rate 0
Core_0_L1I_writeback_access 0
Core_0_L1I_writeback_hit 0
Core_0_L1I_writeback_miss 0
Core_0_L1I_writeback_MPKI 0
Core_0_L1I_writeback_miss_rate 0
Core_0_L1I_prefetch_requested 0
Core_0_L1I_prefetch_issued 0
Core_0_L1I_prefetch_useful 0
Core_0_L1I_prefetch_useless 0
Core_0_L1I_prefetch_late 0
Core_0_L1I_prefetch_accuracy 0
Core_0_L1I_prefetch_coverage 0

Core_0_L1D_total_access 12214543
Core_0_L1D_total_hit 8967811
Core_0_L1D_total_miss 3246732
Core_0_L1D_total_MPKI 64.9346
Core_0_L1D_total_miss_rate 0.265809
Core_0_L1D_demand_access 7277532
Core_0_L1D_demand_hit 7132179
Core_0_L1D_demand_miss 145353
Core_0_L1D_demand_MPKI 2.90706
Core_0_L1D_demand_miss_rate 0.0199728
Core_0_L1D_load_access 7277532
Core_0_L1D_load_hit 7132179
Core_0_L1D_load_miss 145353
Core_0_L1D_load_MPKI 2.90706
Core_0_L1D_load_miss_rate 0.0199728
Core_0_L1D_rfo_access 0
Core_0_L1D_rfo_hit 0
Core_0_L1D_rfo_miss 0
Core_0_L1D_rfo_MPKI 0
Core_0_L1D_rfo_miss_rate 0
Core_0_L1D_prefetch_access 486168
Core_0_L1D_prefetch_hit 7363
Core_0_L1D_prefetch_miss 478805
Core_0_L1D_prefetch_MPKI 9.5761
Core_0_L1D_prefetch_miss_rate 0.984855
Core_0_L1D_writeback_access 4450843
Core_0_L1D_writeback_hit 1828269
Core_0_L1D_writeback_miss 2622574
Core_0_L1D_writeback_MPKI 52.4515
Core_0_L1D_writeback_miss_rate 0.589231
Core_0_L1D_prefetch_requested 486334
Core_0_L1D_prefetch_issued 486160
Core_0_L1D_prefetch_useful 477683
Core_0_L1D_prefetch_useless 37
Core_0_L1D_prefetch_late 22499
Core_0_L1D_prefetch_accuracy 0.982563
Core_0_L1D_prefetch_coverage 0.766702

Core_0_L2C_total_access 3709383
Core_0_L2C_total_hit 1557500
Core_0_L2C_total_miss 2151883
Core_0_L2C_total_MPKI 43.0377
Core_0_L2C_total_miss_rate 0.580119
Core_0_L2C_demand_access 254460
Core_0_L2C_demand_hit 8890
Core_0_L2C_demand_miss 245570
Core_0_L2C_demand_MPKI 4.9114
Core_0_L2C_demand_miss_rate 0.965063
Core_0_L2C_load_access 16658
Core_0_L2C_load_hit 8887
Core_0_L2C_load_miss 7771
Core_0_L2C_load_MPKI 0.15542
Core_0_L2C_load_miss_rate 0.466503
Core_0_L2C_rfo_access 237802
Core_0_L2C_rfo_hit 3
Core_0_L2C_rfo_miss 237799
Core_0_L2C_rfo_MPKI 4.75598
Core_0_L2C_rfo_miss_rate 0.999987
Core_0_L2C_prefetch_access 3011718
Core_0_L2C_prefetch_hit 1105405
Core_0_L2C_prefetch_miss 1906313
Core_0_L2C_prefetch_MPKI 38.1263
Core_0_L2C_prefetch_miss_rate 0.632965
Core_0_L2C_writeback_access 443205
Core_0_L2C_writeback_hit 443205
Core_0_L2C_writeback_miss 0
Core_0_L2C_writeback_MPKI 0
Core_0_L2C_writeback_miss_rate 0
Core_0_L2C_prefetch_requested 2541970
Core_0_L2C_prefetch_issued 2533996
Core_0_L2C_prefetch_useful 396849
Core_0_L2C_prefetch_useless 64305
Core_0_L2C_prefetch_late 230
Core_0_L2C_prefetch_accuracy 0.15661
Core_0_L2C_prefetch_coverage 0.617742

Core_0_LLC_total_access 1180102
Core_0_LLC_total_hit 380156
Core_0_LLC_total_miss 799946
Core_0_LLC_total_MPKI 15.9989
Core_0_LLC_total_miss_rate 0.677862
Core_0_LLC_demand_access 245340
Core_0_LLC_demand_hit 0
Core_0_LLC_demand_miss 245340
Core_0_LLC_demand_MPKI 4.9068
Core_0_LLC_demand_miss_rate 1
Core_0_LLC_load_access 7541
Core_0_LLC_load_hit 0
Core_0_LLC_load_miss 7541
Core_0_LLC_load_MPKI 0.15082
Core_0_LLC_load_miss_rate 1
Core_0_LLC_rfo_access 237799
Core_0_LLC_rfo_hit 0
Core_0_LLC_rfo_miss 237799
Core_0_LLC_rfo_MPKI 4.75598
Core_0_LLC_rfo_miss_rate 1
Core_0_LLC_prefetch_access 486879
Core_0_LLC_prefetch_hit 0
Core_0_LLC_prefetch_miss 486879
Core_0_LLC_prefetch_MPKI 9.73758
Core_0_LLC_prefetch_miss_rate 1
Core_0_LLC_writeback_access 447883
Core_0_LLC_writeback_hit 380156
Core_0_LLC_writeback_miss 67727
Core_0_LLC_writeback_MPKI 1.35454
Core_0_LLC_writeback_miss_rate 0.151216
Core_0_LLC_prefetch_requested 0
Core_0_LLC_prefetch_issued 0
Core_0_LLC_prefetch_useful 0
Core_0_LLC_prefetch_useless 0
Core_0_LLC_prefetch_late 0
Core_0_LLC_prefetch_accuracy 0
Core_0_LLC_prefetch_coverage 0

[DRAM Statistics]
Channel_0_RQ_row_buffer_hit 52940
Channel_0_RQ_row_buffer_miss 679341
Channel_0_WQ_row_buffer_hit 57196
Channel_0_WQ_row_buffer_miss 392524
Channel_0_WQ_full 0
Channel_0_dbus_congested 4167390
DRAM_total_RQ_row_buffer_hit 52940
DRAM_total_RQ_row_buffer_miss 679341
DRAM_total_WQ_row_buffer_hit 57196
DRAM_total_WQ_row_buffer_miss 392524
DRAM_total_WQ_full 0
DRAM_total_dbus_congested 4167390
DRAM_avg_congested_cycle 7.43085

======STLB miss causes ========
Core_0_STLB_miss_cause_breakdown
Core_0_STLB_cause_Demand_Data_miss 0
Core_0_STLB_cause_Demand_Data_miss_rate 0
Core_0_STLB_cause_Demand_Instruction_miss 0
Core_0_STLB_cause_Demand_Instruction_miss_rate 0
Core_0_STLB_cause_L1D_Prefetch_miss 271
Core_0_STLB_cause_L1D_Prefetch_miss_rate 0.0236475
Core_0_STLB_cause_L1I_Prefetch_miss 0
Core_0_STLB_cause_L1I_Prefetch_miss_rate 0
Core_0_STLB_cause_Other_miss 0
Core_0_STLB_cause_Other_miss_rate 0
Core_0_STLB_Demand_miss 0
Core_0_STLB_Demand_miss_rate 0
Core_0_STLB_L1D_Prefetch_miss 271
Core_0_STLB_L1D_Prefetch_miss_rate 0.0236475
Core_0_STLB_Other_miss 0
Core_0_STLB_Other_miss_rate 0
