[VMEM] WARNING: physical memory size is smaller than virtual memory size.

*** ChampSim Multicore Out-of-Order Simulator ***
Warmup Instructions: 20000000
Simulation Instructions: 50000000
Number of CPUs: 1
Page size: 4096
STLB ideal mode: all
Core 0: /data0/tzh/champsim_traces/SPEC06/403.gcc-16B.champsimtrace.xz
 L1D Berti prefetcher
Off-chip DRAM Size: 4 GiB Channels: 1 Width: 64-bit Data Rate: 3205 MT/s
Warmup halting CPU 0 at instruction 20000002 cycle 8091643 for remainder of phase
Warmup finished CPU 0 instructions: 20000002 cycles: 8091643 cumulative IPC: 2.472 (Simulation time: 00 hr 01 min 05 sec)
Warmup complete CPU 0 instructions: 20000002 cycles: 8091643 cumulative IPC: 2.472 (Simulation time: 00 hr 01 min 05 sec)
Simulation finished CPU 0 instructions: 50000000 cycles: 21672528 cumulative IPC: 2.307 (Simulation time: 00 hr 03 min 50 sec)
Simulation complete CPU 0 instructions: 50000000 cycles: 21672528 cumulative IPC: 2.307 (Simulation time: 00 hr 03 min 50 sec)

ChampSim completed all CPUs

=== Simulation ===
CPU 0 runs /data0/tzh/champsim_traces/SPEC06/403.gcc-16B.champsimtrace.xz

Region of Interest Statistics

CPU 0 cumulative IPC: 2.307 instructions: 50000000 cycles: 21672528
CPU 0 Branch Prediction Accuracy: 99.66% MPKI: 0.663 Average ROB Occupancy at Mispredict: 52.47
Branch type MPKI
BRANCH_DIRECT_JUMP: 0.0086
BRANCH_INDIRECT: 0.02318
BRANCH_CONDITIONAL: 0.6311
BRANCH_DIRECT_CALL: 2e-05
BRANCH_INDIRECT_CALL: 8e-05
BRANCH_RETURN: 2e-05

cpu0->cpu0_STLB TOTAL        ACCESS:      55275 HIT:      55275 MISS:          0 MSHR_MERGE:          0
cpu0->cpu0_STLB LOAD         ACCESS:      55275 HIT:      55275 MISS:          0 MSHR_MERGE:          0
cpu0->cpu0_STLB RFO          ACCESS:          0 HIT:          0 MISS:          0 MSHR_MERGE:          0
cpu0->cpu0_STLB PREFETCH     ACCESS:          0 HIT:          0 MISS:          0 MSHR_MERGE:          0
cpu0->cpu0_STLB WRITE        ACCESS:          0 HIT:          0 MISS:          0 MSHR_MERGE:          0
cpu0->cpu0_STLB TRANSLATION  ACCESS:          0 HIT:          0 MISS:          0 MSHR_MERGE:          0
cpu0->cpu0_STLB PREFETCH REQUESTED:          0 ISSUED:          0 USEFUL:          0 USELESS:          0 LATE:          0
cpu0->cpu0_STLB AVERAGE MISS LATENCY: - cycles
cpu0->cpu0_L2C TOTAL        ACCESS:    5064458 HIT:    3235253 MISS:    1829205 MSHR_MERGE:       8892
cpu0->cpu0_L2C LOAD         ACCESS:      23158 HIT:       7623 MISS:      15535 MSHR_MERGE:        130
cpu0->cpu0_L2C RFO          ACCESS:    2474821 HIT:     707721 MISS:    1767100 MSHR_MERGE:          2
cpu0->cpu0_L2C PREFETCH     ACCESS:      80768 HIT:      34198 MISS:      46570 MSHR_MERGE:       8760
cpu0->cpu0_L2C WRITE        ACCESS:    2485711 HIT:    2485711 MISS:          0 MSHR_MERGE:          0
cpu0->cpu0_L2C TRANSLATION  ACCESS:          0 HIT:          0 MISS:          0 MSHR_MERGE:          0
cpu0->cpu0_L2C PREFETCH REQUESTED:      63979 ISSUED:      62825 USEFUL:       7764 USELESS:      18969 LATE:        132
cpu0->cpu0_L2C AVERAGE MISS LATENCY: 15.76 cycles
cpu0->cpu0_L1I TOTAL        ACCESS:    8120935 HIT:    8120935 MISS:          0 MSHR_MERGE:          0
cpu0->cpu0_L1I LOAD         ACCESS:    8120935 HIT:    8120935 MISS:          0 MSHR_MERGE:          0
cpu0->cpu0_L1I RFO          ACCESS:          0 HIT:          0 MISS:          0 MSHR_MERGE:          0
cpu0->cpu0_L1I PREFETCH     ACCESS:          0 HIT:          0 MISS:          0 MSHR_MERGE:          0
cpu0->cpu0_L1I WRITE        ACCESS:          0 HIT:          0 MISS:          0 MSHR_MERGE:          0
cpu0->cpu0_L1I TRANSLATION  ACCESS:          0 HIT:          0 MISS:          0 MSHR_MERGE:          0
cpu0->cpu0_L1I PREFETCH REQUESTED:          0 ISSUED:          0 USEFUL:          0 USELESS:          0 LATE:          0
cpu0->cpu0_L1I AVERAGE MISS LATENCY: - cycles
cpu0->cpu0_L1D TOTAL        ACCESS:   20449162 HIT:     627418 MISS:   19821744 MSHR_MERGE:   17305821
cpu0->cpu0_L1D LOAD         ACCESS:     327433 HIT:     294798 MISS:      32635 MSHR_MERGE:       9477
cpu0->cpu0_L1D RFO          ACCESS:          0 HIT:          0 MISS:          0 MSHR_MERGE:          0
cpu0->cpu0_L1D PREFETCH     ACCESS:      21971 HIT:       2433 MISS:      19538 MSHR_MERGE:       1595
cpu0->cpu0_L1D WRITE        ACCESS:   20099758 HIT:     330187 MISS:   19769571 MSHR_MERGE:   17294749
cpu0->cpu0_L1D TRANSLATION  ACCESS:          0 HIT:          0 MISS:          0 MSHR_MERGE:          0
cpu0->cpu0_L1D PREFETCH REQUESTED:      21975 ISSUED:      21971 USEFUL:       9585 USELESS:       8358 LATE:        543
cpu0->cpu0_L1D AVERAGE MISS LATENCY: 19.97 cycles
cpu0->cpu0_ITLB TOTAL        ACCESS:    8120021 HIT:    8120021 MISS:          0 MSHR_MERGE:          0
cpu0->cpu0_ITLB LOAD         ACCESS:    8120021 HIT:    8120021 MISS:          0 MSHR_MERGE:          0
cpu0->cpu0_ITLB RFO          ACCESS:          0 HIT:          0 MISS:          0 MSHR_MERGE:          0
cpu0->cpu0_ITLB PREFETCH     ACCESS:          0 HIT:          0 MISS:          0 MSHR_MERGE:          0
cpu0->cpu0_ITLB WRITE        ACCESS:          0 HIT:          0 MISS:          0 MSHR_MERGE:          0
cpu0->cpu0_ITLB TRANSLATION  ACCESS:          0 HIT:          0 MISS:          0 MSHR_MERGE:          0
cpu0->cpu0_ITLB PREFETCH REQUESTED:          0 ISSUED:          0 USEFUL:          0 USELESS:          0 LATE:          0
cpu0->cpu0_ITLB AVERAGE MISS LATENCY: - cycles
cpu0->cpu0_DTLB TOTAL        ACCESS:   20395808 HIT:   20140782 MISS:     255026 MSHR_MERGE:     199751
cpu0->cpu0_DTLB LOAD         ACCESS:   20395808 HIT:   20140782 MISS:     255026 MSHR_MERGE:     199751
cpu0->cpu0_DTLB RFO          ACCESS:          0 HIT:          0 MISS:          0 MSHR_MERGE:          0
cpu0->cpu0_DTLB PREFETCH     ACCESS:          0 HIT:          0 MISS:          0 MSHR_MERGE:          0
cpu0->cpu0_DTLB WRITE        ACCESS:          0 HIT:          0 MISS:          0 MSHR_MERGE:          0
cpu0->cpu0_DTLB TRANSLATION  ACCESS:          0 HIT:          0 MISS:          0 MSHR_MERGE:          0
cpu0->cpu0_DTLB PREFETCH REQUESTED:          0 ISSUED:          0 USEFUL:          0 USELESS:          0 LATE:          0
cpu0->cpu0_DTLB AVERAGE MISS LATENCY: 5 cycles
cpu0->LLC TOTAL        ACCESS:    3596544 HIT:    3582136 MISS:      14408 MSHR_MERGE:          0
cpu0->LLC LOAD         ACCESS:      15405 HIT:      13357 MISS:       2048 MSHR_MERGE:          0
cpu0->LLC RFO          ACCESS:    1767098 HIT:    1766117 MISS:        981 MSHR_MERGE:          0
cpu0->LLC PREFETCH     ACCESS:      37810 HIT:      26505 MISS:      11305 MSHR_MERGE:          0
cpu0->LLC WRITE        ACCESS:    1776231 HIT:    1776157 MISS:         74 MSHR_MERGE:          0
cpu0->LLC TRANSLATION  ACCESS:          0 HIT:          0 MISS:          0 MSHR_MERGE:          0
cpu0->LLC PREFETCH REQUESTED:          0 ISSUED:          0 USEFUL:          0 USELESS:          0 LATE:          0
cpu0->LLC AVERAGE MISS LATENCY: 166 cycles

DRAM Statistics

Channel 0 RQ ROW_BUFFER_HIT:        368
  ROW_BUFFER_MISS:      13966
  AVG DBUS CONGESTED CYCLE: 6.756
Channel 0 WQ ROW_BUFFER_HIT:        175
  ROW_BUFFER_MISS:        695
  FULL:          0
Channel 0 REFRESHES ISSUED:       1806

[ROI Statistics]
[System Configuration]
num_cpus 1
cpu_freq 4000
fetch_width 6
decode_width 6
dispatch_width 6
execute_width 6
lq_width 2
sq_width 2
retire_width 6
scheduler_size 160
branch_mispredict_penalty 1
rob_size 352
lq_size 240
sq_size 112
ifetch_buffer_size 64
decode_buffer_size 32
dispatch_buffer_size 32
register_file_size 288
decode_latency 1
dispatch_latency 1
schedule_latency 0
execute_latency 0
page_size 4096
block_size 64
core_0_itlb_set 16
core_0_itlb_way 4
core_0_itlb_rq_size 16
core_0_itlb_wq_size 16
core_0_itlb_pq_size 0
core_0_itlb_mshr_size 8
core_0_itlb_hit_latency 1
core_0_itlb_fill_latency 1
core_0_itlb_max_tag_check 2
core_0_itlb_max_fill 2
core_0_dtlb_set 16
core_0_dtlb_way 4
core_0_dtlb_rq_size 16
core_0_dtlb_wq_size 16
core_0_dtlb_pq_size 0
core_0_dtlb_mshr_size 8
core_0_dtlb_hit_latency 1
core_0_dtlb_fill_latency 1
core_0_dtlb_max_tag_check 2
core_0_dtlb_max_fill 2
core_0_stlb_set 128
core_0_stlb_way 12
core_0_stlb_rq_size 32
core_0_stlb_wq_size 32
core_0_stlb_pq_size 0
core_0_stlb_mshr_size 16
core_0_stlb_hit_latency 4
core_0_stlb_fill_latency 4
core_0_stlb_max_tag_check 1
core_0_stlb_max_fill 1
core_0_l1i_set 64
core_0_l1i_way 8
core_0_l1i_rq_size 64
core_0_l1i_wq_size 64
core_0_l1i_pq_size 32
core_0_l1i_mshr_size 8
core_0_l1i_hit_latency 2
core_0_l1i_fill_latency 2
core_0_l1i_max_tag_check 2
core_0_l1i_max_fill 2
core_0_l1d_set 64
core_0_l1d_way 12
core_0_l1d_rq_size 64
core_0_l1d_wq_size 64
core_0_l1d_pq_size 8
core_0_l1d_mshr_size 16
core_0_l1d_hit_latency 2
core_0_l1d_fill_latency 3
core_0_l1d_max_tag_check 2
core_0_l1d_max_fill 2
core_0_l2c_set 1024
core_0_l2c_way 8
core_0_l2c_rq_size 32
core_0_l2c_wq_size 32
core_0_l2c_pq_size 16
core_0_l2c_mshr_size 32
core_0_l2c_hit_latency 5
core_0_l2c_fill_latency 5
core_0_l2c_max_tag_check 1
core_0_l2c_max_fill 1
llc_set 2048
llc_way 16
llc_rq_size 32
llc_wq_size 32
llc_pq_size 32
llc_mshr_size 64
llc_hit_latency 10
llc_fill_latency 10
llc_max_tag_check 1
llc_max_fill 1
dram_channels 1
dram_ranks 1
dram_bankgroups 8
dram_banks 4
dram_rows 16384
dram_columns 1024
dram_channel_width 8
dram_rq_size 64
dram_wq_size 64
dram_size 4294967296
core_0_itlb_prefetcher no
core_0_dtlb_prefetcher no
core_0_stlb_prefetcher no
core_0_l1i_prefetcher next_line
core_0_l1d_prefetcher berti
core_0_l2c_prefetcher pythia
llc_prefetcher no
llc_replacement drrip

Core_0_instructions 50000000
Core_0_cycles 21672528
Core_0_IPC 2.30707
Core_0_branch_prediction_accuracy 99.6622
Core_0_branch_MPKI 0.66296
Core_0_average_ROB_occupancy_at_mispredict 52.4686

Core_0_ITLB_total_access 8120021
Core_0_ITLB_total_hit 8120021
Core_0_ITLB_total_miss 0
Core_0_ITLB_total_MPKI 0
Core_0_ITLB_total_miss_rate 0
Core_0_ITLB_demand_access 8120021
Core_0_ITLB_demand_hit 8120021
Core_0_ITLB_demand_miss 0
Core_0_ITLB_demand_MPKI 0
Core_0_ITLB_demand_miss_rate 0
Core_0_ITLB_load_access 8120021
Core_0_ITLB_load_hit 8120021
Core_0_ITLB_load_miss 0
Core_0_ITLB_load_MPKI 0
Core_0_ITLB_load_miss_rate 0
Core_0_ITLB_rfo_access 0
Core_0_ITLB_rfo_hit 0
Core_0_ITLB_rfo_miss 0
Core_0_ITLB_rfo_MPKI 0
Core_0_ITLB_rfo_miss_rate 0
Core_0_ITLB_prefetch_access 0
Core_0_ITLB_prefetch_hit 0
Core_0_ITLB_prefetch_miss 0
Core_0_ITLB_prefetch_MPKI 0
Core_0_ITLB_prefetch_miss_rate 0
Core_0_ITLB_writeback_access 0
Core_0_ITLB_writeback_hit 0
Core_0_ITLB_writeback_miss 0
Core_0_ITLB_writeback_MPKI 0
Core_0_ITLB_writeback_miss_rate 0
Core_0_ITLB_prefetch_requested 0
Core_0_ITLB_prefetch_issued 0
Core_0_ITLB_prefetch_useful 0
Core_0_ITLB_prefetch_useless 0
Core_0_ITLB_prefetch_late 0
Core_0_ITLB_prefetch_accuracy 0
Core_0_ITLB_prefetch_coverage 0

Core_0_DTLB_total_access 20395808
Core_0_DTLB_total_hit 20140782
Core_0_DTLB_total_miss 255026
Core_0_DTLB_total_MPKI 5.10052
Core_0_DTLB_total_miss_rate 0.0125038
Core_0_DTLB_demand_access 20395808
Core_0_DTLB_demand_hit 20140782
Core_0_DTLB_demand_miss 255026
Core_0_DTLB_demand_MPKI 5.10052
Core_0_DTLB_demand_miss_rate 0.0125038
Core_0_DTLB_load_access 20395808
Core_0_DTLB_load_hit 20140782
Core_0_DTLB_load_miss 255026
Core_0_DTLB_load_MPKI 5.10052
Core_0_DTLB_load_miss_rate 0.0125038
Core_0_DTLB_rfo_access 0
Core_0_DTLB_rfo_hit 0
Core_0_DTLB_rfo_miss 0
Core_0_DTLB_rfo_MPKI 0
Core_0_DTLB_rfo_miss_rate 0
Core_0_DTLB_prefetch_access 0
Core_0_DTLB_prefetch_hit 0
Core_0_DTLB_prefetch_miss 0
Core_0_DTLB_prefetch_MPKI 0
Core_0_DTLB_prefetch_miss_rate 0
Core_0_DTLB_writeback_access 0
Core_0_DTLB_writeback_hit 0
Core_0_DTLB_writeback_miss 0
Core_0_DTLB_writeback_MPKI 0
Core_0_DTLB_writeback_miss_rate 0
Core_0_DTLB_prefetch_requested 0
Core_0_DTLB_prefetch_issued 0
Core_0_DTLB_prefetch_useful 0
Core_0_DTLB_prefetch_useless 0
Core_0_DTLB_prefetch_late 0
Core_0_DTLB_prefetch_accuracy 0
Core_0_DTLB_prefetch_coverage 0

Core_0_STLB_total_access 55275
Core_0_STLB_total_hit 55275
Core_0_STLB_total_miss 0
Core_0_STLB_total_MPKI 0
Core_0_STLB_total_miss_rate 0
Core_0_STLB_demand_access 55275
Core_0_STLB_demand_hit 55275
Core_0_STLB_demand_miss 0
Core_0_STLB_demand_MPKI 0
Core_0_STLB_demand_miss_rate 0
Core_0_STLB_load_access 55275
Core_0_STLB_load_hit 55275
Core_0_STLB_load_miss 0
Core_0_STLB_load_MPKI 0
Core_0_STLB_load_miss_rate 0
Core_0_STLB_rfo_access 0
Core_0_STLB_rfo_hit 0
Core_0_STLB_rfo_miss 0
Core_0_STLB_rfo_MPKI 0
Core_0_STLB_rfo_miss_rate 0
Core_0_STLB_prefetch_access 0
Core_0_STLB_prefetch_hit 0
Core_0_STLB_prefetch_miss 0
Core_0_STLB_prefetch_MPKI 0
Core_0_STLB_prefetch_miss_rate 0
Core_0_STLB_writeback_access 0
Core_0_STLB_writeback_hit 0
Core_0_STLB_writeback_miss 0
Core_0_STLB_writeback_MPKI 0
Core_0_STLB_writeback_miss_rate 0
Core_0_STLB_prefetch_requested 0
Core_0_STLB_prefetch_issued 0
Core_0_STLB_prefetch_useful 0
Core_0_STLB_prefetch_useless 0
Core_0_STLB_prefetch_late 0
Core_0_STLB_prefetch_accuracy 0
Core_0_STLB_prefetch_coverage 0

Core_0_L1I_total_access 8120935
Core_0_L1I_total_hit 8120935
Core_0_L1I_total_miss 0
Core_0_L1I_total_MPKI 0
Core_0_L1I_total_miss_rate 0
Core_0_L1I_demand_access 8120935
Core_0_L1I_demand_hit 8120935
Core_0_L1I_demand_miss 0
Core_0_L1I_demand_MPKI 0
Core_0_L1I_demand_miss_rate 0
Core_0_L1I_load_access 8120935
Core_0_L1I_load_hit 8120935
Core_0_L1I_load_miss 0
Core_0_L1I_load_MPKI 0
Core_0_L1I_load_miss_rate 0
Core_0_L1I_rfo_access 0
Core_0_L1I_rfo_hit 0
Core_0_L1I_rfo_miss 0
Core_0_L1I_rfo_MPKI 0
Core_0_L1I_rfo_miss_rate 0
Core_0_L1I_prefetch_access 0
Core_0_L1I_prefetch_hit 0
Core_0_L1I_prefetch_miss 0
Core_0_L1I_prefetch_MPKI 0
Core_0_L1I_prefetch_miss_rate 0
Core_0_L1I_writeback_access 0
Core_0_L1I_writeback_hit 0
Core_0_L1I_writeback_miss 0
Core_0_L1I_writeback_MPKI 0
Core_0_L1I_writeback_miss_rate 0
Core_0_L1I_prefetch_requested 0
Core_0_L1I_prefetch_issued 0
Core_0_L1I_prefetch_useful 0
Core_0_L1I_prefetch_useless 0
Core_0_L1I_prefetch_late 0
Core_0_L1I_prefetch_accuracy 0
Core_0_L1I_prefetch_coverage 0

Core_0_L1D_total_access 20449162
Core_0_L1D_total_hit 627418
Core_0_L1D_total_miss 19821744
Core_0_L1D_total_MPKI 396.435
Core_0_L1D_total_miss_rate 0.969318
Core_0_L1D_demand_access 327433
Core_0_L1D_demand_hit 294798
Core_0_L1D_demand_miss 32635
Core_0_L1D_demand_MPKI 0.6527
Core_0_L1D_demand_miss_rate 0.0996692
Core_0_L1D_load_access 327433
Core_0_L1D_load_hit 294798
Core_0_L1D_load_miss 32635
Core_0_L1D_load_MPKI 0.6527
Core_0_L1D_load_miss_rate 0.0996692
Core_0_L1D_rfo_access 0
Core_0_L1D_rfo_hit 0
Core_0_L1D_rfo_miss 0
Core_0_L1D_rfo_MPKI 0
Core_0_L1D_rfo_miss_rate 0
Core_0_L1D_prefetch_access 21971
Core_0_L1D_prefetch_hit 2433
Core_0_L1D_prefetch_miss 19538
Core_0_L1D_prefetch_MPKI 0.39076
Core_0_L1D_prefetch_miss_rate 0.889263
Core_0_L1D_writeback_access 20099758
Core_0_L1D_writeback_hit 330187
Core_0_L1D_writeback_miss 19769571
Core_0_L1D_writeback_MPKI 395.391
Core_0_L1D_writeback_miss_rate 0.983573
Core_0_L1D_prefetch_requested 21975
Core_0_L1D_prefetch_issued 21971
Core_0_L1D_prefetch_useful 9585
Core_0_L1D_prefetch_useless 8358
Core_0_L1D_prefetch_late 543
Core_0_L1D_prefetch_accuracy 0.436257
Core_0_L1D_prefetch_coverage 0.227025

Core_0_L2C_total_access 5064458
Core_0_L2C_total_hit 3235253
Core_0_L2C_total_miss 1829205
Core_0_L2C_total_MPKI 36.5841
Core_0_L2C_total_miss_rate 0.361185
Core_0_L2C_demand_access 2497979
Core_0_L2C_demand_hit 715344
Core_0_L2C_demand_miss 1782635
Core_0_L2C_demand_MPKI 35.6527
Core_0_L2C_demand_miss_rate 0.713631
Core_0_L2C_load_access 23158
Core_0_L2C_load_hit 7623
Core_0_L2C_load_miss 15535
Core_0_L2C_load_MPKI 0.3107
Core_0_L2C_load_miss_rate 0.670826
Core_0_L2C_rfo_access 2474821
Core_0_L2C_rfo_hit 707721
Core_0_L2C_rfo_miss 1767100
Core_0_L2C_rfo_MPKI 35.342
Core_0_L2C_rfo_miss_rate 0.714031
Core_0_L2C_prefetch_access 80768
Core_0_L2C_prefetch_hit 34198
Core_0_L2C_prefetch_miss 46570
Core_0_L2C_prefetch_MPKI 0.9314
Core_0_L2C_prefetch_miss_rate 0.57659
Core_0_L2C_writeback_access 2485711
Core_0_L2C_writeback_hit 2485711
Core_0_L2C_writeback_miss 0
Core_0_L2C_writeback_MPKI 0
Core_0_L2C_writeback_miss_rate 0
Core_0_L2C_prefetch_requested 63979
Core_0_L2C_prefetch_issued 62825
Core_0_L2C_prefetch_useful 7764
Core_0_L2C_prefetch_useless 18969
Core_0_L2C_prefetch_late 132
Core_0_L2C_prefetch_accuracy 0.123581
Core_0_L2C_prefetch_coverage 0.00433646

Core_0_LLC_total_access 3596544
Core_0_LLC_total_hit 3582136
Core_0_LLC_total_miss 14408
Core_0_LLC_total_MPKI 0.28816
Core_0_LLC_total_miss_rate 0.00400607
Core_0_LLC_demand_access 1782503
Core_0_LLC_demand_hit 1779474
Core_0_LLC_demand_miss 3029
Core_0_LLC_demand_MPKI 0.06058
Core_0_LLC_demand_miss_rate 0.0016993
Core_0_LLC_load_access 15405
Core_0_LLC_load_hit 13357
Core_0_LLC_load_miss 2048
Core_0_LLC_load_MPKI 0.04096
Core_0_LLC_load_miss_rate 0.132944
Core_0_LLC_rfo_access 1767098
Core_0_LLC_rfo_hit 1766117
Core_0_LLC_rfo_miss 981
Core_0_LLC_rfo_MPKI 0.01962
Core_0_LLC_rfo_miss_rate 0.000555147
Core_0_LLC_prefetch_access 37810
Core_0_LLC_prefetch_hit 26505
Core_0_LLC_prefetch_miss 11305
Core_0_LLC_prefetch_MPKI 0.2261
Core_0_LLC_prefetch_miss_rate 0.298995
Core_0_LLC_writeback_access 1776231
Core_0_LLC_writeback_hit 1776157
Core_0_LLC_writeback_miss 74
Core_0_LLC_writeback_MPKI 0.00148
Core_0_LLC_writeback_miss_rate 4.16612e-05
Core_0_LLC_prefetch_requested 0
Core_0_LLC_prefetch_issued 0
Core_0_LLC_prefetch_useful 0
Core_0_LLC_prefetch_useless 0
Core_0_LLC_prefetch_late 0
Core_0_LLC_prefetch_accuracy 0
Core_0_LLC_prefetch_coverage 0

[DRAM Statistics]
Channel_0_RQ_row_buffer_hit 368
Channel_0_RQ_row_buffer_miss 13966
Channel_0_WQ_row_buffer_hit 175
Channel_0_WQ_row_buffer_miss 695
Channel_0_WQ_full 0
Channel_0_dbus_congested 25749
DRAM_total_RQ_row_buffer_hit 368
DRAM_total_RQ_row_buffer_miss 13966
DRAM_total_WQ_row_buffer_hit 175
DRAM_total_WQ_row_buffer_miss 695
DRAM_total_WQ_full 0
DRAM_total_dbus_congested 25749
DRAM_avg_congested_cycle 6.75568

======STLB miss causes ========
Core_0_STLB_miss_cause_breakdown
Core_0_STLB_cause_Demand_Data_miss 0
Core_0_STLB_cause_Demand_Data_miss_rate 0
Core_0_STLB_cause_Demand_Instruction_miss 0
Core_0_STLB_cause_Demand_Instruction_miss_rate 0
Core_0_STLB_cause_L1D_Prefetch_miss 0
Core_0_STLB_cause_L1D_Prefetch_miss_rate 0
Core_0_STLB_cause_L1I_Prefetch_miss 0
Core_0_STLB_cause_L1I_Prefetch_miss_rate 0
Core_0_STLB_cause_Other_miss 0
Core_0_STLB_cause_Other_miss_rate 0
Core_0_STLB_Demand_miss 0
Core_0_STLB_Demand_miss_rate 0
Core_0_STLB_L1D_Prefetch_miss 0
Core_0_STLB_L1D_Prefetch_miss_rate 0
Core_0_STLB_Other_miss 0
Core_0_STLB_Other_miss_rate 0
