[VMEM] WARNING: physical memory size is smaller than virtual memory size.

*** ChampSim Multicore Out-of-Order Simulator ***
Warmup Instructions: 20000000
Simulation Instructions: 50000000
Number of CPUs: 1
Page size: 4096
STLB ideal mode: all
Core 0: /data0/tzh/champsim_traces/SPEC06/429.mcf-22B.champsimtrace.xz
 L1D Berti prefetcher
Off-chip DRAM Size: 4 GiB Channels: 1 Width: 64-bit Data Rate: 3205 MT/s
Warmup halting CPU 0 at instruction 20000002 cycle 6109518 for remainder of phase
Warmup finished CPU 0 instructions: 20000002 cycles: 6109518 cumulative IPC: 3.274 (Simulation time: 00 hr 01 min 21 sec)
Warmup complete CPU 0 instructions: 20000002 cycles: 6109518 cumulative IPC: 3.274 (Simulation time: 00 hr 01 min 21 sec)
Simulation finished CPU 0 instructions: 50000000 cycles: 56836057 cumulative IPC: 0.8797 (Simulation time: 00 hr 09 min 35 sec)
Simulation complete CPU 0 instructions: 50000000 cycles: 56836057 cumulative IPC: 0.8797 (Simulation time: 00 hr 09 min 35 sec)

ChampSim completed all CPUs

=== Simulation ===
CPU 0 runs /data0/tzh/champsim_traces/SPEC06/429.mcf-22B.champsimtrace.xz

Region of Interest Statistics

CPU 0 cumulative IPC: 0.8797 instructions: 50000000 cycles: 56836057
CPU 0 Branch Prediction Accuracy: 97.97% MPKI: 1.749 Average ROB Occupancy at Mispredict: 194.5
Branch type MPKI
BRANCH_DIRECT_JUMP: 0
BRANCH_INDIRECT: 0
BRANCH_CONDITIONAL: 1.749
BRANCH_DIRECT_CALL: 0
BRANCH_INDIRECT_CALL: 0
BRANCH_RETURN: 0

cpu0->cpu0_STLB TOTAL        ACCESS:     252347 HIT:     252347 MISS:          0 MSHR_MERGE:          0
cpu0->cpu0_STLB LOAD         ACCESS:     252347 HIT:     252347 MISS:          0 MSHR_MERGE:          0
cpu0->cpu0_STLB RFO          ACCESS:          0 HIT:          0 MISS:          0 MSHR_MERGE:          0
cpu0->cpu0_STLB PREFETCH     ACCESS:          0 HIT:          0 MISS:          0 MSHR_MERGE:          0
cpu0->cpu0_STLB WRITE        ACCESS:          0 HIT:          0 MISS:          0 MSHR_MERGE:          0
cpu0->cpu0_STLB TRANSLATION  ACCESS:          0 HIT:          0 MISS:          0 MSHR_MERGE:          0
cpu0->cpu0_STLB PREFETCH REQUESTED:          0 ISSUED:          0 USEFUL:          0 USELESS:          0 LATE:          0
cpu0->cpu0_STLB AVERAGE MISS LATENCY: - cycles
cpu0->cpu0_L2C TOTAL        ACCESS:    5159860 HIT:    2560311 MISS:    2599549 MSHR_MERGE:     872393
cpu0->cpu0_L2C LOAD         ACCESS:     833011 HIT:     138486 MISS:     694525 MSHR_MERGE:     119622
cpu0->cpu0_L2C RFO          ACCESS:       2201 HIT:       2193 MISS:          8 MSHR_MERGE:          0
cpu0->cpu0_L2C PREFETCH     ACCESS:    3636760 HIT:    1732249 MISS:    1904511 MSHR_MERGE:     752771
cpu0->cpu0_L2C WRITE        ACCESS:     687888 HIT:     687383 MISS:        505 MSHR_MERGE:          0
cpu0->cpu0_L2C TRANSLATION  ACCESS:          0 HIT:          0 MISS:          0 MSHR_MERGE:          0
cpu0->cpu0_L2C PREFETCH REQUESTED:    3301860 ISSUED:    2998702 USEFUL:     541948 USELESS:     372773 LATE:     119622
cpu0->cpu0_L2C AVERAGE MISS LATENCY: 404.1 cycles
cpu0->cpu0_L1I TOTAL        ACCESS:    5416029 HIT:    5416029 MISS:          0 MSHR_MERGE:          0
cpu0->cpu0_L1I LOAD         ACCESS:    5416029 HIT:    5416029 MISS:          0 MSHR_MERGE:          0
cpu0->cpu0_L1I RFO          ACCESS:          0 HIT:          0 MISS:          0 MSHR_MERGE:          0
cpu0->cpu0_L1I PREFETCH     ACCESS:          0 HIT:          0 MISS:          0 MSHR_MERGE:          0
cpu0->cpu0_L1I WRITE        ACCESS:          0 HIT:          0 MISS:          0 MSHR_MERGE:          0
cpu0->cpu0_L1I TRANSLATION  ACCESS:          0 HIT:          0 MISS:          0 MSHR_MERGE:          0
cpu0->cpu0_L1I PREFETCH REQUESTED:          0 ISSUED:          0 USEFUL:          0 USELESS:          0 LATE:          0
cpu0->cpu0_L1I AVERAGE MISS LATENCY: - cycles
cpu0->cpu0_L1D TOTAL        ACCESS:   16066257 HIT:   14330737 MISS:    1735520 MSHR_MERGE:     262254
cpu0->cpu0_L1D LOAD         ACCESS:    6549690 HIT:    5483619 MISS:    1066071 MSHR_MERGE:     233047
cpu0->cpu0_L1D RFO          ACCESS:          0 HIT:          0 MISS:          0 MSHR_MERGE:          0
cpu0->cpu0_L1D PREFETCH     ACCESS:     890508 HIT:     229428 MISS:     661080 MSHR_MERGE:      23039
cpu0->cpu0_L1D WRITE        ACCESS:    8626059 HIT:    8617690 MISS:       8369 MSHR_MERGE:       6168
cpu0->cpu0_L1D TRANSLATION  ACCESS:          0 HIT:          0 MISS:          0 MSHR_MERGE:          0
cpu0->cpu0_L1D PREFETCH REQUESTED:     943210 ISSUED:     890500 USEFUL:     410116 USELESS:     227857 LATE:      22980
cpu0->cpu0_L1D AVERAGE MISS LATENCY: 339.8 cycles
cpu0->cpu0_ITLB TOTAL        ACCESS:    4448672 HIT:    4448672 MISS:          0 MSHR_MERGE:          0
cpu0->cpu0_ITLB LOAD         ACCESS:    4448672 HIT:    4448672 MISS:          0 MSHR_MERGE:          0
cpu0->cpu0_ITLB RFO          ACCESS:          0 HIT:          0 MISS:          0 MSHR_MERGE:          0
cpu0->cpu0_ITLB PREFETCH     ACCESS:          0 HIT:          0 MISS:          0 MSHR_MERGE:          0
cpu0->cpu0_ITLB WRITE        ACCESS:          0 HIT:          0 MISS:          0 MSHR_MERGE:          0
cpu0->cpu0_ITLB TRANSLATION  ACCESS:          0 HIT:          0 MISS:          0 MSHR_MERGE:          0
cpu0->cpu0_ITLB PREFETCH REQUESTED:          0 ISSUED:          0 USEFUL:          0 USELESS:          0 LATE:          0
cpu0->cpu0_ITLB AVERAGE MISS LATENCY: - cycles
cpu0->cpu0_DTLB TOTAL        ACCESS:   14496354 HIT:   14069074 MISS:     427280 MSHR_MERGE:     174933
cpu0->cpu0_DTLB LOAD         ACCESS:   14496354 HIT:   14069074 MISS:     427280 MSHR_MERGE:     174933
cpu0->cpu0_DTLB RFO          ACCESS:          0 HIT:          0 MISS:          0 MSHR_MERGE:          0
cpu0->cpu0_DTLB PREFETCH     ACCESS:          0 HIT:          0 MISS:          0 MSHR_MERGE:          0
cpu0->cpu0_DTLB WRITE        ACCESS:          0 HIT:          0 MISS:          0 MSHR_MERGE:          0
cpu0->cpu0_DTLB TRANSLATION  ACCESS:          0 HIT:          0 MISS:          0 MSHR_MERGE:          0
cpu0->cpu0_DTLB PREFETCH REQUESTED:          0 ISSUED:          0 USEFUL:          0 USELESS:          0 LATE:          0
cpu0->cpu0_DTLB AVERAGE MISS LATENCY: 5.002 cycles
cpu0->LLC TOTAL        ACCESS:    2388959 HIT:     200865 MISS:    2188094 MSHR_MERGE:          0
cpu0->LLC LOAD         ACCESS:     574904 HIT:      23361 MISS:     551543 MSHR_MERGE:          0
cpu0->LLC RFO          ACCESS:          8 HIT:          0 MISS:          8 MSHR_MERGE:          0
cpu0->LLC PREFETCH     ACCESS:    1151740 HIT:      31401 MISS:    1120339 MSHR_MERGE:          0
cpu0->LLC WRITE        ACCESS:     662307 HIT:     146103 MISS:     516204 MSHR_MERGE:          0
cpu0->LLC TRANSLATION  ACCESS:          0 HIT:          0 MISS:          0 MSHR_MERGE:          0
cpu0->LLC PREFETCH REQUESTED:          0 ISSUED:          0 USEFUL:          0 USELESS:          0 LATE:          0
cpu0->LLC AVERAGE MISS LATENCY: 212.9 cycles

DRAM Statistics

Channel 0 RQ ROW_BUFFER_HIT:      54129
  ROW_BUFFER_MISS:    1617717
  AVG DBUS CONGESTED CYCLE: 5.823
Channel 0 WQ ROW_BUFFER_HIT:      77081
  ROW_BUFFER_MISS:     555640
  FULL:        130
Channel 0 REFRESHES ISSUED:       4736

[ROI Statistics]
[System Configuration]
num_cpus 1
cpu_freq 4000
fetch_width 6
decode_width 6
dispatch_width 6
execute_width 6
lq_width 2
sq_width 2
retire_width 6
scheduler_size 160
branch_mispredict_penalty 1
rob_size 352
lq_size 240
sq_size 112
ifetch_buffer_size 64
decode_buffer_size 32
dispatch_buffer_size 32
register_file_size 288
decode_latency 1
dispatch_latency 1
schedule_latency 0
execute_latency 0
page_size 4096
block_size 64
core_0_itlb_set 16
core_0_itlb_way 4
core_0_itlb_rq_size 16
core_0_itlb_wq_size 16
core_0_itlb_pq_size 0
core_0_itlb_mshr_size 8
core_0_itlb_hit_latency 1
core_0_itlb_fill_latency 1
core_0_itlb_max_tag_check 2
core_0_itlb_max_fill 2
core_0_dtlb_set 16
core_0_dtlb_way 4
core_0_dtlb_rq_size 16
core_0_dtlb_wq_size 16
core_0_dtlb_pq_size 0
core_0_dtlb_mshr_size 8
core_0_dtlb_hit_latency 1
core_0_dtlb_fill_latency 1
core_0_dtlb_max_tag_check 2
core_0_dtlb_max_fill 2
core_0_stlb_set 128
core_0_stlb_way 12
core_0_stlb_rq_size 32
core_0_stlb_wq_size 32
core_0_stlb_pq_size 0
core_0_stlb_mshr_size 16
core_0_stlb_hit_latency 4
core_0_stlb_fill_latency 4
core_0_stlb_max_tag_check 1
core_0_stlb_max_fill 1
core_0_l1i_set 64
core_0_l1i_way 8
core_0_l1i_rq_size 64
core_0_l1i_wq_size 64
core_0_l1i_pq_size 32
core_0_l1i_mshr_size 8
core_0_l1i_hit_latency 2
core_0_l1i_fill_latency 2
core_0_l1i_max_tag_check 2
core_0_l1i_max_fill 2
core_0_l1d_set 64
core_0_l1d_way 12
core_0_l1d_rq_size 64
core_0_l1d_wq_size 64
core_0_l1d_pq_size 8
core_0_l1d_mshr_size 16
core_0_l1d_hit_latency 2
core_0_l1d_fill_latency 3
core_0_l1d_max_tag_check 2
core_0_l1d_max_fill 2
core_0_l2c_set 1024
core_0_l2c_way 8
core_0_l2c_rq_size 32
core_0_l2c_wq_size 32
core_0_l2c_pq_size 16
core_0_l2c_mshr_size 32
core_0_l2c_hit_latency 5
core_0_l2c_fill_latency 5
core_0_l2c_max_tag_check 1
core_0_l2c_max_fill 1
llc_set 2048
llc_way 16
llc_rq_size 32
llc_wq_size 32
llc_pq_size 32
llc_mshr_size 64
llc_hit_latency 10
llc_fill_latency 10
llc_max_tag_check 1
llc_max_fill 1
dram_channels 1
dram_ranks 1
dram_bankgroups 8
dram_banks 4
dram_rows 16384
dram_columns 1024
dram_channel_width 8
dram_rq_size 64
dram_wq_size 64
dram_size 4294967296
core_0_itlb_prefetcher no
core_0_dtlb_prefetcher no
core_0_stlb_prefetcher no
core_0_l1i_prefetcher next_line
core_0_l1d_prefetcher berti
core_0_l2c_prefetcher pythia
llc_prefetcher no
llc_replacement drrip

Core_0_instructions 50000000
Core_0_cycles 56836057
Core_0_IPC 0.879723
Core_0_branch_prediction_accuracy 97.9736
Core_0_branch_MPKI 1.74904
Core_0_average_ROB_occupancy_at_mispredict 194.507

Core_0_ITLB_total_access 4448672
Core_0_ITLB_total_hit 4448672
Core_0_ITLB_total_miss 0
Core_0_ITLB_total_MPKI 0
Core_0_ITLB_total_miss_rate 0
Core_0_ITLB_demand_access 4448672
Core_0_ITLB_demand_hit 4448672
Core_0_ITLB_demand_miss 0
Core_0_ITLB_demand_MPKI 0
Core_0_ITLB_demand_miss_rate 0
Core_0_ITLB_load_access 4448672
Core_0_ITLB_load_hit 4448672
Core_0_ITLB_load_miss 0
Core_0_ITLB_load_MPKI 0
Core_0_ITLB_load_miss_rate 0
Core_0_ITLB_rfo_access 0
Core_0_ITLB_rfo_hit 0
Core_0_ITLB_rfo_miss 0
Core_0_ITLB_rfo_MPKI 0
Core_0_ITLB_rfo_miss_rate 0
Core_0_ITLB_prefetch_access 0
Core_0_ITLB_prefetch_hit 0
Core_0_ITLB_prefetch_miss 0
Core_0_ITLB_prefetch_MPKI 0
Core_0_ITLB_prefetch_miss_rate 0
Core_0_ITLB_writeback_access 0
Core_0_ITLB_writeback_hit 0
Core_0_ITLB_writeback_miss 0
Core_0_ITLB_writeback_MPKI 0
Core_0_ITLB_writeback_miss_rate 0
Core_0_ITLB_prefetch_requested 0
Core_0_ITLB_prefetch_issued 0
Core_0_ITLB_prefetch_useful 0
Core_0_ITLB_prefetch_useless 0
Core_0_ITLB_prefetch_late 0
Core_0_ITLB_prefetch_accuracy 0
Core_0_ITLB_prefetch_coverage 0

Core_0_DTLB_total_access 14496354
Core_0_DTLB_total_hit 14069074
Core_0_DTLB_total_miss 427280
Core_0_DTLB_total_MPKI 8.5456
Core_0_DTLB_total_miss_rate 0.029475
Core_0_DTLB_demand_access 14496354
Core_0_DTLB_demand_hit 14069074
Core_0_DTLB_demand_miss 427280
Core_0_DTLB_demand_MPKI 8.5456
Core_0_DTLB_demand_miss_rate 0.029475
Core_0_DTLB_load_access 14496354
Core_0_DTLB_load_hit 14069074
Core_0_DTLB_load_miss 427280
Core_0_DTLB_load_MPKI 8.5456
Core_0_DTLB_load_miss_rate 0.029475
Core_0_DTLB_rfo_access 0
Core_0_DTLB_rfo_hit 0
Core_0_DTLB_rfo_miss 0
Core_0_DTLB_rfo_MPKI 0
Core_0_DTLB_rfo_miss_rate 0
Core_0_DTLB_prefetch_access 0
Core_0_DTLB_prefetch_hit 0
Core_0_DTLB_prefetch_miss 0
Core_0_DTLB_prefetch_MPKI 0
Core_0_DTLB_prefetch_miss_rate 0
Core_0_DTLB_writeback_access 0
Core_0_DTLB_writeback_hit 0
Core_0_DTLB_writeback_miss 0
Core_0_DTLB_writeback_MPKI 0
Core_0_DTLB_writeback_miss_rate 0
Core_0_DTLB_prefetch_requested 0
Core_0_DTLB_prefetch_issued 0
Core_0_DTLB_prefetch_useful 0
Core_0_DTLB_prefetch_useless 0
Core_0_DTLB_prefetch_late 0
Core_0_DTLB_prefetch_accuracy 0
Core_0_DTLB_prefetch_coverage 0

Core_0_STLB_total_access 252347
Core_0_STLB_total_hit 252347
Core_0_STLB_total_miss 0
Core_0_STLB_total_MPKI 0
Core_0_STLB_total_miss_rate 0
Core_0_STLB_demand_access 252347
Core_0_STLB_demand_hit 252347
Core_0_STLB_demand_miss 0
Core_0_STLB_demand_MPKI 0
Core_0_STLB_demand_miss_rate 0
Core_0_STLB_load_access 252347
Core_0_STLB_load_hit 252347
Core_0_STLB_load_miss 0
Core_0_STLB_load_MPKI 0
Core_0_STLB_load_miss_rate 0
Core_0_STLB_rfo_access 0
Core_0_STLB_rfo_hit 0
Core_0_STLB_rfo_miss 0
Core_0_STLB_rfo_MPKI 0
Core_0_STLB_rfo_miss_rate 0
Core_0_STLB_prefetch_access 0
Core_0_STLB_prefetch_hit 0
Core_0_STLB_prefetch_miss 0
Core_0_STLB_prefetch_MPKI 0
Core_0_STLB_prefetch_miss_rate 0
Core_0_STLB_writeback_access 0
Core_0_STLB_writeback_hit 0
Core_0_STLB_writeback_miss 0
Core_0_STLB_writeback_MPKI 0
Core_0_STLB_writeback_miss_rate 0
Core_0_STLB_prefetch_requested 0
Core_0_STLB_prefetch_issued 0
Core_0_STLB_prefetch_useful 0
Core_0_STLB_prefetch_useless 0
Core_0_STLB_prefetch_late 0
Core_0_STLB_prefetch_accuracy 0
Core_0_STLB_prefetch_coverage 0

Core_0_L1I_total_access 5416029
Core_0_L1I_total_hit 5416029
Core_0_L1I_total_miss 0
Core_0_L1I_total_MPKI 0
Core_0_L1I_total_miss_rate 0
Core_0_L1I_demand_access 5416029
Core_0_L1I_demand_hit 5416029
Core_0_L1I_demand_miss 0
Core_0_L1I_demand_MPKI 0
Core_0_L1I_demand_miss_rate 0
Core_0_L1I_load_access 5416029
Core_0_L1I_load_hit 5416029
Core_0_L1I_load_miss 0
Core_0_L1I_load_MPKI 0
Core_0_L1I_load_miss_rate 0
Core_0_L1I_rfo_access 0
Core_0_L1I_rfo_hit 0
Core_0_L1I_rfo_miss 0
Core_0_L1I_rfo_MPKI 0
Core_0_L1I_rfo_miss_rate 0
Core_0_L1I_prefetch_access 0
Core_0_L1I_prefetch_hit 0
Core_0_L1I_prefetch_miss 0
Core_0_L1I_prefetch_MPKI 0
Core_0_L1I_prefetch_miss_rate 0
Core_0_L1I_writeback_access 0
Core_0_L1I_writeback_hit 0
Core_0_L1I_writeback_miss 0
Core_0_L1I_writeback_MPKI 0
Core_0_L1I_writeback_miss_rate 0
Core_0_L1I_prefetch_requested 0
Core_0_L1I_prefetch_issued 0
Core_0_L1I_prefetch_useful 0
Core_0_L1I_prefetch_useless 0
Core_0_L1I_prefetch_late 0
Core_0_L1I_prefetch_accuracy 0
Core_0_L1I_prefetch_coverage 0

Core_0_L1D_total_access 16066257
Core_0_L1D_total_hit 14330737
Core_0_L1D_total_miss 1735520
Core_0_L1D_total_MPKI 34.7104
Core_0_L1D_total_miss_rate 0.108023
Core_0_L1D_demand_access 6549690
Core_0_L1D_demand_hit 5483619
Core_0_L1D_demand_miss 1066071
Core_0_L1D_demand_MPKI 21.3214
Core_0_L1D_demand_miss_rate 0.162767
Core_0_L1D_load_access 6549690
Core_0_L1D_load_hit 5483619
Core_0_L1D_load_miss 1066071
Core_0_L1D_load_MPKI 21.3214
Core_0_L1D_load_miss_rate 0.162767
Core_0_L1D_rfo_access 0
Core_0_L1D_rfo_hit 0
Core_0_L1D_rfo_miss 0
Core_0_L1D_rfo_MPKI 0
Core_0_L1D_rfo_miss_rate 0
Core_0_L1D_prefetch_access 890508
Core_0_L1D_prefetch_hit 229428
Core_0_L1D_prefetch_miss 661080
Core_0_L1D_prefetch_MPKI 13.2216
Core_0_L1D_prefetch_miss_rate 0.742363
Core_0_L1D_writeback_access 8626059
Core_0_L1D_writeback_hit 8617690
Core_0_L1D_writeback_miss 8369
Core_0_L1D_writeback_MPKI 0.16738
Core_0_L1D_writeback_miss_rate 0.0009702
Core_0_L1D_prefetch_requested 943210
Core_0_L1D_prefetch_issued 890500
Core_0_L1D_prefetch_useful 410116
Core_0_L1D_prefetch_useless 227857
Core_0_L1D_prefetch_late 22980
Core_0_L1D_prefetch_accuracy 0.460546
Core_0_L1D_prefetch_coverage 0.277821

Core_0_L2C_total_access 5159860
Core_0_L2C_total_hit 2560311
Core_0_L2C_total_miss 2599549
Core_0_L2C_total_MPKI 51.991
Core_0_L2C_total_miss_rate 0.503802
Core_0_L2C_demand_access 835212
Core_0_L2C_demand_hit 140679
Core_0_L2C_demand_miss 694533
Core_0_L2C_demand_MPKI 13.8907
Core_0_L2C_demand_miss_rate 0.831565
Core_0_L2C_load_access 833011
Core_0_L2C_load_hit 138486
Core_0_L2C_load_miss 694525
Core_0_L2C_load_MPKI 13.8905
Core_0_L2C_load_miss_rate 0.833752
Core_0_L2C_rfo_access 2201
Core_0_L2C_rfo_hit 2193
Core_0_L2C_rfo_miss 8
Core_0_L2C_rfo_MPKI 0.00016
Core_0_L2C_rfo_miss_rate 0.00363471
Core_0_L2C_prefetch_access 3636760
Core_0_L2C_prefetch_hit 1732249
Core_0_L2C_prefetch_miss 1904511
Core_0_L2C_prefetch_MPKI 38.0902
Core_0_L2C_prefetch_miss_rate 0.523683
Core_0_L2C_writeback_access 687888
Core_0_L2C_writeback_hit 687383
Core_0_L2C_writeback_miss 505
Core_0_L2C_writeback_MPKI 0.0101
Core_0_L2C_writeback_miss_rate 0.000734131
Core_0_L2C_prefetch_requested 3301860
Core_0_L2C_prefetch_issued 2998702
Core_0_L2C_prefetch_useful 541948
Core_0_L2C_prefetch_useless 372773
Core_0_L2C_prefetch_late 119622
Core_0_L2C_prefetch_accuracy 0.180728
Core_0_L2C_prefetch_coverage 0.438299

Core_0_LLC_total_access 2388959
Core_0_LLC_total_hit 200865
Core_0_LLC_total_miss 2188094
Core_0_LLC_total_MPKI 43.7619
Core_0_LLC_total_miss_rate 0.915919
Core_0_LLC_demand_access 574912
Core_0_LLC_demand_hit 23361
Core_0_LLC_demand_miss 551551
Core_0_LLC_demand_MPKI 11.031
Core_0_LLC_demand_miss_rate 0.959366
Core_0_LLC_load_access 574904
Core_0_LLC_load_hit 23361
Core_0_LLC_load_miss 551543
Core_0_LLC_load_MPKI 11.0309
Core_0_LLC_load_miss_rate 0.959365
Core_0_LLC_rfo_access 8
Core_0_LLC_rfo_hit 0
Core_0_LLC_rfo_miss 8
Core_0_LLC_rfo_MPKI 0.00016
Core_0_LLC_rfo_miss_rate 1
Core_0_LLC_prefetch_access 1151740
Core_0_LLC_prefetch_hit 31401
Core_0_LLC_prefetch_miss 1120339
Core_0_LLC_prefetch_MPKI 22.4068
Core_0_LLC_prefetch_miss_rate 0.972736
Core_0_LLC_writeback_access 662307
Core_0_LLC_writeback_hit 146103
Core_0_LLC_writeback_miss 516204
Core_0_LLC_writeback_MPKI 10.3241
Core_0_LLC_writeback_miss_rate 0.779403
Core_0_LLC_prefetch_requested 0
Core_0_LLC_prefetch_issued 0
Core_0_LLC_prefetch_useful 0
Core_0_LLC_prefetch_useless 0
Core_0_LLC_prefetch_late 0
Core_0_LLC_prefetch_accuracy 0
Core_0_LLC_prefetch_coverage 0

[DRAM Statistics]
Channel_0_RQ_row_buffer_hit 54129
Channel_0_RQ_row_buffer_miss 1617717
Channel_0_WQ_row_buffer_hit 77081
Channel_0_WQ_row_buffer_miss 555640
Channel_0_WQ_full 130
Channel_0_dbus_congested 7039202
DRAM_total_RQ_row_buffer_hit 54129
DRAM_total_RQ_row_buffer_miss 1617717
DRAM_total_WQ_row_buffer_hit 77081
DRAM_total_WQ_row_buffer_miss 555640
DRAM_total_WQ_full 130
DRAM_total_dbus_congested 7039202
DRAM_avg_congested_cycle 5.8226

======STLB miss causes ========
Core_0_STLB_miss_cause_breakdown
Core_0_STLB_cause_Demand_Data_miss 0
Core_0_STLB_cause_Demand_Data_miss_rate 0
Core_0_STLB_cause_Demand_Instruction_miss 0
Core_0_STLB_cause_Demand_Instruction_miss_rate 0
Core_0_STLB_cause_L1D_Prefetch_miss 0
Core_0_STLB_cause_L1D_Prefetch_miss_rate 0
Core_0_STLB_cause_L1I_Prefetch_miss 0
Core_0_STLB_cause_L1I_Prefetch_miss_rate 0
Core_0_STLB_cause_Other_miss 0
Core_0_STLB_cause_Other_miss_rate 0
Core_0_STLB_Demand_miss 0
Core_0_STLB_Demand_miss_rate 0
Core_0_STLB_L1D_Prefetch_miss 0
Core_0_STLB_L1D_Prefetch_miss_rate 0
Core_0_STLB_Other_miss 0
Core_0_STLB_Other_miss_rate 0
