[VMEM] WARNING: physical memory size is smaller than virtual memory size.

*** ChampSim Multicore Out-of-Order Simulator ***
Warmup Instructions: 20000000
Simulation Instructions: 50000000
Number of CPUs: 1
Page size: 4096
STLB ideal mode: all
Core 0: /data0/tzh/champsim_traces/SPEC06/433.milc-337B.champsimtrace.xz
 L1D Berti prefetcher
Off-chip DRAM Size: 4 GiB Channels: 1 Width: 64-bit Data Rate: 3205 MT/s
Warmup halting CPU 0 at instruction 20000005 cycle 4000027 for remainder of phase
Warmup finished CPU 0 instructions: 20000005 cycles: 4000027 cumulative IPC: 5 (Simulation time: 00 hr 00 min 50 sec)
Warmup complete CPU 0 instructions: 20000005 cycles: 4000027 cumulative IPC: 5 (Simulation time: 00 hr 00 min 50 sec)
Simulation finished CPU 0 instructions: 50000002 cycles: 38963091 cumulative IPC: 1.283 (Simulation time: 00 hr 05 min 57 sec)
Simulation complete CPU 0 instructions: 50000002 cycles: 38963091 cumulative IPC: 1.283 (Simulation time: 00 hr 05 min 57 sec)

ChampSim completed all CPUs

=== Simulation ===
CPU 0 runs /data0/tzh/champsim_traces/SPEC06/433.milc-337B.champsimtrace.xz

Region of Interest Statistics

CPU 0 cumulative IPC: 1.283 instructions: 50000002 cycles: 38963091
CPU 0 Branch Prediction Accuracy: 81.81% MPKI: 6.441 Average ROB Occupancy at Mispredict: 137.6
Branch type MPKI
BRANCH_DIRECT_JUMP: 4e-05
BRANCH_INDIRECT: 0
BRANCH_CONDITIONAL: 6.441
BRANCH_DIRECT_CALL: 8e-05
BRANCH_INDIRECT_CALL: 0
BRANCH_RETURN: 8e-05

cpu0->cpu0_STLB TOTAL        ACCESS:      79248 HIT:      79248 MISS:          0 MSHR_MERGE:          0
cpu0->cpu0_STLB LOAD         ACCESS:      79248 HIT:      79248 MISS:          0 MSHR_MERGE:          0
cpu0->cpu0_STLB RFO          ACCESS:          0 HIT:          0 MISS:          0 MSHR_MERGE:          0
cpu0->cpu0_STLB PREFETCH     ACCESS:          0 HIT:          0 MISS:          0 MSHR_MERGE:          0
cpu0->cpu0_STLB WRITE        ACCESS:          0 HIT:          0 MISS:          0 MSHR_MERGE:          0
cpu0->cpu0_STLB TRANSLATION  ACCESS:          0 HIT:          0 MISS:          0 MSHR_MERGE:          0
cpu0->cpu0_STLB PREFETCH REQUESTED:          0 ISSUED:          0 USEFUL:          0 USELESS:          0 LATE:          0
cpu0->cpu0_STLB AVERAGE MISS LATENCY: - cycles
cpu0->cpu0_L2C TOTAL        ACCESS:    2913666 HIT:     941820 MISS:    1971846 MSHR_MERGE:     700858
cpu0->cpu0_L2C LOAD         ACCESS:     230328 HIT:      19905 MISS:     210423 MSHR_MERGE:      29428
cpu0->cpu0_L2C RFO          ACCESS:     311857 HIT:         33 MISS:     311824 MSHR_MERGE:          6
cpu0->cpu0_L2C PREFETCH     ACCESS:    2060116 HIT:     618761 MISS:    1441355 MSHR_MERGE:     671424
cpu0->cpu0_L2C WRITE        ACCESS:     311365 HIT:     303121 MISS:       8244 MSHR_MERGE:          0
cpu0->cpu0_L2C TRANSLATION  ACCESS:          0 HIT:          0 MISS:          0 MSHR_MERGE:          0
cpu0->cpu0_L2C PREFETCH REQUESTED:    1661659 ISSUED:    1659733 USEFUL:     194410 USELESS:     365329 LATE:      29434
cpu0->cpu0_L2C AVERAGE MISS LATENCY: 298.6 cycles
cpu0->cpu0_L1I TOTAL        ACCESS:     348299 HIT:     348285 MISS:         14 MSHR_MERGE:          2
cpu0->cpu0_L1I LOAD         ACCESS:     348299 HIT:     348285 MISS:         14 MSHR_MERGE:          2
cpu0->cpu0_L1I RFO          ACCESS:          0 HIT:          0 MISS:          0 MSHR_MERGE:          0
cpu0->cpu0_L1I PREFETCH     ACCESS:          0 HIT:          0 MISS:          0 MSHR_MERGE:          0
cpu0->cpu0_L1I WRITE        ACCESS:          0 HIT:          0 MISS:          0 MSHR_MERGE:          0
cpu0->cpu0_L1I TRANSLATION  ACCESS:          0 HIT:          0 MISS:          0 MSHR_MERGE:          0
cpu0->cpu0_L1I PREFETCH REQUESTED:          0 ISSUED:          0 USEFUL:          0 USELESS:          0 LATE:          0
cpu0->cpu0_L1I AVERAGE MISS LATENCY: 255.9 cycles
cpu0->cpu0_L1D TOTAL        ACCESS:   10040801 HIT:    5825808 MISS:    4214993 MSHR_MERGE:    3272437
cpu0->cpu0_L1D LOAD         ACCESS:    7341909 HIT:    5639587 MISS:    1702322 MSHR_MERGE:    1472006
cpu0->cpu0_L1D RFO          ACCESS:          0 HIT:          0 MISS:          0 MSHR_MERGE:          0
cpu0->cpu0_L1D PREFETCH     ACCESS:     499257 HIT:      10008 MISS:     489249 MSHR_MERGE:      88866
cpu0->cpu0_L1D WRITE        ACCESS:    2199635 HIT:     176213 MISS:    2023422 MSHR_MERGE:    1711565
cpu0->cpu0_L1D TRANSLATION  ACCESS:          0 HIT:          0 MISS:          0 MSHR_MERGE:          0
cpu0->cpu0_L1D PREFETCH REQUESTED:     500745 ISSUED:     499256 USEFUL:     387027 USELESS:      13308 LATE:      67097
cpu0->cpu0_L1D AVERAGE MISS LATENCY: 287.1 cycles
cpu0->cpu0_ITLB TOTAL        ACCESS:     348293 HIT:     348292 MISS:          1 MSHR_MERGE:          0
cpu0->cpu0_ITLB LOAD         ACCESS:     348293 HIT:     348292 MISS:          1 MSHR_MERGE:          0
cpu0->cpu0_ITLB RFO          ACCESS:          0 HIT:          0 MISS:          0 MSHR_MERGE:          0
cpu0->cpu0_ITLB PREFETCH     ACCESS:          0 HIT:          0 MISS:          0 MSHR_MERGE:          0
cpu0->cpu0_ITLB WRITE        ACCESS:          0 HIT:          0 MISS:          0 MSHR_MERGE:          0
cpu0->cpu0_ITLB TRANSLATION  ACCESS:          0 HIT:          0 MISS:          0 MSHR_MERGE:          0
cpu0->cpu0_ITLB PREFETCH REQUESTED:          0 ISSUED:          0 USEFUL:          0 USELESS:          0 LATE:          0
cpu0->cpu0_ITLB AVERAGE MISS LATENCY: 5 cycles
cpu0->cpu0_DTLB TOTAL        ACCESS:    9481673 HIT:    9223986 MISS:     257687 MSHR_MERGE:     178440
cpu0->cpu0_DTLB LOAD         ACCESS:    9481673 HIT:    9223986 MISS:     257687 MSHR_MERGE:     178440
cpu0->cpu0_DTLB RFO          ACCESS:          0 HIT:          0 MISS:          0 MSHR_MERGE:          0
cpu0->cpu0_DTLB PREFETCH     ACCESS:          0 HIT:          0 MISS:          0 MSHR_MERGE:          0
cpu0->cpu0_DTLB WRITE        ACCESS:          0 HIT:          0 MISS:          0 MSHR_MERGE:          0
cpu0->cpu0_DTLB TRANSLATION  ACCESS:          0 HIT:          0 MISS:          0 MSHR_MERGE:          0
cpu0->cpu0_DTLB PREFETCH REQUESTED:          0 ISSUED:          0 USEFUL:          0 USELESS:          0 LATE:          0
cpu0->cpu0_DTLB AVERAGE MISS LATENCY: 5 cycles
cpu0->LLC TOTAL        ACCESS:    1570226 HIT:     263857 MISS:    1306369 MSHR_MERGE:          0
cpu0->LLC LOAD         ACCESS:     180995 HIT:         34 MISS:     180961 MSHR_MERGE:          0
cpu0->LLC RFO          ACCESS:     311818 HIT:        321 MISS:     311497 MSHR_MERGE:          0
cpu0->LLC PREFETCH     ACCESS:     769931 HIT:       1407 MISS:     768524 MSHR_MERGE:          0
cpu0->LLC WRITE        ACCESS:     307482 HIT:     262095 MISS:      45387 MSHR_MERGE:          0
cpu0->LLC TRANSLATION  ACCESS:          0 HIT:          0 MISS:          0 MSHR_MERGE:          0
cpu0->LLC PREFETCH REQUESTED:          0 ISSUED:          0 USEFUL:          0 USELESS:          0 LATE:          0
cpu0->LLC AVERAGE MISS LATENCY: 264.2 cycles

DRAM Statistics

Channel 0 RQ ROW_BUFFER_HIT:     361671
  ROW_BUFFER_MISS:     899301
  AVG DBUS CONGESTED CYCLE: 6.807
Channel 0 WQ ROW_BUFFER_HIT:      34648
  ROW_BUFFER_MISS:     257861
  FULL:          0
Channel 0 REFRESHES ISSUED:       3247

[ROI Statistics]
[System Configuration]
num_cpus 1
cpu_freq 4000
fetch_width 6
decode_width 6
dispatch_width 6
execute_width 6
lq_width 2
sq_width 2
retire_width 6
scheduler_size 160
branch_mispredict_penalty 1
rob_size 352
lq_size 240
sq_size 112
ifetch_buffer_size 64
decode_buffer_size 32
dispatch_buffer_size 32
register_file_size 288
decode_latency 1
dispatch_latency 1
schedule_latency 0
execute_latency 0
page_size 4096
block_size 64
core_0_itlb_set 16
core_0_itlb_way 4
core_0_itlb_rq_size 16
core_0_itlb_wq_size 16
core_0_itlb_pq_size 0
core_0_itlb_mshr_size 8
core_0_itlb_hit_latency 1
core_0_itlb_fill_latency 1
core_0_itlb_max_tag_check 2
core_0_itlb_max_fill 2
core_0_dtlb_set 16
core_0_dtlb_way 4
core_0_dtlb_rq_size 16
core_0_dtlb_wq_size 16
core_0_dtlb_pq_size 0
core_0_dtlb_mshr_size 8
core_0_dtlb_hit_latency 1
core_0_dtlb_fill_latency 1
core_0_dtlb_max_tag_check 2
core_0_dtlb_max_fill 2
core_0_stlb_set 128
core_0_stlb_way 12
core_0_stlb_rq_size 32
core_0_stlb_wq_size 32
core_0_stlb_pq_size 0
core_0_stlb_mshr_size 16
core_0_stlb_hit_latency 4
core_0_stlb_fill_latency 4
core_0_stlb_max_tag_check 1
core_0_stlb_max_fill 1
core_0_l1i_set 64
core_0_l1i_way 8
core_0_l1i_rq_size 64
core_0_l1i_wq_size 64
core_0_l1i_pq_size 32
core_0_l1i_mshr_size 8
core_0_l1i_hit_latency 2
core_0_l1i_fill_latency 2
core_0_l1i_max_tag_check 2
core_0_l1i_max_fill 2
core_0_l1d_set 64
core_0_l1d_way 12
core_0_l1d_rq_size 64
core_0_l1d_wq_size 64
core_0_l1d_pq_size 8
core_0_l1d_mshr_size 16
core_0_l1d_hit_latency 2
core_0_l1d_fill_latency 3
core_0_l1d_max_tag_check 2
core_0_l1d_max_fill 2
core_0_l2c_set 1024
core_0_l2c_way 8
core_0_l2c_rq_size 32
core_0_l2c_wq_size 32
core_0_l2c_pq_size 16
core_0_l2c_mshr_size 32
core_0_l2c_hit_latency 5
core_0_l2c_fill_latency 5
core_0_l2c_max_tag_check 1
core_0_l2c_max_fill 1
llc_set 2048
llc_way 16
llc_rq_size 32
llc_wq_size 32
llc_pq_size 32
llc_mshr_size 64
llc_hit_latency 10
llc_fill_latency 10
llc_max_tag_check 1
llc_max_fill 1
dram_channels 1
dram_ranks 1
dram_bankgroups 8
dram_banks 4
dram_rows 16384
dram_columns 1024
dram_channel_width 8
dram_rq_size 64
dram_wq_size 64
dram_size 4294967296
core_0_itlb_prefetcher no
core_0_dtlb_prefetcher no
core_0_stlb_prefetcher no
core_0_l1i_prefetcher next_line
core_0_l1d_prefetcher berti
core_0_l2c_prefetcher pythia
llc_prefetcher no
llc_replacement drrip

Core_0_instructions 50000002
Core_0_cycles 38963091
Core_0_IPC 1.28327
Core_0_branch_prediction_accuracy 81.8064
Core_0_branch_MPKI 6.44144
Core_0_average_ROB_occupancy_at_mispredict 137.562

Core_0_ITLB_total_access 348293
Core_0_ITLB_total_hit 348292
Core_0_ITLB_total_miss 1
Core_0_ITLB_total_MPKI 2e-05
Core_0_ITLB_total_miss_rate 2.87115e-06
Core_0_ITLB_demand_access 348293
Core_0_ITLB_demand_hit 348292
Core_0_ITLB_demand_miss 1
Core_0_ITLB_demand_MPKI 2e-05
Core_0_ITLB_demand_miss_rate 2.87115e-06
Core_0_ITLB_load_access 348293
Core_0_ITLB_load_hit 348292
Core_0_ITLB_load_miss 1
Core_0_ITLB_load_MPKI 2e-05
Core_0_ITLB_load_miss_rate 2.87115e-06
Core_0_ITLB_rfo_access 0
Core_0_ITLB_rfo_hit 0
Core_0_ITLB_rfo_miss 0
Core_0_ITLB_rfo_MPKI 0
Core_0_ITLB_rfo_miss_rate 0
Core_0_ITLB_prefetch_access 0
Core_0_ITLB_prefetch_hit 0
Core_0_ITLB_prefetch_miss 0
Core_0_ITLB_prefetch_MPKI 0
Core_0_ITLB_prefetch_miss_rate 0
Core_0_ITLB_writeback_access 0
Core_0_ITLB_writeback_hit 0
Core_0_ITLB_writeback_miss 0
Core_0_ITLB_writeback_MPKI 0
Core_0_ITLB_writeback_miss_rate 0
Core_0_ITLB_prefetch_requested 0
Core_0_ITLB_prefetch_issued 0
Core_0_ITLB_prefetch_useful 0
Core_0_ITLB_prefetch_useless 0
Core_0_ITLB_prefetch_late 0
Core_0_ITLB_prefetch_accuracy 0
Core_0_ITLB_prefetch_coverage 0

Core_0_DTLB_total_access 9481673
Core_0_DTLB_total_hit 9223986
Core_0_DTLB_total_miss 257687
Core_0_DTLB_total_MPKI 5.15374
Core_0_DTLB_total_miss_rate 0.0271774
Core_0_DTLB_demand_access 9481673
Core_0_DTLB_demand_hit 9223986
Core_0_DTLB_demand_miss 257687
Core_0_DTLB_demand_MPKI 5.15374
Core_0_DTLB_demand_miss_rate 0.0271774
Core_0_DTLB_load_access 9481673
Core_0_DTLB_load_hit 9223986
Core_0_DTLB_load_miss 257687
Core_0_DTLB_load_MPKI 5.15374
Core_0_DTLB_load_miss_rate 0.0271774
Core_0_DTLB_rfo_access 0
Core_0_DTLB_rfo_hit 0
Core_0_DTLB_rfo_miss 0
Core_0_DTLB_rfo_MPKI 0
Core_0_DTLB_rfo_miss_rate 0
Core_0_DTLB_prefetch_access 0
Core_0_DTLB_prefetch_hit 0
Core_0_DTLB_prefetch_miss 0
Core_0_DTLB_prefetch_MPKI 0
Core_0_DTLB_prefetch_miss_rate 0
Core_0_DTLB_writeback_access 0
Core_0_DTLB_writeback_hit 0
Core_0_DTLB_writeback_miss 0
Core_0_DTLB_writeback_MPKI 0
Core_0_DTLB_writeback_miss_rate 0
Core_0_DTLB_prefetch_requested 0
Core_0_DTLB_prefetch_issued 0
Core_0_DTLB_prefetch_useful 0
Core_0_DTLB_prefetch_useless 0
Core_0_DTLB_prefetch_late 0
Core_0_DTLB_prefetch_accuracy 0
Core_0_DTLB_prefetch_coverage 0

Core_0_STLB_total_access 79248
Core_0_STLB_total_hit 79248
Core_0_STLB_total_miss 0
Core_0_STLB_total_MPKI 0
Core_0_STLB_total_miss_rate 0
Core_0_STLB_demand_access 79248
Core_0_STLB_demand_hit 79248
Core_0_STLB_demand_miss 0
Core_0_STLB_demand_MPKI 0
Core_0_STLB_demand_miss_rate 0
Core_0_STLB_load_access 79248
Core_0_STLB_load_hit 79248
Core_0_STLB_load_miss 0
Core_0_STLB_load_MPKI 0
Core_0_STLB_load_miss_rate 0
Core_0_STLB_rfo_access 0
Core_0_STLB_rfo_hit 0
Core_0_STLB_rfo_miss 0
Core_0_STLB_rfo_MPKI 0
Core_0_STLB_rfo_miss_rate 0
Core_0_STLB_prefetch_access 0
Core_0_STLB_prefetch_hit 0
Core_0_STLB_prefetch_miss 0
Core_0_STLB_prefetch_MPKI 0
Core_0_STLB_prefetch_miss_rate 0
Core_0_STLB_writeback_access 0
Core_0_STLB_writeback_hit 0
Core_0_STLB_writeback_miss 0
Core_0_STLB_writeback_MPKI 0
Core_0_STLB_writeback_miss_rate 0
Core_0_STLB_prefetch_requested 0
Core_0_STLB_prefetch_issued 0
Core_0_STLB_prefetch_useful 0
Core_0_STLB_prefetch_useless 0
Core_0_STLB_prefetch_late 0
Core_0_STLB_prefetch_accuracy 0
Core_0_STLB_prefetch_coverage 0

Core_0_L1I_total_access 348299
Core_0_L1I_total_hit 348285
Core_0_L1I_total_miss 14
Core_0_L1I_total_MPKI 0.00028
Core_0_L1I_total_miss_rate 4.01953e-05
Core_0_L1I_demand_access 348299
Core_0_L1I_demand_hit 348285
Core_0_L1I_demand_miss 14
Core_0_L1I_demand_MPKI 0.00028
Core_0_L1I_demand_miss_rate 4.01953e-05
Core_0_L1I_load_access 348299
Core_0_L1I_load_hit 348285
Core_0_L1I_load_miss 14
Core_0_L1I_load_MPKI 0.00028
Core_0_L1I_load_miss_rate 4.01953e-05
Core_0_L1I_rfo_access 0
Core_0_L1I_rfo_hit 0
Core_0_L1I_rfo_miss 0
Core_0_L1I_rfo_MPKI 0
Core_0_L1I_rfo_miss_rate 0
Core_0_L1I_prefetch_access 0
Core_0_L1I_prefetch_hit 0
Core_0_L1I_prefetch_miss 0
Core_0_L1I_prefetch_MPKI 0
Core_0_L1I_prefetch_miss_rate 0
Core_0_L1I_writeback_access 0
Core_0_L1I_writeback_hit 0
Core_0_L1I_writeback_miss 0
Core_0_L1I_writeback_MPKI 0
Core_0_L1I_writeback_miss_rate 0
Core_0_L1I_prefetch_requested 0
Core_0_L1I_prefetch_issued 0
Core_0_L1I_prefetch_useful 0
Core_0_L1I_prefetch_useless 0
Core_0_L1I_prefetch_late 0
Core_0_L1I_prefetch_accuracy 0
Core_0_L1I_prefetch_coverage 0

Core_0_L1D_total_access 10040801
Core_0_L1D_total_hit 5825808
Core_0_L1D_total_miss 4214993
Core_0_L1D_total_MPKI 84.2999
Core_0_L1D_total_miss_rate 0.419787
Core_0_L1D_demand_access 7341909
Core_0_L1D_demand_hit 5639587
Core_0_L1D_demand_miss 1702322
Core_0_L1D_demand_MPKI 34.0464
Core_0_L1D_demand_miss_rate 0.231864
Core_0_L1D_load_access 7341909
Core_0_L1D_load_hit 5639587
Core_0_L1D_load_miss 1702322
Core_0_L1D_load_MPKI 34.0464
Core_0_L1D_load_miss_rate 0.231864
Core_0_L1D_rfo_access 0
Core_0_L1D_rfo_hit 0
Core_0_L1D_rfo_miss 0
Core_0_L1D_rfo_MPKI 0
Core_0_L1D_rfo_miss_rate 0
Core_0_L1D_prefetch_access 499257
Core_0_L1D_prefetch_hit 10008
Core_0_L1D_prefetch_miss 489249
Core_0_L1D_prefetch_MPKI 9.78498
Core_0_L1D_prefetch_miss_rate 0.979954
Core_0_L1D_writeback_access 2199635
Core_0_L1D_writeback_hit 176213
Core_0_L1D_writeback_miss 2023422
Core_0_L1D_writeback_MPKI 40.4684
Core_0_L1D_writeback_miss_rate 0.91989
Core_0_L1D_prefetch_requested 500745
Core_0_L1D_prefetch_issued 499256
Core_0_L1D_prefetch_useful 387027
Core_0_L1D_prefetch_useless 13308
Core_0_L1D_prefetch_late 67097
Core_0_L1D_prefetch_accuracy 0.775208
Core_0_L1D_prefetch_coverage 0.185238

Core_0_L2C_total_access 2913666
Core_0_L2C_total_hit 941820
Core_0_L2C_total_miss 1971846
Core_0_L2C_total_MPKI 39.4369
Core_0_L2C_total_miss_rate 0.676758
Core_0_L2C_demand_access 542185
Core_0_L2C_demand_hit 19938
Core_0_L2C_demand_miss 522247
Core_0_L2C_demand_MPKI 10.4449
Core_0_L2C_demand_miss_rate 0.963227
Core_0_L2C_load_access 230328
Core_0_L2C_load_hit 19905
Core_0_L2C_load_miss 210423
Core_0_L2C_load_MPKI 4.20846
Core_0_L2C_load_miss_rate 0.91358
Core_0_L2C_rfo_access 311857
Core_0_L2C_rfo_hit 33
Core_0_L2C_rfo_miss 311824
Core_0_L2C_rfo_MPKI 6.23648
Core_0_L2C_rfo_miss_rate 0.999894
Core_0_L2C_prefetch_access 2060116
Core_0_L2C_prefetch_hit 618761
Core_0_L2C_prefetch_miss 1441355
Core_0_L2C_prefetch_MPKI 28.8271
Core_0_L2C_prefetch_miss_rate 0.699647
Core_0_L2C_writeback_access 311365
Core_0_L2C_writeback_hit 303121
Core_0_L2C_writeback_miss 8244
Core_0_L2C_writeback_MPKI 0.16488
Core_0_L2C_writeback_miss_rate 0.026477
Core_0_L2C_prefetch_requested 1661659
Core_0_L2C_prefetch_issued 1659733
Core_0_L2C_prefetch_useful 194410
Core_0_L2C_prefetch_useless 365329
Core_0_L2C_prefetch_late 29434
Core_0_L2C_prefetch_accuracy 0.117133
Core_0_L2C_prefetch_coverage 0.271273

Core_0_LLC_total_access 1570226
Core_0_LLC_total_hit 263857
Core_0_LLC_total_miss 1306369
Core_0_LLC_total_MPKI 26.1274
Core_0_LLC_total_miss_rate 0.831962
Core_0_LLC_demand_access 492813
Core_0_LLC_demand_hit 355
Core_0_LLC_demand_miss 492458
Core_0_LLC_demand_MPKI 9.84916
Core_0_LLC_demand_miss_rate 0.99928
Core_0_LLC_load_access 180995
Core_0_LLC_load_hit 34
Core_0_LLC_load_miss 180961
Core_0_LLC_load_MPKI 3.61922
Core_0_LLC_load_miss_rate 0.999812
Core_0_LLC_rfo_access 311818
Core_0_LLC_rfo_hit 321
Core_0_LLC_rfo_miss 311497
Core_0_LLC_rfo_MPKI 6.22994
Core_0_LLC_rfo_miss_rate 0.998971
Core_0_LLC_prefetch_access 769931
Core_0_LLC_prefetch_hit 1407
Core_0_LLC_prefetch_miss 768524
Core_0_LLC_prefetch_MPKI 15.3705
Core_0_LLC_prefetch_miss_rate 0.998173
Core_0_LLC_writeback_access 307482
Core_0_LLC_writeback_hit 262095
Core_0_LLC_writeback_miss 45387
Core_0_LLC_writeback_MPKI 0.90774
Core_0_LLC_writeback_miss_rate 0.147609
Core_0_LLC_prefetch_requested 0
Core_0_LLC_prefetch_issued 0
Core_0_LLC_prefetch_useful 0
Core_0_LLC_prefetch_useless 0
Core_0_LLC_prefetch_late 0
Core_0_LLC_prefetch_accuracy 0
Core_0_LLC_prefetch_coverage 0

[DRAM Statistics]
Channel_0_RQ_row_buffer_hit 361671
Channel_0_RQ_row_buffer_miss 899301
Channel_0_WQ_row_buffer_hit 34648
Channel_0_WQ_row_buffer_miss 257861
Channel_0_WQ_full 0
Channel_0_dbus_congested 3968291
DRAM_total_RQ_row_buffer_hit 361671
DRAM_total_RQ_row_buffer_miss 899301
DRAM_total_WQ_row_buffer_hit 34648
DRAM_total_WQ_row_buffer_miss 257861
DRAM_total_WQ_full 0
DRAM_total_dbus_congested 3968291
DRAM_avg_congested_cycle 6.80692

======STLB miss causes ========
Core_0_STLB_miss_cause_breakdown
Core_0_STLB_cause_Demand_Data_miss 0
Core_0_STLB_cause_Demand_Data_miss_rate 0
Core_0_STLB_cause_Demand_Instruction_miss 0
Core_0_STLB_cause_Demand_Instruction_miss_rate 0
Core_0_STLB_cause_L1D_Prefetch_miss 0
Core_0_STLB_cause_L1D_Prefetch_miss_rate 0
Core_0_STLB_cause_L1I_Prefetch_miss 0
Core_0_STLB_cause_L1I_Prefetch_miss_rate 0
Core_0_STLB_cause_Other_miss 0
Core_0_STLB_cause_Other_miss_rate 0
Core_0_STLB_Demand_miss 0
Core_0_STLB_Demand_miss_rate 0
Core_0_STLB_L1D_Prefetch_miss 0
Core_0_STLB_L1D_Prefetch_miss_rate 0
Core_0_STLB_Other_miss 0
Core_0_STLB_Other_miss_rate 0
