[VMEM] WARNING: physical memory size is smaller than virtual memory size.

*** ChampSim Multicore Out-of-Order Simulator ***
Warmup Instructions: 20000000
Simulation Instructions: 50000000
Number of CPUs: 1
Page size: 4096
STLB ideal mode: all
Core 0: /data0/tzh/champsim_traces/SPEC06/454.calculix-460B.champsimtrace.xz
 L1D Berti prefetcher
Off-chip DRAM Size: 4 GiB Channels: 1 Width: 64-bit Data Rate: 3205 MT/s
Warmup halting CPU 0 at instruction 20000005 cycle 4005285 for remainder of phase
Warmup finished CPU 0 instructions: 20000005 cycles: 4005285 cumulative IPC: 4.993 (Simulation time: 00 hr 00 min 48 sec)
Warmup complete CPU 0 instructions: 20000005 cycles: 4005285 cumulative IPC: 4.993 (Simulation time: 00 hr 00 min 48 sec)
Simulation finished CPU 0 instructions: 50000002 cycles: 11873464 cumulative IPC: 4.211 (Simulation time: 00 hr 03 min 17 sec)
Simulation complete CPU 0 instructions: 50000002 cycles: 11873464 cumulative IPC: 4.211 (Simulation time: 00 hr 03 min 17 sec)

ChampSim completed all CPUs

=== Simulation ===
CPU 0 runs /data0/tzh/champsim_traces/SPEC06/454.calculix-460B.champsimtrace.xz

Region of Interest Statistics

CPU 0 cumulative IPC: 4.211 instructions: 50000002 cycles: 11873464
CPU 0 Branch Prediction Accuracy: 98.79% MPKI: 0.7022 Average ROB Occupancy at Mispredict: 112.3
Branch type MPKI
BRANCH_DIRECT_JUMP: 0.00096
BRANCH_INDIRECT: 0
BRANCH_CONDITIONAL: 0.6996
BRANCH_DIRECT_CALL: 0.00084
BRANCH_INDIRECT_CALL: 0
BRANCH_RETURN: 0.0008

cpu0->cpu0_STLB TOTAL        ACCESS:       7949 HIT:       7949 MISS:          0 MSHR_MERGE:          0
cpu0->cpu0_STLB LOAD         ACCESS:       7949 HIT:       7949 MISS:          0 MSHR_MERGE:          0
cpu0->cpu0_STLB RFO          ACCESS:          0 HIT:          0 MISS:          0 MSHR_MERGE:          0
cpu0->cpu0_STLB PREFETCH     ACCESS:          0 HIT:          0 MISS:          0 MSHR_MERGE:          0
cpu0->cpu0_STLB WRITE        ACCESS:          0 HIT:          0 MISS:          0 MSHR_MERGE:          0
cpu0->cpu0_STLB TRANSLATION  ACCESS:          0 HIT:          0 MISS:          0 MSHR_MERGE:          0
cpu0->cpu0_STLB PREFETCH REQUESTED:          0 ISSUED:          0 USEFUL:          0 USELESS:          0 LATE:          0
cpu0->cpu0_STLB AVERAGE MISS LATENCY: - cycles
cpu0->cpu0_L2C TOTAL        ACCESS:    3992163 HIT:    3584188 MISS:     407975 MSHR_MERGE:     196270
cpu0->cpu0_L2C LOAD         ACCESS:     109456 HIT:      92248 MISS:      17208 MSHR_MERGE:       6012
cpu0->cpu0_L2C RFO          ACCESS:       1170 HIT:       1009 MISS:        161 MSHR_MERGE:          0
cpu0->cpu0_L2C PREFETCH     ACCESS:    3709273 HIT:    3320331 MISS:     388942 MSHR_MERGE:     190258
cpu0->cpu0_L2C WRITE        ACCESS:     172264 HIT:     170600 MISS:       1664 MSHR_MERGE:          0
cpu0->cpu0_L2C TRANSLATION  ACCESS:          0 HIT:          0 MISS:          0 MSHR_MERGE:          0
cpu0->cpu0_L2C PREFETCH REQUESTED:    3331253 ISSUED:    3182080 USEFUL:     168126 USELESS:      15171 LATE:       6012
cpu0->cpu0_L2C AVERAGE MISS LATENCY: 85.36 cycles
cpu0->cpu0_L1I TOTAL        ACCESS:    4765312 HIT:    4765160 MISS:        152 MSHR_MERGE:         11
cpu0->cpu0_L1I LOAD         ACCESS:    4765312 HIT:    4765160 MISS:        152 MSHR_MERGE:         11
cpu0->cpu0_L1I RFO          ACCESS:          0 HIT:          0 MISS:          0 MSHR_MERGE:          0
cpu0->cpu0_L1I PREFETCH     ACCESS:          0 HIT:          0 MISS:          0 MSHR_MERGE:          0
cpu0->cpu0_L1I WRITE        ACCESS:          0 HIT:          0 MISS:          0 MSHR_MERGE:          0
cpu0->cpu0_L1I TRANSLATION  ACCESS:          0 HIT:          0 MISS:          0 MSHR_MERGE:          0
cpu0->cpu0_L1I PREFETCH REQUESTED:          0 ISSUED:          0 USEFUL:          0 USELESS:          0 LATE:          0
cpu0->cpu0_L1I AVERAGE MISS LATENCY: 212.3 cycles
cpu0->cpu0_L1D TOTAL        ACCESS:    9976103 HIT:    9204346 MISS:     771757 MSHR_MERGE:     134068
cpu0->cpu0_L1D LOAD         ACCESS:    7644378 HIT:    7420033 MISS:     224345 MSHR_MERGE:     115030
cpu0->cpu0_L1D RFO          ACCESS:          0 HIT:          0 MISS:          0 MSHR_MERGE:          0
cpu0->cpu0_L1D PREFETCH     ACCESS:     581848 HIT:      37963 MISS:     543885 MSHR_MERGE:      16688
cpu0->cpu0_L1D WRITE        ACCESS:    1749877 HIT:    1746350 MISS:       3527 MSHR_MERGE:       2350
cpu0->cpu0_L1D TRANSLATION  ACCESS:          0 HIT:          0 MISS:          0 MSHR_MERGE:          0
cpu0->cpu0_L1D PREFETCH REQUESTED:     588263 ISSUED:     581842 USEFUL:     515871 USELESS:      11321 LATE:      16908
cpu0->cpu0_L1D AVERAGE MISS LATENCY: 24.15 cycles
cpu0->cpu0_ITLB TOTAL        ACCESS:    3889729 HIT:    3889710 MISS:         19 MSHR_MERGE:          5
cpu0->cpu0_ITLB LOAD         ACCESS:    3889729 HIT:    3889710 MISS:         19 MSHR_MERGE:          5
cpu0->cpu0_ITLB RFO          ACCESS:          0 HIT:          0 MISS:          0 MSHR_MERGE:          0
cpu0->cpu0_ITLB PREFETCH     ACCESS:          0 HIT:          0 MISS:          0 MSHR_MERGE:          0
cpu0->cpu0_ITLB WRITE        ACCESS:          0 HIT:          0 MISS:          0 MSHR_MERGE:          0
cpu0->cpu0_ITLB TRANSLATION  ACCESS:          0 HIT:          0 MISS:          0 MSHR_MERGE:          0
cpu0->cpu0_ITLB PREFETCH REQUESTED:          0 ISSUED:          0 USEFUL:          0 USELESS:          0 LATE:          0
cpu0->cpu0_ITLB AVERAGE MISS LATENCY: 5 cycles
cpu0->cpu0_DTLB TOTAL        ACCESS:    9095556 HIT:    9083859 MISS:      11697 MSHR_MERGE:       3762
cpu0->cpu0_DTLB LOAD         ACCESS:    9095556 HIT:    9083859 MISS:      11697 MSHR_MERGE:       3762
cpu0->cpu0_DTLB RFO          ACCESS:          0 HIT:          0 MISS:          0 MSHR_MERGE:          0
cpu0->cpu0_DTLB PREFETCH     ACCESS:          0 HIT:          0 MISS:          0 MSHR_MERGE:          0
cpu0->cpu0_DTLB WRITE        ACCESS:          0 HIT:          0 MISS:          0 MSHR_MERGE:          0
cpu0->cpu0_DTLB TRANSLATION  ACCESS:          0 HIT:          0 MISS:          0 MSHR_MERGE:          0
cpu0->cpu0_DTLB PREFETCH REQUESTED:          0 ISSUED:          0 USEFUL:          0 USELESS:          0 LATE:          0
cpu0->cpu0_DTLB AVERAGE MISS LATENCY: 5.002 cycles
cpu0->LLC TOTAL        ACCESS:     322457 HIT:     270137 MISS:      52320 MSHR_MERGE:          0
cpu0->LLC LOAD         ACCESS:      11196 HIT:       6747 MISS:       4449 MSHR_MERGE:          0
cpu0->LLC RFO          ACCESS:        161 HIT:        155 MISS:          6 MSHR_MERGE:          0
cpu0->LLC PREFETCH     ACCESS:     198684 HIT:     151017 MISS:      47667 MSHR_MERGE:          0
cpu0->LLC WRITE        ACCESS:     112416 HIT:     112218 MISS:        198 MSHR_MERGE:          0
cpu0->LLC TRANSLATION  ACCESS:          0 HIT:          0 MISS:          0 MSHR_MERGE:          0
cpu0->LLC PREFETCH REQUESTED:          0 ISSUED:          0 USEFUL:          0 USELESS:          0 LATE:          0
cpu0->LLC AVERAGE MISS LATENCY: 180.1 cycles

DRAM Statistics

Channel 0 RQ ROW_BUFFER_HIT:      11172
  ROW_BUFFER_MISS:      40924
  AVG DBUS CONGESTED CYCLE: 8.226
Channel 0 WQ ROW_BUFFER_HIT:        905
  ROW_BUFFER_MISS:       3567
  FULL:          0
Channel 0 REFRESHES ISSUED:        990

[ROI Statistics]
[System Configuration]
num_cpus 1
cpu_freq 4000
fetch_width 6
decode_width 6
dispatch_width 6
execute_width 6
lq_width 2
sq_width 2
retire_width 6
scheduler_size 160
branch_mispredict_penalty 1
rob_size 352
lq_size 240
sq_size 112
ifetch_buffer_size 64
decode_buffer_size 32
dispatch_buffer_size 32
register_file_size 288
decode_latency 1
dispatch_latency 1
schedule_latency 0
execute_latency 0
page_size 4096
block_size 64
core_0_itlb_set 16
core_0_itlb_way 4
core_0_itlb_rq_size 16
core_0_itlb_wq_size 16
core_0_itlb_pq_size 0
core_0_itlb_mshr_size 8
core_0_itlb_hit_latency 1
core_0_itlb_fill_latency 1
core_0_itlb_max_tag_check 2
core_0_itlb_max_fill 2
core_0_dtlb_set 16
core_0_dtlb_way 4
core_0_dtlb_rq_size 16
core_0_dtlb_wq_size 16
core_0_dtlb_pq_size 0
core_0_dtlb_mshr_size 8
core_0_dtlb_hit_latency 1
core_0_dtlb_fill_latency 1
core_0_dtlb_max_tag_check 2
core_0_dtlb_max_fill 2
core_0_stlb_set 128
core_0_stlb_way 12
core_0_stlb_rq_size 32
core_0_stlb_wq_size 32
core_0_stlb_pq_size 0
core_0_stlb_mshr_size 16
core_0_stlb_hit_latency 4
core_0_stlb_fill_latency 4
core_0_stlb_max_tag_check 1
core_0_stlb_max_fill 1
core_0_l1i_set 64
core_0_l1i_way 8
core_0_l1i_rq_size 64
core_0_l1i_wq_size 64
core_0_l1i_pq_size 32
core_0_l1i_mshr_size 8
core_0_l1i_hit_latency 2
core_0_l1i_fill_latency 2
core_0_l1i_max_tag_check 2
core_0_l1i_max_fill 2
core_0_l1d_set 64
core_0_l1d_way 12
core_0_l1d_rq_size 64
core_0_l1d_wq_size 64
core_0_l1d_pq_size 8
core_0_l1d_mshr_size 16
core_0_l1d_hit_latency 2
core_0_l1d_fill_latency 3
core_0_l1d_max_tag_check 2
core_0_l1d_max_fill 2
core_0_l2c_set 1024
core_0_l2c_way 8
core_0_l2c_rq_size 32
core_0_l2c_wq_size 32
core_0_l2c_pq_size 16
core_0_l2c_mshr_size 32
core_0_l2c_hit_latency 5
core_0_l2c_fill_latency 5
core_0_l2c_max_tag_check 1
core_0_l2c_max_fill 1
llc_set 2048
llc_way 16
llc_rq_size 32
llc_wq_size 32
llc_pq_size 32
llc_mshr_size 64
llc_hit_latency 10
llc_fill_latency 10
llc_max_tag_check 1
llc_max_fill 1
dram_channels 1
dram_ranks 1
dram_bankgroups 8
dram_banks 4
dram_rows 16384
dram_columns 1024
dram_channel_width 8
dram_rq_size 64
dram_wq_size 64
dram_size 4294967296
core_0_itlb_prefetcher no
core_0_dtlb_prefetcher no
core_0_stlb_prefetcher no
core_0_l1i_prefetcher next_line
core_0_l1d_prefetcher berti
core_0_l2c_prefetcher pythia
llc_prefetcher no
llc_replacement drrip

Core_0_instructions 50000002
Core_0_cycles 11873464
Core_0_IPC 4.21107
Core_0_branch_prediction_accuracy 98.7872
Core_0_branch_MPKI 0.70216
Core_0_average_ROB_occupancy_at_mispredict 112.338

Core_0_ITLB_total_access 3889729
Core_0_ITLB_total_hit 3889710
Core_0_ITLB_total_miss 19
Core_0_ITLB_total_MPKI 0.00038
Core_0_ITLB_total_miss_rate 4.88466e-06
Core_0_ITLB_demand_access 3889729
Core_0_ITLB_demand_hit 3889710
Core_0_ITLB_demand_miss 19
Core_0_ITLB_demand_MPKI 0.00038
Core_0_ITLB_demand_miss_rate 4.88466e-06
Core_0_ITLB_load_access 3889729
Core_0_ITLB_load_hit 3889710
Core_0_ITLB_load_miss 19
Core_0_ITLB_load_MPKI 0.00038
Core_0_ITLB_load_miss_rate 4.88466e-06
Core_0_ITLB_rfo_access 0
Core_0_ITLB_rfo_hit 0
Core_0_ITLB_rfo_miss 0
Core_0_ITLB_rfo_MPKI 0
Core_0_ITLB_rfo_miss_rate 0
Core_0_ITLB_prefetch_access 0
Core_0_ITLB_prefetch_hit 0
Core_0_ITLB_prefetch_miss 0
Core_0_ITLB_prefetch_MPKI 0
Core_0_ITLB_prefetch_miss_rate 0
Core_0_ITLB_writeback_access 0
Core_0_ITLB_writeback_hit 0
Core_0_ITLB_writeback_miss 0
Core_0_ITLB_writeback_MPKI 0
Core_0_ITLB_writeback_miss_rate 0
Core_0_ITLB_prefetch_requested 0
Core_0_ITLB_prefetch_issued 0
Core_0_ITLB_prefetch_useful 0
Core_0_ITLB_prefetch_useless 0
Core_0_ITLB_prefetch_late 0
Core_0_ITLB_prefetch_accuracy 0
Core_0_ITLB_prefetch_coverage 0

Core_0_DTLB_total_access 9095556
Core_0_DTLB_total_hit 9083859
Core_0_DTLB_total_miss 11697
Core_0_DTLB_total_MPKI 0.23394
Core_0_DTLB_total_miss_rate 0.00128601
Core_0_DTLB_demand_access 9095556
Core_0_DTLB_demand_hit 9083859
Core_0_DTLB_demand_miss 11697
Core_0_DTLB_demand_MPKI 0.23394
Core_0_DTLB_demand_miss_rate 0.00128601
Core_0_DTLB_load_access 9095556
Core_0_DTLB_load_hit 9083859
Core_0_DTLB_load_miss 11697
Core_0_DTLB_load_MPKI 0.23394
Core_0_DTLB_load_miss_rate 0.00128601
Core_0_DTLB_rfo_access 0
Core_0_DTLB_rfo_hit 0
Core_0_DTLB_rfo_miss 0
Core_0_DTLB_rfo_MPKI 0
Core_0_DTLB_rfo_miss_rate 0
Core_0_DTLB_prefetch_access 0
Core_0_DTLB_prefetch_hit 0
Core_0_DTLB_prefetch_miss 0
Core_0_DTLB_prefetch_MPKI 0
Core_0_DTLB_prefetch_miss_rate 0
Core_0_DTLB_writeback_access 0
Core_0_DTLB_writeback_hit 0
Core_0_DTLB_writeback_miss 0
Core_0_DTLB_writeback_MPKI 0
Core_0_DTLB_writeback_miss_rate 0
Core_0_DTLB_prefetch_requested 0
Core_0_DTLB_prefetch_issued 0
Core_0_DTLB_prefetch_useful 0
Core_0_DTLB_prefetch_useless 0
Core_0_DTLB_prefetch_late 0
Core_0_DTLB_prefetch_accuracy 0
Core_0_DTLB_prefetch_coverage 0

Core_0_STLB_total_access 7949
Core_0_STLB_total_hit 7949
Core_0_STLB_total_miss 0
Core_0_STLB_total_MPKI 0
Core_0_STLB_total_miss_rate 0
Core_0_STLB_demand_access 7949
Core_0_STLB_demand_hit 7949
Core_0_STLB_demand_miss 0
Core_0_STLB_demand_MPKI 0
Core_0_STLB_demand_miss_rate 0
Core_0_STLB_load_access 7949
Core_0_STLB_load_hit 7949
Core_0_STLB_load_miss 0
Core_0_STLB_load_MPKI 0
Core_0_STLB_load_miss_rate 0
Core_0_STLB_rfo_access 0
Core_0_STLB_rfo_hit 0
Core_0_STLB_rfo_miss 0
Core_0_STLB_rfo_MPKI 0
Core_0_STLB_rfo_miss_rate 0
Core_0_STLB_prefetch_access 0
Core_0_STLB_prefetch_hit 0
Core_0_STLB_prefetch_miss 0
Core_0_STLB_prefetch_MPKI 0
Core_0_STLB_prefetch_miss_rate 0
Core_0_STLB_writeback_access 0
Core_0_STLB_writeback_hit 0
Core_0_STLB_writeback_miss 0
Core_0_STLB_writeback_MPKI 0
Core_0_STLB_writeback_miss_rate 0
Core_0_STLB_prefetch_requested 0
Core_0_STLB_prefetch_issued 0
Core_0_STLB_prefetch_useful 0
Core_0_STLB_prefetch_useless 0
Core_0_STLB_prefetch_late 0
Core_0_STLB_prefetch_accuracy 0
Core_0_STLB_prefetch_coverage 0

Core_0_L1I_total_access 4765312
Core_0_L1I_total_hit 4765160
Core_0_L1I_total_miss 152
Core_0_L1I_total_MPKI 0.00304
Core_0_L1I_total_miss_rate 3.18972e-05
Core_0_L1I_demand_access 4765312
Core_0_L1I_demand_hit 4765160
Core_0_L1I_demand_miss 152
Core_0_L1I_demand_MPKI 0.00304
Core_0_L1I_demand_miss_rate 3.18972e-05
Core_0_L1I_load_access 4765312
Core_0_L1I_load_hit 4765160
Core_0_L1I_load_miss 152
Core_0_L1I_load_MPKI 0.00304
Core_0_L1I_load_miss_rate 3.18972e-05
Core_0_L1I_rfo_access 0
Core_0_L1I_rfo_hit 0
Core_0_L1I_rfo_miss 0
Core_0_L1I_rfo_MPKI 0
Core_0_L1I_rfo_miss_rate 0
Core_0_L1I_prefetch_access 0
Core_0_L1I_prefetch_hit 0
Core_0_L1I_prefetch_miss 0
Core_0_L1I_prefetch_MPKI 0
Core_0_L1I_prefetch_miss_rate 0
Core_0_L1I_writeback_access 0
Core_0_L1I_writeback_hit 0
Core_0_L1I_writeback_miss 0
Core_0_L1I_writeback_MPKI 0
Core_0_L1I_writeback_miss_rate 0
Core_0_L1I_prefetch_requested 0
Core_0_L1I_prefetch_issued 0
Core_0_L1I_prefetch_useful 0
Core_0_L1I_prefetch_useless 0
Core_0_L1I_prefetch_late 0
Core_0_L1I_prefetch_accuracy 0
Core_0_L1I_prefetch_coverage 0

Core_0_L1D_total_access 9976103
Core_0_L1D_total_hit 9204346
Core_0_L1D_total_miss 771757
Core_0_L1D_total_MPKI 15.4351
Core_0_L1D_total_miss_rate 0.0773606
Core_0_L1D_demand_access 7644378
Core_0_L1D_demand_hit 7420033
Core_0_L1D_demand_miss 224345
Core_0_L1D_demand_MPKI 4.4869
Core_0_L1D_demand_miss_rate 0.0293477
Core_0_L1D_load_access 7644378
Core_0_L1D_load_hit 7420033
Core_0_L1D_load_miss 224345
Core_0_L1D_load_MPKI 4.4869
Core_0_L1D_load_miss_rate 0.0293477
Core_0_L1D_rfo_access 0
Core_0_L1D_rfo_hit 0
Core_0_L1D_rfo_miss 0
Core_0_L1D_rfo_MPKI 0
Core_0_L1D_rfo_miss_rate 0
Core_0_L1D_prefetch_access 581848
Core_0_L1D_prefetch_hit 37963
Core_0_L1D_prefetch_miss 543885
Core_0_L1D_prefetch_MPKI 10.8777
Core_0_L1D_prefetch_miss_rate 0.934754
Core_0_L1D_writeback_access 1749877
Core_0_L1D_writeback_hit 1746350
Core_0_L1D_writeback_miss 3527
Core_0_L1D_writeback_MPKI 0.07054
Core_0_L1D_writeback_miss_rate 0.00201557
Core_0_L1D_prefetch_requested 588263
Core_0_L1D_prefetch_issued 581842
Core_0_L1D_prefetch_useful 515871
Core_0_L1D_prefetch_useless 11321
Core_0_L1D_prefetch_late 16908
Core_0_L1D_prefetch_accuracy 0.886617
Core_0_L1D_prefetch_coverage 0.69692

Core_0_L2C_total_access 3992163
Core_0_L2C_total_hit 3584188
Core_0_L2C_total_miss 407975
Core_0_L2C_total_MPKI 8.1595
Core_0_L2C_total_miss_rate 0.102194
Core_0_L2C_demand_access 110626
Core_0_L2C_demand_hit 93257
Core_0_L2C_demand_miss 17369
Core_0_L2C_demand_MPKI 0.34738
Core_0_L2C_demand_miss_rate 0.157006
Core_0_L2C_load_access 109456
Core_0_L2C_load_hit 92248
Core_0_L2C_load_miss 17208
Core_0_L2C_load_MPKI 0.34416
Core_0_L2C_load_miss_rate 0.157214
Core_0_L2C_rfo_access 1170
Core_0_L2C_rfo_hit 1009
Core_0_L2C_rfo_miss 161
Core_0_L2C_rfo_MPKI 0.00322
Core_0_L2C_rfo_miss_rate 0.137607
Core_0_L2C_prefetch_access 3709273
Core_0_L2C_prefetch_hit 3320331
Core_0_L2C_prefetch_miss 388942
Core_0_L2C_prefetch_MPKI 7.77884
Core_0_L2C_prefetch_miss_rate 0.104857
Core_0_L2C_writeback_access 172264
Core_0_L2C_writeback_hit 170600
Core_0_L2C_writeback_miss 1664
Core_0_L2C_writeback_MPKI 0.03328
Core_0_L2C_writeback_miss_rate 0.00965959
Core_0_L2C_prefetch_requested 3331253
Core_0_L2C_prefetch_issued 3182080
Core_0_L2C_prefetch_useful 168126
Core_0_L2C_prefetch_useless 15171
Core_0_L2C_prefetch_late 6012
Core_0_L2C_prefetch_accuracy 0.0528353
Core_0_L2C_prefetch_coverage 0.906364

Core_0_LLC_total_access 322457
Core_0_LLC_total_hit 270137
Core_0_LLC_total_miss 52320
Core_0_LLC_total_MPKI 1.0464
Core_0_LLC_total_miss_rate 0.162254
Core_0_LLC_demand_access 11357
Core_0_LLC_demand_hit 6902
Core_0_LLC_demand_miss 4455
Core_0_LLC_demand_MPKI 0.0891
Core_0_LLC_demand_miss_rate 0.392269
Core_0_LLC_load_access 11196
Core_0_LLC_load_hit 6747
Core_0_LLC_load_miss 4449
Core_0_LLC_load_MPKI 0.08898
Core_0_LLC_load_miss_rate 0.397374
Core_0_LLC_rfo_access 161
Core_0_LLC_rfo_hit 155
Core_0_LLC_rfo_miss 6
Core_0_LLC_rfo_MPKI 0.00012
Core_0_LLC_rfo_miss_rate 0.0372671
Core_0_LLC_prefetch_access 198684
Core_0_LLC_prefetch_hit 151017
Core_0_LLC_prefetch_miss 47667
Core_0_LLC_prefetch_MPKI 0.95334
Core_0_LLC_prefetch_miss_rate 0.239914
Core_0_LLC_writeback_access 112416
Core_0_LLC_writeback_hit 112218
Core_0_LLC_writeback_miss 198
Core_0_LLC_writeback_MPKI 0.00396
Core_0_LLC_writeback_miss_rate 0.00176132
Core_0_LLC_prefetch_requested 0
Core_0_LLC_prefetch_issued 0
Core_0_LLC_prefetch_useful 0
Core_0_LLC_prefetch_useless 0
Core_0_LLC_prefetch_late 0
Core_0_LLC_prefetch_accuracy 0
Core_0_LLC_prefetch_coverage 0

[DRAM Statistics]
Channel_0_RQ_row_buffer_hit 11172
Channel_0_RQ_row_buffer_miss 40924
Channel_0_WQ_row_buffer_hit 905
Channel_0_WQ_row_buffer_miss 3567
Channel_0_WQ_full 0
Channel_0_dbus_congested 132623
DRAM_total_RQ_row_buffer_hit 11172
DRAM_total_RQ_row_buffer_miss 40924
DRAM_total_WQ_row_buffer_hit 905
DRAM_total_WQ_row_buffer_miss 3567
DRAM_total_WQ_full 0
DRAM_total_dbus_congested 132623
DRAM_avg_congested_cycle 8.22627

======STLB miss causes ========
Core_0_STLB_miss_cause_breakdown
Core_0_STLB_cause_Demand_Data_miss 0
Core_0_STLB_cause_Demand_Data_miss_rate 0
Core_0_STLB_cause_Demand_Instruction_miss 0
Core_0_STLB_cause_Demand_Instruction_miss_rate 0
Core_0_STLB_cause_L1D_Prefetch_miss 0
Core_0_STLB_cause_L1D_Prefetch_miss_rate 0
Core_0_STLB_cause_L1I_Prefetch_miss 0
Core_0_STLB_cause_L1I_Prefetch_miss_rate 0
Core_0_STLB_cause_Other_miss 0
Core_0_STLB_cause_Other_miss_rate 0
Core_0_STLB_Demand_miss 0
Core_0_STLB_Demand_miss_rate 0
Core_0_STLB_L1D_Prefetch_miss 0
Core_0_STLB_L1D_Prefetch_miss_rate 0
Core_0_STLB_Other_miss 0
Core_0_STLB_Other_miss_rate 0
