[VMEM] WARNING: physical memory size is smaller than virtual memory size.

*** ChampSim Multicore Out-of-Order Simulator ***
Warmup Instructions: 20000000
Simulation Instructions: 50000000
Number of CPUs: 1
Page size: 4096
STLB ideal mode: all
Core 0: /data0/tzh/champsim_traces/SPEC06/456.hmmer-88B.champsimtrace.xz
 L1D Berti prefetcher
Off-chip DRAM Size: 4 GiB Channels: 1 Width: 64-bit Data Rate: 3205 MT/s
Warmup halting CPU 0 at instruction 20000003 cycle 4518379 for remainder of phase
Warmup finished CPU 0 instructions: 20000003 cycles: 4518379 cumulative IPC: 4.426 (Simulation time: 00 hr 01 min 04 sec)
Warmup complete CPU 0 instructions: 20000003 cycles: 4518379 cumulative IPC: 4.426 (Simulation time: 00 hr 01 min 04 sec)
Simulation finished CPU 0 instructions: 50000001 cycles: 15566382 cumulative IPC: 3.212 (Simulation time: 00 hr 05 min 02 sec)
Simulation complete CPU 0 instructions: 50000001 cycles: 15566382 cumulative IPC: 3.212 (Simulation time: 00 hr 05 min 02 sec)

ChampSim completed all CPUs

=== Simulation ===
CPU 0 runs /data0/tzh/champsim_traces/SPEC06/456.hmmer-88B.champsimtrace.xz

Region of Interest Statistics

CPU 0 cumulative IPC: 3.212 instructions: 50000001 cycles: 15566382
CPU 0 Branch Prediction Accuracy: 99.58% MPKI: 0.1828 Average ROB Occupancy at Mispredict: 150.2
Branch type MPKI
BRANCH_DIRECT_JUMP: 0.00018
BRANCH_INDIRECT: 0.00028
BRANCH_CONDITIONAL: 0.1822
BRANCH_DIRECT_CALL: 0
BRANCH_INDIRECT_CALL: 0.0001
BRANCH_RETURN: 6e-05

cpu0->cpu0_STLB TOTAL        ACCESS:       3482 HIT:       3482 MISS:          0 MSHR_MERGE:          0
cpu0->cpu0_STLB LOAD         ACCESS:       3482 HIT:       3482 MISS:          0 MSHR_MERGE:          0
cpu0->cpu0_STLB RFO          ACCESS:          0 HIT:          0 MISS:          0 MSHR_MERGE:          0
cpu0->cpu0_STLB PREFETCH     ACCESS:          0 HIT:          0 MISS:          0 MSHR_MERGE:          0
cpu0->cpu0_STLB WRITE        ACCESS:          0 HIT:          0 MISS:          0 MSHR_MERGE:          0
cpu0->cpu0_STLB TRANSLATION  ACCESS:          0 HIT:          0 MISS:          0 MSHR_MERGE:          0
cpu0->cpu0_STLB PREFETCH REQUESTED:          0 ISSUED:          0 USEFUL:          0 USELESS:          0 LATE:          0
cpu0->cpu0_STLB AVERAGE MISS LATENCY: - cycles
cpu0->cpu0_L2C TOTAL        ACCESS:     834947 HIT:     656429 MISS:     178518 MSHR_MERGE:      38526
cpu0->cpu0_L2C LOAD         ACCESS:      12796 HIT:      11748 MISS:       1048 MSHR_MERGE:         43
cpu0->cpu0_L2C RFO          ACCESS:     118152 HIT:       3635 MISS:     114517 MSHR_MERGE:          6
cpu0->cpu0_L2C PREFETCH     ACCESS:     570680 HIT:     507736 MISS:      62944 MSHR_MERGE:      38477
cpu0->cpu0_L2C WRITE        ACCESS:     133319 HIT:     133310 MISS:          9 MSHR_MERGE:          0
cpu0->cpu0_L2C TRANSLATION  ACCESS:          0 HIT:          0 MISS:          0 MSHR_MERGE:          0
cpu0->cpu0_L2C PREFETCH REQUESTED:     486439 ISSUED:     483572 USEFUL:      20029 USELESS:       1257 LATE:         49
cpu0->cpu0_L2C AVERAGE MISS LATENCY: 212.6 cycles
cpu0->cpu0_L1I TOTAL        ACCESS:    7062959 HIT:    7062931 MISS:         28 MSHR_MERGE:          5
cpu0->cpu0_L1I LOAD         ACCESS:    7062959 HIT:    7062931 MISS:         28 MSHR_MERGE:          5
cpu0->cpu0_L1I RFO          ACCESS:          0 HIT:          0 MISS:          0 MSHR_MERGE:          0
cpu0->cpu0_L1I PREFETCH     ACCESS:          0 HIT:          0 MISS:          0 MSHR_MERGE:          0
cpu0->cpu0_L1I WRITE        ACCESS:          0 HIT:          0 MISS:          0 MSHR_MERGE:          0
cpu0->cpu0_L1I TRANSLATION  ACCESS:          0 HIT:          0 MISS:          0 MSHR_MERGE:          0
cpu0->cpu0_L1I PREFETCH REQUESTED:          0 ISSUED:          0 USEFUL:          0 USELESS:          0 LATE:          0
cpu0->cpu0_L1I AVERAGE MISS LATENCY: 329 cycles
cpu0->cpu0_L1D TOTAL        ACCESS:   14947985 HIT:   12325056 MISS:    2622929 MSHR_MERGE:    2404897
cpu0->cpu0_L1D LOAD         ACCESS:   10342691 HIT:   10326845 MISS:      15846 MSHR_MERGE:       3073
cpu0->cpu0_L1D RFO          ACCESS:          0 HIT:          0 MISS:          0 MSHR_MERGE:          0
cpu0->cpu0_L1D PREFETCH     ACCESS:     182357 HIT:      94861 MISS:      87496 MSHR_MERGE:        388
cpu0->cpu0_L1D WRITE        ACCESS:    4422937 HIT:    1903350 MISS:    2519587 MSHR_MERGE:    2401436
cpu0->cpu0_L1D TRANSLATION  ACCESS:          0 HIT:          0 MISS:          0 MSHR_MERGE:          0
cpu0->cpu0_L1D PREFETCH REQUESTED:     197933 ISSUED:     182352 USEFUL:      74718 USELESS:      12364 LATE:        698
cpu0->cpu0_L1D AVERAGE MISS LATENCY: 196.4 cycles
cpu0->cpu0_ITLB TOTAL        ACCESS:    6172627 HIT:    6172622 MISS:          5 MSHR_MERGE:          3
cpu0->cpu0_ITLB LOAD         ACCESS:    6172627 HIT:    6172622 MISS:          5 MSHR_MERGE:          3
cpu0->cpu0_ITLB RFO          ACCESS:          0 HIT:          0 MISS:          0 MSHR_MERGE:          0
cpu0->cpu0_ITLB PREFETCH     ACCESS:          0 HIT:          0 MISS:          0 MSHR_MERGE:          0
cpu0->cpu0_ITLB WRITE        ACCESS:          0 HIT:          0 MISS:          0 MSHR_MERGE:          0
cpu0->cpu0_ITLB TRANSLATION  ACCESS:          0 HIT:          0 MISS:          0 MSHR_MERGE:          0
cpu0->cpu0_ITLB PREFETCH REQUESTED:          0 ISSUED:          0 USEFUL:          0 USELESS:          0 LATE:          0
cpu0->cpu0_ITLB AVERAGE MISS LATENCY: 5 cycles
cpu0->cpu0_DTLB TOTAL        ACCESS:   14220829 HIT:   14215487 MISS:       5342 MSHR_MERGE:       1862
cpu0->cpu0_DTLB LOAD         ACCESS:   14220829 HIT:   14215487 MISS:       5342 MSHR_MERGE:       1862
cpu0->cpu0_DTLB RFO          ACCESS:          0 HIT:          0 MISS:          0 MSHR_MERGE:          0
cpu0->cpu0_DTLB PREFETCH     ACCESS:          0 HIT:          0 MISS:          0 MSHR_MERGE:          0
cpu0->cpu0_DTLB WRITE        ACCESS:          0 HIT:          0 MISS:          0 MSHR_MERGE:          0
cpu0->cpu0_DTLB TRANSLATION  ACCESS:          0 HIT:          0 MISS:          0 MSHR_MERGE:          0
cpu0->cpu0_DTLB PREFETCH REQUESTED:          0 ISSUED:          0 USEFUL:          0 USELESS:          0 LATE:          0
cpu0->cpu0_DTLB AVERAGE MISS LATENCY: 5.02 cycles
cpu0->LLC TOTAL        ACCESS:     273773 HIT:      91126 MISS:     182647 MSHR_MERGE:          0
cpu0->LLC LOAD         ACCESS:       1005 HIT:        422 MISS:        583 MSHR_MERGE:          0
cpu0->LLC RFO          ACCESS:     114511 HIT:       6939 MISS:     107572 MSHR_MERGE:          0
cpu0->LLC PREFETCH     ACCESS:      24467 HIT:       4243 MISS:      20224 MSHR_MERGE:          0
cpu0->LLC WRITE        ACCESS:     133790 HIT:      79522 MISS:      54268 MSHR_MERGE:          0
cpu0->LLC TRANSLATION  ACCESS:          0 HIT:          0 MISS:          0 MSHR_MERGE:          0
cpu0->LLC PREFETCH REQUESTED:          0 ISSUED:          0 USEFUL:          0 USELESS:          0 LATE:          0
cpu0->LLC AVERAGE MISS LATENCY: 142.9 cycles

DRAM Statistics

Channel 0 RQ ROW_BUFFER_HIT:        618
  ROW_BUFFER_MISS:     127761
  AVG DBUS CONGESTED CYCLE: 10.77
Channel 0 WQ ROW_BUFFER_HIT:      26505
  ROW_BUFFER_MISS:      99833
  FULL:        137
Channel 0 REFRESHES ISSUED:       1297

[ROI Statistics]
[System Configuration]
num_cpus 1
cpu_freq 4000
fetch_width 6
decode_width 6
dispatch_width 6
execute_width 6
lq_width 2
sq_width 2
retire_width 6
scheduler_size 160
branch_mispredict_penalty 1
rob_size 352
lq_size 240
sq_size 112
ifetch_buffer_size 64
decode_buffer_size 32
dispatch_buffer_size 32
register_file_size 288
decode_latency 1
dispatch_latency 1
schedule_latency 0
execute_latency 0
page_size 4096
block_size 64
core_0_itlb_set 16
core_0_itlb_way 4
core_0_itlb_rq_size 16
core_0_itlb_wq_size 16
core_0_itlb_pq_size 0
core_0_itlb_mshr_size 8
core_0_itlb_hit_latency 1
core_0_itlb_fill_latency 1
core_0_itlb_max_tag_check 2
core_0_itlb_max_fill 2
core_0_dtlb_set 16
core_0_dtlb_way 4
core_0_dtlb_rq_size 16
core_0_dtlb_wq_size 16
core_0_dtlb_pq_size 0
core_0_dtlb_mshr_size 8
core_0_dtlb_hit_latency 1
core_0_dtlb_fill_latency 1
core_0_dtlb_max_tag_check 2
core_0_dtlb_max_fill 2
core_0_stlb_set 128
core_0_stlb_way 12
core_0_stlb_rq_size 32
core_0_stlb_wq_size 32
core_0_stlb_pq_size 0
core_0_stlb_mshr_size 16
core_0_stlb_hit_latency 4
core_0_stlb_fill_latency 4
core_0_stlb_max_tag_check 1
core_0_stlb_max_fill 1
core_0_l1i_set 64
core_0_l1i_way 8
core_0_l1i_rq_size 64
core_0_l1i_wq_size 64
core_0_l1i_pq_size 32
core_0_l1i_mshr_size 8
core_0_l1i_hit_latency 2
core_0_l1i_fill_latency 2
core_0_l1i_max_tag_check 2
core_0_l1i_max_fill 2
core_0_l1d_set 64
core_0_l1d_way 12
core_0_l1d_rq_size 64
core_0_l1d_wq_size 64
core_0_l1d_pq_size 8
core_0_l1d_mshr_size 16
core_0_l1d_hit_latency 2
core_0_l1d_fill_latency 3
core_0_l1d_max_tag_check 2
core_0_l1d_max_fill 2
core_0_l2c_set 1024
core_0_l2c_way 8
core_0_l2c_rq_size 32
core_0_l2c_wq_size 32
core_0_l2c_pq_size 16
core_0_l2c_mshr_size 32
core_0_l2c_hit_latency 5
core_0_l2c_fill_latency 5
core_0_l2c_max_tag_check 1
core_0_l2c_max_fill 1
llc_set 2048
llc_way 16
llc_rq_size 32
llc_wq_size 32
llc_pq_size 32
llc_mshr_size 64
llc_hit_latency 10
llc_fill_latency 10
llc_max_tag_check 1
llc_max_fill 1
dram_channels 1
dram_ranks 1
dram_bankgroups 8
dram_banks 4
dram_rows 16384
dram_columns 1024
dram_channel_width 8
dram_rq_size 64
dram_wq_size 64
dram_size 4294967296
core_0_itlb_prefetcher no
core_0_dtlb_prefetcher no
core_0_stlb_prefetcher no
core_0_l1i_prefetcher next_line
core_0_l1d_prefetcher berti
core_0_l2c_prefetcher pythia
llc_prefetcher no
llc_replacement drrip

Core_0_instructions 50000001
Core_0_cycles 15566382
Core_0_IPC 3.21205
Core_0_branch_prediction_accuracy 99.5848
Core_0_branch_MPKI 0.18278
Core_0_average_ROB_occupancy_at_mispredict 150.152

Core_0_ITLB_total_access 6172627
Core_0_ITLB_total_hit 6172622
Core_0_ITLB_total_miss 5
Core_0_ITLB_total_MPKI 0.0001
Core_0_ITLB_total_miss_rate 8.10028e-07
Core_0_ITLB_demand_access 6172627
Core_0_ITLB_demand_hit 6172622
Core_0_ITLB_demand_miss 5
Core_0_ITLB_demand_MPKI 0.0001
Core_0_ITLB_demand_miss_rate 8.10028e-07
Core_0_ITLB_load_access 6172627
Core_0_ITLB_load_hit 6172622
Core_0_ITLB_load_miss 5
Core_0_ITLB_load_MPKI 0.0001
Core_0_ITLB_load_miss_rate 8.10028e-07
Core_0_ITLB_rfo_access 0
Core_0_ITLB_rfo_hit 0
Core_0_ITLB_rfo_miss 0
Core_0_ITLB_rfo_MPKI 0
Core_0_ITLB_rfo_miss_rate 0
Core_0_ITLB_prefetch_access 0
Core_0_ITLB_prefetch_hit 0
Core_0_ITLB_prefetch_miss 0
Core_0_ITLB_prefetch_MPKI 0
Core_0_ITLB_prefetch_miss_rate 0
Core_0_ITLB_writeback_access 0
Core_0_ITLB_writeback_hit 0
Core_0_ITLB_writeback_miss 0
Core_0_ITLB_writeback_MPKI 0
Core_0_ITLB_writeback_miss_rate 0
Core_0_ITLB_prefetch_requested 0
Core_0_ITLB_prefetch_issued 0
Core_0_ITLB_prefetch_useful 0
Core_0_ITLB_prefetch_useless 0
Core_0_ITLB_prefetch_late 0
Core_0_ITLB_prefetch_accuracy 0
Core_0_ITLB_prefetch_coverage 0

Core_0_DTLB_total_access 14220829
Core_0_DTLB_total_hit 14215487
Core_0_DTLB_total_miss 5342
Core_0_DTLB_total_MPKI 0.10684
Core_0_DTLB_total_miss_rate 0.000375646
Core_0_DTLB_demand_access 14220829
Core_0_DTLB_demand_hit 14215487
Core_0_DTLB_demand_miss 5342
Core_0_DTLB_demand_MPKI 0.10684
Core_0_DTLB_demand_miss_rate 0.000375646
Core_0_DTLB_load_access 14220829
Core_0_DTLB_load_hit 14215487
Core_0_DTLB_load_miss 5342
Core_0_DTLB_load_MPKI 0.10684
Core_0_DTLB_load_miss_rate 0.000375646
Core_0_DTLB_rfo_access 0
Core_0_DTLB_rfo_hit 0
Core_0_DTLB_rfo_miss 0
Core_0_DTLB_rfo_MPKI 0
Core_0_DTLB_rfo_miss_rate 0
Core_0_DTLB_prefetch_access 0
Core_0_DTLB_prefetch_hit 0
Core_0_DTLB_prefetch_miss 0
Core_0_DTLB_prefetch_MPKI 0
Core_0_DTLB_prefetch_miss_rate 0
Core_0_DTLB_writeback_access 0
Core_0_DTLB_writeback_hit 0
Core_0_DTLB_writeback_miss 0
Core_0_DTLB_writeback_MPKI 0
Core_0_DTLB_writeback_miss_rate 0
Core_0_DTLB_prefetch_requested 0
Core_0_DTLB_prefetch_issued 0
Core_0_DTLB_prefetch_useful 0
Core_0_DTLB_prefetch_useless 0
Core_0_DTLB_prefetch_late 0
Core_0_DTLB_prefetch_accuracy 0
Core_0_DTLB_prefetch_coverage 0

Core_0_STLB_total_access 3482
Core_0_STLB_total_hit 3482
Core_0_STLB_total_miss 0
Core_0_STLB_total_MPKI 0
Core_0_STLB_total_miss_rate 0
Core_0_STLB_demand_access 3482
Core_0_STLB_demand_hit 3482
Core_0_STLB_demand_miss 0
Core_0_STLB_demand_MPKI 0
Core_0_STLB_demand_miss_rate 0
Core_0_STLB_load_access 3482
Core_0_STLB_load_hit 3482
Core_0_STLB_load_miss 0
Core_0_STLB_load_MPKI 0
Core_0_STLB_load_miss_rate 0
Core_0_STLB_rfo_access 0
Core_0_STLB_rfo_hit 0
Core_0_STLB_rfo_miss 0
Core_0_STLB_rfo_MPKI 0
Core_0_STLB_rfo_miss_rate 0
Core_0_STLB_prefetch_access 0
Core_0_STLB_prefetch_hit 0
Core_0_STLB_prefetch_miss 0
Core_0_STLB_prefetch_MPKI 0
Core_0_STLB_prefetch_miss_rate 0
Core_0_STLB_writeback_access 0
Core_0_STLB_writeback_hit 0
Core_0_STLB_writeback_miss 0
Core_0_STLB_writeback_MPKI 0
Core_0_STLB_writeback_miss_rate 0
Core_0_STLB_prefetch_requested 0
Core_0_STLB_prefetch_issued 0
Core_0_STLB_prefetch_useful 0
Core_0_STLB_prefetch_useless 0
Core_0_STLB_prefetch_late 0
Core_0_STLB_prefetch_accuracy 0
Core_0_STLB_prefetch_coverage 0

Core_0_L1I_total_access 7062959
Core_0_L1I_total_hit 7062931
Core_0_L1I_total_miss 28
Core_0_L1I_total_MPKI 0.00056
Core_0_L1I_total_miss_rate 3.96434e-06
Core_0_L1I_demand_access 7062959
Core_0_L1I_demand_hit 7062931
Core_0_L1I_demand_miss 28
Core_0_L1I_demand_MPKI 0.00056
Core_0_L1I_demand_miss_rate 3.96434e-06
Core_0_L1I_load_access 7062959
Core_0_L1I_load_hit 7062931
Core_0_L1I_load_miss 28
Core_0_L1I_load_MPKI 0.00056
Core_0_L1I_load_miss_rate 3.96434e-06
Core_0_L1I_rfo_access 0
Core_0_L1I_rfo_hit 0
Core_0_L1I_rfo_miss 0
Core_0_L1I_rfo_MPKI 0
Core_0_L1I_rfo_miss_rate 0
Core_0_L1I_prefetch_access 0
Core_0_L1I_prefetch_hit 0
Core_0_L1I_prefetch_miss 0
Core_0_L1I_prefetch_MPKI 0
Core_0_L1I_prefetch_miss_rate 0
Core_0_L1I_writeback_access 0
Core_0_L1I_writeback_hit 0
Core_0_L1I_writeback_miss 0
Core_0_L1I_writeback_MPKI 0
Core_0_L1I_writeback_miss_rate 0
Core_0_L1I_prefetch_requested 0
Core_0_L1I_prefetch_issued 0
Core_0_L1I_prefetch_useful 0
Core_0_L1I_prefetch_useless 0
Core_0_L1I_prefetch_late 0
Core_0_L1I_prefetch_accuracy 0
Core_0_L1I_prefetch_coverage 0

Core_0_L1D_total_access 14947985
Core_0_L1D_total_hit 12325056
Core_0_L1D_total_miss 2622929
Core_0_L1D_total_MPKI 52.4586
Core_0_L1D_total_miss_rate 0.17547
Core_0_L1D_demand_access 10342691
Core_0_L1D_demand_hit 10326845
Core_0_L1D_demand_miss 15846
Core_0_L1D_demand_MPKI 0.31692
Core_0_L1D_demand_miss_rate 0.0015321
Core_0_L1D_load_access 10342691
Core_0_L1D_load_hit 10326845
Core_0_L1D_load_miss 15846
Core_0_L1D_load_MPKI 0.31692
Core_0_L1D_load_miss_rate 0.0015321
Core_0_L1D_rfo_access 0
Core_0_L1D_rfo_hit 0
Core_0_L1D_rfo_miss 0
Core_0_L1D_rfo_MPKI 0
Core_0_L1D_rfo_miss_rate 0
Core_0_L1D_prefetch_access 182357
Core_0_L1D_prefetch_hit 94861
Core_0_L1D_prefetch_miss 87496
Core_0_L1D_prefetch_MPKI 1.74992
Core_0_L1D_prefetch_miss_rate 0.479806
Core_0_L1D_writeback_access 4422937
Core_0_L1D_writeback_hit 1903350
Core_0_L1D_writeback_miss 2519587
Core_0_L1D_writeback_MPKI 50.3917
Core_0_L1D_writeback_miss_rate 0.569664
Core_0_L1D_prefetch_requested 197933
Core_0_L1D_prefetch_issued 182352
Core_0_L1D_prefetch_useful 74718
Core_0_L1D_prefetch_useless 12364
Core_0_L1D_prefetch_late 698
Core_0_L1D_prefetch_accuracy 0.409746
Core_0_L1D_prefetch_coverage 0.82503

Core_0_L2C_total_access 834947
Core_0_L2C_total_hit 656429
Core_0_L2C_total_miss 178518
Core_0_L2C_total_MPKI 3.57036
Core_0_L2C_total_miss_rate 0.213808
Core_0_L2C_demand_access 130948
Core_0_L2C_demand_hit 15383
Core_0_L2C_demand_miss 115565
Core_0_L2C_demand_MPKI 2.3113
Core_0_L2C_demand_miss_rate 0.882526
Core_0_L2C_load_access 12796
Core_0_L2C_load_hit 11748
Core_0_L2C_load_miss 1048
Core_0_L2C_load_MPKI 0.02096
Core_0_L2C_load_miss_rate 0.0819006
Core_0_L2C_rfo_access 118152
Core_0_L2C_rfo_hit 3635
Core_0_L2C_rfo_miss 114517
Core_0_L2C_rfo_MPKI 2.29034
Core_0_L2C_rfo_miss_rate 0.969235
Core_0_L2C_prefetch_access 570680
Core_0_L2C_prefetch_hit 507736
Core_0_L2C_prefetch_miss 62944
Core_0_L2C_prefetch_MPKI 1.25888
Core_0_L2C_prefetch_miss_rate 0.110296
Core_0_L2C_writeback_access 133319
Core_0_L2C_writeback_hit 133310
Core_0_L2C_writeback_miss 9
Core_0_L2C_writeback_MPKI 0.00018
Core_0_L2C_writeback_miss_rate 6.75073e-05
Core_0_L2C_prefetch_requested 486439
Core_0_L2C_prefetch_issued 483572
Core_0_L2C_prefetch_useful 20029
Core_0_L2C_prefetch_useless 1257
Core_0_L2C_prefetch_late 49
Core_0_L2C_prefetch_accuracy 0.0414189
Core_0_L2C_prefetch_coverage 0.147713

Core_0_LLC_total_access 273773
Core_0_LLC_total_hit 91126
Core_0_LLC_total_miss 182647
Core_0_LLC_total_MPKI 3.65294
Core_0_LLC_total_miss_rate 0.667148
Core_0_LLC_demand_access 115516
Core_0_LLC_demand_hit 7361
Core_0_LLC_demand_miss 108155
Core_0_LLC_demand_MPKI 2.1631
Core_0_LLC_demand_miss_rate 0.936277
Core_0_LLC_load_access 1005
Core_0_LLC_load_hit 422
Core_0_LLC_load_miss 583
Core_0_LLC_load_MPKI 0.01166
Core_0_LLC_load_miss_rate 0.5801
Core_0_LLC_rfo_access 114511
Core_0_LLC_rfo_hit 6939
Core_0_LLC_rfo_miss 107572
Core_0_LLC_rfo_MPKI 2.15144
Core_0_LLC_rfo_miss_rate 0.939403
Core_0_LLC_prefetch_access 24467
Core_0_LLC_prefetch_hit 4243
Core_0_LLC_prefetch_miss 20224
Core_0_LLC_prefetch_MPKI 0.40448
Core_0_LLC_prefetch_miss_rate 0.826583
Core_0_LLC_writeback_access 133790
Core_0_LLC_writeback_hit 79522
Core_0_LLC_writeback_miss 54268
Core_0_LLC_writeback_MPKI 1.08536
Core_0_LLC_writeback_miss_rate 0.405621
Core_0_LLC_prefetch_requested 0
Core_0_LLC_prefetch_issued 0
Core_0_LLC_prefetch_useful 0
Core_0_LLC_prefetch_useless 0
Core_0_LLC_prefetch_late 0
Core_0_LLC_prefetch_accuracy 0
Core_0_LLC_prefetch_coverage 0

[DRAM Statistics]
Channel_0_RQ_row_buffer_hit 618
Channel_0_RQ_row_buffer_miss 127761
Channel_0_WQ_row_buffer_hit 26505
Channel_0_WQ_row_buffer_miss 99833
Channel_0_WQ_full 137
Channel_0_dbus_congested 972891
DRAM_total_RQ_row_buffer_hit 618
DRAM_total_RQ_row_buffer_miss 127761
DRAM_total_WQ_row_buffer_hit 26505
DRAM_total_WQ_row_buffer_miss 99833
DRAM_total_WQ_full 137
DRAM_total_dbus_congested 972891
DRAM_avg_congested_cycle 10.7744

======STLB miss causes ========
Core_0_STLB_miss_cause_breakdown
Core_0_STLB_cause_Demand_Data_miss 0
Core_0_STLB_cause_Demand_Data_miss_rate 0
Core_0_STLB_cause_Demand_Instruction_miss 0
Core_0_STLB_cause_Demand_Instruction_miss_rate 0
Core_0_STLB_cause_L1D_Prefetch_miss 0
Core_0_STLB_cause_L1D_Prefetch_miss_rate 0
Core_0_STLB_cause_L1I_Prefetch_miss 0
Core_0_STLB_cause_L1I_Prefetch_miss_rate 0
Core_0_STLB_cause_Other_miss 0
Core_0_STLB_cause_Other_miss_rate 0
Core_0_STLB_Demand_miss 0
Core_0_STLB_Demand_miss_rate 0
Core_0_STLB_L1D_Prefetch_miss 0
Core_0_STLB_L1D_Prefetch_miss_rate 0
Core_0_STLB_Other_miss 0
Core_0_STLB_Other_miss_rate 0
