[VMEM] WARNING: physical memory size is smaller than virtual memory size.

*** ChampSim Multicore Out-of-Order Simulator ***
Warmup Instructions: 20000000
Simulation Instructions: 50000000
Number of CPUs: 1
Page size: 4096
STLB ideal mode: all
Core 0: /data0/tzh/champsim_traces/SPEC06/459.GemsFDTD-1211B.champsimtrace.xz
 L1D Berti prefetcher
Off-chip DRAM Size: 4 GiB Channels: 1 Width: 64-bit Data Rate: 3205 MT/s
Warmup halting CPU 0 at instruction 20000002 cycle 5934967 for remainder of phase
Warmup finished CPU 0 instructions: 20000002 cycles: 5934967 cumulative IPC: 3.37 (Simulation time: 00 hr 01 min 27 sec)
Warmup complete CPU 0 instructions: 20000002 cycles: 5934967 cumulative IPC: 3.37 (Simulation time: 00 hr 01 min 27 sec)
Simulation finished CPU 0 instructions: 50000002 cycles: 40456961 cumulative IPC: 1.236 (Simulation time: 00 hr 08 min 17 sec)
Simulation complete CPU 0 instructions: 50000002 cycles: 40456961 cumulative IPC: 1.236 (Simulation time: 00 hr 08 min 17 sec)

ChampSim completed all CPUs

=== Simulation ===
CPU 0 runs /data0/tzh/champsim_traces/SPEC06/459.GemsFDTD-1211B.champsimtrace.xz

Region of Interest Statistics

CPU 0 cumulative IPC: 1.236 instructions: 50000002 cycles: 40456961
CPU 0 Branch Prediction Accuracy: 93.99% MPKI: 0.3621 Average ROB Occupancy at Mispredict: 351.1
Branch type MPKI
BRANCH_DIRECT_JUMP: 0
BRANCH_INDIRECT: 0
BRANCH_CONDITIONAL: 0.3621
BRANCH_DIRECT_CALL: 0
BRANCH_INDIRECT_CALL: 0
BRANCH_RETURN: 0

cpu0->cpu0_STLB TOTAL        ACCESS:     398733 HIT:     398733 MISS:          0 MSHR_MERGE:          0
cpu0->cpu0_STLB LOAD         ACCESS:     398733 HIT:     398733 MISS:          0 MSHR_MERGE:          0
cpu0->cpu0_STLB RFO          ACCESS:          0 HIT:          0 MISS:          0 MSHR_MERGE:          0
cpu0->cpu0_STLB PREFETCH     ACCESS:          0 HIT:          0 MISS:          0 MSHR_MERGE:          0
cpu0->cpu0_STLB WRITE        ACCESS:          0 HIT:          0 MISS:          0 MSHR_MERGE:          0
cpu0->cpu0_STLB TRANSLATION  ACCESS:          0 HIT:          0 MISS:          0 MSHR_MERGE:          0
cpu0->cpu0_STLB PREFETCH REQUESTED:          0 ISSUED:          0 USEFUL:          0 USELESS:          0 LATE:          0
cpu0->cpu0_STLB AVERAGE MISS LATENCY: - cycles
cpu0->cpu0_L2C TOTAL        ACCESS:    2802867 HIT:    1373468 MISS:    1429399 MSHR_MERGE:     191527
cpu0->cpu0_L2C LOAD         ACCESS:     313020 HIT:      87693 MISS:     225327 MSHR_MERGE:       4871
cpu0->cpu0_L2C RFO          ACCESS:        803 HIT:        798 MISS:          5 MSHR_MERGE:          0
cpu0->cpu0_L2C PREFETCH     ACCESS:    2196600 HIT:     992560 MISS:    1204040 MSHR_MERGE:     186656
cpu0->cpu0_L2C WRITE        ACCESS:     292444 HIT:     292417 MISS:         27 MSHR_MERGE:          0
cpu0->cpu0_L2C TRANSLATION  ACCESS:          0 HIT:          0 MISS:          0 MSHR_MERGE:          0
cpu0->cpu0_L2C PREFETCH REQUESTED:    1691614 ISSUED:    1685514 USEFUL:     326599 USELESS:     528420 LATE:       4871
cpu0->cpu0_L2C AVERAGE MISS LATENCY: 293.4 cycles
cpu0->cpu0_L1I TOTAL        ACCESS:    9694406 HIT:    9694323 MISS:         83 MSHR_MERGE:         29
cpu0->cpu0_L1I LOAD         ACCESS:    9694406 HIT:    9694323 MISS:         83 MSHR_MERGE:         29
cpu0->cpu0_L1I RFO          ACCESS:          0 HIT:          0 MISS:          0 MSHR_MERGE:          0
cpu0->cpu0_L1I PREFETCH     ACCESS:          0 HIT:          0 MISS:          0 MSHR_MERGE:          0
cpu0->cpu0_L1I WRITE        ACCESS:          0 HIT:          0 MISS:          0 MSHR_MERGE:          0
cpu0->cpu0_L1I TRANSLATION  ACCESS:          0 HIT:          0 MISS:          0 MSHR_MERGE:          0
cpu0->cpu0_L1I PREFETCH REQUESTED:          0 ISSUED:          0 USEFUL:          0 USELESS:          0 LATE:          0
cpu0->cpu0_L1I AVERAGE MISS LATENCY: 327.7 cycles
cpu0->cpu0_L1D TOTAL        ACCESS:   25075128 HIT:   24188728 MISS:     886400 MSHR_MERGE:      61520
cpu0->cpu0_L1D LOAD         ACCESS:   20694007 HIT:   20325757 MISS:     368250 MSHR_MERGE:      55284
cpu0->cpu0_L1D RFO          ACCESS:          0 HIT:          0 MISS:          0 MSHR_MERGE:          0
cpu0->cpu0_L1D PREFETCH     ACCESS:     667442 HIT:     154830 MISS:     512612 MSHR_MERGE:       1524
cpu0->cpu0_L1D WRITE        ACCESS:    3713679 HIT:    3708141 MISS:       5538 MSHR_MERGE:       4712
cpu0->cpu0_L1D TRANSLATION  ACCESS:          0 HIT:          0 MISS:          0 MSHR_MERGE:          0
cpu0->cpu0_L1D PREFETCH REQUESTED:     672593 ISSUED:     667439 USEFUL:     348967 USELESS:     162046 LATE:      17976
cpu0->cpu0_L1D AVERAGE MISS LATENCY: 220.7 cycles
cpu0->cpu0_ITLB TOTAL        ACCESS:    6872506 HIT:    6872502 MISS:          4 MSHR_MERGE:          3
cpu0->cpu0_ITLB LOAD         ACCESS:    6872506 HIT:    6872502 MISS:          4 MSHR_MERGE:          3
cpu0->cpu0_ITLB RFO          ACCESS:          0 HIT:          0 MISS:          0 MSHR_MERGE:          0
cpu0->cpu0_ITLB PREFETCH     ACCESS:          0 HIT:          0 MISS:          0 MSHR_MERGE:          0
cpu0->cpu0_ITLB WRITE        ACCESS:          0 HIT:          0 MISS:          0 MSHR_MERGE:          0
cpu0->cpu0_ITLB TRANSLATION  ACCESS:          0 HIT:          0 MISS:          0 MSHR_MERGE:          0
cpu0->cpu0_ITLB PREFETCH REQUESTED:          0 ISSUED:          0 USEFUL:          0 USELESS:          0 LATE:          0
cpu0->cpu0_ITLB AVERAGE MISS LATENCY: 5 cycles
cpu0->cpu0_DTLB TOTAL        ACCESS:   24232719 HIT:   23711016 MISS:     521703 MSHR_MERGE:     122971
cpu0->cpu0_DTLB LOAD         ACCESS:   24232719 HIT:   23711016 MISS:     521703 MSHR_MERGE:     122971
cpu0->cpu0_DTLB RFO          ACCESS:          0 HIT:          0 MISS:          0 MSHR_MERGE:          0
cpu0->cpu0_DTLB PREFETCH     ACCESS:          0 HIT:          0 MISS:          0 MSHR_MERGE:          0
cpu0->cpu0_DTLB WRITE        ACCESS:          0 HIT:          0 MISS:          0 MSHR_MERGE:          0
cpu0->cpu0_DTLB TRANSLATION  ACCESS:          0 HIT:          0 MISS:          0 MSHR_MERGE:          0
cpu0->cpu0_DTLB PREFETCH REQUESTED:          0 ISSUED:          0 USEFUL:          0 USELESS:          0 LATE:          0
cpu0->cpu0_DTLB AVERAGE MISS LATENCY: 5.001 cycles
cpu0->LLC TOTAL        ACCESS:    1529624 HIT:     351027 MISS:    1178597 MSHR_MERGE:          0
cpu0->LLC LOAD         ACCESS:     220456 HIT:      21470 MISS:     198986 MSHR_MERGE:          0
cpu0->LLC RFO          ACCESS:          5 HIT:          1 MISS:          4 MSHR_MERGE:          0
cpu0->LLC PREFETCH     ACCESS:    1017383 HIT:     125049 MISS:     892334 MSHR_MERGE:          0
cpu0->LLC WRITE        ACCESS:     291780 HIT:     204507 MISS:      87273 MSHR_MERGE:          0
cpu0->LLC TRANSLATION  ACCESS:          0 HIT:          0 MISS:          0 MSHR_MERGE:          0
cpu0->LLC PREFETCH REQUESTED:          0 ISSUED:          0 USEFUL:          0 USELESS:          0 LATE:          0
cpu0->LLC AVERAGE MISS LATENCY: 217 cycles

DRAM Statistics

Channel 0 RQ ROW_BUFFER_HIT:      34974
  ROW_BUFFER_MISS:    1056349
  AVG DBUS CONGESTED CYCLE: 6.455
Channel 0 WQ ROW_BUFFER_HIT:      41440
  ROW_BUFFER_MISS:     251489
  FULL:          0
Channel 0 REFRESHES ISSUED:       3371

[ROI Statistics]
[System Configuration]
num_cpus 1
cpu_freq 4000
fetch_width 6
decode_width 6
dispatch_width 6
execute_width 6
lq_width 2
sq_width 2
retire_width 6
scheduler_size 160
branch_mispredict_penalty 1
rob_size 352
lq_size 240
sq_size 112
ifetch_buffer_size 64
decode_buffer_size 32
dispatch_buffer_size 32
register_file_size 288
decode_latency 1
dispatch_latency 1
schedule_latency 0
execute_latency 0
page_size 4096
block_size 64
core_0_itlb_set 16
core_0_itlb_way 4
core_0_itlb_rq_size 16
core_0_itlb_wq_size 16
core_0_itlb_pq_size 0
core_0_itlb_mshr_size 8
core_0_itlb_hit_latency 1
core_0_itlb_fill_latency 1
core_0_itlb_max_tag_check 2
core_0_itlb_max_fill 2
core_0_dtlb_set 16
core_0_dtlb_way 4
core_0_dtlb_rq_size 16
core_0_dtlb_wq_size 16
core_0_dtlb_pq_size 0
core_0_dtlb_mshr_size 8
core_0_dtlb_hit_latency 1
core_0_dtlb_fill_latency 1
core_0_dtlb_max_tag_check 2
core_0_dtlb_max_fill 2
core_0_stlb_set 128
core_0_stlb_way 12
core_0_stlb_rq_size 32
core_0_stlb_wq_size 32
core_0_stlb_pq_size 0
core_0_stlb_mshr_size 16
core_0_stlb_hit_latency 4
core_0_stlb_fill_latency 4
core_0_stlb_max_tag_check 1
core_0_stlb_max_fill 1
core_0_l1i_set 64
core_0_l1i_way 8
core_0_l1i_rq_size 64
core_0_l1i_wq_size 64
core_0_l1i_pq_size 32
core_0_l1i_mshr_size 8
core_0_l1i_hit_latency 2
core_0_l1i_fill_latency 2
core_0_l1i_max_tag_check 2
core_0_l1i_max_fill 2
core_0_l1d_set 64
core_0_l1d_way 12
core_0_l1d_rq_size 64
core_0_l1d_wq_size 64
core_0_l1d_pq_size 8
core_0_l1d_mshr_size 16
core_0_l1d_hit_latency 2
core_0_l1d_fill_latency 3
core_0_l1d_max_tag_check 2
core_0_l1d_max_fill 2
core_0_l2c_set 1024
core_0_l2c_way 8
core_0_l2c_rq_size 32
core_0_l2c_wq_size 32
core_0_l2c_pq_size 16
core_0_l2c_mshr_size 32
core_0_l2c_hit_latency 5
core_0_l2c_fill_latency 5
core_0_l2c_max_tag_check 1
core_0_l2c_max_fill 1
llc_set 2048
llc_way 16
llc_rq_size 32
llc_wq_size 32
llc_pq_size 32
llc_mshr_size 64
llc_hit_latency 10
llc_fill_latency 10
llc_max_tag_check 1
llc_max_fill 1
dram_channels 1
dram_ranks 1
dram_bankgroups 8
dram_banks 4
dram_rows 16384
dram_columns 1024
dram_channel_width 8
dram_rq_size 64
dram_wq_size 64
dram_size 4294967296
core_0_itlb_prefetcher no
core_0_dtlb_prefetcher no
core_0_stlb_prefetcher no
core_0_l1i_prefetcher next_line
core_0_l1d_prefetcher berti
core_0_l2c_prefetcher pythia
llc_prefetcher no
llc_replacement drrip

Core_0_instructions 50000002
Core_0_cycles 40456961
Core_0_IPC 1.23588
Core_0_branch_prediction_accuracy 93.9948
Core_0_branch_MPKI 0.36208
Core_0_average_ROB_occupancy_at_mispredict 351.124

Core_0_ITLB_total_access 6872506
Core_0_ITLB_total_hit 6872502
Core_0_ITLB_total_miss 4
Core_0_ITLB_total_MPKI 8e-05
Core_0_ITLB_total_miss_rate 5.82029e-07
Core_0_ITLB_demand_access 6872506
Core_0_ITLB_demand_hit 6872502
Core_0_ITLB_demand_miss 4
Core_0_ITLB_demand_MPKI 8e-05
Core_0_ITLB_demand_miss_rate 5.82029e-07
Core_0_ITLB_load_access 6872506
Core_0_ITLB_load_hit 6872502
Core_0_ITLB_load_miss 4
Core_0_ITLB_load_MPKI 8e-05
Core_0_ITLB_load_miss_rate 5.82029e-07
Core_0_ITLB_rfo_access 0
Core_0_ITLB_rfo_hit 0
Core_0_ITLB_rfo_miss 0
Core_0_ITLB_rfo_MPKI 0
Core_0_ITLB_rfo_miss_rate 0
Core_0_ITLB_prefetch_access 0
Core_0_ITLB_prefetch_hit 0
Core_0_ITLB_prefetch_miss 0
Core_0_ITLB_prefetch_MPKI 0
Core_0_ITLB_prefetch_miss_rate 0
Core_0_ITLB_writeback_access 0
Core_0_ITLB_writeback_hit 0
Core_0_ITLB_writeback_miss 0
Core_0_ITLB_writeback_MPKI 0
Core_0_ITLB_writeback_miss_rate 0
Core_0_ITLB_prefetch_requested 0
Core_0_ITLB_prefetch_issued 0
Core_0_ITLB_prefetch_useful 0
Core_0_ITLB_prefetch_useless 0
Core_0_ITLB_prefetch_late 0
Core_0_ITLB_prefetch_accuracy 0
Core_0_ITLB_prefetch_coverage 0

Core_0_DTLB_total_access 24232719
Core_0_DTLB_total_hit 23711016
Core_0_DTLB_total_miss 521703
Core_0_DTLB_total_MPKI 10.4341
Core_0_DTLB_total_miss_rate 0.0215289
Core_0_DTLB_demand_access 24232719
Core_0_DTLB_demand_hit 23711016
Core_0_DTLB_demand_miss 521703
Core_0_DTLB_demand_MPKI 10.4341
Core_0_DTLB_demand_miss_rate 0.0215289
Core_0_DTLB_load_access 24232719
Core_0_DTLB_load_hit 23711016
Core_0_DTLB_load_miss 521703
Core_0_DTLB_load_MPKI 10.4341
Core_0_DTLB_load_miss_rate 0.0215289
Core_0_DTLB_rfo_access 0
Core_0_DTLB_rfo_hit 0
Core_0_DTLB_rfo_miss 0
Core_0_DTLB_rfo_MPKI 0
Core_0_DTLB_rfo_miss_rate 0
Core_0_DTLB_prefetch_access 0
Core_0_DTLB_prefetch_hit 0
Core_0_DTLB_prefetch_miss 0
Core_0_DTLB_prefetch_MPKI 0
Core_0_DTLB_prefetch_miss_rate 0
Core_0_DTLB_writeback_access 0
Core_0_DTLB_writeback_hit 0
Core_0_DTLB_writeback_miss 0
Core_0_DTLB_writeback_MPKI 0
Core_0_DTLB_writeback_miss_rate 0
Core_0_DTLB_prefetch_requested 0
Core_0_DTLB_prefetch_issued 0
Core_0_DTLB_prefetch_useful 0
Core_0_DTLB_prefetch_useless 0
Core_0_DTLB_prefetch_late 0
Core_0_DTLB_prefetch_accuracy 0
Core_0_DTLB_prefetch_coverage 0

Core_0_STLB_total_access 398733
Core_0_STLB_total_hit 398733
Core_0_STLB_total_miss 0
Core_0_STLB_total_MPKI 0
Core_0_STLB_total_miss_rate 0
Core_0_STLB_demand_access 398733
Core_0_STLB_demand_hit 398733
Core_0_STLB_demand_miss 0
Core_0_STLB_demand_MPKI 0
Core_0_STLB_demand_miss_rate 0
Core_0_STLB_load_access 398733
Core_0_STLB_load_hit 398733
Core_0_STLB_load_miss 0
Core_0_STLB_load_MPKI 0
Core_0_STLB_load_miss_rate 0
Core_0_STLB_rfo_access 0
Core_0_STLB_rfo_hit 0
Core_0_STLB_rfo_miss 0
Core_0_STLB_rfo_MPKI 0
Core_0_STLB_rfo_miss_rate 0
Core_0_STLB_prefetch_access 0
Core_0_STLB_prefetch_hit 0
Core_0_STLB_prefetch_miss 0
Core_0_STLB_prefetch_MPKI 0
Core_0_STLB_prefetch_miss_rate 0
Core_0_STLB_writeback_access 0
Core_0_STLB_writeback_hit 0
Core_0_STLB_writeback_miss 0
Core_0_STLB_writeback_MPKI 0
Core_0_STLB_writeback_miss_rate 0
Core_0_STLB_prefetch_requested 0
Core_0_STLB_prefetch_issued 0
Core_0_STLB_prefetch_useful 0
Core_0_STLB_prefetch_useless 0
Core_0_STLB_prefetch_late 0
Core_0_STLB_prefetch_accuracy 0
Core_0_STLB_prefetch_coverage 0

Core_0_L1I_total_access 9694406
Core_0_L1I_total_hit 9694323
Core_0_L1I_total_miss 83
Core_0_L1I_total_MPKI 0.00166
Core_0_L1I_total_miss_rate 8.56164e-06
Core_0_L1I_demand_access 9694406
Core_0_L1I_demand_hit 9694323
Core_0_L1I_demand_miss 83
Core_0_L1I_demand_MPKI 0.00166
Core_0_L1I_demand_miss_rate 8.56164e-06
Core_0_L1I_load_access 9694406
Core_0_L1I_load_hit 9694323
Core_0_L1I_load_miss 83
Core_0_L1I_load_MPKI 0.00166
Core_0_L1I_load_miss_rate 8.56164e-06
Core_0_L1I_rfo_access 0
Core_0_L1I_rfo_hit 0
Core_0_L1I_rfo_miss 0
Core_0_L1I_rfo_MPKI 0
Core_0_L1I_rfo_miss_rate 0
Core_0_L1I_prefetch_access 0
Core_0_L1I_prefetch_hit 0
Core_0_L1I_prefetch_miss 0
Core_0_L1I_prefetch_MPKI 0
Core_0_L1I_prefetch_miss_rate 0
Core_0_L1I_writeback_access 0
Core_0_L1I_writeback_hit 0
Core_0_L1I_writeback_miss 0
Core_0_L1I_writeback_MPKI 0
Core_0_L1I_writeback_miss_rate 0
Core_0_L1I_prefetch_requested 0
Core_0_L1I_prefetch_issued 0
Core_0_L1I_prefetch_useful 0
Core_0_L1I_prefetch_useless 0
Core_0_L1I_prefetch_late 0
Core_0_L1I_prefetch_accuracy 0
Core_0_L1I_prefetch_coverage 0

Core_0_L1D_total_access 25075128
Core_0_L1D_total_hit 24188728
Core_0_L1D_total_miss 886400
Core_0_L1D_total_MPKI 17.728
Core_0_L1D_total_miss_rate 0.0353498
Core_0_L1D_demand_access 20694007
Core_0_L1D_demand_hit 20325757
Core_0_L1D_demand_miss 368250
Core_0_L1D_demand_MPKI 7.365
Core_0_L1D_demand_miss_rate 0.017795
Core_0_L1D_load_access 20694007
Core_0_L1D_load_hit 20325757
Core_0_L1D_load_miss 368250
Core_0_L1D_load_MPKI 7.365
Core_0_L1D_load_miss_rate 0.017795
Core_0_L1D_rfo_access 0
Core_0_L1D_rfo_hit 0
Core_0_L1D_rfo_miss 0
Core_0_L1D_rfo_MPKI 0
Core_0_L1D_rfo_miss_rate 0
Core_0_L1D_prefetch_access 667442
Core_0_L1D_prefetch_hit 154830
Core_0_L1D_prefetch_miss 512612
Core_0_L1D_prefetch_MPKI 10.2522
Core_0_L1D_prefetch_miss_rate 0.768025
Core_0_L1D_writeback_access 3713679
Core_0_L1D_writeback_hit 3708141
Core_0_L1D_writeback_miss 5538
Core_0_L1D_writeback_MPKI 0.11076
Core_0_L1D_writeback_miss_rate 0.00149124
Core_0_L1D_prefetch_requested 672593
Core_0_L1D_prefetch_issued 667439
Core_0_L1D_prefetch_useful 348967
Core_0_L1D_prefetch_useless 162046
Core_0_L1D_prefetch_late 17976
Core_0_L1D_prefetch_accuracy 0.522845
Core_0_L1D_prefetch_coverage 0.486557

Core_0_L2C_total_access 2802867
Core_0_L2C_total_hit 1373468
Core_0_L2C_total_miss 1429399
Core_0_L2C_total_MPKI 28.588
Core_0_L2C_total_miss_rate 0.509977
Core_0_L2C_demand_access 313823
Core_0_L2C_demand_hit 88491
Core_0_L2C_demand_miss 225332
Core_0_L2C_demand_MPKI 4.50664
Core_0_L2C_demand_miss_rate 0.718023
Core_0_L2C_load_access 313020
Core_0_L2C_load_hit 87693
Core_0_L2C_load_miss 225327
Core_0_L2C_load_MPKI 4.50654
Core_0_L2C_load_miss_rate 0.719849
Core_0_L2C_rfo_access 803
Core_0_L2C_rfo_hit 798
Core_0_L2C_rfo_miss 5
Core_0_L2C_rfo_MPKI 0.0001
Core_0_L2C_rfo_miss_rate 0.00622665
Core_0_L2C_prefetch_access 2196600
Core_0_L2C_prefetch_hit 992560
Core_0_L2C_prefetch_miss 1204040
Core_0_L2C_prefetch_MPKI 24.0808
Core_0_L2C_prefetch_miss_rate 0.548138
Core_0_L2C_writeback_access 292444
Core_0_L2C_writeback_hit 292417
Core_0_L2C_writeback_miss 27
Core_0_L2C_writeback_MPKI 0.00054
Core_0_L2C_writeback_miss_rate 9.23254e-05
Core_0_L2C_prefetch_requested 1691614
Core_0_L2C_prefetch_issued 1685514
Core_0_L2C_prefetch_useful 326599
Core_0_L2C_prefetch_useless 528420
Core_0_L2C_prefetch_late 4871
Core_0_L2C_prefetch_accuracy 0.193768
Core_0_L2C_prefetch_coverage 0.591739

Core_0_LLC_total_access 1529624
Core_0_LLC_total_hit 351027
Core_0_LLC_total_miss 1178597
Core_0_LLC_total_MPKI 23.5719
Core_0_LLC_total_miss_rate 0.770514
Core_0_LLC_demand_access 220461
Core_0_LLC_demand_hit 21471
Core_0_LLC_demand_miss 198990
Core_0_LLC_demand_MPKI 3.9798
Core_0_LLC_demand_miss_rate 0.902609
Core_0_LLC_load_access 220456
Core_0_LLC_load_hit 21470
Core_0_LLC_load_miss 198986
Core_0_LLC_load_MPKI 3.97972
Core_0_LLC_load_miss_rate 0.902611
Core_0_LLC_rfo_access 5
Core_0_LLC_rfo_hit 1
Core_0_LLC_rfo_miss 4
Core_0_LLC_rfo_MPKI 8e-05
Core_0_LLC_rfo_miss_rate 0.8
Core_0_LLC_prefetch_access 1017383
Core_0_LLC_prefetch_hit 125049
Core_0_LLC_prefetch_miss 892334
Core_0_LLC_prefetch_MPKI 17.8467
Core_0_LLC_prefetch_miss_rate 0.877088
Core_0_LLC_writeback_access 291780
Core_0_LLC_writeback_hit 204507
Core_0_LLC_writeback_miss 87273
Core_0_LLC_writeback_MPKI 1.74546
Core_0_LLC_writeback_miss_rate 0.299105
Core_0_LLC_prefetch_requested 0
Core_0_LLC_prefetch_issued 0
Core_0_LLC_prefetch_useful 0
Core_0_LLC_prefetch_useless 0
Core_0_LLC_prefetch_late 0
Core_0_LLC_prefetch_accuracy 0
Core_0_LLC_prefetch_coverage 0

[DRAM Statistics]
Channel_0_RQ_row_buffer_hit 34974
Channel_0_RQ_row_buffer_miss 1056349
Channel_0_WQ_row_buffer_hit 41440
Channel_0_WQ_row_buffer_miss 251489
Channel_0_WQ_full 0
Channel_0_dbus_congested 3373657
DRAM_total_RQ_row_buffer_hit 34974
DRAM_total_RQ_row_buffer_miss 1056349
DRAM_total_WQ_row_buffer_hit 41440
DRAM_total_WQ_row_buffer_miss 251489
DRAM_total_WQ_full 0
DRAM_total_dbus_congested 3373657
DRAM_avg_congested_cycle 6.45474

======STLB miss causes ========
Core_0_STLB_miss_cause_breakdown
Core_0_STLB_cause_Demand_Data_miss 0
Core_0_STLB_cause_Demand_Data_miss_rate 0
Core_0_STLB_cause_Demand_Instruction_miss 0
Core_0_STLB_cause_Demand_Instruction_miss_rate 0
Core_0_STLB_cause_L1D_Prefetch_miss 0
Core_0_STLB_cause_L1D_Prefetch_miss_rate 0
Core_0_STLB_cause_L1I_Prefetch_miss 0
Core_0_STLB_cause_L1I_Prefetch_miss_rate 0
Core_0_STLB_cause_Other_miss 0
Core_0_STLB_cause_Other_miss_rate 0
Core_0_STLB_Demand_miss 0
Core_0_STLB_Demand_miss_rate 0
Core_0_STLB_L1D_Prefetch_miss 0
Core_0_STLB_L1D_Prefetch_miss_rate 0
Core_0_STLB_Other_miss 0
Core_0_STLB_Other_miss_rate 0
