[VMEM] WARNING: physical memory size is smaller than virtual memory size.

*** ChampSim Multicore Out-of-Order Simulator ***
Warmup Instructions: 20000000
Simulation Instructions: 50000000
Number of CPUs: 1
Page size: 4096
STLB ideal mode: all
Core 0: /data0/tzh/champsim_traces/SPEC06/462.libquantum-714B.champsimtrace.xz
 L1D Berti prefetcher
Off-chip DRAM Size: 4 GiB Channels: 1 Width: 64-bit Data Rate: 3205 MT/s
Warmup halting CPU 0 at instruction 20000004 cycle 5607320 for remainder of phase
Warmup finished CPU 0 instructions: 20000004 cycles: 5607320 cumulative IPC: 3.567 (Simulation time: 00 hr 00 min 55 sec)
Warmup complete CPU 0 instructions: 20000004 cycles: 5607320 cumulative IPC: 3.567 (Simulation time: 00 hr 00 min 55 sec)
Simulation finished CPU 0 instructions: 50000002 cycles: 25317575 cumulative IPC: 1.975 (Simulation time: 00 hr 04 min 59 sec)
Simulation complete CPU 0 instructions: 50000002 cycles: 25317575 cumulative IPC: 1.975 (Simulation time: 00 hr 04 min 59 sec)

ChampSim completed all CPUs

=== Simulation ===
CPU 0 runs /data0/tzh/champsim_traces/SPEC06/462.libquantum-714B.champsimtrace.xz

Region of Interest Statistics

CPU 0 cumulative IPC: 1.975 instructions: 50000002 cycles: 25317575
CPU 0 Branch Prediction Accuracy: 99.82% MPKI: 0.3281 Average ROB Occupancy at Mispredict: 271.5
Branch type MPKI
BRANCH_DIRECT_JUMP: 0
BRANCH_INDIRECT: 2e-05
BRANCH_CONDITIONAL: 0.3279
BRANCH_DIRECT_CALL: 0.0001
BRANCH_INDIRECT_CALL: 0
BRANCH_RETURN: 0.00012

cpu0->cpu0_STLB TOTAL        ACCESS:      18529 HIT:      18529 MISS:          0 MSHR_MERGE:          0
cpu0->cpu0_STLB LOAD         ACCESS:      18529 HIT:      18529 MISS:          0 MSHR_MERGE:          0
cpu0->cpu0_STLB RFO          ACCESS:          0 HIT:          0 MISS:          0 MSHR_MERGE:          0
cpu0->cpu0_STLB PREFETCH     ACCESS:          0 HIT:          0 MISS:          0 MSHR_MERGE:          0
cpu0->cpu0_STLB WRITE        ACCESS:          0 HIT:          0 MISS:          0 MSHR_MERGE:          0
cpu0->cpu0_STLB TRANSLATION  ACCESS:          0 HIT:          0 MISS:          0 MSHR_MERGE:          0
cpu0->cpu0_STLB PREFETCH REQUESTED:          0 ISSUED:          0 USEFUL:          0 USELESS:          0 LATE:          0
cpu0->cpu0_STLB AVERAGE MISS LATENCY: - cycles
cpu0->cpu0_L2C TOTAL        ACCESS:    6964197 HIT:     645680 MISS:    6318517 MSHR_MERGE:    5133102
cpu0->cpu0_L2C LOAD         ACCESS:      78285 HIT:      22268 MISS:      56017 MSHR_MERGE:      25650
cpu0->cpu0_L2C RFO          ACCESS:         12 HIT:          0 MISS:         12 MSHR_MERGE:          0
cpu0->cpu0_L2C PREFETCH     ACCESS:    6732728 HIT:     470240 MISS:    6262488 MSHR_MERGE:    5107452
cpu0->cpu0_L2C WRITE        ACCESS:     153172 HIT:     153172 MISS:          0 MSHR_MERGE:          0
cpu0->cpu0_L2C TRANSLATION  ACCESS:          0 HIT:          0 MISS:          0 MSHR_MERGE:          0
cpu0->cpu0_L2C PREFETCH REQUESTED:    6095221 ISSUED:    5625623 USEFUL:     242557 USELESS:     765790 LATE:      25650
cpu0->cpu0_L2C AVERAGE MISS LATENCY: 280.7 cycles
cpu0->cpu0_L1I TOTAL        ACCESS:    4149994 HIT:    4149990 MISS:          4 MSHR_MERGE:          0
cpu0->cpu0_L1I LOAD         ACCESS:    4149994 HIT:    4149990 MISS:          4 MSHR_MERGE:          0
cpu0->cpu0_L1I RFO          ACCESS:          0 HIT:          0 MISS:          0 MSHR_MERGE:          0
cpu0->cpu0_L1I PREFETCH     ACCESS:          0 HIT:          0 MISS:          0 MSHR_MERGE:          0
cpu0->cpu0_L1I WRITE        ACCESS:          0 HIT:          0 MISS:          0 MSHR_MERGE:          0
cpu0->cpu0_L1I TRANSLATION  ACCESS:          0 HIT:          0 MISS:          0 MSHR_MERGE:          0
cpu0->cpu0_L1I PREFETCH REQUESTED:          0 ISSUED:          0 USEFUL:          0 USELESS:          0 LATE:          0
cpu0->cpu0_L1I AVERAGE MISS LATENCY: 459 cycles
cpu0->cpu0_L1D TOTAL        ACCESS:   12301430 HIT:    9482448 MISS:    2818982 MSHR_MERGE:    1633583
cpu0->cpu0_L1D LOAD         ACCESS:   10568626 HIT:    8910744 MISS:    1657882 MSHR_MERGE:    1579601
cpu0->cpu0_L1D RFO          ACCESS:          0 HIT:          0 MISS:          0 MSHR_MERGE:          0
cpu0->cpu0_L1D PREFETCH     ACCESS:    1169268 HIT:       8205 MISS:    1161063 MSHR_MERGE:      53957
cpu0->cpu0_L1D WRITE        ACCESS:     563536 HIT:     563499 MISS:         37 MSHR_MERGE:         25
cpu0->cpu0_L1D TRANSLATION  ACCESS:          0 HIT:          0 MISS:          0 MSHR_MERGE:          0
cpu0->cpu0_L1D PREFETCH REQUESTED:    1195006 ISSUED:    1169265 USEFUL:    1107084 USELESS:         24 LATE:     460193
cpu0->cpu0_L1D AVERAGE MISS LATENCY: 126.1 cycles
cpu0->cpu0_ITLB TOTAL        ACCESS:    2947304 HIT:    2947304 MISS:          0 MSHR_MERGE:          0
cpu0->cpu0_ITLB LOAD         ACCESS:    2947304 HIT:    2947304 MISS:          0 MSHR_MERGE:          0
cpu0->cpu0_ITLB RFO          ACCESS:          0 HIT:          0 MISS:          0 MSHR_MERGE:          0
cpu0->cpu0_ITLB PREFETCH     ACCESS:          0 HIT:          0 MISS:          0 MSHR_MERGE:          0
cpu0->cpu0_ITLB WRITE        ACCESS:          0 HIT:          0 MISS:          0 MSHR_MERGE:          0
cpu0->cpu0_ITLB TRANSLATION  ACCESS:          0 HIT:          0 MISS:          0 MSHR_MERGE:          0
cpu0->cpu0_ITLB PREFETCH REQUESTED:          0 ISSUED:          0 USEFUL:          0 USELESS:          0 LATE:          0
cpu0->cpu0_ITLB AVERAGE MISS LATENCY: - cycles
cpu0->cpu0_DTLB TOTAL        ACCESS:   11313179 HIT:   11274864 MISS:      38315 MSHR_MERGE:      19786
cpu0->cpu0_DTLB LOAD         ACCESS:   11313179 HIT:   11274864 MISS:      38315 MSHR_MERGE:      19786
cpu0->cpu0_DTLB RFO          ACCESS:          0 HIT:          0 MISS:          0 MSHR_MERGE:          0
cpu0->cpu0_DTLB PREFETCH     ACCESS:          0 HIT:          0 MISS:          0 MSHR_MERGE:          0
cpu0->cpu0_DTLB WRITE        ACCESS:          0 HIT:          0 MISS:          0 MSHR_MERGE:          0
cpu0->cpu0_DTLB TRANSLATION  ACCESS:          0 HIT:          0 MISS:          0 MSHR_MERGE:          0
cpu0->cpu0_DTLB PREFETCH REQUESTED:          0 ISSUED:          0 USEFUL:          0 USELESS:          0 LATE:          0
cpu0->cpu0_DTLB AVERAGE MISS LATENCY: 5 cycles
cpu0->LLC TOTAL        ACCESS:    1338580 HIT:      65600 MISS:    1272980 MSHR_MERGE:          0
cpu0->LLC LOAD         ACCESS:      30367 HIT:        819 MISS:      29548 MSHR_MERGE:          0
cpu0->LLC RFO          ACCESS:         12 HIT:          4 MISS:          8 MSHR_MERGE:          0
cpu0->LLC PREFETCH     ACCESS:    1155030 HIT:      33074 MISS:    1121956 MSHR_MERGE:          0
cpu0->LLC WRITE        ACCESS:     153171 HIT:      31703 MISS:     121468 MSHR_MERGE:          0
cpu0->LLC TRANSLATION  ACCESS:          0 HIT:          0 MISS:          0 MSHR_MERGE:          0
cpu0->LLC PREFETCH REQUESTED:          0 ISSUED:          0 USEFUL:          0 USELESS:          0 LATE:          0
cpu0->LLC AVERAGE MISS LATENCY: 65.46 cycles

DRAM Statistics

Channel 0 RQ ROW_BUFFER_HIT:     402728
  ROW_BUFFER_MISS:     748684
  AVG DBUS CONGESTED CYCLE: 4.431
Channel 0 WQ ROW_BUFFER_HIT:      18759
  ROW_BUFFER_MISS:     138011
  FULL:          0
Channel 0 REFRESHES ISSUED:       2110

[ROI Statistics]
[System Configuration]
num_cpus 1
cpu_freq 4000
fetch_width 6
decode_width 6
dispatch_width 6
execute_width 6
lq_width 2
sq_width 2
retire_width 6
scheduler_size 160
branch_mispredict_penalty 1
rob_size 352
lq_size 240
sq_size 112
ifetch_buffer_size 64
decode_buffer_size 32
dispatch_buffer_size 32
register_file_size 288
decode_latency 1
dispatch_latency 1
schedule_latency 0
execute_latency 0
page_size 4096
block_size 64
core_0_itlb_set 16
core_0_itlb_way 4
core_0_itlb_rq_size 16
core_0_itlb_wq_size 16
core_0_itlb_pq_size 0
core_0_itlb_mshr_size 8
core_0_itlb_hit_latency 1
core_0_itlb_fill_latency 1
core_0_itlb_max_tag_check 2
core_0_itlb_max_fill 2
core_0_dtlb_set 16
core_0_dtlb_way 4
core_0_dtlb_rq_size 16
core_0_dtlb_wq_size 16
core_0_dtlb_pq_size 0
core_0_dtlb_mshr_size 8
core_0_dtlb_hit_latency 1
core_0_dtlb_fill_latency 1
core_0_dtlb_max_tag_check 2
core_0_dtlb_max_fill 2
core_0_stlb_set 128
core_0_stlb_way 12
core_0_stlb_rq_size 32
core_0_stlb_wq_size 32
core_0_stlb_pq_size 0
core_0_stlb_mshr_size 16
core_0_stlb_hit_latency 4
core_0_stlb_fill_latency 4
core_0_stlb_max_tag_check 1
core_0_stlb_max_fill 1
core_0_l1i_set 64
core_0_l1i_way 8
core_0_l1i_rq_size 64
core_0_l1i_wq_size 64
core_0_l1i_pq_size 32
core_0_l1i_mshr_size 8
core_0_l1i_hit_latency 2
core_0_l1i_fill_latency 2
core_0_l1i_max_tag_check 2
core_0_l1i_max_fill 2
core_0_l1d_set 64
core_0_l1d_way 12
core_0_l1d_rq_size 64
core_0_l1d_wq_size 64
core_0_l1d_pq_size 8
core_0_l1d_mshr_size 16
core_0_l1d_hit_latency 2
core_0_l1d_fill_latency 3
core_0_l1d_max_tag_check 2
core_0_l1d_max_fill 2
core_0_l2c_set 1024
core_0_l2c_way 8
core_0_l2c_rq_size 32
core_0_l2c_wq_size 32
core_0_l2c_pq_size 16
core_0_l2c_mshr_size 32
core_0_l2c_hit_latency 5
core_0_l2c_fill_latency 5
core_0_l2c_max_tag_check 1
core_0_l2c_max_fill 1
llc_set 2048
llc_way 16
llc_rq_size 32
llc_wq_size 32
llc_pq_size 32
llc_mshr_size 64
llc_hit_latency 10
llc_fill_latency 10
llc_max_tag_check 1
llc_max_fill 1
dram_channels 1
dram_ranks 1
dram_bankgroups 8
dram_banks 4
dram_rows 16384
dram_columns 1024
dram_channel_width 8
dram_rq_size 64
dram_wq_size 64
dram_size 4294967296
core_0_itlb_prefetcher no
core_0_dtlb_prefetcher no
core_0_stlb_prefetcher no
core_0_l1i_prefetcher next_line
core_0_l1d_prefetcher berti
core_0_l2c_prefetcher pythia
llc_prefetcher no
llc_replacement drrip

Core_0_instructions 50000002
Core_0_cycles 25317575
Core_0_IPC 1.97491
Core_0_branch_prediction_accuracy 99.8164
Core_0_branch_MPKI 0.32814
Core_0_average_ROB_occupancy_at_mispredict 271.478

Core_0_ITLB_total_access 2947304
Core_0_ITLB_total_hit 2947304
Core_0_ITLB_total_miss 0
Core_0_ITLB_total_MPKI 0
Core_0_ITLB_total_miss_rate 0
Core_0_ITLB_demand_access 2947304
Core_0_ITLB_demand_hit 2947304
Core_0_ITLB_demand_miss 0
Core_0_ITLB_demand_MPKI 0
Core_0_ITLB_demand_miss_rate 0
Core_0_ITLB_load_access 2947304
Core_0_ITLB_load_hit 2947304
Core_0_ITLB_load_miss 0
Core_0_ITLB_load_MPKI 0
Core_0_ITLB_load_miss_rate 0
Core_0_ITLB_rfo_access 0
Core_0_ITLB_rfo_hit 0
Core_0_ITLB_rfo_miss 0
Core_0_ITLB_rfo_MPKI 0
Core_0_ITLB_rfo_miss_rate 0
Core_0_ITLB_prefetch_access 0
Core_0_ITLB_prefetch_hit 0
Core_0_ITLB_prefetch_miss 0
Core_0_ITLB_prefetch_MPKI 0
Core_0_ITLB_prefetch_miss_rate 0
Core_0_ITLB_writeback_access 0
Core_0_ITLB_writeback_hit 0
Core_0_ITLB_writeback_miss 0
Core_0_ITLB_writeback_MPKI 0
Core_0_ITLB_writeback_miss_rate 0
Core_0_ITLB_prefetch_requested 0
Core_0_ITLB_prefetch_issued 0
Core_0_ITLB_prefetch_useful 0
Core_0_ITLB_prefetch_useless 0
Core_0_ITLB_prefetch_late 0
Core_0_ITLB_prefetch_accuracy 0
Core_0_ITLB_prefetch_coverage 0

Core_0_DTLB_total_access 11313179
Core_0_DTLB_total_hit 11274864
Core_0_DTLB_total_miss 38315
Core_0_DTLB_total_MPKI 0.7663
Core_0_DTLB_total_miss_rate 0.00338676
Core_0_DTLB_demand_access 11313179
Core_0_DTLB_demand_hit 11274864
Core_0_DTLB_demand_miss 38315
Core_0_DTLB_demand_MPKI 0.7663
Core_0_DTLB_demand_miss_rate 0.00338676
Core_0_DTLB_load_access 11313179
Core_0_DTLB_load_hit 11274864
Core_0_DTLB_load_miss 38315
Core_0_DTLB_load_MPKI 0.7663
Core_0_DTLB_load_miss_rate 0.00338676
Core_0_DTLB_rfo_access 0
Core_0_DTLB_rfo_hit 0
Core_0_DTLB_rfo_miss 0
Core_0_DTLB_rfo_MPKI 0
Core_0_DTLB_rfo_miss_rate 0
Core_0_DTLB_prefetch_access 0
Core_0_DTLB_prefetch_hit 0
Core_0_DTLB_prefetch_miss 0
Core_0_DTLB_prefetch_MPKI 0
Core_0_DTLB_prefetch_miss_rate 0
Core_0_DTLB_writeback_access 0
Core_0_DTLB_writeback_hit 0
Core_0_DTLB_writeback_miss 0
Core_0_DTLB_writeback_MPKI 0
Core_0_DTLB_writeback_miss_rate 0
Core_0_DTLB_prefetch_requested 0
Core_0_DTLB_prefetch_issued 0
Core_0_DTLB_prefetch_useful 0
Core_0_DTLB_prefetch_useless 0
Core_0_DTLB_prefetch_late 0
Core_0_DTLB_prefetch_accuracy 0
Core_0_DTLB_prefetch_coverage 0

Core_0_STLB_total_access 18529
Core_0_STLB_total_hit 18529
Core_0_STLB_total_miss 0
Core_0_STLB_total_MPKI 0
Core_0_STLB_total_miss_rate 0
Core_0_STLB_demand_access 18529
Core_0_STLB_demand_hit 18529
Core_0_STLB_demand_miss 0
Core_0_STLB_demand_MPKI 0
Core_0_STLB_demand_miss_rate 0
Core_0_STLB_load_access 18529
Core_0_STLB_load_hit 18529
Core_0_STLB_load_miss 0
Core_0_STLB_load_MPKI 0
Core_0_STLB_load_miss_rate 0
Core_0_STLB_rfo_access 0
Core_0_STLB_rfo_hit 0
Core_0_STLB_rfo_miss 0
Core_0_STLB_rfo_MPKI 0
Core_0_STLB_rfo_miss_rate 0
Core_0_STLB_prefetch_access 0
Core_0_STLB_prefetch_hit 0
Core_0_STLB_prefetch_miss 0
Core_0_STLB_prefetch_MPKI 0
Core_0_STLB_prefetch_miss_rate 0
Core_0_STLB_writeback_access 0
Core_0_STLB_writeback_hit 0
Core_0_STLB_writeback_miss 0
Core_0_STLB_writeback_MPKI 0
Core_0_STLB_writeback_miss_rate 0
Core_0_STLB_prefetch_requested 0
Core_0_STLB_prefetch_issued 0
Core_0_STLB_prefetch_useful 0
Core_0_STLB_prefetch_useless 0
Core_0_STLB_prefetch_late 0
Core_0_STLB_prefetch_accuracy 0
Core_0_STLB_prefetch_coverage 0

Core_0_L1I_total_access 4149994
Core_0_L1I_total_hit 4149990
Core_0_L1I_total_miss 4
Core_0_L1I_total_MPKI 8e-05
Core_0_L1I_total_miss_rate 9.63857e-07
Core_0_L1I_demand_access 4149994
Core_0_L1I_demand_hit 4149990
Core_0_L1I_demand_miss 4
Core_0_L1I_demand_MPKI 8e-05
Core_0_L1I_demand_miss_rate 9.63857e-07
Core_0_L1I_load_access 4149994
Core_0_L1I_load_hit 4149990
Core_0_L1I_load_miss 4
Core_0_L1I_load_MPKI 8e-05
Core_0_L1I_load_miss_rate 9.63857e-07
Core_0_L1I_rfo_access 0
Core_0_L1I_rfo_hit 0
Core_0_L1I_rfo_miss 0
Core_0_L1I_rfo_MPKI 0
Core_0_L1I_rfo_miss_rate 0
Core_0_L1I_prefetch_access 0
Core_0_L1I_prefetch_hit 0
Core_0_L1I_prefetch_miss 0
Core_0_L1I_prefetch_MPKI 0
Core_0_L1I_prefetch_miss_rate 0
Core_0_L1I_writeback_access 0
Core_0_L1I_writeback_hit 0
Core_0_L1I_writeback_miss 0
Core_0_L1I_writeback_MPKI 0
Core_0_L1I_writeback_miss_rate 0
Core_0_L1I_prefetch_requested 0
Core_0_L1I_prefetch_issued 0
Core_0_L1I_prefetch_useful 0
Core_0_L1I_prefetch_useless 0
Core_0_L1I_prefetch_late 0
Core_0_L1I_prefetch_accuracy 0
Core_0_L1I_prefetch_coverage 0

Core_0_L1D_total_access 12301430
Core_0_L1D_total_hit 9482448
Core_0_L1D_total_miss 2818982
Core_0_L1D_total_MPKI 56.3796
Core_0_L1D_total_miss_rate 0.229159
Core_0_L1D_demand_access 10568626
Core_0_L1D_demand_hit 8910744
Core_0_L1D_demand_miss 1657882
Core_0_L1D_demand_MPKI 33.1576
Core_0_L1D_demand_miss_rate 0.156868
Core_0_L1D_load_access 10568626
Core_0_L1D_load_hit 8910744
Core_0_L1D_load_miss 1657882
Core_0_L1D_load_MPKI 33.1576
Core_0_L1D_load_miss_rate 0.156868
Core_0_L1D_rfo_access 0
Core_0_L1D_rfo_hit 0
Core_0_L1D_rfo_miss 0
Core_0_L1D_rfo_MPKI 0
Core_0_L1D_rfo_miss_rate 0
Core_0_L1D_prefetch_access 1169268
Core_0_L1D_prefetch_hit 8205
Core_0_L1D_prefetch_miss 1161063
Core_0_L1D_prefetch_MPKI 23.2213
Core_0_L1D_prefetch_miss_rate 0.992983
Core_0_L1D_writeback_access 563536
Core_0_L1D_writeback_hit 563499
Core_0_L1D_writeback_miss 37
Core_0_L1D_writeback_MPKI 0.00074
Core_0_L1D_writeback_miss_rate 6.56569e-05
Core_0_L1D_prefetch_requested 1195006
Core_0_L1D_prefetch_issued 1169265
Core_0_L1D_prefetch_useful 1107084
Core_0_L1D_prefetch_useless 24
Core_0_L1D_prefetch_late 460193
Core_0_L1D_prefetch_accuracy 0.94682
Core_0_L1D_prefetch_coverage 0.400397

Core_0_L2C_total_access 6964197
Core_0_L2C_total_hit 645680
Core_0_L2C_total_miss 6318517
Core_0_L2C_total_MPKI 126.37
Core_0_L2C_total_miss_rate 0.907286
Core_0_L2C_demand_access 78297
Core_0_L2C_demand_hit 22268
Core_0_L2C_demand_miss 56029
Core_0_L2C_demand_MPKI 1.12058
Core_0_L2C_demand_miss_rate 0.715596
Core_0_L2C_load_access 78285
Core_0_L2C_load_hit 22268
Core_0_L2C_load_miss 56017
Core_0_L2C_load_MPKI 1.12034
Core_0_L2C_load_miss_rate 0.715552
Core_0_L2C_rfo_access 12
Core_0_L2C_rfo_hit 0
Core_0_L2C_rfo_miss 12
Core_0_L2C_rfo_MPKI 0.00024
Core_0_L2C_rfo_miss_rate 1
Core_0_L2C_prefetch_access 6732728
Core_0_L2C_prefetch_hit 470240
Core_0_L2C_prefetch_miss 6262488
Core_0_L2C_prefetch_MPKI 125.25
Core_0_L2C_prefetch_miss_rate 0.930156
Core_0_L2C_writeback_access 153172
Core_0_L2C_writeback_hit 153172
Core_0_L2C_writeback_miss 0
Core_0_L2C_writeback_MPKI 0
Core_0_L2C_writeback_miss_rate 0
Core_0_L2C_prefetch_requested 6095221
Core_0_L2C_prefetch_issued 5625623
Core_0_L2C_prefetch_useful 242557
Core_0_L2C_prefetch_useless 765790
Core_0_L2C_prefetch_late 25650
Core_0_L2C_prefetch_accuracy 0.0431165
Core_0_L2C_prefetch_coverage 0.812352

Core_0_LLC_total_access 1338580
Core_0_LLC_total_hit 65600
Core_0_LLC_total_miss 1272980
Core_0_LLC_total_MPKI 25.4596
Core_0_LLC_total_miss_rate 0.950993
Core_0_LLC_demand_access 30379
Core_0_LLC_demand_hit 823
Core_0_LLC_demand_miss 29556
Core_0_LLC_demand_MPKI 0.59112
Core_0_LLC_demand_miss_rate 0.972909
Core_0_LLC_load_access 30367
Core_0_LLC_load_hit 819
Core_0_LLC_load_miss 29548
Core_0_LLC_load_MPKI 0.59096
Core_0_LLC_load_miss_rate 0.97303
Core_0_LLC_rfo_access 12
Core_0_LLC_rfo_hit 4
Core_0_LLC_rfo_miss 8
Core_0_LLC_rfo_MPKI 0.00016
Core_0_LLC_rfo_miss_rate 0.666667
Core_0_LLC_prefetch_access 1155030
Core_0_LLC_prefetch_hit 33074
Core_0_LLC_prefetch_miss 1121956
Core_0_LLC_prefetch_MPKI 22.4391
Core_0_LLC_prefetch_miss_rate 0.971365
Core_0_LLC_writeback_access 153171
Core_0_LLC_writeback_hit 31703
Core_0_LLC_writeback_miss 121468
Core_0_LLC_writeback_MPKI 2.42936
Core_0_LLC_writeback_miss_rate 0.793022
Core_0_LLC_prefetch_requested 0
Core_0_LLC_prefetch_issued 0
Core_0_LLC_prefetch_useful 0
Core_0_LLC_prefetch_useless 0
Core_0_LLC_prefetch_late 0
Core_0_LLC_prefetch_accuracy 0
Core_0_LLC_prefetch_coverage 0

[DRAM Statistics]
Channel_0_RQ_row_buffer_hit 402728
Channel_0_RQ_row_buffer_miss 748684
Channel_0_WQ_row_buffer_hit 18759
Channel_0_WQ_row_buffer_miss 138011
Channel_0_WQ_full 0
Channel_0_dbus_congested 3611994
DRAM_total_RQ_row_buffer_hit 402728
DRAM_total_RQ_row_buffer_miss 748684
DRAM_total_WQ_row_buffer_hit 18759
DRAM_total_WQ_row_buffer_miss 138011
DRAM_total_WQ_full 0
DRAM_total_dbus_congested 3611994
DRAM_avg_congested_cycle 4.43086

======STLB miss causes ========
Core_0_STLB_miss_cause_breakdown
Core_0_STLB_cause_Demand_Data_miss 0
Core_0_STLB_cause_Demand_Data_miss_rate 0
Core_0_STLB_cause_Demand_Instruction_miss 0
Core_0_STLB_cause_Demand_Instruction_miss_rate 0
Core_0_STLB_cause_L1D_Prefetch_miss 0
Core_0_STLB_cause_L1D_Prefetch_miss_rate 0
Core_0_STLB_cause_L1I_Prefetch_miss 0
Core_0_STLB_cause_L1I_Prefetch_miss_rate 0
Core_0_STLB_cause_Other_miss 0
Core_0_STLB_cause_Other_miss_rate 0
Core_0_STLB_Demand_miss 0
Core_0_STLB_Demand_miss_rate 0
Core_0_STLB_L1D_Prefetch_miss 0
Core_0_STLB_L1D_Prefetch_miss_rate 0
Core_0_STLB_Other_miss 0
Core_0_STLB_Other_miss_rate 0
