[VMEM] WARNING: physical memory size is smaller than virtual memory size.

*** ChampSim Multicore Out-of-Order Simulator ***
Warmup Instructions: 20000000
Simulation Instructions: 50000000
Number of CPUs: 1
Page size: 4096
STLB ideal mode: all
Core 0: /data0/tzh/champsim_traces/SPEC17/603.bwaves_s-5359B.champsimtrace.xz
 L1D Berti prefetcher
Off-chip DRAM Size: 4 GiB Channels: 1 Width: 64-bit Data Rate: 3205 MT/s
Warmup halting CPU 0 at instruction 20000002 cycle 4503553 for remainder of phase
Warmup finished CPU 0 instructions: 20000002 cycles: 4503553 cumulative IPC: 4.441 (Simulation time: 00 hr 00 min 44 sec)
Warmup complete CPU 0 instructions: 20000002 cycles: 4503553 cumulative IPC: 4.441 (Simulation time: 00 hr 00 min 44 sec)
Simulation finished CPU 0 instructions: 50000003 cycles: 20245800 cumulative IPC: 2.47 (Simulation time: 00 hr 03 min 17 sec)
Simulation complete CPU 0 instructions: 50000003 cycles: 20245800 cumulative IPC: 2.47 (Simulation time: 00 hr 03 min 17 sec)

ChampSim completed all CPUs

=== Simulation ===
CPU 0 runs /data0/tzh/champsim_traces/SPEC17/603.bwaves_s-5359B.champsimtrace.xz

Region of Interest Statistics

CPU 0 cumulative IPC: 2.47 instructions: 50000003 cycles: 20245800
CPU 0 Branch Prediction Accuracy: 89.81% MPKI: 14.71 Average ROB Occupancy at Mispredict: 42.04
Branch type MPKI
BRANCH_DIRECT_JUMP: 0.04534
BRANCH_INDIRECT: 0
BRANCH_CONDITIONAL: 14.62
BRANCH_DIRECT_CALL: 0
BRANCH_INDIRECT_CALL: 0
BRANCH_RETURN: 0.04162

cpu0->cpu0_STLB TOTAL        ACCESS:         36 HIT:         36 MISS:          0 MSHR_MERGE:          0
cpu0->cpu0_STLB LOAD         ACCESS:         36 HIT:         36 MISS:          0 MSHR_MERGE:          0
cpu0->cpu0_STLB RFO          ACCESS:          0 HIT:          0 MISS:          0 MSHR_MERGE:          0
cpu0->cpu0_STLB PREFETCH     ACCESS:          0 HIT:          0 MISS:          0 MSHR_MERGE:          0
cpu0->cpu0_STLB WRITE        ACCESS:          0 HIT:          0 MISS:          0 MSHR_MERGE:          0
cpu0->cpu0_STLB TRANSLATION  ACCESS:          0 HIT:          0 MISS:          0 MSHR_MERGE:          0
cpu0->cpu0_STLB PREFETCH REQUESTED:          0 ISSUED:          0 USEFUL:          0 USELESS:          0 LATE:          0
cpu0->cpu0_STLB AVERAGE MISS LATENCY: - cycles
cpu0->cpu0_L2C TOTAL        ACCESS:       5586 HIT:       3327 MISS:       2259 MSHR_MERGE:         14
cpu0->cpu0_L2C LOAD         ACCESS:         43 HIT:         39 MISS:          4 MSHR_MERGE:          0
cpu0->cpu0_L2C RFO          ACCESS:       2004 HIT:         77 MISS:       1927 MSHR_MERGE:          0
cpu0->cpu0_L2C PREFETCH     ACCESS:       1498 HIT:       1170 MISS:        328 MSHR_MERGE:         14
cpu0->cpu0_L2C WRITE        ACCESS:       2041 HIT:       2041 MISS:          0 MSHR_MERGE:          0
cpu0->cpu0_L2C TRANSLATION  ACCESS:          0 HIT:          0 MISS:          0 MSHR_MERGE:          0
cpu0->cpu0_L2C PREFETCH REQUESTED:       1241 ISSUED:       1241 USEFUL:        277 USELESS:          7 LATE:          0
cpu0->cpu0_L2C AVERAGE MISS LATENCY: 215.3 cycles
cpu0->cpu0_L1I TOTAL        ACCESS:      86629 HIT:      86629 MISS:          0 MSHR_MERGE:          0
cpu0->cpu0_L1I LOAD         ACCESS:      86629 HIT:      86629 MISS:          0 MSHR_MERGE:          0
cpu0->cpu0_L1I RFO          ACCESS:          0 HIT:          0 MISS:          0 MSHR_MERGE:          0
cpu0->cpu0_L1I PREFETCH     ACCESS:          0 HIT:          0 MISS:          0 MSHR_MERGE:          0
cpu0->cpu0_L1I WRITE        ACCESS:          0 HIT:          0 MISS:          0 MSHR_MERGE:          0
cpu0->cpu0_L1I TRANSLATION  ACCESS:          0 HIT:          0 MISS:          0 MSHR_MERGE:          0
cpu0->cpu0_L1I PREFETCH REQUESTED:          0 ISSUED:          0 USEFUL:          0 USELESS:          0 LATE:          0
cpu0->cpu0_L1I AVERAGE MISS LATENCY: - cycles
cpu0->cpu0_L1D TOTAL        ACCESS:   11278174 HIT:   11263951 MISS:      14223 MSHR_MERGE:      11919
cpu0->cpu0_L1D LOAD         ACCESS:    9563704 HIT:    9563635 MISS:         69 MSHR_MERGE:         26
cpu0->cpu0_L1D RFO          ACCESS:          0 HIT:          0 MISS:          0 MSHR_MERGE:          0
cpu0->cpu0_L1D PREFETCH     ACCESS:        555 HIT:        293 MISS:        262 MSHR_MERGE:          5
cpu0->cpu0_L1D WRITE        ACCESS:    1713915 HIT:    1700023 MISS:      13892 MSHR_MERGE:      11888
cpu0->cpu0_L1D TRANSLATION  ACCESS:          0 HIT:          0 MISS:          0 MSHR_MERGE:          0
cpu0->cpu0_L1D PREFETCH REQUESTED:        561 ISSUED:        555 USEFUL:        244 USELESS:         24 LATE:         10
cpu0->cpu0_L1D AVERAGE MISS LATENCY: 211.5 cycles
cpu0->cpu0_ITLB TOTAL        ACCESS:      69199 HIT:      69199 MISS:          0 MSHR_MERGE:          0
cpu0->cpu0_ITLB LOAD         ACCESS:      69199 HIT:      69199 MISS:          0 MSHR_MERGE:          0
cpu0->cpu0_ITLB RFO          ACCESS:          0 HIT:          0 MISS:          0 MSHR_MERGE:          0
cpu0->cpu0_ITLB PREFETCH     ACCESS:          0 HIT:          0 MISS:          0 MSHR_MERGE:          0
cpu0->cpu0_ITLB WRITE        ACCESS:          0 HIT:          0 MISS:          0 MSHR_MERGE:          0
cpu0->cpu0_ITLB TRANSLATION  ACCESS:          0 HIT:          0 MISS:          0 MSHR_MERGE:          0
cpu0->cpu0_ITLB PREFETCH REQUESTED:          0 ISSUED:          0 USEFUL:          0 USELESS:          0 LATE:          0
cpu0->cpu0_ITLB AVERAGE MISS LATENCY: - cycles
cpu0->cpu0_DTLB TOTAL        ACCESS:   10726509 HIT:   10726362 MISS:        147 MSHR_MERGE:        111
cpu0->cpu0_DTLB LOAD         ACCESS:   10726509 HIT:   10726362 MISS:        147 MSHR_MERGE:        111
cpu0->cpu0_DTLB RFO          ACCESS:          0 HIT:          0 MISS:          0 MSHR_MERGE:          0
cpu0->cpu0_DTLB PREFETCH     ACCESS:          0 HIT:          0 MISS:          0 MSHR_MERGE:          0
cpu0->cpu0_DTLB WRITE        ACCESS:          0 HIT:          0 MISS:          0 MSHR_MERGE:          0
cpu0->cpu0_DTLB TRANSLATION  ACCESS:          0 HIT:          0 MISS:          0 MSHR_MERGE:          0
cpu0->cpu0_DTLB PREFETCH REQUESTED:          0 ISSUED:          0 USEFUL:          0 USELESS:          0 LATE:          0
cpu0->cpu0_DTLB AVERAGE MISS LATENCY: 5 cycles
cpu0->LLC TOTAL        ACCESS:       4385 HIT:       1730 MISS:       2655 MSHR_MERGE:          0
cpu0->LLC LOAD         ACCESS:          4 HIT:          1 MISS:          3 MSHR_MERGE:          0
cpu0->LLC RFO          ACCESS:       1927 HIT:          0 MISS:       1927 MSHR_MERGE:          0
cpu0->LLC PREFETCH     ACCESS:        314 HIT:         12 MISS:        302 MSHR_MERGE:          0
cpu0->LLC WRITE        ACCESS:       2140 HIT:       1717 MISS:        423 MSHR_MERGE:          0
cpu0->LLC TRANSLATION  ACCESS:          0 HIT:          0 MISS:          0 MSHR_MERGE:          0
cpu0->LLC PREFETCH REQUESTED:          0 ISSUED:          0 USEFUL:          0 USELESS:          0 LATE:          0
cpu0->LLC AVERAGE MISS LATENCY: 165.2 cycles

DRAM Statistics

Channel 0 RQ ROW_BUFFER_HIT:          9
  ROW_BUFFER_MISS:       2223
  AVG DBUS CONGESTED CYCLE: 6.062
Channel 0 WQ ROW_BUFFER_HIT:         51
  ROW_BUFFER_MISS:        436
  FULL:          0
Channel 0 REFRESHES ISSUED:       1687

[ROI Statistics]
[System Configuration]
num_cpus 1
cpu_freq 4000
fetch_width 6
decode_width 6
dispatch_width 6
execute_width 6
lq_width 2
sq_width 2
retire_width 6
scheduler_size 160
branch_mispredict_penalty 1
rob_size 352
lq_size 240
sq_size 112
ifetch_buffer_size 64
decode_buffer_size 32
dispatch_buffer_size 32
register_file_size 288
decode_latency 1
dispatch_latency 1
schedule_latency 0
execute_latency 0
page_size 4096
block_size 64
core_0_itlb_set 16
core_0_itlb_way 4
core_0_itlb_rq_size 16
core_0_itlb_wq_size 16
core_0_itlb_pq_size 0
core_0_itlb_mshr_size 8
core_0_itlb_hit_latency 1
core_0_itlb_fill_latency 1
core_0_itlb_max_tag_check 2
core_0_itlb_max_fill 2
core_0_dtlb_set 16
core_0_dtlb_way 4
core_0_dtlb_rq_size 16
core_0_dtlb_wq_size 16
core_0_dtlb_pq_size 0
core_0_dtlb_mshr_size 8
core_0_dtlb_hit_latency 1
core_0_dtlb_fill_latency 1
core_0_dtlb_max_tag_check 2
core_0_dtlb_max_fill 2
core_0_stlb_set 128
core_0_stlb_way 12
core_0_stlb_rq_size 32
core_0_stlb_wq_size 32
core_0_stlb_pq_size 0
core_0_stlb_mshr_size 16
core_0_stlb_hit_latency 4
core_0_stlb_fill_latency 4
core_0_stlb_max_tag_check 1
core_0_stlb_max_fill 1
core_0_l1i_set 64
core_0_l1i_way 8
core_0_l1i_rq_size 64
core_0_l1i_wq_size 64
core_0_l1i_pq_size 32
core_0_l1i_mshr_size 8
core_0_l1i_hit_latency 2
core_0_l1i_fill_latency 2
core_0_l1i_max_tag_check 2
core_0_l1i_max_fill 2
core_0_l1d_set 64
core_0_l1d_way 12
core_0_l1d_rq_size 64
core_0_l1d_wq_size 64
core_0_l1d_pq_size 8
core_0_l1d_mshr_size 16
core_0_l1d_hit_latency 2
core_0_l1d_fill_latency 3
core_0_l1d_max_tag_check 2
core_0_l1d_max_fill 2
core_0_l2c_set 1024
core_0_l2c_way 8
core_0_l2c_rq_size 32
core_0_l2c_wq_size 32
core_0_l2c_pq_size 16
core_0_l2c_mshr_size 32
core_0_l2c_hit_latency 5
core_0_l2c_fill_latency 5
core_0_l2c_max_tag_check 1
core_0_l2c_max_fill 1
llc_set 2048
llc_way 16
llc_rq_size 32
llc_wq_size 32
llc_pq_size 32
llc_mshr_size 64
llc_hit_latency 10
llc_fill_latency 10
llc_max_tag_check 1
llc_max_fill 1
dram_channels 1
dram_ranks 1
dram_bankgroups 8
dram_banks 4
dram_rows 16384
dram_columns 1024
dram_channel_width 8
dram_rq_size 64
dram_wq_size 64
dram_size 4294967296
core_0_itlb_prefetcher no
core_0_dtlb_prefetcher no
core_0_stlb_prefetcher no
core_0_l1i_prefetcher next_line
core_0_l1d_prefetcher berti
core_0_l2c_prefetcher pythia
llc_prefetcher no
llc_replacement drrip

Core_0_instructions 50000003
Core_0_cycles 20245800
Core_0_IPC 2.46965
Core_0_branch_prediction_accuracy 89.8058
Core_0_branch_MPKI 14.7079
Core_0_average_ROB_occupancy_at_mispredict 42.0445

Core_0_ITLB_total_access 69199
Core_0_ITLB_total_hit 69199
Core_0_ITLB_total_miss 0
Core_0_ITLB_total_MPKI 0
Core_0_ITLB_total_miss_rate 0
Core_0_ITLB_demand_access 69199
Core_0_ITLB_demand_hit 69199
Core_0_ITLB_demand_miss 0
Core_0_ITLB_demand_MPKI 0
Core_0_ITLB_demand_miss_rate 0
Core_0_ITLB_load_access 69199
Core_0_ITLB_load_hit 69199
Core_0_ITLB_load_miss 0
Core_0_ITLB_load_MPKI 0
Core_0_ITLB_load_miss_rate 0
Core_0_ITLB_rfo_access 0
Core_0_ITLB_rfo_hit 0
Core_0_ITLB_rfo_miss 0
Core_0_ITLB_rfo_MPKI 0
Core_0_ITLB_rfo_miss_rate 0
Core_0_ITLB_prefetch_access 0
Core_0_ITLB_prefetch_hit 0
Core_0_ITLB_prefetch_miss 0
Core_0_ITLB_prefetch_MPKI 0
Core_0_ITLB_prefetch_miss_rate 0
Core_0_ITLB_writeback_access 0
Core_0_ITLB_writeback_hit 0
Core_0_ITLB_writeback_miss 0
Core_0_ITLB_writeback_MPKI 0
Core_0_ITLB_writeback_miss_rate 0
Core_0_ITLB_prefetch_requested 0
Core_0_ITLB_prefetch_issued 0
Core_0_ITLB_prefetch_useful 0
Core_0_ITLB_prefetch_useless 0
Core_0_ITLB_prefetch_late 0
Core_0_ITLB_prefetch_accuracy 0
Core_0_ITLB_prefetch_coverage 0

Core_0_DTLB_total_access 10726509
Core_0_DTLB_total_hit 10726362
Core_0_DTLB_total_miss 147
Core_0_DTLB_total_MPKI 0.00294
Core_0_DTLB_total_miss_rate 1.37044e-05
Core_0_DTLB_demand_access 10726509
Core_0_DTLB_demand_hit 10726362
Core_0_DTLB_demand_miss 147
Core_0_DTLB_demand_MPKI 0.00294
Core_0_DTLB_demand_miss_rate 1.37044e-05
Core_0_DTLB_load_access 10726509
Core_0_DTLB_load_hit 10726362
Core_0_DTLB_load_miss 147
Core_0_DTLB_load_MPKI 0.00294
Core_0_DTLB_load_miss_rate 1.37044e-05
Core_0_DTLB_rfo_access 0
Core_0_DTLB_rfo_hit 0
Core_0_DTLB_rfo_miss 0
Core_0_DTLB_rfo_MPKI 0
Core_0_DTLB_rfo_miss_rate 0
Core_0_DTLB_prefetch_access 0
Core_0_DTLB_prefetch_hit 0
Core_0_DTLB_prefetch_miss 0
Core_0_DTLB_prefetch_MPKI 0
Core_0_DTLB_prefetch_miss_rate 0
Core_0_DTLB_writeback_access 0
Core_0_DTLB_writeback_hit 0
Core_0_DTLB_writeback_miss 0
Core_0_DTLB_writeback_MPKI 0
Core_0_DTLB_writeback_miss_rate 0
Core_0_DTLB_prefetch_requested 0
Core_0_DTLB_prefetch_issued 0
Core_0_DTLB_prefetch_useful 0
Core_0_DTLB_prefetch_useless 0
Core_0_DTLB_prefetch_late 0
Core_0_DTLB_prefetch_accuracy 0
Core_0_DTLB_prefetch_coverage 0

Core_0_STLB_total_access 36
Core_0_STLB_total_hit 36
Core_0_STLB_total_miss 0
Core_0_STLB_total_MPKI 0
Core_0_STLB_total_miss_rate 0
Core_0_STLB_demand_access 36
Core_0_STLB_demand_hit 36
Core_0_STLB_demand_miss 0
Core_0_STLB_demand_MPKI 0
Core_0_STLB_demand_miss_rate 0
Core_0_STLB_load_access 36
Core_0_STLB_load_hit 36
Core_0_STLB_load_miss 0
Core_0_STLB_load_MPKI 0
Core_0_STLB_load_miss_rate 0
Core_0_STLB_rfo_access 0
Core_0_STLB_rfo_hit 0
Core_0_STLB_rfo_miss 0
Core_0_STLB_rfo_MPKI 0
Core_0_STLB_rfo_miss_rate 0
Core_0_STLB_prefetch_access 0
Core_0_STLB_prefetch_hit 0
Core_0_STLB_prefetch_miss 0
Core_0_STLB_prefetch_MPKI 0
Core_0_STLB_prefetch_miss_rate 0
Core_0_STLB_writeback_access 0
Core_0_STLB_writeback_hit 0
Core_0_STLB_writeback_miss 0
Core_0_STLB_writeback_MPKI 0
Core_0_STLB_writeback_miss_rate 0
Core_0_STLB_prefetch_requested 0
Core_0_STLB_prefetch_issued 0
Core_0_STLB_prefetch_useful 0
Core_0_STLB_prefetch_useless 0
Core_0_STLB_prefetch_late 0
Core_0_STLB_prefetch_accuracy 0
Core_0_STLB_prefetch_coverage 0

Core_0_L1I_total_access 86629
Core_0_L1I_total_hit 86629
Core_0_L1I_total_miss 0
Core_0_L1I_total_MPKI 0
Core_0_L1I_total_miss_rate 0
Core_0_L1I_demand_access 86629
Core_0_L1I_demand_hit 86629
Core_0_L1I_demand_miss 0
Core_0_L1I_demand_MPKI 0
Core_0_L1I_demand_miss_rate 0
Core_0_L1I_load_access 86629
Core_0_L1I_load_hit 86629
Core_0_L1I_load_miss 0
Core_0_L1I_load_MPKI 0
Core_0_L1I_load_miss_rate 0
Core_0_L1I_rfo_access 0
Core_0_L1I_rfo_hit 0
Core_0_L1I_rfo_miss 0
Core_0_L1I_rfo_MPKI 0
Core_0_L1I_rfo_miss_rate 0
Core_0_L1I_prefetch_access 0
Core_0_L1I_prefetch_hit 0
Core_0_L1I_prefetch_miss 0
Core_0_L1I_prefetch_MPKI 0
Core_0_L1I_prefetch_miss_rate 0
Core_0_L1I_writeback_access 0
Core_0_L1I_writeback_hit 0
Core_0_L1I_writeback_miss 0
Core_0_L1I_writeback_MPKI 0
Core_0_L1I_writeback_miss_rate 0
Core_0_L1I_prefetch_requested 0
Core_0_L1I_prefetch_issued 0
Core_0_L1I_prefetch_useful 0
Core_0_L1I_prefetch_useless 0
Core_0_L1I_prefetch_late 0
Core_0_L1I_prefetch_accuracy 0
Core_0_L1I_prefetch_coverage 0

Core_0_L1D_total_access 11278174
Core_0_L1D_total_hit 11263951
Core_0_L1D_total_miss 14223
Core_0_L1D_total_MPKI 0.28446
Core_0_L1D_total_miss_rate 0.00126111
Core_0_L1D_demand_access 9563704
Core_0_L1D_demand_hit 9563635
Core_0_L1D_demand_miss 69
Core_0_L1D_demand_MPKI 0.00138
Core_0_L1D_demand_miss_rate 7.21478e-06
Core_0_L1D_load_access 9563704
Core_0_L1D_load_hit 9563635
Core_0_L1D_load_miss 69
Core_0_L1D_load_MPKI 0.00138
Core_0_L1D_load_miss_rate 7.21478e-06
Core_0_L1D_rfo_access 0
Core_0_L1D_rfo_hit 0
Core_0_L1D_rfo_miss 0
Core_0_L1D_rfo_MPKI 0
Core_0_L1D_rfo_miss_rate 0
Core_0_L1D_prefetch_access 555
Core_0_L1D_prefetch_hit 293
Core_0_L1D_prefetch_miss 262
Core_0_L1D_prefetch_MPKI 0.00524
Core_0_L1D_prefetch_miss_rate 0.472072
Core_0_L1D_writeback_access 1713915
Core_0_L1D_writeback_hit 1700023
Core_0_L1D_writeback_miss 13892
Core_0_L1D_writeback_MPKI 0.27784
Core_0_L1D_writeback_miss_rate 0.00810542
Core_0_L1D_prefetch_requested 561
Core_0_L1D_prefetch_issued 555
Core_0_L1D_prefetch_useful 244
Core_0_L1D_prefetch_useless 24
Core_0_L1D_prefetch_late 10
Core_0_L1D_prefetch_accuracy 0.43964
Core_0_L1D_prefetch_coverage 0.779553

Core_0_L2C_total_access 5586
Core_0_L2C_total_hit 3327
Core_0_L2C_total_miss 2259
Core_0_L2C_total_MPKI 0.04518
Core_0_L2C_total_miss_rate 0.404404
Core_0_L2C_demand_access 2047
Core_0_L2C_demand_hit 116
Core_0_L2C_demand_miss 1931
Core_0_L2C_demand_MPKI 0.03862
Core_0_L2C_demand_miss_rate 0.943332
Core_0_L2C_load_access 43
Core_0_L2C_load_hit 39
Core_0_L2C_load_miss 4
Core_0_L2C_load_MPKI 8e-05
Core_0_L2C_load_miss_rate 0.0930233
Core_0_L2C_rfo_access 2004
Core_0_L2C_rfo_hit 77
Core_0_L2C_rfo_miss 1927
Core_0_L2C_rfo_MPKI 0.03854
Core_0_L2C_rfo_miss_rate 0.961577
Core_0_L2C_prefetch_access 1498
Core_0_L2C_prefetch_hit 1170
Core_0_L2C_prefetch_miss 328
Core_0_L2C_prefetch_MPKI 0.00656
Core_0_L2C_prefetch_miss_rate 0.218959
Core_0_L2C_writeback_access 2041
Core_0_L2C_writeback_hit 2041
Core_0_L2C_writeback_miss 0
Core_0_L2C_writeback_MPKI 0
Core_0_L2C_writeback_miss_rate 0
Core_0_L2C_prefetch_requested 1241
Core_0_L2C_prefetch_issued 1241
Core_0_L2C_prefetch_useful 277
Core_0_L2C_prefetch_useless 7
Core_0_L2C_prefetch_late 0
Core_0_L2C_prefetch_accuracy 0.223207
Core_0_L2C_prefetch_coverage 0.125453

Core_0_LLC_total_access 4385
Core_0_LLC_total_hit 1730
Core_0_LLC_total_miss 2655
Core_0_LLC_total_MPKI 0.0531
Core_0_LLC_total_miss_rate 0.605473
Core_0_LLC_demand_access 1931
Core_0_LLC_demand_hit 1
Core_0_LLC_demand_miss 1930
Core_0_LLC_demand_MPKI 0.0386
Core_0_LLC_demand_miss_rate 0.999482
Core_0_LLC_load_access 4
Core_0_LLC_load_hit 1
Core_0_LLC_load_miss 3
Core_0_LLC_load_MPKI 6e-05
Core_0_LLC_load_miss_rate 0.75
Core_0_LLC_rfo_access 1927
Core_0_LLC_rfo_hit 0
Core_0_LLC_rfo_miss 1927
Core_0_LLC_rfo_MPKI 0.03854
Core_0_LLC_rfo_miss_rate 1
Core_0_LLC_prefetch_access 314
Core_0_LLC_prefetch_hit 12
Core_0_LLC_prefetch_miss 302
Core_0_LLC_prefetch_MPKI 0.00604
Core_0_LLC_prefetch_miss_rate 0.961783
Core_0_LLC_writeback_access 2140
Core_0_LLC_writeback_hit 1717
Core_0_LLC_writeback_miss 423
Core_0_LLC_writeback_MPKI 0.00846
Core_0_LLC_writeback_miss_rate 0.197664
Core_0_LLC_prefetch_requested 0
Core_0_LLC_prefetch_issued 0
Core_0_LLC_prefetch_useful 0
Core_0_LLC_prefetch_useless 0
Core_0_LLC_prefetch_late 0
Core_0_LLC_prefetch_accuracy 0
Core_0_LLC_prefetch_coverage 0

[DRAM Statistics]
Channel_0_RQ_row_buffer_hit 9
Channel_0_RQ_row_buffer_miss 2223
Channel_0_WQ_row_buffer_hit 51
Channel_0_WQ_row_buffer_miss 436
Channel_0_WQ_full 0
Channel_0_dbus_congested 3657
DRAM_total_RQ_row_buffer_hit 9
DRAM_total_RQ_row_buffer_miss 2223
DRAM_total_WQ_row_buffer_hit 51
DRAM_total_WQ_row_buffer_miss 436
DRAM_total_WQ_full 0
DRAM_total_dbus_congested 3657
DRAM_avg_congested_cycle 6.06235

======STLB miss causes ========
Core_0_STLB_miss_cause_breakdown
Core_0_STLB_cause_Demand_Data_miss 0
Core_0_STLB_cause_Demand_Data_miss_rate 0
Core_0_STLB_cause_Demand_Instruction_miss 0
Core_0_STLB_cause_Demand_Instruction_miss_rate 0
Core_0_STLB_cause_L1D_Prefetch_miss 0
Core_0_STLB_cause_L1D_Prefetch_miss_rate 0
Core_0_STLB_cause_L1I_Prefetch_miss 0
Core_0_STLB_cause_L1I_Prefetch_miss_rate 0
Core_0_STLB_cause_Other_miss 0
Core_0_STLB_cause_Other_miss_rate 0
Core_0_STLB_Demand_miss 0
Core_0_STLB_Demand_miss_rate 0
Core_0_STLB_L1D_Prefetch_miss 0
Core_0_STLB_L1D_Prefetch_miss_rate 0
Core_0_STLB_Other_miss 0
Core_0_STLB_Other_miss_rate 0
