[VMEM] WARNING: physical memory size is smaller than virtual memory size.

*** ChampSim Multicore Out-of-Order Simulator ***
Warmup Instructions: 20000000
Simulation Instructions: 50000000
Number of CPUs: 1
Page size: 4096
STLB ideal mode: all
Core 0: /data0/tzh/champsim_traces/SPEC17/641.leela_s-800B.champsimtrace.xz
 L1D Berti prefetcher
Off-chip DRAM Size: 4 GiB Channels: 1 Width: 64-bit Data Rate: 3205 MT/s
Warmup halting CPU 0 at instruction 20000004 cycle 4228394 for remainder of phase
Warmup finished CPU 0 instructions: 20000004 cycles: 4228394 cumulative IPC: 4.73 (Simulation time: 00 hr 00 min 47 sec)
Warmup complete CPU 0 instructions: 20000004 cycles: 4228394 cumulative IPC: 4.73 (Simulation time: 00 hr 00 min 47 sec)
Simulation finished CPU 0 instructions: 50000000 cycles: 29759331 cumulative IPC: 1.68 (Simulation time: 00 hr 04 min 19 sec)
Simulation complete CPU 0 instructions: 50000000 cycles: 29759331 cumulative IPC: 1.68 (Simulation time: 00 hr 04 min 19 sec)

ChampSim completed all CPUs

=== Simulation ===
CPU 0 runs /data0/tzh/champsim_traces/SPEC17/641.leela_s-800B.champsimtrace.xz

Region of Interest Statistics

CPU 0 cumulative IPC: 1.68 instructions: 50000000 cycles: 29759331
CPU 0 Branch Prediction Accuracy: 89.09% MPKI: 17.84 Average ROB Occupancy at Mispredict: 28.22
Branch type MPKI
BRANCH_DIRECT_JUMP: 0.07412
BRANCH_INDIRECT: 0.00044
BRANCH_CONDITIONAL: 17.74
BRANCH_DIRECT_CALL: 0.00044
BRANCH_INDIRECT_CALL: 0
BRANCH_RETURN: 0.02674

cpu0->cpu0_STLB TOTAL        ACCESS:      22338 HIT:      22338 MISS:          0 MSHR_MERGE:          0
cpu0->cpu0_STLB LOAD         ACCESS:      22338 HIT:      22338 MISS:          0 MSHR_MERGE:          0
cpu0->cpu0_STLB RFO          ACCESS:          0 HIT:          0 MISS:          0 MSHR_MERGE:          0
cpu0->cpu0_STLB PREFETCH     ACCESS:          0 HIT:          0 MISS:          0 MSHR_MERGE:          0
cpu0->cpu0_STLB WRITE        ACCESS:          0 HIT:          0 MISS:          0 MSHR_MERGE:          0
cpu0->cpu0_STLB TRANSLATION  ACCESS:          0 HIT:          0 MISS:          0 MSHR_MERGE:          0
cpu0->cpu0_STLB PREFETCH REQUESTED:          0 ISSUED:          0 USEFUL:          0 USELESS:          0 LATE:          0
cpu0->cpu0_STLB AVERAGE MISS LATENCY: - cycles
cpu0->cpu0_L2C TOTAL        ACCESS:     471516 HIT:     463809 MISS:       7707 MSHR_MERGE:       1129
cpu0->cpu0_L2C LOAD         ACCESS:      56232 HIT:      55024 MISS:       1208 MSHR_MERGE:          3
cpu0->cpu0_L2C RFO          ACCESS:       9357 HIT:       9257 MISS:        100 MSHR_MERGE:         11
cpu0->cpu0_L2C PREFETCH     ACCESS:     385430 HIT:     379032 MISS:       6398 MSHR_MERGE:       1115
cpu0->cpu0_L2C WRITE        ACCESS:      20497 HIT:      20496 MISS:          1 MSHR_MERGE:          0
cpu0->cpu0_L2C TRANSLATION  ACCESS:          0 HIT:          0 MISS:          0 MSHR_MERGE:          0
cpu0->cpu0_L2C PREFETCH REQUESTED:     316460 ISSUED:     311523 USEFUL:       1601 USELESS:       2601 LATE:         14
cpu0->cpu0_L2C AVERAGE MISS LATENCY: 68.06 cycles
cpu0->cpu0_L1I TOTAL        ACCESS:      69648 HIT:      69607 MISS:         41 MSHR_MERGE:          5
cpu0->cpu0_L1I LOAD         ACCESS:      69648 HIT:      69607 MISS:         41 MSHR_MERGE:          5
cpu0->cpu0_L1I RFO          ACCESS:          0 HIT:          0 MISS:          0 MSHR_MERGE:          0
cpu0->cpu0_L1I PREFETCH     ACCESS:          0 HIT:          0 MISS:          0 MSHR_MERGE:          0
cpu0->cpu0_L1I WRITE        ACCESS:          0 HIT:          0 MISS:          0 MSHR_MERGE:          0
cpu0->cpu0_L1I TRANSLATION  ACCESS:          0 HIT:          0 MISS:          0 MSHR_MERGE:          0
cpu0->cpu0_L1I PREFETCH REQUESTED:          0 ISSUED:          0 USEFUL:          0 USELESS:          0 LATE:          0
cpu0->cpu0_L1I AVERAGE MISS LATENCY: 173.8 cycles
cpu0->cpu0_L1D TOTAL        ACCESS:   14538423 HIT:   14375599 MISS:     162824 MSHR_MERGE:      23364
cpu0->cpu0_L1D LOAD         ACCESS:    8743656 HIT:    8678803 MISS:      64853 MSHR_MERGE:       8657
cpu0->cpu0_L1D RFO          ACCESS:          0 HIT:          0 MISS:          0 MSHR_MERGE:          0
cpu0->cpu0_L1D PREFETCH     ACCESS:     132279 HIT:      57638 MISS:      74641 MSHR_MERGE:        734
cpu0->cpu0_L1D WRITE        ACCESS:    5662488 HIT:    5639158 MISS:      23330 MSHR_MERGE:      13973
cpu0->cpu0_L1D TRANSLATION  ACCESS:          0 HIT:          0 MISS:          0 MSHR_MERGE:          0
cpu0->cpu0_L1D PREFETCH REQUESTED:     140107 ISSUED:     132278 USEFUL:      48605 USELESS:      25276 LATE:       5147
cpu0->cpu0_L1D AVERAGE MISS LATENCY: 8.972 cycles
cpu0->cpu0_ITLB TOTAL        ACCESS:      67141 HIT:      67141 MISS:          0 MSHR_MERGE:          0
cpu0->cpu0_ITLB LOAD         ACCESS:      67141 HIT:      67141 MISS:          0 MSHR_MERGE:          0
cpu0->cpu0_ITLB RFO          ACCESS:          0 HIT:          0 MISS:          0 MSHR_MERGE:          0
cpu0->cpu0_ITLB PREFETCH     ACCESS:          0 HIT:          0 MISS:          0 MSHR_MERGE:          0
cpu0->cpu0_ITLB WRITE        ACCESS:          0 HIT:          0 MISS:          0 MSHR_MERGE:          0
cpu0->cpu0_ITLB TRANSLATION  ACCESS:          0 HIT:          0 MISS:          0 MSHR_MERGE:          0
cpu0->cpu0_ITLB PREFETCH REQUESTED:          0 ISSUED:          0 USEFUL:          0 USELESS:          0 LATE:          0
cpu0->cpu0_ITLB AVERAGE MISS LATENCY: - cycles
cpu0->cpu0_DTLB TOTAL        ACCESS:   13619126 HIT:   13594790 MISS:      24336 MSHR_MERGE:       1998
cpu0->cpu0_DTLB LOAD         ACCESS:   13619126 HIT:   13594790 MISS:      24336 MSHR_MERGE:       1998
cpu0->cpu0_DTLB RFO          ACCESS:          0 HIT:          0 MISS:          0 MSHR_MERGE:          0
cpu0->cpu0_DTLB PREFETCH     ACCESS:          0 HIT:          0 MISS:          0 MSHR_MERGE:          0
cpu0->cpu0_DTLB WRITE        ACCESS:          0 HIT:          0 MISS:          0 MSHR_MERGE:          0
cpu0->cpu0_DTLB TRANSLATION  ACCESS:          0 HIT:          0 MISS:          0 MSHR_MERGE:          0
cpu0->cpu0_DTLB PREFETCH REQUESTED:          0 ISSUED:          0 USEFUL:          0 USELESS:          0 LATE:          0
cpu0->cpu0_DTLB AVERAGE MISS LATENCY: 5 cycles
cpu0->LLC TOTAL        ACCESS:       6881 HIT:       3701 MISS:       3180 MSHR_MERGE:          0
cpu0->LLC LOAD         ACCESS:       1205 HIT:        808 MISS:        397 MSHR_MERGE:          0
cpu0->LLC RFO          ACCESS:         89 HIT:         24 MISS:         65 MSHR_MERGE:          0
cpu0->LLC PREFETCH     ACCESS:       5283 HIT:       2565 MISS:       2718 MSHR_MERGE:          0
cpu0->LLC WRITE        ACCESS:        304 HIT:        304 MISS:          0 MSHR_MERGE:          0
cpu0->LLC TRANSLATION  ACCESS:          0 HIT:          0 MISS:          0 MSHR_MERGE:          0
cpu0->LLC PREFETCH REQUESTED:          0 ISSUED:          0 USEFUL:          0 USELESS:          0 LATE:          0
cpu0->LLC AVERAGE MISS LATENCY: 147.9 cycles

DRAM Statistics

Channel 0 RQ ROW_BUFFER_HIT:         83
  ROW_BUFFER_MISS:       3097
  AVG DBUS CONGESTED CYCLE: 2.451
Channel 0 WQ ROW_BUFFER_HIT:          0
  ROW_BUFFER_MISS:          0
  FULL:          0
Channel 0 REFRESHES ISSUED:       2480

[ROI Statistics]
[System Configuration]
num_cpus 1
cpu_freq 4000
fetch_width 6
decode_width 6
dispatch_width 6
execute_width 6
lq_width 2
sq_width 2
retire_width 6
scheduler_size 160
branch_mispredict_penalty 1
rob_size 352
lq_size 240
sq_size 112
ifetch_buffer_size 64
decode_buffer_size 32
dispatch_buffer_size 32
register_file_size 288
decode_latency 1
dispatch_latency 1
schedule_latency 0
execute_latency 0
page_size 4096
block_size 64
core_0_itlb_set 16
core_0_itlb_way 4
core_0_itlb_rq_size 16
core_0_itlb_wq_size 16
core_0_itlb_pq_size 0
core_0_itlb_mshr_size 8
core_0_itlb_hit_latency 1
core_0_itlb_fill_latency 1
core_0_itlb_max_tag_check 2
core_0_itlb_max_fill 2
core_0_dtlb_set 16
core_0_dtlb_way 4
core_0_dtlb_rq_size 16
core_0_dtlb_wq_size 16
core_0_dtlb_pq_size 0
core_0_dtlb_mshr_size 8
core_0_dtlb_hit_latency 1
core_0_dtlb_fill_latency 1
core_0_dtlb_max_tag_check 2
core_0_dtlb_max_fill 2
core_0_stlb_set 128
core_0_stlb_way 12
core_0_stlb_rq_size 32
core_0_stlb_wq_size 32
core_0_stlb_pq_size 0
core_0_stlb_mshr_size 16
core_0_stlb_hit_latency 4
core_0_stlb_fill_latency 4
core_0_stlb_max_tag_check 1
core_0_stlb_max_fill 1
core_0_l1i_set 64
core_0_l1i_way 8
core_0_l1i_rq_size 64
core_0_l1i_wq_size 64
core_0_l1i_pq_size 32
core_0_l1i_mshr_size 8
core_0_l1i_hit_latency 2
core_0_l1i_fill_latency 2
core_0_l1i_max_tag_check 2
core_0_l1i_max_fill 2
core_0_l1d_set 64
core_0_l1d_way 12
core_0_l1d_rq_size 64
core_0_l1d_wq_size 64
core_0_l1d_pq_size 8
core_0_l1d_mshr_size 16
core_0_l1d_hit_latency 2
core_0_l1d_fill_latency 3
core_0_l1d_max_tag_check 2
core_0_l1d_max_fill 2
core_0_l2c_set 1024
core_0_l2c_way 8
core_0_l2c_rq_size 32
core_0_l2c_wq_size 32
core_0_l2c_pq_size 16
core_0_l2c_mshr_size 32
core_0_l2c_hit_latency 5
core_0_l2c_fill_latency 5
core_0_l2c_max_tag_check 1
core_0_l2c_max_fill 1
llc_set 2048
llc_way 16
llc_rq_size 32
llc_wq_size 32
llc_pq_size 32
llc_mshr_size 64
llc_hit_latency 10
llc_fill_latency 10
llc_max_tag_check 1
llc_max_fill 1
dram_channels 1
dram_ranks 1
dram_bankgroups 8
dram_banks 4
dram_rows 16384
dram_columns 1024
dram_channel_width 8
dram_rq_size 64
dram_wq_size 64
dram_size 4294967296
core_0_itlb_prefetcher no
core_0_dtlb_prefetcher no
core_0_stlb_prefetcher no
core_0_l1i_prefetcher next_line
core_0_l1d_prefetcher berti
core_0_l2c_prefetcher pythia
llc_prefetcher no
llc_replacement drrip

Core_0_instructions 50000000
Core_0_cycles 29759331
Core_0_IPC 1.68015
Core_0_branch_prediction_accuracy 89.0903
Core_0_branch_MPKI 17.8388
Core_0_average_ROB_occupancy_at_mispredict 28.217

Core_0_ITLB_total_access 67141
Core_0_ITLB_total_hit 67141
Core_0_ITLB_total_miss 0
Core_0_ITLB_total_MPKI 0
Core_0_ITLB_total_miss_rate 0
Core_0_ITLB_demand_access 67141
Core_0_ITLB_demand_hit 67141
Core_0_ITLB_demand_miss 0
Core_0_ITLB_demand_MPKI 0
Core_0_ITLB_demand_miss_rate 0
Core_0_ITLB_load_access 67141
Core_0_ITLB_load_hit 67141
Core_0_ITLB_load_miss 0
Core_0_ITLB_load_MPKI 0
Core_0_ITLB_load_miss_rate 0
Core_0_ITLB_rfo_access 0
Core_0_ITLB_rfo_hit 0
Core_0_ITLB_rfo_miss 0
Core_0_ITLB_rfo_MPKI 0
Core_0_ITLB_rfo_miss_rate 0
Core_0_ITLB_prefetch_access 0
Core_0_ITLB_prefetch_hit 0
Core_0_ITLB_prefetch_miss 0
Core_0_ITLB_prefetch_MPKI 0
Core_0_ITLB_prefetch_miss_rate 0
Core_0_ITLB_writeback_access 0
Core_0_ITLB_writeback_hit 0
Core_0_ITLB_writeback_miss 0
Core_0_ITLB_writeback_MPKI 0
Core_0_ITLB_writeback_miss_rate 0
Core_0_ITLB_prefetch_requested 0
Core_0_ITLB_prefetch_issued 0
Core_0_ITLB_prefetch_useful 0
Core_0_ITLB_prefetch_useless 0
Core_0_ITLB_prefetch_late 0
Core_0_ITLB_prefetch_accuracy 0
Core_0_ITLB_prefetch_coverage 0

Core_0_DTLB_total_access 13619126
Core_0_DTLB_total_hit 13594790
Core_0_DTLB_total_miss 24336
Core_0_DTLB_total_MPKI 0.48672
Core_0_DTLB_total_miss_rate 0.0017869
Core_0_DTLB_demand_access 13619126
Core_0_DTLB_demand_hit 13594790
Core_0_DTLB_demand_miss 24336
Core_0_DTLB_demand_MPKI 0.48672
Core_0_DTLB_demand_miss_rate 0.0017869
Core_0_DTLB_load_access 13619126
Core_0_DTLB_load_hit 13594790
Core_0_DTLB_load_miss 24336
Core_0_DTLB_load_MPKI 0.48672
Core_0_DTLB_load_miss_rate 0.0017869
Core_0_DTLB_rfo_access 0
Core_0_DTLB_rfo_hit 0
Core_0_DTLB_rfo_miss 0
Core_0_DTLB_rfo_MPKI 0
Core_0_DTLB_rfo_miss_rate 0
Core_0_DTLB_prefetch_access 0
Core_0_DTLB_prefetch_hit 0
Core_0_DTLB_prefetch_miss 0
Core_0_DTLB_prefetch_MPKI 0
Core_0_DTLB_prefetch_miss_rate 0
Core_0_DTLB_writeback_access 0
Core_0_DTLB_writeback_hit 0
Core_0_DTLB_writeback_miss 0
Core_0_DTLB_writeback_MPKI 0
Core_0_DTLB_writeback_miss_rate 0
Core_0_DTLB_prefetch_requested 0
Core_0_DTLB_prefetch_issued 0
Core_0_DTLB_prefetch_useful 0
Core_0_DTLB_prefetch_useless 0
Core_0_DTLB_prefetch_late 0
Core_0_DTLB_prefetch_accuracy 0
Core_0_DTLB_prefetch_coverage 0

Core_0_STLB_total_access 22338
Core_0_STLB_total_hit 22338
Core_0_STLB_total_miss 0
Core_0_STLB_total_MPKI 0
Core_0_STLB_total_miss_rate 0
Core_0_STLB_demand_access 22338
Core_0_STLB_demand_hit 22338
Core_0_STLB_demand_miss 0
Core_0_STLB_demand_MPKI 0
Core_0_STLB_demand_miss_rate 0
Core_0_STLB_load_access 22338
Core_0_STLB_load_hit 22338
Core_0_STLB_load_miss 0
Core_0_STLB_load_MPKI 0
Core_0_STLB_load_miss_rate 0
Core_0_STLB_rfo_access 0
Core_0_STLB_rfo_hit 0
Core_0_STLB_rfo_miss 0
Core_0_STLB_rfo_MPKI 0
Core_0_STLB_rfo_miss_rate 0
Core_0_STLB_prefetch_access 0
Core_0_STLB_prefetch_hit 0
Core_0_STLB_prefetch_miss 0
Core_0_STLB_prefetch_MPKI 0
Core_0_STLB_prefetch_miss_rate 0
Core_0_STLB_writeback_access 0
Core_0_STLB_writeback_hit 0
Core_0_STLB_writeback_miss 0
Core_0_STLB_writeback_MPKI 0
Core_0_STLB_writeback_miss_rate 0
Core_0_STLB_prefetch_requested 0
Core_0_STLB_prefetch_issued 0
Core_0_STLB_prefetch_useful 0
Core_0_STLB_prefetch_useless 0
Core_0_STLB_prefetch_late 0
Core_0_STLB_prefetch_accuracy 0
Core_0_STLB_prefetch_coverage 0

Core_0_L1I_total_access 69648
Core_0_L1I_total_hit 69607
Core_0_L1I_total_miss 41
Core_0_L1I_total_MPKI 0.00082
Core_0_L1I_total_miss_rate 0.000588674
Core_0_L1I_demand_access 69648
Core_0_L1I_demand_hit 69607
Core_0_L1I_demand_miss 41
Core_0_L1I_demand_MPKI 0.00082
Core_0_L1I_demand_miss_rate 0.000588674
Core_0_L1I_load_access 69648
Core_0_L1I_load_hit 69607
Core_0_L1I_load_miss 41
Core_0_L1I_load_MPKI 0.00082
Core_0_L1I_load_miss_rate 0.000588674
Core_0_L1I_rfo_access 0
Core_0_L1I_rfo_hit 0
Core_0_L1I_rfo_miss 0
Core_0_L1I_rfo_MPKI 0
Core_0_L1I_rfo_miss_rate 0
Core_0_L1I_prefetch_access 0
Core_0_L1I_prefetch_hit 0
Core_0_L1I_prefetch_miss 0
Core_0_L1I_prefetch_MPKI 0
Core_0_L1I_prefetch_miss_rate 0
Core_0_L1I_writeback_access 0
Core_0_L1I_writeback_hit 0
Core_0_L1I_writeback_miss 0
Core_0_L1I_writeback_MPKI 0
Core_0_L1I_writeback_miss_rate 0
Core_0_L1I_prefetch_requested 0
Core_0_L1I_prefetch_issued 0
Core_0_L1I_prefetch_useful 0
Core_0_L1I_prefetch_useless 0
Core_0_L1I_prefetch_late 0
Core_0_L1I_prefetch_accuracy 0
Core_0_L1I_prefetch_coverage 0

Core_0_L1D_total_access 14538423
Core_0_L1D_total_hit 14375599
Core_0_L1D_total_miss 162824
Core_0_L1D_total_MPKI 3.25648
Core_0_L1D_total_miss_rate 0.0111996
Core_0_L1D_demand_access 8743656
Core_0_L1D_demand_hit 8678803
Core_0_L1D_demand_miss 64853
Core_0_L1D_demand_MPKI 1.29706
Core_0_L1D_demand_miss_rate 0.00741715
Core_0_L1D_load_access 8743656
Core_0_L1D_load_hit 8678803
Core_0_L1D_load_miss 64853
Core_0_L1D_load_MPKI 1.29706
Core_0_L1D_load_miss_rate 0.00741715
Core_0_L1D_rfo_access 0
Core_0_L1D_rfo_hit 0
Core_0_L1D_rfo_miss 0
Core_0_L1D_rfo_MPKI 0
Core_0_L1D_rfo_miss_rate 0
Core_0_L1D_prefetch_access 132279
Core_0_L1D_prefetch_hit 57638
Core_0_L1D_prefetch_miss 74641
Core_0_L1D_prefetch_MPKI 1.49282
Core_0_L1D_prefetch_miss_rate 0.564269
Core_0_L1D_writeback_access 5662488
Core_0_L1D_writeback_hit 5639158
Core_0_L1D_writeback_miss 23330
Core_0_L1D_writeback_MPKI 0.4666
Core_0_L1D_writeback_miss_rate 0.0041201
Core_0_L1D_prefetch_requested 140107
Core_0_L1D_prefetch_issued 132278
Core_0_L1D_prefetch_useful 48605
Core_0_L1D_prefetch_useless 25276
Core_0_L1D_prefetch_late 5147
Core_0_L1D_prefetch_accuracy 0.367446
Core_0_L1D_prefetch_coverage 0.428396

Core_0_L2C_total_access 471516
Core_0_L2C_total_hit 463809
Core_0_L2C_total_miss 7707
Core_0_L2C_total_MPKI 0.15414
Core_0_L2C_total_miss_rate 0.0163452
Core_0_L2C_demand_access 65589
Core_0_L2C_demand_hit 64281
Core_0_L2C_demand_miss 1308
Core_0_L2C_demand_MPKI 0.02616
Core_0_L2C_demand_miss_rate 0.0199424
Core_0_L2C_load_access 56232
Core_0_L2C_load_hit 55024
Core_0_L2C_load_miss 1208
Core_0_L2C_load_MPKI 0.02416
Core_0_L2C_load_miss_rate 0.0214824
Core_0_L2C_rfo_access 9357
Core_0_L2C_rfo_hit 9257
Core_0_L2C_rfo_miss 100
Core_0_L2C_rfo_MPKI 0.002
Core_0_L2C_rfo_miss_rate 0.0106872
Core_0_L2C_prefetch_access 385430
Core_0_L2C_prefetch_hit 379032
Core_0_L2C_prefetch_miss 6398
Core_0_L2C_prefetch_MPKI 0.12796
Core_0_L2C_prefetch_miss_rate 0.0165996
Core_0_L2C_writeback_access 20497
Core_0_L2C_writeback_hit 20496
Core_0_L2C_writeback_miss 1
Core_0_L2C_writeback_MPKI 2e-05
Core_0_L2C_writeback_miss_rate 4.87876e-05
Core_0_L2C_prefetch_requested 316460
Core_0_L2C_prefetch_issued 311523
Core_0_L2C_prefetch_useful 1601
Core_0_L2C_prefetch_useless 2601
Core_0_L2C_prefetch_late 14
Core_0_L2C_prefetch_accuracy 0.00513927
Core_0_L2C_prefetch_coverage 0.550361

Core_0_LLC_total_access 6881
Core_0_LLC_total_hit 3701
Core_0_LLC_total_miss 3180
Core_0_LLC_total_MPKI 0.0636
Core_0_LLC_total_miss_rate 0.462142
Core_0_LLC_demand_access 1294
Core_0_LLC_demand_hit 832
Core_0_LLC_demand_miss 462
Core_0_LLC_demand_MPKI 0.00924
Core_0_LLC_demand_miss_rate 0.357032
Core_0_LLC_load_access 1205
Core_0_LLC_load_hit 808
Core_0_LLC_load_miss 397
Core_0_LLC_load_MPKI 0.00794
Core_0_LLC_load_miss_rate 0.329461
Core_0_LLC_rfo_access 89
Core_0_LLC_rfo_hit 24
Core_0_LLC_rfo_miss 65
Core_0_LLC_rfo_MPKI 0.0013
Core_0_LLC_rfo_miss_rate 0.730337
Core_0_LLC_prefetch_access 5283
Core_0_LLC_prefetch_hit 2565
Core_0_LLC_prefetch_miss 2718
Core_0_LLC_prefetch_MPKI 0.05436
Core_0_LLC_prefetch_miss_rate 0.51448
Core_0_LLC_writeback_access 304
Core_0_LLC_writeback_hit 304
Core_0_LLC_writeback_miss 0
Core_0_LLC_writeback_MPKI 0
Core_0_LLC_writeback_miss_rate 0
Core_0_LLC_prefetch_requested 0
Core_0_LLC_prefetch_issued 0
Core_0_LLC_prefetch_useful 0
Core_0_LLC_prefetch_useless 0
Core_0_LLC_prefetch_late 0
Core_0_LLC_prefetch_accuracy 0
Core_0_LLC_prefetch_coverage 0

[DRAM Statistics]
Channel_0_RQ_row_buffer_hit 83
Channel_0_RQ_row_buffer_miss 3097
Channel_0_WQ_row_buffer_hit 0
Channel_0_WQ_row_buffer_miss 0
Channel_0_WQ_full 0
Channel_0_dbus_congested 2078
DRAM_total_RQ_row_buffer_hit 83
DRAM_total_RQ_row_buffer_miss 3097
DRAM_total_WQ_row_buffer_hit 0
DRAM_total_WQ_row_buffer_miss 0
DRAM_total_WQ_full 0
DRAM_total_dbus_congested 2078
DRAM_avg_congested_cycle 2.4514

======STLB miss causes ========
Core_0_STLB_miss_cause_breakdown
Core_0_STLB_cause_Demand_Data_miss 0
Core_0_STLB_cause_Demand_Data_miss_rate 0
Core_0_STLB_cause_Demand_Instruction_miss 0
Core_0_STLB_cause_Demand_Instruction_miss_rate 0
Core_0_STLB_cause_L1D_Prefetch_miss 0
Core_0_STLB_cause_L1D_Prefetch_miss_rate 0
Core_0_STLB_cause_L1I_Prefetch_miss 0
Core_0_STLB_cause_L1I_Prefetch_miss_rate 0
Core_0_STLB_cause_Other_miss 0
Core_0_STLB_cause_Other_miss_rate 0
Core_0_STLB_Demand_miss 0
Core_0_STLB_Demand_miss_rate 0
Core_0_STLB_L1D_Prefetch_miss 0
Core_0_STLB_L1D_Prefetch_miss_rate 0
Core_0_STLB_Other_miss 0
Core_0_STLB_Other_miss_rate 0
