[VMEM] WARNING: physical memory size is smaller than virtual memory size.

*** ChampSim Multicore Out-of-Order Simulator ***
Warmup Instructions: 20000000
Simulation Instructions: 50000000
Number of CPUs: 1
Page size: 4096
STLB ideal mode: all
Core 0: /data0/tzh/champsim_traces/GAP/gap.bc.web-10B.champsimtrace.xz
 L1D Berti prefetcher
Off-chip DRAM Size: 4 GiB Channels: 1 Width: 64-bit Data Rate: 3205 MT/s
Warmup halting CPU 0 at instruction 20000000 cycle 5098314 for remainder of phase
Warmup finished CPU 0 instructions: 20000000 cycles: 5098314 cumulative IPC: 3.923 (Simulation time: 00 hr 00 min 53 sec)
Warmup complete CPU 0 instructions: 20000000 cycles: 5098314 cumulative IPC: 3.923 (Simulation time: 00 hr 00 min 53 sec)
Simulation finished CPU 0 instructions: 50000001 cycles: 44695710 cumulative IPC: 1.119 (Simulation time: 00 hr 06 min 55 sec)
Simulation complete CPU 0 instructions: 50000001 cycles: 44695710 cumulative IPC: 1.119 (Simulation time: 00 hr 06 min 55 sec)

ChampSim completed all CPUs

=== Simulation ===
CPU 0 runs /data0/tzh/champsim_traces/GAP/gap.bc.web-10B.champsimtrace.xz

Region of Interest Statistics

CPU 0 cumulative IPC: 1.119 instructions: 50000001 cycles: 44695710
CPU 0 Branch Prediction Accuracy: 98.43% MPKI: 3.948 Average ROB Occupancy at Mispredict: 128.8
Branch type MPKI
BRANCH_DIRECT_JUMP: 0
BRANCH_INDIRECT: 0
BRANCH_CONDITIONAL: 3.948
BRANCH_DIRECT_CALL: 0
BRANCH_INDIRECT_CALL: 0
BRANCH_RETURN: 0

cpu0->cpu0_STLB TOTAL        ACCESS:     280094 HIT:     280094 MISS:          0 MSHR_MERGE:          0
cpu0->cpu0_STLB LOAD         ACCESS:     280094 HIT:     280094 MISS:          0 MSHR_MERGE:          0
cpu0->cpu0_STLB RFO          ACCESS:          0 HIT:          0 MISS:          0 MSHR_MERGE:          0
cpu0->cpu0_STLB PREFETCH     ACCESS:          0 HIT:          0 MISS:          0 MSHR_MERGE:          0
cpu0->cpu0_STLB WRITE        ACCESS:          0 HIT:          0 MISS:          0 MSHR_MERGE:          0
cpu0->cpu0_STLB TRANSLATION  ACCESS:          0 HIT:          0 MISS:          0 MSHR_MERGE:          0
cpu0->cpu0_STLB PREFETCH REQUESTED:          0 ISSUED:          0 USEFUL:          0 USELESS:          0 LATE:          0
cpu0->cpu0_STLB AVERAGE MISS LATENCY: - cycles
cpu0->cpu0_L2C TOTAL        ACCESS:    2998961 HIT:    1594837 MISS:    1404124 MSHR_MERGE:     479540
cpu0->cpu0_L2C LOAD         ACCESS:     525937 HIT:     281847 MISS:     244090 MSHR_MERGE:      28372
cpu0->cpu0_L2C RFO          ACCESS:       7437 HIT:        392 MISS:       7045 MSHR_MERGE:          0
cpu0->cpu0_L2C PREFETCH     ACCESS:    2400177 HIT:    1247236 MISS:    1152941 MSHR_MERGE:     451168
cpu0->cpu0_L2C WRITE        ACCESS:      65410 HIT:      65362 MISS:         48 MSHR_MERGE:          0
cpu0->cpu0_L2C TRANSLATION  ACCESS:          0 HIT:          0 MISS:          0 MSHR_MERGE:          0
cpu0->cpu0_L2C PREFETCH REQUESTED:    2026776 ISSUED:    1991245 USEFUL:     267941 USELESS:     337804 LATE:      28372
cpu0->cpu0_L2C AVERAGE MISS LATENCY: 144.2 cycles
cpu0->cpu0_L1I TOTAL        ACCESS:    1882320 HIT:    1882320 MISS:          0 MSHR_MERGE:          0
cpu0->cpu0_L1I LOAD         ACCESS:    1882320 HIT:    1882320 MISS:          0 MSHR_MERGE:          0
cpu0->cpu0_L1I RFO          ACCESS:          0 HIT:          0 MISS:          0 MSHR_MERGE:          0
cpu0->cpu0_L1I PREFETCH     ACCESS:          0 HIT:          0 MISS:          0 MSHR_MERGE:          0
cpu0->cpu0_L1I WRITE        ACCESS:          0 HIT:          0 MISS:          0 MSHR_MERGE:          0
cpu0->cpu0_L1I TRANSLATION  ACCESS:          0 HIT:          0 MISS:          0 MSHR_MERGE:          0
cpu0->cpu0_L1I PREFETCH REQUESTED:          0 ISSUED:          0 USEFUL:          0 USELESS:          0 LATE:          0
cpu0->cpu0_L1I AVERAGE MISS LATENCY: - cycles
cpu0->cpu0_L1D TOTAL        ACCESS:   10353030 HIT:    8265285 MISS:    2087745 MSHR_MERGE:    1145438
cpu0->cpu0_L1D LOAD         ACCESS:    8853878 HIT:    7363944 MISS:    1489934 MSHR_MERGE:     963996
cpu0->cpu0_L1D RFO          ACCESS:          0 HIT:          0 MISS:          0 MSHR_MERGE:          0
cpu0->cpu0_L1D PREFETCH     ACCESS:     653511 HIT:     226776 MISS:     426735 MSHR_MERGE:      17803
cpu0->cpu0_L1D WRITE        ACCESS:     845641 HIT:     674565 MISS:     171076 MSHR_MERGE:     163639
cpu0->cpu0_L1D TRANSLATION  ACCESS:          0 HIT:          0 MISS:          0 MSHR_MERGE:          0
cpu0->cpu0_L1D PREFETCH REQUESTED:     720455 ISSUED:     653510 USEFUL:     215282 USELESS:     193625 LATE:      26720
cpu0->cpu0_L1D AVERAGE MISS LATENCY: 79.18 cycles
cpu0->cpu0_ITLB TOTAL        ACCESS:    1874783 HIT:    1874783 MISS:          0 MSHR_MERGE:          0
cpu0->cpu0_ITLB LOAD         ACCESS:    1874783 HIT:    1874783 MISS:          0 MSHR_MERGE:          0
cpu0->cpu0_ITLB RFO          ACCESS:          0 HIT:          0 MISS:          0 MSHR_MERGE:          0
cpu0->cpu0_ITLB PREFETCH     ACCESS:          0 HIT:          0 MISS:          0 MSHR_MERGE:          0
cpu0->cpu0_ITLB WRITE        ACCESS:          0 HIT:          0 MISS:          0 MSHR_MERGE:          0
cpu0->cpu0_ITLB TRANSLATION  ACCESS:          0 HIT:          0 MISS:          0 MSHR_MERGE:          0
cpu0->cpu0_ITLB PREFETCH REQUESTED:          0 ISSUED:          0 USEFUL:          0 USELESS:          0 LATE:          0
cpu0->cpu0_ITLB AVERAGE MISS LATENCY: - cycles
cpu0->cpu0_DTLB TOTAL        ACCESS:    9970671 HIT:    9438883 MISS:     531788 MSHR_MERGE:     251694
cpu0->cpu0_DTLB LOAD         ACCESS:    9970671 HIT:    9438883 MISS:     531788 MSHR_MERGE:     251694
cpu0->cpu0_DTLB RFO          ACCESS:          0 HIT:          0 MISS:          0 MSHR_MERGE:          0
cpu0->cpu0_DTLB PREFETCH     ACCESS:          0 HIT:          0 MISS:          0 MSHR_MERGE:          0
cpu0->cpu0_DTLB WRITE        ACCESS:          0 HIT:          0 MISS:          0 MSHR_MERGE:          0
cpu0->cpu0_DTLB TRANSLATION  ACCESS:          0 HIT:          0 MISS:          0 MSHR_MERGE:          0
cpu0->cpu0_DTLB PREFETCH REQUESTED:          0 ISSUED:          0 USEFUL:          0 USELESS:          0 LATE:          0
cpu0->cpu0_DTLB AVERAGE MISS LATENCY: 5.004 cycles
cpu0->LLC TOTAL        ACCESS:     975176 HIT:     290552 MISS:     684624 MSHR_MERGE:          0
cpu0->LLC LOAD         ACCESS:     215718 HIT:      85585 MISS:     130133 MSHR_MERGE:          0
cpu0->LLC RFO          ACCESS:       7045 HIT:       1414 MISS:       5631 MSHR_MERGE:          0
cpu0->LLC PREFETCH     ACCESS:     701773 HIT:     161195 MISS:     540578 MSHR_MERGE:          0
cpu0->LLC WRITE        ACCESS:      50640 HIT:      42358 MISS:       8282 MSHR_MERGE:          0
cpu0->LLC TRANSLATION  ACCESS:          0 HIT:          0 MISS:          0 MSHR_MERGE:          0
cpu0->LLC PREFETCH REQUESTED:          0 ISSUED:          0 USEFUL:          0 USELESS:          0 LATE:          0
cpu0->LLC AVERAGE MISS LATENCY: 191.2 cycles

DRAM Statistics

Channel 0 RQ ROW_BUFFER_HIT:      17331
  ROW_BUFFER_MISS:     658994
  AVG DBUS CONGESTED CYCLE: 7.896
Channel 0 WQ ROW_BUFFER_HIT:      14829
  ROW_BUFFER_MISS:      41564
  FULL:          0
Channel 0 REFRESHES ISSUED:       3725

[ROI Statistics]
[System Configuration]
num_cpus 1
cpu_freq 4000
fetch_width 6
decode_width 6
dispatch_width 6
execute_width 6
lq_width 2
sq_width 2
retire_width 6
scheduler_size 160
branch_mispredict_penalty 1
rob_size 352
lq_size 240
sq_size 112
ifetch_buffer_size 64
decode_buffer_size 32
dispatch_buffer_size 32
register_file_size 288
decode_latency 1
dispatch_latency 1
schedule_latency 0
execute_latency 0
page_size 4096
block_size 64
core_0_itlb_set 16
core_0_itlb_way 4
core_0_itlb_rq_size 16
core_0_itlb_wq_size 16
core_0_itlb_pq_size 0
core_0_itlb_mshr_size 8
core_0_itlb_hit_latency 1
core_0_itlb_fill_latency 1
core_0_itlb_max_tag_check 2
core_0_itlb_max_fill 2
core_0_dtlb_set 16
core_0_dtlb_way 4
core_0_dtlb_rq_size 16
core_0_dtlb_wq_size 16
core_0_dtlb_pq_size 0
core_0_dtlb_mshr_size 8
core_0_dtlb_hit_latency 1
core_0_dtlb_fill_latency 1
core_0_dtlb_max_tag_check 2
core_0_dtlb_max_fill 2
core_0_stlb_set 128
core_0_stlb_way 12
core_0_stlb_rq_size 32
core_0_stlb_wq_size 32
core_0_stlb_pq_size 0
core_0_stlb_mshr_size 16
core_0_stlb_hit_latency 4
core_0_stlb_fill_latency 4
core_0_stlb_max_tag_check 1
core_0_stlb_max_fill 1
core_0_l1i_set 64
core_0_l1i_way 8
core_0_l1i_rq_size 64
core_0_l1i_wq_size 64
core_0_l1i_pq_size 32
core_0_l1i_mshr_size 8
core_0_l1i_hit_latency 2
core_0_l1i_fill_latency 2
core_0_l1i_max_tag_check 2
core_0_l1i_max_fill 2
core_0_l1d_set 64
core_0_l1d_way 12
core_0_l1d_rq_size 64
core_0_l1d_wq_size 64
core_0_l1d_pq_size 8
core_0_l1d_mshr_size 16
core_0_l1d_hit_latency 2
core_0_l1d_fill_latency 3
core_0_l1d_max_tag_check 2
core_0_l1d_max_fill 2
core_0_l2c_set 1024
core_0_l2c_way 8
core_0_l2c_rq_size 32
core_0_l2c_wq_size 32
core_0_l2c_pq_size 16
core_0_l2c_mshr_size 32
core_0_l2c_hit_latency 5
core_0_l2c_fill_latency 5
core_0_l2c_max_tag_check 1
core_0_l2c_max_fill 1
llc_set 2048
llc_way 16
llc_rq_size 32
llc_wq_size 32
llc_pq_size 32
llc_mshr_size 64
llc_hit_latency 10
llc_fill_latency 10
llc_max_tag_check 1
llc_max_fill 1
dram_channels 1
dram_ranks 1
dram_bankgroups 8
dram_banks 4
dram_rows 16384
dram_columns 1024
dram_channel_width 8
dram_rq_size 64
dram_wq_size 64
dram_size 4294967296
core_0_itlb_prefetcher no
core_0_dtlb_prefetcher no
core_0_stlb_prefetcher no
core_0_l1i_prefetcher next_line
core_0_l1d_prefetcher berti
core_0_l2c_prefetcher pythia
llc_prefetcher no
llc_replacement drrip

Core_0_instructions 50000001
Core_0_cycles 44695710
Core_0_IPC 1.11868
Core_0_branch_prediction_accuracy 98.425
Core_0_branch_MPKI 3.94762
Core_0_average_ROB_occupancy_at_mispredict 128.771

Core_0_ITLB_total_access 1874783
Core_0_ITLB_total_hit 1874783
Core_0_ITLB_total_miss 0
Core_0_ITLB_total_MPKI 0
Core_0_ITLB_total_miss_rate 0
Core_0_ITLB_demand_access 1874783
Core_0_ITLB_demand_hit 1874783
Core_0_ITLB_demand_miss 0
Core_0_ITLB_demand_MPKI 0
Core_0_ITLB_demand_miss_rate 0
Core_0_ITLB_load_access 1874783
Core_0_ITLB_load_hit 1874783
Core_0_ITLB_load_miss 0
Core_0_ITLB_load_MPKI 0
Core_0_ITLB_load_miss_rate 0
Core_0_ITLB_rfo_access 0
Core_0_ITLB_rfo_hit 0
Core_0_ITLB_rfo_miss 0
Core_0_ITLB_rfo_MPKI 0
Core_0_ITLB_rfo_miss_rate 0
Core_0_ITLB_prefetch_access 0
Core_0_ITLB_prefetch_hit 0
Core_0_ITLB_prefetch_miss 0
Core_0_ITLB_prefetch_MPKI 0
Core_0_ITLB_prefetch_miss_rate 0
Core_0_ITLB_writeback_access 0
Core_0_ITLB_writeback_hit 0
Core_0_ITLB_writeback_miss 0
Core_0_ITLB_writeback_MPKI 0
Core_0_ITLB_writeback_miss_rate 0
Core_0_ITLB_prefetch_requested 0
Core_0_ITLB_prefetch_issued 0
Core_0_ITLB_prefetch_useful 0
Core_0_ITLB_prefetch_useless 0
Core_0_ITLB_prefetch_late 0
Core_0_ITLB_prefetch_accuracy 0
Core_0_ITLB_prefetch_coverage 0

Core_0_DTLB_total_access 9970671
Core_0_DTLB_total_hit 9438883
Core_0_DTLB_total_miss 531788
Core_0_DTLB_total_MPKI 10.6358
Core_0_DTLB_total_miss_rate 0.0533352
Core_0_DTLB_demand_access 9970671
Core_0_DTLB_demand_hit 9438883
Core_0_DTLB_demand_miss 531788
Core_0_DTLB_demand_MPKI 10.6358
Core_0_DTLB_demand_miss_rate 0.0533352
Core_0_DTLB_load_access 9970671
Core_0_DTLB_load_hit 9438883
Core_0_DTLB_load_miss 531788
Core_0_DTLB_load_MPKI 10.6358
Core_0_DTLB_load_miss_rate 0.0533352
Core_0_DTLB_rfo_access 0
Core_0_DTLB_rfo_hit 0
Core_0_DTLB_rfo_miss 0
Core_0_DTLB_rfo_MPKI 0
Core_0_DTLB_rfo_miss_rate 0
Core_0_DTLB_prefetch_access 0
Core_0_DTLB_prefetch_hit 0
Core_0_DTLB_prefetch_miss 0
Core_0_DTLB_prefetch_MPKI 0
Core_0_DTLB_prefetch_miss_rate 0
Core_0_DTLB_writeback_access 0
Core_0_DTLB_writeback_hit 0
Core_0_DTLB_writeback_miss 0
Core_0_DTLB_writeback_MPKI 0
Core_0_DTLB_writeback_miss_rate 0
Core_0_DTLB_prefetch_requested 0
Core_0_DTLB_prefetch_issued 0
Core_0_DTLB_prefetch_useful 0
Core_0_DTLB_prefetch_useless 0
Core_0_DTLB_prefetch_late 0
Core_0_DTLB_prefetch_accuracy 0
Core_0_DTLB_prefetch_coverage 0

Core_0_STLB_total_access 280094
Core_0_STLB_total_hit 280094
Core_0_STLB_total_miss 0
Core_0_STLB_total_MPKI 0
Core_0_STLB_total_miss_rate 0
Core_0_STLB_demand_access 280094
Core_0_STLB_demand_hit 280094
Core_0_STLB_demand_miss 0
Core_0_STLB_demand_MPKI 0
Core_0_STLB_demand_miss_rate 0
Core_0_STLB_load_access 280094
Core_0_STLB_load_hit 280094
Core_0_STLB_load_miss 0
Core_0_STLB_load_MPKI 0
Core_0_STLB_load_miss_rate 0
Core_0_STLB_rfo_access 0
Core_0_STLB_rfo_hit 0
Core_0_STLB_rfo_miss 0
Core_0_STLB_rfo_MPKI 0
Core_0_STLB_rfo_miss_rate 0
Core_0_STLB_prefetch_access 0
Core_0_STLB_prefetch_hit 0
Core_0_STLB_prefetch_miss 0
Core_0_STLB_prefetch_MPKI 0
Core_0_STLB_prefetch_miss_rate 0
Core_0_STLB_writeback_access 0
Core_0_STLB_writeback_hit 0
Core_0_STLB_writeback_miss 0
Core_0_STLB_writeback_MPKI 0
Core_0_STLB_writeback_miss_rate 0
Core_0_STLB_prefetch_requested 0
Core_0_STLB_prefetch_issued 0
Core_0_STLB_prefetch_useful 0
Core_0_STLB_prefetch_useless 0
Core_0_STLB_prefetch_late 0
Core_0_STLB_prefetch_accuracy 0
Core_0_STLB_prefetch_coverage 0

Core_0_L1I_total_access 1882320
Core_0_L1I_total_hit 1882320
Core_0_L1I_total_miss 0
Core_0_L1I_total_MPKI 0
Core_0_L1I_total_miss_rate 0
Core_0_L1I_demand_access 1882320
Core_0_L1I_demand_hit 1882320
Core_0_L1I_demand_miss 0
Core_0_L1I_demand_MPKI 0
Core_0_L1I_demand_miss_rate 0
Core_0_L1I_load_access 1882320
Core_0_L1I_load_hit 1882320
Core_0_L1I_load_miss 0
Core_0_L1I_load_MPKI 0
Core_0_L1I_load_miss_rate 0
Core_0_L1I_rfo_access 0
Core_0_L1I_rfo_hit 0
Core_0_L1I_rfo_miss 0
Core_0_L1I_rfo_MPKI 0
Core_0_L1I_rfo_miss_rate 0
Core_0_L1I_prefetch_access 0
Core_0_L1I_prefetch_hit 0
Core_0_L1I_prefetch_miss 0
Core_0_L1I_prefetch_MPKI 0
Core_0_L1I_prefetch_miss_rate 0
Core_0_L1I_writeback_access 0
Core_0_L1I_writeback_hit 0
Core_0_L1I_writeback_miss 0
Core_0_L1I_writeback_MPKI 0
Core_0_L1I_writeback_miss_rate 0
Core_0_L1I_prefetch_requested 0
Core_0_L1I_prefetch_issued 0
Core_0_L1I_prefetch_useful 0
Core_0_L1I_prefetch_useless 0
Core_0_L1I_prefetch_late 0
Core_0_L1I_prefetch_accuracy 0
Core_0_L1I_prefetch_coverage 0

Core_0_L1D_total_access 10353030
Core_0_L1D_total_hit 8265285
Core_0_L1D_total_miss 2087745
Core_0_L1D_total_MPKI 41.7549
Core_0_L1D_total_miss_rate 0.201655
Core_0_L1D_demand_access 8853878
Core_0_L1D_demand_hit 7363944
Core_0_L1D_demand_miss 1489934
Core_0_L1D_demand_MPKI 29.7987
Core_0_L1D_demand_miss_rate 0.16828
Core_0_L1D_load_access 8853878
Core_0_L1D_load_hit 7363944
Core_0_L1D_load_miss 1489934
Core_0_L1D_load_MPKI 29.7987
Core_0_L1D_load_miss_rate 0.16828
Core_0_L1D_rfo_access 0
Core_0_L1D_rfo_hit 0
Core_0_L1D_rfo_miss 0
Core_0_L1D_rfo_MPKI 0
Core_0_L1D_rfo_miss_rate 0
Core_0_L1D_prefetch_access 653511
Core_0_L1D_prefetch_hit 226776
Core_0_L1D_prefetch_miss 426735
Core_0_L1D_prefetch_MPKI 8.5347
Core_0_L1D_prefetch_miss_rate 0.652988
Core_0_L1D_writeback_access 845641
Core_0_L1D_writeback_hit 674565
Core_0_L1D_writeback_miss 171076
Core_0_L1D_writeback_MPKI 3.42152
Core_0_L1D_writeback_miss_rate 0.202303
Core_0_L1D_prefetch_requested 720455
Core_0_L1D_prefetch_issued 653510
Core_0_L1D_prefetch_useful 215282
Core_0_L1D_prefetch_useless 193625
Core_0_L1D_prefetch_late 26720
Core_0_L1D_prefetch_accuracy 0.329424
Core_0_L1D_prefetch_coverage 0.126249

Core_0_L2C_total_access 2998961
Core_0_L2C_total_hit 1594837
Core_0_L2C_total_miss 1404124
Core_0_L2C_total_MPKI 28.0825
Core_0_L2C_total_miss_rate 0.468203
Core_0_L2C_demand_access 533374
Core_0_L2C_demand_hit 282239
Core_0_L2C_demand_miss 251135
Core_0_L2C_demand_MPKI 5.0227
Core_0_L2C_demand_miss_rate 0.470842
Core_0_L2C_load_access 525937
Core_0_L2C_load_hit 281847
Core_0_L2C_load_miss 244090
Core_0_L2C_load_MPKI 4.8818
Core_0_L2C_load_miss_rate 0.464105
Core_0_L2C_rfo_access 7437
Core_0_L2C_rfo_hit 392
Core_0_L2C_rfo_miss 7045
Core_0_L2C_rfo_MPKI 0.1409
Core_0_L2C_rfo_miss_rate 0.947291
Core_0_L2C_prefetch_access 2400177
Core_0_L2C_prefetch_hit 1247236
Core_0_L2C_prefetch_miss 1152941
Core_0_L2C_prefetch_MPKI 23.0588
Core_0_L2C_prefetch_miss_rate 0.480357
Core_0_L2C_writeback_access 65410
Core_0_L2C_writeback_hit 65362
Core_0_L2C_writeback_miss 48
Core_0_L2C_writeback_MPKI 0.00096
Core_0_L2C_writeback_miss_rate 0.000733833
Core_0_L2C_prefetch_requested 2026776
Core_0_L2C_prefetch_issued 1991245
Core_0_L2C_prefetch_useful 267941
Core_0_L2C_prefetch_useless 337804
Core_0_L2C_prefetch_late 28372
Core_0_L2C_prefetch_accuracy 0.13456
Core_0_L2C_prefetch_coverage 0.516188

Core_0_LLC_total_access 975176
Core_0_LLC_total_hit 290552
Core_0_LLC_total_miss 684624
Core_0_LLC_total_MPKI 13.6925
Core_0_LLC_total_miss_rate 0.702052
Core_0_LLC_demand_access 222763
Core_0_LLC_demand_hit 86999
Core_0_LLC_demand_miss 135764
Core_0_LLC_demand_MPKI 2.71528
Core_0_LLC_demand_miss_rate 0.609455
Core_0_LLC_load_access 215718
Core_0_LLC_load_hit 85585
Core_0_LLC_load_miss 130133
Core_0_LLC_load_MPKI 2.60266
Core_0_LLC_load_miss_rate 0.603255
Core_0_LLC_rfo_access 7045
Core_0_LLC_rfo_hit 1414
Core_0_LLC_rfo_miss 5631
Core_0_LLC_rfo_MPKI 0.11262
Core_0_LLC_rfo_miss_rate 0.79929
Core_0_LLC_prefetch_access 701773
Core_0_LLC_prefetch_hit 161195
Core_0_LLC_prefetch_miss 540578
Core_0_LLC_prefetch_MPKI 10.8116
Core_0_LLC_prefetch_miss_rate 0.770303
Core_0_LLC_writeback_access 50640
Core_0_LLC_writeback_hit 42358
Core_0_LLC_writeback_miss 8282
Core_0_LLC_writeback_MPKI 0.16564
Core_0_LLC_writeback_miss_rate 0.163547
Core_0_LLC_prefetch_requested 0
Core_0_LLC_prefetch_issued 0
Core_0_LLC_prefetch_useful 0
Core_0_LLC_prefetch_useless 0
Core_0_LLC_prefetch_late 0
Core_0_LLC_prefetch_accuracy 0
Core_0_LLC_prefetch_coverage 0

[DRAM Statistics]
Channel_0_RQ_row_buffer_hit 17331
Channel_0_RQ_row_buffer_miss 658994
Channel_0_WQ_row_buffer_hit 14829
Channel_0_WQ_row_buffer_miss 41564
Channel_0_WQ_full 0
Channel_0_dbus_congested 1435323
DRAM_total_RQ_row_buffer_hit 17331
DRAM_total_RQ_row_buffer_miss 658994
DRAM_total_WQ_row_buffer_hit 14829
DRAM_total_WQ_row_buffer_miss 41564
DRAM_total_WQ_full 0
DRAM_total_dbus_congested 1435323
DRAM_avg_congested_cycle 7.89592

======STLB miss causes ========
Core_0_STLB_miss_cause_breakdown
Core_0_STLB_cause_Demand_Data_miss 0
Core_0_STLB_cause_Demand_Data_miss_rate 0
Core_0_STLB_cause_Demand_Instruction_miss 0
Core_0_STLB_cause_Demand_Instruction_miss_rate 0
Core_0_STLB_cause_L1D_Prefetch_miss 0
Core_0_STLB_cause_L1D_Prefetch_miss_rate 0
Core_0_STLB_cause_L1I_Prefetch_miss 0
Core_0_STLB_cause_L1I_Prefetch_miss_rate 0
Core_0_STLB_cause_Other_miss 0
Core_0_STLB_cause_Other_miss_rate 0
Core_0_STLB_Demand_miss 0
Core_0_STLB_Demand_miss_rate 0
Core_0_STLB_L1D_Prefetch_miss 0
Core_0_STLB_L1D_Prefetch_miss_rate 0
Core_0_STLB_Other_miss 0
Core_0_STLB_Other_miss_rate 0
