[VMEM] WARNING: physical memory size is smaller than virtual memory size.

*** ChampSim Multicore Out-of-Order Simulator ***
Warmup Instructions: 20000000
Simulation Instructions: 50000000
Number of CPUs: 1
Page size: 4096
STLB ideal mode: all
Core 0: /data0/tzh/champsim_traces/Ligra/ligra_PageRankDelta.com-lj.ungraph.gcc_6.3.0_O3.drop_17000M.length_250M.champsimtrace.xz
 L1D Berti prefetcher
Off-chip DRAM Size: 4 GiB Channels: 1 Width: 64-bit Data Rate: 3205 MT/s
Warmup halting CPU 0 at instruction 20000003 cycle 5025995 for remainder of phase
Warmup finished CPU 0 instructions: 20000003 cycles: 5025995 cumulative IPC: 3.979 (Simulation time: 00 hr 01 min 11 sec)
Warmup complete CPU 0 instructions: 20000003 cycles: 5025995 cumulative IPC: 3.979 (Simulation time: 00 hr 01 min 11 sec)
Simulation finished CPU 0 instructions: 50000004 cycles: 31304002 cumulative IPC: 1.597 (Simulation time: 00 hr 06 min 32 sec)
Simulation complete CPU 0 instructions: 50000004 cycles: 31304002 cumulative IPC: 1.597 (Simulation time: 00 hr 06 min 32 sec)

ChampSim completed all CPUs

=== Simulation ===
CPU 0 runs /data0/tzh/champsim_traces/Ligra/ligra_PageRankDelta.com-lj.ungraph.gcc_6.3.0_O3.drop_17000M.length_250M.champsimtrace.xz

Region of Interest Statistics

CPU 0 cumulative IPC: 1.597 instructions: 50000004 cycles: 31304002
CPU 0 Branch Prediction Accuracy: 99.3% MPKI: 0.695 Average ROB Occupancy at Mispredict: 200.5
Branch type MPKI
BRANCH_DIRECT_JUMP: 2e-05
BRANCH_INDIRECT: 0
BRANCH_CONDITIONAL: 0.6949
BRANCH_DIRECT_CALL: 4e-05
BRANCH_INDIRECT_CALL: 0
BRANCH_RETURN: 0.00012

cpu0->cpu0_STLB TOTAL        ACCESS:      21983 HIT:      21983 MISS:          0 MSHR_MERGE:          0
cpu0->cpu0_STLB LOAD         ACCESS:      21983 HIT:      21983 MISS:          0 MSHR_MERGE:          0
cpu0->cpu0_STLB RFO          ACCESS:          0 HIT:          0 MISS:          0 MSHR_MERGE:          0
cpu0->cpu0_STLB PREFETCH     ACCESS:          0 HIT:          0 MISS:          0 MSHR_MERGE:          0
cpu0->cpu0_STLB WRITE        ACCESS:          0 HIT:          0 MISS:          0 MSHR_MERGE:          0
cpu0->cpu0_STLB TRANSLATION  ACCESS:          0 HIT:          0 MISS:          0 MSHR_MERGE:          0
cpu0->cpu0_STLB PREFETCH REQUESTED:          0 ISSUED:          0 USEFUL:          0 USELESS:          0 LATE:          0
cpu0->cpu0_STLB AVERAGE MISS LATENCY: - cycles
cpu0->cpu0_L2C TOTAL        ACCESS:    3976547 HIT:    1519951 MISS:    2456596 MSHR_MERGE:    1562464
cpu0->cpu0_L2C LOAD         ACCESS:     343068 HIT:     243527 MISS:      99541 MSHR_MERGE:      85084
cpu0->cpu0_L2C RFO          ACCESS:     485403 HIT:      34468 MISS:     450935 MSHR_MERGE:         44
cpu0->cpu0_L2C PREFETCH     ACCESS:    2623616 HIT:     717520 MISS:    1906096 MSHR_MERGE:    1477336
cpu0->cpu0_L2C WRITE        ACCESS:     524460 HIT:     524436 MISS:         24 MSHR_MERGE:          0
cpu0->cpu0_L2C TRANSLATION  ACCESS:          0 HIT:          0 MISS:          0 MSHR_MERGE:          0
cpu0->cpu0_L2C PREFETCH REQUESTED:    2477785 ISSUED:    2356198 USEFUL:     309244 USELESS:      96642 LATE:      85128
cpu0->cpu0_L2C AVERAGE MISS LATENCY: 441.4 cycles
cpu0->cpu0_L1I TOTAL        ACCESS:    7006775 HIT:    7006770 MISS:          5 MSHR_MERGE:          2
cpu0->cpu0_L1I LOAD         ACCESS:    7006775 HIT:    7006770 MISS:          5 MSHR_MERGE:          2
cpu0->cpu0_L1I RFO          ACCESS:          0 HIT:          0 MISS:          0 MSHR_MERGE:          0
cpu0->cpu0_L1I PREFETCH     ACCESS:          0 HIT:          0 MISS:          0 MSHR_MERGE:          0
cpu0->cpu0_L1I WRITE        ACCESS:          0 HIT:          0 MISS:          0 MSHR_MERGE:          0
cpu0->cpu0_L1I TRANSLATION  ACCESS:          0 HIT:          0 MISS:          0 MSHR_MERGE:          0
cpu0->cpu0_L1I PREFETCH REQUESTED:          0 ISSUED:          0 USEFUL:          0 USELESS:          0 LATE:          0
cpu0->cpu0_L1I AVERAGE MISS LATENCY: 167.7 cycles
cpu0->cpu0_L1D TOTAL        ACCESS:   14607934 HIT:    9986900 MISS:    4621034 MSHR_MERGE:    3525132
cpu0->cpu0_L1D LOAD         ACCESS:    4106718 HIT:    3452036 MISS:     654682 MSHR_MERGE:     311615
cpu0->cpu0_L1D RFO          ACCESS:          0 HIT:          0 MISS:          0 MSHR_MERGE:          0
cpu0->cpu0_L1D PREFETCH     ACCESS:     455938 HIT:     138569 MISS:     317369 MSHR_MERGE:      49951
cpu0->cpu0_L1D WRITE        ACCESS:   10045278 HIT:    6396295 MISS:    3648983 MSHR_MERGE:    3163566
cpu0->cpu0_L1D TRANSLATION  ACCESS:          0 HIT:          0 MISS:          0 MSHR_MERGE:          0
cpu0->cpu0_L1D PREFETCH REQUESTED:     662625 ISSUED:     455931 USEFUL:     258479 USELESS:       8934 LATE:      74466
cpu0->cpu0_L1D AVERAGE MISS LATENCY: 294.3 cycles
cpu0->cpu0_ITLB TOTAL        ACCESS:    6573275 HIT:    6573275 MISS:          0 MSHR_MERGE:          0
cpu0->cpu0_ITLB LOAD         ACCESS:    6573275 HIT:    6573275 MISS:          0 MSHR_MERGE:          0
cpu0->cpu0_ITLB RFO          ACCESS:          0 HIT:          0 MISS:          0 MSHR_MERGE:          0
cpu0->cpu0_ITLB PREFETCH     ACCESS:          0 HIT:          0 MISS:          0 MSHR_MERGE:          0
cpu0->cpu0_ITLB WRITE        ACCESS:          0 HIT:          0 MISS:          0 MSHR_MERGE:          0
cpu0->cpu0_ITLB TRANSLATION  ACCESS:          0 HIT:          0 MISS:          0 MSHR_MERGE:          0
cpu0->cpu0_ITLB PREFETCH REQUESTED:          0 ISSUED:          0 USEFUL:          0 USELESS:          0 LATE:          0
cpu0->cpu0_ITLB AVERAGE MISS LATENCY: - cycles
cpu0->cpu0_DTLB TOTAL        ACCESS:   13151694 HIT:   13090815 MISS:      60879 MSHR_MERGE:      38896
cpu0->cpu0_DTLB LOAD         ACCESS:   13151694 HIT:   13090815 MISS:      60879 MSHR_MERGE:      38896
cpu0->cpu0_DTLB RFO          ACCESS:          0 HIT:          0 MISS:          0 MSHR_MERGE:          0
cpu0->cpu0_DTLB PREFETCH     ACCESS:          0 HIT:          0 MISS:          0 MSHR_MERGE:          0
cpu0->cpu0_DTLB WRITE        ACCESS:          0 HIT:          0 MISS:          0 MSHR_MERGE:          0
cpu0->cpu0_DTLB TRANSLATION  ACCESS:          0 HIT:          0 MISS:          0 MSHR_MERGE:          0
cpu0->cpu0_DTLB PREFETCH REQUESTED:          0 ISSUED:          0 USEFUL:          0 USELESS:          0 LATE:          0
cpu0->cpu0_DTLB AVERAGE MISS LATENCY: 5.001 cycles
cpu0->LLC TOTAL        ACCESS:    1389924 HIT:     109966 MISS:    1279958 MSHR_MERGE:          0
cpu0->LLC LOAD         ACCESS:      14457 HIT:       1913 MISS:      12544 MSHR_MERGE:          0
cpu0->LLC RFO          ACCESS:     450891 HIT:       3355 MISS:     447536 MSHR_MERGE:          0
cpu0->LLC PREFETCH     ACCESS:     428760 HIT:      25743 MISS:     403017 MSHR_MERGE:          0
cpu0->LLC WRITE        ACCESS:     495816 HIT:      78955 MISS:     416861 MSHR_MERGE:          0
cpu0->LLC TRANSLATION  ACCESS:          0 HIT:          0 MISS:          0 MSHR_MERGE:          0
cpu0->LLC PREFETCH REQUESTED:          0 ISSUED:          0 USEFUL:          0 USELESS:          0 LATE:          0
cpu0->LLC AVERAGE MISS LATENCY: 245.7 cycles

DRAM Statistics

Channel 0 RQ ROW_BUFFER_HIT:      63841
  ROW_BUFFER_MISS:     799178
  AVG DBUS CONGESTED CYCLE: 6.944
Channel 0 WQ ROW_BUFFER_HIT:      53710
  ROW_BUFFER_MISS:     441224
  FULL:       3271
Channel 0 REFRESHES ISSUED:       2609

[ROI Statistics]
[System Configuration]
num_cpus 1
cpu_freq 4000
fetch_width 6
decode_width 6
dispatch_width 6
execute_width 6
lq_width 2
sq_width 2
retire_width 6
scheduler_size 160
branch_mispredict_penalty 1
rob_size 352
lq_size 240
sq_size 112
ifetch_buffer_size 64
decode_buffer_size 32
dispatch_buffer_size 32
register_file_size 288
decode_latency 1
dispatch_latency 1
schedule_latency 0
execute_latency 0
page_size 4096
block_size 64
core_0_itlb_set 16
core_0_itlb_way 4
core_0_itlb_rq_size 16
core_0_itlb_wq_size 16
core_0_itlb_pq_size 0
core_0_itlb_mshr_size 8
core_0_itlb_hit_latency 1
core_0_itlb_fill_latency 1
core_0_itlb_max_tag_check 2
core_0_itlb_max_fill 2
core_0_dtlb_set 16
core_0_dtlb_way 4
core_0_dtlb_rq_size 16
core_0_dtlb_wq_size 16
core_0_dtlb_pq_size 0
core_0_dtlb_mshr_size 8
core_0_dtlb_hit_latency 1
core_0_dtlb_fill_latency 1
core_0_dtlb_max_tag_check 2
core_0_dtlb_max_fill 2
core_0_stlb_set 128
core_0_stlb_way 12
core_0_stlb_rq_size 32
core_0_stlb_wq_size 32
core_0_stlb_pq_size 0
core_0_stlb_mshr_size 16
core_0_stlb_hit_latency 4
core_0_stlb_fill_latency 4
core_0_stlb_max_tag_check 1
core_0_stlb_max_fill 1
core_0_l1i_set 64
core_0_l1i_way 8
core_0_l1i_rq_size 64
core_0_l1i_wq_size 64
core_0_l1i_pq_size 32
core_0_l1i_mshr_size 8
core_0_l1i_hit_latency 2
core_0_l1i_fill_latency 2
core_0_l1i_max_tag_check 2
core_0_l1i_max_fill 2
core_0_l1d_set 64
core_0_l1d_way 12
core_0_l1d_rq_size 64
core_0_l1d_wq_size 64
core_0_l1d_pq_size 8
core_0_l1d_mshr_size 16
core_0_l1d_hit_latency 2
core_0_l1d_fill_latency 3
core_0_l1d_max_tag_check 2
core_0_l1d_max_fill 2
core_0_l2c_set 1024
core_0_l2c_way 8
core_0_l2c_rq_size 32
core_0_l2c_wq_size 32
core_0_l2c_pq_size 16
core_0_l2c_mshr_size 32
core_0_l2c_hit_latency 5
core_0_l2c_fill_latency 5
core_0_l2c_max_tag_check 1
core_0_l2c_max_fill 1
llc_set 2048
llc_way 16
llc_rq_size 32
llc_wq_size 32
llc_pq_size 32
llc_mshr_size 64
llc_hit_latency 10
llc_fill_latency 10
llc_max_tag_check 1
llc_max_fill 1
dram_channels 1
dram_ranks 1
dram_bankgroups 8
dram_banks 4
dram_rows 16384
dram_columns 1024
dram_channel_width 8
dram_rq_size 64
dram_wq_size 64
dram_size 4294967296
core_0_itlb_prefetcher no
core_0_dtlb_prefetcher no
core_0_stlb_prefetcher no
core_0_l1i_prefetcher next_line
core_0_l1d_prefetcher berti
core_0_l2c_prefetcher pythia
llc_prefetcher no
llc_replacement drrip

Core_0_instructions 50000004
Core_0_cycles 31304002
Core_0_IPC 1.59724
Core_0_branch_prediction_accuracy 99.3037
Core_0_branch_MPKI 0.69504
Core_0_average_ROB_occupancy_at_mispredict 200.526

Core_0_ITLB_total_access 6573275
Core_0_ITLB_total_hit 6573275
Core_0_ITLB_total_miss 0
Core_0_ITLB_total_MPKI 0
Core_0_ITLB_total_miss_rate 0
Core_0_ITLB_demand_access 6573275
Core_0_ITLB_demand_hit 6573275
Core_0_ITLB_demand_miss 0
Core_0_ITLB_demand_MPKI 0
Core_0_ITLB_demand_miss_rate 0
Core_0_ITLB_load_access 6573275
Core_0_ITLB_load_hit 6573275
Core_0_ITLB_load_miss 0
Core_0_ITLB_load_MPKI 0
Core_0_ITLB_load_miss_rate 0
Core_0_ITLB_rfo_access 0
Core_0_ITLB_rfo_hit 0
Core_0_ITLB_rfo_miss 0
Core_0_ITLB_rfo_MPKI 0
Core_0_ITLB_rfo_miss_rate 0
Core_0_ITLB_prefetch_access 0
Core_0_ITLB_prefetch_hit 0
Core_0_ITLB_prefetch_miss 0
Core_0_ITLB_prefetch_MPKI 0
Core_0_ITLB_prefetch_miss_rate 0
Core_0_ITLB_writeback_access 0
Core_0_ITLB_writeback_hit 0
Core_0_ITLB_writeback_miss 0
Core_0_ITLB_writeback_MPKI 0
Core_0_ITLB_writeback_miss_rate 0
Core_0_ITLB_prefetch_requested 0
Core_0_ITLB_prefetch_issued 0
Core_0_ITLB_prefetch_useful 0
Core_0_ITLB_prefetch_useless 0
Core_0_ITLB_prefetch_late 0
Core_0_ITLB_prefetch_accuracy 0
Core_0_ITLB_prefetch_coverage 0

Core_0_DTLB_total_access 13151694
Core_0_DTLB_total_hit 13090815
Core_0_DTLB_total_miss 60879
Core_0_DTLB_total_MPKI 1.21758
Core_0_DTLB_total_miss_rate 0.00462899
Core_0_DTLB_demand_access 13151694
Core_0_DTLB_demand_hit 13090815
Core_0_DTLB_demand_miss 60879
Core_0_DTLB_demand_MPKI 1.21758
Core_0_DTLB_demand_miss_rate 0.00462899
Core_0_DTLB_load_access 13151694
Core_0_DTLB_load_hit 13090815
Core_0_DTLB_load_miss 60879
Core_0_DTLB_load_MPKI 1.21758
Core_0_DTLB_load_miss_rate 0.00462899
Core_0_DTLB_rfo_access 0
Core_0_DTLB_rfo_hit 0
Core_0_DTLB_rfo_miss 0
Core_0_DTLB_rfo_MPKI 0
Core_0_DTLB_rfo_miss_rate 0
Core_0_DTLB_prefetch_access 0
Core_0_DTLB_prefetch_hit 0
Core_0_DTLB_prefetch_miss 0
Core_0_DTLB_prefetch_MPKI 0
Core_0_DTLB_prefetch_miss_rate 0
Core_0_DTLB_writeback_access 0
Core_0_DTLB_writeback_hit 0
Core_0_DTLB_writeback_miss 0
Core_0_DTLB_writeback_MPKI 0
Core_0_DTLB_writeback_miss_rate 0
Core_0_DTLB_prefetch_requested 0
Core_0_DTLB_prefetch_issued 0
Core_0_DTLB_prefetch_useful 0
Core_0_DTLB_prefetch_useless 0
Core_0_DTLB_prefetch_late 0
Core_0_DTLB_prefetch_accuracy 0
Core_0_DTLB_prefetch_coverage 0

Core_0_STLB_total_access 21983
Core_0_STLB_total_hit 21983
Core_0_STLB_total_miss 0
Core_0_STLB_total_MPKI 0
Core_0_STLB_total_miss_rate 0
Core_0_STLB_demand_access 21983
Core_0_STLB_demand_hit 21983
Core_0_STLB_demand_miss 0
Core_0_STLB_demand_MPKI 0
Core_0_STLB_demand_miss_rate 0
Core_0_STLB_load_access 21983
Core_0_STLB_load_hit 21983
Core_0_STLB_load_miss 0
Core_0_STLB_load_MPKI 0
Core_0_STLB_load_miss_rate 0
Core_0_STLB_rfo_access 0
Core_0_STLB_rfo_hit 0
Core_0_STLB_rfo_miss 0
Core_0_STLB_rfo_MPKI 0
Core_0_STLB_rfo_miss_rate 0
Core_0_STLB_prefetch_access 0
Core_0_STLB_prefetch_hit 0
Core_0_STLB_prefetch_miss 0
Core_0_STLB_prefetch_MPKI 0
Core_0_STLB_prefetch_miss_rate 0
Core_0_STLB_writeback_access 0
Core_0_STLB_writeback_hit 0
Core_0_STLB_writeback_miss 0
Core_0_STLB_writeback_MPKI 0
Core_0_STLB_writeback_miss_rate 0
Core_0_STLB_prefetch_requested 0
Core_0_STLB_prefetch_issued 0
Core_0_STLB_prefetch_useful 0
Core_0_STLB_prefetch_useless 0
Core_0_STLB_prefetch_late 0
Core_0_STLB_prefetch_accuracy 0
Core_0_STLB_prefetch_coverage 0

Core_0_L1I_total_access 7006775
Core_0_L1I_total_hit 7006770
Core_0_L1I_total_miss 5
Core_0_L1I_total_MPKI 0.0001
Core_0_L1I_total_miss_rate 7.13595e-07
Core_0_L1I_demand_access 7006775
Core_0_L1I_demand_hit 7006770
Core_0_L1I_demand_miss 5
Core_0_L1I_demand_MPKI 0.0001
Core_0_L1I_demand_miss_rate 7.13595e-07
Core_0_L1I_load_access 7006775
Core_0_L1I_load_hit 7006770
Core_0_L1I_load_miss 5
Core_0_L1I_load_MPKI 0.0001
Core_0_L1I_load_miss_rate 7.13595e-07
Core_0_L1I_rfo_access 0
Core_0_L1I_rfo_hit 0
Core_0_L1I_rfo_miss 0
Core_0_L1I_rfo_MPKI 0
Core_0_L1I_rfo_miss_rate 0
Core_0_L1I_prefetch_access 0
Core_0_L1I_prefetch_hit 0
Core_0_L1I_prefetch_miss 0
Core_0_L1I_prefetch_MPKI 0
Core_0_L1I_prefetch_miss_rate 0
Core_0_L1I_writeback_access 0
Core_0_L1I_writeback_hit 0
Core_0_L1I_writeback_miss 0
Core_0_L1I_writeback_MPKI 0
Core_0_L1I_writeback_miss_rate 0
Core_0_L1I_prefetch_requested 0
Core_0_L1I_prefetch_issued 0
Core_0_L1I_prefetch_useful 0
Core_0_L1I_prefetch_useless 0
Core_0_L1I_prefetch_late 0
Core_0_L1I_prefetch_accuracy 0
Core_0_L1I_prefetch_coverage 0

Core_0_L1D_total_access 14607934
Core_0_L1D_total_hit 9986900
Core_0_L1D_total_miss 4621034
Core_0_L1D_total_MPKI 92.4207
Core_0_L1D_total_miss_rate 0.316337
Core_0_L1D_demand_access 4106718
Core_0_L1D_demand_hit 3452036
Core_0_L1D_demand_miss 654682
Core_0_L1D_demand_MPKI 13.0936
Core_0_L1D_demand_miss_rate 0.159417
Core_0_L1D_load_access 4106718
Core_0_L1D_load_hit 3452036
Core_0_L1D_load_miss 654682
Core_0_L1D_load_MPKI 13.0936
Core_0_L1D_load_miss_rate 0.159417
Core_0_L1D_rfo_access 0
Core_0_L1D_rfo_hit 0
Core_0_L1D_rfo_miss 0
Core_0_L1D_rfo_MPKI 0
Core_0_L1D_rfo_miss_rate 0
Core_0_L1D_prefetch_access 455938
Core_0_L1D_prefetch_hit 138569
Core_0_L1D_prefetch_miss 317369
Core_0_L1D_prefetch_MPKI 6.34738
Core_0_L1D_prefetch_miss_rate 0.696079
Core_0_L1D_writeback_access 10045278
Core_0_L1D_writeback_hit 6396295
Core_0_L1D_writeback_miss 3648983
Core_0_L1D_writeback_MPKI 72.9797
Core_0_L1D_writeback_miss_rate 0.363254
Core_0_L1D_prefetch_requested 662625
Core_0_L1D_prefetch_issued 455931
Core_0_L1D_prefetch_useful 258479
Core_0_L1D_prefetch_useless 8934
Core_0_L1D_prefetch_late 74466
Core_0_L1D_prefetch_accuracy 0.566926
Core_0_L1D_prefetch_coverage 0.28306

Core_0_L2C_total_access 3976547
Core_0_L2C_total_hit 1519951
Core_0_L2C_total_miss 2456596
Core_0_L2C_total_MPKI 49.1319
Core_0_L2C_total_miss_rate 0.617771
Core_0_L2C_demand_access 828471
Core_0_L2C_demand_hit 277995
Core_0_L2C_demand_miss 550476
Core_0_L2C_demand_MPKI 11.0095
Core_0_L2C_demand_miss_rate 0.664448
Core_0_L2C_load_access 343068
Core_0_L2C_load_hit 243527
Core_0_L2C_load_miss 99541
Core_0_L2C_load_MPKI 1.99082
Core_0_L2C_load_miss_rate 0.290149
Core_0_L2C_rfo_access 485403
Core_0_L2C_rfo_hit 34468
Core_0_L2C_rfo_miss 450935
Core_0_L2C_rfo_MPKI 9.0187
Core_0_L2C_rfo_miss_rate 0.928991
Core_0_L2C_prefetch_access 2623616
Core_0_L2C_prefetch_hit 717520
Core_0_L2C_prefetch_miss 1906096
Core_0_L2C_prefetch_MPKI 38.1219
Core_0_L2C_prefetch_miss_rate 0.726515
Core_0_L2C_writeback_access 524460
Core_0_L2C_writeback_hit 524436
Core_0_L2C_writeback_miss 24
Core_0_L2C_writeback_MPKI 0.00048
Core_0_L2C_writeback_miss_rate 4.57614e-05
Core_0_L2C_prefetch_requested 2477785
Core_0_L2C_prefetch_issued 2356198
Core_0_L2C_prefetch_useful 309244
Core_0_L2C_prefetch_useless 96642
Core_0_L2C_prefetch_late 85128
Core_0_L2C_prefetch_accuracy 0.131247
Core_0_L2C_prefetch_coverage 0.359703

Core_0_LLC_total_access 1389924
Core_0_LLC_total_hit 109966
Core_0_LLC_total_miss 1279958
Core_0_LLC_total_MPKI 25.5992
Core_0_LLC_total_miss_rate 0.920883
Core_0_LLC_demand_access 465348
Core_0_LLC_demand_hit 5268
Core_0_LLC_demand_miss 460080
Core_0_LLC_demand_MPKI 9.2016
Core_0_LLC_demand_miss_rate 0.988679
Core_0_LLC_load_access 14457
Core_0_LLC_load_hit 1913
Core_0_LLC_load_miss 12544
Core_0_LLC_load_MPKI 0.25088
Core_0_LLC_load_miss_rate 0.867677
Core_0_LLC_rfo_access 450891
Core_0_LLC_rfo_hit 3355
Core_0_LLC_rfo_miss 447536
Core_0_LLC_rfo_MPKI 8.95072
Core_0_LLC_rfo_miss_rate 0.992559
Core_0_LLC_prefetch_access 428760
Core_0_LLC_prefetch_hit 25743
Core_0_LLC_prefetch_miss 403017
Core_0_LLC_prefetch_MPKI 8.06034
Core_0_LLC_prefetch_miss_rate 0.939959
Core_0_LLC_writeback_access 495816
Core_0_LLC_writeback_hit 78955
Core_0_LLC_writeback_miss 416861
Core_0_LLC_writeback_MPKI 8.33722
Core_0_LLC_writeback_miss_rate 0.840757
Core_0_LLC_prefetch_requested 0
Core_0_LLC_prefetch_issued 0
Core_0_LLC_prefetch_useful 0
Core_0_LLC_prefetch_useless 0
Core_0_LLC_prefetch_late 0
Core_0_LLC_prefetch_accuracy 0
Core_0_LLC_prefetch_coverage 0

[DRAM Statistics]
Channel_0_RQ_row_buffer_hit 63841
Channel_0_RQ_row_buffer_miss 799178
Channel_0_WQ_row_buffer_hit 53710
Channel_0_WQ_row_buffer_miss 441224
Channel_0_WQ_full 3271
Channel_0_dbus_congested 4609618
DRAM_total_RQ_row_buffer_hit 63841
DRAM_total_RQ_row_buffer_miss 799178
DRAM_total_WQ_row_buffer_hit 53710
DRAM_total_WQ_row_buffer_miss 441224
DRAM_total_WQ_full 3271
DRAM_total_dbus_congested 4609618
DRAM_avg_congested_cycle 6.94435

======STLB miss causes ========
Core_0_STLB_miss_cause_breakdown
Core_0_STLB_cause_Demand_Data_miss 0
Core_0_STLB_cause_Demand_Data_miss_rate 0
Core_0_STLB_cause_Demand_Instruction_miss 0
Core_0_STLB_cause_Demand_Instruction_miss_rate 0
Core_0_STLB_cause_L1D_Prefetch_miss 0
Core_0_STLB_cause_L1D_Prefetch_miss_rate 0
Core_0_STLB_cause_L1I_Prefetch_miss 0
Core_0_STLB_cause_L1I_Prefetch_miss_rate 0
Core_0_STLB_cause_Other_miss 0
Core_0_STLB_cause_Other_miss_rate 0
Core_0_STLB_Demand_miss 0
Core_0_STLB_Demand_miss_rate 0
Core_0_STLB_L1D_Prefetch_miss 0
Core_0_STLB_L1D_Prefetch_miss_rate 0
Core_0_STLB_Other_miss 0
Core_0_STLB_Other_miss_rate 0
