[VMEM] WARNING: physical memory size is smaller than virtual memory size.

*** ChampSim Multicore Out-of-Order Simulator ***
Warmup Instructions: 20000000
Simulation Instructions: 50000000
Number of CPUs: 1
Page size: 4096
STLB ideal mode: all
Core 0: /data0/tzh/champsim_traces/Ligra/ligra_Components-Shortcut.com-lj.ungraph.gcc_6.3.0_O3.drop_17000M.length_250M.champsimtrace.xz
 L1D Berti prefetcher
Off-chip DRAM Size: 4 GiB Channels: 1 Width: 64-bit Data Rate: 3205 MT/s
Warmup halting CPU 0 at instruction 20000005 cycle 5058448 for remainder of phase
Warmup finished CPU 0 instructions: 20000005 cycles: 5058448 cumulative IPC: 3.954 (Simulation time: 00 hr 01 min 08 sec)
Warmup complete CPU 0 instructions: 20000005 cycles: 5058448 cumulative IPC: 3.954 (Simulation time: 00 hr 01 min 08 sec)
Simulation finished CPU 0 instructions: 50000002 cycles: 31306298 cumulative IPC: 1.597 (Simulation time: 00 hr 06 min 44 sec)
Simulation complete CPU 0 instructions: 50000002 cycles: 31306298 cumulative IPC: 1.597 (Simulation time: 00 hr 06 min 44 sec)

ChampSim completed all CPUs

=== Simulation ===
CPU 0 runs /data0/tzh/champsim_traces/Ligra/ligra_Components-Shortcut.com-lj.ungraph.gcc_6.3.0_O3.drop_17000M.length_250M.champsimtrace.xz

Region of Interest Statistics

CPU 0 cumulative IPC: 1.597 instructions: 50000002 cycles: 31306298
CPU 0 Branch Prediction Accuracy: 99.3% MPKI: 0.6965 Average ROB Occupancy at Mispredict: 191.9
Branch type MPKI
BRANCH_DIRECT_JUMP: 2e-05
BRANCH_INDIRECT: 0
BRANCH_CONDITIONAL: 0.6964
BRANCH_DIRECT_CALL: 4e-05
BRANCH_INDIRECT_CALL: 0
BRANCH_RETURN: 0.0001

cpu0->cpu0_STLB TOTAL        ACCESS:      21861 HIT:      21861 MISS:          0 MSHR_MERGE:          0
cpu0->cpu0_STLB LOAD         ACCESS:      21861 HIT:      21861 MISS:          0 MSHR_MERGE:          0
cpu0->cpu0_STLB RFO          ACCESS:          0 HIT:          0 MISS:          0 MSHR_MERGE:          0
cpu0->cpu0_STLB PREFETCH     ACCESS:          0 HIT:          0 MISS:          0 MSHR_MERGE:          0
cpu0->cpu0_STLB WRITE        ACCESS:          0 HIT:          0 MISS:          0 MSHR_MERGE:          0
cpu0->cpu0_STLB TRANSLATION  ACCESS:          0 HIT:          0 MISS:          0 MSHR_MERGE:          0
cpu0->cpu0_STLB PREFETCH REQUESTED:          0 ISSUED:          0 USEFUL:          0 USELESS:          0 LATE:          0
cpu0->cpu0_STLB AVERAGE MISS LATENCY: - cycles
cpu0->cpu0_L2C TOTAL        ACCESS:    3469461 HIT:    2029670 MISS:    1439791 MSHR_MERGE:     549928
cpu0->cpu0_L2C LOAD         ACCESS:     397964 HIT:     322662 MISS:      75302 MSHR_MERGE:      57732
cpu0->cpu0_L2C RFO          ACCESS:     480198 HIT:      34163 MISS:     446035 MSHR_MERGE:         22
cpu0->cpu0_L2C PREFETCH     ACCESS:    2060856 HIT:    1142444 MISS:     918412 MSHR_MERGE:     492174
cpu0->cpu0_L2C WRITE        ACCESS:     530443 HIT:     530401 MISS:         42 MSHR_MERGE:          0
cpu0->cpu0_L2C TRANSLATION  ACCESS:          0 HIT:          0 MISS:          0 MSHR_MERGE:          0
cpu0->cpu0_L2C PREFETCH REQUESTED:    1926896 ISSUED:    1863702 USEFUL:     345382 USELESS:      49646 LATE:      57754
cpu0->cpu0_L2C AVERAGE MISS LATENCY: 472.8 cycles
cpu0->cpu0_L1I TOTAL        ACCESS:    7292104 HIT:    7292102 MISS:          2 MSHR_MERGE:          1
cpu0->cpu0_L1I LOAD         ACCESS:    7292104 HIT:    7292102 MISS:          2 MSHR_MERGE:          1
cpu0->cpu0_L1I RFO          ACCESS:          0 HIT:          0 MISS:          0 MSHR_MERGE:          0
cpu0->cpu0_L1I PREFETCH     ACCESS:          0 HIT:          0 MISS:          0 MSHR_MERGE:          0
cpu0->cpu0_L1I WRITE        ACCESS:          0 HIT:          0 MISS:          0 MSHR_MERGE:          0
cpu0->cpu0_L1I TRANSLATION  ACCESS:          0 HIT:          0 MISS:          0 MSHR_MERGE:          0
cpu0->cpu0_L1I PREFETCH REQUESTED:          0 ISSUED:          0 USEFUL:          0 USELESS:          0 LATE:          0
cpu0->cpu0_L1I AVERAGE MISS LATENCY: 226 cycles
cpu0->cpu0_L1D TOTAL        ACCESS:   14504506 HIT:    9969181 MISS:    4535325 MSHR_MERGE:    3459989
cpu0->cpu0_L1D LOAD         ACCESS:    4241169 HIT:    3588667 MISS:     652502 MSHR_MERGE:     254536
cpu0->cpu0_L1D RFO          ACCESS:          0 HIT:          0 MISS:          0 MSHR_MERGE:          0
cpu0->cpu0_L1D PREFETCH     ACCESS:     386023 HIT:     162303 MISS:     223720 MSHR_MERGE:      26565
cpu0->cpu0_L1D WRITE        ACCESS:    9877314 HIT:    6218211 MISS:    3659103 MSHR_MERGE:    3178888
cpu0->cpu0_L1D TRANSLATION  ACCESS:          0 HIT:          0 MISS:          0 MSHR_MERGE:          0
cpu0->cpu0_L1D PREFETCH REQUESTED:     662320 ISSUED:     386023 USEFUL:     189113 USELESS:       8043 LATE:      35557
cpu0->cpu0_L1D AVERAGE MISS LATENCY: 290.6 cycles
cpu0->cpu0_ITLB TOTAL        ACCESS:    6476062 HIT:    6476062 MISS:          0 MSHR_MERGE:          0
cpu0->cpu0_ITLB LOAD         ACCESS:    6476062 HIT:    6476062 MISS:          0 MSHR_MERGE:          0
cpu0->cpu0_ITLB RFO          ACCESS:          0 HIT:          0 MISS:          0 MSHR_MERGE:          0
cpu0->cpu0_ITLB PREFETCH     ACCESS:          0 HIT:          0 MISS:          0 MSHR_MERGE:          0
cpu0->cpu0_ITLB WRITE        ACCESS:          0 HIT:          0 MISS:          0 MSHR_MERGE:          0
cpu0->cpu0_ITLB TRANSLATION  ACCESS:          0 HIT:          0 MISS:          0 MSHR_MERGE:          0
cpu0->cpu0_ITLB PREFETCH REQUESTED:          0 ISSUED:          0 USEFUL:          0 USELESS:          0 LATE:          0
cpu0->cpu0_ITLB AVERAGE MISS LATENCY: - cycles
cpu0->cpu0_DTLB TOTAL        ACCESS:   13130616 HIT:   13070348 MISS:      60268 MSHR_MERGE:      38407
cpu0->cpu0_DTLB LOAD         ACCESS:   13130616 HIT:   13070348 MISS:      60268 MSHR_MERGE:      38407
cpu0->cpu0_DTLB RFO          ACCESS:          0 HIT:          0 MISS:          0 MSHR_MERGE:          0
cpu0->cpu0_DTLB PREFETCH     ACCESS:          0 HIT:          0 MISS:          0 MSHR_MERGE:          0
cpu0->cpu0_DTLB WRITE        ACCESS:          0 HIT:          0 MISS:          0 MSHR_MERGE:          0
cpu0->cpu0_DTLB TRANSLATION  ACCESS:          0 HIT:          0 MISS:          0 MSHR_MERGE:          0
cpu0->cpu0_DTLB PREFETCH REQUESTED:          0 ISSUED:          0 USEFUL:          0 USELESS:          0 LATE:          0
cpu0->cpu0_DTLB AVERAGE MISS LATENCY: 5.001 cycles
cpu0->LLC TOTAL        ACCESS:    1393577 HIT:     109690 MISS:    1283887 MSHR_MERGE:          0
cpu0->LLC LOAD         ACCESS:      17570 HIT:       2148 MISS:      15422 MSHR_MERGE:          0
cpu0->LLC RFO          ACCESS:     446013 HIT:       2426 MISS:     443587 MSHR_MERGE:          0
cpu0->LLC PREFETCH     ACCESS:     426238 HIT:      25474 MISS:     400764 MSHR_MERGE:          0
cpu0->LLC WRITE        ACCESS:     503756 HIT:      79642 MISS:     424114 MSHR_MERGE:          0
cpu0->LLC TRANSLATION  ACCESS:          0 HIT:          0 MISS:          0 MSHR_MERGE:          0
cpu0->LLC PREFETCH REQUESTED:          0 ISSUED:          0 USEFUL:          0 USELESS:          0 LATE:          0
cpu0->LLC AVERAGE MISS LATENCY: 255.2 cycles

DRAM Statistics

Channel 0 RQ ROW_BUFFER_HIT:      73965
  ROW_BUFFER_MISS:     785727
  AVG DBUS CONGESTED CYCLE: 6.632
Channel 0 WQ ROW_BUFFER_HIT:      50659
  ROW_BUFFER_MISS:     453087
  FULL:       5196
Channel 0 REFRESHES ISSUED:       2609

[ROI Statistics]
[System Configuration]
num_cpus 1
cpu_freq 4000
fetch_width 6
decode_width 6
dispatch_width 6
execute_width 6
lq_width 2
sq_width 2
retire_width 6
scheduler_size 160
branch_mispredict_penalty 1
rob_size 352
lq_size 240
sq_size 112
ifetch_buffer_size 64
decode_buffer_size 32
dispatch_buffer_size 32
register_file_size 288
decode_latency 1
dispatch_latency 1
schedule_latency 0
execute_latency 0
page_size 4096
block_size 64
core_0_itlb_set 16
core_0_itlb_way 4
core_0_itlb_rq_size 16
core_0_itlb_wq_size 16
core_0_itlb_pq_size 0
core_0_itlb_mshr_size 8
core_0_itlb_hit_latency 1
core_0_itlb_fill_latency 1
core_0_itlb_max_tag_check 2
core_0_itlb_max_fill 2
core_0_dtlb_set 16
core_0_dtlb_way 4
core_0_dtlb_rq_size 16
core_0_dtlb_wq_size 16
core_0_dtlb_pq_size 0
core_0_dtlb_mshr_size 8
core_0_dtlb_hit_latency 1
core_0_dtlb_fill_latency 1
core_0_dtlb_max_tag_check 2
core_0_dtlb_max_fill 2
core_0_stlb_set 128
core_0_stlb_way 12
core_0_stlb_rq_size 32
core_0_stlb_wq_size 32
core_0_stlb_pq_size 0
core_0_stlb_mshr_size 16
core_0_stlb_hit_latency 4
core_0_stlb_fill_latency 4
core_0_stlb_max_tag_check 1
core_0_stlb_max_fill 1
core_0_l1i_set 64
core_0_l1i_way 8
core_0_l1i_rq_size 64
core_0_l1i_wq_size 64
core_0_l1i_pq_size 32
core_0_l1i_mshr_size 8
core_0_l1i_hit_latency 2
core_0_l1i_fill_latency 2
core_0_l1i_max_tag_check 2
core_0_l1i_max_fill 2
core_0_l1d_set 64
core_0_l1d_way 12
core_0_l1d_rq_size 64
core_0_l1d_wq_size 64
core_0_l1d_pq_size 8
core_0_l1d_mshr_size 16
core_0_l1d_hit_latency 2
core_0_l1d_fill_latency 3
core_0_l1d_max_tag_check 2
core_0_l1d_max_fill 2
core_0_l2c_set 1024
core_0_l2c_way 8
core_0_l2c_rq_size 32
core_0_l2c_wq_size 32
core_0_l2c_pq_size 16
core_0_l2c_mshr_size 32
core_0_l2c_hit_latency 5
core_0_l2c_fill_latency 5
core_0_l2c_max_tag_check 1
core_0_l2c_max_fill 1
llc_set 2048
llc_way 16
llc_rq_size 32
llc_wq_size 32
llc_pq_size 32
llc_mshr_size 64
llc_hit_latency 10
llc_fill_latency 10
llc_max_tag_check 1
llc_max_fill 1
dram_channels 1
dram_ranks 1
dram_bankgroups 8
dram_banks 4
dram_rows 16384
dram_columns 1024
dram_channel_width 8
dram_rq_size 64
dram_wq_size 64
dram_size 4294967296
core_0_itlb_prefetcher no
core_0_dtlb_prefetcher no
core_0_stlb_prefetcher no
core_0_l1i_prefetcher next_line
core_0_l1d_prefetcher berti
core_0_l2c_prefetcher pythia
llc_prefetcher no
llc_replacement drrip

Core_0_instructions 50000002
Core_0_cycles 31306298
Core_0_IPC 1.59712
Core_0_branch_prediction_accuracy 99.3003
Core_0_branch_MPKI 0.69652
Core_0_average_ROB_occupancy_at_mispredict 191.866

Core_0_ITLB_total_access 6476062
Core_0_ITLB_total_hit 6476062
Core_0_ITLB_total_miss 0
Core_0_ITLB_total_MPKI 0
Core_0_ITLB_total_miss_rate 0
Core_0_ITLB_demand_access 6476062
Core_0_ITLB_demand_hit 6476062
Core_0_ITLB_demand_miss 0
Core_0_ITLB_demand_MPKI 0
Core_0_ITLB_demand_miss_rate 0
Core_0_ITLB_load_access 6476062
Core_0_ITLB_load_hit 6476062
Core_0_ITLB_load_miss 0
Core_0_ITLB_load_MPKI 0
Core_0_ITLB_load_miss_rate 0
Core_0_ITLB_rfo_access 0
Core_0_ITLB_rfo_hit 0
Core_0_ITLB_rfo_miss 0
Core_0_ITLB_rfo_MPKI 0
Core_0_ITLB_rfo_miss_rate 0
Core_0_ITLB_prefetch_access 0
Core_0_ITLB_prefetch_hit 0
Core_0_ITLB_prefetch_miss 0
Core_0_ITLB_prefetch_MPKI 0
Core_0_ITLB_prefetch_miss_rate 0
Core_0_ITLB_writeback_access 0
Core_0_ITLB_writeback_hit 0
Core_0_ITLB_writeback_miss 0
Core_0_ITLB_writeback_MPKI 0
Core_0_ITLB_writeback_miss_rate 0
Core_0_ITLB_prefetch_requested 0
Core_0_ITLB_prefetch_issued 0
Core_0_ITLB_prefetch_useful 0
Core_0_ITLB_prefetch_useless 0
Core_0_ITLB_prefetch_late 0
Core_0_ITLB_prefetch_accuracy 0
Core_0_ITLB_prefetch_coverage 0

Core_0_DTLB_total_access 13130616
Core_0_DTLB_total_hit 13070348
Core_0_DTLB_total_miss 60268
Core_0_DTLB_total_MPKI 1.20536
Core_0_DTLB_total_miss_rate 0.00458988
Core_0_DTLB_demand_access 13130616
Core_0_DTLB_demand_hit 13070348
Core_0_DTLB_demand_miss 60268
Core_0_DTLB_demand_MPKI 1.20536
Core_0_DTLB_demand_miss_rate 0.00458988
Core_0_DTLB_load_access 13130616
Core_0_DTLB_load_hit 13070348
Core_0_DTLB_load_miss 60268
Core_0_DTLB_load_MPKI 1.20536
Core_0_DTLB_load_miss_rate 0.00458988
Core_0_DTLB_rfo_access 0
Core_0_DTLB_rfo_hit 0
Core_0_DTLB_rfo_miss 0
Core_0_DTLB_rfo_MPKI 0
Core_0_DTLB_rfo_miss_rate 0
Core_0_DTLB_prefetch_access 0
Core_0_DTLB_prefetch_hit 0
Core_0_DTLB_prefetch_miss 0
Core_0_DTLB_prefetch_MPKI 0
Core_0_DTLB_prefetch_miss_rate 0
Core_0_DTLB_writeback_access 0
Core_0_DTLB_writeback_hit 0
Core_0_DTLB_writeback_miss 0
Core_0_DTLB_writeback_MPKI 0
Core_0_DTLB_writeback_miss_rate 0
Core_0_DTLB_prefetch_requested 0
Core_0_DTLB_prefetch_issued 0
Core_0_DTLB_prefetch_useful 0
Core_0_DTLB_prefetch_useless 0
Core_0_DTLB_prefetch_late 0
Core_0_DTLB_prefetch_accuracy 0
Core_0_DTLB_prefetch_coverage 0

Core_0_STLB_total_access 21861
Core_0_STLB_total_hit 21861
Core_0_STLB_total_miss 0
Core_0_STLB_total_MPKI 0
Core_0_STLB_total_miss_rate 0
Core_0_STLB_demand_access 21861
Core_0_STLB_demand_hit 21861
Core_0_STLB_demand_miss 0
Core_0_STLB_demand_MPKI 0
Core_0_STLB_demand_miss_rate 0
Core_0_STLB_load_access 21861
Core_0_STLB_load_hit 21861
Core_0_STLB_load_miss 0
Core_0_STLB_load_MPKI 0
Core_0_STLB_load_miss_rate 0
Core_0_STLB_rfo_access 0
Core_0_STLB_rfo_hit 0
Core_0_STLB_rfo_miss 0
Core_0_STLB_rfo_MPKI 0
Core_0_STLB_rfo_miss_rate 0
Core_0_STLB_prefetch_access 0
Core_0_STLB_prefetch_hit 0
Core_0_STLB_prefetch_miss 0
Core_0_STLB_prefetch_MPKI 0
Core_0_STLB_prefetch_miss_rate 0
Core_0_STLB_writeback_access 0
Core_0_STLB_writeback_hit 0
Core_0_STLB_writeback_miss 0
Core_0_STLB_writeback_MPKI 0
Core_0_STLB_writeback_miss_rate 0
Core_0_STLB_prefetch_requested 0
Core_0_STLB_prefetch_issued 0
Core_0_STLB_prefetch_useful 0
Core_0_STLB_prefetch_useless 0
Core_0_STLB_prefetch_late 0
Core_0_STLB_prefetch_accuracy 0
Core_0_STLB_prefetch_coverage 0

Core_0_L1I_total_access 7292104
Core_0_L1I_total_hit 7292102
Core_0_L1I_total_miss 2
Core_0_L1I_total_MPKI 4e-05
Core_0_L1I_total_miss_rate 2.74269e-07
Core_0_L1I_demand_access 7292104
Core_0_L1I_demand_hit 7292102
Core_0_L1I_demand_miss 2
Core_0_L1I_demand_MPKI 4e-05
Core_0_L1I_demand_miss_rate 2.74269e-07
Core_0_L1I_load_access 7292104
Core_0_L1I_load_hit 7292102
Core_0_L1I_load_miss 2
Core_0_L1I_load_MPKI 4e-05
Core_0_L1I_load_miss_rate 2.74269e-07
Core_0_L1I_rfo_access 0
Core_0_L1I_rfo_hit 0
Core_0_L1I_rfo_miss 0
Core_0_L1I_rfo_MPKI 0
Core_0_L1I_rfo_miss_rate 0
Core_0_L1I_prefetch_access 0
Core_0_L1I_prefetch_hit 0
Core_0_L1I_prefetch_miss 0
Core_0_L1I_prefetch_MPKI 0
Core_0_L1I_prefetch_miss_rate 0
Core_0_L1I_writeback_access 0
Core_0_L1I_writeback_hit 0
Core_0_L1I_writeback_miss 0
Core_0_L1I_writeback_MPKI 0
Core_0_L1I_writeback_miss_rate 0
Core_0_L1I_prefetch_requested 0
Core_0_L1I_prefetch_issued 0
Core_0_L1I_prefetch_useful 0
Core_0_L1I_prefetch_useless 0
Core_0_L1I_prefetch_late 0
Core_0_L1I_prefetch_accuracy 0
Core_0_L1I_prefetch_coverage 0

Core_0_L1D_total_access 14504506
Core_0_L1D_total_hit 9969181
Core_0_L1D_total_miss 4535325
Core_0_L1D_total_MPKI 90.7065
Core_0_L1D_total_miss_rate 0.312684
Core_0_L1D_demand_access 4241169
Core_0_L1D_demand_hit 3588667
Core_0_L1D_demand_miss 652502
Core_0_L1D_demand_MPKI 13.05
Core_0_L1D_demand_miss_rate 0.15385
Core_0_L1D_load_access 4241169
Core_0_L1D_load_hit 3588667
Core_0_L1D_load_miss 652502
Core_0_L1D_load_MPKI 13.05
Core_0_L1D_load_miss_rate 0.15385
Core_0_L1D_rfo_access 0
Core_0_L1D_rfo_hit 0
Core_0_L1D_rfo_miss 0
Core_0_L1D_rfo_MPKI 0
Core_0_L1D_rfo_miss_rate 0
Core_0_L1D_prefetch_access 386023
Core_0_L1D_prefetch_hit 162303
Core_0_L1D_prefetch_miss 223720
Core_0_L1D_prefetch_MPKI 4.4744
Core_0_L1D_prefetch_miss_rate 0.579551
Core_0_L1D_writeback_access 9877314
Core_0_L1D_writeback_hit 6218211
Core_0_L1D_writeback_miss 3659103
Core_0_L1D_writeback_MPKI 73.1821
Core_0_L1D_writeback_miss_rate 0.370455
Core_0_L1D_prefetch_requested 662320
Core_0_L1D_prefetch_issued 386023
Core_0_L1D_prefetch_useful 189113
Core_0_L1D_prefetch_useless 8043
Core_0_L1D_prefetch_late 35557
Core_0_L1D_prefetch_accuracy 0.489901
Core_0_L1D_prefetch_coverage 0.224703

Core_0_L2C_total_access 3469461
Core_0_L2C_total_hit 2029670
Core_0_L2C_total_miss 1439791
Core_0_L2C_total_MPKI 28.7958
Core_0_L2C_total_miss_rate 0.41499
Core_0_L2C_demand_access 878162
Core_0_L2C_demand_hit 356825
Core_0_L2C_demand_miss 521337
Core_0_L2C_demand_MPKI 10.4267
Core_0_L2C_demand_miss_rate 0.593668
Core_0_L2C_load_access 397964
Core_0_L2C_load_hit 322662
Core_0_L2C_load_miss 75302
Core_0_L2C_load_MPKI 1.50604
Core_0_L2C_load_miss_rate 0.189218
Core_0_L2C_rfo_access 480198
Core_0_L2C_rfo_hit 34163
Core_0_L2C_rfo_miss 446035
Core_0_L2C_rfo_MPKI 8.9207
Core_0_L2C_rfo_miss_rate 0.928856
Core_0_L2C_prefetch_access 2060856
Core_0_L2C_prefetch_hit 1142444
Core_0_L2C_prefetch_miss 918412
Core_0_L2C_prefetch_MPKI 18.3682
Core_0_L2C_prefetch_miss_rate 0.445646
Core_0_L2C_writeback_access 530443
Core_0_L2C_writeback_hit 530401
Core_0_L2C_writeback_miss 42
Core_0_L2C_writeback_MPKI 0.00084
Core_0_L2C_writeback_miss_rate 7.91791e-05
Core_0_L2C_prefetch_requested 1926896
Core_0_L2C_prefetch_issued 1863702
Core_0_L2C_prefetch_useful 345382
Core_0_L2C_prefetch_useless 49646
Core_0_L2C_prefetch_late 57754
Core_0_L2C_prefetch_accuracy 0.18532
Core_0_L2C_prefetch_coverage 0.398494

Core_0_LLC_total_access 1393577
Core_0_LLC_total_hit 109690
Core_0_LLC_total_miss 1283887
Core_0_LLC_total_MPKI 25.6777
Core_0_LLC_total_miss_rate 0.921289
Core_0_LLC_demand_access 463583
Core_0_LLC_demand_hit 4574
Core_0_LLC_demand_miss 459009
Core_0_LLC_demand_MPKI 9.18018
Core_0_LLC_demand_miss_rate 0.990133
Core_0_LLC_load_access 17570
Core_0_LLC_load_hit 2148
Core_0_LLC_load_miss 15422
Core_0_LLC_load_MPKI 0.30844
Core_0_LLC_load_miss_rate 0.877746
Core_0_LLC_rfo_access 446013
Core_0_LLC_rfo_hit 2426
Core_0_LLC_rfo_miss 443587
Core_0_LLC_rfo_MPKI 8.87174
Core_0_LLC_rfo_miss_rate 0.994561
Core_0_LLC_prefetch_access 426238
Core_0_LLC_prefetch_hit 25474
Core_0_LLC_prefetch_miss 400764
Core_0_LLC_prefetch_MPKI 8.01528
Core_0_LLC_prefetch_miss_rate 0.940235
Core_0_LLC_writeback_access 503756
Core_0_LLC_writeback_hit 79642
Core_0_LLC_writeback_miss 424114
Core_0_LLC_writeback_MPKI 8.48228
Core_0_LLC_writeback_miss_rate 0.841904
Core_0_LLC_prefetch_requested 0
Core_0_LLC_prefetch_issued 0
Core_0_LLC_prefetch_useful 0
Core_0_LLC_prefetch_useless 0
Core_0_LLC_prefetch_late 0
Core_0_LLC_prefetch_accuracy 0
Core_0_LLC_prefetch_coverage 0

[DRAM Statistics]
Channel_0_RQ_row_buffer_hit 73965
Channel_0_RQ_row_buffer_miss 785727
Channel_0_WQ_row_buffer_hit 50659
Channel_0_WQ_row_buffer_miss 453087
Channel_0_WQ_full 5196
Channel_0_dbus_congested 4673854
DRAM_total_RQ_row_buffer_hit 73965
DRAM_total_RQ_row_buffer_miss 785727
DRAM_total_WQ_row_buffer_hit 50659
DRAM_total_WQ_row_buffer_miss 453087
DRAM_total_WQ_full 5196
DRAM_total_dbus_congested 4673854
DRAM_avg_congested_cycle 6.63199

======STLB miss causes ========
Core_0_STLB_miss_cause_breakdown
Core_0_STLB_cause_Demand_Data_miss 0
Core_0_STLB_cause_Demand_Data_miss_rate 0
Core_0_STLB_cause_Demand_Instruction_miss 0
Core_0_STLB_cause_Demand_Instruction_miss_rate 0
Core_0_STLB_cause_L1D_Prefetch_miss 0
Core_0_STLB_cause_L1D_Prefetch_miss_rate 0
Core_0_STLB_cause_L1I_Prefetch_miss 0
Core_0_STLB_cause_L1I_Prefetch_miss_rate 0
Core_0_STLB_cause_Other_miss 0
Core_0_STLB_cause_Other_miss_rate 0
Core_0_STLB_Demand_miss 0
Core_0_STLB_Demand_miss_rate 0
Core_0_STLB_L1D_Prefetch_miss 0
Core_0_STLB_L1D_Prefetch_miss_rate 0
Core_0_STLB_Other_miss 0
Core_0_STLB_Other_miss_rate 0
