[VMEM] WARNING: physical memory size is smaller than virtual memory size.

*** ChampSim Multicore Out-of-Order Simulator ***
Warmup Instructions: 20000000
Simulation Instructions: 50000000
Number of CPUs: 1
Page size: 4096
STLB ideal mode: all
Core 0: /data0/tzh/champsim_traces/Ligra/ligra_BFS-Bitvector.com-lj.ungraph.gcc_6.3.0_O3.drop_23000M.length_250M.champsimtrace.xz
 L1D Berti prefetcher
Off-chip DRAM Size: 4 GiB Channels: 1 Width: 64-bit Data Rate: 3205 MT/s
Warmup halting CPU 0 at instruction 20000004 cycle 4000036 for remainder of phase
Warmup finished CPU 0 instructions: 20000004 cycles: 4000036 cumulative IPC: 5 (Simulation time: 00 hr 01 min 09 sec)
Warmup complete CPU 0 instructions: 20000004 cycles: 4000036 cumulative IPC: 5 (Simulation time: 00 hr 01 min 09 sec)
Simulation finished CPU 0 instructions: 50000000 cycles: 47876488 cumulative IPC: 1.044 (Simulation time: 00 hr 06 min 53 sec)
Simulation complete CPU 0 instructions: 50000000 cycles: 47876488 cumulative IPC: 1.044 (Simulation time: 00 hr 06 min 53 sec)

ChampSim completed all CPUs

=== Simulation ===
CPU 0 runs /data0/tzh/champsim_traces/Ligra/ligra_BFS-Bitvector.com-lj.ungraph.gcc_6.3.0_O3.drop_23000M.length_250M.champsimtrace.xz

Region of Interest Statistics

CPU 0 cumulative IPC: 1.044 instructions: 50000000 cycles: 47876488
CPU 0 Branch Prediction Accuracy: 95.8% MPKI: 9.858 Average ROB Occupancy at Mispredict: 56.01
Branch type MPKI
BRANCH_DIRECT_JUMP: 0
BRANCH_INDIRECT: 0
BRANCH_CONDITIONAL: 9.858
BRANCH_DIRECT_CALL: 0
BRANCH_INDIRECT_CALL: 0
BRANCH_RETURN: 0

cpu0->cpu0_STLB TOTAL        ACCESS:     961731 HIT:     961731 MISS:          0 MSHR_MERGE:          0
cpu0->cpu0_STLB LOAD         ACCESS:     961731 HIT:     961731 MISS:          0 MSHR_MERGE:          0
cpu0->cpu0_STLB RFO          ACCESS:          0 HIT:          0 MISS:          0 MSHR_MERGE:          0
cpu0->cpu0_STLB PREFETCH     ACCESS:          0 HIT:          0 MISS:          0 MSHR_MERGE:          0
cpu0->cpu0_STLB WRITE        ACCESS:          0 HIT:          0 MISS:          0 MSHR_MERGE:          0
cpu0->cpu0_STLB TRANSLATION  ACCESS:          0 HIT:          0 MISS:          0 MSHR_MERGE:          0
cpu0->cpu0_STLB PREFETCH REQUESTED:          0 ISSUED:          0 USEFUL:          0 USELESS:          0 LATE:          0
cpu0->cpu0_STLB AVERAGE MISS LATENCY: - cycles
cpu0->cpu0_L2C TOTAL        ACCESS:    4916254 HIT:    2511017 MISS:    2405237 MSHR_MERGE:     305028
cpu0->cpu0_L2C LOAD         ACCESS:    1038319 HIT:     304085 MISS:     734234 MSHR_MERGE:       2998
cpu0->cpu0_L2C RFO          ACCESS:      23685 HIT:         16 MISS:      23669 MSHR_MERGE:          0
cpu0->cpu0_L2C PREFETCH     ACCESS:    3829630 HIT:    2182356 MISS:    1647274 MSHR_MERGE:     302030
cpu0->cpu0_L2C WRITE        ACCESS:      24620 HIT:      24560 MISS:         60 MSHR_MERGE:          0
cpu0->cpu0_L2C TRANSLATION  ACCESS:          0 HIT:          0 MISS:          0 MSHR_MERGE:          0
cpu0->cpu0_L2C PREFETCH REQUESTED:    3307141 ISSUED:    3293440 USEFUL:     518591 USELESS:     714084 LATE:       2998
cpu0->cpu0_L2C AVERAGE MISS LATENCY: 50.15 cycles
cpu0->cpu0_L1I TOTAL        ACCESS:    1024148 HIT:    1024148 MISS:          0 MSHR_MERGE:          0
cpu0->cpu0_L1I LOAD         ACCESS:    1024148 HIT:    1024148 MISS:          0 MSHR_MERGE:          0
cpu0->cpu0_L1I RFO          ACCESS:          0 HIT:          0 MISS:          0 MSHR_MERGE:          0
cpu0->cpu0_L1I PREFETCH     ACCESS:          0 HIT:          0 MISS:          0 MSHR_MERGE:          0
cpu0->cpu0_L1I WRITE        ACCESS:          0 HIT:          0 MISS:          0 MSHR_MERGE:          0
cpu0->cpu0_L1I TRANSLATION  ACCESS:          0 HIT:          0 MISS:          0 MSHR_MERGE:          0
cpu0->cpu0_L1I PREFETCH REQUESTED:          0 ISSUED:          0 USEFUL:          0 USELESS:          0 LATE:          0
cpu0->cpu0_L1I AVERAGE MISS LATENCY: - cycles
cpu0->cpu0_L1D TOTAL        ACCESS:   12760984 HIT:   11036469 MISS:    1724515 MSHR_MERGE:     126333
cpu0->cpu0_L1D LOAD         ACCESS:   10887496 HIT:    9757596 MISS:    1129900 MSHR_MERGE:      91582
cpu0->cpu0_L1D RFO          ACCESS:          0 HIT:          0 MISS:          0 MSHR_MERGE:          0
cpu0->cpu0_L1D PREFETCH     ACCESS:     650441 HIT:     112638 MISS:     537803 MSHR_MERGE:       1624
cpu0->cpu0_L1D WRITE        ACCESS:    1223047 HIT:    1166235 MISS:      56812 MSHR_MERGE:      33127
cpu0->cpu0_L1D TRANSLATION  ACCESS:          0 HIT:          0 MISS:          0 MSHR_MERGE:          0
cpu0->cpu0_L1D PREFETCH REQUESTED:     650495 ISSUED:     650440 USEFUL:     376178 USELESS:     160020 LATE:       6295
cpu0->cpu0_L1D AVERAGE MISS LATENCY: 44.82 cycles
cpu0->cpu0_ITLB TOTAL        ACCESS:    1019698 HIT:    1019698 MISS:          0 MSHR_MERGE:          0
cpu0->cpu0_ITLB LOAD         ACCESS:    1019698 HIT:    1019698 MISS:          0 MSHR_MERGE:          0
cpu0->cpu0_ITLB RFO          ACCESS:          0 HIT:          0 MISS:          0 MSHR_MERGE:          0
cpu0->cpu0_ITLB PREFETCH     ACCESS:          0 HIT:          0 MISS:          0 MSHR_MERGE:          0
cpu0->cpu0_ITLB WRITE        ACCESS:          0 HIT:          0 MISS:          0 MSHR_MERGE:          0
cpu0->cpu0_ITLB TRANSLATION  ACCESS:          0 HIT:          0 MISS:          0 MSHR_MERGE:          0
cpu0->cpu0_ITLB PREFETCH REQUESTED:          0 ISSUED:          0 USEFUL:          0 USELESS:          0 LATE:          0
cpu0->cpu0_ITLB AVERAGE MISS LATENCY: - cycles
cpu0->cpu0_DTLB TOTAL        ACCESS:   12591912 HIT:   11588332 MISS:    1003580 MSHR_MERGE:      41849
cpu0->cpu0_DTLB LOAD         ACCESS:   12591912 HIT:   11588332 MISS:    1003580 MSHR_MERGE:      41849
cpu0->cpu0_DTLB RFO          ACCESS:          0 HIT:          0 MISS:          0 MSHR_MERGE:          0
cpu0->cpu0_DTLB PREFETCH     ACCESS:          0 HIT:          0 MISS:          0 MSHR_MERGE:          0
cpu0->cpu0_DTLB WRITE        ACCESS:          0 HIT:          0 MISS:          0 MSHR_MERGE:          0
cpu0->cpu0_DTLB TRANSLATION  ACCESS:          0 HIT:          0 MISS:          0 MSHR_MERGE:          0
cpu0->cpu0_DTLB PREFETCH REQUESTED:          0 ISSUED:          0 USEFUL:          0 USELESS:          0 LATE:          0
cpu0->cpu0_DTLB AVERAGE MISS LATENCY: 5.004 cycles
cpu0->LLC TOTAL        ACCESS:    2124744 HIT:    1444640 MISS:     680104 MSHR_MERGE:          0
cpu0->LLC LOAD         ACCESS:     731236 HIT:     624001 MISS:     107235 MSHR_MERGE:          0
cpu0->LLC RFO          ACCESS:      23669 HIT:          0 MISS:      23669 MSHR_MERGE:          0
cpu0->LLC PREFETCH     ACCESS:    1345244 HIT:     810009 MISS:     535235 MSHR_MERGE:          0
cpu0->LLC WRITE        ACCESS:      24595 HIT:      10630 MISS:      13965 MSHR_MERGE:          0
cpu0->LLC TRANSLATION  ACCESS:          0 HIT:          0 MISS:          0 MSHR_MERGE:          0
cpu0->LLC PREFETCH REQUESTED:          0 ISSUED:          0 USEFUL:          0 USELESS:          0 LATE:          0
cpu0->LLC AVERAGE MISS LATENCY: 182.3 cycles

DRAM Statistics

Channel 0 RQ ROW_BUFFER_HIT:      11900
  ROW_BUFFER_MISS:     654239
  AVG DBUS CONGESTED CYCLE: 13.27
Channel 0 WQ ROW_BUFFER_HIT:       9227
  ROW_BUFFER_MISS:      14503
  FULL:          0
Channel 0 REFRESHES ISSUED:       3990

[ROI Statistics]
[System Configuration]
num_cpus 1
cpu_freq 4000
fetch_width 6
decode_width 6
dispatch_width 6
execute_width 6
lq_width 2
sq_width 2
retire_width 6
scheduler_size 160
branch_mispredict_penalty 1
rob_size 352
lq_size 240
sq_size 112
ifetch_buffer_size 64
decode_buffer_size 32
dispatch_buffer_size 32
register_file_size 288
decode_latency 1
dispatch_latency 1
schedule_latency 0
execute_latency 0
page_size 4096
block_size 64
core_0_itlb_set 16
core_0_itlb_way 4
core_0_itlb_rq_size 16
core_0_itlb_wq_size 16
core_0_itlb_pq_size 0
core_0_itlb_mshr_size 8
core_0_itlb_hit_latency 1
core_0_itlb_fill_latency 1
core_0_itlb_max_tag_check 2
core_0_itlb_max_fill 2
core_0_dtlb_set 16
core_0_dtlb_way 4
core_0_dtlb_rq_size 16
core_0_dtlb_wq_size 16
core_0_dtlb_pq_size 0
core_0_dtlb_mshr_size 8
core_0_dtlb_hit_latency 1
core_0_dtlb_fill_latency 1
core_0_dtlb_max_tag_check 2
core_0_dtlb_max_fill 2
core_0_stlb_set 128
core_0_stlb_way 12
core_0_stlb_rq_size 32
core_0_stlb_wq_size 32
core_0_stlb_pq_size 0
core_0_stlb_mshr_size 16
core_0_stlb_hit_latency 4
core_0_stlb_fill_latency 4
core_0_stlb_max_tag_check 1
core_0_stlb_max_fill 1
core_0_l1i_set 64
core_0_l1i_way 8
core_0_l1i_rq_size 64
core_0_l1i_wq_size 64
core_0_l1i_pq_size 32
core_0_l1i_mshr_size 8
core_0_l1i_hit_latency 2
core_0_l1i_fill_latency 2
core_0_l1i_max_tag_check 2
core_0_l1i_max_fill 2
core_0_l1d_set 64
core_0_l1d_way 12
core_0_l1d_rq_size 64
core_0_l1d_wq_size 64
core_0_l1d_pq_size 8
core_0_l1d_mshr_size 16
core_0_l1d_hit_latency 2
core_0_l1d_fill_latency 3
core_0_l1d_max_tag_check 2
core_0_l1d_max_fill 2
core_0_l2c_set 1024
core_0_l2c_way 8
core_0_l2c_rq_size 32
core_0_l2c_wq_size 32
core_0_l2c_pq_size 16
core_0_l2c_mshr_size 32
core_0_l2c_hit_latency 5
core_0_l2c_fill_latency 5
core_0_l2c_max_tag_check 1
core_0_l2c_max_fill 1
llc_set 2048
llc_way 16
llc_rq_size 32
llc_wq_size 32
llc_pq_size 32
llc_mshr_size 64
llc_hit_latency 10
llc_fill_latency 10
llc_max_tag_check 1
llc_max_fill 1
dram_channels 1
dram_ranks 1
dram_bankgroups 8
dram_banks 4
dram_rows 16384
dram_columns 1024
dram_channel_width 8
dram_rq_size 64
dram_wq_size 64
dram_size 4294967296
core_0_itlb_prefetcher no
core_0_dtlb_prefetcher no
core_0_stlb_prefetcher no
core_0_l1i_prefetcher next_line
core_0_l1d_prefetcher berti
core_0_l2c_prefetcher pythia
llc_prefetcher no
llc_replacement drrip

Core_0_instructions 50000000
Core_0_cycles 47876488
Core_0_IPC 1.04435
Core_0_branch_prediction_accuracy 95.7971
Core_0_branch_MPKI 9.8579
Core_0_average_ROB_occupancy_at_mispredict 56.0119

Core_0_ITLB_total_access 1019698
Core_0_ITLB_total_hit 1019698
Core_0_ITLB_total_miss 0
Core_0_ITLB_total_MPKI 0
Core_0_ITLB_total_miss_rate 0
Core_0_ITLB_demand_access 1019698
Core_0_ITLB_demand_hit 1019698
Core_0_ITLB_demand_miss 0
Core_0_ITLB_demand_MPKI 0
Core_0_ITLB_demand_miss_rate 0
Core_0_ITLB_load_access 1019698
Core_0_ITLB_load_hit 1019698
Core_0_ITLB_load_miss 0
Core_0_ITLB_load_MPKI 0
Core_0_ITLB_load_miss_rate 0
Core_0_ITLB_rfo_access 0
Core_0_ITLB_rfo_hit 0
Core_0_ITLB_rfo_miss 0
Core_0_ITLB_rfo_MPKI 0
Core_0_ITLB_rfo_miss_rate 0
Core_0_ITLB_prefetch_access 0
Core_0_ITLB_prefetch_hit 0
Core_0_ITLB_prefetch_miss 0
Core_0_ITLB_prefetch_MPKI 0
Core_0_ITLB_prefetch_miss_rate 0
Core_0_ITLB_writeback_access 0
Core_0_ITLB_writeback_hit 0
Core_0_ITLB_writeback_miss 0
Core_0_ITLB_writeback_MPKI 0
Core_0_ITLB_writeback_miss_rate 0
Core_0_ITLB_prefetch_requested 0
Core_0_ITLB_prefetch_issued 0
Core_0_ITLB_prefetch_useful 0
Core_0_ITLB_prefetch_useless 0
Core_0_ITLB_prefetch_late 0
Core_0_ITLB_prefetch_accuracy 0
Core_0_ITLB_prefetch_coverage 0

Core_0_DTLB_total_access 12591912
Core_0_DTLB_total_hit 11588332
Core_0_DTLB_total_miss 1003580
Core_0_DTLB_total_MPKI 20.0716
Core_0_DTLB_total_miss_rate 0.0797004
Core_0_DTLB_demand_access 12591912
Core_0_DTLB_demand_hit 11588332
Core_0_DTLB_demand_miss 1003580
Core_0_DTLB_demand_MPKI 20.0716
Core_0_DTLB_demand_miss_rate 0.0797004
Core_0_DTLB_load_access 12591912
Core_0_DTLB_load_hit 11588332
Core_0_DTLB_load_miss 1003580
Core_0_DTLB_load_MPKI 20.0716
Core_0_DTLB_load_miss_rate 0.0797004
Core_0_DTLB_rfo_access 0
Core_0_DTLB_rfo_hit 0
Core_0_DTLB_rfo_miss 0
Core_0_DTLB_rfo_MPKI 0
Core_0_DTLB_rfo_miss_rate 0
Core_0_DTLB_prefetch_access 0
Core_0_DTLB_prefetch_hit 0
Core_0_DTLB_prefetch_miss 0
Core_0_DTLB_prefetch_MPKI 0
Core_0_DTLB_prefetch_miss_rate 0
Core_0_DTLB_writeback_access 0
Core_0_DTLB_writeback_hit 0
Core_0_DTLB_writeback_miss 0
Core_0_DTLB_writeback_MPKI 0
Core_0_DTLB_writeback_miss_rate 0
Core_0_DTLB_prefetch_requested 0
Core_0_DTLB_prefetch_issued 0
Core_0_DTLB_prefetch_useful 0
Core_0_DTLB_prefetch_useless 0
Core_0_DTLB_prefetch_late 0
Core_0_DTLB_prefetch_accuracy 0
Core_0_DTLB_prefetch_coverage 0

Core_0_STLB_total_access 961731
Core_0_STLB_total_hit 961731
Core_0_STLB_total_miss 0
Core_0_STLB_total_MPKI 0
Core_0_STLB_total_miss_rate 0
Core_0_STLB_demand_access 961731
Core_0_STLB_demand_hit 961731
Core_0_STLB_demand_miss 0
Core_0_STLB_demand_MPKI 0
Core_0_STLB_demand_miss_rate 0
Core_0_STLB_load_access 961731
Core_0_STLB_load_hit 961731
Core_0_STLB_load_miss 0
Core_0_STLB_load_MPKI 0
Core_0_STLB_load_miss_rate 0
Core_0_STLB_rfo_access 0
Core_0_STLB_rfo_hit 0
Core_0_STLB_rfo_miss 0
Core_0_STLB_rfo_MPKI 0
Core_0_STLB_rfo_miss_rate 0
Core_0_STLB_prefetch_access 0
Core_0_STLB_prefetch_hit 0
Core_0_STLB_prefetch_miss 0
Core_0_STLB_prefetch_MPKI 0
Core_0_STLB_prefetch_miss_rate 0
Core_0_STLB_writeback_access 0
Core_0_STLB_writeback_hit 0
Core_0_STLB_writeback_miss 0
Core_0_STLB_writeback_MPKI 0
Core_0_STLB_writeback_miss_rate 0
Core_0_STLB_prefetch_requested 0
Core_0_STLB_prefetch_issued 0
Core_0_STLB_prefetch_useful 0
Core_0_STLB_prefetch_useless 0
Core_0_STLB_prefetch_late 0
Core_0_STLB_prefetch_accuracy 0
Core_0_STLB_prefetch_coverage 0

Core_0_L1I_total_access 1024148
Core_0_L1I_total_hit 1024148
Core_0_L1I_total_miss 0
Core_0_L1I_total_MPKI 0
Core_0_L1I_total_miss_rate 0
Core_0_L1I_demand_access 1024148
Core_0_L1I_demand_hit 1024148
Core_0_L1I_demand_miss 0
Core_0_L1I_demand_MPKI 0
Core_0_L1I_demand_miss_rate 0
Core_0_L1I_load_access 1024148
Core_0_L1I_load_hit 1024148
Core_0_L1I_load_miss 0
Core_0_L1I_load_MPKI 0
Core_0_L1I_load_miss_rate 0
Core_0_L1I_rfo_access 0
Core_0_L1I_rfo_hit 0
Core_0_L1I_rfo_miss 0
Core_0_L1I_rfo_MPKI 0
Core_0_L1I_rfo_miss_rate 0
Core_0_L1I_prefetch_access 0
Core_0_L1I_prefetch_hit 0
Core_0_L1I_prefetch_miss 0
Core_0_L1I_prefetch_MPKI 0
Core_0_L1I_prefetch_miss_rate 0
Core_0_L1I_writeback_access 0
Core_0_L1I_writeback_hit 0
Core_0_L1I_writeback_miss 0
Core_0_L1I_writeback_MPKI 0
Core_0_L1I_writeback_miss_rate 0
Core_0_L1I_prefetch_requested 0
Core_0_L1I_prefetch_issued 0
Core_0_L1I_prefetch_useful 0
Core_0_L1I_prefetch_useless 0
Core_0_L1I_prefetch_late 0
Core_0_L1I_prefetch_accuracy 0
Core_0_L1I_prefetch_coverage 0

Core_0_L1D_total_access 12760984
Core_0_L1D_total_hit 11036469
Core_0_L1D_total_miss 1724515
Core_0_L1D_total_MPKI 34.4903
Core_0_L1D_total_miss_rate 0.13514
Core_0_L1D_demand_access 10887496
Core_0_L1D_demand_hit 9757596
Core_0_L1D_demand_miss 1129900
Core_0_L1D_demand_MPKI 22.598
Core_0_L1D_demand_miss_rate 0.10378
Core_0_L1D_load_access 10887496
Core_0_L1D_load_hit 9757596
Core_0_L1D_load_miss 1129900
Core_0_L1D_load_MPKI 22.598
Core_0_L1D_load_miss_rate 0.10378
Core_0_L1D_rfo_access 0
Core_0_L1D_rfo_hit 0
Core_0_L1D_rfo_miss 0
Core_0_L1D_rfo_MPKI 0
Core_0_L1D_rfo_miss_rate 0
Core_0_L1D_prefetch_access 650441
Core_0_L1D_prefetch_hit 112638
Core_0_L1D_prefetch_miss 537803
Core_0_L1D_prefetch_MPKI 10.7561
Core_0_L1D_prefetch_miss_rate 0.826828
Core_0_L1D_writeback_access 1223047
Core_0_L1D_writeback_hit 1166235
Core_0_L1D_writeback_miss 56812
Core_0_L1D_writeback_MPKI 1.13624
Core_0_L1D_writeback_miss_rate 0.0464512
Core_0_L1D_prefetch_requested 650495
Core_0_L1D_prefetch_issued 650440
Core_0_L1D_prefetch_useful 376178
Core_0_L1D_prefetch_useless 160020
Core_0_L1D_prefetch_late 6295
Core_0_L1D_prefetch_accuracy 0.578344
Core_0_L1D_prefetch_coverage 0.249773

Core_0_L2C_total_access 4916254
Core_0_L2C_total_hit 2511017
Core_0_L2C_total_miss 2405237
Core_0_L2C_total_MPKI 48.1047
Core_0_L2C_total_miss_rate 0.489242
Core_0_L2C_demand_access 1062004
Core_0_L2C_demand_hit 304101
Core_0_L2C_demand_miss 757903
Core_0_L2C_demand_MPKI 15.1581
Core_0_L2C_demand_miss_rate 0.713654
Core_0_L2C_load_access 1038319
Core_0_L2C_load_hit 304085
Core_0_L2C_load_miss 734234
Core_0_L2C_load_MPKI 14.6847
Core_0_L2C_load_miss_rate 0.707137
Core_0_L2C_rfo_access 23685
Core_0_L2C_rfo_hit 16
Core_0_L2C_rfo_miss 23669
Core_0_L2C_rfo_MPKI 0.47338
Core_0_L2C_rfo_miss_rate 0.999324
Core_0_L2C_prefetch_access 3829630
Core_0_L2C_prefetch_hit 2182356
Core_0_L2C_prefetch_miss 1647274
Core_0_L2C_prefetch_MPKI 32.9455
Core_0_L2C_prefetch_miss_rate 0.430139
Core_0_L2C_writeback_access 24620
Core_0_L2C_writeback_hit 24560
Core_0_L2C_writeback_miss 60
Core_0_L2C_writeback_MPKI 0.0012
Core_0_L2C_writeback_miss_rate 0.00243704
Core_0_L2C_prefetch_requested 3307141
Core_0_L2C_prefetch_issued 3293440
Core_0_L2C_prefetch_useful 518591
Core_0_L2C_prefetch_useless 714084
Core_0_L2C_prefetch_late 2998
Core_0_L2C_prefetch_accuracy 0.157462
Core_0_L2C_prefetch_coverage 0.406262

Core_0_LLC_total_access 2124744
Core_0_LLC_total_hit 1444640
Core_0_LLC_total_miss 680104
Core_0_LLC_total_MPKI 13.6021
Core_0_LLC_total_miss_rate 0.320088
Core_0_LLC_demand_access 754905
Core_0_LLC_demand_hit 624001
Core_0_LLC_demand_miss 130904
Core_0_LLC_demand_MPKI 2.61808
Core_0_LLC_demand_miss_rate 0.173405
Core_0_LLC_load_access 731236
Core_0_LLC_load_hit 624001
Core_0_LLC_load_miss 107235
Core_0_LLC_load_MPKI 2.1447
Core_0_LLC_load_miss_rate 0.146649
Core_0_LLC_rfo_access 23669
Core_0_LLC_rfo_hit 0
Core_0_LLC_rfo_miss 23669
Core_0_LLC_rfo_MPKI 0.47338
Core_0_LLC_rfo_miss_rate 1
Core_0_LLC_prefetch_access 1345244
Core_0_LLC_prefetch_hit 810009
Core_0_LLC_prefetch_miss 535235
Core_0_LLC_prefetch_MPKI 10.7047
Core_0_LLC_prefetch_miss_rate 0.397872
Core_0_LLC_writeback_access 24595
Core_0_LLC_writeback_hit 10630
Core_0_LLC_writeback_miss 13965
Core_0_LLC_writeback_MPKI 0.2793
Core_0_LLC_writeback_miss_rate 0.567798
Core_0_LLC_prefetch_requested 0
Core_0_LLC_prefetch_issued 0
Core_0_LLC_prefetch_useful 0
Core_0_LLC_prefetch_useless 0
Core_0_LLC_prefetch_late 0
Core_0_LLC_prefetch_accuracy 0
Core_0_LLC_prefetch_coverage 0

[DRAM Statistics]
Channel_0_RQ_row_buffer_hit 11900
Channel_0_RQ_row_buffer_miss 654239
Channel_0_WQ_row_buffer_hit 9227
Channel_0_WQ_row_buffer_miss 14503
Channel_0_WQ_full 0
Channel_0_dbus_congested 957801
DRAM_total_RQ_row_buffer_hit 11900
DRAM_total_RQ_row_buffer_miss 654239
DRAM_total_WQ_row_buffer_hit 9227
DRAM_total_WQ_row_buffer_miss 14503
DRAM_total_WQ_full 0
DRAM_total_dbus_congested 957801
DRAM_avg_congested_cycle 13.2707

======STLB miss causes ========
Core_0_STLB_miss_cause_breakdown
Core_0_STLB_cause_Demand_Data_miss 0
Core_0_STLB_cause_Demand_Data_miss_rate 0
Core_0_STLB_cause_Demand_Instruction_miss 0
Core_0_STLB_cause_Demand_Instruction_miss_rate 0
Core_0_STLB_cause_L1D_Prefetch_miss 0
Core_0_STLB_cause_L1D_Prefetch_miss_rate 0
Core_0_STLB_cause_L1I_Prefetch_miss 0
Core_0_STLB_cause_L1I_Prefetch_miss_rate 0
Core_0_STLB_cause_Other_miss 0
Core_0_STLB_cause_Other_miss_rate 0
Core_0_STLB_Demand_miss 0
Core_0_STLB_Demand_miss_rate 0
Core_0_STLB_L1D_Prefetch_miss 0
Core_0_STLB_L1D_Prefetch_miss_rate 0
Core_0_STLB_Other_miss 0
Core_0_STLB_Other_miss_rate 0
