[VMEM] WARNING: physical memory size is smaller than virtual memory size.

*** ChampSim Multicore Out-of-Order Simulator ***
Warmup Instructions: 20000000
Simulation Instructions: 50000000
Number of CPUs: 1
Page size: 4096
STLB ideal mode: all
Core 0: /data0/tzh/champsim_traces/Ligra/ligra_BC.com-lj.ungraph.gcc_6.3.0_O3.drop_26750M.length_250M.champsimtrace.xz
 L1D Berti prefetcher
Off-chip DRAM Size: 4 GiB Channels: 1 Width: 64-bit Data Rate: 3205 MT/s
Warmup halting CPU 0 at instruction 20000000 cycle 5460516 for remainder of phase
Warmup finished CPU 0 instructions: 20000000 cycles: 5460516 cumulative IPC: 3.663 (Simulation time: 00 hr 00 min 44 sec)
Warmup complete CPU 0 instructions: 20000000 cycles: 5460516 cumulative IPC: 3.663 (Simulation time: 00 hr 00 min 44 sec)
Simulation finished CPU 0 instructions: 50000001 cycles: 27438716 cumulative IPC: 1.822 (Simulation time: 00 hr 04 min 06 sec)
Simulation complete CPU 0 instructions: 50000001 cycles: 27438716 cumulative IPC: 1.822 (Simulation time: 00 hr 04 min 06 sec)

ChampSim completed all CPUs

=== Simulation ===
CPU 0 runs /data0/tzh/champsim_traces/Ligra/ligra_BC.com-lj.ungraph.gcc_6.3.0_O3.drop_26750M.length_250M.champsimtrace.xz

Region of Interest Statistics

CPU 0 cumulative IPC: 1.822 instructions: 50000001 cycles: 27438716
CPU 0 Branch Prediction Accuracy: 90.39% MPKI: 23.63 Average ROB Occupancy at Mispredict: 8.074
Branch type MPKI
BRANCH_DIRECT_JUMP: 0.00034
BRANCH_INDIRECT: 0
BRANCH_CONDITIONAL: 23.63
BRANCH_DIRECT_CALL: 0.00024
BRANCH_INDIRECT_CALL: 0
BRANCH_RETURN: 0.0002

cpu0->cpu0_STLB TOTAL        ACCESS:       3843 HIT:       3843 MISS:          0 MSHR_MERGE:          0
cpu0->cpu0_STLB LOAD         ACCESS:       3843 HIT:       3843 MISS:          0 MSHR_MERGE:          0
cpu0->cpu0_STLB RFO          ACCESS:          0 HIT:          0 MISS:          0 MSHR_MERGE:          0
cpu0->cpu0_STLB PREFETCH     ACCESS:          0 HIT:          0 MISS:          0 MSHR_MERGE:          0
cpu0->cpu0_STLB WRITE        ACCESS:          0 HIT:          0 MISS:          0 MSHR_MERGE:          0
cpu0->cpu0_STLB TRANSLATION  ACCESS:          0 HIT:          0 MISS:          0 MSHR_MERGE:          0
cpu0->cpu0_STLB PREFETCH REQUESTED:          0 ISSUED:          0 USEFUL:          0 USELESS:          0 LATE:          0
cpu0->cpu0_STLB AVERAGE MISS LATENCY: - cycles
cpu0->cpu0_L2C TOTAL        ACCESS:    1016717 HIT:     654713 MISS:     362004 MSHR_MERGE:     118435
cpu0->cpu0_L2C LOAD         ACCESS:       2310 HIT:        193 MISS:       2117 MSHR_MERGE:          4
cpu0->cpu0_L2C RFO          ACCESS:     115610 HIT:         10 MISS:     115600 MSHR_MERGE:          0
cpu0->cpu0_L2C PREFETCH     ACCESS:     783110 HIT:     538823 MISS:     244287 MSHR_MERGE:     118431
cpu0->cpu0_L2C WRITE        ACCESS:     115687 HIT:     115687 MISS:          0 MSHR_MERGE:          0
cpu0->cpu0_L2C TRANSLATION  ACCESS:          0 HIT:          0 MISS:          0 MSHR_MERGE:          0
cpu0->cpu0_L2C PREFETCH REQUESTED:     657393 ISSUED:     657393 USEFUL:     117445 USELESS:       6685 LATE:          4
cpu0->cpu0_L2C AVERAGE MISS LATENCY: 207.5 cycles
cpu0->cpu0_L1I TOTAL        ACCESS:    1348039 HIT:    1347951 MISS:         88 MSHR_MERGE:          9
cpu0->cpu0_L1I LOAD         ACCESS:    1348039 HIT:    1347951 MISS:         88 MSHR_MERGE:          9
cpu0->cpu0_L1I RFO          ACCESS:          0 HIT:          0 MISS:          0 MSHR_MERGE:          0
cpu0->cpu0_L1I PREFETCH     ACCESS:          0 HIT:          0 MISS:          0 MSHR_MERGE:          0
cpu0->cpu0_L1I WRITE        ACCESS:          0 HIT:          0 MISS:          0 MSHR_MERGE:          0
cpu0->cpu0_L1I TRANSLATION  ACCESS:          0 HIT:          0 MISS:          0 MSHR_MERGE:          0
cpu0->cpu0_L1I PREFETCH REQUESTED:          0 ISSUED:          0 USEFUL:          0 USELESS:          0 LATE:          0
cpu0->cpu0_L1I AVERAGE MISS LATENCY: 223.3 cycles
cpu0->cpu0_L1D TOTAL        ACCESS:   10183669 HIT:    8286028 MISS:    1897641 MSHR_MERGE:    1654083
cpu0->cpu0_L1D LOAD         ACCESS:    8165875 HIT:    8033573 MISS:     132302 MSHR_MERGE:     130071
cpu0->cpu0_L1D RFO          ACCESS:          0 HIT:          0 MISS:          0 MSHR_MERGE:          0
cpu0->cpu0_L1D PREFETCH     ACCESS:     125857 HIT:        132 MISS:     125725 MSHR_MERGE:          8
cpu0->cpu0_L1D WRITE        ACCESS:    1891937 HIT:     252323 MISS:    1639614 MSHR_MERGE:    1524004
cpu0->cpu0_L1D TRANSLATION  ACCESS:          0 HIT:          0 MISS:          0 MSHR_MERGE:          0
cpu0->cpu0_L1D PREFETCH REQUESTED:     125866 ISSUED:     125857 USEFUL:     125627 USELESS:         88 LATE:       2698
cpu0->cpu0_L1D AVERAGE MISS LATENCY: 212.7 cycles
cpu0->cpu0_ITLB TOTAL        ACCESS:    1348030 HIT:    1348024 MISS:          6 MSHR_MERGE:          1
cpu0->cpu0_ITLB LOAD         ACCESS:    1348030 HIT:    1348024 MISS:          6 MSHR_MERGE:          1
cpu0->cpu0_ITLB RFO          ACCESS:          0 HIT:          0 MISS:          0 MSHR_MERGE:          0
cpu0->cpu0_ITLB PREFETCH     ACCESS:          0 HIT:          0 MISS:          0 MSHR_MERGE:          0
cpu0->cpu0_ITLB WRITE        ACCESS:          0 HIT:          0 MISS:          0 MSHR_MERGE:          0
cpu0->cpu0_ITLB TRANSLATION  ACCESS:          0 HIT:          0 MISS:          0 MSHR_MERGE:          0
cpu0->cpu0_ITLB PREFETCH REQUESTED:          0 ISSUED:          0 USEFUL:          0 USELESS:          0 LATE:          0
cpu0->cpu0_ITLB AVERAGE MISS LATENCY: 5 cycles
cpu0->cpu0_DTLB TOTAL        ACCESS:   10113049 HIT:   10101500 MISS:      11549 MSHR_MERGE:       7711
cpu0->cpu0_DTLB LOAD         ACCESS:   10113049 HIT:   10101500 MISS:      11549 MSHR_MERGE:       7711
cpu0->cpu0_DTLB RFO          ACCESS:          0 HIT:          0 MISS:          0 MSHR_MERGE:          0
cpu0->cpu0_DTLB PREFETCH     ACCESS:          0 HIT:          0 MISS:          0 MSHR_MERGE:          0
cpu0->cpu0_DTLB WRITE        ACCESS:          0 HIT:          0 MISS:          0 MSHR_MERGE:          0
cpu0->cpu0_DTLB TRANSLATION  ACCESS:          0 HIT:          0 MISS:          0 MSHR_MERGE:          0
cpu0->cpu0_DTLB PREFETCH REQUESTED:          0 ISSUED:          0 USEFUL:          0 USELESS:          0 LATE:          0
cpu0->cpu0_DTLB AVERAGE MISS LATENCY: 5 cycles
cpu0->LLC TOTAL        ACCESS:     357826 HIT:      44182 MISS:     313644 MSHR_MERGE:          0
cpu0->LLC LOAD         ACCESS:       2113 HIT:         43 MISS:       2070 MSHR_MERGE:          0
cpu0->LLC RFO          ACCESS:     115600 HIT:          4 MISS:     115596 MSHR_MERGE:          0
cpu0->LLC PREFETCH     ACCESS:     125856 HIT:      10523 MISS:     115333 MSHR_MERGE:          0
cpu0->LLC WRITE        ACCESS:     114257 HIT:      33612 MISS:      80645 MSHR_MERGE:          0
cpu0->LLC TRANSLATION  ACCESS:          0 HIT:          0 MISS:          0 MSHR_MERGE:          0
cpu0->LLC PREFETCH REQUESTED:          0 ISSUED:          0 USEFUL:          0 USELESS:          0 LATE:          0
cpu0->LLC AVERAGE MISS LATENCY: 117.3 cycles

DRAM Statistics

Channel 0 RQ ROW_BUFFER_HIT:      25075
  ROW_BUFFER_MISS:     207922
  AVG DBUS CONGESTED CYCLE: 10.15
Channel 0 WQ ROW_BUFFER_HIT:      31282
  ROW_BUFFER_MISS:      70388
  FULL:          0
Channel 0 REFRESHES ISSUED:       2286

[ROI Statistics]
[System Configuration]
num_cpus 1
cpu_freq 4000
fetch_width 6
decode_width 6
dispatch_width 6
execute_width 6
lq_width 2
sq_width 2
retire_width 6
scheduler_size 160
branch_mispredict_penalty 1
rob_size 352
lq_size 240
sq_size 112
ifetch_buffer_size 64
decode_buffer_size 32
dispatch_buffer_size 32
register_file_size 288
decode_latency 1
dispatch_latency 1
schedule_latency 0
execute_latency 0
page_size 4096
block_size 64
core_0_itlb_set 16
core_0_itlb_way 4
core_0_itlb_rq_size 16
core_0_itlb_wq_size 16
core_0_itlb_pq_size 0
core_0_itlb_mshr_size 8
core_0_itlb_hit_latency 1
core_0_itlb_fill_latency 1
core_0_itlb_max_tag_check 2
core_0_itlb_max_fill 2
core_0_dtlb_set 16
core_0_dtlb_way 4
core_0_dtlb_rq_size 16
core_0_dtlb_wq_size 16
core_0_dtlb_pq_size 0
core_0_dtlb_mshr_size 8
core_0_dtlb_hit_latency 1
core_0_dtlb_fill_latency 1
core_0_dtlb_max_tag_check 2
core_0_dtlb_max_fill 2
core_0_stlb_set 128
core_0_stlb_way 12
core_0_stlb_rq_size 32
core_0_stlb_wq_size 32
core_0_stlb_pq_size 0
core_0_stlb_mshr_size 16
core_0_stlb_hit_latency 4
core_0_stlb_fill_latency 4
core_0_stlb_max_tag_check 1
core_0_stlb_max_fill 1
core_0_l1i_set 64
core_0_l1i_way 8
core_0_l1i_rq_size 64
core_0_l1i_wq_size 64
core_0_l1i_pq_size 32
core_0_l1i_mshr_size 8
core_0_l1i_hit_latency 2
core_0_l1i_fill_latency 2
core_0_l1i_max_tag_check 2
core_0_l1i_max_fill 2
core_0_l1d_set 64
core_0_l1d_way 12
core_0_l1d_rq_size 64
core_0_l1d_wq_size 64
core_0_l1d_pq_size 8
core_0_l1d_mshr_size 16
core_0_l1d_hit_latency 2
core_0_l1d_fill_latency 3
core_0_l1d_max_tag_check 2
core_0_l1d_max_fill 2
core_0_l2c_set 1024
core_0_l2c_way 8
core_0_l2c_rq_size 32
core_0_l2c_wq_size 32
core_0_l2c_pq_size 16
core_0_l2c_mshr_size 32
core_0_l2c_hit_latency 5
core_0_l2c_fill_latency 5
core_0_l2c_max_tag_check 1
core_0_l2c_max_fill 1
llc_set 2048
llc_way 16
llc_rq_size 32
llc_wq_size 32
llc_pq_size 32
llc_mshr_size 64
llc_hit_latency 10
llc_fill_latency 10
llc_max_tag_check 1
llc_max_fill 1
dram_channels 1
dram_ranks 1
dram_bankgroups 8
dram_banks 4
dram_rows 16384
dram_columns 1024
dram_channel_width 8
dram_rq_size 64
dram_wq_size 64
dram_size 4294967296
core_0_itlb_prefetcher no
core_0_dtlb_prefetcher no
core_0_stlb_prefetcher no
core_0_l1i_prefetcher next_line
core_0_l1d_prefetcher berti
core_0_l2c_prefetcher pythia
llc_prefetcher no
llc_replacement drrip

Core_0_instructions 50000001
Core_0_cycles 27438716
Core_0_IPC 1.82224
Core_0_branch_prediction_accuracy 90.395
Core_0_branch_MPKI 23.6294
Core_0_average_ROB_occupancy_at_mispredict 8.0741

Core_0_ITLB_total_access 1348030
Core_0_ITLB_total_hit 1348024
Core_0_ITLB_total_miss 6
Core_0_ITLB_total_MPKI 0.00012
Core_0_ITLB_total_miss_rate 4.45094e-06
Core_0_ITLB_demand_access 1348030
Core_0_ITLB_demand_hit 1348024
Core_0_ITLB_demand_miss 6
Core_0_ITLB_demand_MPKI 0.00012
Core_0_ITLB_demand_miss_rate 4.45094e-06
Core_0_ITLB_load_access 1348030
Core_0_ITLB_load_hit 1348024
Core_0_ITLB_load_miss 6
Core_0_ITLB_load_MPKI 0.00012
Core_0_ITLB_load_miss_rate 4.45094e-06
Core_0_ITLB_rfo_access 0
Core_0_ITLB_rfo_hit 0
Core_0_ITLB_rfo_miss 0
Core_0_ITLB_rfo_MPKI 0
Core_0_ITLB_rfo_miss_rate 0
Core_0_ITLB_prefetch_access 0
Core_0_ITLB_prefetch_hit 0
Core_0_ITLB_prefetch_miss 0
Core_0_ITLB_prefetch_MPKI 0
Core_0_ITLB_prefetch_miss_rate 0
Core_0_ITLB_writeback_access 0
Core_0_ITLB_writeback_hit 0
Core_0_ITLB_writeback_miss 0
Core_0_ITLB_writeback_MPKI 0
Core_0_ITLB_writeback_miss_rate 0
Core_0_ITLB_prefetch_requested 0
Core_0_ITLB_prefetch_issued 0
Core_0_ITLB_prefetch_useful 0
Core_0_ITLB_prefetch_useless 0
Core_0_ITLB_prefetch_late 0
Core_0_ITLB_prefetch_accuracy 0
Core_0_ITLB_prefetch_coverage 0

Core_0_DTLB_total_access 10113049
Core_0_DTLB_total_hit 10101500
Core_0_DTLB_total_miss 11549
Core_0_DTLB_total_MPKI 0.23098
Core_0_DTLB_total_miss_rate 0.00114199
Core_0_DTLB_demand_access 10113049
Core_0_DTLB_demand_hit 10101500
Core_0_DTLB_demand_miss 11549
Core_0_DTLB_demand_MPKI 0.23098
Core_0_DTLB_demand_miss_rate 0.00114199
Core_0_DTLB_load_access 10113049
Core_0_DTLB_load_hit 10101500
Core_0_DTLB_load_miss 11549
Core_0_DTLB_load_MPKI 0.23098
Core_0_DTLB_load_miss_rate 0.00114199
Core_0_DTLB_rfo_access 0
Core_0_DTLB_rfo_hit 0
Core_0_DTLB_rfo_miss 0
Core_0_DTLB_rfo_MPKI 0
Core_0_DTLB_rfo_miss_rate 0
Core_0_DTLB_prefetch_access 0
Core_0_DTLB_prefetch_hit 0
Core_0_DTLB_prefetch_miss 0
Core_0_DTLB_prefetch_MPKI 0
Core_0_DTLB_prefetch_miss_rate 0
Core_0_DTLB_writeback_access 0
Core_0_DTLB_writeback_hit 0
Core_0_DTLB_writeback_miss 0
Core_0_DTLB_writeback_MPKI 0
Core_0_DTLB_writeback_miss_rate 0
Core_0_DTLB_prefetch_requested 0
Core_0_DTLB_prefetch_issued 0
Core_0_DTLB_prefetch_useful 0
Core_0_DTLB_prefetch_useless 0
Core_0_DTLB_prefetch_late 0
Core_0_DTLB_prefetch_accuracy 0
Core_0_DTLB_prefetch_coverage 0

Core_0_STLB_total_access 3843
Core_0_STLB_total_hit 3843
Core_0_STLB_total_miss 0
Core_0_STLB_total_MPKI 0
Core_0_STLB_total_miss_rate 0
Core_0_STLB_demand_access 3843
Core_0_STLB_demand_hit 3843
Core_0_STLB_demand_miss 0
Core_0_STLB_demand_MPKI 0
Core_0_STLB_demand_miss_rate 0
Core_0_STLB_load_access 3843
Core_0_STLB_load_hit 3843
Core_0_STLB_load_miss 0
Core_0_STLB_load_MPKI 0
Core_0_STLB_load_miss_rate 0
Core_0_STLB_rfo_access 0
Core_0_STLB_rfo_hit 0
Core_0_STLB_rfo_miss 0
Core_0_STLB_rfo_MPKI 0
Core_0_STLB_rfo_miss_rate 0
Core_0_STLB_prefetch_access 0
Core_0_STLB_prefetch_hit 0
Core_0_STLB_prefetch_miss 0
Core_0_STLB_prefetch_MPKI 0
Core_0_STLB_prefetch_miss_rate 0
Core_0_STLB_writeback_access 0
Core_0_STLB_writeback_hit 0
Core_0_STLB_writeback_miss 0
Core_0_STLB_writeback_MPKI 0
Core_0_STLB_writeback_miss_rate 0
Core_0_STLB_prefetch_requested 0
Core_0_STLB_prefetch_issued 0
Core_0_STLB_prefetch_useful 0
Core_0_STLB_prefetch_useless 0
Core_0_STLB_prefetch_late 0
Core_0_STLB_prefetch_accuracy 0
Core_0_STLB_prefetch_coverage 0

Core_0_L1I_total_access 1348039
Core_0_L1I_total_hit 1347951
Core_0_L1I_total_miss 88
Core_0_L1I_total_MPKI 0.00176
Core_0_L1I_total_miss_rate 6.528e-05
Core_0_L1I_demand_access 1348039
Core_0_L1I_demand_hit 1347951
Core_0_L1I_demand_miss 88
Core_0_L1I_demand_MPKI 0.00176
Core_0_L1I_demand_miss_rate 6.528e-05
Core_0_L1I_load_access 1348039
Core_0_L1I_load_hit 1347951
Core_0_L1I_load_miss 88
Core_0_L1I_load_MPKI 0.00176
Core_0_L1I_load_miss_rate 6.528e-05
Core_0_L1I_rfo_access 0
Core_0_L1I_rfo_hit 0
Core_0_L1I_rfo_miss 0
Core_0_L1I_rfo_MPKI 0
Core_0_L1I_rfo_miss_rate 0
Core_0_L1I_prefetch_access 0
Core_0_L1I_prefetch_hit 0
Core_0_L1I_prefetch_miss 0
Core_0_L1I_prefetch_MPKI 0
Core_0_L1I_prefetch_miss_rate 0
Core_0_L1I_writeback_access 0
Core_0_L1I_writeback_hit 0
Core_0_L1I_writeback_miss 0
Core_0_L1I_writeback_MPKI 0
Core_0_L1I_writeback_miss_rate 0
Core_0_L1I_prefetch_requested 0
Core_0_L1I_prefetch_issued 0
Core_0_L1I_prefetch_useful 0
Core_0_L1I_prefetch_useless 0
Core_0_L1I_prefetch_late 0
Core_0_L1I_prefetch_accuracy 0
Core_0_L1I_prefetch_coverage 0

Core_0_L1D_total_access 10183669
Core_0_L1D_total_hit 8286028
Core_0_L1D_total_miss 1897641
Core_0_L1D_total_MPKI 37.9528
Core_0_L1D_total_miss_rate 0.186342
Core_0_L1D_demand_access 8165875
Core_0_L1D_demand_hit 8033573
Core_0_L1D_demand_miss 132302
Core_0_L1D_demand_MPKI 2.64604
Core_0_L1D_demand_miss_rate 0.0162018
Core_0_L1D_load_access 8165875
Core_0_L1D_load_hit 8033573
Core_0_L1D_load_miss 132302
Core_0_L1D_load_MPKI 2.64604
Core_0_L1D_load_miss_rate 0.0162018
Core_0_L1D_rfo_access 0
Core_0_L1D_rfo_hit 0
Core_0_L1D_rfo_miss 0
Core_0_L1D_rfo_MPKI 0
Core_0_L1D_rfo_miss_rate 0
Core_0_L1D_prefetch_access 125857
Core_0_L1D_prefetch_hit 132
Core_0_L1D_prefetch_miss 125725
Core_0_L1D_prefetch_MPKI 2.5145
Core_0_L1D_prefetch_miss_rate 0.998951
Core_0_L1D_writeback_access 1891937
Core_0_L1D_writeback_hit 252323
Core_0_L1D_writeback_miss 1639614
Core_0_L1D_writeback_MPKI 32.7923
Core_0_L1D_writeback_miss_rate 0.866632
Core_0_L1D_prefetch_requested 125866
Core_0_L1D_prefetch_issued 125857
Core_0_L1D_prefetch_useful 125627
Core_0_L1D_prefetch_useless 88
Core_0_L1D_prefetch_late 2698
Core_0_L1D_prefetch_accuracy 0.998173
Core_0_L1D_prefetch_coverage 0.48706

Core_0_L2C_total_access 1016717
Core_0_L2C_total_hit 654713
Core_0_L2C_total_miss 362004
Core_0_L2C_total_MPKI 7.24008
Core_0_L2C_total_miss_rate 0.356052
Core_0_L2C_demand_access 117920
Core_0_L2C_demand_hit 203
Core_0_L2C_demand_miss 117717
Core_0_L2C_demand_MPKI 2.35434
Core_0_L2C_demand_miss_rate 0.998278
Core_0_L2C_load_access 2310
Core_0_L2C_load_hit 193
Core_0_L2C_load_miss 2117
Core_0_L2C_load_MPKI 0.04234
Core_0_L2C_load_miss_rate 0.91645
Core_0_L2C_rfo_access 115610
Core_0_L2C_rfo_hit 10
Core_0_L2C_rfo_miss 115600
Core_0_L2C_rfo_MPKI 2.312
Core_0_L2C_rfo_miss_rate 0.999914
Core_0_L2C_prefetch_access 783110
Core_0_L2C_prefetch_hit 538823
Core_0_L2C_prefetch_miss 244287
Core_0_L2C_prefetch_MPKI 4.88574
Core_0_L2C_prefetch_miss_rate 0.311945
Core_0_L2C_writeback_access 115687
Core_0_L2C_writeback_hit 115687
Core_0_L2C_writeback_miss 0
Core_0_L2C_writeback_MPKI 0
Core_0_L2C_writeback_miss_rate 0
Core_0_L2C_prefetch_requested 657393
Core_0_L2C_prefetch_issued 657393
Core_0_L2C_prefetch_useful 117445
Core_0_L2C_prefetch_useless 6685
Core_0_L2C_prefetch_late 4
Core_0_L2C_prefetch_accuracy 0.178653
Core_0_L2C_prefetch_coverage 0.499422

Core_0_LLC_total_access 357826
Core_0_LLC_total_hit 44182
Core_0_LLC_total_miss 313644
Core_0_LLC_total_MPKI 6.27288
Core_0_LLC_total_miss_rate 0.876527
Core_0_LLC_demand_access 117713
Core_0_LLC_demand_hit 47
Core_0_LLC_demand_miss 117666
Core_0_LLC_demand_MPKI 2.35332
Core_0_LLC_demand_miss_rate 0.999601
Core_0_LLC_load_access 2113
Core_0_LLC_load_hit 43
Core_0_LLC_load_miss 2070
Core_0_LLC_load_MPKI 0.0414
Core_0_LLC_load_miss_rate 0.97965
Core_0_LLC_rfo_access 115600
Core_0_LLC_rfo_hit 4
Core_0_LLC_rfo_miss 115596
Core_0_LLC_rfo_MPKI 2.31192
Core_0_LLC_rfo_miss_rate 0.999965
Core_0_LLC_prefetch_access 125856
Core_0_LLC_prefetch_hit 10523
Core_0_LLC_prefetch_miss 115333
Core_0_LLC_prefetch_MPKI 2.30666
Core_0_LLC_prefetch_miss_rate 0.916389
Core_0_LLC_writeback_access 114257
Core_0_LLC_writeback_hit 33612
Core_0_LLC_writeback_miss 80645
Core_0_LLC_writeback_MPKI 1.6129
Core_0_LLC_writeback_miss_rate 0.705821
Core_0_LLC_prefetch_requested 0
Core_0_LLC_prefetch_issued 0
Core_0_LLC_prefetch_useful 0
Core_0_LLC_prefetch_useless 0
Core_0_LLC_prefetch_late 0
Core_0_LLC_prefetch_accuracy 0
Core_0_LLC_prefetch_coverage 0

[DRAM Statistics]
Channel_0_RQ_row_buffer_hit 25075
Channel_0_RQ_row_buffer_miss 207922
Channel_0_WQ_row_buffer_hit 31282
Channel_0_WQ_row_buffer_miss 70388
Channel_0_WQ_full 0
Channel_0_dbus_congested 828397
DRAM_total_RQ_row_buffer_hit 25075
DRAM_total_RQ_row_buffer_miss 207922
DRAM_total_WQ_row_buffer_hit 31282
DRAM_total_WQ_row_buffer_miss 70388
DRAM_total_WQ_full 0
DRAM_total_dbus_congested 828397
DRAM_avg_congested_cycle 10.1549

======STLB miss causes ========
Core_0_STLB_miss_cause_breakdown
Core_0_STLB_cause_Demand_Data_miss 0
Core_0_STLB_cause_Demand_Data_miss_rate 0
Core_0_STLB_cause_Demand_Instruction_miss 0
Core_0_STLB_cause_Demand_Instruction_miss_rate 0
Core_0_STLB_cause_L1D_Prefetch_miss 0
Core_0_STLB_cause_L1D_Prefetch_miss_rate 0
Core_0_STLB_cause_L1I_Prefetch_miss 0
Core_0_STLB_cause_L1I_Prefetch_miss_rate 0
Core_0_STLB_cause_Other_miss 0
Core_0_STLB_cause_Other_miss_rate 0
Core_0_STLB_Demand_miss 0
Core_0_STLB_Demand_miss_rate 0
Core_0_STLB_L1D_Prefetch_miss 0
Core_0_STLB_L1D_Prefetch_miss_rate 0
Core_0_STLB_Other_miss 0
Core_0_STLB_Other_miss_rate 0
