[VMEM] WARNING: physical memory size is smaller than virtual memory size.

*** ChampSim Multicore Out-of-Order Simulator ***
Warmup Instructions: 20000000
Simulation Instructions: 50000000
Number of CPUs: 1
Page size: 4096
STLB ideal mode: all
Core 0: /data0/tzh/champsim_traces/Ligra/ligra_PageRank.com-lj.ungraph.gcc_6.3.0_O3.drop_51000M.length_250M.champsimtrace.xz
 L1D Berti prefetcher
Off-chip DRAM Size: 4 GiB Channels: 1 Width: 64-bit Data Rate: 3205 MT/s
Warmup halting CPU 0 at instruction 20000005 cycle 4547449 for remainder of phase
Warmup finished CPU 0 instructions: 20000005 cycles: 4547449 cumulative IPC: 4.398 (Simulation time: 00 hr 00 min 57 sec)
Warmup complete CPU 0 instructions: 20000005 cycles: 4547449 cumulative IPC: 4.398 (Simulation time: 00 hr 00 min 57 sec)
Simulation finished CPU 0 instructions: 50000000 cycles: 42348793 cumulative IPC: 1.181 (Simulation time: 00 hr 07 min 18 sec)
Simulation complete CPU 0 instructions: 50000000 cycles: 42348793 cumulative IPC: 1.181 (Simulation time: 00 hr 07 min 18 sec)

ChampSim completed all CPUs

=== Simulation ===
CPU 0 runs /data0/tzh/champsim_traces/Ligra/ligra_PageRank.com-lj.ungraph.gcc_6.3.0_O3.drop_51000M.length_250M.champsimtrace.xz

Region of Interest Statistics

CPU 0 cumulative IPC: 1.181 instructions: 50000000 cycles: 42348793
CPU 0 Branch Prediction Accuracy: 99.63% MPKI: 0.9158 Average ROB Occupancy at Mispredict: 149.2
Branch type MPKI
BRANCH_DIRECT_JUMP: 0.0002
BRANCH_INDIRECT: 0
BRANCH_CONDITIONAL: 0.9154
BRANCH_DIRECT_CALL: 0.00012
BRANCH_INDIRECT_CALL: 0
BRANCH_RETURN: 0.00012

cpu0->cpu0_STLB TOTAL        ACCESS:     119857 HIT:     119857 MISS:          0 MSHR_MERGE:          0
cpu0->cpu0_STLB LOAD         ACCESS:     119857 HIT:     119857 MISS:          0 MSHR_MERGE:          0
cpu0->cpu0_STLB RFO          ACCESS:          0 HIT:          0 MISS:          0 MSHR_MERGE:          0
cpu0->cpu0_STLB PREFETCH     ACCESS:          0 HIT:          0 MISS:          0 MSHR_MERGE:          0
cpu0->cpu0_STLB WRITE        ACCESS:          0 HIT:          0 MISS:          0 MSHR_MERGE:          0
cpu0->cpu0_STLB TRANSLATION  ACCESS:          0 HIT:          0 MISS:          0 MSHR_MERGE:          0
cpu0->cpu0_STLB PREFETCH REQUESTED:          0 ISSUED:          0 USEFUL:          0 USELESS:          0 LATE:          0
cpu0->cpu0_STLB AVERAGE MISS LATENCY: - cycles
cpu0->cpu0_L2C TOTAL        ACCESS:    4881136 HIT:    2512548 MISS:    2368588 MSHR_MERGE:    1298897
cpu0->cpu0_L2C LOAD         ACCESS:     276305 HIT:     242574 MISS:      33731 MSHR_MERGE:       3710
cpu0->cpu0_L2C RFO          ACCESS:     505336 HIT:        379 MISS:     504957 MSHR_MERGE:          0
cpu0->cpu0_L2C PREFETCH     ACCESS:    3588889 HIT:    1758990 MISS:    1829899 MSHR_MERGE:    1295187
cpu0->cpu0_L2C WRITE        ACCESS:     510606 HIT:     510605 MISS:          1 MSHR_MERGE:          0
cpu0->cpu0_L2C TRANSLATION  ACCESS:          0 HIT:          0 MISS:          0 MSHR_MERGE:          0
cpu0->cpu0_L2C PREFETCH REQUESTED:    3104586 ISSUED:    3032443 USEFUL:     411054 USELESS:      94077 LATE:       3710
cpu0->cpu0_L2C AVERAGE MISS LATENCY: 615.8 cycles
cpu0->cpu0_L1I TOTAL        ACCESS:    5916599 HIT:    5916534 MISS:         65 MSHR_MERGE:          6
cpu0->cpu0_L1I LOAD         ACCESS:    5916599 HIT:    5916534 MISS:         65 MSHR_MERGE:          6
cpu0->cpu0_L1I RFO          ACCESS:          0 HIT:          0 MISS:          0 MSHR_MERGE:          0
cpu0->cpu0_L1I PREFETCH     ACCESS:          0 HIT:          0 MISS:          0 MSHR_MERGE:          0
cpu0->cpu0_L1I WRITE        ACCESS:          0 HIT:          0 MISS:          0 MSHR_MERGE:          0
cpu0->cpu0_L1I TRANSLATION  ACCESS:          0 HIT:          0 MISS:          0 MSHR_MERGE:          0
cpu0->cpu0_L1I PREFETCH REQUESTED:          0 ISSUED:          0 USEFUL:          0 USELESS:          0 LATE:          0
cpu0->cpu0_L1I AVERAGE MISS LATENCY: 251.8 cycles
cpu0->cpu0_L1D TOTAL        ACCESS:   11711263 HIT:    6798369 MISS:    4912894 MSHR_MERGE:    3574863
cpu0->cpu0_L1D LOAD         ACCESS:    6495063 HIT:    6177220 MISS:     317843 MSHR_MERGE:      41597
cpu0->cpu0_L1D RFO          ACCESS:          0 HIT:          0 MISS:          0 MSHR_MERGE:          0
cpu0->cpu0_L1D PREFETCH     ACCESS:     720023 HIT:     162305 MISS:     557718 MSHR_MERGE:       1269
cpu0->cpu0_L1D WRITE        ACCESS:    4496177 HIT:     458844 MISS:    4037333 MSHR_MERGE:    3531997
cpu0->cpu0_L1D TRANSLATION  ACCESS:          0 HIT:          0 MISS:          0 MSHR_MERGE:          0
cpu0->cpu0_L1D PREFETCH REQUESTED:     803429 ISSUED:     720022 USEFUL:     488472 USELESS:      67842 LATE:      12493
cpu0->cpu0_L1D AVERAGE MISS LATENCY: 428.2 cycles
cpu0->cpu0_ITLB TOTAL        ACCESS:    5914426 HIT:    5914421 MISS:          5 MSHR_MERGE:          2
cpu0->cpu0_ITLB LOAD         ACCESS:    5914426 HIT:    5914421 MISS:          5 MSHR_MERGE:          2
cpu0->cpu0_ITLB RFO          ACCESS:          0 HIT:          0 MISS:          0 MSHR_MERGE:          0
cpu0->cpu0_ITLB PREFETCH     ACCESS:          0 HIT:          0 MISS:          0 MSHR_MERGE:          0
cpu0->cpu0_ITLB WRITE        ACCESS:          0 HIT:          0 MISS:          0 MSHR_MERGE:          0
cpu0->cpu0_ITLB TRANSLATION  ACCESS:          0 HIT:          0 MISS:          0 MSHR_MERGE:          0
cpu0->cpu0_ITLB PREFETCH REQUESTED:          0 ISSUED:          0 USEFUL:          0 USELESS:          0 LATE:          0
cpu0->cpu0_ITLB AVERAGE MISS LATENCY: 5 cycles
cpu0->cpu0_DTLB TOTAL        ACCESS:   10873835 HIT:   10711872 MISS:     161963 MSHR_MERGE:      42109
cpu0->cpu0_DTLB LOAD         ACCESS:   10873835 HIT:   10711872 MISS:     161963 MSHR_MERGE:      42109
cpu0->cpu0_DTLB RFO          ACCESS:          0 HIT:          0 MISS:          0 MSHR_MERGE:          0
cpu0->cpu0_DTLB PREFETCH     ACCESS:          0 HIT:          0 MISS:          0 MSHR_MERGE:          0
cpu0->cpu0_DTLB WRITE        ACCESS:          0 HIT:          0 MISS:          0 MSHR_MERGE:          0
cpu0->cpu0_DTLB TRANSLATION  ACCESS:          0 HIT:          0 MISS:          0 MSHR_MERGE:          0
cpu0->cpu0_DTLB PREFETCH REQUESTED:          0 ISSUED:          0 USEFUL:          0 USELESS:          0 LATE:          0
cpu0->cpu0_DTLB AVERAGE MISS LATENCY: 5.012 cycles
cpu0->LLC TOTAL        ACCESS:    1579804 HIT:     124757 MISS:    1455047 MSHR_MERGE:          0
cpu0->LLC LOAD         ACCESS:      30021 HIT:      16685 MISS:      13336 MSHR_MERGE:          0
cpu0->LLC RFO          ACCESS:     504957 HIT:         46 MISS:     504911 MSHR_MERGE:          0
cpu0->LLC PREFETCH     ACCESS:     534712 HIT:      28066 MISS:     506646 MSHR_MERGE:          0
cpu0->LLC WRITE        ACCESS:     510114 HIT:      79960 MISS:     430154 MSHR_MERGE:          0
cpu0->LLC TRANSLATION  ACCESS:          0 HIT:          0 MISS:          0 MSHR_MERGE:          0
cpu0->LLC PREFETCH REQUESTED:          0 ISSUED:          0 USEFUL:          0 USELESS:          0 LATE:          0
cpu0->LLC AVERAGE MISS LATENCY: 344.4 cycles

DRAM Statistics

Channel 0 RQ ROW_BUFFER_HIT:     243500
  ROW_BUFFER_MISS:     781391
  AVG DBUS CONGESTED CYCLE: 6.931
Channel 0 WQ ROW_BUFFER_HIT:      43841
  ROW_BUFFER_MISS:     465138
  FULL:          0
Channel 0 REFRESHES ISSUED:       3530

[ROI Statistics]
[System Configuration]
num_cpus 1
cpu_freq 4000
fetch_width 6
decode_width 6
dispatch_width 6
execute_width 6
lq_width 2
sq_width 2
retire_width 6
scheduler_size 160
branch_mispredict_penalty 1
rob_size 352
lq_size 240
sq_size 112
ifetch_buffer_size 64
decode_buffer_size 32
dispatch_buffer_size 32
register_file_size 288
decode_latency 1
dispatch_latency 1
schedule_latency 0
execute_latency 0
page_size 4096
block_size 64
core_0_itlb_set 16
core_0_itlb_way 4
core_0_itlb_rq_size 16
core_0_itlb_wq_size 16
core_0_itlb_pq_size 0
core_0_itlb_mshr_size 8
core_0_itlb_hit_latency 1
core_0_itlb_fill_latency 1
core_0_itlb_max_tag_check 2
core_0_itlb_max_fill 2
core_0_dtlb_set 16
core_0_dtlb_way 4
core_0_dtlb_rq_size 16
core_0_dtlb_wq_size 16
core_0_dtlb_pq_size 0
core_0_dtlb_mshr_size 8
core_0_dtlb_hit_latency 1
core_0_dtlb_fill_latency 1
core_0_dtlb_max_tag_check 2
core_0_dtlb_max_fill 2
core_0_stlb_set 128
core_0_stlb_way 12
core_0_stlb_rq_size 32
core_0_stlb_wq_size 32
core_0_stlb_pq_size 0
core_0_stlb_mshr_size 16
core_0_stlb_hit_latency 4
core_0_stlb_fill_latency 4
core_0_stlb_max_tag_check 1
core_0_stlb_max_fill 1
core_0_l1i_set 64
core_0_l1i_way 8
core_0_l1i_rq_size 64
core_0_l1i_wq_size 64
core_0_l1i_pq_size 32
core_0_l1i_mshr_size 8
core_0_l1i_hit_latency 2
core_0_l1i_fill_latency 2
core_0_l1i_max_tag_check 2
core_0_l1i_max_fill 2
core_0_l1d_set 64
core_0_l1d_way 12
core_0_l1d_rq_size 64
core_0_l1d_wq_size 64
core_0_l1d_pq_size 8
core_0_l1d_mshr_size 16
core_0_l1d_hit_latency 2
core_0_l1d_fill_latency 3
core_0_l1d_max_tag_check 2
core_0_l1d_max_fill 2
core_0_l2c_set 1024
core_0_l2c_way 8
core_0_l2c_rq_size 32
core_0_l2c_wq_size 32
core_0_l2c_pq_size 16
core_0_l2c_mshr_size 32
core_0_l2c_hit_latency 5
core_0_l2c_fill_latency 5
core_0_l2c_max_tag_check 1
core_0_l2c_max_fill 1
llc_set 2048
llc_way 16
llc_rq_size 32
llc_wq_size 32
llc_pq_size 32
llc_mshr_size 64
llc_hit_latency 10
llc_fill_latency 10
llc_max_tag_check 1
llc_max_fill 1
dram_channels 1
dram_ranks 1
dram_bankgroups 8
dram_banks 4
dram_rows 16384
dram_columns 1024
dram_channel_width 8
dram_rq_size 64
dram_wq_size 64
dram_size 4294967296
core_0_itlb_prefetcher no
core_0_dtlb_prefetcher no
core_0_stlb_prefetcher no
core_0_l1i_prefetcher next_line
core_0_l1d_prefetcher berti
core_0_l2c_prefetcher pythia
llc_prefetcher no
llc_replacement drrip

Core_0_instructions 50000000
Core_0_cycles 42348793
Core_0_IPC 1.18067
Core_0_branch_prediction_accuracy 99.6254
Core_0_branch_MPKI 0.91584
Core_0_average_ROB_occupancy_at_mispredict 149.165

Core_0_ITLB_total_access 5914426
Core_0_ITLB_total_hit 5914421
Core_0_ITLB_total_miss 5
Core_0_ITLB_total_MPKI 0.0001
Core_0_ITLB_total_miss_rate 8.45391e-07
Core_0_ITLB_demand_access 5914426
Core_0_ITLB_demand_hit 5914421
Core_0_ITLB_demand_miss 5
Core_0_ITLB_demand_MPKI 0.0001
Core_0_ITLB_demand_miss_rate 8.45391e-07
Core_0_ITLB_load_access 5914426
Core_0_ITLB_load_hit 5914421
Core_0_ITLB_load_miss 5
Core_0_ITLB_load_MPKI 0.0001
Core_0_ITLB_load_miss_rate 8.45391e-07
Core_0_ITLB_rfo_access 0
Core_0_ITLB_rfo_hit 0
Core_0_ITLB_rfo_miss 0
Core_0_ITLB_rfo_MPKI 0
Core_0_ITLB_rfo_miss_rate 0
Core_0_ITLB_prefetch_access 0
Core_0_ITLB_prefetch_hit 0
Core_0_ITLB_prefetch_miss 0
Core_0_ITLB_prefetch_MPKI 0
Core_0_ITLB_prefetch_miss_rate 0
Core_0_ITLB_writeback_access 0
Core_0_ITLB_writeback_hit 0
Core_0_ITLB_writeback_miss 0
Core_0_ITLB_writeback_MPKI 0
Core_0_ITLB_writeback_miss_rate 0
Core_0_ITLB_prefetch_requested 0
Core_0_ITLB_prefetch_issued 0
Core_0_ITLB_prefetch_useful 0
Core_0_ITLB_prefetch_useless 0
Core_0_ITLB_prefetch_late 0
Core_0_ITLB_prefetch_accuracy 0
Core_0_ITLB_prefetch_coverage 0

Core_0_DTLB_total_access 10873835
Core_0_DTLB_total_hit 10711872
Core_0_DTLB_total_miss 161963
Core_0_DTLB_total_MPKI 3.23926
Core_0_DTLB_total_miss_rate 0.0148947
Core_0_DTLB_demand_access 10873835
Core_0_DTLB_demand_hit 10711872
Core_0_DTLB_demand_miss 161963
Core_0_DTLB_demand_MPKI 3.23926
Core_0_DTLB_demand_miss_rate 0.0148947
Core_0_DTLB_load_access 10873835
Core_0_DTLB_load_hit 10711872
Core_0_DTLB_load_miss 161963
Core_0_DTLB_load_MPKI 3.23926
Core_0_DTLB_load_miss_rate 0.0148947
Core_0_DTLB_rfo_access 0
Core_0_DTLB_rfo_hit 0
Core_0_DTLB_rfo_miss 0
Core_0_DTLB_rfo_MPKI 0
Core_0_DTLB_rfo_miss_rate 0
Core_0_DTLB_prefetch_access 0
Core_0_DTLB_prefetch_hit 0
Core_0_DTLB_prefetch_miss 0
Core_0_DTLB_prefetch_MPKI 0
Core_0_DTLB_prefetch_miss_rate 0
Core_0_DTLB_writeback_access 0
Core_0_DTLB_writeback_hit 0
Core_0_DTLB_writeback_miss 0
Core_0_DTLB_writeback_MPKI 0
Core_0_DTLB_writeback_miss_rate 0
Core_0_DTLB_prefetch_requested 0
Core_0_DTLB_prefetch_issued 0
Core_0_DTLB_prefetch_useful 0
Core_0_DTLB_prefetch_useless 0
Core_0_DTLB_prefetch_late 0
Core_0_DTLB_prefetch_accuracy 0
Core_0_DTLB_prefetch_coverage 0

Core_0_STLB_total_access 119857
Core_0_STLB_total_hit 119857
Core_0_STLB_total_miss 0
Core_0_STLB_total_MPKI 0
Core_0_STLB_total_miss_rate 0
Core_0_STLB_demand_access 119857
Core_0_STLB_demand_hit 119857
Core_0_STLB_demand_miss 0
Core_0_STLB_demand_MPKI 0
Core_0_STLB_demand_miss_rate 0
Core_0_STLB_load_access 119857
Core_0_STLB_load_hit 119857
Core_0_STLB_load_miss 0
Core_0_STLB_load_MPKI 0
Core_0_STLB_load_miss_rate 0
Core_0_STLB_rfo_access 0
Core_0_STLB_rfo_hit 0
Core_0_STLB_rfo_miss 0
Core_0_STLB_rfo_MPKI 0
Core_0_STLB_rfo_miss_rate 0
Core_0_STLB_prefetch_access 0
Core_0_STLB_prefetch_hit 0
Core_0_STLB_prefetch_miss 0
Core_0_STLB_prefetch_MPKI 0
Core_0_STLB_prefetch_miss_rate 0
Core_0_STLB_writeback_access 0
Core_0_STLB_writeback_hit 0
Core_0_STLB_writeback_miss 0
Core_0_STLB_writeback_MPKI 0
Core_0_STLB_writeback_miss_rate 0
Core_0_STLB_prefetch_requested 0
Core_0_STLB_prefetch_issued 0
Core_0_STLB_prefetch_useful 0
Core_0_STLB_prefetch_useless 0
Core_0_STLB_prefetch_late 0
Core_0_STLB_prefetch_accuracy 0
Core_0_STLB_prefetch_coverage 0

Core_0_L1I_total_access 5916599
Core_0_L1I_total_hit 5916534
Core_0_L1I_total_miss 65
Core_0_L1I_total_MPKI 0.0013
Core_0_L1I_total_miss_rate 1.0986e-05
Core_0_L1I_demand_access 5916599
Core_0_L1I_demand_hit 5916534
Core_0_L1I_demand_miss 65
Core_0_L1I_demand_MPKI 0.0013
Core_0_L1I_demand_miss_rate 1.0986e-05
Core_0_L1I_load_access 5916599
Core_0_L1I_load_hit 5916534
Core_0_L1I_load_miss 65
Core_0_L1I_load_MPKI 0.0013
Core_0_L1I_load_miss_rate 1.0986e-05
Core_0_L1I_rfo_access 0
Core_0_L1I_rfo_hit 0
Core_0_L1I_rfo_miss 0
Core_0_L1I_rfo_MPKI 0
Core_0_L1I_rfo_miss_rate 0
Core_0_L1I_prefetch_access 0
Core_0_L1I_prefetch_hit 0
Core_0_L1I_prefetch_miss 0
Core_0_L1I_prefetch_MPKI 0
Core_0_L1I_prefetch_miss_rate 0
Core_0_L1I_writeback_access 0
Core_0_L1I_writeback_hit 0
Core_0_L1I_writeback_miss 0
Core_0_L1I_writeback_MPKI 0
Core_0_L1I_writeback_miss_rate 0
Core_0_L1I_prefetch_requested 0
Core_0_L1I_prefetch_issued 0
Core_0_L1I_prefetch_useful 0
Core_0_L1I_prefetch_useless 0
Core_0_L1I_prefetch_late 0
Core_0_L1I_prefetch_accuracy 0
Core_0_L1I_prefetch_coverage 0

Core_0_L1D_total_access 11711263
Core_0_L1D_total_hit 6798369
Core_0_L1D_total_miss 4912894
Core_0_L1D_total_MPKI 98.2579
Core_0_L1D_total_miss_rate 0.419502
Core_0_L1D_demand_access 6495063
Core_0_L1D_demand_hit 6177220
Core_0_L1D_demand_miss 317843
Core_0_L1D_demand_MPKI 6.35686
Core_0_L1D_demand_miss_rate 0.0489361
Core_0_L1D_load_access 6495063
Core_0_L1D_load_hit 6177220
Core_0_L1D_load_miss 317843
Core_0_L1D_load_MPKI 6.35686
Core_0_L1D_load_miss_rate 0.0489361
Core_0_L1D_rfo_access 0
Core_0_L1D_rfo_hit 0
Core_0_L1D_rfo_miss 0
Core_0_L1D_rfo_MPKI 0
Core_0_L1D_rfo_miss_rate 0
Core_0_L1D_prefetch_access 720023
Core_0_L1D_prefetch_hit 162305
Core_0_L1D_prefetch_miss 557718
Core_0_L1D_prefetch_MPKI 11.1544
Core_0_L1D_prefetch_miss_rate 0.774584
Core_0_L1D_writeback_access 4496177
Core_0_L1D_writeback_hit 458844
Core_0_L1D_writeback_miss 4037333
Core_0_L1D_writeback_MPKI 80.7467
Core_0_L1D_writeback_miss_rate 0.897948
Core_0_L1D_prefetch_requested 803429
Core_0_L1D_prefetch_issued 720022
Core_0_L1D_prefetch_useful 488472
Core_0_L1D_prefetch_useless 67842
Core_0_L1D_prefetch_late 12493
Core_0_L1D_prefetch_accuracy 0.678413
Core_0_L1D_prefetch_coverage 0.605808

Core_0_L2C_total_access 4881136
Core_0_L2C_total_hit 2512548
Core_0_L2C_total_miss 2368588
Core_0_L2C_total_MPKI 47.3718
Core_0_L2C_total_miss_rate 0.485253
Core_0_L2C_demand_access 781641
Core_0_L2C_demand_hit 242953
Core_0_L2C_demand_miss 538688
Core_0_L2C_demand_MPKI 10.7738
Core_0_L2C_demand_miss_rate 0.689176
Core_0_L2C_load_access 276305
Core_0_L2C_load_hit 242574
Core_0_L2C_load_miss 33731
Core_0_L2C_load_MPKI 0.67462
Core_0_L2C_load_miss_rate 0.122079
Core_0_L2C_rfo_access 505336
Core_0_L2C_rfo_hit 379
Core_0_L2C_rfo_miss 504957
Core_0_L2C_rfo_MPKI 10.0991
Core_0_L2C_rfo_miss_rate 0.99925
Core_0_L2C_prefetch_access 3588889
Core_0_L2C_prefetch_hit 1758990
Core_0_L2C_prefetch_miss 1829899
Core_0_L2C_prefetch_MPKI 36.598
Core_0_L2C_prefetch_miss_rate 0.509879
Core_0_L2C_writeback_access 510606
Core_0_L2C_writeback_hit 510605
Core_0_L2C_writeback_miss 1
Core_0_L2C_writeback_MPKI 2e-05
Core_0_L2C_writeback_miss_rate 1.95846e-06
Core_0_L2C_prefetch_requested 3104586
Core_0_L2C_prefetch_issued 3032443
Core_0_L2C_prefetch_useful 411054
Core_0_L2C_prefetch_useless 94077
Core_0_L2C_prefetch_late 3710
Core_0_L2C_prefetch_accuracy 0.135552
Core_0_L2C_prefetch_coverage 0.432806

Core_0_LLC_total_access 1579804
Core_0_LLC_total_hit 124757
Core_0_LLC_total_miss 1455047
Core_0_LLC_total_MPKI 29.1009
Core_0_LLC_total_miss_rate 0.92103
Core_0_LLC_demand_access 534978
Core_0_LLC_demand_hit 16731
Core_0_LLC_demand_miss 518247
Core_0_LLC_demand_MPKI 10.3649
Core_0_LLC_demand_miss_rate 0.968726
Core_0_LLC_load_access 30021
Core_0_LLC_load_hit 16685
Core_0_LLC_load_miss 13336
Core_0_LLC_load_MPKI 0.26672
Core_0_LLC_load_miss_rate 0.444222
Core_0_LLC_rfo_access 504957
Core_0_LLC_rfo_hit 46
Core_0_LLC_rfo_miss 504911
Core_0_LLC_rfo_MPKI 10.0982
Core_0_LLC_rfo_miss_rate 0.999909
Core_0_LLC_prefetch_access 534712
Core_0_LLC_prefetch_hit 28066
Core_0_LLC_prefetch_miss 506646
Core_0_LLC_prefetch_MPKI 10.1329
Core_0_LLC_prefetch_miss_rate 0.947512
Core_0_LLC_writeback_access 510114
Core_0_LLC_writeback_hit 79960
Core_0_LLC_writeback_miss 430154
Core_0_LLC_writeback_MPKI 8.60308
Core_0_LLC_writeback_miss_rate 0.843251
Core_0_LLC_prefetch_requested 0
Core_0_LLC_prefetch_issued 0
Core_0_LLC_prefetch_useful 0
Core_0_LLC_prefetch_useless 0
Core_0_LLC_prefetch_late 0
Core_0_LLC_prefetch_accuracy 0
Core_0_LLC_prefetch_coverage 0

[DRAM Statistics]
Channel_0_RQ_row_buffer_hit 243500
Channel_0_RQ_row_buffer_miss 781391
Channel_0_WQ_row_buffer_hit 43841
Channel_0_WQ_row_buffer_miss 465138
Channel_0_WQ_full 0
Channel_0_dbus_congested 4530728
DRAM_total_RQ_row_buffer_hit 243500
DRAM_total_RQ_row_buffer_miss 781391
DRAM_total_WQ_row_buffer_hit 43841
DRAM_total_WQ_row_buffer_miss 465138
DRAM_total_WQ_full 0
DRAM_total_dbus_congested 4530728
DRAM_avg_congested_cycle 6.93077

======STLB miss causes ========
Core_0_STLB_miss_cause_breakdown
Core_0_STLB_cause_Demand_Data_miss 0
Core_0_STLB_cause_Demand_Data_miss_rate 0
Core_0_STLB_cause_Demand_Instruction_miss 0
Core_0_STLB_cause_Demand_Instruction_miss_rate 0
Core_0_STLB_cause_L1D_Prefetch_miss 0
Core_0_STLB_cause_L1D_Prefetch_miss_rate 0
Core_0_STLB_cause_L1I_Prefetch_miss 0
Core_0_STLB_cause_L1I_Prefetch_miss_rate 0
Core_0_STLB_cause_Other_miss 0
Core_0_STLB_cause_Other_miss_rate 0
Core_0_STLB_Demand_miss 0
Core_0_STLB_Demand_miss_rate 0
Core_0_STLB_L1D_Prefetch_miss 0
Core_0_STLB_L1D_Prefetch_miss_rate 0
Core_0_STLB_Other_miss 0
Core_0_STLB_Other_miss_rate 0
