[VMEM] WARNING: physical memory size is smaller than virtual memory size.

*** ChampSim Multicore Out-of-Order Simulator ***
Warmup Instructions: 20000000
Simulation Instructions: 50000000
Number of CPUs: 1
Page size: 4096
STLB ideal mode: all
Core 0: /data0/tzh/champsim_traces/Ligra/ligra_Components.com-lj.ungraph.gcc_6.3.0_O3.drop_23750M.length_250M.champsimtrace.xz
 L1D Berti prefetcher
Off-chip DRAM Size: 4 GiB Channels: 1 Width: 64-bit Data Rate: 3205 MT/s
Warmup halting CPU 0 at instruction 20000002 cycle 4355218 for remainder of phase
Warmup finished CPU 0 instructions: 20000002 cycles: 4355218 cumulative IPC: 4.592 (Simulation time: 00 hr 00 min 47 sec)
Warmup complete CPU 0 instructions: 20000002 cycles: 4355218 cumulative IPC: 4.592 (Simulation time: 00 hr 00 min 47 sec)
Simulation finished CPU 0 instructions: 50000004 cycles: 18371476 cumulative IPC: 2.722 (Simulation time: 00 hr 04 min 26 sec)
Simulation complete CPU 0 instructions: 50000004 cycles: 18371476 cumulative IPC: 2.722 (Simulation time: 00 hr 04 min 26 sec)

ChampSim completed all CPUs

=== Simulation ===
CPU 0 runs /data0/tzh/champsim_traces/Ligra/ligra_Components.com-lj.ungraph.gcc_6.3.0_O3.drop_23750M.length_250M.champsimtrace.xz

Region of Interest Statistics

CPU 0 cumulative IPC: 2.722 instructions: 50000004 cycles: 18371476
CPU 0 Branch Prediction Accuracy: 99.66% MPKI: 0.7774 Average ROB Occupancy at Mispredict: 56.93
Branch type MPKI
BRANCH_DIRECT_JUMP: 0.0003
BRANCH_INDIRECT: 0
BRANCH_CONDITIONAL: 0.7767
BRANCH_DIRECT_CALL: 0.00022
BRANCH_INDIRECT_CALL: 0
BRANCH_RETURN: 0.00018

cpu0->cpu0_STLB TOTAL        ACCESS:       8568 HIT:       8568 MISS:          0 MSHR_MERGE:          0
cpu0->cpu0_STLB LOAD         ACCESS:       8568 HIT:       8568 MISS:          0 MSHR_MERGE:          0
cpu0->cpu0_STLB RFO          ACCESS:          0 HIT:          0 MISS:          0 MSHR_MERGE:          0
cpu0->cpu0_STLB PREFETCH     ACCESS:          0 HIT:          0 MISS:          0 MSHR_MERGE:          0
cpu0->cpu0_STLB WRITE        ACCESS:          0 HIT:          0 MISS:          0 MSHR_MERGE:          0
cpu0->cpu0_STLB TRANSLATION  ACCESS:          0 HIT:          0 MISS:          0 MSHR_MERGE:          0
cpu0->cpu0_STLB PREFETCH REQUESTED:          0 ISSUED:          0 USEFUL:          0 USELESS:          0 LATE:          0
cpu0->cpu0_STLB AVERAGE MISS LATENCY: - cycles
cpu0->cpu0_L2C TOTAL        ACCESS:    2098859 HIT:    1129175 MISS:     969684 MSHR_MERGE:     422763
cpu0->cpu0_L2C LOAD         ACCESS:      24633 HIT:      16105 MISS:       8528 MSHR_MERGE:       3295
cpu0->cpu0_L2C RFO          ACCESS:     229378 HIT:         12 MISS:     229366 MSHR_MERGE:          0
cpu0->cpu0_L2C PREFETCH     ACCESS:    1615598 HIT:     883808 MISS:     731790 MSHR_MERGE:     419468
cpu0->cpu0_L2C WRITE        ACCESS:     229250 HIT:     229250 MISS:          0 MSHR_MERGE:          0
cpu0->cpu0_L2C TRANSLATION  ACCESS:          0 HIT:          0 MISS:          0 MSHR_MERGE:          0
cpu0->cpu0_L2C PREFETCH REQUESTED:    1342586 ISSUED:    1322773 USEFUL:     251164 USELESS:      45430 LATE:       3295
cpu0->cpu0_L2C AVERAGE MISS LATENCY: 521.6 cycles
cpu0->cpu0_L1I TOTAL        ACCESS:    3348079 HIT:    3347999 MISS:         80 MSHR_MERGE:          9
cpu0->cpu0_L1I LOAD         ACCESS:    3348079 HIT:    3347999 MISS:         80 MSHR_MERGE:          9
cpu0->cpu0_L1I RFO          ACCESS:          0 HIT:          0 MISS:          0 MSHR_MERGE:          0
cpu0->cpu0_L1I PREFETCH     ACCESS:          0 HIT:          0 MISS:          0 MSHR_MERGE:          0
cpu0->cpu0_L1I WRITE        ACCESS:          0 HIT:          0 MISS:          0 MSHR_MERGE:          0
cpu0->cpu0_L1I TRANSLATION  ACCESS:          0 HIT:          0 MISS:          0 MSHR_MERGE:          0
cpu0->cpu0_L1I PREFETCH REQUESTED:          0 ISSUED:          0 USEFUL:          0 USELESS:          0 LATE:          0
cpu0->cpu0_L1I AVERAGE MISS LATENCY: 246.1 cycles
cpu0->cpu0_L1D TOTAL        ACCESS:   10913138 HIT:    6778843 MISS:    4134295 MSHR_MERGE:    3587529
cpu0->cpu0_L1D LOAD         ACCESS:    6974406 HIT:    6722673 MISS:     251733 MSHR_MERGE:     227171
cpu0->cpu0_L1D RFO          ACCESS:          0 HIT:          0 MISS:          0 MSHR_MERGE:          0
cpu0->cpu0_L1D PREFETCH     ACCESS:     307962 HIT:       7325 MISS:     300637 MSHR_MERGE:       7812
cpu0->cpu0_L1D WRITE        ACCESS:    3630770 HIT:      48845 MISS:    3581925 MSHR_MERGE:    3352546
cpu0->cpu0_L1D TRANSLATION  ACCESS:          0 HIT:          0 MISS:          0 MSHR_MERGE:          0
cpu0->cpu0_L1D PREFETCH REQUESTED:     317139 ISSUED:     307954 USEFUL:     292735 USELESS:         92 LATE:      20852
cpu0->cpu0_L1D AVERAGE MISS LATENCY: 488.6 cycles
cpu0->cpu0_ITLB TOTAL        ACCESS:    3347688 HIT:    3347684 MISS:          4 MSHR_MERGE:          1
cpu0->cpu0_ITLB LOAD         ACCESS:    3347688 HIT:    3347684 MISS:          4 MSHR_MERGE:          1
cpu0->cpu0_ITLB RFO          ACCESS:          0 HIT:          0 MISS:          0 MSHR_MERGE:          0
cpu0->cpu0_ITLB PREFETCH     ACCESS:          0 HIT:          0 MISS:          0 MSHR_MERGE:          0
cpu0->cpu0_ITLB WRITE        ACCESS:          0 HIT:          0 MISS:          0 MSHR_MERGE:          0
cpu0->cpu0_ITLB TRANSLATION  ACCESS:          0 HIT:          0 MISS:          0 MSHR_MERGE:          0
cpu0->cpu0_ITLB PREFETCH REQUESTED:          0 ISSUED:          0 USEFUL:          0 USELESS:          0 LATE:          0
cpu0->cpu0_ITLB AVERAGE MISS LATENCY: 5 cycles
cpu0->cpu0_DTLB TOTAL        ACCESS:   10399589 HIT:   10374664 MISS:      24925 MSHR_MERGE:      16360
cpu0->cpu0_DTLB LOAD         ACCESS:   10399589 HIT:   10374664 MISS:      24925 MSHR_MERGE:      16360
cpu0->cpu0_DTLB RFO          ACCESS:          0 HIT:          0 MISS:          0 MSHR_MERGE:          0
cpu0->cpu0_DTLB PREFETCH     ACCESS:          0 HIT:          0 MISS:          0 MSHR_MERGE:          0
cpu0->cpu0_DTLB WRITE        ACCESS:          0 HIT:          0 MISS:          0 MSHR_MERGE:          0
cpu0->cpu0_DTLB TRANSLATION  ACCESS:          0 HIT:          0 MISS:          0 MSHR_MERGE:          0
cpu0->cpu0_DTLB PREFETCH REQUESTED:          0 ISSUED:          0 USEFUL:          0 USELESS:          0 LATE:          0
cpu0->cpu0_DTLB AVERAGE MISS LATENCY: 5 cycles
cpu0->LLC TOTAL        ACCESS:     773539 HIT:     165922 MISS:     607617 MSHR_MERGE:          0
cpu0->LLC LOAD         ACCESS:       5233 HIT:         25 MISS:       5208 MSHR_MERGE:          0
cpu0->LLC RFO          ACCESS:     229366 HIT:          4 MISS:     229362 MSHR_MERGE:          0
cpu0->LLC PREFETCH     ACCESS:     312322 HIT:       2103 MISS:     310219 MSHR_MERGE:          0
cpu0->LLC WRITE        ACCESS:     226618 HIT:     163790 MISS:      62828 MSHR_MERGE:          0
cpu0->LLC TRANSLATION  ACCESS:          0 HIT:          0 MISS:          0 MSHR_MERGE:          0
cpu0->LLC PREFETCH REQUESTED:          0 ISSUED:          0 USEFUL:          0 USELESS:          0 LATE:          0
cpu0->LLC AVERAGE MISS LATENCY: 402.2 cycles

DRAM Statistics

Channel 0 RQ ROW_BUFFER_HIT:      61104
  ROW_BUFFER_MISS:     483677
  AVG DBUS CONGESTED CYCLE: 6.098
Channel 0 WQ ROW_BUFFER_HIT:       9477
  ROW_BUFFER_MISS:     204885
  FULL:          0
Channel 0 REFRESHES ISSUED:       1531

[ROI Statistics]
[System Configuration]
num_cpus 1
cpu_freq 4000
fetch_width 6
decode_width 6
dispatch_width 6
execute_width 6
lq_width 2
sq_width 2
retire_width 6
scheduler_size 160
branch_mispredict_penalty 1
rob_size 352
lq_size 240
sq_size 112
ifetch_buffer_size 64
decode_buffer_size 32
dispatch_buffer_size 32
register_file_size 288
decode_latency 1
dispatch_latency 1
schedule_latency 0
execute_latency 0
page_size 4096
block_size 64
core_0_itlb_set 16
core_0_itlb_way 4
core_0_itlb_rq_size 16
core_0_itlb_wq_size 16
core_0_itlb_pq_size 0
core_0_itlb_mshr_size 8
core_0_itlb_hit_latency 1
core_0_itlb_fill_latency 1
core_0_itlb_max_tag_check 2
core_0_itlb_max_fill 2
core_0_dtlb_set 16
core_0_dtlb_way 4
core_0_dtlb_rq_size 16
core_0_dtlb_wq_size 16
core_0_dtlb_pq_size 0
core_0_dtlb_mshr_size 8
core_0_dtlb_hit_latency 1
core_0_dtlb_fill_latency 1
core_0_dtlb_max_tag_check 2
core_0_dtlb_max_fill 2
core_0_stlb_set 128
core_0_stlb_way 12
core_0_stlb_rq_size 32
core_0_stlb_wq_size 32
core_0_stlb_pq_size 0
core_0_stlb_mshr_size 16
core_0_stlb_hit_latency 4
core_0_stlb_fill_latency 4
core_0_stlb_max_tag_check 1
core_0_stlb_max_fill 1
core_0_l1i_set 64
core_0_l1i_way 8
core_0_l1i_rq_size 64
core_0_l1i_wq_size 64
core_0_l1i_pq_size 32
core_0_l1i_mshr_size 8
core_0_l1i_hit_latency 2
core_0_l1i_fill_latency 2
core_0_l1i_max_tag_check 2
core_0_l1i_max_fill 2
core_0_l1d_set 64
core_0_l1d_way 12
core_0_l1d_rq_size 64
core_0_l1d_wq_size 64
core_0_l1d_pq_size 8
core_0_l1d_mshr_size 16
core_0_l1d_hit_latency 2
core_0_l1d_fill_latency 3
core_0_l1d_max_tag_check 2
core_0_l1d_max_fill 2
core_0_l2c_set 1024
core_0_l2c_way 8
core_0_l2c_rq_size 32
core_0_l2c_wq_size 32
core_0_l2c_pq_size 16
core_0_l2c_mshr_size 32
core_0_l2c_hit_latency 5
core_0_l2c_fill_latency 5
core_0_l2c_max_tag_check 1
core_0_l2c_max_fill 1
llc_set 2048
llc_way 16
llc_rq_size 32
llc_wq_size 32
llc_pq_size 32
llc_mshr_size 64
llc_hit_latency 10
llc_fill_latency 10
llc_max_tag_check 1
llc_max_fill 1
dram_channels 1
dram_ranks 1
dram_bankgroups 8
dram_banks 4
dram_rows 16384
dram_columns 1024
dram_channel_width 8
dram_rq_size 64
dram_wq_size 64
dram_size 4294967296
core_0_itlb_prefetcher no
core_0_dtlb_prefetcher no
core_0_stlb_prefetcher no
core_0_l1i_prefetcher next_line
core_0_l1d_prefetcher berti
core_0_l2c_prefetcher pythia
llc_prefetcher no
llc_replacement drrip

Core_0_instructions 50000004
Core_0_cycles 18371476
Core_0_IPC 2.72161
Core_0_branch_prediction_accuracy 99.6583
Core_0_branch_MPKI 0.77744
Core_0_average_ROB_occupancy_at_mispredict 56.9328

Core_0_ITLB_total_access 3347688
Core_0_ITLB_total_hit 3347684
Core_0_ITLB_total_miss 4
Core_0_ITLB_total_MPKI 8e-05
Core_0_ITLB_total_miss_rate 1.19485e-06
Core_0_ITLB_demand_access 3347688
Core_0_ITLB_demand_hit 3347684
Core_0_ITLB_demand_miss 4
Core_0_ITLB_demand_MPKI 8e-05
Core_0_ITLB_demand_miss_rate 1.19485e-06
Core_0_ITLB_load_access 3347688
Core_0_ITLB_load_hit 3347684
Core_0_ITLB_load_miss 4
Core_0_ITLB_load_MPKI 8e-05
Core_0_ITLB_load_miss_rate 1.19485e-06
Core_0_ITLB_rfo_access 0
Core_0_ITLB_rfo_hit 0
Core_0_ITLB_rfo_miss 0
Core_0_ITLB_rfo_MPKI 0
Core_0_ITLB_rfo_miss_rate 0
Core_0_ITLB_prefetch_access 0
Core_0_ITLB_prefetch_hit 0
Core_0_ITLB_prefetch_miss 0
Core_0_ITLB_prefetch_MPKI 0
Core_0_ITLB_prefetch_miss_rate 0
Core_0_ITLB_writeback_access 0
Core_0_ITLB_writeback_hit 0
Core_0_ITLB_writeback_miss 0
Core_0_ITLB_writeback_MPKI 0
Core_0_ITLB_writeback_miss_rate 0
Core_0_ITLB_prefetch_requested 0
Core_0_ITLB_prefetch_issued 0
Core_0_ITLB_prefetch_useful 0
Core_0_ITLB_prefetch_useless 0
Core_0_ITLB_prefetch_late 0
Core_0_ITLB_prefetch_accuracy 0
Core_0_ITLB_prefetch_coverage 0

Core_0_DTLB_total_access 10399589
Core_0_DTLB_total_hit 10374664
Core_0_DTLB_total_miss 24925
Core_0_DTLB_total_MPKI 0.4985
Core_0_DTLB_total_miss_rate 0.00239673
Core_0_DTLB_demand_access 10399589
Core_0_DTLB_demand_hit 10374664
Core_0_DTLB_demand_miss 24925
Core_0_DTLB_demand_MPKI 0.4985
Core_0_DTLB_demand_miss_rate 0.00239673
Core_0_DTLB_load_access 10399589
Core_0_DTLB_load_hit 10374664
Core_0_DTLB_load_miss 24925
Core_0_DTLB_load_MPKI 0.4985
Core_0_DTLB_load_miss_rate 0.00239673
Core_0_DTLB_rfo_access 0
Core_0_DTLB_rfo_hit 0
Core_0_DTLB_rfo_miss 0
Core_0_DTLB_rfo_MPKI 0
Core_0_DTLB_rfo_miss_rate 0
Core_0_DTLB_prefetch_access 0
Core_0_DTLB_prefetch_hit 0
Core_0_DTLB_prefetch_miss 0
Core_0_DTLB_prefetch_MPKI 0
Core_0_DTLB_prefetch_miss_rate 0
Core_0_DTLB_writeback_access 0
Core_0_DTLB_writeback_hit 0
Core_0_DTLB_writeback_miss 0
Core_0_DTLB_writeback_MPKI 0
Core_0_DTLB_writeback_miss_rate 0
Core_0_DTLB_prefetch_requested 0
Core_0_DTLB_prefetch_issued 0
Core_0_DTLB_prefetch_useful 0
Core_0_DTLB_prefetch_useless 0
Core_0_DTLB_prefetch_late 0
Core_0_DTLB_prefetch_accuracy 0
Core_0_DTLB_prefetch_coverage 0

Core_0_STLB_total_access 8568
Core_0_STLB_total_hit 8568
Core_0_STLB_total_miss 0
Core_0_STLB_total_MPKI 0
Core_0_STLB_total_miss_rate 0
Core_0_STLB_demand_access 8568
Core_0_STLB_demand_hit 8568
Core_0_STLB_demand_miss 0
Core_0_STLB_demand_MPKI 0
Core_0_STLB_demand_miss_rate 0
Core_0_STLB_load_access 8568
Core_0_STLB_load_hit 8568
Core_0_STLB_load_miss 0
Core_0_STLB_load_MPKI 0
Core_0_STLB_load_miss_rate 0
Core_0_STLB_rfo_access 0
Core_0_STLB_rfo_hit 0
Core_0_STLB_rfo_miss 0
Core_0_STLB_rfo_MPKI 0
Core_0_STLB_rfo_miss_rate 0
Core_0_STLB_prefetch_access 0
Core_0_STLB_prefetch_hit 0
Core_0_STLB_prefetch_miss 0
Core_0_STLB_prefetch_MPKI 0
Core_0_STLB_prefetch_miss_rate 0
Core_0_STLB_writeback_access 0
Core_0_STLB_writeback_hit 0
Core_0_STLB_writeback_miss 0
Core_0_STLB_writeback_MPKI 0
Core_0_STLB_writeback_miss_rate 0
Core_0_STLB_prefetch_requested 0
Core_0_STLB_prefetch_issued 0
Core_0_STLB_prefetch_useful 0
Core_0_STLB_prefetch_useless 0
Core_0_STLB_prefetch_late 0
Core_0_STLB_prefetch_accuracy 0
Core_0_STLB_prefetch_coverage 0

Core_0_L1I_total_access 3348079
Core_0_L1I_total_hit 3347999
Core_0_L1I_total_miss 80
Core_0_L1I_total_MPKI 0.0016
Core_0_L1I_total_miss_rate 2.38943e-05
Core_0_L1I_demand_access 3348079
Core_0_L1I_demand_hit 3347999
Core_0_L1I_demand_miss 80
Core_0_L1I_demand_MPKI 0.0016
Core_0_L1I_demand_miss_rate 2.38943e-05
Core_0_L1I_load_access 3348079
Core_0_L1I_load_hit 3347999
Core_0_L1I_load_miss 80
Core_0_L1I_load_MPKI 0.0016
Core_0_L1I_load_miss_rate 2.38943e-05
Core_0_L1I_rfo_access 0
Core_0_L1I_rfo_hit 0
Core_0_L1I_rfo_miss 0
Core_0_L1I_rfo_MPKI 0
Core_0_L1I_rfo_miss_rate 0
Core_0_L1I_prefetch_access 0
Core_0_L1I_prefetch_hit 0
Core_0_L1I_prefetch_miss 0
Core_0_L1I_prefetch_MPKI 0
Core_0_L1I_prefetch_miss_rate 0
Core_0_L1I_writeback_access 0
Core_0_L1I_writeback_hit 0
Core_0_L1I_writeback_miss 0
Core_0_L1I_writeback_MPKI 0
Core_0_L1I_writeback_miss_rate 0
Core_0_L1I_prefetch_requested 0
Core_0_L1I_prefetch_issued 0
Core_0_L1I_prefetch_useful 0
Core_0_L1I_prefetch_useless 0
Core_0_L1I_prefetch_late 0
Core_0_L1I_prefetch_accuracy 0
Core_0_L1I_prefetch_coverage 0

Core_0_L1D_total_access 10913138
Core_0_L1D_total_hit 6778843
Core_0_L1D_total_miss 4134295
Core_0_L1D_total_MPKI 82.6859
Core_0_L1D_total_miss_rate 0.378836
Core_0_L1D_demand_access 6974406
Core_0_L1D_demand_hit 6722673
Core_0_L1D_demand_miss 251733
Core_0_L1D_demand_MPKI 5.03466
Core_0_L1D_demand_miss_rate 0.0360938
Core_0_L1D_load_access 6974406
Core_0_L1D_load_hit 6722673
Core_0_L1D_load_miss 251733
Core_0_L1D_load_MPKI 5.03466
Core_0_L1D_load_miss_rate 0.0360938
Core_0_L1D_rfo_access 0
Core_0_L1D_rfo_hit 0
Core_0_L1D_rfo_miss 0
Core_0_L1D_rfo_MPKI 0
Core_0_L1D_rfo_miss_rate 0
Core_0_L1D_prefetch_access 307962
Core_0_L1D_prefetch_hit 7325
Core_0_L1D_prefetch_miss 300637
Core_0_L1D_prefetch_MPKI 6.01274
Core_0_L1D_prefetch_miss_rate 0.976215
Core_0_L1D_writeback_access 3630770
Core_0_L1D_writeback_hit 48845
Core_0_L1D_writeback_miss 3581925
Core_0_L1D_writeback_MPKI 71.6385
Core_0_L1D_writeback_miss_rate 0.986547
Core_0_L1D_prefetch_requested 317139
Core_0_L1D_prefetch_issued 307954
Core_0_L1D_prefetch_useful 292735
Core_0_L1D_prefetch_useless 92
Core_0_L1D_prefetch_late 20852
Core_0_L1D_prefetch_accuracy 0.95058
Core_0_L1D_prefetch_coverage 0.537653

Core_0_L2C_total_access 2098859
Core_0_L2C_total_hit 1129175
Core_0_L2C_total_miss 969684
Core_0_L2C_total_MPKI 19.3937
Core_0_L2C_total_miss_rate 0.462005
Core_0_L2C_demand_access 254011
Core_0_L2C_demand_hit 16117
Core_0_L2C_demand_miss 237894
Core_0_L2C_demand_MPKI 4.75788
Core_0_L2C_demand_miss_rate 0.93655
Core_0_L2C_load_access 24633
Core_0_L2C_load_hit 16105
Core_0_L2C_load_miss 8528
Core_0_L2C_load_MPKI 0.17056
Core_0_L2C_load_miss_rate 0.346202
Core_0_L2C_rfo_access 229378
Core_0_L2C_rfo_hit 12
Core_0_L2C_rfo_miss 229366
Core_0_L2C_rfo_MPKI 4.58732
Core_0_L2C_rfo_miss_rate 0.999948
Core_0_L2C_prefetch_access 1615598
Core_0_L2C_prefetch_hit 883808
Core_0_L2C_prefetch_miss 731790
Core_0_L2C_prefetch_MPKI 14.6358
Core_0_L2C_prefetch_miss_rate 0.452953
Core_0_L2C_writeback_access 229250
Core_0_L2C_writeback_hit 229250
Core_0_L2C_writeback_miss 0
Core_0_L2C_writeback_MPKI 0
Core_0_L2C_writeback_miss_rate 0
Core_0_L2C_prefetch_requested 1342586
Core_0_L2C_prefetch_issued 1322773
Core_0_L2C_prefetch_useful 251164
Core_0_L2C_prefetch_useless 45430
Core_0_L2C_prefetch_late 3295
Core_0_L2C_prefetch_accuracy 0.189877
Core_0_L2C_prefetch_coverage 0.513567

Core_0_LLC_total_access 773539
Core_0_LLC_total_hit 165922
Core_0_LLC_total_miss 607617
Core_0_LLC_total_MPKI 12.1523
Core_0_LLC_total_miss_rate 0.785503
Core_0_LLC_demand_access 234599
Core_0_LLC_demand_hit 29
Core_0_LLC_demand_miss 234570
Core_0_LLC_demand_MPKI 4.6914
Core_0_LLC_demand_miss_rate 0.999876
Core_0_LLC_load_access 5233
Core_0_LLC_load_hit 25
Core_0_LLC_load_miss 5208
Core_0_LLC_load_MPKI 0.10416
Core_0_LLC_load_miss_rate 0.995223
Core_0_LLC_rfo_access 229366
Core_0_LLC_rfo_hit 4
Core_0_LLC_rfo_miss 229362
Core_0_LLC_rfo_MPKI 4.58724
Core_0_LLC_rfo_miss_rate 0.999983
Core_0_LLC_prefetch_access 312322
Core_0_LLC_prefetch_hit 2103
Core_0_LLC_prefetch_miss 310219
Core_0_LLC_prefetch_MPKI 6.20438
Core_0_LLC_prefetch_miss_rate 0.993267
Core_0_LLC_writeback_access 226618
Core_0_LLC_writeback_hit 163790
Core_0_LLC_writeback_miss 62828
Core_0_LLC_writeback_MPKI 1.25656
Core_0_LLC_writeback_miss_rate 0.277242
Core_0_LLC_prefetch_requested 0
Core_0_LLC_prefetch_issued 0
Core_0_LLC_prefetch_useful 0
Core_0_LLC_prefetch_useless 0
Core_0_LLC_prefetch_late 0
Core_0_LLC_prefetch_accuracy 0
Core_0_LLC_prefetch_coverage 0

[DRAM Statistics]
Channel_0_RQ_row_buffer_hit 61104
Channel_0_RQ_row_buffer_miss 483677
Channel_0_WQ_row_buffer_hit 9477
Channel_0_WQ_row_buffer_miss 204885
Channel_0_WQ_full 0
Channel_0_dbus_congested 2404266
DRAM_total_RQ_row_buffer_hit 61104
DRAM_total_RQ_row_buffer_miss 483677
DRAM_total_WQ_row_buffer_hit 9477
DRAM_total_WQ_row_buffer_miss 204885
DRAM_total_WQ_full 0
DRAM_total_dbus_congested 2404266
DRAM_avg_congested_cycle 6.09778

======STLB miss causes ========
Core_0_STLB_miss_cause_breakdown
Core_0_STLB_cause_Demand_Data_miss 0
Core_0_STLB_cause_Demand_Data_miss_rate 0
Core_0_STLB_cause_Demand_Instruction_miss 0
Core_0_STLB_cause_Demand_Instruction_miss_rate 0
Core_0_STLB_cause_L1D_Prefetch_miss 0
Core_0_STLB_cause_L1D_Prefetch_miss_rate 0
Core_0_STLB_cause_L1I_Prefetch_miss 0
Core_0_STLB_cause_L1I_Prefetch_miss_rate 0
Core_0_STLB_cause_Other_miss 0
Core_0_STLB_cause_Other_miss_rate 0
Core_0_STLB_Demand_miss 0
Core_0_STLB_Demand_miss_rate 0
Core_0_STLB_L1D_Prefetch_miss 0
Core_0_STLB_L1D_Prefetch_miss_rate 0
Core_0_STLB_Other_miss 0
Core_0_STLB_Other_miss_rate 0
