[VMEM] WARNING: physical memory size is smaller than virtual memory size.

*** ChampSim Multicore Out-of-Order Simulator ***
Warmup Instructions: 20000000
Simulation Instructions: 50000000
Number of CPUs: 1
Page size: 4096
STLB ideal mode: all
Core 0: /data0/tzh/champsim_traces/Ligra/ligra_BFS.com-lj.ungraph.gcc_6.3.0_O3.drop_15750M.length_250M.champsimtrace.xz
 L1D Berti prefetcher
Off-chip DRAM Size: 4 GiB Channels: 1 Width: 64-bit Data Rate: 3205 MT/s
Warmup halting CPU 0 at instruction 20000001 cycle 4663892 for remainder of phase
Warmup finished CPU 0 instructions: 20000001 cycles: 4663892 cumulative IPC: 4.288 (Simulation time: 00 hr 01 min 06 sec)
Warmup complete CPU 0 instructions: 20000001 cycles: 4663892 cumulative IPC: 4.288 (Simulation time: 00 hr 01 min 06 sec)
Simulation finished CPU 0 instructions: 50000005 cycles: 36427255 cumulative IPC: 1.373 (Simulation time: 00 hr 06 min 22 sec)
Simulation complete CPU 0 instructions: 50000005 cycles: 36427255 cumulative IPC: 1.373 (Simulation time: 00 hr 06 min 22 sec)

ChampSim completed all CPUs

=== Simulation ===
CPU 0 runs /data0/tzh/champsim_traces/Ligra/ligra_BFS.com-lj.ungraph.gcc_6.3.0_O3.drop_15750M.length_250M.champsimtrace.xz

Region of Interest Statistics

CPU 0 cumulative IPC: 1.373 instructions: 50000005 cycles: 36427255
CPU 0 Branch Prediction Accuracy: 92.53% MPKI: 8.802 Average ROB Occupancy at Mispredict: 74.75
Branch type MPKI
BRANCH_DIRECT_JUMP: 0
BRANCH_INDIRECT: 0
BRANCH_CONDITIONAL: 8.802
BRANCH_DIRECT_CALL: 0
BRANCH_INDIRECT_CALL: 0
BRANCH_RETURN: 0

cpu0->cpu0_STLB TOTAL        ACCESS:      17699 HIT:      17699 MISS:          0 MSHR_MERGE:          0
cpu0->cpu0_STLB LOAD         ACCESS:      17699 HIT:      17699 MISS:          0 MSHR_MERGE:          0
cpu0->cpu0_STLB RFO          ACCESS:          0 HIT:          0 MISS:          0 MSHR_MERGE:          0
cpu0->cpu0_STLB PREFETCH     ACCESS:          0 HIT:          0 MISS:          0 MSHR_MERGE:          0
cpu0->cpu0_STLB WRITE        ACCESS:          0 HIT:          0 MISS:          0 MSHR_MERGE:          0
cpu0->cpu0_STLB TRANSLATION  ACCESS:          0 HIT:          0 MISS:          0 MSHR_MERGE:          0
cpu0->cpu0_STLB PREFETCH REQUESTED:          0 ISSUED:          0 USEFUL:          0 USELESS:          0 LATE:          0
cpu0->cpu0_STLB AVERAGE MISS LATENCY: - cycles
cpu0->cpu0_L2C TOTAL        ACCESS:    4362908 HIT:    1639181 MISS:    2723727 MSHR_MERGE:    1590967
cpu0->cpu0_L2C LOAD         ACCESS:      23475 HIT:      12714 MISS:      10761 MSHR_MERGE:       2907
cpu0->cpu0_L2C RFO          ACCESS:     624004 HIT:          0 MISS:     624004 MSHR_MERGE:          0
cpu0->cpu0_L2C PREFETCH     ACCESS:    3091373 HIT:    1002411 MISS:    2088962 MSHR_MERGE:    1588060
cpu0->cpu0_L2C WRITE        ACCESS:     624056 HIT:     624056 MISS:          0 MSHR_MERGE:          0
cpu0->cpu0_L2C TRANSLATION  ACCESS:          0 HIT:          0 MISS:          0 MSHR_MERGE:          0
cpu0->cpu0_L2C PREFETCH REQUESTED:    2616396 ISSUED:    2606088 USEFUL:     310318 USELESS:     168775 LATE:       2907
cpu0->cpu0_L2C AVERAGE MISS LATENCY: 581.9 cycles
cpu0->cpu0_L1I TOTAL        ACCESS:     293168 HIT:     293168 MISS:          0 MSHR_MERGE:          0
cpu0->cpu0_L1I LOAD         ACCESS:     293168 HIT:     293168 MISS:          0 MSHR_MERGE:          0
cpu0->cpu0_L1I RFO          ACCESS:          0 HIT:          0 MISS:          0 MSHR_MERGE:          0
cpu0->cpu0_L1I PREFETCH     ACCESS:          0 HIT:          0 MISS:          0 MSHR_MERGE:          0
cpu0->cpu0_L1I WRITE        ACCESS:          0 HIT:          0 MISS:          0 MSHR_MERGE:          0
cpu0->cpu0_L1I TRANSLATION  ACCESS:          0 HIT:          0 MISS:          0 MSHR_MERGE:          0
cpu0->cpu0_L1I PREFETCH REQUESTED:          0 ISSUED:          0 USEFUL:          0 USELESS:          0 LATE:          0
cpu0->cpu0_L1I AVERAGE MISS LATENCY: - cycles
cpu0->cpu0_L1D TOTAL        ACCESS:   14379199 HIT:    3685346 MISS:   10693853 MSHR_MERGE:    9561094
cpu0->cpu0_L1D LOAD         ACCESS:    3891023 HIT:    3618923 MISS:     272100 MSHR_MERGE:     248625
cpu0->cpu0_L1D RFO          ACCESS:          0 HIT:          0 MISS:          0 MSHR_MERGE:          0
cpu0->cpu0_L1D PREFETCH     ACCESS:     504120 HIT:      11284 MISS:     492836 MSHR_MERGE:       7556
cpu0->cpu0_L1D WRITE        ACCESS:    9984056 HIT:      55139 MISS:    9928917 MSHR_MERGE:    9304913
cpu0->cpu0_L1D TRANSLATION  ACCESS:          0 HIT:          0 MISS:          0 MSHR_MERGE:          0
cpu0->cpu0_L1D PREFETCH REQUESTED:     505673 ISSUED:     504112 USEFUL:     485269 USELESS:          1 LATE:      33394
cpu0->cpu0_L1D AVERAGE MISS LATENCY: 567.1 cycles
cpu0->cpu0_ITLB TOTAL        ACCESS:     293167 HIT:     293167 MISS:          0 MSHR_MERGE:          0
cpu0->cpu0_ITLB LOAD         ACCESS:     293167 HIT:     293167 MISS:          0 MSHR_MERGE:          0
cpu0->cpu0_ITLB RFO          ACCESS:          0 HIT:          0 MISS:          0 MSHR_MERGE:          0
cpu0->cpu0_ITLB PREFETCH     ACCESS:          0 HIT:          0 MISS:          0 MSHR_MERGE:          0
cpu0->cpu0_ITLB WRITE        ACCESS:          0 HIT:          0 MISS:          0 MSHR_MERGE:          0
cpu0->cpu0_ITLB TRANSLATION  ACCESS:          0 HIT:          0 MISS:          0 MSHR_MERGE:          0
cpu0->cpu0_ITLB PREFETCH REQUESTED:          0 ISSUED:          0 USEFUL:          0 USELESS:          0 LATE:          0
cpu0->cpu0_ITLB AVERAGE MISS LATENCY: - cycles
cpu0->cpu0_DTLB TOTAL        ACCESS:   12790494 HIT:   12728457 MISS:      62037 MSHR_MERGE:      44338
cpu0->cpu0_DTLB LOAD         ACCESS:   12790494 HIT:   12728457 MISS:      62037 MSHR_MERGE:      44338
cpu0->cpu0_DTLB RFO          ACCESS:          0 HIT:          0 MISS:          0 MSHR_MERGE:          0
cpu0->cpu0_DTLB PREFETCH     ACCESS:          0 HIT:          0 MISS:          0 MSHR_MERGE:          0
cpu0->cpu0_DTLB WRITE        ACCESS:          0 HIT:          0 MISS:          0 MSHR_MERGE:          0
cpu0->cpu0_DTLB TRANSLATION  ACCESS:          0 HIT:          0 MISS:          0 MSHR_MERGE:          0
cpu0->cpu0_DTLB PREFETCH REQUESTED:          0 ISSUED:          0 USEFUL:          0 USELESS:          0 LATE:          0
cpu0->cpu0_DTLB AVERAGE MISS LATENCY: 5 cycles
cpu0->LLC TOTAL        ACCESS:    1758641 HIT:     393255 MISS:    1365386 MSHR_MERGE:          0
cpu0->LLC LOAD         ACCESS:       7854 HIT:          0 MISS:       7854 MSHR_MERGE:          0
cpu0->LLC RFO          ACCESS:     624004 HIT:          0 MISS:     624004 MSHR_MERGE:          0
cpu0->LLC PREFETCH     ACCESS:     500901 HIT:          0 MISS:     500901 MSHR_MERGE:          0
cpu0->LLC WRITE        ACCESS:     625882 HIT:     393255 MISS:     232627 MSHR_MERGE:          0
cpu0->LLC TRANSLATION  ACCESS:          0 HIT:          0 MISS:          0 MSHR_MERGE:          0
cpu0->LLC PREFETCH REQUESTED:          0 ISSUED:          0 USEFUL:          0 USELESS:          0 LATE:          0
cpu0->LLC AVERAGE MISS LATENCY: 416.7 cycles

DRAM Statistics

Channel 0 RQ ROW_BUFFER_HIT:      85268
  ROW_BUFFER_MISS:    1047479
  AVG DBUS CONGESTED CYCLE: 6.86
Channel 0 WQ ROW_BUFFER_HIT:      42335
  ROW_BUFFER_MISS:     584990
  FULL:          0
Channel 0 REFRESHES ISSUED:       3036

[ROI Statistics]
[System Configuration]
num_cpus 1
cpu_freq 4000
fetch_width 6
decode_width 6
dispatch_width 6
execute_width 6
lq_width 2
sq_width 2
retire_width 6
scheduler_size 160
branch_mispredict_penalty 1
rob_size 352
lq_size 240
sq_size 112
ifetch_buffer_size 64
decode_buffer_size 32
dispatch_buffer_size 32
register_file_size 288
decode_latency 1
dispatch_latency 1
schedule_latency 0
execute_latency 0
page_size 4096
block_size 64
core_0_itlb_set 16
core_0_itlb_way 4
core_0_itlb_rq_size 16
core_0_itlb_wq_size 16
core_0_itlb_pq_size 0
core_0_itlb_mshr_size 8
core_0_itlb_hit_latency 1
core_0_itlb_fill_latency 1
core_0_itlb_max_tag_check 2
core_0_itlb_max_fill 2
core_0_dtlb_set 16
core_0_dtlb_way 4
core_0_dtlb_rq_size 16
core_0_dtlb_wq_size 16
core_0_dtlb_pq_size 0
core_0_dtlb_mshr_size 8
core_0_dtlb_hit_latency 1
core_0_dtlb_fill_latency 1
core_0_dtlb_max_tag_check 2
core_0_dtlb_max_fill 2
core_0_stlb_set 128
core_0_stlb_way 12
core_0_stlb_rq_size 32
core_0_stlb_wq_size 32
core_0_stlb_pq_size 0
core_0_stlb_mshr_size 16
core_0_stlb_hit_latency 4
core_0_stlb_fill_latency 4
core_0_stlb_max_tag_check 1
core_0_stlb_max_fill 1
core_0_l1i_set 64
core_0_l1i_way 8
core_0_l1i_rq_size 64
core_0_l1i_wq_size 64
core_0_l1i_pq_size 32
core_0_l1i_mshr_size 8
core_0_l1i_hit_latency 2
core_0_l1i_fill_latency 2
core_0_l1i_max_tag_check 2
core_0_l1i_max_fill 2
core_0_l1d_set 64
core_0_l1d_way 12
core_0_l1d_rq_size 64
core_0_l1d_wq_size 64
core_0_l1d_pq_size 8
core_0_l1d_mshr_size 16
core_0_l1d_hit_latency 2
core_0_l1d_fill_latency 3
core_0_l1d_max_tag_check 2
core_0_l1d_max_fill 2
core_0_l2c_set 1024
core_0_l2c_way 8
core_0_l2c_rq_size 32
core_0_l2c_wq_size 32
core_0_l2c_pq_size 16
core_0_l2c_mshr_size 32
core_0_l2c_hit_latency 5
core_0_l2c_fill_latency 5
core_0_l2c_max_tag_check 1
core_0_l2c_max_fill 1
llc_set 2048
llc_way 16
llc_rq_size 32
llc_wq_size 32
llc_pq_size 32
llc_mshr_size 64
llc_hit_latency 10
llc_fill_latency 10
llc_max_tag_check 1
llc_max_fill 1
dram_channels 1
dram_ranks 1
dram_bankgroups 8
dram_banks 4
dram_rows 16384
dram_columns 1024
dram_channel_width 8
dram_rq_size 64
dram_wq_size 64
dram_size 4294967296
core_0_itlb_prefetcher no
core_0_dtlb_prefetcher no
core_0_stlb_prefetcher no
core_0_l1i_prefetcher next_line
core_0_l1d_prefetcher berti
core_0_l2c_prefetcher pythia
llc_prefetcher no
llc_replacement drrip

Core_0_instructions 50000005
Core_0_cycles 36427255
Core_0_IPC 1.3726
Core_0_branch_prediction_accuracy 92.5299
Core_0_branch_MPKI 8.80182
Core_0_average_ROB_occupancy_at_mispredict 74.7538

Core_0_ITLB_total_access 293167
Core_0_ITLB_total_hit 293167
Core_0_ITLB_total_miss 0
Core_0_ITLB_total_MPKI 0
Core_0_ITLB_total_miss_rate 0
Core_0_ITLB_demand_access 293167
Core_0_ITLB_demand_hit 293167
Core_0_ITLB_demand_miss 0
Core_0_ITLB_demand_MPKI 0
Core_0_ITLB_demand_miss_rate 0
Core_0_ITLB_load_access 293167
Core_0_ITLB_load_hit 293167
Core_0_ITLB_load_miss 0
Core_0_ITLB_load_MPKI 0
Core_0_ITLB_load_miss_rate 0
Core_0_ITLB_rfo_access 0
Core_0_ITLB_rfo_hit 0
Core_0_ITLB_rfo_miss 0
Core_0_ITLB_rfo_MPKI 0
Core_0_ITLB_rfo_miss_rate 0
Core_0_ITLB_prefetch_access 0
Core_0_ITLB_prefetch_hit 0
Core_0_ITLB_prefetch_miss 0
Core_0_ITLB_prefetch_MPKI 0
Core_0_ITLB_prefetch_miss_rate 0
Core_0_ITLB_writeback_access 0
Core_0_ITLB_writeback_hit 0
Core_0_ITLB_writeback_miss 0
Core_0_ITLB_writeback_MPKI 0
Core_0_ITLB_writeback_miss_rate 0
Core_0_ITLB_prefetch_requested 0
Core_0_ITLB_prefetch_issued 0
Core_0_ITLB_prefetch_useful 0
Core_0_ITLB_prefetch_useless 0
Core_0_ITLB_prefetch_late 0
Core_0_ITLB_prefetch_accuracy 0
Core_0_ITLB_prefetch_coverage 0

Core_0_DTLB_total_access 12790494
Core_0_DTLB_total_hit 12728457
Core_0_DTLB_total_miss 62037
Core_0_DTLB_total_MPKI 1.24074
Core_0_DTLB_total_miss_rate 0.00485024
Core_0_DTLB_demand_access 12790494
Core_0_DTLB_demand_hit 12728457
Core_0_DTLB_demand_miss 62037
Core_0_DTLB_demand_MPKI 1.24074
Core_0_DTLB_demand_miss_rate 0.00485024
Core_0_DTLB_load_access 12790494
Core_0_DTLB_load_hit 12728457
Core_0_DTLB_load_miss 62037
Core_0_DTLB_load_MPKI 1.24074
Core_0_DTLB_load_miss_rate 0.00485024
Core_0_DTLB_rfo_access 0
Core_0_DTLB_rfo_hit 0
Core_0_DTLB_rfo_miss 0
Core_0_DTLB_rfo_MPKI 0
Core_0_DTLB_rfo_miss_rate 0
Core_0_DTLB_prefetch_access 0
Core_0_DTLB_prefetch_hit 0
Core_0_DTLB_prefetch_miss 0
Core_0_DTLB_prefetch_MPKI 0
Core_0_DTLB_prefetch_miss_rate 0
Core_0_DTLB_writeback_access 0
Core_0_DTLB_writeback_hit 0
Core_0_DTLB_writeback_miss 0
Core_0_DTLB_writeback_MPKI 0
Core_0_DTLB_writeback_miss_rate 0
Core_0_DTLB_prefetch_requested 0
Core_0_DTLB_prefetch_issued 0
Core_0_DTLB_prefetch_useful 0
Core_0_DTLB_prefetch_useless 0
Core_0_DTLB_prefetch_late 0
Core_0_DTLB_prefetch_accuracy 0
Core_0_DTLB_prefetch_coverage 0

Core_0_STLB_total_access 17699
Core_0_STLB_total_hit 17699
Core_0_STLB_total_miss 0
Core_0_STLB_total_MPKI 0
Core_0_STLB_total_miss_rate 0
Core_0_STLB_demand_access 17699
Core_0_STLB_demand_hit 17699
Core_0_STLB_demand_miss 0
Core_0_STLB_demand_MPKI 0
Core_0_STLB_demand_miss_rate 0
Core_0_STLB_load_access 17699
Core_0_STLB_load_hit 17699
Core_0_STLB_load_miss 0
Core_0_STLB_load_MPKI 0
Core_0_STLB_load_miss_rate 0
Core_0_STLB_rfo_access 0
Core_0_STLB_rfo_hit 0
Core_0_STLB_rfo_miss 0
Core_0_STLB_rfo_MPKI 0
Core_0_STLB_rfo_miss_rate 0
Core_0_STLB_prefetch_access 0
Core_0_STLB_prefetch_hit 0
Core_0_STLB_prefetch_miss 0
Core_0_STLB_prefetch_MPKI 0
Core_0_STLB_prefetch_miss_rate 0
Core_0_STLB_writeback_access 0
Core_0_STLB_writeback_hit 0
Core_0_STLB_writeback_miss 0
Core_0_STLB_writeback_MPKI 0
Core_0_STLB_writeback_miss_rate 0
Core_0_STLB_prefetch_requested 0
Core_0_STLB_prefetch_issued 0
Core_0_STLB_prefetch_useful 0
Core_0_STLB_prefetch_useless 0
Core_0_STLB_prefetch_late 0
Core_0_STLB_prefetch_accuracy 0
Core_0_STLB_prefetch_coverage 0

Core_0_L1I_total_access 293168
Core_0_L1I_total_hit 293168
Core_0_L1I_total_miss 0
Core_0_L1I_total_MPKI 0
Core_0_L1I_total_miss_rate 0
Core_0_L1I_demand_access 293168
Core_0_L1I_demand_hit 293168
Core_0_L1I_demand_miss 0
Core_0_L1I_demand_MPKI 0
Core_0_L1I_demand_miss_rate 0
Core_0_L1I_load_access 293168
Core_0_L1I_load_hit 293168
Core_0_L1I_load_miss 0
Core_0_L1I_load_MPKI 0
Core_0_L1I_load_miss_rate 0
Core_0_L1I_rfo_access 0
Core_0_L1I_rfo_hit 0
Core_0_L1I_rfo_miss 0
Core_0_L1I_rfo_MPKI 0
Core_0_L1I_rfo_miss_rate 0
Core_0_L1I_prefetch_access 0
Core_0_L1I_prefetch_hit 0
Core_0_L1I_prefetch_miss 0
Core_0_L1I_prefetch_MPKI 0
Core_0_L1I_prefetch_miss_rate 0
Core_0_L1I_writeback_access 0
Core_0_L1I_writeback_hit 0
Core_0_L1I_writeback_miss 0
Core_0_L1I_writeback_MPKI 0
Core_0_L1I_writeback_miss_rate 0
Core_0_L1I_prefetch_requested 0
Core_0_L1I_prefetch_issued 0
Core_0_L1I_prefetch_useful 0
Core_0_L1I_prefetch_useless 0
Core_0_L1I_prefetch_late 0
Core_0_L1I_prefetch_accuracy 0
Core_0_L1I_prefetch_coverage 0

Core_0_L1D_total_access 14379199
Core_0_L1D_total_hit 3685346
Core_0_L1D_total_miss 10693853
Core_0_L1D_total_MPKI 213.877
Core_0_L1D_total_miss_rate 0.743703
Core_0_L1D_demand_access 3891023
Core_0_L1D_demand_hit 3618923
Core_0_L1D_demand_miss 272100
Core_0_L1D_demand_MPKI 5.442
Core_0_L1D_demand_miss_rate 0.0699302
Core_0_L1D_load_access 3891023
Core_0_L1D_load_hit 3618923
Core_0_L1D_load_miss 272100
Core_0_L1D_load_MPKI 5.442
Core_0_L1D_load_miss_rate 0.0699302
Core_0_L1D_rfo_access 0
Core_0_L1D_rfo_hit 0
Core_0_L1D_rfo_miss 0
Core_0_L1D_rfo_MPKI 0
Core_0_L1D_rfo_miss_rate 0
Core_0_L1D_prefetch_access 504120
Core_0_L1D_prefetch_hit 11284
Core_0_L1D_prefetch_miss 492836
Core_0_L1D_prefetch_MPKI 9.85672
Core_0_L1D_prefetch_miss_rate 0.977616
Core_0_L1D_writeback_access 9984056
Core_0_L1D_writeback_hit 55139
Core_0_L1D_writeback_miss 9928917
Core_0_L1D_writeback_MPKI 198.578
Core_0_L1D_writeback_miss_rate 0.994477
Core_0_L1D_prefetch_requested 505673
Core_0_L1D_prefetch_issued 504112
Core_0_L1D_prefetch_useful 485269
Core_0_L1D_prefetch_useless 1
Core_0_L1D_prefetch_late 33394
Core_0_L1D_prefetch_accuracy 0.962621
Core_0_L1D_prefetch_coverage 0.64073

Core_0_L2C_total_access 4362908
Core_0_L2C_total_hit 1639181
Core_0_L2C_total_miss 2723727
Core_0_L2C_total_MPKI 54.4745
Core_0_L2C_total_miss_rate 0.624292
Core_0_L2C_demand_access 647479
Core_0_L2C_demand_hit 12714
Core_0_L2C_demand_miss 634765
Core_0_L2C_demand_MPKI 12.6953
Core_0_L2C_demand_miss_rate 0.980364
Core_0_L2C_load_access 23475
Core_0_L2C_load_hit 12714
Core_0_L2C_load_miss 10761
Core_0_L2C_load_MPKI 0.21522
Core_0_L2C_load_miss_rate 0.458403
Core_0_L2C_rfo_access 624004
Core_0_L2C_rfo_hit 0
Core_0_L2C_rfo_miss 624004
Core_0_L2C_rfo_MPKI 12.4801
Core_0_L2C_rfo_miss_rate 1
Core_0_L2C_prefetch_access 3091373
Core_0_L2C_prefetch_hit 1002411
Core_0_L2C_prefetch_miss 2088962
Core_0_L2C_prefetch_MPKI 41.7792
Core_0_L2C_prefetch_miss_rate 0.675739
Core_0_L2C_writeback_access 624056
Core_0_L2C_writeback_hit 624056
Core_0_L2C_writeback_miss 0
Core_0_L2C_writeback_MPKI 0
Core_0_L2C_writeback_miss_rate 0
Core_0_L2C_prefetch_requested 2616396
Core_0_L2C_prefetch_issued 2606088
Core_0_L2C_prefetch_useful 310318
Core_0_L2C_prefetch_useless 168775
Core_0_L2C_prefetch_late 2907
Core_0_L2C_prefetch_accuracy 0.119074
Core_0_L2C_prefetch_coverage 0.32835

Core_0_LLC_total_access 1758641
Core_0_LLC_total_hit 393255
Core_0_LLC_total_miss 1365386
Core_0_LLC_total_MPKI 27.3077
Core_0_LLC_total_miss_rate 0.776387
Core_0_LLC_demand_access 631858
Core_0_LLC_demand_hit 0
Core_0_LLC_demand_miss 631858
Core_0_LLC_demand_MPKI 12.6372
Core_0_LLC_demand_miss_rate 1
Core_0_LLC_load_access 7854
Core_0_LLC_load_hit 0
Core_0_LLC_load_miss 7854
Core_0_LLC_load_MPKI 0.15708
Core_0_LLC_load_miss_rate 1
Core_0_LLC_rfo_access 624004
Core_0_LLC_rfo_hit 0
Core_0_LLC_rfo_miss 624004
Core_0_LLC_rfo_MPKI 12.4801
Core_0_LLC_rfo_miss_rate 1
Core_0_LLC_prefetch_access 500901
Core_0_LLC_prefetch_hit 0
Core_0_LLC_prefetch_miss 500901
Core_0_LLC_prefetch_MPKI 10.018
Core_0_LLC_prefetch_miss_rate 1
Core_0_LLC_writeback_access 625882
Core_0_LLC_writeback_hit 393255
Core_0_LLC_writeback_miss 232627
Core_0_LLC_writeback_MPKI 4.65254
Core_0_LLC_writeback_miss_rate 0.371679
Core_0_LLC_prefetch_requested 0
Core_0_LLC_prefetch_issued 0
Core_0_LLC_prefetch_useful 0
Core_0_LLC_prefetch_useless 0
Core_0_LLC_prefetch_late 0
Core_0_LLC_prefetch_accuracy 0
Core_0_LLC_prefetch_coverage 0

[DRAM Statistics]
Channel_0_RQ_row_buffer_hit 85268
Channel_0_RQ_row_buffer_miss 1047479
Channel_0_WQ_row_buffer_hit 42335
Channel_0_WQ_row_buffer_miss 584990
Channel_0_WQ_full 0
Channel_0_dbus_congested 6379582
DRAM_total_RQ_row_buffer_hit 85268
DRAM_total_RQ_row_buffer_miss 1047479
DRAM_total_WQ_row_buffer_hit 42335
DRAM_total_WQ_row_buffer_miss 584990
DRAM_total_WQ_full 0
DRAM_total_dbus_congested 6379582
DRAM_avg_congested_cycle 6.85975

======STLB miss causes ========
Core_0_STLB_miss_cause_breakdown
Core_0_STLB_cause_Demand_Data_miss 0
Core_0_STLB_cause_Demand_Data_miss_rate 0
Core_0_STLB_cause_Demand_Instruction_miss 0
Core_0_STLB_cause_Demand_Instruction_miss_rate 0
Core_0_STLB_cause_L1D_Prefetch_miss 0
Core_0_STLB_cause_L1D_Prefetch_miss_rate 0
Core_0_STLB_cause_L1I_Prefetch_miss 0
Core_0_STLB_cause_L1I_Prefetch_miss_rate 0
Core_0_STLB_cause_Other_miss 0
Core_0_STLB_cause_Other_miss_rate 0
Core_0_STLB_Demand_miss 0
Core_0_STLB_Demand_miss_rate 0
Core_0_STLB_L1D_Prefetch_miss 0
Core_0_STLB_L1D_Prefetch_miss_rate 0
Core_0_STLB_Other_miss 0
Core_0_STLB_Other_miss_rate 0
