[VMEM] WARNING: physical memory size is smaller than virtual memory size.

*** ChampSim Multicore Out-of-Order Simulator ***
Warmup Instructions: 20000000
Simulation Instructions: 50000000
Number of CPUs: 1
Page size: 4096
STLB ideal mode: all
Core 0: /data0/tzh/champsim_traces/Ligra/ligra_BC.com-lj.ungraph.gcc_6.3.0_O3.drop_500M.length_250M.champsimtrace.xz
 L1D Berti prefetcher
Off-chip DRAM Size: 4 GiB Channels: 1 Width: 64-bit Data Rate: 3205 MT/s
Warmup halting CPU 0 at instruction 20000005 cycle 5922096 for remainder of phase
Warmup finished CPU 0 instructions: 20000005 cycles: 5922096 cumulative IPC: 3.377 (Simulation time: 00 hr 00 min 51 sec)
Warmup complete CPU 0 instructions: 20000005 cycles: 5922096 cumulative IPC: 3.377 (Simulation time: 00 hr 00 min 51 sec)
Simulation finished CPU 0 instructions: 50000000 cycles: 26888813 cumulative IPC: 1.86 (Simulation time: 00 hr 03 min 52 sec)
Simulation complete CPU 0 instructions: 50000000 cycles: 26888813 cumulative IPC: 1.86 (Simulation time: 00 hr 03 min 52 sec)

ChampSim completed all CPUs

=== Simulation ===
CPU 0 runs /data0/tzh/champsim_traces/Ligra/ligra_BC.com-lj.ungraph.gcc_6.3.0_O3.drop_500M.length_250M.champsimtrace.xz

Region of Interest Statistics

CPU 0 cumulative IPC: 1.86 instructions: 50000000 cycles: 26888813
CPU 0 Branch Prediction Accuracy: 93.26% MPKI: 21.51 Average ROB Occupancy at Mispredict: 22.13
Branch type MPKI
BRANCH_DIRECT_JUMP: 0
BRANCH_INDIRECT: 0
BRANCH_CONDITIONAL: 21.51
BRANCH_DIRECT_CALL: 0
BRANCH_INDIRECT_CALL: 0
BRANCH_RETURN: 0

cpu0->cpu0_STLB TOTAL        ACCESS:       1816 HIT:       1816 MISS:          0 MSHR_MERGE:          0
cpu0->cpu0_STLB LOAD         ACCESS:       1816 HIT:       1816 MISS:          0 MSHR_MERGE:          0
cpu0->cpu0_STLB RFO          ACCESS:          0 HIT:          0 MISS:          0 MSHR_MERGE:          0
cpu0->cpu0_STLB PREFETCH     ACCESS:          0 HIT:          0 MISS:          0 MSHR_MERGE:          0
cpu0->cpu0_STLB WRITE        ACCESS:          0 HIT:          0 MISS:          0 MSHR_MERGE:          0
cpu0->cpu0_STLB TRANSLATION  ACCESS:          0 HIT:          0 MISS:          0 MSHR_MERGE:          0
cpu0->cpu0_STLB PREFETCH REQUESTED:          0 ISSUED:          0 USEFUL:          0 USELESS:          0 LATE:          0
cpu0->cpu0_STLB AVERAGE MISS LATENCY: - cycles
cpu0->cpu0_L2C TOTAL        ACCESS:     829772 HIT:     692023 MISS:     137749 MSHR_MERGE:      21543
cpu0->cpu0_L2C LOAD         ACCESS:       1816 HIT:          0 MISS:       1816 MSHR_MERGE:          0
cpu0->cpu0_L2C RFO          ACCESS:          0 HIT:          0 MISS:          0 MSHR_MERGE:          0
cpu0->cpu0_L2C PREFETCH     ACCESS:     711750 HIT:     575817 MISS:     135933 MSHR_MERGE:      21543
cpu0->cpu0_L2C WRITE        ACCESS:     116206 HIT:     116206 MISS:          0 MSHR_MERGE:          0
cpu0->cpu0_L2C TRANSLATION  ACCESS:          0 HIT:          0 MISS:          0 MSHR_MERGE:          0
cpu0->cpu0_L2C PREFETCH REQUESTED:     597360 ISSUED:     597360 USEFUL:     112568 USELESS:          0 LATE:          0
cpu0->cpu0_L2C AVERAGE MISS LATENCY: 206.2 cycles
cpu0->cpu0_L1D TOTAL        ACCESS:    8626952 HIT:    8447068 MISS:     179884 MSHR_MERGE:      63678
cpu0->cpu0_L1D LOAD         ACCESS:    7437185 HIT:    7371691 MISS:      65494 MSHR_MERGE:      63678
cpu0->cpu0_L1D RFO          ACCESS:          0 HIT:          0 MISS:          0 MSHR_MERGE:          0
cpu0->cpu0_L1D PREFETCH     ACCESS:     114390 HIT:          0 MISS:     114390 MSHR_MERGE:          0
cpu0->cpu0_L1D WRITE        ACCESS:    1075377 HIT:    1075377 MISS:          0 MSHR_MERGE:          0
cpu0->cpu0_L1D TRANSLATION  ACCESS:          0 HIT:          0 MISS:          0 MSHR_MERGE:          0
cpu0->cpu0_L1D PREFETCH REQUESTED:     114390 ISSUED:     114390 USEFUL:     114390 USELESS:          0 LATE:          2
cpu0->cpu0_L1D AVERAGE MISS LATENCY: 215 cycles
cpu0->cpu0_DTLB TOTAL        ACCESS:    7560853 HIT:    7556222 MISS:       4631 MSHR_MERGE:       2815
cpu0->cpu0_DTLB LOAD         ACCESS:    7560853 HIT:    7556222 MISS:       4631 MSHR_MERGE:       2815
cpu0->cpu0_DTLB RFO          ACCESS:          0 HIT:          0 MISS:          0 MSHR_MERGE:          0
cpu0->cpu0_DTLB PREFETCH     ACCESS:          0 HIT:          0 MISS:          0 MSHR_MERGE:          0
cpu0->cpu0_DTLB WRITE        ACCESS:          0 HIT:          0 MISS:          0 MSHR_MERGE:          0
cpu0->cpu0_DTLB TRANSLATION  ACCESS:          0 HIT:          0 MISS:          0 MSHR_MERGE:          0
cpu0->cpu0_DTLB PREFETCH REQUESTED:          0 ISSUED:          0 USEFUL:          0 USELESS:          0 LATE:          0
cpu0->cpu0_DTLB AVERAGE MISS LATENCY: 5 cycles
cpu0->LLC TOTAL        ACCESS:     232411 HIT:      18739 MISS:     213672 MSHR_MERGE:          0
cpu0->LLC LOAD         ACCESS:       1816 HIT:          0 MISS:       1816 MSHR_MERGE:          0
cpu0->LLC RFO          ACCESS:          0 HIT:          0 MISS:          0 MSHR_MERGE:          0
cpu0->LLC PREFETCH     ACCESS:     114390 HIT:          0 MISS:     114390 MSHR_MERGE:          0
cpu0->LLC WRITE        ACCESS:     116205 HIT:      18739 MISS:      97466 MSHR_MERGE:          0
cpu0->LLC TRANSLATION  ACCESS:          0 HIT:          0 MISS:          0 MSHR_MERGE:          0
cpu0->LLC PREFETCH REQUESTED:          0 ISSUED:          0 USEFUL:          0 USELESS:          0 LATE:          0
cpu0->LLC AVERAGE MISS LATENCY: 12.32 cycles

DRAM Statistics

Channel 0 RQ ROW_BUFFER_HIT:       5777
  ROW_BUFFER_MISS:     110428
  AVG DBUS CONGESTED CYCLE: 16.37
Channel 0 WQ ROW_BUFFER_HIT:      29118
  ROW_BUFFER_MISS:      86238
  FULL:          0
Channel 0 REFRESHES ISSUED:       2241

[ROI Statistics]
[System Configuration]
num_cpus 1
cpu_freq 4000
fetch_width 6
decode_width 6
dispatch_width 6
execute_width 6
lq_width 2
sq_width 2
retire_width 6
scheduler_size 160
branch_mispredict_penalty 1
rob_size 352
lq_size 240
sq_size 112
ifetch_buffer_size 64
decode_buffer_size 32
dispatch_buffer_size 32
register_file_size 288
decode_latency 1
dispatch_latency 1
schedule_latency 0
execute_latency 0
page_size 4096
block_size 64
core_0_itlb_set 16
core_0_itlb_way 4
core_0_itlb_rq_size 16
core_0_itlb_wq_size 16
core_0_itlb_pq_size 0
core_0_itlb_mshr_size 8
core_0_itlb_hit_latency 1
core_0_itlb_fill_latency 1
core_0_itlb_max_tag_check 2
core_0_itlb_max_fill 2
core_0_dtlb_set 16
core_0_dtlb_way 4
core_0_dtlb_rq_size 16
core_0_dtlb_wq_size 16
core_0_dtlb_pq_size 0
core_0_dtlb_mshr_size 8
core_0_dtlb_hit_latency 1
core_0_dtlb_fill_latency 1
core_0_dtlb_max_tag_check 2
core_0_dtlb_max_fill 2
core_0_stlb_set 128
core_0_stlb_way 12
core_0_stlb_rq_size 32
core_0_stlb_wq_size 32
core_0_stlb_pq_size 0
core_0_stlb_mshr_size 16
core_0_stlb_hit_latency 4
core_0_stlb_fill_latency 4
core_0_stlb_max_tag_check 1
core_0_stlb_max_fill 1
core_0_l1i_set 64
core_0_l1i_way 8
core_0_l1i_rq_size 64
core_0_l1i_wq_size 64
core_0_l1i_pq_size 32
core_0_l1i_mshr_size 8
core_0_l1i_hit_latency 2
core_0_l1i_fill_latency 2
core_0_l1i_max_tag_check 2
core_0_l1i_max_fill 2
core_0_l1d_set 64
core_0_l1d_way 12
core_0_l1d_rq_size 64
core_0_l1d_wq_size 64
core_0_l1d_pq_size 8
core_0_l1d_mshr_size 16
core_0_l1d_hit_latency 2
core_0_l1d_fill_latency 3
core_0_l1d_max_tag_check 2
core_0_l1d_max_fill 2
core_0_l2c_set 1024
core_0_l2c_way 8
core_0_l2c_rq_size 32
core_0_l2c_wq_size 32
core_0_l2c_pq_size 16
core_0_l2c_mshr_size 32
core_0_l2c_hit_latency 5
core_0_l2c_fill_latency 5
core_0_l2c_max_tag_check 1
core_0_l2c_max_fill 1
llc_set 2048
llc_way 16
llc_rq_size 32
llc_wq_size 32
llc_pq_size 32
llc_mshr_size 64
llc_hit_latency 10
llc_fill_latency 10
llc_max_tag_check 1
llc_max_fill 1
dram_channels 1
dram_ranks 1
dram_bankgroups 8
dram_banks 4
dram_rows 16384
dram_columns 1024
dram_channel_width 8
dram_rq_size 64
dram_wq_size 64
dram_size 4294967296
core_0_itlb_prefetcher no
core_0_dtlb_prefetcher no
core_0_stlb_prefetcher no
core_0_l1i_prefetcher next_line
core_0_l1d_prefetcher berti
core_0_l2c_prefetcher pythia
llc_prefetcher no
llc_replacement drrip

Core_0_instructions 50000000
Core_0_cycles 26888813
Core_0_IPC 1.85951
Core_0_branch_prediction_accuracy 93.2577
Core_0_branch_MPKI 21.5075
Core_0_average_ROB_occupancy_at_mispredict 22.1336

Core_0_ITLB_total_access 0
Core_0_ITLB_total_hit 0
Core_0_ITLB_total_miss 0
Core_0_ITLB_total_MPKI 0
Core_0_ITLB_total_miss_rate 0
Core_0_ITLB_demand_access 0
Core_0_ITLB_demand_hit 0
Core_0_ITLB_demand_miss 0
Core_0_ITLB_demand_MPKI 0
Core_0_ITLB_demand_miss_rate 0
Core_0_ITLB_load_access 0
Core_0_ITLB_load_hit 0
Core_0_ITLB_load_miss 0
Core_0_ITLB_load_MPKI 0
Core_0_ITLB_load_miss_rate 0
Core_0_ITLB_rfo_access 0
Core_0_ITLB_rfo_hit 0
Core_0_ITLB_rfo_miss 0
Core_0_ITLB_rfo_MPKI 0
Core_0_ITLB_rfo_miss_rate 0
Core_0_ITLB_prefetch_access 0
Core_0_ITLB_prefetch_hit 0
Core_0_ITLB_prefetch_miss 0
Core_0_ITLB_prefetch_MPKI 0
Core_0_ITLB_prefetch_miss_rate 0
Core_0_ITLB_writeback_access 0
Core_0_ITLB_writeback_hit 0
Core_0_ITLB_writeback_miss 0
Core_0_ITLB_writeback_MPKI 0
Core_0_ITLB_writeback_miss_rate 0
Core_0_ITLB_prefetch_requested 0
Core_0_ITLB_prefetch_issued 0
Core_0_ITLB_prefetch_useful 0
Core_0_ITLB_prefetch_useless 0
Core_0_ITLB_prefetch_late 0
Core_0_ITLB_prefetch_accuracy 0
Core_0_ITLB_prefetch_coverage 0

Core_0_DTLB_total_access 7560853
Core_0_DTLB_total_hit 7556222
Core_0_DTLB_total_miss 4631
Core_0_DTLB_total_MPKI 0.09262
Core_0_DTLB_total_miss_rate 0.000612497
Core_0_DTLB_demand_access 7560853
Core_0_DTLB_demand_hit 7556222
Core_0_DTLB_demand_miss 4631
Core_0_DTLB_demand_MPKI 0.09262
Core_0_DTLB_demand_miss_rate 0.000612497
Core_0_DTLB_load_access 7560853
Core_0_DTLB_load_hit 7556222
Core_0_DTLB_load_miss 4631
Core_0_DTLB_load_MPKI 0.09262
Core_0_DTLB_load_miss_rate 0.000612497
Core_0_DTLB_rfo_access 0
Core_0_DTLB_rfo_hit 0
Core_0_DTLB_rfo_miss 0
Core_0_DTLB_rfo_MPKI 0
Core_0_DTLB_rfo_miss_rate 0
Core_0_DTLB_prefetch_access 0
Core_0_DTLB_prefetch_hit 0
Core_0_DTLB_prefetch_miss 0
Core_0_DTLB_prefetch_MPKI 0
Core_0_DTLB_prefetch_miss_rate 0
Core_0_DTLB_writeback_access 0
Core_0_DTLB_writeback_hit 0
Core_0_DTLB_writeback_miss 0
Core_0_DTLB_writeback_MPKI 0
Core_0_DTLB_writeback_miss_rate 0
Core_0_DTLB_prefetch_requested 0
Core_0_DTLB_prefetch_issued 0
Core_0_DTLB_prefetch_useful 0
Core_0_DTLB_prefetch_useless 0
Core_0_DTLB_prefetch_late 0
Core_0_DTLB_prefetch_accuracy 0
Core_0_DTLB_prefetch_coverage 0

Core_0_STLB_total_access 1816
Core_0_STLB_total_hit 1816
Core_0_STLB_total_miss 0
Core_0_STLB_total_MPKI 0
Core_0_STLB_total_miss_rate 0
Core_0_STLB_demand_access 1816
Core_0_STLB_demand_hit 1816
Core_0_STLB_demand_miss 0
Core_0_STLB_demand_MPKI 0
Core_0_STLB_demand_miss_rate 0
Core_0_STLB_load_access 1816
Core_0_STLB_load_hit 1816
Core_0_STLB_load_miss 0
Core_0_STLB_load_MPKI 0
Core_0_STLB_load_miss_rate 0
Core_0_STLB_rfo_access 0
Core_0_STLB_rfo_hit 0
Core_0_STLB_rfo_miss 0
Core_0_STLB_rfo_MPKI 0
Core_0_STLB_rfo_miss_rate 0
Core_0_STLB_prefetch_access 0
Core_0_STLB_prefetch_hit 0
Core_0_STLB_prefetch_miss 0
Core_0_STLB_prefetch_MPKI 0
Core_0_STLB_prefetch_miss_rate 0
Core_0_STLB_writeback_access 0
Core_0_STLB_writeback_hit 0
Core_0_STLB_writeback_miss 0
Core_0_STLB_writeback_MPKI 0
Core_0_STLB_writeback_miss_rate 0
Core_0_STLB_prefetch_requested 0
Core_0_STLB_prefetch_issued 0
Core_0_STLB_prefetch_useful 0
Core_0_STLB_prefetch_useless 0
Core_0_STLB_prefetch_late 0
Core_0_STLB_prefetch_accuracy 0
Core_0_STLB_prefetch_coverage 0

Core_0_L1I_total_access 0
Core_0_L1I_total_hit 0
Core_0_L1I_total_miss 0
Core_0_L1I_total_MPKI 0
Core_0_L1I_total_miss_rate 0
Core_0_L1I_demand_access 0
Core_0_L1I_demand_hit 0
Core_0_L1I_demand_miss 0
Core_0_L1I_demand_MPKI 0
Core_0_L1I_demand_miss_rate 0
Core_0_L1I_load_access 0
Core_0_L1I_load_hit 0
Core_0_L1I_load_miss 0
Core_0_L1I_load_MPKI 0
Core_0_L1I_load_miss_rate 0
Core_0_L1I_rfo_access 0
Core_0_L1I_rfo_hit 0
Core_0_L1I_rfo_miss 0
Core_0_L1I_rfo_MPKI 0
Core_0_L1I_rfo_miss_rate 0
Core_0_L1I_prefetch_access 0
Core_0_L1I_prefetch_hit 0
Core_0_L1I_prefetch_miss 0
Core_0_L1I_prefetch_MPKI 0
Core_0_L1I_prefetch_miss_rate 0
Core_0_L1I_writeback_access 0
Core_0_L1I_writeback_hit 0
Core_0_L1I_writeback_miss 0
Core_0_L1I_writeback_MPKI 0
Core_0_L1I_writeback_miss_rate 0
Core_0_L1I_prefetch_requested 0
Core_0_L1I_prefetch_issued 0
Core_0_L1I_prefetch_useful 0
Core_0_L1I_prefetch_useless 0
Core_0_L1I_prefetch_late 0
Core_0_L1I_prefetch_accuracy 0
Core_0_L1I_prefetch_coverage 0

Core_0_L1D_total_access 8626952
Core_0_L1D_total_hit 8447068
Core_0_L1D_total_miss 179884
Core_0_L1D_total_MPKI 3.59768
Core_0_L1D_total_miss_rate 0.0208514
Core_0_L1D_demand_access 7437185
Core_0_L1D_demand_hit 7371691
Core_0_L1D_demand_miss 65494
Core_0_L1D_demand_MPKI 1.30988
Core_0_L1D_demand_miss_rate 0.00880629
Core_0_L1D_load_access 7437185
Core_0_L1D_load_hit 7371691
Core_0_L1D_load_miss 65494
Core_0_L1D_load_MPKI 1.30988
Core_0_L1D_load_miss_rate 0.00880629
Core_0_L1D_rfo_access 0
Core_0_L1D_rfo_hit 0
Core_0_L1D_rfo_miss 0
Core_0_L1D_rfo_MPKI 0
Core_0_L1D_rfo_miss_rate 0
Core_0_L1D_prefetch_access 114390
Core_0_L1D_prefetch_hit 0
Core_0_L1D_prefetch_miss 114390
Core_0_L1D_prefetch_MPKI 2.2878
Core_0_L1D_prefetch_miss_rate 1
Core_0_L1D_writeback_access 1075377
Core_0_L1D_writeback_hit 1075377
Core_0_L1D_writeback_miss 0
Core_0_L1D_writeback_MPKI 0
Core_0_L1D_writeback_miss_rate 0
Core_0_L1D_prefetch_requested 114390
Core_0_L1D_prefetch_issued 114390
Core_0_L1D_prefetch_useful 114390
Core_0_L1D_prefetch_useless 0
Core_0_L1D_prefetch_late 2
Core_0_L1D_prefetch_accuracy 1
Core_0_L1D_prefetch_coverage 0.63591

Core_0_L2C_total_access 829772
Core_0_L2C_total_hit 692023
Core_0_L2C_total_miss 137749
Core_0_L2C_total_MPKI 2.75498
Core_0_L2C_total_miss_rate 0.166008
Core_0_L2C_demand_access 1816
Core_0_L2C_demand_hit 0
Core_0_L2C_demand_miss 1816
Core_0_L2C_demand_MPKI 0.03632
Core_0_L2C_demand_miss_rate 1
Core_0_L2C_load_access 1816
Core_0_L2C_load_hit 0
Core_0_L2C_load_miss 1816
Core_0_L2C_load_MPKI 0.03632
Core_0_L2C_load_miss_rate 1
Core_0_L2C_rfo_access 0
Core_0_L2C_rfo_hit 0
Core_0_L2C_rfo_miss 0
Core_0_L2C_rfo_MPKI 0
Core_0_L2C_rfo_miss_rate 0
Core_0_L2C_prefetch_access 711750
Core_0_L2C_prefetch_hit 575817
Core_0_L2C_prefetch_miss 135933
Core_0_L2C_prefetch_MPKI 2.71866
Core_0_L2C_prefetch_miss_rate 0.190984
Core_0_L2C_writeback_access 116206
Core_0_L2C_writeback_hit 116206
Core_0_L2C_writeback_miss 0
Core_0_L2C_writeback_MPKI 0
Core_0_L2C_writeback_miss_rate 0
Core_0_L2C_prefetch_requested 597360
Core_0_L2C_prefetch_issued 597360
Core_0_L2C_prefetch_useful 112568
Core_0_L2C_prefetch_useless 0
Core_0_L2C_prefetch_late 0
Core_0_L2C_prefetch_accuracy 0.188442
Core_0_L2C_prefetch_coverage 0.984124

Core_0_LLC_total_access 232411
Core_0_LLC_total_hit 18739
Core_0_LLC_total_miss 213672
Core_0_LLC_total_MPKI 4.27344
Core_0_LLC_total_miss_rate 0.919371
Core_0_LLC_demand_access 1816
Core_0_LLC_demand_hit 0
Core_0_LLC_demand_miss 1816
Core_0_LLC_demand_MPKI 0.03632
Core_0_LLC_demand_miss_rate 1
Core_0_LLC_load_access 1816
Core_0_LLC_load_hit 0
Core_0_LLC_load_miss 1816
Core_0_LLC_load_MPKI 0.03632
Core_0_LLC_load_miss_rate 1
Core_0_LLC_rfo_access 0
Core_0_LLC_rfo_hit 0
Core_0_LLC_rfo_miss 0
Core_0_LLC_rfo_MPKI 0
Core_0_LLC_rfo_miss_rate 0
Core_0_LLC_prefetch_access 114390
Core_0_LLC_prefetch_hit 0
Core_0_LLC_prefetch_miss 114390
Core_0_LLC_prefetch_MPKI 2.2878
Core_0_LLC_prefetch_miss_rate 1
Core_0_LLC_writeback_access 116205
Core_0_LLC_writeback_hit 18739
Core_0_LLC_writeback_miss 97466
Core_0_LLC_writeback_MPKI 1.94932
Core_0_LLC_writeback_miss_rate 0.838742
Core_0_LLC_prefetch_requested 0
Core_0_LLC_prefetch_issued 0
Core_0_LLC_prefetch_useful 0
Core_0_LLC_prefetch_useless 0
Core_0_LLC_prefetch_late 0
Core_0_LLC_prefetch_accuracy 0
Core_0_LLC_prefetch_coverage 0

[DRAM Statistics]
Channel_0_RQ_row_buffer_hit 5777
Channel_0_RQ_row_buffer_miss 110428
Channel_0_WQ_row_buffer_hit 29118
Channel_0_WQ_row_buffer_miss 86238
Channel_0_WQ_full 0
Channel_0_dbus_congested 1124177
DRAM_total_RQ_row_buffer_hit 5777
DRAM_total_RQ_row_buffer_miss 110428
DRAM_total_WQ_row_buffer_hit 29118
DRAM_total_WQ_row_buffer_miss 86238
DRAM_total_WQ_full 0
DRAM_total_dbus_congested 1124177
DRAM_avg_congested_cycle 16.3735

======STLB miss causes ========
Core_0_STLB_miss_cause_breakdown
Core_0_STLB_cause_Demand_Data_miss 0
Core_0_STLB_cause_Demand_Data_miss_rate 0
Core_0_STLB_cause_Demand_Instruction_miss 0
Core_0_STLB_cause_Demand_Instruction_miss_rate 0
Core_0_STLB_cause_L1D_Prefetch_miss 0
Core_0_STLB_cause_L1D_Prefetch_miss_rate 0
Core_0_STLB_cause_L1I_Prefetch_miss 0
Core_0_STLB_cause_L1I_Prefetch_miss_rate 0
Core_0_STLB_cause_Other_miss 0
Core_0_STLB_cause_Other_miss_rate 0
Core_0_STLB_Demand_miss 0
Core_0_STLB_Demand_miss_rate 0
Core_0_STLB_L1D_Prefetch_miss 0
Core_0_STLB_L1D_Prefetch_miss_rate 0
Core_0_STLB_Other_miss 0
Core_0_STLB_Other_miss_rate 0
