[VMEM] WARNING: physical memory size is smaller than virtual memory size.

*** ChampSim Multicore Out-of-Order Simulator ***
Warmup Instructions: 20000000
Simulation Instructions: 50000000
Number of CPUs: 1
Page size: 4096
Core 0: /data0/tzh/champsim_traces/SPEC06/410.bwaves-1963B.champsimtrace.xz
 L1D Berti prefetcher
Off-chip DRAM Size: 4 GiB Channels: 1 Width: 64-bit Data Rate: 3205 MT/s
Warmup halting CPU 0 at instruction 20000003 cycle 5147969 for remainder of phase
Warmup finished CPU 0 instructions: 20000003 cycles: 5147969 cumulative IPC: 3.885 (Simulation time: 00 hr 01 min 11 sec)
Warmup complete CPU 0 instructions: 20000003 cycles: 5147969 cumulative IPC: 3.885 (Simulation time: 00 hr 01 min 11 sec)
Simulation finished CPU 0 instructions: 50000000 cycles: 21662444 cumulative IPC: 2.308 (Simulation time: 00 hr 05 min 13 sec)
Simulation complete CPU 0 instructions: 50000000 cycles: 21662444 cumulative IPC: 2.308 (Simulation time: 00 hr 05 min 13 sec)

ChampSim completed all CPUs

=== Simulation ===
CPU 0 runs /data0/tzh/champsim_traces/SPEC06/410.bwaves-1963B.champsimtrace.xz

Region of Interest Statistics

CPU 0 cumulative IPC: 2.308 instructions: 50000000 cycles: 21662444
CPU 0 Branch Prediction Accuracy: 83.76% MPKI: 4.529 Average ROB Occupancy at Mispredict: 210.1
Branch type MPKI
BRANCH_DIRECT_JUMP: 0
BRANCH_INDIRECT: 0
BRANCH_CONDITIONAL: 4.529
BRANCH_DIRECT_CALL: 0
BRANCH_INDIRECT_CALL: 0
BRANCH_RETURN: 0

cpu0->cpu0_STLB TOTAL        ACCESS:      37890 HIT:      23943 MISS:      13947 MSHR_MERGE:          0
cpu0->cpu0_STLB LOAD         ACCESS:      37890 HIT:      23943 MISS:      13947 MSHR_MERGE:          0
cpu0->cpu0_STLB RFO          ACCESS:          0 HIT:          0 MISS:          0 MSHR_MERGE:          0
cpu0->cpu0_STLB PREFETCH     ACCESS:          0 HIT:          0 MISS:          0 MSHR_MERGE:          0
cpu0->cpu0_STLB WRITE        ACCESS:          0 HIT:          0 MISS:          0 MSHR_MERGE:          0
cpu0->cpu0_STLB TRANSLATION  ACCESS:          0 HIT:          0 MISS:          0 MSHR_MERGE:          0
cpu0->cpu0_STLB PREFETCH REQUESTED:          0 ISSUED:          0 USEFUL:          0 USELESS:          0 LATE:          0
cpu0->cpu0_STLB AVERAGE MISS LATENCY: 240.4 cycles
cpu0->cpu0_L2C TOTAL        ACCESS:    4727351 HIT:    3064102 MISS:    1663249 MSHR_MERGE:     743354
cpu0->cpu0_L2C LOAD         ACCESS:     177022 HIT:     143462 MISS:      33560 MSHR_MERGE:      12186
cpu0->cpu0_L2C RFO          ACCESS:      23527 HIT:          0 MISS:      23527 MSHR_MERGE:          0
cpu0->cpu0_L2C PREFETCH     ACCESS:    4500185 HIT:    2895846 MISS:    1604339 MSHR_MERGE:     731168
cpu0->cpu0_L2C WRITE        ACCESS:      23519 HIT:      23519 MISS:          0 MSHR_MERGE:          0
cpu0->cpu0_L2C TRANSLATION  ACCESS:       3098 HIT:       1275 MISS:       1823 MSHR_MERGE:          0
cpu0->cpu0_L2C PREFETCH REQUESTED:    4879668 ISSUED:    3732946 USEFUL:     815596 USELESS:      37101 LATE:      12186
cpu0->cpu0_L2C AVERAGE MISS LATENCY: 253.1 cycles
cpu0->cpu0_L1I TOTAL        ACCESS:     722007 HIT:     722007 MISS:          0 MSHR_MERGE:          0
cpu0->cpu0_L1I LOAD         ACCESS:     722007 HIT:     722007 MISS:          0 MSHR_MERGE:          0
cpu0->cpu0_L1I RFO          ACCESS:          0 HIT:          0 MISS:          0 MSHR_MERGE:          0
cpu0->cpu0_L1I PREFETCH     ACCESS:          0 HIT:          0 MISS:          0 MSHR_MERGE:          0
cpu0->cpu0_L1I WRITE        ACCESS:          0 HIT:          0 MISS:          0 MSHR_MERGE:          0
cpu0->cpu0_L1I TRANSLATION  ACCESS:          0 HIT:          0 MISS:          0 MSHR_MERGE:          0
cpu0->cpu0_L1I PREFETCH REQUESTED:          0 ISSUED:          0 USEFUL:          0 USELESS:          0 LATE:          0
cpu0->cpu0_L1I AVERAGE MISS LATENCY: - cycles
cpu0->cpu0_L1D TOTAL        ACCESS:   19394969 HIT:   18305718 MISS:    1089251 MSHR_MERGE:     118371
cpu0->cpu0_L1D LOAD         ACCESS:   14758444 HIT:   14567452 MISS:     190992 MSHR_MERGE:      13971
cpu0->cpu0_L1D RFO          ACCESS:          0 HIT:          0 MISS:          0 MSHR_MERGE:          0
cpu0->cpu0_L1D PREFETCH     ACCESS:     864902 HIT:      91234 MISS:     773668 MSHR_MERGE:       6434
cpu0->cpu0_L1D WRITE        ACCESS:    3743702 HIT:    3622209 MISS:     121493 MSHR_MERGE:      97966
cpu0->cpu0_L1D TRANSLATION  ACCESS:      27921 HIT:      24823 MISS:       3098 MSHR_MERGE:          0
cpu0->cpu0_L1D PREFETCH REQUESTED:     979112 ISSUED:     864900 USEFUL:     764076 USELESS:       3143 LATE:       5042
cpu0->cpu0_L1D AVERAGE MISS LATENCY: 82.37 cycles
cpu0->cpu0_ITLB TOTAL        ACCESS:     531434 HIT:     531434 MISS:          0 MSHR_MERGE:          0
cpu0->cpu0_ITLB LOAD         ACCESS:     531434 HIT:     531434 MISS:          0 MSHR_MERGE:          0
cpu0->cpu0_ITLB RFO          ACCESS:          0 HIT:          0 MISS:          0 MSHR_MERGE:          0
cpu0->cpu0_ITLB PREFETCH     ACCESS:          0 HIT:          0 MISS:          0 MSHR_MERGE:          0
cpu0->cpu0_ITLB WRITE        ACCESS:          0 HIT:          0 MISS:          0 MSHR_MERGE:          0
cpu0->cpu0_ITLB TRANSLATION  ACCESS:          0 HIT:          0 MISS:          0 MSHR_MERGE:          0
cpu0->cpu0_ITLB PREFETCH REQUESTED:          0 ISSUED:          0 USEFUL:          0 USELESS:          0 LATE:          0
cpu0->cpu0_ITLB AVERAGE MISS LATENCY: - cycles
cpu0->cpu0_DTLB TOTAL        ACCESS:   18184156 HIT:   18130714 MISS:      53442 MSHR_MERGE:      15552
cpu0->cpu0_DTLB LOAD         ACCESS:   18184156 HIT:   18130714 MISS:      53442 MSHR_MERGE:      15552
cpu0->cpu0_DTLB RFO          ACCESS:          0 HIT:          0 MISS:          0 MSHR_MERGE:          0
cpu0->cpu0_DTLB PREFETCH     ACCESS:          0 HIT:          0 MISS:          0 MSHR_MERGE:          0
cpu0->cpu0_DTLB WRITE        ACCESS:          0 HIT:          0 MISS:          0 MSHR_MERGE:          0
cpu0->cpu0_DTLB TRANSLATION  ACCESS:          0 HIT:          0 MISS:          0 MSHR_MERGE:          0
cpu0->cpu0_DTLB PREFETCH REQUESTED:          0 ISSUED:          0 USEFUL:          0 USELESS:          0 LATE:          0
cpu0->cpu0_DTLB AVERAGE MISS LATENCY: 93.84 cycles
cpu0->LLC TOTAL        ACCESS:     943394 HIT:       5844 MISS:     937550 MSHR_MERGE:          0
cpu0->LLC LOAD         ACCESS:      21374 HIT:         15 MISS:      21359 MSHR_MERGE:          0
cpu0->LLC RFO          ACCESS:      23527 HIT:          0 MISS:      23527 MSHR_MERGE:          0
cpu0->LLC PREFETCH     ACCESS:     873171 HIT:       2112 MISS:     871059 MSHR_MERGE:          0
cpu0->LLC WRITE        ACCESS:      23499 HIT:       3708 MISS:      19791 MSHR_MERGE:          0
cpu0->LLC TRANSLATION  ACCESS:       1823 HIT:          9 MISS:       1814 MSHR_MERGE:          0
cpu0->LLC PREFETCH REQUESTED:          0 ISSUED:          0 USEFUL:          0 USELESS:          0 LATE:          0
cpu0->LLC AVERAGE MISS LATENCY: 176.6 cycles

DRAM Statistics

Channel 0 RQ ROW_BUFFER_HIT:        138
  ROW_BUFFER_MISS:     917618
  AVG DBUS CONGESTED CYCLE: 3.693
Channel 0 WQ ROW_BUFFER_HIT:       4527
  ROW_BUFFER_MISS:      13970
  FULL:          0
Channel 0 REFRESHES ISSUED:       1806

[ROI Statistics]
[System Configuration]
num_cpus 1
cpu_freq 4000
fetch_width 6
decode_width 6
dispatch_width 6
execute_width 6
lq_width 2
sq_width 2
retire_width 6
scheduler_size 160
branch_mispredict_penalty 1
rob_size 352
lq_size 240
sq_size 112
ifetch_buffer_size 64
decode_buffer_size 32
dispatch_buffer_size 32
register_file_size 288
decode_latency 1
dispatch_latency 1
schedule_latency 0
execute_latency 0
page_size 4096
block_size 64
core_0_itlb_set 16
core_0_itlb_way 4
core_0_itlb_rq_size 16
core_0_itlb_wq_size 16
core_0_itlb_pq_size 0
core_0_itlb_mshr_size 8
core_0_itlb_hit_latency 1
core_0_itlb_fill_latency 1
core_0_itlb_max_tag_check 2
core_0_itlb_max_fill 2
core_0_dtlb_set 16
core_0_dtlb_way 4
core_0_dtlb_rq_size 16
core_0_dtlb_wq_size 16
core_0_dtlb_pq_size 0
core_0_dtlb_mshr_size 8
core_0_dtlb_hit_latency 1
core_0_dtlb_fill_latency 1
core_0_dtlb_max_tag_check 2
core_0_dtlb_max_fill 2
core_0_stlb_set 128
core_0_stlb_way 12
core_0_stlb_rq_size 32
core_0_stlb_wq_size 32
core_0_stlb_pq_size 0
core_0_stlb_mshr_size 16
core_0_stlb_hit_latency 4
core_0_stlb_fill_latency 4
core_0_stlb_max_tag_check 1
core_0_stlb_max_fill 1
core_0_l1i_set 64
core_0_l1i_way 8
core_0_l1i_rq_size 64
core_0_l1i_wq_size 64
core_0_l1i_pq_size 32
core_0_l1i_mshr_size 8
core_0_l1i_hit_latency 2
core_0_l1i_fill_latency 2
core_0_l1i_max_tag_check 2
core_0_l1i_max_fill 2
core_0_l1d_set 64
core_0_l1d_way 12
core_0_l1d_rq_size 64
core_0_l1d_wq_size 64
core_0_l1d_pq_size 8
core_0_l1d_mshr_size 16
core_0_l1d_hit_latency 2
core_0_l1d_fill_latency 3
core_0_l1d_max_tag_check 2
core_0_l1d_max_fill 2
core_0_l2c_set 1024
core_0_l2c_way 8
core_0_l2c_rq_size 32
core_0_l2c_wq_size 32
core_0_l2c_pq_size 16
core_0_l2c_mshr_size 32
core_0_l2c_hit_latency 5
core_0_l2c_fill_latency 5
core_0_l2c_max_tag_check 1
core_0_l2c_max_fill 1
llc_set 2048
llc_way 16
llc_rq_size 32
llc_wq_size 32
llc_pq_size 32
llc_mshr_size 64
llc_hit_latency 10
llc_fill_latency 10
llc_max_tag_check 1
llc_max_fill 1
dram_channels 1
dram_ranks 1
dram_bankgroups 8
dram_banks 4
dram_rows 16384
dram_columns 1024
dram_channel_width 8
dram_rq_size 64
dram_wq_size 64
dram_size 4294967296
core_0_itlb_prefetcher no
core_0_dtlb_prefetcher no
core_0_stlb_prefetcher no
core_0_l1i_prefetcher next_line
core_0_l1d_prefetcher berti
core_0_l2c_prefetcher pythia
llc_prefetcher no
llc_replacement drrip

Core_0_instructions 50000000
Core_0_cycles 21662444
Core_0_IPC 2.30814
Core_0_branch_prediction_accuracy 83.7552
Core_0_branch_MPKI 4.52892
Core_0_average_ROB_occupancy_at_mispredict 210.115

Core_0_ITLB_total_access 531434
Core_0_ITLB_total_hit 531434
Core_0_ITLB_total_miss 0
Core_0_ITLB_total_MPKI 0
Core_0_ITLB_total_miss_rate 0
Core_0_ITLB_demand_access 531434
Core_0_ITLB_demand_hit 531434
Core_0_ITLB_demand_miss 0
Core_0_ITLB_demand_MPKI 0
Core_0_ITLB_demand_miss_rate 0
Core_0_ITLB_load_access 531434
Core_0_ITLB_load_hit 531434
Core_0_ITLB_load_miss 0
Core_0_ITLB_load_MPKI 0
Core_0_ITLB_load_miss_rate 0
Core_0_ITLB_rfo_access 0
Core_0_ITLB_rfo_hit 0
Core_0_ITLB_rfo_miss 0
Core_0_ITLB_rfo_MPKI 0
Core_0_ITLB_rfo_miss_rate 0
Core_0_ITLB_prefetch_access 0
Core_0_ITLB_prefetch_hit 0
Core_0_ITLB_prefetch_miss 0
Core_0_ITLB_prefetch_MPKI 0
Core_0_ITLB_prefetch_miss_rate 0
Core_0_ITLB_writeback_access 0
Core_0_ITLB_writeback_hit 0
Core_0_ITLB_writeback_miss 0
Core_0_ITLB_writeback_MPKI 0
Core_0_ITLB_writeback_miss_rate 0
Core_0_ITLB_prefetch_requested 0
Core_0_ITLB_prefetch_issued 0
Core_0_ITLB_prefetch_useful 0
Core_0_ITLB_prefetch_useless 0
Core_0_ITLB_prefetch_late 0
Core_0_ITLB_prefetch_accuracy 0
Core_0_ITLB_prefetch_coverage 0

Core_0_DTLB_total_access 18184156
Core_0_DTLB_total_hit 18130714
Core_0_DTLB_total_miss 53442
Core_0_DTLB_total_MPKI 1.06884
Core_0_DTLB_total_miss_rate 0.00293893
Core_0_DTLB_demand_access 18184156
Core_0_DTLB_demand_hit 18130714
Core_0_DTLB_demand_miss 53442
Core_0_DTLB_demand_MPKI 1.06884
Core_0_DTLB_demand_miss_rate 0.00293893
Core_0_DTLB_load_access 18184156
Core_0_DTLB_load_hit 18130714
Core_0_DTLB_load_miss 53442
Core_0_DTLB_load_MPKI 1.06884
Core_0_DTLB_load_miss_rate 0.00293893
Core_0_DTLB_rfo_access 0
Core_0_DTLB_rfo_hit 0
Core_0_DTLB_rfo_miss 0
Core_0_DTLB_rfo_MPKI 0
Core_0_DTLB_rfo_miss_rate 0
Core_0_DTLB_prefetch_access 0
Core_0_DTLB_prefetch_hit 0
Core_0_DTLB_prefetch_miss 0
Core_0_DTLB_prefetch_MPKI 0
Core_0_DTLB_prefetch_miss_rate 0
Core_0_DTLB_writeback_access 0
Core_0_DTLB_writeback_hit 0
Core_0_DTLB_writeback_miss 0
Core_0_DTLB_writeback_MPKI 0
Core_0_DTLB_writeback_miss_rate 0
Core_0_DTLB_prefetch_requested 0
Core_0_DTLB_prefetch_issued 0
Core_0_DTLB_prefetch_useful 0
Core_0_DTLB_prefetch_useless 0
Core_0_DTLB_prefetch_late 0
Core_0_DTLB_prefetch_accuracy 0
Core_0_DTLB_prefetch_coverage 0

Core_0_STLB_total_access 37890
Core_0_STLB_total_hit 23943
Core_0_STLB_total_miss 13947
Core_0_STLB_total_MPKI 0.27894
Core_0_STLB_total_miss_rate 0.368092
Core_0_STLB_demand_access 37890
Core_0_STLB_demand_hit 23943
Core_0_STLB_demand_miss 13947
Core_0_STLB_demand_MPKI 0.27894
Core_0_STLB_demand_miss_rate 0.368092
Core_0_STLB_load_access 37890
Core_0_STLB_load_hit 23943
Core_0_STLB_load_miss 13947
Core_0_STLB_load_MPKI 0.27894
Core_0_STLB_load_miss_rate 0.368092
Core_0_STLB_rfo_access 0
Core_0_STLB_rfo_hit 0
Core_0_STLB_rfo_miss 0
Core_0_STLB_rfo_MPKI 0
Core_0_STLB_rfo_miss_rate 0
Core_0_STLB_prefetch_access 0
Core_0_STLB_prefetch_hit 0
Core_0_STLB_prefetch_miss 0
Core_0_STLB_prefetch_MPKI 0
Core_0_STLB_prefetch_miss_rate 0
Core_0_STLB_writeback_access 0
Core_0_STLB_writeback_hit 0
Core_0_STLB_writeback_miss 0
Core_0_STLB_writeback_MPKI 0
Core_0_STLB_writeback_miss_rate 0
Core_0_STLB_prefetch_requested 0
Core_0_STLB_prefetch_issued 0
Core_0_STLB_prefetch_useful 0
Core_0_STLB_prefetch_useless 0
Core_0_STLB_prefetch_late 0
Core_0_STLB_prefetch_accuracy 0
Core_0_STLB_prefetch_coverage 0

Core_0_L1I_total_access 722007
Core_0_L1I_total_hit 722007
Core_0_L1I_total_miss 0
Core_0_L1I_total_MPKI 0
Core_0_L1I_total_miss_rate 0
Core_0_L1I_demand_access 722007
Core_0_L1I_demand_hit 722007
Core_0_L1I_demand_miss 0
Core_0_L1I_demand_MPKI 0
Core_0_L1I_demand_miss_rate 0
Core_0_L1I_load_access 722007
Core_0_L1I_load_hit 722007
Core_0_L1I_load_miss 0
Core_0_L1I_load_MPKI 0
Core_0_L1I_load_miss_rate 0
Core_0_L1I_rfo_access 0
Core_0_L1I_rfo_hit 0
Core_0_L1I_rfo_miss 0
Core_0_L1I_rfo_MPKI 0
Core_0_L1I_rfo_miss_rate 0
Core_0_L1I_prefetch_access 0
Core_0_L1I_prefetch_hit 0
Core_0_L1I_prefetch_miss 0
Core_0_L1I_prefetch_MPKI 0
Core_0_L1I_prefetch_miss_rate 0
Core_0_L1I_writeback_access 0
Core_0_L1I_writeback_hit 0
Core_0_L1I_writeback_miss 0
Core_0_L1I_writeback_MPKI 0
Core_0_L1I_writeback_miss_rate 0
Core_0_L1I_prefetch_requested 0
Core_0_L1I_prefetch_issued 0
Core_0_L1I_prefetch_useful 0
Core_0_L1I_prefetch_useless 0
Core_0_L1I_prefetch_late 0
Core_0_L1I_prefetch_accuracy 0
Core_0_L1I_prefetch_coverage 0

Core_0_L1D_total_access 19367048
Core_0_L1D_total_hit 18280895
Core_0_L1D_total_miss 1086153
Core_0_L1D_total_MPKI 21.7231
Core_0_L1D_total_miss_rate 0.0560825
Core_0_L1D_demand_access 14758444
Core_0_L1D_demand_hit 14567452
Core_0_L1D_demand_miss 190992
Core_0_L1D_demand_MPKI 3.81984
Core_0_L1D_demand_miss_rate 0.0129412
Core_0_L1D_load_access 14758444
Core_0_L1D_load_hit 14567452
Core_0_L1D_load_miss 190992
Core_0_L1D_load_MPKI 3.81984
Core_0_L1D_load_miss_rate 0.0129412
Core_0_L1D_rfo_access 0
Core_0_L1D_rfo_hit 0
Core_0_L1D_rfo_miss 0
Core_0_L1D_rfo_MPKI 0
Core_0_L1D_rfo_miss_rate 0
Core_0_L1D_prefetch_access 864902
Core_0_L1D_prefetch_hit 91234
Core_0_L1D_prefetch_miss 773668
Core_0_L1D_prefetch_MPKI 15.4734
Core_0_L1D_prefetch_miss_rate 0.894515
Core_0_L1D_writeback_access 3743702
Core_0_L1D_writeback_hit 3622209
Core_0_L1D_writeback_miss 121493
Core_0_L1D_writeback_MPKI 2.42986
Core_0_L1D_writeback_miss_rate 0.0324526
Core_0_L1D_prefetch_requested 979112
Core_0_L1D_prefetch_issued 864900
Core_0_L1D_prefetch_useful 764076
Core_0_L1D_prefetch_useless 3143
Core_0_L1D_prefetch_late 5042
Core_0_L1D_prefetch_accuracy 0.883427
Core_0_L1D_prefetch_coverage 0.800023

Core_0_L2C_total_access 4724253
Core_0_L2C_total_hit 3062827
Core_0_L2C_total_miss 1661426
Core_0_L2C_total_MPKI 33.2285
Core_0_L2C_total_miss_rate 0.35168
Core_0_L2C_demand_access 200549
Core_0_L2C_demand_hit 143462
Core_0_L2C_demand_miss 57087
Core_0_L2C_demand_MPKI 1.14174
Core_0_L2C_demand_miss_rate 0.284654
Core_0_L2C_load_access 177022
Core_0_L2C_load_hit 143462
Core_0_L2C_load_miss 33560
Core_0_L2C_load_MPKI 0.6712
Core_0_L2C_load_miss_rate 0.189581
Core_0_L2C_rfo_access 23527
Core_0_L2C_rfo_hit 0
Core_0_L2C_rfo_miss 23527
Core_0_L2C_rfo_MPKI 0.47054
Core_0_L2C_rfo_miss_rate 1
Core_0_L2C_prefetch_access 4500185
Core_0_L2C_prefetch_hit 2895846
Core_0_L2C_prefetch_miss 1604339
Core_0_L2C_prefetch_MPKI 32.0868
Core_0_L2C_prefetch_miss_rate 0.356505
Core_0_L2C_writeback_access 23519
Core_0_L2C_writeback_hit 23519
Core_0_L2C_writeback_miss 0
Core_0_L2C_writeback_MPKI 0
Core_0_L2C_writeback_miss_rate 0
Core_0_L2C_prefetch_requested 4879668
Core_0_L2C_prefetch_issued 3732946
Core_0_L2C_prefetch_useful 815596
Core_0_L2C_prefetch_useless 37101
Core_0_L2C_prefetch_late 12186
Core_0_L2C_prefetch_accuracy 0.218486
Core_0_L2C_prefetch_coverage 0.934584

Core_0_LLC_total_access 941571
Core_0_LLC_total_hit 5835
Core_0_LLC_total_miss 935736
Core_0_LLC_total_MPKI 18.7147
Core_0_LLC_total_miss_rate 0.993803
Core_0_LLC_demand_access 44901
Core_0_LLC_demand_hit 15
Core_0_LLC_demand_miss 44886
Core_0_LLC_demand_MPKI 0.89772
Core_0_LLC_demand_miss_rate 0.999666
Core_0_LLC_load_access 21374
Core_0_LLC_load_hit 15
Core_0_LLC_load_miss 21359
Core_0_LLC_load_MPKI 0.42718
Core_0_LLC_load_miss_rate 0.999298
Core_0_LLC_rfo_access 23527
Core_0_LLC_rfo_hit 0
Core_0_LLC_rfo_miss 23527
Core_0_LLC_rfo_MPKI 0.47054
Core_0_LLC_rfo_miss_rate 1
Core_0_LLC_prefetch_access 873171
Core_0_LLC_prefetch_hit 2112
Core_0_LLC_prefetch_miss 871059
Core_0_LLC_prefetch_MPKI 17.4212
Core_0_LLC_prefetch_miss_rate 0.997581
Core_0_LLC_writeback_access 23499
Core_0_LLC_writeback_hit 3708
Core_0_LLC_writeback_miss 19791
Core_0_LLC_writeback_MPKI 0.39582
Core_0_LLC_writeback_miss_rate 0.842206
Core_0_LLC_prefetch_requested 0
Core_0_LLC_prefetch_issued 0
Core_0_LLC_prefetch_useful 0
Core_0_LLC_prefetch_useless 0
Core_0_LLC_prefetch_late 0
Core_0_LLC_prefetch_accuracy 0
Core_0_LLC_prefetch_coverage 0

[DRAM Statistics]
Channel_0_RQ_row_buffer_hit 138
Channel_0_RQ_row_buffer_miss 917618
Channel_0_WQ_row_buffer_hit 4527
Channel_0_WQ_row_buffer_miss 13970
Channel_0_WQ_full 0
Channel_0_dbus_congested 1876741
DRAM_total_RQ_row_buffer_hit 138
DRAM_total_RQ_row_buffer_miss 917618
DRAM_total_WQ_row_buffer_hit 4527
DRAM_total_WQ_row_buffer_miss 13970
DRAM_total_WQ_full 0
DRAM_total_dbus_congested 1876741
DRAM_avg_congested_cycle 3.69283

======STLB miss causes ========
Core_0_STLB_miss_cause_breakdown
Core_0_STLB_cause_Demand_Data_miss 12995
Core_0_STLB_cause_Demand_Data_miss_rate 0.342966
Core_0_STLB_cause_Demand_Instruction_miss 0
Core_0_STLB_cause_Demand_Instruction_miss_rate 0
Core_0_STLB_cause_L1D_Prefetch_miss 952
Core_0_STLB_cause_L1D_Prefetch_miss_rate 0.0251254
Core_0_STLB_cause_L1I_Prefetch_miss 0
Core_0_STLB_cause_L1I_Prefetch_miss_rate 0
Core_0_STLB_cause_Other_miss 0
Core_0_STLB_cause_Other_miss_rate 0
Core_0_STLB_Demand_miss 12995
Core_0_STLB_Demand_miss_rate 0.342966
Core_0_STLB_L1D_Prefetch_miss 952
Core_0_STLB_L1D_Prefetch_miss_rate 0.0251254
Core_0_STLB_Other_miss 0
Core_0_STLB_Other_miss_rate 0
