[VMEM] WARNING: physical memory size is smaller than virtual memory size.

*** ChampSim Multicore Out-of-Order Simulator ***
Warmup Instructions: 20000000
Simulation Instructions: 50000000
Number of CPUs: 1
Page size: 4096
Core 0: /data0/tzh/champsim_traces/SPEC06/429.mcf-217B.champsimtrace.xz
 L1D Berti prefetcher
Off-chip DRAM Size: 4 GiB Channels: 1 Width: 64-bit Data Rate: 3205 MT/s
Warmup halting CPU 0 at instruction 20000000 cycle 6421631 for remainder of phase
Warmup finished CPU 0 instructions: 20000000 cycles: 6421631 cumulative IPC: 3.114 (Simulation time: 00 hr 01 min 32 sec)
Warmup complete CPU 0 instructions: 20000000 cycles: 6421631 cumulative IPC: 3.114 (Simulation time: 00 hr 01 min 32 sec)
Simulation finished CPU 0 instructions: 50000000 cycles: 62302918 cumulative IPC: 0.8025 (Simulation time: 00 hr 09 min 55 sec)
Simulation complete CPU 0 instructions: 50000000 cycles: 62302918 cumulative IPC: 0.8025 (Simulation time: 00 hr 09 min 55 sec)

ChampSim completed all CPUs

=== Simulation ===
CPU 0 runs /data0/tzh/champsim_traces/SPEC06/429.mcf-217B.champsimtrace.xz

Region of Interest Statistics

CPU 0 cumulative IPC: 0.8025 instructions: 50000000 cycles: 62302918
CPU 0 Branch Prediction Accuracy: 98.24% MPKI: 1.998 Average ROB Occupancy at Mispredict: 136
Branch type MPKI
BRANCH_DIRECT_JUMP: 0
BRANCH_INDIRECT: 0
BRANCH_CONDITIONAL: 1.998
BRANCH_DIRECT_CALL: 0
BRANCH_INDIRECT_CALL: 0
BRANCH_RETURN: 0

cpu0->cpu0_STLB TOTAL        ACCESS:     107518 HIT:      61794 MISS:      45724 MSHR_MERGE:          0
cpu0->cpu0_STLB LOAD         ACCESS:     107518 HIT:      61794 MISS:      45724 MSHR_MERGE:          0
cpu0->cpu0_STLB RFO          ACCESS:          0 HIT:          0 MISS:          0 MSHR_MERGE:          0
cpu0->cpu0_STLB PREFETCH     ACCESS:          0 HIT:          0 MISS:          0 MSHR_MERGE:          0
cpu0->cpu0_STLB WRITE        ACCESS:          0 HIT:          0 MISS:          0 MSHR_MERGE:          0
cpu0->cpu0_STLB TRANSLATION  ACCESS:          0 HIT:          0 MISS:          0 MSHR_MERGE:          0
cpu0->cpu0_STLB PREFETCH REQUESTED:          0 ISSUED:          0 USEFUL:          0 USELESS:          0 LATE:          0
cpu0->cpu0_STLB AVERAGE MISS LATENCY: 56.37 cycles
cpu0->cpu0_L2C TOTAL        ACCESS:   10222639 HIT:    4816328 MISS:    5406311 MSHR_MERGE:    2677427
cpu0->cpu0_L2C LOAD         ACCESS:     459248 HIT:     243212 MISS:     216036 MSHR_MERGE:      53916
cpu0->cpu0_L2C RFO          ACCESS:       1116 HIT:       1031 MISS:         85 MSHR_MERGE:          0
cpu0->cpu0_L2C PREFETCH     ACCESS:    9662391 HIT:    4479644 MISS:    5182747 MSHR_MERGE:    2623511
cpu0->cpu0_L2C WRITE        ACCESS:      92227 HIT:      91727 MISS:        500 MSHR_MERGE:          0
cpu0->cpu0_L2C TRANSLATION  ACCESS:       7657 HIT:        714 MISS:       6943 MSHR_MERGE:          0
cpu0->cpu0_L2C PREFETCH REQUESTED:    9939544 ISSUED:    7421389 USEFUL:    1613402 USELESS:     620991 LATE:      53916
cpu0->cpu0_L2C AVERAGE MISS LATENCY: 168.9 cycles
cpu0->cpu0_L1I TOTAL        ACCESS:    6421686 HIT:    6421686 MISS:          0 MSHR_MERGE:          0
cpu0->cpu0_L1I LOAD         ACCESS:    6421686 HIT:    6421686 MISS:          0 MSHR_MERGE:          0
cpu0->cpu0_L1I RFO          ACCESS:          0 HIT:          0 MISS:          0 MSHR_MERGE:          0
cpu0->cpu0_L1I PREFETCH     ACCESS:          0 HIT:          0 MISS:          0 MSHR_MERGE:          0
cpu0->cpu0_L1I WRITE        ACCESS:          0 HIT:          0 MISS:          0 MSHR_MERGE:          0
cpu0->cpu0_L1I TRANSLATION  ACCESS:          0 HIT:          0 MISS:          0 MSHR_MERGE:          0
cpu0->cpu0_L1I PREFETCH REQUESTED:          0 ISSUED:          0 USEFUL:          0 USELESS:          0 LATE:          0
cpu0->cpu0_L1I AVERAGE MISS LATENCY: - cycles
cpu0->cpu0_L1D TOTAL        ACCESS:   18611960 HIT:   15463573 MISS:    3148387 MSHR_MERGE:     439363
cpu0->cpu0_L1D LOAD         ACCESS:    9186723 HIT:    8333021 MISS:     853702 MSHR_MERGE:     394455
cpu0->cpu0_L1D RFO          ACCESS:          0 HIT:          0 MISS:          0 MSHR_MERGE:          0
cpu0->cpu0_L1D PREFETCH     ACCESS:    2421398 HIT:     138298 MISS:    2283100 MSHR_MERGE:      42097
cpu0->cpu0_L1D WRITE        ACCESS:    6912397 HIT:    6908491 MISS:       3906 MSHR_MERGE:       2789
cpu0->cpu0_L1D TRANSLATION  ACCESS:      91442 HIT:      83763 MISS:       7679 MSHR_MERGE:         22
cpu0->cpu0_L1D PREFETCH REQUESTED:    2425217 ISSUED:    2421390 USEFUL:    2134069 USELESS:     106905 LATE:     315724
cpu0->cpu0_L1D AVERAGE MISS LATENCY: 90.71 cycles
cpu0->cpu0_ITLB TOTAL        ACCESS:    5377604 HIT:    5377604 MISS:          0 MSHR_MERGE:          0
cpu0->cpu0_ITLB LOAD         ACCESS:    5377604 HIT:    5377604 MISS:          0 MSHR_MERGE:          0
cpu0->cpu0_ITLB RFO          ACCESS:          0 HIT:          0 MISS:          0 MSHR_MERGE:          0
cpu0->cpu0_ITLB PREFETCH     ACCESS:          0 HIT:          0 MISS:          0 MSHR_MERGE:          0
cpu0->cpu0_ITLB WRITE        ACCESS:          0 HIT:          0 MISS:          0 MSHR_MERGE:          0
cpu0->cpu0_ITLB TRANSLATION  ACCESS:          0 HIT:          0 MISS:          0 MSHR_MERGE:          0
cpu0->cpu0_ITLB PREFETCH REQUESTED:          0 ISSUED:          0 USEFUL:          0 USELESS:          0 LATE:          0
cpu0->cpu0_ITLB AVERAGE MISS LATENCY: - cycles
cpu0->cpu0_DTLB TOTAL        ACCESS:   17073850 HIT:   16896418 MISS:     177432 MSHR_MERGE:      69914
cpu0->cpu0_DTLB LOAD         ACCESS:   17073850 HIT:   16896418 MISS:     177432 MSHR_MERGE:      69914
cpu0->cpu0_DTLB RFO          ACCESS:          0 HIT:          0 MISS:          0 MSHR_MERGE:          0
cpu0->cpu0_DTLB PREFETCH     ACCESS:          0 HIT:          0 MISS:          0 MSHR_MERGE:          0
cpu0->cpu0_DTLB WRITE        ACCESS:          0 HIT:          0 MISS:          0 MSHR_MERGE:          0
cpu0->cpu0_DTLB TRANSLATION  ACCESS:          0 HIT:          0 MISS:          0 MSHR_MERGE:          0
cpu0->cpu0_DTLB PREFETCH REQUESTED:          0 ISSUED:          0 USEFUL:          0 USELESS:          0 LATE:          0
cpu0->cpu0_DTLB AVERAGE MISS LATENCY: 29.4 cycles
cpu0->LLC TOTAL        ACCESS:    2807074 HIT:     733743 MISS:    2073331 MSHR_MERGE:          0
cpu0->LLC LOAD         ACCESS:     162120 HIT:      37485 MISS:     124635 MSHR_MERGE:          0
cpu0->LLC RFO          ACCESS:         85 HIT:         54 MISS:         31 MSHR_MERGE:          0
cpu0->LLC PREFETCH     ACCESS:    2559235 HIT:     678904 MISS:    1880331 MSHR_MERGE:          0
cpu0->LLC WRITE        ACCESS:      78691 HIT:      15591 MISS:      63100 MSHR_MERGE:          0
cpu0->LLC TRANSLATION  ACCESS:       6943 HIT:       1709 MISS:       5234 MSHR_MERGE:          0
cpu0->LLC PREFETCH REQUESTED:          0 ISSUED:          0 USEFUL:          0 USELESS:          0 LATE:          0
cpu0->LLC AVERAGE MISS LATENCY: 153.1 cycles

DRAM Statistics

Channel 0 RQ ROW_BUFFER_HIT:     187337
  ROW_BUFFER_MISS:    1822812
  AVG DBUS CONGESTED CYCLE: 5.017
Channel 0 WQ ROW_BUFFER_HIT:      17075
  ROW_BUFFER_MISS:      63230
  FULL:          0
Channel 0 REFRESHES ISSUED:       5192

[ROI Statistics]
[System Configuration]
num_cpus 1
cpu_freq 4000
fetch_width 6
decode_width 6
dispatch_width 6
execute_width 6
lq_width 2
sq_width 2
retire_width 6
scheduler_size 160
branch_mispredict_penalty 1
rob_size 352
lq_size 240
sq_size 112
ifetch_buffer_size 64
decode_buffer_size 32
dispatch_buffer_size 32
register_file_size 288
decode_latency 1
dispatch_latency 1
schedule_latency 0
execute_latency 0
page_size 4096
block_size 64
core_0_itlb_set 16
core_0_itlb_way 4
core_0_itlb_rq_size 16
core_0_itlb_wq_size 16
core_0_itlb_pq_size 0
core_0_itlb_mshr_size 8
core_0_itlb_hit_latency 1
core_0_itlb_fill_latency 1
core_0_itlb_max_tag_check 2
core_0_itlb_max_fill 2
core_0_dtlb_set 16
core_0_dtlb_way 4
core_0_dtlb_rq_size 16
core_0_dtlb_wq_size 16
core_0_dtlb_pq_size 0
core_0_dtlb_mshr_size 8
core_0_dtlb_hit_latency 1
core_0_dtlb_fill_latency 1
core_0_dtlb_max_tag_check 2
core_0_dtlb_max_fill 2
core_0_stlb_set 128
core_0_stlb_way 12
core_0_stlb_rq_size 32
core_0_stlb_wq_size 32
core_0_stlb_pq_size 0
core_0_stlb_mshr_size 16
core_0_stlb_hit_latency 4
core_0_stlb_fill_latency 4
core_0_stlb_max_tag_check 1
core_0_stlb_max_fill 1
core_0_l1i_set 64
core_0_l1i_way 8
core_0_l1i_rq_size 64
core_0_l1i_wq_size 64
core_0_l1i_pq_size 32
core_0_l1i_mshr_size 8
core_0_l1i_hit_latency 2
core_0_l1i_fill_latency 2
core_0_l1i_max_tag_check 2
core_0_l1i_max_fill 2
core_0_l1d_set 64
core_0_l1d_way 12
core_0_l1d_rq_size 64
core_0_l1d_wq_size 64
core_0_l1d_pq_size 8
core_0_l1d_mshr_size 16
core_0_l1d_hit_latency 2
core_0_l1d_fill_latency 3
core_0_l1d_max_tag_check 2
core_0_l1d_max_fill 2
core_0_l2c_set 1024
core_0_l2c_way 8
core_0_l2c_rq_size 32
core_0_l2c_wq_size 32
core_0_l2c_pq_size 16
core_0_l2c_mshr_size 32
core_0_l2c_hit_latency 5
core_0_l2c_fill_latency 5
core_0_l2c_max_tag_check 1
core_0_l2c_max_fill 1
llc_set 2048
llc_way 16
llc_rq_size 32
llc_wq_size 32
llc_pq_size 32
llc_mshr_size 64
llc_hit_latency 10
llc_fill_latency 10
llc_max_tag_check 1
llc_max_fill 1
dram_channels 1
dram_ranks 1
dram_bankgroups 8
dram_banks 4
dram_rows 16384
dram_columns 1024
dram_channel_width 8
dram_rq_size 64
dram_wq_size 64
dram_size 4294967296
core_0_itlb_prefetcher no
core_0_dtlb_prefetcher no
core_0_stlb_prefetcher no
core_0_l1i_prefetcher next_line
core_0_l1d_prefetcher berti
core_0_l2c_prefetcher pythia
llc_prefetcher no
llc_replacement drrip

Core_0_instructions 50000000
Core_0_cycles 62302918
Core_0_IPC 0.802531
Core_0_branch_prediction_accuracy 98.2443
Core_0_branch_MPKI 1.99824
Core_0_average_ROB_occupancy_at_mispredict 136.039

Core_0_ITLB_total_access 5377604
Core_0_ITLB_total_hit 5377604
Core_0_ITLB_total_miss 0
Core_0_ITLB_total_MPKI 0
Core_0_ITLB_total_miss_rate 0
Core_0_ITLB_demand_access 5377604
Core_0_ITLB_demand_hit 5377604
Core_0_ITLB_demand_miss 0
Core_0_ITLB_demand_MPKI 0
Core_0_ITLB_demand_miss_rate 0
Core_0_ITLB_load_access 5377604
Core_0_ITLB_load_hit 5377604
Core_0_ITLB_load_miss 0
Core_0_ITLB_load_MPKI 0
Core_0_ITLB_load_miss_rate 0
Core_0_ITLB_rfo_access 0
Core_0_ITLB_rfo_hit 0
Core_0_ITLB_rfo_miss 0
Core_0_ITLB_rfo_MPKI 0
Core_0_ITLB_rfo_miss_rate 0
Core_0_ITLB_prefetch_access 0
Core_0_ITLB_prefetch_hit 0
Core_0_ITLB_prefetch_miss 0
Core_0_ITLB_prefetch_MPKI 0
Core_0_ITLB_prefetch_miss_rate 0
Core_0_ITLB_writeback_access 0
Core_0_ITLB_writeback_hit 0
Core_0_ITLB_writeback_miss 0
Core_0_ITLB_writeback_MPKI 0
Core_0_ITLB_writeback_miss_rate 0
Core_0_ITLB_prefetch_requested 0
Core_0_ITLB_prefetch_issued 0
Core_0_ITLB_prefetch_useful 0
Core_0_ITLB_prefetch_useless 0
Core_0_ITLB_prefetch_late 0
Core_0_ITLB_prefetch_accuracy 0
Core_0_ITLB_prefetch_coverage 0

Core_0_DTLB_total_access 17073850
Core_0_DTLB_total_hit 16896418
Core_0_DTLB_total_miss 177432
Core_0_DTLB_total_MPKI 3.54864
Core_0_DTLB_total_miss_rate 0.010392
Core_0_DTLB_demand_access 17073850
Core_0_DTLB_demand_hit 16896418
Core_0_DTLB_demand_miss 177432
Core_0_DTLB_demand_MPKI 3.54864
Core_0_DTLB_demand_miss_rate 0.010392
Core_0_DTLB_load_access 17073850
Core_0_DTLB_load_hit 16896418
Core_0_DTLB_load_miss 177432
Core_0_DTLB_load_MPKI 3.54864
Core_0_DTLB_load_miss_rate 0.010392
Core_0_DTLB_rfo_access 0
Core_0_DTLB_rfo_hit 0
Core_0_DTLB_rfo_miss 0
Core_0_DTLB_rfo_MPKI 0
Core_0_DTLB_rfo_miss_rate 0
Core_0_DTLB_prefetch_access 0
Core_0_DTLB_prefetch_hit 0
Core_0_DTLB_prefetch_miss 0
Core_0_DTLB_prefetch_MPKI 0
Core_0_DTLB_prefetch_miss_rate 0
Core_0_DTLB_writeback_access 0
Core_0_DTLB_writeback_hit 0
Core_0_DTLB_writeback_miss 0
Core_0_DTLB_writeback_MPKI 0
Core_0_DTLB_writeback_miss_rate 0
Core_0_DTLB_prefetch_requested 0
Core_0_DTLB_prefetch_issued 0
Core_0_DTLB_prefetch_useful 0
Core_0_DTLB_prefetch_useless 0
Core_0_DTLB_prefetch_late 0
Core_0_DTLB_prefetch_accuracy 0
Core_0_DTLB_prefetch_coverage 0

Core_0_STLB_total_access 107518
Core_0_STLB_total_hit 61794
Core_0_STLB_total_miss 45724
Core_0_STLB_total_MPKI 0.91448
Core_0_STLB_total_miss_rate 0.425268
Core_0_STLB_demand_access 107518
Core_0_STLB_demand_hit 61794
Core_0_STLB_demand_miss 45724
Core_0_STLB_demand_MPKI 0.91448
Core_0_STLB_demand_miss_rate 0.425268
Core_0_STLB_load_access 107518
Core_0_STLB_load_hit 61794
Core_0_STLB_load_miss 45724
Core_0_STLB_load_MPKI 0.91448
Core_0_STLB_load_miss_rate 0.425268
Core_0_STLB_rfo_access 0
Core_0_STLB_rfo_hit 0
Core_0_STLB_rfo_miss 0
Core_0_STLB_rfo_MPKI 0
Core_0_STLB_rfo_miss_rate 0
Core_0_STLB_prefetch_access 0
Core_0_STLB_prefetch_hit 0
Core_0_STLB_prefetch_miss 0
Core_0_STLB_prefetch_MPKI 0
Core_0_STLB_prefetch_miss_rate 0
Core_0_STLB_writeback_access 0
Core_0_STLB_writeback_hit 0
Core_0_STLB_writeback_miss 0
Core_0_STLB_writeback_MPKI 0
Core_0_STLB_writeback_miss_rate 0
Core_0_STLB_prefetch_requested 0
Core_0_STLB_prefetch_issued 0
Core_0_STLB_prefetch_useful 0
Core_0_STLB_prefetch_useless 0
Core_0_STLB_prefetch_late 0
Core_0_STLB_prefetch_accuracy 0
Core_0_STLB_prefetch_coverage 0

Core_0_L1I_total_access 6421686
Core_0_L1I_total_hit 6421686
Core_0_L1I_total_miss 0
Core_0_L1I_total_MPKI 0
Core_0_L1I_total_miss_rate 0
Core_0_L1I_demand_access 6421686
Core_0_L1I_demand_hit 6421686
Core_0_L1I_demand_miss 0
Core_0_L1I_demand_MPKI 0
Core_0_L1I_demand_miss_rate 0
Core_0_L1I_load_access 6421686
Core_0_L1I_load_hit 6421686
Core_0_L1I_load_miss 0
Core_0_L1I_load_MPKI 0
Core_0_L1I_load_miss_rate 0
Core_0_L1I_rfo_access 0
Core_0_L1I_rfo_hit 0
Core_0_L1I_rfo_miss 0
Core_0_L1I_rfo_MPKI 0
Core_0_L1I_rfo_miss_rate 0
Core_0_L1I_prefetch_access 0
Core_0_L1I_prefetch_hit 0
Core_0_L1I_prefetch_miss 0
Core_0_L1I_prefetch_MPKI 0
Core_0_L1I_prefetch_miss_rate 0
Core_0_L1I_writeback_access 0
Core_0_L1I_writeback_hit 0
Core_0_L1I_writeback_miss 0
Core_0_L1I_writeback_MPKI 0
Core_0_L1I_writeback_miss_rate 0
Core_0_L1I_prefetch_requested 0
Core_0_L1I_prefetch_issued 0
Core_0_L1I_prefetch_useful 0
Core_0_L1I_prefetch_useless 0
Core_0_L1I_prefetch_late 0
Core_0_L1I_prefetch_accuracy 0
Core_0_L1I_prefetch_coverage 0

Core_0_L1D_total_access 18520518
Core_0_L1D_total_hit 15379810
Core_0_L1D_total_miss 3140708
Core_0_L1D_total_MPKI 62.8142
Core_0_L1D_total_miss_rate 0.16958
Core_0_L1D_demand_access 9186723
Core_0_L1D_demand_hit 8333021
Core_0_L1D_demand_miss 853702
Core_0_L1D_demand_MPKI 17.074
Core_0_L1D_demand_miss_rate 0.0929278
Core_0_L1D_load_access 9186723
Core_0_L1D_load_hit 8333021
Core_0_L1D_load_miss 853702
Core_0_L1D_load_MPKI 17.074
Core_0_L1D_load_miss_rate 0.0929278
Core_0_L1D_rfo_access 0
Core_0_L1D_rfo_hit 0
Core_0_L1D_rfo_miss 0
Core_0_L1D_rfo_MPKI 0
Core_0_L1D_rfo_miss_rate 0
Core_0_L1D_prefetch_access 2421398
Core_0_L1D_prefetch_hit 138298
Core_0_L1D_prefetch_miss 2283100
Core_0_L1D_prefetch_MPKI 45.662
Core_0_L1D_prefetch_miss_rate 0.942885
Core_0_L1D_writeback_access 6912397
Core_0_L1D_writeback_hit 6908491
Core_0_L1D_writeback_miss 3906
Core_0_L1D_writeback_MPKI 0.07812
Core_0_L1D_writeback_miss_rate 0.000565072
Core_0_L1D_prefetch_requested 2425217
Core_0_L1D_prefetch_issued 2421390
Core_0_L1D_prefetch_useful 2134069
Core_0_L1D_prefetch_useless 106905
Core_0_L1D_prefetch_late 315724
Core_0_L1D_prefetch_accuracy 0.88134
Core_0_L1D_prefetch_coverage 0.714268

Core_0_L2C_total_access 10214982
Core_0_L2C_total_hit 4815614
Core_0_L2C_total_miss 5399368
Core_0_L2C_total_MPKI 107.987
Core_0_L2C_total_miss_rate 0.528573
Core_0_L2C_demand_access 460364
Core_0_L2C_demand_hit 244243
Core_0_L2C_demand_miss 216121
Core_0_L2C_demand_MPKI 4.32242
Core_0_L2C_demand_miss_rate 0.469457
Core_0_L2C_load_access 459248
Core_0_L2C_load_hit 243212
Core_0_L2C_load_miss 216036
Core_0_L2C_load_MPKI 4.32072
Core_0_L2C_load_miss_rate 0.470413
Core_0_L2C_rfo_access 1116
Core_0_L2C_rfo_hit 1031
Core_0_L2C_rfo_miss 85
Core_0_L2C_rfo_MPKI 0.0017
Core_0_L2C_rfo_miss_rate 0.0761649
Core_0_L2C_prefetch_access 9662391
Core_0_L2C_prefetch_hit 4479644
Core_0_L2C_prefetch_miss 5182747
Core_0_L2C_prefetch_MPKI 103.655
Core_0_L2C_prefetch_miss_rate 0.536383
Core_0_L2C_writeback_access 92227
Core_0_L2C_writeback_hit 91727
Core_0_L2C_writeback_miss 500
Core_0_L2C_writeback_MPKI 0.01
Core_0_L2C_writeback_miss_rate 0.00542141
Core_0_L2C_prefetch_requested 9939544
Core_0_L2C_prefetch_issued 7421389
Core_0_L2C_prefetch_useful 1613402
Core_0_L2C_prefetch_useless 620991
Core_0_L2C_prefetch_late 53916
Core_0_L2C_prefetch_accuracy 0.217399
Core_0_L2C_prefetch_coverage 0.88187

Core_0_LLC_total_access 2800131
Core_0_LLC_total_hit 732034
Core_0_LLC_total_miss 2068097
Core_0_LLC_total_MPKI 41.3619
Core_0_LLC_total_miss_rate 0.738572
Core_0_LLC_demand_access 162205
Core_0_LLC_demand_hit 37539
Core_0_LLC_demand_miss 124666
Core_0_LLC_demand_MPKI 2.49332
Core_0_LLC_demand_miss_rate 0.768571
Core_0_LLC_load_access 162120
Core_0_LLC_load_hit 37485
Core_0_LLC_load_miss 124635
Core_0_LLC_load_MPKI 2.4927
Core_0_LLC_load_miss_rate 0.768782
Core_0_LLC_rfo_access 85
Core_0_LLC_rfo_hit 54
Core_0_LLC_rfo_miss 31
Core_0_LLC_rfo_MPKI 0.00062
Core_0_LLC_rfo_miss_rate 0.364706
Core_0_LLC_prefetch_access 2559235
Core_0_LLC_prefetch_hit 678904
Core_0_LLC_prefetch_miss 1880331
Core_0_LLC_prefetch_MPKI 37.6066
Core_0_LLC_prefetch_miss_rate 0.734724
Core_0_LLC_writeback_access 78691
Core_0_LLC_writeback_hit 15591
Core_0_LLC_writeback_miss 63100
Core_0_LLC_writeback_MPKI 1.262
Core_0_LLC_writeback_miss_rate 0.801871
Core_0_LLC_prefetch_requested 0
Core_0_LLC_prefetch_issued 0
Core_0_LLC_prefetch_useful 0
Core_0_LLC_prefetch_useless 0
Core_0_LLC_prefetch_late 0
Core_0_LLC_prefetch_accuracy 0
Core_0_LLC_prefetch_coverage 0

[DRAM Statistics]
Channel_0_RQ_row_buffer_hit 187337
Channel_0_RQ_row_buffer_miss 1822812
Channel_0_WQ_row_buffer_hit 17075
Channel_0_WQ_row_buffer_miss 63230
Channel_0_WQ_full 0
Channel_0_dbus_congested 4733049
DRAM_total_RQ_row_buffer_hit 187337
DRAM_total_RQ_row_buffer_miss 1822812
DRAM_total_WQ_row_buffer_hit 17075
DRAM_total_WQ_row_buffer_miss 63230
DRAM_total_WQ_full 0
DRAM_total_dbus_congested 4733049
DRAM_avg_congested_cycle 5.01704

======STLB miss causes ========
Core_0_STLB_miss_cause_breakdown
Core_0_STLB_cause_Demand_Data_miss 34377
Core_0_STLB_cause_Demand_Data_miss_rate 0.319733
Core_0_STLB_cause_Demand_Instruction_miss 0
Core_0_STLB_cause_Demand_Instruction_miss_rate 0
Core_0_STLB_cause_L1D_Prefetch_miss 11347
Core_0_STLB_cause_L1D_Prefetch_miss_rate 0.105536
Core_0_STLB_cause_L1I_Prefetch_miss 0
Core_0_STLB_cause_L1I_Prefetch_miss_rate 0
Core_0_STLB_cause_Other_miss 0
Core_0_STLB_cause_Other_miss_rate 0
Core_0_STLB_Demand_miss 34377
Core_0_STLB_Demand_miss_rate 0.319733
Core_0_STLB_L1D_Prefetch_miss 11347
Core_0_STLB_L1D_Prefetch_miss_rate 0.105536
Core_0_STLB_Other_miss 0
Core_0_STLB_Other_miss_rate 0
