[VMEM] WARNING: physical memory size is smaller than virtual memory size.

*** ChampSim Multicore Out-of-Order Simulator ***
Warmup Instructions: 20000000
Simulation Instructions: 50000000
Number of CPUs: 1
Page size: 4096
Core 0: /data0/tzh/champsim_traces/SPEC06/445.gobmk-17B.champsimtrace.xz
 L1D Berti prefetcher
Off-chip DRAM Size: 4 GiB Channels: 1 Width: 64-bit Data Rate: 3205 MT/s
Warmup halting CPU 0 at instruction 20000000 cycle 4731320 for remainder of phase
Warmup finished CPU 0 instructions: 20000000 cycles: 4731320 cumulative IPC: 4.227 (Simulation time: 00 hr 01 min 02 sec)
Warmup complete CPU 0 instructions: 20000000 cycles: 4731320 cumulative IPC: 4.227 (Simulation time: 00 hr 01 min 02 sec)
Simulation finished CPU 0 instructions: 50000000 cycles: 36260399 cumulative IPC: 1.379 (Simulation time: 00 hr 04 min 30 sec)
Simulation complete CPU 0 instructions: 50000000 cycles: 36260399 cumulative IPC: 1.379 (Simulation time: 00 hr 04 min 30 sec)

ChampSim completed all CPUs

=== Simulation ===
CPU 0 runs /data0/tzh/champsim_traces/SPEC06/445.gobmk-17B.champsimtrace.xz

Region of Interest Statistics

CPU 0 cumulative IPC: 1.379 instructions: 50000000 cycles: 36260399
CPU 0 Branch Prediction Accuracy: 84.99% MPKI: 26.59 Average ROB Occupancy at Mispredict: 18.42
Branch type MPKI
BRANCH_DIRECT_JUMP: 0.03078
BRANCH_INDIRECT: 0
BRANCH_CONDITIONAL: 26.5
BRANCH_DIRECT_CALL: 0.0645
BRANCH_INDIRECT_CALL: 0.00028
BRANCH_RETURN: 0.00064

cpu0->cpu0_STLB TOTAL        ACCESS:       5999 HIT:       5771 MISS:        228 MSHR_MERGE:          0
cpu0->cpu0_STLB LOAD         ACCESS:       5999 HIT:       5771 MISS:        228 MSHR_MERGE:          0
cpu0->cpu0_STLB RFO          ACCESS:          0 HIT:          0 MISS:          0 MSHR_MERGE:          0
cpu0->cpu0_STLB PREFETCH     ACCESS:          0 HIT:          0 MISS:          0 MSHR_MERGE:          0
cpu0->cpu0_STLB WRITE        ACCESS:          0 HIT:          0 MISS:          0 MSHR_MERGE:          0
cpu0->cpu0_STLB TRANSLATION  ACCESS:          0 HIT:          0 MISS:          0 MSHR_MERGE:          0
cpu0->cpu0_STLB PREFETCH REQUESTED:          0 ISSUED:          0 USEFUL:          0 USELESS:          0 LATE:          0
cpu0->cpu0_STLB AVERAGE MISS LATENCY: 147.4 cycles
cpu0->cpu0_L2C TOTAL        ACCESS:     179022 HIT:     167800 MISS:      11222 MSHR_MERGE:        832
cpu0->cpu0_L2C LOAD         ACCESS:      20039 HIT:      17481 MISS:       2558 MSHR_MERGE:         12
cpu0->cpu0_L2C RFO          ACCESS:      39489 HIT:      38956 MISS:        533 MSHR_MERGE:          3
cpu0->cpu0_L2C PREFETCH     ACCESS:      65716 HIT:      57712 MISS:       8004 MSHR_MERGE:        817
cpu0->cpu0_L2C WRITE        ACCESS:      53566 HIT:      53553 MISS:         13 MSHR_MERGE:          0
cpu0->cpu0_L2C TRANSLATION  ACCESS:        212 HIT:         98 MISS:        114 MSHR_MERGE:          0
cpu0->cpu0_L2C PREFETCH REQUESTED:      39791 ISSUED:      39501 USEFUL:       2842 USELESS:       2534 LATE:         15
cpu0->cpu0_L2C AVERAGE MISS LATENCY: 77.55 cycles
cpu0->cpu0_L1I TOTAL        ACCESS:     428645 HIT:     426157 MISS:       2488 MSHR_MERGE:        429
cpu0->cpu0_L1I LOAD         ACCESS:     428645 HIT:     426157 MISS:       2488 MSHR_MERGE:        429
cpu0->cpu0_L1I RFO          ACCESS:          0 HIT:          0 MISS:          0 MSHR_MERGE:          0
cpu0->cpu0_L1I PREFETCH     ACCESS:          0 HIT:          0 MISS:          0 MSHR_MERGE:          0
cpu0->cpu0_L1I WRITE        ACCESS:          0 HIT:          0 MISS:          0 MSHR_MERGE:          0
cpu0->cpu0_L1I TRANSLATION  ACCESS:          0 HIT:          0 MISS:          0 MSHR_MERGE:          0
cpu0->cpu0_L1I PREFETCH REQUESTED:          0 ISSUED:          0 USEFUL:          0 USELESS:          0 LATE:          0
cpu0->cpu0_L1I AVERAGE MISS LATENCY: 17.79 cycles
cpu0->cpu0_L1D TOTAL        ACCESS:   17447696 HIT:   17303576 MISS:     144120 MSHR_MERGE:      60221
cpu0->cpu0_L1D LOAD         ACCESS:    9134428 HIT:    9110432 MISS:      23996 MSHR_MERGE:       6015
cpu0->cpu0_L1D RFO          ACCESS:          0 HIT:          0 MISS:          0 MSHR_MERGE:          0
cpu0->cpu0_L1D PREFETCH     ACCESS:     127496 HIT:      99589 MISS:      27907 MSHR_MERGE:       1692
cpu0->cpu0_L1D WRITE        ACCESS:    8185317 HIT:    8093313 MISS:      92004 MSHR_MERGE:      52513
cpu0->cpu0_L1D TRANSLATION  ACCESS:        455 HIT:        242 MISS:        213 MSHR_MERGE:          1
cpu0->cpu0_L1D PREFETCH REQUESTED:     133467 ISSUED:     127489 USEFUL:      12935 USELESS:      13272 LATE:        553
cpu0->cpu0_L1D AVERAGE MISS LATENCY: 12 cycles
cpu0->cpu0_ITLB TOTAL        ACCESS:     315399 HIT:     315380 MISS:         19 MSHR_MERGE:         10
cpu0->cpu0_ITLB LOAD         ACCESS:     315399 HIT:     315380 MISS:         19 MSHR_MERGE:         10
cpu0->cpu0_ITLB RFO          ACCESS:          0 HIT:          0 MISS:          0 MSHR_MERGE:          0
cpu0->cpu0_ITLB PREFETCH     ACCESS:          0 HIT:          0 MISS:          0 MSHR_MERGE:          0
cpu0->cpu0_ITLB WRITE        ACCESS:          0 HIT:          0 MISS:          0 MSHR_MERGE:          0
cpu0->cpu0_ITLB TRANSLATION  ACCESS:          0 HIT:          0 MISS:          0 MSHR_MERGE:          0
cpu0->cpu0_ITLB PREFETCH REQUESTED:          0 ISSUED:          0 USEFUL:          0 USELESS:          0 LATE:          0
cpu0->cpu0_ITLB AVERAGE MISS LATENCY: 167.8 cycles
cpu0->cpu0_DTLB TOTAL        ACCESS:   16659427 HIT:   16649712 MISS:       9715 MSHR_MERGE:       3725
cpu0->cpu0_DTLB LOAD         ACCESS:   16659427 HIT:   16649712 MISS:       9715 MSHR_MERGE:       3725
cpu0->cpu0_DTLB RFO          ACCESS:          0 HIT:          0 MISS:          0 MSHR_MERGE:          0
cpu0->cpu0_DTLB PREFETCH     ACCESS:          0 HIT:          0 MISS:          0 MSHR_MERGE:          0
cpu0->cpu0_DTLB WRITE        ACCESS:          0 HIT:          0 MISS:          0 MSHR_MERGE:          0
cpu0->cpu0_DTLB TRANSLATION  ACCESS:          0 HIT:          0 MISS:          0 MSHR_MERGE:          0
cpu0->cpu0_DTLB PREFETCH REQUESTED:          0 ISSUED:          0 USEFUL:          0 USELESS:          0 LATE:          0
cpu0->cpu0_DTLB AVERAGE MISS LATENCY: 10.4 cycles
cpu0->LLC TOTAL        ACCESS:      12677 HIT:       8539 MISS:       4138 MSHR_MERGE:          0
cpu0->LLC LOAD         ACCESS:       2546 HIT:       1272 MISS:       1274 MSHR_MERGE:          0
cpu0->LLC RFO          ACCESS:        530 HIT:        463 MISS:         67 MSHR_MERGE:          0
cpu0->LLC PREFETCH     ACCESS:       7187 HIT:       4425 MISS:       2762 MSHR_MERGE:          0
cpu0->LLC WRITE        ACCESS:       2300 HIT:       2270 MISS:         30 MSHR_MERGE:          0
cpu0->LLC TRANSLATION  ACCESS:        114 HIT:        109 MISS:          5 MSHR_MERGE:          0
cpu0->LLC PREFETCH REQUESTED:          0 ISSUED:          0 USEFUL:          0 USELESS:          0 LATE:          0
cpu0->LLC AVERAGE MISS LATENCY: 145.4 cycles

DRAM Statistics

Channel 0 RQ ROW_BUFFER_HIT:         40
  ROW_BUFFER_MISS:       4068
  AVG DBUS CONGESTED CYCLE: 3.149
Channel 0 WQ ROW_BUFFER_HIT:          3
  ROW_BUFFER_MISS:          9
  FULL:          0
Channel 0 REFRESHES ISSUED:       3021

[ROI Statistics]
[System Configuration]
num_cpus 1
cpu_freq 4000
fetch_width 6
decode_width 6
dispatch_width 6
execute_width 6
lq_width 2
sq_width 2
retire_width 6
scheduler_size 160
branch_mispredict_penalty 1
rob_size 352
lq_size 240
sq_size 112
ifetch_buffer_size 64
decode_buffer_size 32
dispatch_buffer_size 32
register_file_size 288
decode_latency 1
dispatch_latency 1
schedule_latency 0
execute_latency 0
page_size 4096
block_size 64
core_0_itlb_set 16
core_0_itlb_way 4
core_0_itlb_rq_size 16
core_0_itlb_wq_size 16
core_0_itlb_pq_size 0
core_0_itlb_mshr_size 8
core_0_itlb_hit_latency 1
core_0_itlb_fill_latency 1
core_0_itlb_max_tag_check 2
core_0_itlb_max_fill 2
core_0_dtlb_set 16
core_0_dtlb_way 4
core_0_dtlb_rq_size 16
core_0_dtlb_wq_size 16
core_0_dtlb_pq_size 0
core_0_dtlb_mshr_size 8
core_0_dtlb_hit_latency 1
core_0_dtlb_fill_latency 1
core_0_dtlb_max_tag_check 2
core_0_dtlb_max_fill 2
core_0_stlb_set 128
core_0_stlb_way 12
core_0_stlb_rq_size 32
core_0_stlb_wq_size 32
core_0_stlb_pq_size 0
core_0_stlb_mshr_size 16
core_0_stlb_hit_latency 4
core_0_stlb_fill_latency 4
core_0_stlb_max_tag_check 1
core_0_stlb_max_fill 1
core_0_l1i_set 64
core_0_l1i_way 8
core_0_l1i_rq_size 64
core_0_l1i_wq_size 64
core_0_l1i_pq_size 32
core_0_l1i_mshr_size 8
core_0_l1i_hit_latency 2
core_0_l1i_fill_latency 2
core_0_l1i_max_tag_check 2
core_0_l1i_max_fill 2
core_0_l1d_set 64
core_0_l1d_way 12
core_0_l1d_rq_size 64
core_0_l1d_wq_size 64
core_0_l1d_pq_size 8
core_0_l1d_mshr_size 16
core_0_l1d_hit_latency 2
core_0_l1d_fill_latency 3
core_0_l1d_max_tag_check 2
core_0_l1d_max_fill 2
core_0_l2c_set 1024
core_0_l2c_way 8
core_0_l2c_rq_size 32
core_0_l2c_wq_size 32
core_0_l2c_pq_size 16
core_0_l2c_mshr_size 32
core_0_l2c_hit_latency 5
core_0_l2c_fill_latency 5
core_0_l2c_max_tag_check 1
core_0_l2c_max_fill 1
llc_set 2048
llc_way 16
llc_rq_size 32
llc_wq_size 32
llc_pq_size 32
llc_mshr_size 64
llc_hit_latency 10
llc_fill_latency 10
llc_max_tag_check 1
llc_max_fill 1
dram_channels 1
dram_ranks 1
dram_bankgroups 8
dram_banks 4
dram_rows 16384
dram_columns 1024
dram_channel_width 8
dram_rq_size 64
dram_wq_size 64
dram_size 4294967296
core_0_itlb_prefetcher no
core_0_dtlb_prefetcher no
core_0_stlb_prefetcher no
core_0_l1i_prefetcher next_line
core_0_l1d_prefetcher berti
core_0_l2c_prefetcher pythia
llc_prefetcher no
llc_replacement drrip

Core_0_instructions 50000000
Core_0_cycles 36260399
Core_0_IPC 1.37891
Core_0_branch_prediction_accuracy 84.9907
Core_0_branch_MPKI 26.5928
Core_0_average_ROB_occupancy_at_mispredict 18.419

Core_0_ITLB_total_access 315399
Core_0_ITLB_total_hit 315380
Core_0_ITLB_total_miss 19
Core_0_ITLB_total_MPKI 0.00038
Core_0_ITLB_total_miss_rate 6.02412e-05
Core_0_ITLB_demand_access 315399
Core_0_ITLB_demand_hit 315380
Core_0_ITLB_demand_miss 19
Core_0_ITLB_demand_MPKI 0.00038
Core_0_ITLB_demand_miss_rate 6.02412e-05
Core_0_ITLB_load_access 315399
Core_0_ITLB_load_hit 315380
Core_0_ITLB_load_miss 19
Core_0_ITLB_load_MPKI 0.00038
Core_0_ITLB_load_miss_rate 6.02412e-05
Core_0_ITLB_rfo_access 0
Core_0_ITLB_rfo_hit 0
Core_0_ITLB_rfo_miss 0
Core_0_ITLB_rfo_MPKI 0
Core_0_ITLB_rfo_miss_rate 0
Core_0_ITLB_prefetch_access 0
Core_0_ITLB_prefetch_hit 0
Core_0_ITLB_prefetch_miss 0
Core_0_ITLB_prefetch_MPKI 0
Core_0_ITLB_prefetch_miss_rate 0
Core_0_ITLB_writeback_access 0
Core_0_ITLB_writeback_hit 0
Core_0_ITLB_writeback_miss 0
Core_0_ITLB_writeback_MPKI 0
Core_0_ITLB_writeback_miss_rate 0
Core_0_ITLB_prefetch_requested 0
Core_0_ITLB_prefetch_issued 0
Core_0_ITLB_prefetch_useful 0
Core_0_ITLB_prefetch_useless 0
Core_0_ITLB_prefetch_late 0
Core_0_ITLB_prefetch_accuracy 0
Core_0_ITLB_prefetch_coverage 0

Core_0_DTLB_total_access 16659427
Core_0_DTLB_total_hit 16649712
Core_0_DTLB_total_miss 9715
Core_0_DTLB_total_MPKI 0.1943
Core_0_DTLB_total_miss_rate 0.000583153
Core_0_DTLB_demand_access 16659427
Core_0_DTLB_demand_hit 16649712
Core_0_DTLB_demand_miss 9715
Core_0_DTLB_demand_MPKI 0.1943
Core_0_DTLB_demand_miss_rate 0.000583153
Core_0_DTLB_load_access 16659427
Core_0_DTLB_load_hit 16649712
Core_0_DTLB_load_miss 9715
Core_0_DTLB_load_MPKI 0.1943
Core_0_DTLB_load_miss_rate 0.000583153
Core_0_DTLB_rfo_access 0
Core_0_DTLB_rfo_hit 0
Core_0_DTLB_rfo_miss 0
Core_0_DTLB_rfo_MPKI 0
Core_0_DTLB_rfo_miss_rate 0
Core_0_DTLB_prefetch_access 0
Core_0_DTLB_prefetch_hit 0
Core_0_DTLB_prefetch_miss 0
Core_0_DTLB_prefetch_MPKI 0
Core_0_DTLB_prefetch_miss_rate 0
Core_0_DTLB_writeback_access 0
Core_0_DTLB_writeback_hit 0
Core_0_DTLB_writeback_miss 0
Core_0_DTLB_writeback_MPKI 0
Core_0_DTLB_writeback_miss_rate 0
Core_0_DTLB_prefetch_requested 0
Core_0_DTLB_prefetch_issued 0
Core_0_DTLB_prefetch_useful 0
Core_0_DTLB_prefetch_useless 0
Core_0_DTLB_prefetch_late 0
Core_0_DTLB_prefetch_accuracy 0
Core_0_DTLB_prefetch_coverage 0

Core_0_STLB_total_access 5999
Core_0_STLB_total_hit 5771
Core_0_STLB_total_miss 228
Core_0_STLB_total_MPKI 0.00456
Core_0_STLB_total_miss_rate 0.0380063
Core_0_STLB_demand_access 5999
Core_0_STLB_demand_hit 5771
Core_0_STLB_demand_miss 228
Core_0_STLB_demand_MPKI 0.00456
Core_0_STLB_demand_miss_rate 0.0380063
Core_0_STLB_load_access 5999
Core_0_STLB_load_hit 5771
Core_0_STLB_load_miss 228
Core_0_STLB_load_MPKI 0.00456
Core_0_STLB_load_miss_rate 0.0380063
Core_0_STLB_rfo_access 0
Core_0_STLB_rfo_hit 0
Core_0_STLB_rfo_miss 0
Core_0_STLB_rfo_MPKI 0
Core_0_STLB_rfo_miss_rate 0
Core_0_STLB_prefetch_access 0
Core_0_STLB_prefetch_hit 0
Core_0_STLB_prefetch_miss 0
Core_0_STLB_prefetch_MPKI 0
Core_0_STLB_prefetch_miss_rate 0
Core_0_STLB_writeback_access 0
Core_0_STLB_writeback_hit 0
Core_0_STLB_writeback_miss 0
Core_0_STLB_writeback_MPKI 0
Core_0_STLB_writeback_miss_rate 0
Core_0_STLB_prefetch_requested 0
Core_0_STLB_prefetch_issued 0
Core_0_STLB_prefetch_useful 0
Core_0_STLB_prefetch_useless 0
Core_0_STLB_prefetch_late 0
Core_0_STLB_prefetch_accuracy 0
Core_0_STLB_prefetch_coverage 0

Core_0_L1I_total_access 428645
Core_0_L1I_total_hit 426157
Core_0_L1I_total_miss 2488
Core_0_L1I_total_MPKI 0.04976
Core_0_L1I_total_miss_rate 0.00580434
Core_0_L1I_demand_access 428645
Core_0_L1I_demand_hit 426157
Core_0_L1I_demand_miss 2488
Core_0_L1I_demand_MPKI 0.04976
Core_0_L1I_demand_miss_rate 0.00580434
Core_0_L1I_load_access 428645
Core_0_L1I_load_hit 426157
Core_0_L1I_load_miss 2488
Core_0_L1I_load_MPKI 0.04976
Core_0_L1I_load_miss_rate 0.00580434
Core_0_L1I_rfo_access 0
Core_0_L1I_rfo_hit 0
Core_0_L1I_rfo_miss 0
Core_0_L1I_rfo_MPKI 0
Core_0_L1I_rfo_miss_rate 0
Core_0_L1I_prefetch_access 0
Core_0_L1I_prefetch_hit 0
Core_0_L1I_prefetch_miss 0
Core_0_L1I_prefetch_MPKI 0
Core_0_L1I_prefetch_miss_rate 0
Core_0_L1I_writeback_access 0
Core_0_L1I_writeback_hit 0
Core_0_L1I_writeback_miss 0
Core_0_L1I_writeback_MPKI 0
Core_0_L1I_writeback_miss_rate 0
Core_0_L1I_prefetch_requested 0
Core_0_L1I_prefetch_issued 0
Core_0_L1I_prefetch_useful 0
Core_0_L1I_prefetch_useless 0
Core_0_L1I_prefetch_late 0
Core_0_L1I_prefetch_accuracy 0
Core_0_L1I_prefetch_coverage 0

Core_0_L1D_total_access 17447241
Core_0_L1D_total_hit 17303334
Core_0_L1D_total_miss 143907
Core_0_L1D_total_MPKI 2.87814
Core_0_L1D_total_miss_rate 0.00824812
Core_0_L1D_demand_access 9134428
Core_0_L1D_demand_hit 9110432
Core_0_L1D_demand_miss 23996
Core_0_L1D_demand_MPKI 0.47992
Core_0_L1D_demand_miss_rate 0.00262698
Core_0_L1D_load_access 9134428
Core_0_L1D_load_hit 9110432
Core_0_L1D_load_miss 23996
Core_0_L1D_load_MPKI 0.47992
Core_0_L1D_load_miss_rate 0.00262698
Core_0_L1D_rfo_access 0
Core_0_L1D_rfo_hit 0
Core_0_L1D_rfo_miss 0
Core_0_L1D_rfo_MPKI 0
Core_0_L1D_rfo_miss_rate 0
Core_0_L1D_prefetch_access 127496
Core_0_L1D_prefetch_hit 99589
Core_0_L1D_prefetch_miss 27907
Core_0_L1D_prefetch_MPKI 0.55814
Core_0_L1D_prefetch_miss_rate 0.218885
Core_0_L1D_writeback_access 8185317
Core_0_L1D_writeback_hit 8093313
Core_0_L1D_writeback_miss 92004
Core_0_L1D_writeback_MPKI 1.84008
Core_0_L1D_writeback_miss_rate 0.0112401
Core_0_L1D_prefetch_requested 133467
Core_0_L1D_prefetch_issued 127489
Core_0_L1D_prefetch_useful 12935
Core_0_L1D_prefetch_useless 13272
Core_0_L1D_prefetch_late 553
Core_0_L1D_prefetch_accuracy 0.10146
Core_0_L1D_prefetch_coverage 0.350248

Core_0_L2C_total_access 178810
Core_0_L2C_total_hit 167702
Core_0_L2C_total_miss 11108
Core_0_L2C_total_MPKI 0.22216
Core_0_L2C_total_miss_rate 0.0621218
Core_0_L2C_demand_access 59528
Core_0_L2C_demand_hit 56437
Core_0_L2C_demand_miss 3091
Core_0_L2C_demand_MPKI 0.06182
Core_0_L2C_demand_miss_rate 0.0519251
Core_0_L2C_load_access 20039
Core_0_L2C_load_hit 17481
Core_0_L2C_load_miss 2558
Core_0_L2C_load_MPKI 0.05116
Core_0_L2C_load_miss_rate 0.127651
Core_0_L2C_rfo_access 39489
Core_0_L2C_rfo_hit 38956
Core_0_L2C_rfo_miss 533
Core_0_L2C_rfo_MPKI 0.01066
Core_0_L2C_rfo_miss_rate 0.0134974
Core_0_L2C_prefetch_access 65716
Core_0_L2C_prefetch_hit 57712
Core_0_L2C_prefetch_miss 8004
Core_0_L2C_prefetch_MPKI 0.16008
Core_0_L2C_prefetch_miss_rate 0.121797
Core_0_L2C_writeback_access 53566
Core_0_L2C_writeback_hit 53553
Core_0_L2C_writeback_miss 13
Core_0_L2C_writeback_MPKI 0.00026
Core_0_L2C_writeback_miss_rate 0.000242691
Core_0_L2C_prefetch_requested 39791
Core_0_L2C_prefetch_issued 39501
Core_0_L2C_prefetch_useful 2842
Core_0_L2C_prefetch_useless 2534
Core_0_L2C_prefetch_late 15
Core_0_L2C_prefetch_accuracy 0.0719475
Core_0_L2C_prefetch_coverage 0.479016

Core_0_LLC_total_access 12563
Core_0_LLC_total_hit 8430
Core_0_LLC_total_miss 4133
Core_0_LLC_total_MPKI 0.08266
Core_0_LLC_total_miss_rate 0.328982
Core_0_LLC_demand_access 3076
Core_0_LLC_demand_hit 1735
Core_0_LLC_demand_miss 1341
Core_0_LLC_demand_MPKI 0.02682
Core_0_LLC_demand_miss_rate 0.435956
Core_0_LLC_load_access 2546
Core_0_LLC_load_hit 1272
Core_0_LLC_load_miss 1274
Core_0_LLC_load_MPKI 0.02548
Core_0_LLC_load_miss_rate 0.500393
Core_0_LLC_rfo_access 530
Core_0_LLC_rfo_hit 463
Core_0_LLC_rfo_miss 67
Core_0_LLC_rfo_MPKI 0.00134
Core_0_LLC_rfo_miss_rate 0.126415
Core_0_LLC_prefetch_access 7187
Core_0_LLC_prefetch_hit 4425
Core_0_LLC_prefetch_miss 2762
Core_0_LLC_prefetch_MPKI 0.05524
Core_0_LLC_prefetch_miss_rate 0.384305
Core_0_LLC_writeback_access 2300
Core_0_LLC_writeback_hit 2270
Core_0_LLC_writeback_miss 30
Core_0_LLC_writeback_MPKI 0.0006
Core_0_LLC_writeback_miss_rate 0.0130435
Core_0_LLC_prefetch_requested 0
Core_0_LLC_prefetch_issued 0
Core_0_LLC_prefetch_useful 0
Core_0_LLC_prefetch_useless 0
Core_0_LLC_prefetch_late 0
Core_0_LLC_prefetch_accuracy 0
Core_0_LLC_prefetch_coverage 0

[DRAM Statistics]
Channel_0_RQ_row_buffer_hit 40
Channel_0_RQ_row_buffer_miss 4068
Channel_0_WQ_row_buffer_hit 3
Channel_0_WQ_row_buffer_miss 9
Channel_0_WQ_full 0
Channel_0_dbus_congested 3156
DRAM_total_RQ_row_buffer_hit 40
DRAM_total_RQ_row_buffer_miss 4068
DRAM_total_WQ_row_buffer_hit 3
DRAM_total_WQ_row_buffer_miss 9
DRAM_total_WQ_full 0
DRAM_total_dbus_congested 3156
DRAM_avg_congested_cycle 3.14892

======STLB miss causes ========
Core_0_STLB_miss_cause_breakdown
Core_0_STLB_cause_Demand_Data_miss 202
Core_0_STLB_cause_Demand_Data_miss_rate 0.0336723
Core_0_STLB_cause_Demand_Instruction_miss 8
Core_0_STLB_cause_Demand_Instruction_miss_rate 0.00133356
Core_0_STLB_cause_L1D_Prefetch_miss 18
Core_0_STLB_cause_L1D_Prefetch_miss_rate 0.0030005
Core_0_STLB_cause_L1I_Prefetch_miss 0
Core_0_STLB_cause_L1I_Prefetch_miss_rate 0
Core_0_STLB_cause_Other_miss 0
Core_0_STLB_cause_Other_miss_rate 0
Core_0_STLB_Demand_miss 210
Core_0_STLB_Demand_miss_rate 0.0350058
Core_0_STLB_L1D_Prefetch_miss 18
Core_0_STLB_L1D_Prefetch_miss_rate 0.0030005
Core_0_STLB_Other_miss 0
Core_0_STLB_Other_miss_rate 0
