[VMEM] WARNING: physical memory size is smaller than virtual memory size.

*** ChampSim Multicore Out-of-Order Simulator ***
Warmup Instructions: 20000000
Simulation Instructions: 50000000
Number of CPUs: 1
Page size: 4096
Core 0: /data0/tzh/champsim_traces/SPEC06/458.sjeng-31B.champsimtrace.xz
 L1D Berti prefetcher
Off-chip DRAM Size: 4 GiB Channels: 1 Width: 64-bit Data Rate: 3205 MT/s
Warmup halting CPU 0 at instruction 20000000 cycle 4721155 for remainder of phase
Warmup finished CPU 0 instructions: 20000000 cycles: 4721155 cumulative IPC: 4.236 (Simulation time: 00 hr 00 min 51 sec)
Warmup complete CPU 0 instructions: 20000000 cycles: 4721155 cumulative IPC: 4.236 (Simulation time: 00 hr 00 min 51 sec)
Simulation finished CPU 0 instructions: 50000000 cycles: 39531529 cumulative IPC: 1.265 (Simulation time: 00 hr 04 min 27 sec)
Simulation complete CPU 0 instructions: 50000000 cycles: 39531529 cumulative IPC: 1.265 (Simulation time: 00 hr 04 min 27 sec)

ChampSim completed all CPUs

=== Simulation ===
CPU 0 runs /data0/tzh/champsim_traces/SPEC06/458.sjeng-31B.champsimtrace.xz

Region of Interest Statistics

CPU 0 cumulative IPC: 1.265 instructions: 50000000 cycles: 39531529
CPU 0 Branch Prediction Accuracy: 89.35% MPKI: 24.03 Average ROB Occupancy at Mispredict: 26.31
Branch type MPKI
BRANCH_DIRECT_JUMP: 0.1035
BRANCH_INDIRECT: 0.8337
BRANCH_CONDITIONAL: 22.8
BRANCH_DIRECT_CALL: 0.00012
BRANCH_INDIRECT_CALL: 0.2637
BRANCH_RETURN: 0.02448

cpu0->cpu0_STLB TOTAL        ACCESS:      81559 HIT:      66975 MISS:      14584 MSHR_MERGE:          0
cpu0->cpu0_STLB LOAD         ACCESS:      81559 HIT:      66975 MISS:      14584 MSHR_MERGE:          0
cpu0->cpu0_STLB RFO          ACCESS:          0 HIT:          0 MISS:          0 MSHR_MERGE:          0
cpu0->cpu0_STLB PREFETCH     ACCESS:          0 HIT:          0 MISS:          0 MSHR_MERGE:          0
cpu0->cpu0_STLB WRITE        ACCESS:          0 HIT:          0 MISS:          0 MSHR_MERGE:          0
cpu0->cpu0_STLB TRANSLATION  ACCESS:          0 HIT:          0 MISS:          0 MSHR_MERGE:          0
cpu0->cpu0_STLB PREFETCH REQUESTED:          0 ISSUED:          0 USEFUL:          0 USELESS:          0 LATE:          0
cpu0->cpu0_STLB AVERAGE MISS LATENCY: 184.7 cycles
cpu0->cpu0_L2C TOTAL        ACCESS:     144258 HIT:      97306 MISS:      46952 MSHR_MERGE:        345
cpu0->cpu0_L2C LOAD         ACCESS:      28975 HIT:      12395 MISS:      16580 MSHR_MERGE:         14
cpu0->cpu0_L2C RFO          ACCESS:      16554 HIT:      15401 MISS:       1153 MSHR_MERGE:          0
cpu0->cpu0_L2C PREFETCH     ACCESS:      50412 HIT:      28921 MISS:      21491 MSHR_MERGE:        331
cpu0->cpu0_L2C WRITE        ACCESS:      33009 HIT:      32899 MISS:        110 MSHR_MERGE:          0
cpu0->cpu0_L2C TRANSLATION  ACCESS:      15308 HIT:       7690 MISS:       7618 MSHR_MERGE:          0
cpu0->cpu0_L2C PREFETCH REQUESTED:      36675 ISSUED:      36675 USEFUL:       2114 USELESS:      17679 LATE:         14
cpu0->cpu0_L2C AVERAGE MISS LATENCY: 124.8 cycles
cpu0->cpu0_L1I TOTAL        ACCESS:      48704 HIT:      48693 MISS:         11 MSHR_MERGE:          0
cpu0->cpu0_L1I LOAD         ACCESS:      48704 HIT:      48693 MISS:         11 MSHR_MERGE:          0
cpu0->cpu0_L1I RFO          ACCESS:          0 HIT:          0 MISS:          0 MSHR_MERGE:          0
cpu0->cpu0_L1I PREFETCH     ACCESS:          0 HIT:          0 MISS:          0 MSHR_MERGE:          0
cpu0->cpu0_L1I WRITE        ACCESS:          0 HIT:          0 MISS:          0 MSHR_MERGE:          0
cpu0->cpu0_L1I TRANSLATION  ACCESS:          0 HIT:          0 MISS:          0 MSHR_MERGE:          0
cpu0->cpu0_L1I PREFETCH REQUESTED:          0 ISSUED:          0 USEFUL:          0 USELESS:          0 LATE:          0
cpu0->cpu0_L1I AVERAGE MISS LATENCY: 105.5 cycles
cpu0->cpu0_L1D TOTAL        ACCESS:   14181416 HIT:   14068170 MISS:     113246 MSHR_MERGE:      38678
cpu0->cpu0_L1D LOAD         ACCESS:    9521682 HIT:    9491101 MISS:      30581 MSHR_MERGE:       1615
cpu0->cpu0_L1D RFO          ACCESS:          0 HIT:          0 MISS:          0 MSHR_MERGE:          0
cpu0->cpu0_L1D PREFETCH     ACCESS:     156252 HIT:     142360 MISS:      13892 MSHR_MERGE:        154
cpu0->cpu0_L1D WRITE        ACCESS:    4469173 HIT:    4415708 MISS:      53465 MSHR_MERGE:      36909
cpu0->cpu0_L1D TRANSLATION  ACCESS:      34309 HIT:      19001 MISS:      15308 MSHR_MERGE:          0
cpu0->cpu0_L1D PREFETCH REQUESTED:     159196 ISSUED:     156252 USEFUL:       3557 USELESS:      10133 LATE:        173
cpu0->cpu0_L1D AVERAGE MISS LATENCY: 60.46 cycles
cpu0->cpu0_ITLB TOTAL        ACCESS:      44306 HIT:      44306 MISS:          0 MSHR_MERGE:          0
cpu0->cpu0_ITLB LOAD         ACCESS:      44306 HIT:      44306 MISS:          0 MSHR_MERGE:          0
cpu0->cpu0_ITLB RFO          ACCESS:          0 HIT:          0 MISS:          0 MSHR_MERGE:          0
cpu0->cpu0_ITLB PREFETCH     ACCESS:          0 HIT:          0 MISS:          0 MSHR_MERGE:          0
cpu0->cpu0_ITLB WRITE        ACCESS:          0 HIT:          0 MISS:          0 MSHR_MERGE:          0
cpu0->cpu0_ITLB TRANSLATION  ACCESS:          0 HIT:          0 MISS:          0 MSHR_MERGE:          0
cpu0->cpu0_ITLB PREFETCH REQUESTED:          0 ISSUED:          0 USEFUL:          0 USELESS:          0 LATE:          0
cpu0->cpu0_ITLB AVERAGE MISS LATENCY: - cycles
cpu0->cpu0_DTLB TOTAL        ACCESS:   13616014 HIT:   13509553 MISS:     106461 MSHR_MERGE:      24902
cpu0->cpu0_DTLB LOAD         ACCESS:   13616014 HIT:   13509553 MISS:     106461 MSHR_MERGE:      24902
cpu0->cpu0_DTLB RFO          ACCESS:          0 HIT:          0 MISS:          0 MSHR_MERGE:          0
cpu0->cpu0_DTLB PREFETCH     ACCESS:          0 HIT:          0 MISS:          0 MSHR_MERGE:          0
cpu0->cpu0_DTLB WRITE        ACCESS:          0 HIT:          0 MISS:          0 MSHR_MERGE:          0
cpu0->cpu0_DTLB TRANSLATION  ACCESS:          0 HIT:          0 MISS:          0 MSHR_MERGE:          0
cpu0->cpu0_DTLB PREFETCH REQUESTED:          0 ISSUED:          0 USEFUL:          0 USELESS:          0 LATE:          0
cpu0->cpu0_DTLB AVERAGE MISS LATENCY: 38.21 cycles
cpu0->LLC TOTAL        ACCESS:      62140 HIT:      21169 MISS:      40971 MSHR_MERGE:          0
cpu0->LLC LOAD         ACCESS:      16566 HIT:       1084 MISS:      15482 MSHR_MERGE:          0
cpu0->LLC RFO          ACCESS:       1153 HIT:        719 MISS:        434 MSHR_MERGE:          0
cpu0->LLC PREFETCH     ACCESS:      21160 HIT:       4282 MISS:      16878 MSHR_MERGE:          0
cpu0->LLC WRITE        ACCESS:      15643 HIT:       9715 MISS:       5928 MSHR_MERGE:          0
cpu0->LLC TRANSLATION  ACCESS:       7618 HIT:       5369 MISS:       2249 MSHR_MERGE:          0
cpu0->LLC PREFETCH REQUESTED:          0 ISSUED:          0 USEFUL:          0 USELESS:          0 LATE:          0
cpu0->LLC AVERAGE MISS LATENCY: 117.5 cycles

DRAM Statistics

Channel 0 RQ ROW_BUFFER_HIT:         32
  ROW_BUFFER_MISS:      35011
  AVG DBUS CONGESTED CYCLE: 6.323
Channel 0 WQ ROW_BUFFER_HIT:        233
  ROW_BUFFER_MISS:       2459
  FULL:          0
Channel 0 REFRESHES ISSUED:       3294

[ROI Statistics]
[System Configuration]
num_cpus 1
cpu_freq 4000
fetch_width 6
decode_width 6
dispatch_width 6
execute_width 6
lq_width 2
sq_width 2
retire_width 6
scheduler_size 160
branch_mispredict_penalty 1
rob_size 352
lq_size 240
sq_size 112
ifetch_buffer_size 64
decode_buffer_size 32
dispatch_buffer_size 32
register_file_size 288
decode_latency 1
dispatch_latency 1
schedule_latency 0
execute_latency 0
page_size 4096
block_size 64
core_0_itlb_set 16
core_0_itlb_way 4
core_0_itlb_rq_size 16
core_0_itlb_wq_size 16
core_0_itlb_pq_size 0
core_0_itlb_mshr_size 8
core_0_itlb_hit_latency 1
core_0_itlb_fill_latency 1
core_0_itlb_max_tag_check 2
core_0_itlb_max_fill 2
core_0_dtlb_set 16
core_0_dtlb_way 4
core_0_dtlb_rq_size 16
core_0_dtlb_wq_size 16
core_0_dtlb_pq_size 0
core_0_dtlb_mshr_size 8
core_0_dtlb_hit_latency 1
core_0_dtlb_fill_latency 1
core_0_dtlb_max_tag_check 2
core_0_dtlb_max_fill 2
core_0_stlb_set 128
core_0_stlb_way 12
core_0_stlb_rq_size 32
core_0_stlb_wq_size 32
core_0_stlb_pq_size 0
core_0_stlb_mshr_size 16
core_0_stlb_hit_latency 4
core_0_stlb_fill_latency 4
core_0_stlb_max_tag_check 1
core_0_stlb_max_fill 1
core_0_l1i_set 64
core_0_l1i_way 8
core_0_l1i_rq_size 64
core_0_l1i_wq_size 64
core_0_l1i_pq_size 32
core_0_l1i_mshr_size 8
core_0_l1i_hit_latency 2
core_0_l1i_fill_latency 2
core_0_l1i_max_tag_check 2
core_0_l1i_max_fill 2
core_0_l1d_set 64
core_0_l1d_way 12
core_0_l1d_rq_size 64
core_0_l1d_wq_size 64
core_0_l1d_pq_size 8
core_0_l1d_mshr_size 16
core_0_l1d_hit_latency 2
core_0_l1d_fill_latency 3
core_0_l1d_max_tag_check 2
core_0_l1d_max_fill 2
core_0_l2c_set 1024
core_0_l2c_way 8
core_0_l2c_rq_size 32
core_0_l2c_wq_size 32
core_0_l2c_pq_size 16
core_0_l2c_mshr_size 32
core_0_l2c_hit_latency 5
core_0_l2c_fill_latency 5
core_0_l2c_max_tag_check 1
core_0_l2c_max_fill 1
llc_set 2048
llc_way 16
llc_rq_size 32
llc_wq_size 32
llc_pq_size 32
llc_mshr_size 64
llc_hit_latency 10
llc_fill_latency 10
llc_max_tag_check 1
llc_max_fill 1
dram_channels 1
dram_ranks 1
dram_bankgroups 8
dram_banks 4
dram_rows 16384
dram_columns 1024
dram_channel_width 8
dram_rq_size 64
dram_wq_size 64
dram_size 4294967296
core_0_itlb_prefetcher no
core_0_dtlb_prefetcher no
core_0_stlb_prefetcher no
core_0_l1i_prefetcher next_line
core_0_l1d_prefetcher berti
core_0_l2c_prefetcher pythia
llc_prefetcher no
llc_replacement drrip

Core_0_instructions 50000000
Core_0_cycles 39531529
Core_0_IPC 1.26481
Core_0_branch_prediction_accuracy 89.3542
Core_0_branch_MPKI 24.0268
Core_0_average_ROB_occupancy_at_mispredict 26.31

Core_0_ITLB_total_access 44306
Core_0_ITLB_total_hit 44306
Core_0_ITLB_total_miss 0
Core_0_ITLB_total_MPKI 0
Core_0_ITLB_total_miss_rate 0
Core_0_ITLB_demand_access 44306
Core_0_ITLB_demand_hit 44306
Core_0_ITLB_demand_miss 0
Core_0_ITLB_demand_MPKI 0
Core_0_ITLB_demand_miss_rate 0
Core_0_ITLB_load_access 44306
Core_0_ITLB_load_hit 44306
Core_0_ITLB_load_miss 0
Core_0_ITLB_load_MPKI 0
Core_0_ITLB_load_miss_rate 0
Core_0_ITLB_rfo_access 0
Core_0_ITLB_rfo_hit 0
Core_0_ITLB_rfo_miss 0
Core_0_ITLB_rfo_MPKI 0
Core_0_ITLB_rfo_miss_rate 0
Core_0_ITLB_prefetch_access 0
Core_0_ITLB_prefetch_hit 0
Core_0_ITLB_prefetch_miss 0
Core_0_ITLB_prefetch_MPKI 0
Core_0_ITLB_prefetch_miss_rate 0
Core_0_ITLB_writeback_access 0
Core_0_ITLB_writeback_hit 0
Core_0_ITLB_writeback_miss 0
Core_0_ITLB_writeback_MPKI 0
Core_0_ITLB_writeback_miss_rate 0
Core_0_ITLB_prefetch_requested 0
Core_0_ITLB_prefetch_issued 0
Core_0_ITLB_prefetch_useful 0
Core_0_ITLB_prefetch_useless 0
Core_0_ITLB_prefetch_late 0
Core_0_ITLB_prefetch_accuracy 0
Core_0_ITLB_prefetch_coverage 0

Core_0_DTLB_total_access 13616014
Core_0_DTLB_total_hit 13509553
Core_0_DTLB_total_miss 106461
Core_0_DTLB_total_MPKI 2.12922
Core_0_DTLB_total_miss_rate 0.00781881
Core_0_DTLB_demand_access 13616014
Core_0_DTLB_demand_hit 13509553
Core_0_DTLB_demand_miss 106461
Core_0_DTLB_demand_MPKI 2.12922
Core_0_DTLB_demand_miss_rate 0.00781881
Core_0_DTLB_load_access 13616014
Core_0_DTLB_load_hit 13509553
Core_0_DTLB_load_miss 106461
Core_0_DTLB_load_MPKI 2.12922
Core_0_DTLB_load_miss_rate 0.00781881
Core_0_DTLB_rfo_access 0
Core_0_DTLB_rfo_hit 0
Core_0_DTLB_rfo_miss 0
Core_0_DTLB_rfo_MPKI 0
Core_0_DTLB_rfo_miss_rate 0
Core_0_DTLB_prefetch_access 0
Core_0_DTLB_prefetch_hit 0
Core_0_DTLB_prefetch_miss 0
Core_0_DTLB_prefetch_MPKI 0
Core_0_DTLB_prefetch_miss_rate 0
Core_0_DTLB_writeback_access 0
Core_0_DTLB_writeback_hit 0
Core_0_DTLB_writeback_miss 0
Core_0_DTLB_writeback_MPKI 0
Core_0_DTLB_writeback_miss_rate 0
Core_0_DTLB_prefetch_requested 0
Core_0_DTLB_prefetch_issued 0
Core_0_DTLB_prefetch_useful 0
Core_0_DTLB_prefetch_useless 0
Core_0_DTLB_prefetch_late 0
Core_0_DTLB_prefetch_accuracy 0
Core_0_DTLB_prefetch_coverage 0

Core_0_STLB_total_access 81559
Core_0_STLB_total_hit 66975
Core_0_STLB_total_miss 14584
Core_0_STLB_total_MPKI 0.29168
Core_0_STLB_total_miss_rate 0.178815
Core_0_STLB_demand_access 81559
Core_0_STLB_demand_hit 66975
Core_0_STLB_demand_miss 14584
Core_0_STLB_demand_MPKI 0.29168
Core_0_STLB_demand_miss_rate 0.178815
Core_0_STLB_load_access 81559
Core_0_STLB_load_hit 66975
Core_0_STLB_load_miss 14584
Core_0_STLB_load_MPKI 0.29168
Core_0_STLB_load_miss_rate 0.178815
Core_0_STLB_rfo_access 0
Core_0_STLB_rfo_hit 0
Core_0_STLB_rfo_miss 0
Core_0_STLB_rfo_MPKI 0
Core_0_STLB_rfo_miss_rate 0
Core_0_STLB_prefetch_access 0
Core_0_STLB_prefetch_hit 0
Core_0_STLB_prefetch_miss 0
Core_0_STLB_prefetch_MPKI 0
Core_0_STLB_prefetch_miss_rate 0
Core_0_STLB_writeback_access 0
Core_0_STLB_writeback_hit 0
Core_0_STLB_writeback_miss 0
Core_0_STLB_writeback_MPKI 0
Core_0_STLB_writeback_miss_rate 0
Core_0_STLB_prefetch_requested 0
Core_0_STLB_prefetch_issued 0
Core_0_STLB_prefetch_useful 0
Core_0_STLB_prefetch_useless 0
Core_0_STLB_prefetch_late 0
Core_0_STLB_prefetch_accuracy 0
Core_0_STLB_prefetch_coverage 0

Core_0_L1I_total_access 48704
Core_0_L1I_total_hit 48693
Core_0_L1I_total_miss 11
Core_0_L1I_total_MPKI 0.00022
Core_0_L1I_total_miss_rate 0.000225854
Core_0_L1I_demand_access 48704
Core_0_L1I_demand_hit 48693
Core_0_L1I_demand_miss 11
Core_0_L1I_demand_MPKI 0.00022
Core_0_L1I_demand_miss_rate 0.000225854
Core_0_L1I_load_access 48704
Core_0_L1I_load_hit 48693
Core_0_L1I_load_miss 11
Core_0_L1I_load_MPKI 0.00022
Core_0_L1I_load_miss_rate 0.000225854
Core_0_L1I_rfo_access 0
Core_0_L1I_rfo_hit 0
Core_0_L1I_rfo_miss 0
Core_0_L1I_rfo_MPKI 0
Core_0_L1I_rfo_miss_rate 0
Core_0_L1I_prefetch_access 0
Core_0_L1I_prefetch_hit 0
Core_0_L1I_prefetch_miss 0
Core_0_L1I_prefetch_MPKI 0
Core_0_L1I_prefetch_miss_rate 0
Core_0_L1I_writeback_access 0
Core_0_L1I_writeback_hit 0
Core_0_L1I_writeback_miss 0
Core_0_L1I_writeback_MPKI 0
Core_0_L1I_writeback_miss_rate 0
Core_0_L1I_prefetch_requested 0
Core_0_L1I_prefetch_issued 0
Core_0_L1I_prefetch_useful 0
Core_0_L1I_prefetch_useless 0
Core_0_L1I_prefetch_late 0
Core_0_L1I_prefetch_accuracy 0
Core_0_L1I_prefetch_coverage 0

Core_0_L1D_total_access 14147107
Core_0_L1D_total_hit 14049169
Core_0_L1D_total_miss 97938
Core_0_L1D_total_MPKI 1.95876
Core_0_L1D_total_miss_rate 0.00692283
Core_0_L1D_demand_access 9521682
Core_0_L1D_demand_hit 9491101
Core_0_L1D_demand_miss 30581
Core_0_L1D_demand_MPKI 0.61162
Core_0_L1D_demand_miss_rate 0.00321172
Core_0_L1D_load_access 9521682
Core_0_L1D_load_hit 9491101
Core_0_L1D_load_miss 30581
Core_0_L1D_load_MPKI 0.61162
Core_0_L1D_load_miss_rate 0.00321172
Core_0_L1D_rfo_access 0
Core_0_L1D_rfo_hit 0
Core_0_L1D_rfo_miss 0
Core_0_L1D_rfo_MPKI 0
Core_0_L1D_rfo_miss_rate 0
Core_0_L1D_prefetch_access 156252
Core_0_L1D_prefetch_hit 142360
Core_0_L1D_prefetch_miss 13892
Core_0_L1D_prefetch_MPKI 0.27784
Core_0_L1D_prefetch_miss_rate 0.0889077
Core_0_L1D_writeback_access 4469173
Core_0_L1D_writeback_hit 4415708
Core_0_L1D_writeback_miss 53465
Core_0_L1D_writeback_MPKI 1.0693
Core_0_L1D_writeback_miss_rate 0.0119631
Core_0_L1D_prefetch_requested 159196
Core_0_L1D_prefetch_issued 156252
Core_0_L1D_prefetch_useful 3557
Core_0_L1D_prefetch_useless 10133
Core_0_L1D_prefetch_late 173
Core_0_L1D_prefetch_accuracy 0.0227645
Core_0_L1D_prefetch_coverage 0.104195

Core_0_L2C_total_access 128950
Core_0_L2C_total_hit 89616
Core_0_L2C_total_miss 39334
Core_0_L2C_total_MPKI 0.78668
Core_0_L2C_total_miss_rate 0.305033
Core_0_L2C_demand_access 45529
Core_0_L2C_demand_hit 27796
Core_0_L2C_demand_miss 17733
Core_0_L2C_demand_MPKI 0.35466
Core_0_L2C_demand_miss_rate 0.389488
Core_0_L2C_load_access 28975
Core_0_L2C_load_hit 12395
Core_0_L2C_load_miss 16580
Core_0_L2C_load_MPKI 0.3316
Core_0_L2C_load_miss_rate 0.572217
Core_0_L2C_rfo_access 16554
Core_0_L2C_rfo_hit 15401
Core_0_L2C_rfo_miss 1153
Core_0_L2C_rfo_MPKI 0.02306
Core_0_L2C_rfo_miss_rate 0.0696508
Core_0_L2C_prefetch_access 50412
Core_0_L2C_prefetch_hit 28921
Core_0_L2C_prefetch_miss 21491
Core_0_L2C_prefetch_MPKI 0.42982
Core_0_L2C_prefetch_miss_rate 0.426307
Core_0_L2C_writeback_access 33009
Core_0_L2C_writeback_hit 32899
Core_0_L2C_writeback_miss 110
Core_0_L2C_writeback_MPKI 0.0022
Core_0_L2C_writeback_miss_rate 0.00333242
Core_0_L2C_prefetch_requested 36675
Core_0_L2C_prefetch_issued 36675
Core_0_L2C_prefetch_useful 2114
Core_0_L2C_prefetch_useless 17679
Core_0_L2C_prefetch_late 14
Core_0_L2C_prefetch_accuracy 0.0576414
Core_0_L2C_prefetch_coverage 0.106515

Core_0_LLC_total_access 54522
Core_0_LLC_total_hit 15800
Core_0_LLC_total_miss 38722
Core_0_LLC_total_MPKI 0.77444
Core_0_LLC_total_miss_rate 0.710209
Core_0_LLC_demand_access 17719
Core_0_LLC_demand_hit 1803
Core_0_LLC_demand_miss 15916
Core_0_LLC_demand_MPKI 0.31832
Core_0_LLC_demand_miss_rate 0.898245
Core_0_LLC_load_access 16566
Core_0_LLC_load_hit 1084
Core_0_LLC_load_miss 15482
Core_0_LLC_load_MPKI 0.30964
Core_0_LLC_load_miss_rate 0.934565
Core_0_LLC_rfo_access 1153
Core_0_LLC_rfo_hit 719
Core_0_LLC_rfo_miss 434
Core_0_LLC_rfo_MPKI 0.00868
Core_0_LLC_rfo_miss_rate 0.376409
Core_0_LLC_prefetch_access 21160
Core_0_LLC_prefetch_hit 4282
Core_0_LLC_prefetch_miss 16878
Core_0_LLC_prefetch_MPKI 0.33756
Core_0_LLC_prefetch_miss_rate 0.797637
Core_0_LLC_writeback_access 15643
Core_0_LLC_writeback_hit 9715
Core_0_LLC_writeback_miss 5928
Core_0_LLC_writeback_MPKI 0.11856
Core_0_LLC_writeback_miss_rate 0.378955
Core_0_LLC_prefetch_requested 0
Core_0_LLC_prefetch_issued 0
Core_0_LLC_prefetch_useful 0
Core_0_LLC_prefetch_useless 0
Core_0_LLC_prefetch_late 0
Core_0_LLC_prefetch_accuracy 0
Core_0_LLC_prefetch_coverage 0

[DRAM Statistics]
Channel_0_RQ_row_buffer_hit 32
Channel_0_RQ_row_buffer_miss 35011
Channel_0_WQ_row_buffer_hit 233
Channel_0_WQ_row_buffer_miss 2459
Channel_0_WQ_full 0
Channel_0_dbus_congested 45943
DRAM_total_RQ_row_buffer_hit 32
DRAM_total_RQ_row_buffer_miss 35011
DRAM_total_WQ_row_buffer_hit 233
DRAM_total_WQ_row_buffer_miss 2459
DRAM_total_WQ_full 0
DRAM_total_dbus_congested 45943
DRAM_avg_congested_cycle 6.32312

======STLB miss causes ========
Core_0_STLB_miss_cause_breakdown
Core_0_STLB_cause_Demand_Data_miss 14558
Core_0_STLB_cause_Demand_Data_miss_rate 0.178497
Core_0_STLB_cause_Demand_Instruction_miss 0
Core_0_STLB_cause_Demand_Instruction_miss_rate 0
Core_0_STLB_cause_L1D_Prefetch_miss 26
Core_0_STLB_cause_L1D_Prefetch_miss_rate 0.000318788
Core_0_STLB_cause_L1I_Prefetch_miss 0
Core_0_STLB_cause_L1I_Prefetch_miss_rate 0
Core_0_STLB_cause_Other_miss 0
Core_0_STLB_cause_Other_miss_rate 0
Core_0_STLB_Demand_miss 14558
Core_0_STLB_Demand_miss_rate 0.178497
Core_0_STLB_L1D_Prefetch_miss 26
Core_0_STLB_L1D_Prefetch_miss_rate 0.000318788
Core_0_STLB_Other_miss 0
Core_0_STLB_Other_miss_rate 0
