[VMEM] WARNING: physical memory size is smaller than virtual memory size.

*** ChampSim Multicore Out-of-Order Simulator ***
Warmup Instructions: 20000000
Simulation Instructions: 50000000
Number of CPUs: 1
Page size: 4096
Core 0: /data0/tzh/champsim_traces/SPEC17/605.mcf_s-1152B.champsimtrace.xz
 L1D Berti prefetcher
Off-chip DRAM Size: 4 GiB Channels: 1 Width: 64-bit Data Rate: 3205 MT/s
Warmup halting CPU 0 at instruction 20000003 cycle 5755688 for remainder of phase
Warmup finished CPU 0 instructions: 20000003 cycles: 5755688 cumulative IPC: 3.475 (Simulation time: 00 hr 01 min 22 sec)
Warmup complete CPU 0 instructions: 20000003 cycles: 5755688 cumulative IPC: 3.475 (Simulation time: 00 hr 01 min 22 sec)
Simulation finished CPU 0 instructions: 50000000 cycles: 133549488 cumulative IPC: 0.3744 (Simulation time: 00 hr 12 min 17 sec)
Simulation complete CPU 0 instructions: 50000000 cycles: 133549488 cumulative IPC: 0.3744 (Simulation time: 00 hr 12 min 17 sec)

ChampSim completed all CPUs

=== Simulation ===
CPU 0 runs /data0/tzh/champsim_traces/SPEC17/605.mcf_s-1152B.champsimtrace.xz

Region of Interest Statistics

CPU 0 cumulative IPC: 0.3744 instructions: 50000000 cycles: 133549488
CPU 0 Branch Prediction Accuracy: 89.3% MPKI: 26.69 Average ROB Occupancy at Mispredict: 15.97
Branch type MPKI
BRANCH_DIRECT_JUMP: 0.2057
BRANCH_INDIRECT: 0
BRANCH_CONDITIONAL: 26.48
BRANCH_DIRECT_CALL: 0
BRANCH_INDIRECT_CALL: 0.0036
BRANCH_RETURN: 2e-05

cpu0->cpu0_STLB TOTAL        ACCESS:    1354734 HIT:    1337272 MISS:      17462 MSHR_MERGE:          0
cpu0->cpu0_STLB LOAD         ACCESS:    1354734 HIT:    1337272 MISS:      17462 MSHR_MERGE:          0
cpu0->cpu0_STLB RFO          ACCESS:          0 HIT:          0 MISS:          0 MSHR_MERGE:          0
cpu0->cpu0_STLB PREFETCH     ACCESS:          0 HIT:          0 MISS:          0 MSHR_MERGE:          0
cpu0->cpu0_STLB WRITE        ACCESS:          0 HIT:          0 MISS:          0 MSHR_MERGE:          0
cpu0->cpu0_STLB TRANSLATION  ACCESS:          0 HIT:          0 MISS:          0 MSHR_MERGE:          0
cpu0->cpu0_STLB PREFETCH REQUESTED:          0 ISSUED:          0 USEFUL:          0 USELESS:          0 LATE:          0
cpu0->cpu0_STLB AVERAGE MISS LATENCY: 194.5 cycles
cpu0->cpu0_L2C TOTAL        ACCESS:    9166392 HIT:    4648710 MISS:    4517682 MSHR_MERGE:     542420
cpu0->cpu0_L2C LOAD         ACCESS:    1763695 HIT:     500248 MISS:    1263447 MSHR_MERGE:       2193
cpu0->cpu0_L2C RFO          ACCESS:     179315 HIT:      75205 MISS:     104110 MSHR_MERGE:         12
cpu0->cpu0_L2C PREFETCH     ACCESS:    6959252 HIT:    3816614 MISS:    3142638 MSHR_MERGE:     540215
cpu0->cpu0_L2C WRITE        ACCESS:     256464 HIT:     256023 MISS:        441 MSHR_MERGE:          0
cpu0->cpu0_L2C TRANSLATION  ACCESS:       7666 HIT:        620 MISS:       7046 MSHR_MERGE:          0
cpu0->cpu0_L2C PREFETCH REQUESTED:    6011587 ISSUED:    5810371 USEFUL:     776932 USELESS:    1484179 LATE:       2205
cpu0->cpu0_L2C AVERAGE MISS LATENCY: 61.44 cycles
cpu0->cpu0_L1I TOTAL        ACCESS:      91569 HIT:      91569 MISS:          0 MSHR_MERGE:          0
cpu0->cpu0_L1I LOAD         ACCESS:      91569 HIT:      91569 MISS:          0 MSHR_MERGE:          0
cpu0->cpu0_L1I RFO          ACCESS:          0 HIT:          0 MISS:          0 MSHR_MERGE:          0
cpu0->cpu0_L1I PREFETCH     ACCESS:          0 HIT:          0 MISS:          0 MSHR_MERGE:          0
cpu0->cpu0_L1I WRITE        ACCESS:          0 HIT:          0 MISS:          0 MSHR_MERGE:          0
cpu0->cpu0_L1I TRANSLATION  ACCESS:          0 HIT:          0 MISS:          0 MSHR_MERGE:          0
cpu0->cpu0_L1I PREFETCH REQUESTED:          0 ISSUED:          0 USEFUL:          0 USELESS:          0 LATE:          0
cpu0->cpu0_L1I AVERAGE MISS LATENCY: - cycles
cpu0->cpu0_L1D TOTAL        ACCESS:   20600148 HIT:   17030316 MISS:    3569832 MSHR_MERGE:     470264
cpu0->cpu0_L1D LOAD         ACCESS:   13853322 HIT:   11950633 MISS:    1902689 MSHR_MERGE:     138989
cpu0->cpu0_L1D RFO          ACCESS:          0 HIT:          0 MISS:          0 MSHR_MERGE:          0
cpu0->cpu0_L1D PREFETCH     ACCESS:    1551261 HIT:     383175 MISS:    1168086 MSHR_MERGE:      19199
cpu0->cpu0_L1D WRITE        ACCESS:    5160506 HIT:    4669116 MISS:     491390 MSHR_MERGE:     312075
cpu0->cpu0_L1D TRANSLATION  ACCESS:      35059 HIT:      27392 MISS:       7667 MSHR_MERGE:          1
cpu0->cpu0_L1D PREFETCH REQUESTED:    1555472 ISSUED:    1551261 USEFUL:     733789 USELESS:     415000 LATE:      35438
cpu0->cpu0_L1D AVERAGE MISS LATENCY: 52.74 cycles
cpu0->cpu0_ITLB TOTAL        ACCESS:      87330 HIT:      87330 MISS:          0 MSHR_MERGE:          0
cpu0->cpu0_ITLB LOAD         ACCESS:      87330 HIT:      87330 MISS:          0 MSHR_MERGE:          0
cpu0->cpu0_ITLB RFO          ACCESS:          0 HIT:          0 MISS:          0 MSHR_MERGE:          0
cpu0->cpu0_ITLB PREFETCH     ACCESS:          0 HIT:          0 MISS:          0 MSHR_MERGE:          0
cpu0->cpu0_ITLB WRITE        ACCESS:          0 HIT:          0 MISS:          0 MSHR_MERGE:          0
cpu0->cpu0_ITLB TRANSLATION  ACCESS:          0 HIT:          0 MISS:          0 MSHR_MERGE:          0
cpu0->cpu0_ITLB PREFETCH REQUESTED:          0 ISSUED:          0 USEFUL:          0 USELESS:          0 LATE:          0
cpu0->cpu0_ITLB AVERAGE MISS LATENCY: - cycles
cpu0->cpu0_DTLB TOTAL        ACCESS:   19525693 HIT:   17823049 MISS:    1702644 MSHR_MERGE:     347910
cpu0->cpu0_DTLB LOAD         ACCESS:   19525693 HIT:   17823049 MISS:    1702644 MSHR_MERGE:     347910
cpu0->cpu0_DTLB RFO          ACCESS:          0 HIT:          0 MISS:          0 MSHR_MERGE:          0
cpu0->cpu0_DTLB PREFETCH     ACCESS:          0 HIT:          0 MISS:          0 MSHR_MERGE:          0
cpu0->cpu0_DTLB WRITE        ACCESS:          0 HIT:          0 MISS:          0 MSHR_MERGE:          0
cpu0->cpu0_DTLB TRANSLATION  ACCESS:          0 HIT:          0 MISS:          0 MSHR_MERGE:          0
cpu0->cpu0_DTLB PREFETCH REQUESTED:          0 ISSUED:          0 USEFUL:          0 USELESS:          0 LATE:          0
cpu0->cpu0_DTLB AVERAGE MISS LATENCY: 7.52 cycles
cpu0->LLC TOTAL        ACCESS:    4164464 HIT:    2645040 MISS:    1519424 MSHR_MERGE:          0
cpu0->LLC LOAD         ACCESS:    1261254 HIT:     959174 MISS:     302080 MSHR_MERGE:          0
cpu0->LLC RFO          ACCESS:     104098 HIT:     101423 MISS:       2675 MSHR_MERGE:          0
cpu0->LLC PREFETCH     ACCESS:    2602423 HIT:    1392267 MISS:    1210156 MSHR_MERGE:          0
cpu0->LLC WRITE        ACCESS:     189643 HIT:     188795 MISS:        848 MSHR_MERGE:          0
cpu0->LLC TRANSLATION  ACCESS:       7046 HIT:       3381 MISS:       3665 MSHR_MERGE:          0
cpu0->LLC PREFETCH REQUESTED:          0 ISSUED:          0 USEFUL:          0 USELESS:          0 LATE:          0
cpu0->LLC AVERAGE MISS LATENCY: 204.8 cycles

DRAM Statistics

Channel 0 RQ ROW_BUFFER_HIT:     144515
  ROW_BUFFER_MISS:    1373917
  AVG DBUS CONGESTED CYCLE: 8.267
Channel 0 WQ ROW_BUFFER_HIT:       4545
  ROW_BUFFER_MISS:      10314
  FULL:          0
Channel 0 REFRESHES ISSUED:      11129

[ROI Statistics]
[System Configuration]
num_cpus 1
cpu_freq 4000
fetch_width 6
decode_width 6
dispatch_width 6
execute_width 6
lq_width 2
sq_width 2
retire_width 6
scheduler_size 160
branch_mispredict_penalty 1
rob_size 352
lq_size 240
sq_size 112
ifetch_buffer_size 64
decode_buffer_size 32
dispatch_buffer_size 32
register_file_size 288
decode_latency 1
dispatch_latency 1
schedule_latency 0
execute_latency 0
page_size 4096
block_size 64
core_0_itlb_set 16
core_0_itlb_way 4
core_0_itlb_rq_size 16
core_0_itlb_wq_size 16
core_0_itlb_pq_size 0
core_0_itlb_mshr_size 8
core_0_itlb_hit_latency 1
core_0_itlb_fill_latency 1
core_0_itlb_max_tag_check 2
core_0_itlb_max_fill 2
core_0_dtlb_set 16
core_0_dtlb_way 4
core_0_dtlb_rq_size 16
core_0_dtlb_wq_size 16
core_0_dtlb_pq_size 0
core_0_dtlb_mshr_size 8
core_0_dtlb_hit_latency 1
core_0_dtlb_fill_latency 1
core_0_dtlb_max_tag_check 2
core_0_dtlb_max_fill 2
core_0_stlb_set 128
core_0_stlb_way 12
core_0_stlb_rq_size 32
core_0_stlb_wq_size 32
core_0_stlb_pq_size 0
core_0_stlb_mshr_size 16
core_0_stlb_hit_latency 4
core_0_stlb_fill_latency 4
core_0_stlb_max_tag_check 1
core_0_stlb_max_fill 1
core_0_l1i_set 64
core_0_l1i_way 8
core_0_l1i_rq_size 64
core_0_l1i_wq_size 64
core_0_l1i_pq_size 32
core_0_l1i_mshr_size 8
core_0_l1i_hit_latency 2
core_0_l1i_fill_latency 2
core_0_l1i_max_tag_check 2
core_0_l1i_max_fill 2
core_0_l1d_set 64
core_0_l1d_way 12
core_0_l1d_rq_size 64
core_0_l1d_wq_size 64
core_0_l1d_pq_size 8
core_0_l1d_mshr_size 16
core_0_l1d_hit_latency 2
core_0_l1d_fill_latency 3
core_0_l1d_max_tag_check 2
core_0_l1d_max_fill 2
core_0_l2c_set 1024
core_0_l2c_way 8
core_0_l2c_rq_size 32
core_0_l2c_wq_size 32
core_0_l2c_pq_size 16
core_0_l2c_mshr_size 32
core_0_l2c_hit_latency 5
core_0_l2c_fill_latency 5
core_0_l2c_max_tag_check 1
core_0_l2c_max_fill 1
llc_set 2048
llc_way 16
llc_rq_size 32
llc_wq_size 32
llc_pq_size 32
llc_mshr_size 64
llc_hit_latency 10
llc_fill_latency 10
llc_max_tag_check 1
llc_max_fill 1
dram_channels 1
dram_ranks 1
dram_bankgroups 8
dram_banks 4
dram_rows 16384
dram_columns 1024
dram_channel_width 8
dram_rq_size 64
dram_wq_size 64
dram_size 4294967296
core_0_itlb_prefetcher no
core_0_dtlb_prefetcher no
core_0_stlb_prefetcher no
core_0_l1i_prefetcher next_line
core_0_l1d_prefetcher berti
core_0_l2c_prefetcher pythia
llc_prefetcher no
llc_replacement drrip

Core_0_instructions 50000000
Core_0_cycles 133549488
Core_0_IPC 0.374393
Core_0_branch_prediction_accuracy 89.3042
Core_0_branch_MPKI 26.6871
Core_0_average_ROB_occupancy_at_mispredict 15.9658

Core_0_ITLB_total_access 87330
Core_0_ITLB_total_hit 87330
Core_0_ITLB_total_miss 0
Core_0_ITLB_total_MPKI 0
Core_0_ITLB_total_miss_rate 0
Core_0_ITLB_demand_access 87330
Core_0_ITLB_demand_hit 87330
Core_0_ITLB_demand_miss 0
Core_0_ITLB_demand_MPKI 0
Core_0_ITLB_demand_miss_rate 0
Core_0_ITLB_load_access 87330
Core_0_ITLB_load_hit 87330
Core_0_ITLB_load_miss 0
Core_0_ITLB_load_MPKI 0
Core_0_ITLB_load_miss_rate 0
Core_0_ITLB_rfo_access 0
Core_0_ITLB_rfo_hit 0
Core_0_ITLB_rfo_miss 0
Core_0_ITLB_rfo_MPKI 0
Core_0_ITLB_rfo_miss_rate 0
Core_0_ITLB_prefetch_access 0
Core_0_ITLB_prefetch_hit 0
Core_0_ITLB_prefetch_miss 0
Core_0_ITLB_prefetch_MPKI 0
Core_0_ITLB_prefetch_miss_rate 0
Core_0_ITLB_writeback_access 0
Core_0_ITLB_writeback_hit 0
Core_0_ITLB_writeback_miss 0
Core_0_ITLB_writeback_MPKI 0
Core_0_ITLB_writeback_miss_rate 0
Core_0_ITLB_prefetch_requested 0
Core_0_ITLB_prefetch_issued 0
Core_0_ITLB_prefetch_useful 0
Core_0_ITLB_prefetch_useless 0
Core_0_ITLB_prefetch_late 0
Core_0_ITLB_prefetch_accuracy 0
Core_0_ITLB_prefetch_coverage 0

Core_0_DTLB_total_access 19525693
Core_0_DTLB_total_hit 17823049
Core_0_DTLB_total_miss 1702644
Core_0_DTLB_total_MPKI 34.0529
Core_0_DTLB_total_miss_rate 0.0872002
Core_0_DTLB_demand_access 19525693
Core_0_DTLB_demand_hit 17823049
Core_0_DTLB_demand_miss 1702644
Core_0_DTLB_demand_MPKI 34.0529
Core_0_DTLB_demand_miss_rate 0.0872002
Core_0_DTLB_load_access 19525693
Core_0_DTLB_load_hit 17823049
Core_0_DTLB_load_miss 1702644
Core_0_DTLB_load_MPKI 34.0529
Core_0_DTLB_load_miss_rate 0.0872002
Core_0_DTLB_rfo_access 0
Core_0_DTLB_rfo_hit 0
Core_0_DTLB_rfo_miss 0
Core_0_DTLB_rfo_MPKI 0
Core_0_DTLB_rfo_miss_rate 0
Core_0_DTLB_prefetch_access 0
Core_0_DTLB_prefetch_hit 0
Core_0_DTLB_prefetch_miss 0
Core_0_DTLB_prefetch_MPKI 0
Core_0_DTLB_prefetch_miss_rate 0
Core_0_DTLB_writeback_access 0
Core_0_DTLB_writeback_hit 0
Core_0_DTLB_writeback_miss 0
Core_0_DTLB_writeback_MPKI 0
Core_0_DTLB_writeback_miss_rate 0
Core_0_DTLB_prefetch_requested 0
Core_0_DTLB_prefetch_issued 0
Core_0_DTLB_prefetch_useful 0
Core_0_DTLB_prefetch_useless 0
Core_0_DTLB_prefetch_late 0
Core_0_DTLB_prefetch_accuracy 0
Core_0_DTLB_prefetch_coverage 0

Core_0_STLB_total_access 1354734
Core_0_STLB_total_hit 1337272
Core_0_STLB_total_miss 17462
Core_0_STLB_total_MPKI 0.34924
Core_0_STLB_total_miss_rate 0.0128896
Core_0_STLB_demand_access 1354734
Core_0_STLB_demand_hit 1337272
Core_0_STLB_demand_miss 17462
Core_0_STLB_demand_MPKI 0.34924
Core_0_STLB_demand_miss_rate 0.0128896
Core_0_STLB_load_access 1354734
Core_0_STLB_load_hit 1337272
Core_0_STLB_load_miss 17462
Core_0_STLB_load_MPKI 0.34924
Core_0_STLB_load_miss_rate 0.0128896
Core_0_STLB_rfo_access 0
Core_0_STLB_rfo_hit 0
Core_0_STLB_rfo_miss 0
Core_0_STLB_rfo_MPKI 0
Core_0_STLB_rfo_miss_rate 0
Core_0_STLB_prefetch_access 0
Core_0_STLB_prefetch_hit 0
Core_0_STLB_prefetch_miss 0
Core_0_STLB_prefetch_MPKI 0
Core_0_STLB_prefetch_miss_rate 0
Core_0_STLB_writeback_access 0
Core_0_STLB_writeback_hit 0
Core_0_STLB_writeback_miss 0
Core_0_STLB_writeback_MPKI 0
Core_0_STLB_writeback_miss_rate 0
Core_0_STLB_prefetch_requested 0
Core_0_STLB_prefetch_issued 0
Core_0_STLB_prefetch_useful 0
Core_0_STLB_prefetch_useless 0
Core_0_STLB_prefetch_late 0
Core_0_STLB_prefetch_accuracy 0
Core_0_STLB_prefetch_coverage 0

Core_0_L1I_total_access 91569
Core_0_L1I_total_hit 91569
Core_0_L1I_total_miss 0
Core_0_L1I_total_MPKI 0
Core_0_L1I_total_miss_rate 0
Core_0_L1I_demand_access 91569
Core_0_L1I_demand_hit 91569
Core_0_L1I_demand_miss 0
Core_0_L1I_demand_MPKI 0
Core_0_L1I_demand_miss_rate 0
Core_0_L1I_load_access 91569
Core_0_L1I_load_hit 91569
Core_0_L1I_load_miss 0
Core_0_L1I_load_MPKI 0
Core_0_L1I_load_miss_rate 0
Core_0_L1I_rfo_access 0
Core_0_L1I_rfo_hit 0
Core_0_L1I_rfo_miss 0
Core_0_L1I_rfo_MPKI 0
Core_0_L1I_rfo_miss_rate 0
Core_0_L1I_prefetch_access 0
Core_0_L1I_prefetch_hit 0
Core_0_L1I_prefetch_miss 0
Core_0_L1I_prefetch_MPKI 0
Core_0_L1I_prefetch_miss_rate 0
Core_0_L1I_writeback_access 0
Core_0_L1I_writeback_hit 0
Core_0_L1I_writeback_miss 0
Core_0_L1I_writeback_MPKI 0
Core_0_L1I_writeback_miss_rate 0
Core_0_L1I_prefetch_requested 0
Core_0_L1I_prefetch_issued 0
Core_0_L1I_prefetch_useful 0
Core_0_L1I_prefetch_useless 0
Core_0_L1I_prefetch_late 0
Core_0_L1I_prefetch_accuracy 0
Core_0_L1I_prefetch_coverage 0

Core_0_L1D_total_access 20565089
Core_0_L1D_total_hit 17002924
Core_0_L1D_total_miss 3562165
Core_0_L1D_total_MPKI 71.2433
Core_0_L1D_total_miss_rate 0.173214
Core_0_L1D_demand_access 13853322
Core_0_L1D_demand_hit 11950633
Core_0_L1D_demand_miss 1902689
Core_0_L1D_demand_MPKI 38.0538
Core_0_L1D_demand_miss_rate 0.137345
Core_0_L1D_load_access 13853322
Core_0_L1D_load_hit 11950633
Core_0_L1D_load_miss 1902689
Core_0_L1D_load_MPKI 38.0538
Core_0_L1D_load_miss_rate 0.137345
Core_0_L1D_rfo_access 0
Core_0_L1D_rfo_hit 0
Core_0_L1D_rfo_miss 0
Core_0_L1D_rfo_MPKI 0
Core_0_L1D_rfo_miss_rate 0
Core_0_L1D_prefetch_access 1551261
Core_0_L1D_prefetch_hit 383175
Core_0_L1D_prefetch_miss 1168086
Core_0_L1D_prefetch_MPKI 23.3617
Core_0_L1D_prefetch_miss_rate 0.752991
Core_0_L1D_writeback_access 5160506
Core_0_L1D_writeback_hit 4669116
Core_0_L1D_writeback_miss 491390
Core_0_L1D_writeback_MPKI 9.8278
Core_0_L1D_writeback_miss_rate 0.0952213
Core_0_L1D_prefetch_requested 1555472
Core_0_L1D_prefetch_issued 1551261
Core_0_L1D_prefetch_useful 733789
Core_0_L1D_prefetch_useless 415000
Core_0_L1D_prefetch_late 35438
Core_0_L1D_prefetch_accuracy 0.473027
Core_0_L1D_prefetch_coverage 0.278322

Core_0_L2C_total_access 9158726
Core_0_L2C_total_hit 4648090
Core_0_L2C_total_miss 4510636
Core_0_L2C_total_MPKI 90.2127
Core_0_L2C_total_miss_rate 0.492496
Core_0_L2C_demand_access 1943010
Core_0_L2C_demand_hit 575453
Core_0_L2C_demand_miss 1367557
Core_0_L2C_demand_MPKI 27.3511
Core_0_L2C_demand_miss_rate 0.703834
Core_0_L2C_load_access 1763695
Core_0_L2C_load_hit 500248
Core_0_L2C_load_miss 1263447
Core_0_L2C_load_MPKI 25.2689
Core_0_L2C_load_miss_rate 0.716364
Core_0_L2C_rfo_access 179315
Core_0_L2C_rfo_hit 75205
Core_0_L2C_rfo_miss 104110
Core_0_L2C_rfo_MPKI 2.0822
Core_0_L2C_rfo_miss_rate 0.580598
Core_0_L2C_prefetch_access 6959252
Core_0_L2C_prefetch_hit 3816614
Core_0_L2C_prefetch_miss 3142638
Core_0_L2C_prefetch_MPKI 62.8528
Core_0_L2C_prefetch_miss_rate 0.451577
Core_0_L2C_writeback_access 256464
Core_0_L2C_writeback_hit 256023
Core_0_L2C_writeback_miss 441
Core_0_L2C_writeback_MPKI 0.00882
Core_0_L2C_writeback_miss_rate 0.00171954
Core_0_L2C_prefetch_requested 6011587
Core_0_L2C_prefetch_issued 5810371
Core_0_L2C_prefetch_useful 776932
Core_0_L2C_prefetch_useless 1484179
Core_0_L2C_prefetch_late 2205
Core_0_L2C_prefetch_accuracy 0.133715
Core_0_L2C_prefetch_coverage 0.362292

Core_0_LLC_total_access 4157418
Core_0_LLC_total_hit 2641659
Core_0_LLC_total_miss 1515759
Core_0_LLC_total_MPKI 30.3152
Core_0_LLC_total_miss_rate 0.364591
Core_0_LLC_demand_access 1365352
Core_0_LLC_demand_hit 1060597
Core_0_LLC_demand_miss 304755
Core_0_LLC_demand_MPKI 6.0951
Core_0_LLC_demand_miss_rate 0.223206
Core_0_LLC_load_access 1261254
Core_0_LLC_load_hit 959174
Core_0_LLC_load_miss 302080
Core_0_LLC_load_MPKI 6.0416
Core_0_LLC_load_miss_rate 0.239508
Core_0_LLC_rfo_access 104098
Core_0_LLC_rfo_hit 101423
Core_0_LLC_rfo_miss 2675
Core_0_LLC_rfo_MPKI 0.0535
Core_0_LLC_rfo_miss_rate 0.0256969
Core_0_LLC_prefetch_access 2602423
Core_0_LLC_prefetch_hit 1392267
Core_0_LLC_prefetch_miss 1210156
Core_0_LLC_prefetch_MPKI 24.2031
Core_0_LLC_prefetch_miss_rate 0.465011
Core_0_LLC_writeback_access 189643
Core_0_LLC_writeback_hit 188795
Core_0_LLC_writeback_miss 848
Core_0_LLC_writeback_MPKI 0.01696
Core_0_LLC_writeback_miss_rate 0.00447156
Core_0_LLC_prefetch_requested 0
Core_0_LLC_prefetch_issued 0
Core_0_LLC_prefetch_useful 0
Core_0_LLC_prefetch_useless 0
Core_0_LLC_prefetch_late 0
Core_0_LLC_prefetch_accuracy 0
Core_0_LLC_prefetch_coverage 0

[DRAM Statistics]
Channel_0_RQ_row_buffer_hit 144515
Channel_0_RQ_row_buffer_miss 1373917
Channel_0_WQ_row_buffer_hit 4545
Channel_0_WQ_row_buffer_miss 10314
Channel_0_WQ_full 0
Channel_0_dbus_congested 2468306
DRAM_total_RQ_row_buffer_hit 144515
DRAM_total_RQ_row_buffer_miss 1373917
DRAM_total_WQ_row_buffer_hit 4545
DRAM_total_WQ_row_buffer_miss 10314
DRAM_total_WQ_full 0
DRAM_total_dbus_congested 2468306
DRAM_avg_congested_cycle 8.26721

======STLB miss causes ========
Core_0_STLB_miss_cause_breakdown
Core_0_STLB_cause_Demand_Data_miss 16524
Core_0_STLB_cause_Demand_Data_miss_rate 0.0121972
Core_0_STLB_cause_Demand_Instruction_miss 0
Core_0_STLB_cause_Demand_Instruction_miss_rate 0
Core_0_STLB_cause_L1D_Prefetch_miss 938
Core_0_STLB_cause_L1D_Prefetch_miss_rate 0.000692387
Core_0_STLB_cause_L1I_Prefetch_miss 0
Core_0_STLB_cause_L1I_Prefetch_miss_rate 0
Core_0_STLB_cause_Other_miss 0
Core_0_STLB_cause_Other_miss_rate 0
Core_0_STLB_Demand_miss 16524
Core_0_STLB_Demand_miss_rate 0.0121972
Core_0_STLB_L1D_Prefetch_miss 938
Core_0_STLB_L1D_Prefetch_miss_rate 0.000692387
Core_0_STLB_Other_miss 0
Core_0_STLB_Other_miss_rate 0
