[VMEM] WARNING: physical memory size is smaller than virtual memory size.

*** ChampSim Multicore Out-of-Order Simulator ***
Warmup Instructions: 20000000
Simulation Instructions: 50000000
Number of CPUs: 1
Page size: 4096
Core 0: /data0/tzh/champsim_traces/SPEC17/631.deepsjeng_s-928B.champsimtrace.xz
 L1D Berti prefetcher
Off-chip DRAM Size: 4 GiB Channels: 1 Width: 64-bit Data Rate: 3205 MT/s
Warmup halting CPU 0 at instruction 20000004 cycle 5238268 for remainder of phase
Warmup finished CPU 0 instructions: 20000004 cycles: 5238268 cumulative IPC: 3.818 (Simulation time: 00 hr 01 min 04 sec)
Warmup complete CPU 0 instructions: 20000004 cycles: 5238268 cumulative IPC: 3.818 (Simulation time: 00 hr 01 min 04 sec)
Simulation finished CPU 0 instructions: 50000004 cycles: 30077829 cumulative IPC: 1.662 (Simulation time: 00 hr 04 min 27 sec)
Simulation complete CPU 0 instructions: 50000004 cycles: 30077829 cumulative IPC: 1.662 (Simulation time: 00 hr 04 min 27 sec)

ChampSim completed all CPUs

=== Simulation ===
CPU 0 runs /data0/tzh/champsim_traces/SPEC17/631.deepsjeng_s-928B.champsimtrace.xz

Region of Interest Statistics

CPU 0 cumulative IPC: 1.662 instructions: 50000004 cycles: 30077829
CPU 0 Branch Prediction Accuracy: 90.32% MPKI: 14.32 Average ROB Occupancy at Mispredict: 42.97
Branch type MPKI
BRANCH_DIRECT_JUMP: 0.01682
BRANCH_INDIRECT: 0.01054
BRANCH_CONDITIONAL: 13.76
BRANCH_DIRECT_CALL: 0.01552
BRANCH_INDIRECT_CALL: 0
BRANCH_RETURN: 0.514

cpu0->cpu0_STLB TOTAL        ACCESS:      14295 HIT:       5215 MISS:       9080 MSHR_MERGE:          0
cpu0->cpu0_STLB LOAD         ACCESS:      14295 HIT:       5215 MISS:       9080 MSHR_MERGE:          0
cpu0->cpu0_STLB RFO          ACCESS:          0 HIT:          0 MISS:          0 MSHR_MERGE:          0
cpu0->cpu0_STLB PREFETCH     ACCESS:          0 HIT:          0 MISS:          0 MSHR_MERGE:          0
cpu0->cpu0_STLB WRITE        ACCESS:          0 HIT:          0 MISS:          0 MSHR_MERGE:          0
cpu0->cpu0_STLB TRANSLATION  ACCESS:          0 HIT:          0 MISS:          0 MSHR_MERGE:          0
cpu0->cpu0_STLB PREFETCH REQUESTED:          0 ISSUED:          0 USEFUL:          0 USELESS:          0 LATE:          0
cpu0->cpu0_STLB AVERAGE MISS LATENCY: 408.1 cycles
cpu0->cpu0_L2C TOTAL        ACCESS:     142388 HIT:     101665 MISS:      40723 MSHR_MERGE:       4545
cpu0->cpu0_L2C LOAD         ACCESS:      26983 HIT:      13374 MISS:      13609 MSHR_MERGE:         31
cpu0->cpu0_L2C RFO          ACCESS:      12552 HIT:      12188 MISS:        364 MSHR_MERGE:          4
cpu0->cpu0_L2C PREFETCH     ACCESS:      58519 HIT:      41152 MISS:      17367 MSHR_MERGE:       4510
cpu0->cpu0_L2C WRITE        ACCESS:      27173 HIT:      27159 MISS:         14 MSHR_MERGE:          0
cpu0->cpu0_L2C TRANSLATION  ACCESS:      17161 HIT:       7792 MISS:       9369 MSHR_MERGE:          0
cpu0->cpu0_L2C PREFETCH REQUESTED:      38941 ISSUED:      38933 USEFUL:       1201 USELESS:      10018 LATE:         35
cpu0->cpu0_L2C AVERAGE MISS LATENCY: 157.1 cycles
cpu0->cpu0_L1I TOTAL        ACCESS:      28571 HIT:      28546 MISS:         25 MSHR_MERGE:          6
cpu0->cpu0_L1I LOAD         ACCESS:      28571 HIT:      28546 MISS:         25 MSHR_MERGE:          6
cpu0->cpu0_L1I RFO          ACCESS:          0 HIT:          0 MISS:          0 MSHR_MERGE:          0
cpu0->cpu0_L1I PREFETCH     ACCESS:          0 HIT:          0 MISS:          0 MSHR_MERGE:          0
cpu0->cpu0_L1I WRITE        ACCESS:          0 HIT:          0 MISS:          0 MSHR_MERGE:          0
cpu0->cpu0_L1I TRANSLATION  ACCESS:          0 HIT:          0 MISS:          0 MSHR_MERGE:          0
cpu0->cpu0_L1I PREFETCH REQUESTED:          0 ISSUED:          0 USEFUL:          0 USELESS:          0 LATE:          0
cpu0->cpu0_L1I AVERAGE MISS LATENCY: 135.6 cycles
cpu0->cpu0_L1D TOTAL        ACCESS:   14668914 HIT:   14540074 MISS:     128840 MSHR_MERGE:      52575
cpu0->cpu0_L1D LOAD         ACCESS:    8700635 HIT:    8643019 MISS:      57616 MSHR_MERGE:      30650
cpu0->cpu0_L1D RFO          ACCESS:          0 HIT:          0 MISS:          0 MSHR_MERGE:          0
cpu0->cpu0_L1D PREFETCH     ACCESS:     172963 HIT:     152579 MISS:      20384 MSHR_MERGE:        798
cpu0->cpu0_L1D WRITE        ACCESS:    5767992 HIT:    5734365 MISS:      33627 MSHR_MERGE:      21075
cpu0->cpu0_L1D TRANSLATION  ACCESS:      27324 HIT:      10111 MISS:      17213 MSHR_MERGE:         52
cpu0->cpu0_L1D PREFETCH REQUESTED:     183686 ISSUED:     172961 USEFUL:       6214 USELESS:      13381 LATE:        124
cpu0->cpu0_L1D AVERAGE MISS LATENCY: 73.01 cycles
cpu0->cpu0_ITLB TOTAL        ACCESS:      25373 HIT:      25371 MISS:          2 MSHR_MERGE:          0
cpu0->cpu0_ITLB LOAD         ACCESS:      25373 HIT:      25371 MISS:          2 MSHR_MERGE:          0
cpu0->cpu0_ITLB RFO          ACCESS:          0 HIT:          0 MISS:          0 MSHR_MERGE:          0
cpu0->cpu0_ITLB PREFETCH     ACCESS:          0 HIT:          0 MISS:          0 MSHR_MERGE:          0
cpu0->cpu0_ITLB WRITE        ACCESS:          0 HIT:          0 MISS:          0 MSHR_MERGE:          0
cpu0->cpu0_ITLB TRANSLATION  ACCESS:          0 HIT:          0 MISS:          0 MSHR_MERGE:          0
cpu0->cpu0_ITLB PREFETCH REQUESTED:          0 ISSUED:          0 USEFUL:          0 USELESS:          0 LATE:          0
cpu0->cpu0_ITLB AVERAGE MISS LATENCY: 231.5 cycles
cpu0->cpu0_DTLB TOTAL        ACCESS:   13629248 HIT:   13581055 MISS:      48193 MSHR_MERGE:      33900
cpu0->cpu0_DTLB LOAD         ACCESS:   13629248 HIT:   13581055 MISS:      48193 MSHR_MERGE:      33900
cpu0->cpu0_DTLB RFO          ACCESS:          0 HIT:          0 MISS:          0 MSHR_MERGE:          0
cpu0->cpu0_DTLB PREFETCH     ACCESS:          0 HIT:          0 MISS:          0 MSHR_MERGE:          0
cpu0->cpu0_DTLB WRITE        ACCESS:          0 HIT:          0 MISS:          0 MSHR_MERGE:          0
cpu0->cpu0_DTLB TRANSLATION  ACCESS:          0 HIT:          0 MISS:          0 MSHR_MERGE:          0
cpu0->cpu0_DTLB PREFETCH REQUESTED:          0 ISSUED:          0 USEFUL:          0 USELESS:          0 LATE:          0
cpu0->cpu0_DTLB AVERAGE MISS LATENCY: 264.9 cycles
cpu0->LLC TOTAL        ACCESS:      46713 HIT:      11547 MISS:      35166 MSHR_MERGE:          0
cpu0->LLC LOAD         ACCESS:      13578 HIT:        467 MISS:      13111 MSHR_MERGE:          0
cpu0->LLC RFO          ACCESS:        360 HIT:        340 MISS:         20 MSHR_MERGE:          0
cpu0->LLC PREFETCH     ACCESS:      12857 HIT:       1882 MISS:      10975 MSHR_MERGE:          0
cpu0->LLC WRITE        ACCESS:      10549 HIT:       7913 MISS:       2636 MSHR_MERGE:          0
cpu0->LLC TRANSLATION  ACCESS:       9369 HIT:        945 MISS:       8424 MSHR_MERGE:          0
cpu0->LLC PREFETCH REQUESTED:          0 ISSUED:          0 USEFUL:          0 USELESS:          0 LATE:          0
cpu0->LLC AVERAGE MISS LATENCY: 137.2 cycles

DRAM Statistics

Channel 0 RQ ROW_BUFFER_HIT:         63
  ROW_BUFFER_MISS:      32467
  AVG DBUS CONGESTED CYCLE: 3.04
Channel 0 WQ ROW_BUFFER_HIT:          9
  ROW_BUFFER_MISS:        572
  FULL:          0
Channel 0 REFRESHES ISSUED:       2507

[ROI Statistics]
[System Configuration]
num_cpus 1
cpu_freq 4000
fetch_width 6
decode_width 6
dispatch_width 6
execute_width 6
lq_width 2
sq_width 2
retire_width 6
scheduler_size 160
branch_mispredict_penalty 1
rob_size 352
lq_size 240
sq_size 112
ifetch_buffer_size 64
decode_buffer_size 32
dispatch_buffer_size 32
register_file_size 288
decode_latency 1
dispatch_latency 1
schedule_latency 0
execute_latency 0
page_size 4096
block_size 64
core_0_itlb_set 16
core_0_itlb_way 4
core_0_itlb_rq_size 16
core_0_itlb_wq_size 16
core_0_itlb_pq_size 0
core_0_itlb_mshr_size 8
core_0_itlb_hit_latency 1
core_0_itlb_fill_latency 1
core_0_itlb_max_tag_check 2
core_0_itlb_max_fill 2
core_0_dtlb_set 16
core_0_dtlb_way 4
core_0_dtlb_rq_size 16
core_0_dtlb_wq_size 16
core_0_dtlb_pq_size 0
core_0_dtlb_mshr_size 8
core_0_dtlb_hit_latency 1
core_0_dtlb_fill_latency 1
core_0_dtlb_max_tag_check 2
core_0_dtlb_max_fill 2
core_0_stlb_set 128
core_0_stlb_way 12
core_0_stlb_rq_size 32
core_0_stlb_wq_size 32
core_0_stlb_pq_size 0
core_0_stlb_mshr_size 16
core_0_stlb_hit_latency 4
core_0_stlb_fill_latency 4
core_0_stlb_max_tag_check 1
core_0_stlb_max_fill 1
core_0_l1i_set 64
core_0_l1i_way 8
core_0_l1i_rq_size 64
core_0_l1i_wq_size 64
core_0_l1i_pq_size 32
core_0_l1i_mshr_size 8
core_0_l1i_hit_latency 2
core_0_l1i_fill_latency 2
core_0_l1i_max_tag_check 2
core_0_l1i_max_fill 2
core_0_l1d_set 64
core_0_l1d_way 12
core_0_l1d_rq_size 64
core_0_l1d_wq_size 64
core_0_l1d_pq_size 8
core_0_l1d_mshr_size 16
core_0_l1d_hit_latency 2
core_0_l1d_fill_latency 3
core_0_l1d_max_tag_check 2
core_0_l1d_max_fill 2
core_0_l2c_set 1024
core_0_l2c_way 8
core_0_l2c_rq_size 32
core_0_l2c_wq_size 32
core_0_l2c_pq_size 16
core_0_l2c_mshr_size 32
core_0_l2c_hit_latency 5
core_0_l2c_fill_latency 5
core_0_l2c_max_tag_check 1
core_0_l2c_max_fill 1
llc_set 2048
llc_way 16
llc_rq_size 32
llc_wq_size 32
llc_pq_size 32
llc_mshr_size 64
llc_hit_latency 10
llc_fill_latency 10
llc_max_tag_check 1
llc_max_fill 1
dram_channels 1
dram_ranks 1
dram_bankgroups 8
dram_banks 4
dram_rows 16384
dram_columns 1024
dram_channel_width 8
dram_rq_size 64
dram_wq_size 64
dram_size 4294967296
core_0_itlb_prefetcher no
core_0_dtlb_prefetcher no
core_0_stlb_prefetcher no
core_0_l1i_prefetcher next_line
core_0_l1d_prefetcher berti
core_0_l2c_prefetcher pythia
llc_prefetcher no
llc_replacement drrip

Core_0_instructions 50000004
Core_0_cycles 30077829
Core_0_IPC 1.66235
Core_0_branch_prediction_accuracy 90.3237
Core_0_branch_MPKI 14.316
Core_0_average_ROB_occupancy_at_mispredict 42.9742

Core_0_ITLB_total_access 25373
Core_0_ITLB_total_hit 25371
Core_0_ITLB_total_miss 2
Core_0_ITLB_total_MPKI 4e-05
Core_0_ITLB_total_miss_rate 7.88239e-05
Core_0_ITLB_demand_access 25373
Core_0_ITLB_demand_hit 25371
Core_0_ITLB_demand_miss 2
Core_0_ITLB_demand_MPKI 4e-05
Core_0_ITLB_demand_miss_rate 7.88239e-05
Core_0_ITLB_load_access 25373
Core_0_ITLB_load_hit 25371
Core_0_ITLB_load_miss 2
Core_0_ITLB_load_MPKI 4e-05
Core_0_ITLB_load_miss_rate 7.88239e-05
Core_0_ITLB_rfo_access 0
Core_0_ITLB_rfo_hit 0
Core_0_ITLB_rfo_miss 0
Core_0_ITLB_rfo_MPKI 0
Core_0_ITLB_rfo_miss_rate 0
Core_0_ITLB_prefetch_access 0
Core_0_ITLB_prefetch_hit 0
Core_0_ITLB_prefetch_miss 0
Core_0_ITLB_prefetch_MPKI 0
Core_0_ITLB_prefetch_miss_rate 0
Core_0_ITLB_writeback_access 0
Core_0_ITLB_writeback_hit 0
Core_0_ITLB_writeback_miss 0
Core_0_ITLB_writeback_MPKI 0
Core_0_ITLB_writeback_miss_rate 0
Core_0_ITLB_prefetch_requested 0
Core_0_ITLB_prefetch_issued 0
Core_0_ITLB_prefetch_useful 0
Core_0_ITLB_prefetch_useless 0
Core_0_ITLB_prefetch_late 0
Core_0_ITLB_prefetch_accuracy 0
Core_0_ITLB_prefetch_coverage 0

Core_0_DTLB_total_access 13629248
Core_0_DTLB_total_hit 13581055
Core_0_DTLB_total_miss 48193
Core_0_DTLB_total_MPKI 0.96386
Core_0_DTLB_total_miss_rate 0.003536
Core_0_DTLB_demand_access 13629248
Core_0_DTLB_demand_hit 13581055
Core_0_DTLB_demand_miss 48193
Core_0_DTLB_demand_MPKI 0.96386
Core_0_DTLB_demand_miss_rate 0.003536
Core_0_DTLB_load_access 13629248
Core_0_DTLB_load_hit 13581055
Core_0_DTLB_load_miss 48193
Core_0_DTLB_load_MPKI 0.96386
Core_0_DTLB_load_miss_rate 0.003536
Core_0_DTLB_rfo_access 0
Core_0_DTLB_rfo_hit 0
Core_0_DTLB_rfo_miss 0
Core_0_DTLB_rfo_MPKI 0
Core_0_DTLB_rfo_miss_rate 0
Core_0_DTLB_prefetch_access 0
Core_0_DTLB_prefetch_hit 0
Core_0_DTLB_prefetch_miss 0
Core_0_DTLB_prefetch_MPKI 0
Core_0_DTLB_prefetch_miss_rate 0
Core_0_DTLB_writeback_access 0
Core_0_DTLB_writeback_hit 0
Core_0_DTLB_writeback_miss 0
Core_0_DTLB_writeback_MPKI 0
Core_0_DTLB_writeback_miss_rate 0
Core_0_DTLB_prefetch_requested 0
Core_0_DTLB_prefetch_issued 0
Core_0_DTLB_prefetch_useful 0
Core_0_DTLB_prefetch_useless 0
Core_0_DTLB_prefetch_late 0
Core_0_DTLB_prefetch_accuracy 0
Core_0_DTLB_prefetch_coverage 0

Core_0_STLB_total_access 14295
Core_0_STLB_total_hit 5215
Core_0_STLB_total_miss 9080
Core_0_STLB_total_MPKI 0.1816
Core_0_STLB_total_miss_rate 0.635187
Core_0_STLB_demand_access 14295
Core_0_STLB_demand_hit 5215
Core_0_STLB_demand_miss 9080
Core_0_STLB_demand_MPKI 0.1816
Core_0_STLB_demand_miss_rate 0.635187
Core_0_STLB_load_access 14295
Core_0_STLB_load_hit 5215
Core_0_STLB_load_miss 9080
Core_0_STLB_load_MPKI 0.1816
Core_0_STLB_load_miss_rate 0.635187
Core_0_STLB_rfo_access 0
Core_0_STLB_rfo_hit 0
Core_0_STLB_rfo_miss 0
Core_0_STLB_rfo_MPKI 0
Core_0_STLB_rfo_miss_rate 0
Core_0_STLB_prefetch_access 0
Core_0_STLB_prefetch_hit 0
Core_0_STLB_prefetch_miss 0
Core_0_STLB_prefetch_MPKI 0
Core_0_STLB_prefetch_miss_rate 0
Core_0_STLB_writeback_access 0
Core_0_STLB_writeback_hit 0
Core_0_STLB_writeback_miss 0
Core_0_STLB_writeback_MPKI 0
Core_0_STLB_writeback_miss_rate 0
Core_0_STLB_prefetch_requested 0
Core_0_STLB_prefetch_issued 0
Core_0_STLB_prefetch_useful 0
Core_0_STLB_prefetch_useless 0
Core_0_STLB_prefetch_late 0
Core_0_STLB_prefetch_accuracy 0
Core_0_STLB_prefetch_coverage 0

Core_0_L1I_total_access 28571
Core_0_L1I_total_hit 28546
Core_0_L1I_total_miss 25
Core_0_L1I_total_MPKI 0.0005
Core_0_L1I_total_miss_rate 0.000875013
Core_0_L1I_demand_access 28571
Core_0_L1I_demand_hit 28546
Core_0_L1I_demand_miss 25
Core_0_L1I_demand_MPKI 0.0005
Core_0_L1I_demand_miss_rate 0.000875013
Core_0_L1I_load_access 28571
Core_0_L1I_load_hit 28546
Core_0_L1I_load_miss 25
Core_0_L1I_load_MPKI 0.0005
Core_0_L1I_load_miss_rate 0.000875013
Core_0_L1I_rfo_access 0
Core_0_L1I_rfo_hit 0
Core_0_L1I_rfo_miss 0
Core_0_L1I_rfo_MPKI 0
Core_0_L1I_rfo_miss_rate 0
Core_0_L1I_prefetch_access 0
Core_0_L1I_prefetch_hit 0
Core_0_L1I_prefetch_miss 0
Core_0_L1I_prefetch_MPKI 0
Core_0_L1I_prefetch_miss_rate 0
Core_0_L1I_writeback_access 0
Core_0_L1I_writeback_hit 0
Core_0_L1I_writeback_miss 0
Core_0_L1I_writeback_MPKI 0
Core_0_L1I_writeback_miss_rate 0
Core_0_L1I_prefetch_requested 0
Core_0_L1I_prefetch_issued 0
Core_0_L1I_prefetch_useful 0
Core_0_L1I_prefetch_useless 0
Core_0_L1I_prefetch_late 0
Core_0_L1I_prefetch_accuracy 0
Core_0_L1I_prefetch_coverage 0

Core_0_L1D_total_access 14641590
Core_0_L1D_total_hit 14529963
Core_0_L1D_total_miss 111627
Core_0_L1D_total_MPKI 2.23254
Core_0_L1D_total_miss_rate 0.00762397
Core_0_L1D_demand_access 8700635
Core_0_L1D_demand_hit 8643019
Core_0_L1D_demand_miss 57616
Core_0_L1D_demand_MPKI 1.15232
Core_0_L1D_demand_miss_rate 0.00662205
Core_0_L1D_load_access 8700635
Core_0_L1D_load_hit 8643019
Core_0_L1D_load_miss 57616
Core_0_L1D_load_MPKI 1.15232
Core_0_L1D_load_miss_rate 0.00662205
Core_0_L1D_rfo_access 0
Core_0_L1D_rfo_hit 0
Core_0_L1D_rfo_miss 0
Core_0_L1D_rfo_MPKI 0
Core_0_L1D_rfo_miss_rate 0
Core_0_L1D_prefetch_access 172963
Core_0_L1D_prefetch_hit 152579
Core_0_L1D_prefetch_miss 20384
Core_0_L1D_prefetch_MPKI 0.40768
Core_0_L1D_prefetch_miss_rate 0.117852
Core_0_L1D_writeback_access 5767992
Core_0_L1D_writeback_hit 5734365
Core_0_L1D_writeback_miss 33627
Core_0_L1D_writeback_MPKI 0.67254
Core_0_L1D_writeback_miss_rate 0.00582993
Core_0_L1D_prefetch_requested 183686
Core_0_L1D_prefetch_issued 172961
Core_0_L1D_prefetch_useful 6214
Core_0_L1D_prefetch_useless 13381
Core_0_L1D_prefetch_late 124
Core_0_L1D_prefetch_accuracy 0.0359272
Core_0_L1D_prefetch_coverage 0.0973523

Core_0_L2C_total_access 125227
Core_0_L2C_total_hit 93873
Core_0_L2C_total_miss 31354
Core_0_L2C_total_MPKI 0.62708
Core_0_L2C_total_miss_rate 0.250377
Core_0_L2C_demand_access 39535
Core_0_L2C_demand_hit 25562
Core_0_L2C_demand_miss 13973
Core_0_L2C_demand_MPKI 0.27946
Core_0_L2C_demand_miss_rate 0.353434
Core_0_L2C_load_access 26983
Core_0_L2C_load_hit 13374
Core_0_L2C_load_miss 13609
Core_0_L2C_load_MPKI 0.27218
Core_0_L2C_load_miss_rate 0.504355
Core_0_L2C_rfo_access 12552
Core_0_L2C_rfo_hit 12188
Core_0_L2C_rfo_miss 364
Core_0_L2C_rfo_MPKI 0.00728
Core_0_L2C_rfo_miss_rate 0.0289994
Core_0_L2C_prefetch_access 58519
Core_0_L2C_prefetch_hit 41152
Core_0_L2C_prefetch_miss 17367
Core_0_L2C_prefetch_MPKI 0.34734
Core_0_L2C_prefetch_miss_rate 0.296775
Core_0_L2C_writeback_access 27173
Core_0_L2C_writeback_hit 27159
Core_0_L2C_writeback_miss 14
Core_0_L2C_writeback_MPKI 0.00028
Core_0_L2C_writeback_miss_rate 0.000515217
Core_0_L2C_prefetch_requested 38941
Core_0_L2C_prefetch_issued 38933
Core_0_L2C_prefetch_useful 1201
Core_0_L2C_prefetch_useless 10018
Core_0_L2C_prefetch_late 35
Core_0_L2C_prefetch_accuracy 0.0308479
Core_0_L2C_prefetch_coverage 0.0791485

Core_0_LLC_total_access 37344
Core_0_LLC_total_hit 10602
Core_0_LLC_total_miss 26742
Core_0_LLC_total_MPKI 0.53484
Core_0_LLC_total_miss_rate 0.716099
Core_0_LLC_demand_access 13938
Core_0_LLC_demand_hit 807
Core_0_LLC_demand_miss 13131
Core_0_LLC_demand_MPKI 0.26262
Core_0_LLC_demand_miss_rate 0.942101
Core_0_LLC_load_access 13578
Core_0_LLC_load_hit 467
Core_0_LLC_load_miss 13111
Core_0_LLC_load_MPKI 0.26222
Core_0_LLC_load_miss_rate 0.965606
Core_0_LLC_rfo_access 360
Core_0_LLC_rfo_hit 340
Core_0_LLC_rfo_miss 20
Core_0_LLC_rfo_MPKI 0.0004
Core_0_LLC_rfo_miss_rate 0.0555556
Core_0_LLC_prefetch_access 12857
Core_0_LLC_prefetch_hit 1882
Core_0_LLC_prefetch_miss 10975
Core_0_LLC_prefetch_MPKI 0.2195
Core_0_LLC_prefetch_miss_rate 0.853621
Core_0_LLC_writeback_access 10549
Core_0_LLC_writeback_hit 7913
Core_0_LLC_writeback_miss 2636
Core_0_LLC_writeback_MPKI 0.05272
Core_0_LLC_writeback_miss_rate 0.249882
Core_0_LLC_prefetch_requested 0
Core_0_LLC_prefetch_issued 0
Core_0_LLC_prefetch_useful 0
Core_0_LLC_prefetch_useless 0
Core_0_LLC_prefetch_late 0
Core_0_LLC_prefetch_accuracy 0
Core_0_LLC_prefetch_coverage 0

[DRAM Statistics]
Channel_0_RQ_row_buffer_hit 63
Channel_0_RQ_row_buffer_miss 32467
Channel_0_WQ_row_buffer_hit 9
Channel_0_WQ_row_buffer_miss 572
Channel_0_WQ_full 0
Channel_0_dbus_congested 27259
DRAM_total_RQ_row_buffer_hit 63
DRAM_total_RQ_row_buffer_miss 32467
DRAM_total_WQ_row_buffer_hit 9
DRAM_total_WQ_row_buffer_miss 572
DRAM_total_WQ_full 0
DRAM_total_dbus_congested 27259
DRAM_avg_congested_cycle 3.03962

======STLB miss causes ========
Core_0_STLB_miss_cause_breakdown
Core_0_STLB_cause_Demand_Data_miss 9050
Core_0_STLB_cause_Demand_Data_miss_rate 0.633088
Core_0_STLB_cause_Demand_Instruction_miss 2
Core_0_STLB_cause_Demand_Instruction_miss_rate 0.000139909
Core_0_STLB_cause_L1D_Prefetch_miss 28
Core_0_STLB_cause_L1D_Prefetch_miss_rate 0.00195873
Core_0_STLB_cause_L1I_Prefetch_miss 0
Core_0_STLB_cause_L1I_Prefetch_miss_rate 0
Core_0_STLB_cause_Other_miss 0
Core_0_STLB_cause_Other_miss_rate 0
Core_0_STLB_Demand_miss 9052
Core_0_STLB_Demand_miss_rate 0.633228
Core_0_STLB_L1D_Prefetch_miss 28
Core_0_STLB_L1D_Prefetch_miss_rate 0.00195873
Core_0_STLB_Other_miss 0
Core_0_STLB_Other_miss_rate 0
