[VMEM] WARNING: physical memory size is smaller than virtual memory size.

*** ChampSim Multicore Out-of-Order Simulator ***
Warmup Instructions: 20000000
Simulation Instructions: 50000000
Number of CPUs: 1
Page size: 4096
Core 0: /data0/tzh/champsim_traces/Ligra/ligra_BFSCC.com-lj.ungraph.gcc_6.3.0_O3.drop_22000M.length_250M.champsimtrace.xz
 L1D Berti prefetcher
Off-chip DRAM Size: 4 GiB Channels: 1 Width: 64-bit Data Rate: 3205 MT/s
Warmup halting CPU 0 at instruction 20000000 cycle 5381387 for remainder of phase
Warmup finished CPU 0 instructions: 20000000 cycles: 5381387 cumulative IPC: 3.717 (Simulation time: 00 hr 01 min 04 sec)
Warmup complete CPU 0 instructions: 20000000 cycles: 5381387 cumulative IPC: 3.717 (Simulation time: 00 hr 01 min 04 sec)
Simulation finished CPU 0 instructions: 50000002 cycles: 143382745 cumulative IPC: 0.3487 (Simulation time: 00 hr 10 min 56 sec)
Simulation complete CPU 0 instructions: 50000002 cycles: 143382745 cumulative IPC: 0.3487 (Simulation time: 00 hr 10 min 56 sec)

ChampSim completed all CPUs

=== Simulation ===
CPU 0 runs /data0/tzh/champsim_traces/Ligra/ligra_BFSCC.com-lj.ungraph.gcc_6.3.0_O3.drop_22000M.length_250M.champsimtrace.xz

Region of Interest Statistics

CPU 0 cumulative IPC: 0.3487 instructions: 50000002 cycles: 143382745
CPU 0 Branch Prediction Accuracy: 81.56% MPKI: 50.83 Average ROB Occupancy at Mispredict: 10.18
Branch type MPKI
BRANCH_DIRECT_JUMP: 13.27
BRANCH_INDIRECT: 0
BRANCH_CONDITIONAL: 37.56
BRANCH_DIRECT_CALL: 0
BRANCH_INDIRECT_CALL: 0
BRANCH_RETURN: 0

cpu0->cpu0_STLB TOTAL        ACCESS:    1246913 HIT:    1234025 MISS:      12888 MSHR_MERGE:          0
cpu0->cpu0_STLB LOAD         ACCESS:    1246913 HIT:    1234025 MISS:      12888 MSHR_MERGE:          0
cpu0->cpu0_STLB RFO          ACCESS:          0 HIT:          0 MISS:          0 MSHR_MERGE:          0
cpu0->cpu0_STLB PREFETCH     ACCESS:          0 HIT:          0 MISS:          0 MSHR_MERGE:          0
cpu0->cpu0_STLB WRITE        ACCESS:          0 HIT:          0 MISS:          0 MSHR_MERGE:          0
cpu0->cpu0_STLB TRANSLATION  ACCESS:          0 HIT:          0 MISS:          0 MSHR_MERGE:          0
cpu0->cpu0_STLB PREFETCH REQUESTED:          0 ISSUED:          0 USEFUL:          0 USELESS:          0 LATE:          0
cpu0->cpu0_STLB AVERAGE MISS LATENCY: 245.3 cycles
cpu0->cpu0_L2C TOTAL        ACCESS:    8149996 HIT:    4331918 MISS:    3818078 MSHR_MERGE:     413848
cpu0->cpu0_L2C LOAD         ACCESS:    1438492 HIT:     272341 MISS:    1166151 MSHR_MERGE:       4020
cpu0->cpu0_L2C RFO          ACCESS:      18937 HIT:          1 MISS:      18936 MSHR_MERGE:          0
cpu0->cpu0_L2C PREFETCH     ACCESS:    6647112 HIT:    4016229 MISS:    2630883 MSHR_MERGE:     409828
cpu0->cpu0_L2C WRITE        ACCESS:      40929 HIT:      40927 MISS:          2 MSHR_MERGE:          0
cpu0->cpu0_L2C TRANSLATION  ACCESS:       4526 HIT:       2420 MISS:       2106 MSHR_MERGE:          0
cpu0->cpu0_L2C PREFETCH REQUESTED:    5727586 ISSUED:    5716457 USEFUL:     898222 USELESS:    1164238 LATE:       4020
cpu0->cpu0_L2C AVERAGE MISS LATENCY: 82.11 cycles
cpu0->cpu0_L1I TOTAL        ACCESS:      21844 HIT:      21844 MISS:          0 MSHR_MERGE:          0
cpu0->cpu0_L1I LOAD         ACCESS:      21844 HIT:      21844 MISS:          0 MSHR_MERGE:          0
cpu0->cpu0_L1I RFO          ACCESS:          0 HIT:          0 MISS:          0 MSHR_MERGE:          0
cpu0->cpu0_L1I PREFETCH     ACCESS:          0 HIT:          0 MISS:          0 MSHR_MERGE:          0
cpu0->cpu0_L1I WRITE        ACCESS:          0 HIT:          0 MISS:          0 MSHR_MERGE:          0
cpu0->cpu0_L1I TRANSLATION  ACCESS:          0 HIT:          0 MISS:          0 MSHR_MERGE:          0
cpu0->cpu0_L1I PREFETCH REQUESTED:          0 ISSUED:          0 USEFUL:          0 USELESS:          0 LATE:          0
cpu0->cpu0_L1I AVERAGE MISS LATENCY: - cycles
cpu0->cpu0_L1D TOTAL        ACCESS:   16060854 HIT:   13415634 MISS:    2645220 MSHR_MERGE:     252627
cpu0->cpu0_L1D LOAD         ACCESS:   13713930 HIT:   12072694 MISS:    1641236 MSHR_MERGE:     202745
cpu0->cpu0_L1D RFO          ACCESS:          0 HIT:          0 MISS:          0 MSHR_MERGE:          0
cpu0->cpu0_L1D PREFETCH     ACCESS:    1003522 HIT:      66736 MISS:     936786 MSHR_MERGE:       6147
cpu0->cpu0_L1D WRITE        ACCESS:    1317600 HIT:    1254928 MISS:      62672 MSHR_MERGE:      43735
cpu0->cpu0_L1D TRANSLATION  ACCESS:      25802 HIT:      21276 MISS:       4526 MSHR_MERGE:          0
cpu0->cpu0_L1D PREFETCH REQUESTED:    1003580 ISSUED:    1003521 USEFUL:     752226 USELESS:     178475 LATE:       9541
cpu0->cpu0_L1D AVERAGE MISS LATENCY: 75.64 cycles
cpu0->cpu0_ITLB TOTAL        ACCESS:      18911 HIT:      18911 MISS:          0 MSHR_MERGE:          0
cpu0->cpu0_ITLB LOAD         ACCESS:      18911 HIT:      18911 MISS:          0 MSHR_MERGE:          0
cpu0->cpu0_ITLB RFO          ACCESS:          0 HIT:          0 MISS:          0 MSHR_MERGE:          0
cpu0->cpu0_ITLB PREFETCH     ACCESS:          0 HIT:          0 MISS:          0 MSHR_MERGE:          0
cpu0->cpu0_ITLB WRITE        ACCESS:          0 HIT:          0 MISS:          0 MSHR_MERGE:          0
cpu0->cpu0_ITLB TRANSLATION  ACCESS:          0 HIT:          0 MISS:          0 MSHR_MERGE:          0
cpu0->cpu0_ITLB PREFETCH REQUESTED:          0 ISSUED:          0 USEFUL:          0 USELESS:          0 LATE:          0
cpu0->cpu0_ITLB AVERAGE MISS LATENCY: - cycles
cpu0->cpu0_DTLB TOTAL        ACCESS:   15895225 HIT:   14524745 MISS:    1370480 MSHR_MERGE:     123567
cpu0->cpu0_DTLB LOAD         ACCESS:   15895225 HIT:   14524745 MISS:    1370480 MSHR_MERGE:     123567
cpu0->cpu0_DTLB RFO          ACCESS:          0 HIT:          0 MISS:          0 MSHR_MERGE:          0
cpu0->cpu0_DTLB PREFETCH     ACCESS:          0 HIT:          0 MISS:          0 MSHR_MERGE:          0
cpu0->cpu0_DTLB WRITE        ACCESS:          0 HIT:          0 MISS:          0 MSHR_MERGE:          0
cpu0->cpu0_DTLB TRANSLATION  ACCESS:          0 HIT:          0 MISS:          0 MSHR_MERGE:          0
cpu0->cpu0_DTLB PREFETCH REQUESTED:          0 ISSUED:          0 USEFUL:          0 USELESS:          0 LATE:          0
cpu0->cpu0_DTLB AVERAGE MISS LATENCY: 7.546 cycles
cpu0->LLC TOTAL        ACCESS:    3445127 HIT:    1759295 MISS:    1685832 MSHR_MERGE:          0
cpu0->LLC LOAD         ACCESS:    1162131 HIT:     781874 MISS:     380257 MSHR_MERGE:          0
cpu0->LLC RFO          ACCESS:      18936 HIT:          0 MISS:      18936 MSHR_MERGE:          0
cpu0->LLC PREFETCH     ACCESS:    2221054 HIT:     966778 MISS:    1254276 MSHR_MERGE:          0
cpu0->LLC WRITE        ACCESS:      40900 HIT:      10483 MISS:      30417 MSHR_MERGE:          0
cpu0->LLC TRANSLATION  ACCESS:       2106 HIT:        160 MISS:       1946 MSHR_MERGE:          0
cpu0->LLC PREFETCH REQUESTED:          0 ISSUED:          0 USEFUL:          0 USELESS:          0 LATE:          0
cpu0->LLC AVERAGE MISS LATENCY: 183.2 cycles

DRAM Statistics

Channel 0 RQ ROW_BUFFER_HIT:      16457
  ROW_BUFFER_MISS:    1638954
  AVG DBUS CONGESTED CYCLE: 12.77
Channel 0 WQ ROW_BUFFER_HIT:      14482
  ROW_BUFFER_MISS:      26643
  FULL:          0
Channel 0 REFRESHES ISSUED:      11949

[ROI Statistics]
[System Configuration]
num_cpus 1
cpu_freq 4000
fetch_width 6
decode_width 6
dispatch_width 6
execute_width 6
lq_width 2
sq_width 2
retire_width 6
scheduler_size 160
branch_mispredict_penalty 1
rob_size 352
lq_size 240
sq_size 112
ifetch_buffer_size 64
decode_buffer_size 32
dispatch_buffer_size 32
register_file_size 288
decode_latency 1
dispatch_latency 1
schedule_latency 0
execute_latency 0
page_size 4096
block_size 64
core_0_itlb_set 16
core_0_itlb_way 4
core_0_itlb_rq_size 16
core_0_itlb_wq_size 16
core_0_itlb_pq_size 0
core_0_itlb_mshr_size 8
core_0_itlb_hit_latency 1
core_0_itlb_fill_latency 1
core_0_itlb_max_tag_check 2
core_0_itlb_max_fill 2
core_0_dtlb_set 16
core_0_dtlb_way 4
core_0_dtlb_rq_size 16
core_0_dtlb_wq_size 16
core_0_dtlb_pq_size 0
core_0_dtlb_mshr_size 8
core_0_dtlb_hit_latency 1
core_0_dtlb_fill_latency 1
core_0_dtlb_max_tag_check 2
core_0_dtlb_max_fill 2
core_0_stlb_set 128
core_0_stlb_way 12
core_0_stlb_rq_size 32
core_0_stlb_wq_size 32
core_0_stlb_pq_size 0
core_0_stlb_mshr_size 16
core_0_stlb_hit_latency 4
core_0_stlb_fill_latency 4
core_0_stlb_max_tag_check 1
core_0_stlb_max_fill 1
core_0_l1i_set 64
core_0_l1i_way 8
core_0_l1i_rq_size 64
core_0_l1i_wq_size 64
core_0_l1i_pq_size 32
core_0_l1i_mshr_size 8
core_0_l1i_hit_latency 2
core_0_l1i_fill_latency 2
core_0_l1i_max_tag_check 2
core_0_l1i_max_fill 2
core_0_l1d_set 64
core_0_l1d_way 12
core_0_l1d_rq_size 64
core_0_l1d_wq_size 64
core_0_l1d_pq_size 8
core_0_l1d_mshr_size 16
core_0_l1d_hit_latency 2
core_0_l1d_fill_latency 3
core_0_l1d_max_tag_check 2
core_0_l1d_max_fill 2
core_0_l2c_set 1024
core_0_l2c_way 8
core_0_l2c_rq_size 32
core_0_l2c_wq_size 32
core_0_l2c_pq_size 16
core_0_l2c_mshr_size 32
core_0_l2c_hit_latency 5
core_0_l2c_fill_latency 5
core_0_l2c_max_tag_check 1
core_0_l2c_max_fill 1
llc_set 2048
llc_way 16
llc_rq_size 32
llc_wq_size 32
llc_pq_size 32
llc_mshr_size 64
llc_hit_latency 10
llc_fill_latency 10
llc_max_tag_check 1
llc_max_fill 1
dram_channels 1
dram_ranks 1
dram_bankgroups 8
dram_banks 4
dram_rows 16384
dram_columns 1024
dram_channel_width 8
dram_rq_size 64
dram_wq_size 64
dram_size 4294967296
core_0_itlb_prefetcher no
core_0_dtlb_prefetcher no
core_0_stlb_prefetcher no
core_0_l1i_prefetcher next_line
core_0_l1d_prefetcher berti
core_0_l2c_prefetcher pythia
llc_prefetcher no
llc_replacement drrip

Core_0_instructions 50000002
Core_0_cycles 143382745
Core_0_IPC 0.348717
Core_0_branch_prediction_accuracy 81.5554
Core_0_branch_MPKI 50.83
Core_0_average_ROB_occupancy_at_mispredict 10.1798

Core_0_ITLB_total_access 18911
Core_0_ITLB_total_hit 18911
Core_0_ITLB_total_miss 0
Core_0_ITLB_total_MPKI 0
Core_0_ITLB_total_miss_rate 0
Core_0_ITLB_demand_access 18911
Core_0_ITLB_demand_hit 18911
Core_0_ITLB_demand_miss 0
Core_0_ITLB_demand_MPKI 0
Core_0_ITLB_demand_miss_rate 0
Core_0_ITLB_load_access 18911
Core_0_ITLB_load_hit 18911
Core_0_ITLB_load_miss 0
Core_0_ITLB_load_MPKI 0
Core_0_ITLB_load_miss_rate 0
Core_0_ITLB_rfo_access 0
Core_0_ITLB_rfo_hit 0
Core_0_ITLB_rfo_miss 0
Core_0_ITLB_rfo_MPKI 0
Core_0_ITLB_rfo_miss_rate 0
Core_0_ITLB_prefetch_access 0
Core_0_ITLB_prefetch_hit 0
Core_0_ITLB_prefetch_miss 0
Core_0_ITLB_prefetch_MPKI 0
Core_0_ITLB_prefetch_miss_rate 0
Core_0_ITLB_writeback_access 0
Core_0_ITLB_writeback_hit 0
Core_0_ITLB_writeback_miss 0
Core_0_ITLB_writeback_MPKI 0
Core_0_ITLB_writeback_miss_rate 0
Core_0_ITLB_prefetch_requested 0
Core_0_ITLB_prefetch_issued 0
Core_0_ITLB_prefetch_useful 0
Core_0_ITLB_prefetch_useless 0
Core_0_ITLB_prefetch_late 0
Core_0_ITLB_prefetch_accuracy 0
Core_0_ITLB_prefetch_coverage 0

Core_0_DTLB_total_access 15895225
Core_0_DTLB_total_hit 14524745
Core_0_DTLB_total_miss 1370480
Core_0_DTLB_total_MPKI 27.4096
Core_0_DTLB_total_miss_rate 0.0862196
Core_0_DTLB_demand_access 15895225
Core_0_DTLB_demand_hit 14524745
Core_0_DTLB_demand_miss 1370480
Core_0_DTLB_demand_MPKI 27.4096
Core_0_DTLB_demand_miss_rate 0.0862196
Core_0_DTLB_load_access 15895225
Core_0_DTLB_load_hit 14524745
Core_0_DTLB_load_miss 1370480
Core_0_DTLB_load_MPKI 27.4096
Core_0_DTLB_load_miss_rate 0.0862196
Core_0_DTLB_rfo_access 0
Core_0_DTLB_rfo_hit 0
Core_0_DTLB_rfo_miss 0
Core_0_DTLB_rfo_MPKI 0
Core_0_DTLB_rfo_miss_rate 0
Core_0_DTLB_prefetch_access 0
Core_0_DTLB_prefetch_hit 0
Core_0_DTLB_prefetch_miss 0
Core_0_DTLB_prefetch_MPKI 0
Core_0_DTLB_prefetch_miss_rate 0
Core_0_DTLB_writeback_access 0
Core_0_DTLB_writeback_hit 0
Core_0_DTLB_writeback_miss 0
Core_0_DTLB_writeback_MPKI 0
Core_0_DTLB_writeback_miss_rate 0
Core_0_DTLB_prefetch_requested 0
Core_0_DTLB_prefetch_issued 0
Core_0_DTLB_prefetch_useful 0
Core_0_DTLB_prefetch_useless 0
Core_0_DTLB_prefetch_late 0
Core_0_DTLB_prefetch_accuracy 0
Core_0_DTLB_prefetch_coverage 0

Core_0_STLB_total_access 1246913
Core_0_STLB_total_hit 1234025
Core_0_STLB_total_miss 12888
Core_0_STLB_total_MPKI 0.25776
Core_0_STLB_total_miss_rate 0.0103359
Core_0_STLB_demand_access 1246913
Core_0_STLB_demand_hit 1234025
Core_0_STLB_demand_miss 12888
Core_0_STLB_demand_MPKI 0.25776
Core_0_STLB_demand_miss_rate 0.0103359
Core_0_STLB_load_access 1246913
Core_0_STLB_load_hit 1234025
Core_0_STLB_load_miss 12888
Core_0_STLB_load_MPKI 0.25776
Core_0_STLB_load_miss_rate 0.0103359
Core_0_STLB_rfo_access 0
Core_0_STLB_rfo_hit 0
Core_0_STLB_rfo_miss 0
Core_0_STLB_rfo_MPKI 0
Core_0_STLB_rfo_miss_rate 0
Core_0_STLB_prefetch_access 0
Core_0_STLB_prefetch_hit 0
Core_0_STLB_prefetch_miss 0
Core_0_STLB_prefetch_MPKI 0
Core_0_STLB_prefetch_miss_rate 0
Core_0_STLB_writeback_access 0
Core_0_STLB_writeback_hit 0
Core_0_STLB_writeback_miss 0
Core_0_STLB_writeback_MPKI 0
Core_0_STLB_writeback_miss_rate 0
Core_0_STLB_prefetch_requested 0
Core_0_STLB_prefetch_issued 0
Core_0_STLB_prefetch_useful 0
Core_0_STLB_prefetch_useless 0
Core_0_STLB_prefetch_late 0
Core_0_STLB_prefetch_accuracy 0
Core_0_STLB_prefetch_coverage 0

Core_0_L1I_total_access 21844
Core_0_L1I_total_hit 21844
Core_0_L1I_total_miss 0
Core_0_L1I_total_MPKI 0
Core_0_L1I_total_miss_rate 0
Core_0_L1I_demand_access 21844
Core_0_L1I_demand_hit 21844
Core_0_L1I_demand_miss 0
Core_0_L1I_demand_MPKI 0
Core_0_L1I_demand_miss_rate 0
Core_0_L1I_load_access 21844
Core_0_L1I_load_hit 21844
Core_0_L1I_load_miss 0
Core_0_L1I_load_MPKI 0
Core_0_L1I_load_miss_rate 0
Core_0_L1I_rfo_access 0
Core_0_L1I_rfo_hit 0
Core_0_L1I_rfo_miss 0
Core_0_L1I_rfo_MPKI 0
Core_0_L1I_rfo_miss_rate 0
Core_0_L1I_prefetch_access 0
Core_0_L1I_prefetch_hit 0
Core_0_L1I_prefetch_miss 0
Core_0_L1I_prefetch_MPKI 0
Core_0_L1I_prefetch_miss_rate 0
Core_0_L1I_writeback_access 0
Core_0_L1I_writeback_hit 0
Core_0_L1I_writeback_miss 0
Core_0_L1I_writeback_MPKI 0
Core_0_L1I_writeback_miss_rate 0
Core_0_L1I_prefetch_requested 0
Core_0_L1I_prefetch_issued 0
Core_0_L1I_prefetch_useful 0
Core_0_L1I_prefetch_useless 0
Core_0_L1I_prefetch_late 0
Core_0_L1I_prefetch_accuracy 0
Core_0_L1I_prefetch_coverage 0

Core_0_L1D_total_access 16035052
Core_0_L1D_total_hit 13394358
Core_0_L1D_total_miss 2640694
Core_0_L1D_total_MPKI 52.8139
Core_0_L1D_total_miss_rate 0.164683
Core_0_L1D_demand_access 13713930
Core_0_L1D_demand_hit 12072694
Core_0_L1D_demand_miss 1641236
Core_0_L1D_demand_MPKI 32.8247
Core_0_L1D_demand_miss_rate 0.119677
Core_0_L1D_load_access 13713930
Core_0_L1D_load_hit 12072694
Core_0_L1D_load_miss 1641236
Core_0_L1D_load_MPKI 32.8247
Core_0_L1D_load_miss_rate 0.119677
Core_0_L1D_rfo_access 0
Core_0_L1D_rfo_hit 0
Core_0_L1D_rfo_miss 0
Core_0_L1D_rfo_MPKI 0
Core_0_L1D_rfo_miss_rate 0
Core_0_L1D_prefetch_access 1003522
Core_0_L1D_prefetch_hit 66736
Core_0_L1D_prefetch_miss 936786
Core_0_L1D_prefetch_MPKI 18.7357
Core_0_L1D_prefetch_miss_rate 0.933498
Core_0_L1D_writeback_access 1317600
Core_0_L1D_writeback_hit 1254928
Core_0_L1D_writeback_miss 62672
Core_0_L1D_writeback_MPKI 1.25344
Core_0_L1D_writeback_miss_rate 0.0475653
Core_0_L1D_prefetch_requested 1003580
Core_0_L1D_prefetch_issued 1003521
Core_0_L1D_prefetch_useful 752226
Core_0_L1D_prefetch_useless 178475
Core_0_L1D_prefetch_late 9541
Core_0_L1D_prefetch_accuracy 0.749587
Core_0_L1D_prefetch_coverage 0.314284

Core_0_L2C_total_access 8145470
Core_0_L2C_total_hit 4329498
Core_0_L2C_total_miss 3815972
Core_0_L2C_total_MPKI 76.3194
Core_0_L2C_total_miss_rate 0.468478
Core_0_L2C_demand_access 1457429
Core_0_L2C_demand_hit 272342
Core_0_L2C_demand_miss 1185087
Core_0_L2C_demand_MPKI 23.7017
Core_0_L2C_demand_miss_rate 0.813135
Core_0_L2C_load_access 1438492
Core_0_L2C_load_hit 272341
Core_0_L2C_load_miss 1166151
Core_0_L2C_load_MPKI 23.323
Core_0_L2C_load_miss_rate 0.810676
Core_0_L2C_rfo_access 18937
Core_0_L2C_rfo_hit 1
Core_0_L2C_rfo_miss 18936
Core_0_L2C_rfo_MPKI 0.37872
Core_0_L2C_rfo_miss_rate 0.999947
Core_0_L2C_prefetch_access 6647112
Core_0_L2C_prefetch_hit 4016229
Core_0_L2C_prefetch_miss 2630883
Core_0_L2C_prefetch_MPKI 52.6177
Core_0_L2C_prefetch_miss_rate 0.395793
Core_0_L2C_writeback_access 40929
Core_0_L2C_writeback_hit 40927
Core_0_L2C_writeback_miss 2
Core_0_L2C_writeback_MPKI 4e-05
Core_0_L2C_writeback_miss_rate 4.88651e-05
Core_0_L2C_prefetch_requested 5727586
Core_0_L2C_prefetch_issued 5716457
Core_0_L2C_prefetch_useful 898222
Core_0_L2C_prefetch_useless 1164238
Core_0_L2C_prefetch_late 4020
Core_0_L2C_prefetch_accuracy 0.157129
Core_0_L2C_prefetch_coverage 0.431152

Core_0_LLC_total_access 3443021
Core_0_LLC_total_hit 1759135
Core_0_LLC_total_miss 1683886
Core_0_LLC_total_MPKI 33.6777
Core_0_LLC_total_miss_rate 0.489072
Core_0_LLC_demand_access 1181067
Core_0_LLC_demand_hit 781874
Core_0_LLC_demand_miss 399193
Core_0_LLC_demand_MPKI 7.98386
Core_0_LLC_demand_miss_rate 0.337994
Core_0_LLC_load_access 1162131
Core_0_LLC_load_hit 781874
Core_0_LLC_load_miss 380257
Core_0_LLC_load_MPKI 7.60514
Core_0_LLC_load_miss_rate 0.327207
Core_0_LLC_rfo_access 18936
Core_0_LLC_rfo_hit 0
Core_0_LLC_rfo_miss 18936
Core_0_LLC_rfo_MPKI 0.37872
Core_0_LLC_rfo_miss_rate 1
Core_0_LLC_prefetch_access 2221054
Core_0_LLC_prefetch_hit 966778
Core_0_LLC_prefetch_miss 1254276
Core_0_LLC_prefetch_MPKI 25.0855
Core_0_LLC_prefetch_miss_rate 0.564721
Core_0_LLC_writeback_access 40900
Core_0_LLC_writeback_hit 10483
Core_0_LLC_writeback_miss 30417
Core_0_LLC_writeback_MPKI 0.60834
Core_0_LLC_writeback_miss_rate 0.743692
Core_0_LLC_prefetch_requested 0
Core_0_LLC_prefetch_issued 0
Core_0_LLC_prefetch_useful 0
Core_0_LLC_prefetch_useless 0
Core_0_LLC_prefetch_late 0
Core_0_LLC_prefetch_accuracy 0
Core_0_LLC_prefetch_coverage 0

[DRAM Statistics]
Channel_0_RQ_row_buffer_hit 16457
Channel_0_RQ_row_buffer_miss 1638954
Channel_0_WQ_row_buffer_hit 14482
Channel_0_WQ_row_buffer_miss 26643
Channel_0_WQ_full 0
Channel_0_dbus_congested 2371051
DRAM_total_RQ_row_buffer_hit 16457
DRAM_total_RQ_row_buffer_miss 1638954
DRAM_total_WQ_row_buffer_hit 14482
DRAM_total_WQ_row_buffer_miss 26643
DRAM_total_WQ_full 0
DRAM_total_dbus_congested 2371051
DRAM_avg_congested_cycle 12.7733

======STLB miss causes ========
Core_0_STLB_miss_cause_breakdown
Core_0_STLB_cause_Demand_Data_miss 9014
Core_0_STLB_cause_Demand_Data_miss_rate 0.00722905
Core_0_STLB_cause_Demand_Instruction_miss 0
Core_0_STLB_cause_Demand_Instruction_miss_rate 0
Core_0_STLB_cause_L1D_Prefetch_miss 3874
Core_0_STLB_cause_L1D_Prefetch_miss_rate 0.00310687
Core_0_STLB_cause_L1I_Prefetch_miss 0
Core_0_STLB_cause_L1I_Prefetch_miss_rate 0
Core_0_STLB_cause_Other_miss 0
Core_0_STLB_cause_Other_miss_rate 0
Core_0_STLB_Demand_miss 9014
Core_0_STLB_Demand_miss_rate 0.00722905
Core_0_STLB_L1D_Prefetch_miss 3874
Core_0_STLB_L1D_Prefetch_miss_rate 0.00310687
Core_0_STLB_Other_miss 0
Core_0_STLB_Other_miss_rate 0
