[VMEM] WARNING: physical memory size is smaller than virtual memory size.

*** ChampSim Multicore Out-of-Order Simulator ***
Warmup Instructions: 50000000
Simulation Instructions: 100000000
Number of CPUs: 1
Page size: 4096
STLB ideal mode: l1pref
STLB ideal fill: on
Core 0: /data0/tzh/champsim_traces/SPEC06/429.mcf-51B.champsimtrace.xz
VBerti Prefetcher
BERTI HASH ENTANGLING
BERTI IP MASK ffff
Off-chip DRAM Size: 16 GiB Channels: 1 Width: 64-bit Data Rate: 3205 MT/s
Warmup halting CPU 0 at instruction 50000000 cycle 14152867 for remainder of phase
Warmup finished CPU 0 instructions: 50000000 cycles: 14152867 cumulative IPC: 3.533 (Simulation time: 00 hr 03 min 56 sec)
Warmup complete CPU 0 instructions: 50000000 cycles: 14152867 cumulative IPC: 3.533 (Simulation time: 00 hr 03 min 56 sec)
Simulation CPU 0 warning: IPC 0.042234 < 0.05
Simulation finished CPU 0 instructions: 100000002 cycles: 631022425 cumulative IPC: 0.1585 (Simulation time: 01 hr 08 min 44 sec)
Simulation complete CPU 0 instructions: 100000002 cycles: 631022425 cumulative IPC: 0.1585 (Simulation time: 01 hr 08 min 44 sec)

ChampSim completed all CPUs

=== Simulation ===
CPU 0 runs /data0/tzh/champsim_traces/SPEC06/429.mcf-51B.champsimtrace.xz

Region of Interest Statistics

CPU 0 cumulative IPC: 0.1585 instructions: 100000002 cycles: 631022425
CPU 0 Branch Prediction Accuracy: 94.42% MPKI: 13.38 Average ROB Occupancy at Mispredict: 50.25
Branch type MPKI
BRANCH_DIRECT_JUMP: 0.7003
BRANCH_INDIRECT: 0
BRANCH_CONDITIONAL: 12.68
BRANCH_DIRECT_CALL: 0
BRANCH_INDIRECT_CALL: 0
BRANCH_RETURN: 0

cpu0->cpu0_STLB TOTAL        ACCESS:    7970259 HIT:    6919874 MISS:    1050385 MSHR_MERGE:          0
cpu0->cpu0_STLB LOAD         ACCESS:    7970259 HIT:    6919874 MISS:    1050385 MSHR_MERGE:          0
cpu0->cpu0_STLB RFO          ACCESS:          0 HIT:          0 MISS:          0 MSHR_MERGE:          0
cpu0->cpu0_STLB PREFETCH     ACCESS:          0 HIT:          0 MISS:          0 MSHR_MERGE:          0
cpu0->cpu0_STLB WRITE        ACCESS:          0 HIT:          0 MISS:          0 MSHR_MERGE:          0
cpu0->cpu0_STLB TRANSLATION  ACCESS:          0 HIT:          0 MISS:          0 MSHR_MERGE:          0
cpu0->cpu0_STLB PREFETCH REQUESTED:          0 ISSUED:          0 USEFUL:          0 USELESS:          0 LATE:          0
cpu0->cpu0_STLB AVERAGE MISS LATENCY: 114.8 cycles
cpu0->cpu0_L2C TOTAL        ACCESS:   13833077 HIT:    6570026 MISS:    7263051 MSHR_MERGE:       4651
cpu0->cpu0_L2C LOAD         ACCESS:    9731472 HIT:    3169760 MISS:    6561712 MSHR_MERGE:        275
cpu0->cpu0_L2C RFO          ACCESS:     319603 HIT:     174406 MISS:     145197 MSHR_MERGE:          0
cpu0->cpu0_L2C PREFETCH     ACCESS:     406834 HIT:     354396 MISS:      52438 MSHR_MERGE:       4376
cpu0->cpu0_L2C WRITE        ACCESS:    2414136 HIT:    2413876 MISS:        260 MSHR_MERGE:          0
cpu0->cpu0_L2C TRANSLATION  ACCESS:     961032 HIT:     457588 MISS:     503444 MSHR_MERGE:          0
cpu0->cpu0_L2C PREFETCH REQUESTED:      44089 ISSUED:      44089 USEFUL:       5711 USELESS:       9647 LATE:        215
cpu0->cpu0_L2C AVERAGE MISS LATENCY: 195.4 cycles
cpu0->cpu0_L1I TOTAL        ACCESS:    3277348 HIT:    3277348 MISS:          0 MSHR_MERGE:          0
cpu0->cpu0_L1I LOAD         ACCESS:    3277348 HIT:    3277348 MISS:          0 MSHR_MERGE:          0
cpu0->cpu0_L1I RFO          ACCESS:          0 HIT:          0 MISS:          0 MSHR_MERGE:          0
cpu0->cpu0_L1I PREFETCH     ACCESS:          0 HIT:          0 MISS:          0 MSHR_MERGE:          0
cpu0->cpu0_L1I WRITE        ACCESS:          0 HIT:          0 MISS:          0 MSHR_MERGE:          0
cpu0->cpu0_L1I TRANSLATION  ACCESS:          0 HIT:          0 MISS:          0 MSHR_MERGE:          0
cpu0->cpu0_L1I PREFETCH REQUESTED:          0 ISSUED:          0 USEFUL:          0 USELESS:          0 LATE:          0
cpu0->cpu0_L1I AVERAGE MISS LATENCY: - cycles
cpu0->cpu0_L1D TOTAL        ACCESS:   35733416 HIT:   20740538 MISS:   14992878 MSHR_MERGE:    3611001
cpu0->cpu0_L1D LOAD         ACCESS:   24923912 HIT:   11830357 MISS:   13093555 MSHR_MERGE:    3362017
cpu0->cpu0_L1D RFO          ACCESS:          0 HIT:          0 MISS:          0 MSHR_MERGE:          0
cpu0->cpu0_L1D PREFETCH     ACCESS:    3510473 HIT:    3131384 MISS:     379089 MSHR_MERGE:       9392
cpu0->cpu0_L1D WRITE        ACCESS:    4884403 HIT:    4335399 MISS:     549004 MSHR_MERGE:     229394
cpu0->cpu0_L1D TRANSLATION  ACCESS:    2414628 HIT:    1443398 MISS:     971230 MSHR_MERGE:      10198
cpu0->cpu0_L1D PREFETCH REQUESTED:    4081824 ISSUED:    3510473 USEFUL:      23026 USELESS:      42767 LATE:        808
cpu0->cpu0_L1D AVERAGE MISS LATENCY: 136.7 cycles
cpu0->cpu0_ITLB TOTAL        ACCESS:    3016811 HIT:    3016811 MISS:          0 MSHR_MERGE:          0
cpu0->cpu0_ITLB LOAD         ACCESS:    3016811 HIT:    3016811 MISS:          0 MSHR_MERGE:          0
cpu0->cpu0_ITLB RFO          ACCESS:          0 HIT:          0 MISS:          0 MSHR_MERGE:          0
cpu0->cpu0_ITLB PREFETCH     ACCESS:          0 HIT:          0 MISS:          0 MSHR_MERGE:          0
cpu0->cpu0_ITLB WRITE        ACCESS:          0 HIT:          0 MISS:          0 MSHR_MERGE:          0
cpu0->cpu0_ITLB TRANSLATION  ACCESS:          0 HIT:          0 MISS:          0 MSHR_MERGE:          0
cpu0->cpu0_ITLB PREFETCH REQUESTED:          0 ISSUED:          0 USEFUL:          0 USELESS:          0 LATE:          0
cpu0->cpu0_ITLB AVERAGE MISS LATENCY: - cycles
cpu0->cpu0_DTLB TOTAL        ACCESS:   31736972 HIT:   19184461 MISS:   12552511 MSHR_MERGE:    4582253
cpu0->cpu0_DTLB LOAD         ACCESS:   31736972 HIT:   19184461 MISS:   12552511 MSHR_MERGE:    4582253
cpu0->cpu0_DTLB RFO          ACCESS:          0 HIT:          0 MISS:          0 MSHR_MERGE:          0
cpu0->cpu0_DTLB PREFETCH     ACCESS:          0 HIT:          0 MISS:          0 MSHR_MERGE:          0
cpu0->cpu0_DTLB WRITE        ACCESS:          0 HIT:          0 MISS:          0 MSHR_MERGE:          0
cpu0->cpu0_DTLB TRANSLATION  ACCESS:          0 HIT:          0 MISS:          0 MSHR_MERGE:          0
cpu0->cpu0_DTLB PREFETCH REQUESTED:          0 ISSUED:          0 USEFUL:          0 USELESS:          0 LATE:          0
cpu0->cpu0_DTLB AVERAGE MISS LATENCY: 20.26 cycles
cpu0->LLC TOTAL        ACCESS:    8796051 HIT:    2275809 MISS:    6520242 MSHR_MERGE:         12
cpu0->LLC LOAD         ACCESS:    6561436 HIT:    1295098 MISS:    5266338 MSHR_MERGE:          0
cpu0->LLC RFO          ACCESS:     145197 HIT:      48664 MISS:      96533 MSHR_MERGE:          0
cpu0->LLC PREFETCH     ACCESS:      48062 HIT:       7755 MISS:      40307 MSHR_MERGE:         12
cpu0->LLC WRITE        ACCESS:    1537912 HIT:     781680 MISS:     756232 MSHR_MERGE:          0
cpu0->LLC TRANSLATION  ACCESS:     503444 HIT:     142612 MISS:     360832 MSHR_MERGE:          0
cpu0->LLC PREFETCH REQUESTED:          0 ISSUED:          0 USEFUL:          0 USELESS:          0 LATE:          0
cpu0->LLC AVERAGE MISS LATENCY: 200.9 cycles

DRAM Statistics

Channel 0 RQ ROW_BUFFER_HIT:       8444
  ROW_BUFFER_MISS:    5754754
  AVG DBUS CONGESTED CYCLE: 8.682
Channel 0 WQ ROW_BUFFER_HIT:     374470
  ROW_BUFFER_MISS:     888141
  FULL:          0
Channel 0 REFRESHES ISSUED:      52585

[ROI Statistics]
[System Configuration]
num_cpus 1
cpu_freq 4000
fetch_width 6
decode_width 6
dispatch_width 6
execute_width 6
lq_width 2
sq_width 2
retire_width 6
scheduler_size 128
branch_mispredict_penalty 15
rob_size 352
lq_size 128
sq_size 72
ifetch_buffer_size 64
decode_buffer_size 32
dispatch_buffer_size 32
register_file_size 288
decode_latency 1
dispatch_latency 1
schedule_latency 1
execute_latency 1
page_size 4096
block_size 64
core_0_itlb_set 16
core_0_itlb_way 4
core_0_itlb_rq_size 16
core_0_itlb_wq_size 16
core_0_itlb_pq_size 0
core_0_itlb_mshr_size 8
core_0_itlb_hit_latency 1
core_0_itlb_fill_latency 1
core_0_itlb_max_tag_check 2
core_0_itlb_max_fill 2
core_0_dtlb_set 16
core_0_dtlb_way 4
core_0_dtlb_rq_size 16
core_0_dtlb_wq_size 16
core_0_dtlb_pq_size 0
core_0_dtlb_mshr_size 8
core_0_dtlb_hit_latency 1
core_0_dtlb_fill_latency 1
core_0_dtlb_max_tag_check 2
core_0_dtlb_max_fill 2
core_0_stlb_set 128
core_0_stlb_way 12
core_0_stlb_rq_size 32
core_0_stlb_wq_size 32
core_0_stlb_pq_size 0
core_0_stlb_mshr_size 16
core_0_stlb_hit_latency 4
core_0_stlb_fill_latency 4
core_0_stlb_max_tag_check 1
core_0_stlb_max_fill 1
core_0_l1i_set 64
core_0_l1i_way 8
core_0_l1i_rq_size 64
core_0_l1i_wq_size 64
core_0_l1i_pq_size 32
core_0_l1i_mshr_size 8
core_0_l1i_hit_latency 2
core_0_l1i_fill_latency 2
core_0_l1i_max_tag_check 2
core_0_l1i_max_fill 2
core_0_l1d_set 64
core_0_l1d_way 12
core_0_l1d_rq_size 64
core_0_l1d_wq_size 64
core_0_l1d_pq_size 8
core_0_l1d_mshr_size 16
core_0_l1d_hit_latency 2
core_0_l1d_fill_latency 3
core_0_l1d_max_tag_check 2
core_0_l1d_max_fill 2
core_0_l2c_set 1024
core_0_l2c_way 8
core_0_l2c_rq_size 32
core_0_l2c_wq_size 32
core_0_l2c_pq_size 16
core_0_l2c_mshr_size 32
core_0_l2c_hit_latency 5
core_0_l2c_fill_latency 5
core_0_l2c_max_tag_check 1
core_0_l2c_max_fill 1
llc_set 2048
llc_way 16
llc_rq_size 32
llc_wq_size 32
llc_pq_size 32
llc_mshr_size 64
llc_hit_latency 10
llc_fill_latency 10
llc_max_tag_check 1
llc_max_fill 1
dram_channels 1
dram_ranks 1
dram_bankgroups 8
dram_banks 4
dram_rows 65536
dram_columns 1024
dram_channel_width 8
dram_rq_size 64
dram_wq_size 64
dram_size 17179869184
core_0_itlb_prefetcher no
core_0_dtlb_prefetcher no
core_0_stlb_prefetcher no
core_0_l1i_prefetcher next_line
core_0_l1d_prefetcher vberti
core_0_l2c_prefetcher ip_stride
llc_prefetcher no
llc_replacement drrip

Core_0_instructions 100000002
Core_0_cycles 631022425
Core_0_IPC 0.158473
Core_0_branch_prediction_accuracy 94.423
Core_0_branch_MPKI 13.38
Core_0_average_ROB_occupancy_at_mispredict 50.2526

Core_0_ITLB_total_access 3016811
Core_0_ITLB_total_hit 3016811
Core_0_ITLB_total_miss 0
Core_0_ITLB_total_MPKI 0
Core_0_ITLB_total_miss_rate 0
Core_0_ITLB_demand_access 3016811
Core_0_ITLB_demand_hit 3016811
Core_0_ITLB_demand_miss 0
Core_0_ITLB_demand_MPKI 0
Core_0_ITLB_demand_miss_rate 0
Core_0_ITLB_load_access 3016811
Core_0_ITLB_load_hit 3016811
Core_0_ITLB_load_miss 0
Core_0_ITLB_load_MPKI 0
Core_0_ITLB_load_miss_rate 0
Core_0_ITLB_rfo_access 0
Core_0_ITLB_rfo_hit 0
Core_0_ITLB_rfo_miss 0
Core_0_ITLB_rfo_MPKI 0
Core_0_ITLB_rfo_miss_rate 0
Core_0_ITLB_prefetch_access 0
Core_0_ITLB_prefetch_hit 0
Core_0_ITLB_prefetch_miss 0
Core_0_ITLB_prefetch_MPKI 0
Core_0_ITLB_prefetch_miss_rate 0
Core_0_ITLB_writeback_access 0
Core_0_ITLB_writeback_hit 0
Core_0_ITLB_writeback_miss 0
Core_0_ITLB_writeback_MPKI 0
Core_0_ITLB_writeback_miss_rate 0
Core_0_ITLB_prefetch_requested 0
Core_0_ITLB_prefetch_issued 0
Core_0_ITLB_prefetch_useful 0
Core_0_ITLB_prefetch_useless 0
Core_0_ITLB_prefetch_late 0
Core_0_ITLB_prefetch_accuracy 0
Core_0_ITLB_prefetch_coverage 0
Core_0_ITLB_total_eviction 0

Core_0_DTLB_total_access 31736972
Core_0_DTLB_total_hit 19184461
Core_0_DTLB_total_miss 12552511
Core_0_DTLB_total_MPKI 125.525
Core_0_DTLB_total_miss_rate 0.395517
Core_0_DTLB_demand_access 31736972
Core_0_DTLB_demand_hit 19184461
Core_0_DTLB_demand_miss 12552511
Core_0_DTLB_demand_MPKI 125.525
Core_0_DTLB_demand_miss_rate 0.395517
Core_0_DTLB_load_access 31736972
Core_0_DTLB_load_hit 19184461
Core_0_DTLB_load_miss 12552511
Core_0_DTLB_load_MPKI 125.525
Core_0_DTLB_load_miss_rate 0.395517
Core_0_DTLB_rfo_access 0
Core_0_DTLB_rfo_hit 0
Core_0_DTLB_rfo_miss 0
Core_0_DTLB_rfo_MPKI 0
Core_0_DTLB_rfo_miss_rate 0
Core_0_DTLB_prefetch_access 0
Core_0_DTLB_prefetch_hit 0
Core_0_DTLB_prefetch_miss 0
Core_0_DTLB_prefetch_MPKI 0
Core_0_DTLB_prefetch_miss_rate 0
Core_0_DTLB_writeback_access 0
Core_0_DTLB_writeback_hit 0
Core_0_DTLB_writeback_miss 0
Core_0_DTLB_writeback_MPKI 0
Core_0_DTLB_writeback_miss_rate 0
Core_0_DTLB_prefetch_requested 0
Core_0_DTLB_prefetch_issued 0
Core_0_DTLB_prefetch_useful 0
Core_0_DTLB_prefetch_useless 0
Core_0_DTLB_prefetch_late 0
Core_0_DTLB_prefetch_accuracy 0
Core_0_DTLB_prefetch_coverage 0
Core_0_DTLB_total_eviction 7970259

Core_0_STLB_total_access 7970259
Core_0_STLB_total_hit 6919874
Core_0_STLB_total_miss 1050385
Core_0_STLB_total_MPKI 10.5038
Core_0_STLB_total_miss_rate 0.131788
Core_0_STLB_demand_access 7970259
Core_0_STLB_demand_hit 6919874
Core_0_STLB_demand_miss 1050385
Core_0_STLB_demand_MPKI 10.5038
Core_0_STLB_demand_miss_rate 0.131788
Core_0_STLB_load_access 7970259
Core_0_STLB_load_hit 6919874
Core_0_STLB_load_miss 1050385
Core_0_STLB_load_MPKI 10.5038
Core_0_STLB_load_miss_rate 0.131788
Core_0_STLB_rfo_access 0
Core_0_STLB_rfo_hit 0
Core_0_STLB_rfo_miss 0
Core_0_STLB_rfo_MPKI 0
Core_0_STLB_rfo_miss_rate 0
Core_0_STLB_prefetch_access 0
Core_0_STLB_prefetch_hit 0
Core_0_STLB_prefetch_miss 0
Core_0_STLB_prefetch_MPKI 0
Core_0_STLB_prefetch_miss_rate 0
Core_0_STLB_writeback_access 0
Core_0_STLB_writeback_hit 0
Core_0_STLB_writeback_miss 0
Core_0_STLB_writeback_MPKI 0
Core_0_STLB_writeback_miss_rate 0
Core_0_STLB_prefetch_requested 0
Core_0_STLB_prefetch_issued 0
Core_0_STLB_prefetch_useful 0
Core_0_STLB_prefetch_useless 0
Core_0_STLB_prefetch_late 0
Core_0_STLB_prefetch_accuracy 0
Core_0_STLB_prefetch_coverage 0
Core_0_STLB_total_eviction 1052304

Core_0_L1I_total_access 3277348
Core_0_L1I_total_hit 3277348
Core_0_L1I_total_miss 0
Core_0_L1I_total_MPKI 0
Core_0_L1I_total_miss_rate 0
Core_0_L1I_demand_access 3277348
Core_0_L1I_demand_hit 3277348
Core_0_L1I_demand_miss 0
Core_0_L1I_demand_MPKI 0
Core_0_L1I_demand_miss_rate 0
Core_0_L1I_load_access 3277348
Core_0_L1I_load_hit 3277348
Core_0_L1I_load_miss 0
Core_0_L1I_load_MPKI 0
Core_0_L1I_load_miss_rate 0
Core_0_L1I_rfo_access 0
Core_0_L1I_rfo_hit 0
Core_0_L1I_rfo_miss 0
Core_0_L1I_rfo_MPKI 0
Core_0_L1I_rfo_miss_rate 0
Core_0_L1I_prefetch_access 0
Core_0_L1I_prefetch_hit 0
Core_0_L1I_prefetch_miss 0
Core_0_L1I_prefetch_MPKI 0
Core_0_L1I_prefetch_miss_rate 0
Core_0_L1I_writeback_access 0
Core_0_L1I_writeback_hit 0
Core_0_L1I_writeback_miss 0
Core_0_L1I_writeback_MPKI 0
Core_0_L1I_writeback_miss_rate 0
Core_0_L1I_prefetch_requested 0
Core_0_L1I_prefetch_issued 0
Core_0_L1I_prefetch_useful 0
Core_0_L1I_prefetch_useless 0
Core_0_L1I_prefetch_late 0
Core_0_L1I_prefetch_accuracy 0
Core_0_L1I_prefetch_coverage 0
Core_0_L1I_total_eviction 0

Core_0_L1D_total_access 33318788
Core_0_L1D_total_hit 19297140
Core_0_L1D_total_miss 14021648
Core_0_L1D_total_MPKI 140.216
Core_0_L1D_total_miss_rate 0.420833
Core_0_L1D_demand_access 24923912
Core_0_L1D_demand_hit 11830357
Core_0_L1D_demand_miss 13093555
Core_0_L1D_demand_MPKI 130.936
Core_0_L1D_demand_miss_rate 0.525341
Core_0_L1D_load_access 24923912
Core_0_L1D_load_hit 11830357
Core_0_L1D_load_miss 13093555
Core_0_L1D_load_MPKI 130.936
Core_0_L1D_load_miss_rate 0.525341
Core_0_L1D_rfo_access 0
Core_0_L1D_rfo_hit 0
Core_0_L1D_rfo_miss 0
Core_0_L1D_rfo_MPKI 0
Core_0_L1D_rfo_miss_rate 0
Core_0_L1D_prefetch_access 3510473
Core_0_L1D_prefetch_hit 3131384
Core_0_L1D_prefetch_miss 379089
Core_0_L1D_prefetch_MPKI 3.79089
Core_0_L1D_prefetch_miss_rate 0.107988
Core_0_L1D_writeback_access 4884403
Core_0_L1D_writeback_hit 4335399
Core_0_L1D_writeback_miss 549004
Core_0_L1D_writeback_MPKI 5.49004
Core_0_L1D_writeback_miss_rate 0.112399
Core_0_L1D_prefetch_requested 4081824
Core_0_L1D_prefetch_issued 3510473
Core_0_L1D_prefetch_useful 23026
Core_0_L1D_prefetch_useless 42767
Core_0_L1D_prefetch_late 808
Core_0_L1D_prefetch_accuracy 0.00655923
Core_0_L1D_prefetch_coverage 0.00175549
Core_0_L1D_total_eviction 11077972

Core_0_L2C_total_access 12872045
Core_0_L2C_total_hit 6112438
Core_0_L2C_total_miss 6759607
Core_0_L2C_total_MPKI 67.5961
Core_0_L2C_total_miss_rate 0.525139
Core_0_L2C_demand_access 10051075
Core_0_L2C_demand_hit 3344166
Core_0_L2C_demand_miss 6706909
Core_0_L2C_demand_MPKI 67.0691
Core_0_L2C_demand_miss_rate 0.667283
Core_0_L2C_load_access 9731472
Core_0_L2C_load_hit 3169760
Core_0_L2C_load_miss 6561712
Core_0_L2C_load_MPKI 65.6171
Core_0_L2C_load_miss_rate 0.674277
Core_0_L2C_rfo_access 319603
Core_0_L2C_rfo_hit 174406
Core_0_L2C_rfo_miss 145197
Core_0_L2C_rfo_MPKI 1.45197
Core_0_L2C_rfo_miss_rate 0.454304
Core_0_L2C_prefetch_access 406834
Core_0_L2C_prefetch_hit 354396
Core_0_L2C_prefetch_miss 52438
Core_0_L2C_prefetch_MPKI 0.52438
Core_0_L2C_prefetch_miss_rate 0.128893
Core_0_L2C_writeback_access 2414136
Core_0_L2C_writeback_hit 2413876
Core_0_L2C_writeback_miss 260
Core_0_L2C_writeback_MPKI 0.0026
Core_0_L2C_writeback_miss_rate 0.000107699
Core_0_L2C_prefetch_requested 44089
Core_0_L2C_prefetch_issued 44089
Core_0_L2C_prefetch_useful 5711
Core_0_L2C_prefetch_useless 9647
Core_0_L2C_prefetch_late 215
Core_0_L2C_prefetch_accuracy 0.129533
Core_0_L2C_prefetch_coverage 0.000850786
Core_0_L2C_total_eviction 7258166

Core_0_LLC_total_access 8292607
Core_0_LLC_total_hit 2133197
Core_0_LLC_total_miss 6159410
Core_0_LLC_total_MPKI 61.5941
Core_0_LLC_total_miss_rate 0.742759
Core_0_LLC_demand_access 6706633
Core_0_LLC_demand_hit 1343762
Core_0_LLC_demand_miss 5362871
Core_0_LLC_demand_MPKI 53.6287
Core_0_LLC_demand_miss_rate 0.799637
Core_0_LLC_load_access 6561436
Core_0_LLC_load_hit 1295098
Core_0_LLC_load_miss 5266338
Core_0_LLC_load_MPKI 52.6634
Core_0_LLC_load_miss_rate 0.80262
Core_0_LLC_rfo_access 145197
Core_0_LLC_rfo_hit 48664
Core_0_LLC_rfo_miss 96533
Core_0_LLC_rfo_MPKI 0.96533
Core_0_LLC_rfo_miss_rate 0.664842
Core_0_LLC_prefetch_access 48062
Core_0_LLC_prefetch_hit 7755
Core_0_LLC_prefetch_miss 40307
Core_0_LLC_prefetch_MPKI 0.40307
Core_0_LLC_prefetch_miss_rate 0.838646
Core_0_LLC_writeback_access 1537912
Core_0_LLC_writeback_hit 781680
Core_0_LLC_writeback_miss 756232
Core_0_LLC_writeback_MPKI 7.56232
Core_0_LLC_writeback_miss_rate 0.491726
Core_0_LLC_prefetch_requested 0
Core_0_LLC_prefetch_issued 0
Core_0_LLC_prefetch_useful 0
Core_0_LLC_prefetch_useless 0
Core_0_LLC_prefetch_late 0
Core_0_LLC_prefetch_accuracy 0
Core_0_LLC_prefetch_coverage 0
Core_0_LLC_total_eviction 6520230

[DRAM Statistics]
Channel_0_RQ_row_buffer_hit 8444
Channel_0_RQ_row_buffer_miss 5754754
Channel_0_WQ_row_buffer_hit 374470
Channel_0_WQ_row_buffer_miss 888141
Channel_0_WQ_full 0
Channel_0_dbus_congested 16587209
DRAM_total_RQ_row_buffer_hit 8444
DRAM_total_RQ_row_buffer_miss 5754754
DRAM_total_WQ_row_buffer_hit 374470
DRAM_total_WQ_row_buffer_miss 888141
DRAM_total_WQ_full 0
DRAM_total_dbus_congested 16587209
DRAM_avg_congested_cycle 8.68152

======STLB miss causes ========
Core_0_STLB_miss_cause_breakdown
Core_0_STLB_cause_Demand_Data_miss 1050385
Core_0_STLB_cause_Demand_Data_miss_rate 0.131788
Core_0_STLB_cause_Demand_Instruction_miss 0
Core_0_STLB_cause_Demand_Instruction_miss_rate 0
Core_0_STLB_cause_L1D_Prefetch_miss 0
Core_0_STLB_cause_L1D_Prefetch_miss_rate 0
Core_0_STLB_cause_L1I_Prefetch_miss 0
Core_0_STLB_cause_L1I_Prefetch_miss_rate 0
Core_0_STLB_cause_Other_miss 0
Core_0_STLB_cause_Other_miss_rate 0
Core_0_STLB_Demand_miss 1050385
Core_0_STLB_Demand_miss_rate 0.131788
Core_0_STLB_L1D_Prefetch_miss 0
Core_0_STLB_L1D_Prefetch_miss_rate 0
Core_0_STLB_Other_miss 0
Core_0_STLB_Other_miss_rate 0
BERTI TO_L1: 1772497 TO_L2: 3171022 TO_L2_BC_MSHR: 1821
BERTI AVG_LAT: 88.479 NUM_TRACK_LATENCY: 15274612 NUM_CANT_TRACK_LATENCY: 2
BERTI CROSS_PAGE 1185679 NO_CROSS_PAGE: 3757840
BERTI FOUND_BERTI: 31036176 NO_FOUND_BERTI: 9575171
BERTI AVERAGE_ISSUED: 1.86967
