[VMEM] WARNING: physical memory size is smaller than virtual memory size.

*** ChampSim Multicore Out-of-Order Simulator ***
Warmup Instructions: 50000000
Simulation Instructions: 100000000
Number of CPUs: 1
Page size: 4096
STLB ideal mode: l1pref
STLB ideal fill: on
Core 0: /data0/tzh/champsim_traces/SPEC06/459.GemsFDTD-1211B.champsimtrace.xz
VBerti Prefetcher
BERTI HASH ENTANGLING
BERTI IP MASK ffff
Off-chip DRAM Size: 16 GiB Channels: 1 Width: 64-bit Data Rate: 3205 MT/s
Warmup halting CPU 0 at instruction 50000001 cycle 16669947 for remainder of phase
Warmup finished CPU 0 instructions: 50000001 cycles: 16669947 cumulative IPC: 2.999 (Simulation time: 00 hr 04 min 30 sec)
Warmup complete CPU 0 instructions: 50000001 cycles: 16669947 cumulative IPC: 2.999 (Simulation time: 00 hr 04 min 30 sec)
Simulation finished CPU 0 instructions: 100000004 cycles: 73823881 cumulative IPC: 1.355 (Simulation time: 00 hr 21 min 05 sec)
Simulation complete CPU 0 instructions: 100000004 cycles: 73823881 cumulative IPC: 1.355 (Simulation time: 00 hr 21 min 05 sec)

ChampSim completed all CPUs

=== Simulation ===
CPU 0 runs /data0/tzh/champsim_traces/SPEC06/459.GemsFDTD-1211B.champsimtrace.xz

Region of Interest Statistics

CPU 0 cumulative IPC: 1.355 instructions: 100000004 cycles: 73823881
CPU 0 Branch Prediction Accuracy: 99.97% MPKI: 0.00163 Average ROB Occupancy at Mispredict: 326
Branch type MPKI
BRANCH_DIRECT_JUMP: 0
BRANCH_INDIRECT: 0
BRANCH_CONDITIONAL: 0.00163
BRANCH_DIRECT_CALL: 0
BRANCH_INDIRECT_CALL: 0
BRANCH_RETURN: 0

cpu0->cpu0_STLB TOTAL        ACCESS:     912298 HIT:     911743 MISS:        555 MSHR_MERGE:          0
cpu0->cpu0_STLB LOAD         ACCESS:     912298 HIT:     911743 MISS:        555 MSHR_MERGE:          0
cpu0->cpu0_STLB RFO          ACCESS:          0 HIT:          0 MISS:          0 MSHR_MERGE:          0
cpu0->cpu0_STLB PREFETCH     ACCESS:          0 HIT:          0 MISS:          0 MSHR_MERGE:          0
cpu0->cpu0_STLB WRITE        ACCESS:          0 HIT:          0 MISS:          0 MSHR_MERGE:          0
cpu0->cpu0_STLB TRANSLATION  ACCESS:          0 HIT:          0 MISS:          0 MSHR_MERGE:          0
cpu0->cpu0_STLB PREFETCH REQUESTED:          0 ISSUED:          0 USEFUL:          0 USELESS:          0 LATE:          0
cpu0->cpu0_STLB AVERAGE MISS LATENCY: 388.7 cycles
cpu0->cpu0_L2C TOTAL        ACCESS:    3123756 HIT:    1962820 MISS:    1160936 MSHR_MERGE:     113495
cpu0->cpu0_L2C LOAD         ACCESS:     109370 HIT:      34331 MISS:      75039 MSHR_MERGE:        344
cpu0->cpu0_L2C RFO          ACCESS:       1652 HIT:       1652 MISS:          0 MSHR_MERGE:          0
cpu0->cpu0_L2C PREFETCH     ACCESS:    2581167 HIT:    1495866 MISS:    1085301 MSHR_MERGE:     113151
cpu0->cpu0_L2C WRITE        ACCESS:     430968 HIT:     430968 MISS:          0 MSHR_MERGE:          0
cpu0->cpu0_L2C TRANSLATION  ACCESS:        599 HIT:          3 MISS:        596 MSHR_MERGE:          0
cpu0->cpu0_L2C PREFETCH REQUESTED:      37833 ISSUED:      37833 USEFUL:      21032 USELESS:       2206 LATE:          0
cpu0->cpu0_L2C AVERAGE MISS LATENCY: 195.3 cycles
cpu0->cpu0_L1I TOTAL        ACCESS:   27872683 HIT:   27872683 MISS:          0 MSHR_MERGE:          0
cpu0->cpu0_L1I LOAD         ACCESS:   27872683 HIT:   27872683 MISS:          0 MSHR_MERGE:          0
cpu0->cpu0_L1I RFO          ACCESS:          0 HIT:          0 MISS:          0 MSHR_MERGE:          0
cpu0->cpu0_L1I PREFETCH     ACCESS:          0 HIT:          0 MISS:          0 MSHR_MERGE:          0
cpu0->cpu0_L1I WRITE        ACCESS:          0 HIT:          0 MISS:          0 MSHR_MERGE:          0
cpu0->cpu0_L1I TRANSLATION  ACCESS:          0 HIT:          0 MISS:          0 MSHR_MERGE:          0
cpu0->cpu0_L1I PREFETCH REQUESTED:          0 ISSUED:          0 USEFUL:          0 USELESS:          0 LATE:          0
cpu0->cpu0_L1I AVERAGE MISS LATENCY: - cycles
cpu0->cpu0_L1D TOTAL        ACCESS:   59127974 HIT:   56464082 MISS:    2663892 MSHR_MERGE:       8819
cpu0->cpu0_L1D LOAD         ACCESS:   40944669 HIT:   40834930 MISS:     109739 MSHR_MERGE:        369
cpu0->cpu0_L1D RFO          ACCESS:          0 HIT:          0 MISS:          0 MSHR_MERGE:          0
cpu0->cpu0_L1D PREFETCH     ACCESS:   10513602 HIT:    7970149 MISS:    2543453 MSHR_MERGE:         66
cpu0->cpu0_L1D WRITE        ACCESS:    7668518 HIT:    7658417 MISS:      10101 MSHR_MERGE:       8384
cpu0->cpu0_L1D TRANSLATION  ACCESS:       1185 HIT:        586 MISS:        599 MSHR_MERGE:          0
cpu0->cpu0_L1D PREFETCH REQUESTED:   44345764 ISSUED:   10513601 USEFUL:     802757 USELESS:     204252 LATE:         42
cpu0->cpu0_L1D AVERAGE MISS LATENCY: 140.9 cycles
cpu0->cpu0_ITLB TOTAL        ACCESS:   23777226 HIT:   23777226 MISS:          0 MSHR_MERGE:          0
cpu0->cpu0_ITLB LOAD         ACCESS:   23777226 HIT:   23777226 MISS:          0 MSHR_MERGE:          0
cpu0->cpu0_ITLB RFO          ACCESS:          0 HIT:          0 MISS:          0 MSHR_MERGE:          0
cpu0->cpu0_ITLB PREFETCH     ACCESS:          0 HIT:          0 MISS:          0 MSHR_MERGE:          0
cpu0->cpu0_ITLB WRITE        ACCESS:          0 HIT:          0 MISS:          0 MSHR_MERGE:          0
cpu0->cpu0_ITLB TRANSLATION  ACCESS:          0 HIT:          0 MISS:          0 MSHR_MERGE:          0
cpu0->cpu0_ITLB PREFETCH REQUESTED:          0 ISSUED:          0 USEFUL:          0 USELESS:          0 LATE:          0
cpu0->cpu0_ITLB AVERAGE MISS LATENCY: - cycles
cpu0->cpu0_DTLB TOTAL        ACCESS:   55843992 HIT:   54501270 MISS:    1342722 MSHR_MERGE:     430423
cpu0->cpu0_DTLB LOAD         ACCESS:   55843992 HIT:   54501270 MISS:    1342722 MSHR_MERGE:     430423
cpu0->cpu0_DTLB RFO          ACCESS:          0 HIT:          0 MISS:          0 MSHR_MERGE:          0
cpu0->cpu0_DTLB PREFETCH     ACCESS:          0 HIT:          0 MISS:          0 MSHR_MERGE:          0
cpu0->cpu0_DTLB WRITE        ACCESS:          0 HIT:          0 MISS:          0 MSHR_MERGE:          0
cpu0->cpu0_DTLB TRANSLATION  ACCESS:          0 HIT:          0 MISS:          0 MSHR_MERGE:          0
cpu0->cpu0_DTLB PREFETCH REQUESTED:          0 ISSUED:          0 USEFUL:          0 USELESS:          0 LATE:          0
cpu0->cpu0_DTLB AVERAGE MISS LATENCY: 5.239 cycles
cpu0->LLC TOTAL        ACCESS:    1476664 HIT:     459740 MISS:    1016924 MSHR_MERGE:         26
cpu0->LLC LOAD         ACCESS:      74695 HIT:      11273 MISS:      63422 MSHR_MERGE:          0
cpu0->LLC RFO          ACCESS:          0 HIT:          0 MISS:          0 MSHR_MERGE:          0
cpu0->LLC PREFETCH     ACCESS:     972149 HIT:      71261 MISS:     900888 MSHR_MERGE:         26
cpu0->LLC WRITE        ACCESS:     429224 HIT:     377153 MISS:      52071 MSHR_MERGE:          0
cpu0->LLC TRANSLATION  ACCESS:        596 HIT:         53 MISS:        543 MSHR_MERGE:          0
cpu0->LLC PREFETCH REQUESTED:          0 ISSUED:          0 USEFUL:          0 USELESS:          0 LATE:          0
cpu0->LLC AVERAGE MISS LATENCY: 120.6 cycles

DRAM Statistics

Channel 0 RQ ROW_BUFFER_HIT:       8727
  ROW_BUFFER_MISS:     956098
  AVG DBUS CONGESTED CYCLE: 9.043
Channel 0 WQ ROW_BUFFER_HIT:     101299
  ROW_BUFFER_MISS:     329222
  FULL:          0
Channel 0 REFRESHES ISSUED:       6152

[ROI Statistics]
[System Configuration]
num_cpus 1
cpu_freq 4000
fetch_width 6
decode_width 6
dispatch_width 6
execute_width 6
lq_width 2
sq_width 2
retire_width 6
scheduler_size 128
branch_mispredict_penalty 15
rob_size 352
lq_size 128
sq_size 72
ifetch_buffer_size 64
decode_buffer_size 32
dispatch_buffer_size 32
register_file_size 288
decode_latency 1
dispatch_latency 1
schedule_latency 1
execute_latency 1
page_size 4096
block_size 64
core_0_itlb_set 16
core_0_itlb_way 4
core_0_itlb_rq_size 16
core_0_itlb_wq_size 16
core_0_itlb_pq_size 0
core_0_itlb_mshr_size 8
core_0_itlb_hit_latency 1
core_0_itlb_fill_latency 1
core_0_itlb_max_tag_check 2
core_0_itlb_max_fill 2
core_0_dtlb_set 16
core_0_dtlb_way 4
core_0_dtlb_rq_size 16
core_0_dtlb_wq_size 16
core_0_dtlb_pq_size 0
core_0_dtlb_mshr_size 8
core_0_dtlb_hit_latency 1
core_0_dtlb_fill_latency 1
core_0_dtlb_max_tag_check 2
core_0_dtlb_max_fill 2
core_0_stlb_set 128
core_0_stlb_way 12
core_0_stlb_rq_size 32
core_0_stlb_wq_size 32
core_0_stlb_pq_size 0
core_0_stlb_mshr_size 16
core_0_stlb_hit_latency 4
core_0_stlb_fill_latency 4
core_0_stlb_max_tag_check 1
core_0_stlb_max_fill 1
core_0_l1i_set 64
core_0_l1i_way 8
core_0_l1i_rq_size 64
core_0_l1i_wq_size 64
core_0_l1i_pq_size 32
core_0_l1i_mshr_size 8
core_0_l1i_hit_latency 2
core_0_l1i_fill_latency 2
core_0_l1i_max_tag_check 2
core_0_l1i_max_fill 2
core_0_l1d_set 64
core_0_l1d_way 12
core_0_l1d_rq_size 64
core_0_l1d_wq_size 64
core_0_l1d_pq_size 8
core_0_l1d_mshr_size 16
core_0_l1d_hit_latency 2
core_0_l1d_fill_latency 3
core_0_l1d_max_tag_check 2
core_0_l1d_max_fill 2
core_0_l2c_set 1024
core_0_l2c_way 8
core_0_l2c_rq_size 32
core_0_l2c_wq_size 32
core_0_l2c_pq_size 16
core_0_l2c_mshr_size 32
core_0_l2c_hit_latency 5
core_0_l2c_fill_latency 5
core_0_l2c_max_tag_check 1
core_0_l2c_max_fill 1
llc_set 2048
llc_way 16
llc_rq_size 32
llc_wq_size 32
llc_pq_size 32
llc_mshr_size 64
llc_hit_latency 10
llc_fill_latency 10
llc_max_tag_check 1
llc_max_fill 1
dram_channels 1
dram_ranks 1
dram_bankgroups 8
dram_banks 4
dram_rows 65536
dram_columns 1024
dram_channel_width 8
dram_rq_size 64
dram_wq_size 64
dram_size 17179869184
core_0_itlb_prefetcher no
core_0_dtlb_prefetcher no
core_0_stlb_prefetcher no
core_0_l1i_prefetcher next_line
core_0_l1d_prefetcher vberti
core_0_l2c_prefetcher ip_stride
llc_prefetcher no
llc_replacement drrip

Core_0_instructions 100000004
Core_0_cycles 73823881
Core_0_IPC 1.35458
Core_0_branch_prediction_accuracy 99.9695
Core_0_branch_MPKI 0.00163
Core_0_average_ROB_occupancy_at_mispredict 325.988

Core_0_ITLB_total_access 23777226
Core_0_ITLB_total_hit 23777226
Core_0_ITLB_total_miss 0
Core_0_ITLB_total_MPKI 0
Core_0_ITLB_total_miss_rate 0
Core_0_ITLB_demand_access 23777226
Core_0_ITLB_demand_hit 23777226
Core_0_ITLB_demand_miss 0
Core_0_ITLB_demand_MPKI 0
Core_0_ITLB_demand_miss_rate 0
Core_0_ITLB_load_access 23777226
Core_0_ITLB_load_hit 23777226
Core_0_ITLB_load_miss 0
Core_0_ITLB_load_MPKI 0
Core_0_ITLB_load_miss_rate 0
Core_0_ITLB_rfo_access 0
Core_0_ITLB_rfo_hit 0
Core_0_ITLB_rfo_miss 0
Core_0_ITLB_rfo_MPKI 0
Core_0_ITLB_rfo_miss_rate 0
Core_0_ITLB_prefetch_access 0
Core_0_ITLB_prefetch_hit 0
Core_0_ITLB_prefetch_miss 0
Core_0_ITLB_prefetch_MPKI 0
Core_0_ITLB_prefetch_miss_rate 0
Core_0_ITLB_writeback_access 0
Core_0_ITLB_writeback_hit 0
Core_0_ITLB_writeback_miss 0
Core_0_ITLB_writeback_MPKI 0
Core_0_ITLB_writeback_miss_rate 0
Core_0_ITLB_prefetch_requested 0
Core_0_ITLB_prefetch_issued 0
Core_0_ITLB_prefetch_useful 0
Core_0_ITLB_prefetch_useless 0
Core_0_ITLB_prefetch_late 0
Core_0_ITLB_prefetch_accuracy 0
Core_0_ITLB_prefetch_coverage 0
Core_0_ITLB_total_eviction 0

Core_0_DTLB_total_access 55843992
Core_0_DTLB_total_hit 54501270
Core_0_DTLB_total_miss 1342722
Core_0_DTLB_total_MPKI 13.4272
Core_0_DTLB_total_miss_rate 0.0240442
Core_0_DTLB_demand_access 55843992
Core_0_DTLB_demand_hit 54501270
Core_0_DTLB_demand_miss 1342722
Core_0_DTLB_demand_MPKI 13.4272
Core_0_DTLB_demand_miss_rate 0.0240442
Core_0_DTLB_load_access 55843992
Core_0_DTLB_load_hit 54501270
Core_0_DTLB_load_miss 1342722
Core_0_DTLB_load_MPKI 13.4272
Core_0_DTLB_load_miss_rate 0.0240442
Core_0_DTLB_rfo_access 0
Core_0_DTLB_rfo_hit 0
Core_0_DTLB_rfo_miss 0
Core_0_DTLB_rfo_MPKI 0
Core_0_DTLB_rfo_miss_rate 0
Core_0_DTLB_prefetch_access 0
Core_0_DTLB_prefetch_hit 0
Core_0_DTLB_prefetch_miss 0
Core_0_DTLB_prefetch_MPKI 0
Core_0_DTLB_prefetch_miss_rate 0
Core_0_DTLB_writeback_access 0
Core_0_DTLB_writeback_hit 0
Core_0_DTLB_writeback_miss 0
Core_0_DTLB_writeback_MPKI 0
Core_0_DTLB_writeback_miss_rate 0
Core_0_DTLB_prefetch_requested 0
Core_0_DTLB_prefetch_issued 0
Core_0_DTLB_prefetch_useful 0
Core_0_DTLB_prefetch_useless 0
Core_0_DTLB_prefetch_late 0
Core_0_DTLB_prefetch_accuracy 0
Core_0_DTLB_prefetch_coverage 0
Core_0_DTLB_total_eviction 912298

Core_0_STLB_total_access 912298
Core_0_STLB_total_hit 911743
Core_0_STLB_total_miss 555
Core_0_STLB_total_MPKI 0.00555
Core_0_STLB_total_miss_rate 0.000608354
Core_0_STLB_demand_access 912298
Core_0_STLB_demand_hit 911743
Core_0_STLB_demand_miss 555
Core_0_STLB_demand_MPKI 0.00555
Core_0_STLB_demand_miss_rate 0.000608354
Core_0_STLB_load_access 912298
Core_0_STLB_load_hit 911743
Core_0_STLB_load_miss 555
Core_0_STLB_load_MPKI 0.00555
Core_0_STLB_load_miss_rate 0.000608354
Core_0_STLB_rfo_access 0
Core_0_STLB_rfo_hit 0
Core_0_STLB_rfo_miss 0
Core_0_STLB_rfo_MPKI 0
Core_0_STLB_rfo_miss_rate 0
Core_0_STLB_prefetch_access 0
Core_0_STLB_prefetch_hit 0
Core_0_STLB_prefetch_miss 0
Core_0_STLB_prefetch_MPKI 0
Core_0_STLB_prefetch_miss_rate 0
Core_0_STLB_writeback_access 0
Core_0_STLB_writeback_hit 0
Core_0_STLB_writeback_miss 0
Core_0_STLB_writeback_MPKI 0
Core_0_STLB_writeback_miss_rate 0
Core_0_STLB_prefetch_requested 0
Core_0_STLB_prefetch_issued 0
Core_0_STLB_prefetch_useful 0
Core_0_STLB_prefetch_useless 0
Core_0_STLB_prefetch_late 0
Core_0_STLB_prefetch_accuracy 0
Core_0_STLB_prefetch_coverage 0
Core_0_STLB_total_eviction 107715

Core_0_L1I_total_access 27872683
Core_0_L1I_total_hit 27872683
Core_0_L1I_total_miss 0
Core_0_L1I_total_MPKI 0
Core_0_L1I_total_miss_rate 0
Core_0_L1I_demand_access 27872683
Core_0_L1I_demand_hit 27872683
Core_0_L1I_demand_miss 0
Core_0_L1I_demand_MPKI 0
Core_0_L1I_demand_miss_rate 0
Core_0_L1I_load_access 27872683
Core_0_L1I_load_hit 27872683
Core_0_L1I_load_miss 0
Core_0_L1I_load_MPKI 0
Core_0_L1I_load_miss_rate 0
Core_0_L1I_rfo_access 0
Core_0_L1I_rfo_hit 0
Core_0_L1I_rfo_miss 0
Core_0_L1I_rfo_MPKI 0
Core_0_L1I_rfo_miss_rate 0
Core_0_L1I_prefetch_access 0
Core_0_L1I_prefetch_hit 0
Core_0_L1I_prefetch_miss 0
Core_0_L1I_prefetch_MPKI 0
Core_0_L1I_prefetch_miss_rate 0
Core_0_L1I_writeback_access 0
Core_0_L1I_writeback_hit 0
Core_0_L1I_writeback_miss 0
Core_0_L1I_writeback_MPKI 0
Core_0_L1I_writeback_miss_rate 0
Core_0_L1I_prefetch_requested 0
Core_0_L1I_prefetch_issued 0
Core_0_L1I_prefetch_useful 0
Core_0_L1I_prefetch_useless 0
Core_0_L1I_prefetch_late 0
Core_0_L1I_prefetch_accuracy 0
Core_0_L1I_prefetch_coverage 0
Core_0_L1I_total_eviction 0

Core_0_L1D_total_access 59126789
Core_0_L1D_total_hit 56463496
Core_0_L1D_total_miss 2663293
Core_0_L1D_total_MPKI 26.6329
Core_0_L1D_total_miss_rate 0.0450438
Core_0_L1D_demand_access 40944669
Core_0_L1D_demand_hit 40834930
Core_0_L1D_demand_miss 109739
Core_0_L1D_demand_MPKI 1.09739
Core_0_L1D_demand_miss_rate 0.00268018
Core_0_L1D_load_access 40944669
Core_0_L1D_load_hit 40834930
Core_0_L1D_load_miss 109739
Core_0_L1D_load_MPKI 1.09739
Core_0_L1D_load_miss_rate 0.00268018
Core_0_L1D_rfo_access 0
Core_0_L1D_rfo_hit 0
Core_0_L1D_rfo_miss 0
Core_0_L1D_rfo_MPKI 0
Core_0_L1D_rfo_miss_rate 0
Core_0_L1D_prefetch_access 10513602
Core_0_L1D_prefetch_hit 7970149
Core_0_L1D_prefetch_miss 2543453
Core_0_L1D_prefetch_MPKI 25.4345
Core_0_L1D_prefetch_miss_rate 0.24192
Core_0_L1D_writeback_access 7668518
Core_0_L1D_writeback_hit 7658417
Core_0_L1D_writeback_miss 10101
Core_0_L1D_writeback_MPKI 0.10101
Core_0_L1D_writeback_miss_rate 0.0013172
Core_0_L1D_prefetch_requested 44345764
Core_0_L1D_prefetch_issued 10513601
Core_0_L1D_prefetch_useful 802757
Core_0_L1D_prefetch_useless 204252
Core_0_L1D_prefetch_late 42
Core_0_L1D_prefetch_accuracy 0.0763541
Core_0_L1D_prefetch_coverage 0.879738
Core_0_L1D_total_eviction 1118808

Core_0_L2C_total_access 3123157
Core_0_L2C_total_hit 1962817
Core_0_L2C_total_miss 1160340
Core_0_L2C_total_MPKI 11.6034
Core_0_L2C_total_miss_rate 0.371528
Core_0_L2C_demand_access 111022
Core_0_L2C_demand_hit 35983
Core_0_L2C_demand_miss 75039
Core_0_L2C_demand_MPKI 0.75039
Core_0_L2C_demand_miss_rate 0.675893
Core_0_L2C_load_access 109370
Core_0_L2C_load_hit 34331
Core_0_L2C_load_miss 75039
Core_0_L2C_load_MPKI 0.75039
Core_0_L2C_load_miss_rate 0.686102
Core_0_L2C_rfo_access 1652
Core_0_L2C_rfo_hit 1652
Core_0_L2C_rfo_miss 0
Core_0_L2C_rfo_MPKI 0
Core_0_L2C_rfo_miss_rate 0
Core_0_L2C_prefetch_access 2581167
Core_0_L2C_prefetch_hit 1495866
Core_0_L2C_prefetch_miss 1085301
Core_0_L2C_prefetch_MPKI 10.853
Core_0_L2C_prefetch_miss_rate 0.420469
Core_0_L2C_writeback_access 430968
Core_0_L2C_writeback_hit 430968
Core_0_L2C_writeback_miss 0
Core_0_L2C_writeback_MPKI 0
Core_0_L2C_writeback_miss_rate 0
Core_0_L2C_prefetch_requested 37833
Core_0_L2C_prefetch_issued 37833
Core_0_L2C_prefetch_useful 21032
Core_0_L2C_prefetch_useless 2206
Core_0_L2C_prefetch_late 0
Core_0_L2C_prefetch_accuracy 0.555917
Core_0_L2C_prefetch_coverage 0.218921
Core_0_L2C_total_eviction 1047321

Core_0_LLC_total_access 1476068
Core_0_LLC_total_hit 459687
Core_0_LLC_total_miss 1016381
Core_0_LLC_total_MPKI 10.1638
Core_0_LLC_total_miss_rate 0.688573
Core_0_LLC_demand_access 74695
Core_0_LLC_demand_hit 11273
Core_0_LLC_demand_miss 63422
Core_0_LLC_demand_MPKI 0.63422
Core_0_LLC_demand_miss_rate 0.84908
Core_0_LLC_load_access 74695
Core_0_LLC_load_hit 11273
Core_0_LLC_load_miss 63422
Core_0_LLC_load_MPKI 0.63422
Core_0_LLC_load_miss_rate 0.84908
Core_0_LLC_rfo_access 0
Core_0_LLC_rfo_hit 0
Core_0_LLC_rfo_miss 0
Core_0_LLC_rfo_MPKI 0
Core_0_LLC_rfo_miss_rate 0
Core_0_LLC_prefetch_access 972149
Core_0_LLC_prefetch_hit 71261
Core_0_LLC_prefetch_miss 900888
Core_0_LLC_prefetch_MPKI 9.00888
Core_0_LLC_prefetch_miss_rate 0.926697
Core_0_LLC_writeback_access 429224
Core_0_LLC_writeback_hit 377153
Core_0_LLC_writeback_miss 52071
Core_0_LLC_writeback_MPKI 0.52071
Core_0_LLC_writeback_miss_rate 0.121314
Core_0_LLC_prefetch_requested 0
Core_0_LLC_prefetch_issued 0
Core_0_LLC_prefetch_useful 0
Core_0_LLC_prefetch_useless 0
Core_0_LLC_prefetch_late 0
Core_0_LLC_prefetch_accuracy 0
Core_0_LLC_prefetch_coverage 0
Core_0_LLC_total_eviction 1016896

[DRAM Statistics]
Channel_0_RQ_row_buffer_hit 8727
Channel_0_RQ_row_buffer_miss 956098
Channel_0_WQ_row_buffer_hit 101299
Channel_0_WQ_row_buffer_miss 329222
Channel_0_WQ_full 0
Channel_0_dbus_congested 2998797
DRAM_total_RQ_row_buffer_hit 8727
DRAM_total_RQ_row_buffer_miss 956098
DRAM_total_WQ_row_buffer_hit 101299
DRAM_total_WQ_row_buffer_miss 329222
DRAM_total_WQ_full 0
DRAM_total_dbus_congested 2998797
DRAM_avg_congested_cycle 9.04279

======STLB miss causes ========
Core_0_STLB_miss_cause_breakdown
Core_0_STLB_cause_Demand_Data_miss 555
Core_0_STLB_cause_Demand_Data_miss_rate 0.000608354
Core_0_STLB_cause_Demand_Instruction_miss 0
Core_0_STLB_cause_Demand_Instruction_miss_rate 0
Core_0_STLB_cause_L1D_Prefetch_miss 0
Core_0_STLB_cause_L1D_Prefetch_miss_rate 0
Core_0_STLB_cause_L1I_Prefetch_miss 0
Core_0_STLB_cause_L1I_Prefetch_miss_rate 0
Core_0_STLB_cause_Other_miss 0
Core_0_STLB_cause_Other_miss_rate 0
Core_0_STLB_Demand_miss 555
Core_0_STLB_Demand_miss_rate 0.000608354
Core_0_STLB_L1D_Prefetch_miss 0
Core_0_STLB_L1D_Prefetch_miss_rate 0
Core_0_STLB_Other_miss 0
Core_0_STLB_Other_miss_rate 0
BERTI TO_L1: 37405206 TO_L2: 26090420 TO_L2_BC_MSHR: 49623
BERTI AVG_LAT: 140.619 NUM_TRACK_LATENCY: 1849174 NUM_CANT_TRACK_LATENCY: 0
BERTI CROSS_PAGE 32116399 NO_CROSS_PAGE: 31379227
BERTI FOUND_BERTI: 12987471 NO_FOUND_BERTI: 50312632
BERTI AVERAGE_ISSUED: 2.24005
