[VMEM] WARNING: physical memory size is smaller than virtual memory size.

*** ChampSim Multicore Out-of-Order Simulator ***
Warmup Instructions: 50000000
Simulation Instructions: 100000000
Number of CPUs: 1
Page size: 4096
STLB ideal mode: l1pref
STLB ideal fill: on
Core 0: /data0/tzh/champsim_traces/SPEC06/473.astar-42B.champsimtrace.xz
VBerti Prefetcher
BERTI HASH ENTANGLING
BERTI IP MASK ffff
Off-chip DRAM Size: 16 GiB Channels: 1 Width: 64-bit Data Rate: 3205 MT/s
Warmup halting CPU 0 at instruction 50000005 cycle 10647122 for remainder of phase
Warmup finished CPU 0 instructions: 50000005 cycles: 10647122 cumulative IPC: 4.696 (Simulation time: 00 hr 02 min 35 sec)
Warmup complete CPU 0 instructions: 50000005 cycles: 10647122 cumulative IPC: 4.696 (Simulation time: 00 hr 02 min 35 sec)
Simulation finished CPU 0 instructions: 100000000 cycles: 161072772 cumulative IPC: 0.6208 (Simulation time: 00 hr 16 min 32 sec)
Simulation complete CPU 0 instructions: 100000000 cycles: 161072772 cumulative IPC: 0.6208 (Simulation time: 00 hr 16 min 32 sec)

ChampSim completed all CPUs

=== Simulation ===
CPU 0 runs /data0/tzh/champsim_traces/SPEC06/473.astar-42B.champsimtrace.xz

Region of Interest Statistics

CPU 0 cumulative IPC: 0.6208 instructions: 100000000 cycles: 161072772
CPU 0 Branch Prediction Accuracy: 84.34% MPKI: 29.57 Average ROB Occupancy at Mispredict: 16.15
Branch type MPKI
BRANCH_DIRECT_JUMP: 0.00026
BRANCH_INDIRECT: 0
BRANCH_CONDITIONAL: 29.57
BRANCH_DIRECT_CALL: 0.00018
BRANCH_INDIRECT_CALL: 0
BRANCH_RETURN: 0.00022

cpu0->cpu0_STLB TOTAL        ACCESS:    3062422 HIT:    2897584 MISS:     164838 MSHR_MERGE:          0
cpu0->cpu0_STLB LOAD         ACCESS:    3062422 HIT:    2897584 MISS:     164838 MSHR_MERGE:          0
cpu0->cpu0_STLB RFO          ACCESS:          0 HIT:          0 MISS:          0 MSHR_MERGE:          0
cpu0->cpu0_STLB PREFETCH     ACCESS:          0 HIT:          0 MISS:          0 MSHR_MERGE:          0
cpu0->cpu0_STLB WRITE        ACCESS:          0 HIT:          0 MISS:          0 MSHR_MERGE:          0
cpu0->cpu0_STLB TRANSLATION  ACCESS:          0 HIT:          0 MISS:          0 MSHR_MERGE:          0
cpu0->cpu0_STLB PREFETCH REQUESTED:          0 ISSUED:          0 USEFUL:          0 USELESS:          0 LATE:          0
cpu0->cpu0_STLB AVERAGE MISS LATENCY: 17 cycles
cpu0->cpu0_L2C TOTAL        ACCESS:   11396584 HIT:    9497051 MISS:    1899533 MSHR_MERGE:     117636
cpu0->cpu0_L2C LOAD         ACCESS:    2107603 HIT:    1697468 MISS:     410135 MSHR_MERGE:      15012
cpu0->cpu0_L2C RFO          ACCESS:      11709 HIT:      11413 MISS:        296 MSHR_MERGE:          0
cpu0->cpu0_L2C PREFETCH     ACCESS:    8271583 HIT:    6795892 MISS:    1475691 MSHR_MERGE:     102624
cpu0->cpu0_L2C WRITE        ACCESS:     956690 HIT:     956206 MISS:        484 MSHR_MERGE:          0
cpu0->cpu0_L2C TRANSLATION  ACCESS:      48999 HIT:      36072 MISS:      12927 MSHR_MERGE:          0
cpu0->cpu0_L2C PREFETCH REQUESTED:      33451 ISSUED:      33451 USEFUL:       5629 USELESS:       5860 LATE:          1
cpu0->cpu0_L2C AVERAGE MISS LATENCY: 69.45 cycles
cpu0->cpu0_L1I TOTAL        ACCESS:      20569 HIT:      20441 MISS:        128 MSHR_MERGE:         21
cpu0->cpu0_L1I LOAD         ACCESS:      20569 HIT:      20441 MISS:        128 MSHR_MERGE:         21
cpu0->cpu0_L1I RFO          ACCESS:          0 HIT:          0 MISS:          0 MSHR_MERGE:          0
cpu0->cpu0_L1I PREFETCH     ACCESS:          0 HIT:          0 MISS:          0 MSHR_MERGE:          0
cpu0->cpu0_L1I WRITE        ACCESS:          0 HIT:          0 MISS:          0 MSHR_MERGE:          0
cpu0->cpu0_L1I TRANSLATION  ACCESS:          0 HIT:          0 MISS:          0 MSHR_MERGE:          0
cpu0->cpu0_L1I PREFETCH REQUESTED:          0 ISSUED:          0 USEFUL:          0 USELESS:          0 LATE:          0
cpu0->cpu0_L1I AVERAGE MISS LATENCY: 216.9 cycles
cpu0->cpu0_L1D TOTAL        ACCESS:   43317641 HIT:   32265207 MISS:   11052434 MSHR_MERGE:     613830
cpu0->cpu0_L1D LOAD         ACCESS:   24330513 HIT:   21677735 MISS:    2652778 MSHR_MERGE:     545180
cpu0->cpu0_L1D RFO          ACCESS:          0 HIT:          0 MISS:          0 MSHR_MERGE:          0
cpu0->cpu0_L1D PREFETCH     ACCESS:   14404318 HIT:    6069364 MISS:    8334954 MSHR_MERGE:      64741
cpu0->cpu0_L1D WRITE        ACCESS:    4257951 HIT:    4244813 MISS:      13138 MSHR_MERGE:       1344
cpu0->cpu0_L1D TRANSLATION  ACCESS:     324859 HIT:     273295 MISS:      51564 MSHR_MERGE:       2565
cpu0->cpu0_L1D PREFETCH REQUESTED:   21364329 ISSUED:   14404316 USEFUL:     798979 USELESS:     526571 LATE:      10691
cpu0->cpu0_L1D AVERAGE MISS LATENCY: 21.87 cycles
cpu0->cpu0_ITLB TOTAL        ACCESS:      17870 HIT:      17855 MISS:         15 MSHR_MERGE:          7
cpu0->cpu0_ITLB LOAD         ACCESS:      17870 HIT:      17855 MISS:         15 MSHR_MERGE:          7
cpu0->cpu0_ITLB RFO          ACCESS:          0 HIT:          0 MISS:          0 MSHR_MERGE:          0
cpu0->cpu0_ITLB PREFETCH     ACCESS:          0 HIT:          0 MISS:          0 MSHR_MERGE:          0
cpu0->cpu0_ITLB WRITE        ACCESS:          0 HIT:          0 MISS:          0 MSHR_MERGE:          0
cpu0->cpu0_ITLB TRANSLATION  ACCESS:          0 HIT:          0 MISS:          0 MSHR_MERGE:          0
cpu0->cpu0_ITLB PREFETCH REQUESTED:          0 ISSUED:          0 USEFUL:          0 USELESS:          0 LATE:          0
cpu0->cpu0_ITLB AVERAGE MISS LATENCY: 318.2 cycles
cpu0->cpu0_DTLB TOTAL        ACCESS:   41870204 HIT:   38621603 MISS:    3248601 MSHR_MERGE:     186188
cpu0->cpu0_DTLB LOAD         ACCESS:   41870204 HIT:   38621603 MISS:    3248601 MSHR_MERGE:     186188
cpu0->cpu0_DTLB RFO          ACCESS:          0 HIT:          0 MISS:          0 MSHR_MERGE:          0
cpu0->cpu0_DTLB PREFETCH     ACCESS:          0 HIT:          0 MISS:          0 MSHR_MERGE:          0
cpu0->cpu0_DTLB WRITE        ACCESS:          0 HIT:          0 MISS:          0 MSHR_MERGE:          0
cpu0->cpu0_DTLB TRANSLATION  ACCESS:          0 HIT:          0 MISS:          0 MSHR_MERGE:          0
cpu0->cpu0_DTLB PREFETCH REQUESTED:          0 ISSUED:          0 USEFUL:          0 USELESS:          0 LATE:          0
cpu0->cpu0_DTLB AVERAGE MISS LATENCY: 6.111 cycles
cpu0->LLC TOTAL        ACCESS:    2271269 HIT:    1870615 MISS:     400654 MSHR_MERGE:          0
cpu0->LLC LOAD         ACCESS:     395112 HIT:     273219 MISS:     121893 MSHR_MERGE:          0
cpu0->LLC RFO          ACCESS:        296 HIT:        225 MISS:         71 MSHR_MERGE:          0
cpu0->LLC PREFETCH     ACCESS:    1372977 HIT:    1129075 MISS:     243902 MSHR_MERGE:          0
cpu0->LLC WRITE        ACCESS:     489957 HIT:     457126 MISS:      32831 MSHR_MERGE:          0
cpu0->LLC TRANSLATION  ACCESS:      12927 HIT:      10970 MISS:       1957 MSHR_MERGE:          0
cpu0->LLC PREFETCH REQUESTED:          0 ISSUED:          0 USEFUL:          0 USELESS:          0 LATE:          0
cpu0->LLC AVERAGE MISS LATENCY: 142.8 cycles

DRAM Statistics

Channel 0 RQ ROW_BUFFER_HIT:        890
  ROW_BUFFER_MISS:     366693
  AVG DBUS CONGESTED CYCLE: 14.32
Channel 0 WQ ROW_BUFFER_HIT:      20420
  ROW_BUFFER_MISS:     122563
  FULL:          0
Channel 0 REFRESHES ISSUED:      13422

[ROI Statistics]
[System Configuration]
num_cpus 1
cpu_freq 4000
fetch_width 6
decode_width 6
dispatch_width 6
execute_width 6
lq_width 2
sq_width 2
retire_width 6
scheduler_size 128
branch_mispredict_penalty 15
rob_size 352
lq_size 128
sq_size 72
ifetch_buffer_size 64
decode_buffer_size 32
dispatch_buffer_size 32
register_file_size 288
decode_latency 1
dispatch_latency 1
schedule_latency 1
execute_latency 1
page_size 4096
block_size 64
core_0_itlb_set 16
core_0_itlb_way 4
core_0_itlb_rq_size 16
core_0_itlb_wq_size 16
core_0_itlb_pq_size 0
core_0_itlb_mshr_size 8
core_0_itlb_hit_latency 1
core_0_itlb_fill_latency 1
core_0_itlb_max_tag_check 2
core_0_itlb_max_fill 2
core_0_dtlb_set 16
core_0_dtlb_way 4
core_0_dtlb_rq_size 16
core_0_dtlb_wq_size 16
core_0_dtlb_pq_size 0
core_0_dtlb_mshr_size 8
core_0_dtlb_hit_latency 1
core_0_dtlb_fill_latency 1
core_0_dtlb_max_tag_check 2
core_0_dtlb_max_fill 2
core_0_stlb_set 128
core_0_stlb_way 12
core_0_stlb_rq_size 32
core_0_stlb_wq_size 32
core_0_stlb_pq_size 0
core_0_stlb_mshr_size 16
core_0_stlb_hit_latency 4
core_0_stlb_fill_latency 4
core_0_stlb_max_tag_check 1
core_0_stlb_max_fill 1
core_0_l1i_set 64
core_0_l1i_way 8
core_0_l1i_rq_size 64
core_0_l1i_wq_size 64
core_0_l1i_pq_size 32
core_0_l1i_mshr_size 8
core_0_l1i_hit_latency 2
core_0_l1i_fill_latency 2
core_0_l1i_max_tag_check 2
core_0_l1i_max_fill 2
core_0_l1d_set 64
core_0_l1d_way 12
core_0_l1d_rq_size 64
core_0_l1d_wq_size 64
core_0_l1d_pq_size 8
core_0_l1d_mshr_size 16
core_0_l1d_hit_latency 2
core_0_l1d_fill_latency 3
core_0_l1d_max_tag_check 2
core_0_l1d_max_fill 2
core_0_l2c_set 1024
core_0_l2c_way 8
core_0_l2c_rq_size 32
core_0_l2c_wq_size 32
core_0_l2c_pq_size 16
core_0_l2c_mshr_size 32
core_0_l2c_hit_latency 5
core_0_l2c_fill_latency 5
core_0_l2c_max_tag_check 1
core_0_l2c_max_fill 1
llc_set 2048
llc_way 16
llc_rq_size 32
llc_wq_size 32
llc_pq_size 32
llc_mshr_size 64
llc_hit_latency 10
llc_fill_latency 10
llc_max_tag_check 1
llc_max_fill 1
dram_channels 1
dram_ranks 1
dram_bankgroups 8
dram_banks 4
dram_rows 65536
dram_columns 1024
dram_channel_width 8
dram_rq_size 64
dram_wq_size 64
dram_size 17179869184
core_0_itlb_prefetcher no
core_0_dtlb_prefetcher no
core_0_stlb_prefetcher no
core_0_l1i_prefetcher next_line
core_0_l1d_prefetcher vberti
core_0_l2c_prefetcher ip_stride
llc_prefetcher no
llc_replacement drrip

Core_0_instructions 100000000
Core_0_cycles 161072772
Core_0_IPC 0.620837
Core_0_branch_prediction_accuracy 84.3361
Core_0_branch_MPKI 29.5707
Core_0_average_ROB_occupancy_at_mispredict 16.1547

Core_0_ITLB_total_access 17870
Core_0_ITLB_total_hit 17855
Core_0_ITLB_total_miss 15
Core_0_ITLB_total_MPKI 0.00015
Core_0_ITLB_total_miss_rate 0.000839396
Core_0_ITLB_demand_access 17870
Core_0_ITLB_demand_hit 17855
Core_0_ITLB_demand_miss 15
Core_0_ITLB_demand_MPKI 0.00015
Core_0_ITLB_demand_miss_rate 0.000839396
Core_0_ITLB_load_access 17870
Core_0_ITLB_load_hit 17855
Core_0_ITLB_load_miss 15
Core_0_ITLB_load_MPKI 0.00015
Core_0_ITLB_load_miss_rate 0.000839396
Core_0_ITLB_rfo_access 0
Core_0_ITLB_rfo_hit 0
Core_0_ITLB_rfo_miss 0
Core_0_ITLB_rfo_MPKI 0
Core_0_ITLB_rfo_miss_rate 0
Core_0_ITLB_prefetch_access 0
Core_0_ITLB_prefetch_hit 0
Core_0_ITLB_prefetch_miss 0
Core_0_ITLB_prefetch_MPKI 0
Core_0_ITLB_prefetch_miss_rate 0
Core_0_ITLB_writeback_access 0
Core_0_ITLB_writeback_hit 0
Core_0_ITLB_writeback_miss 0
Core_0_ITLB_writeback_MPKI 0
Core_0_ITLB_writeback_miss_rate 0
Core_0_ITLB_prefetch_requested 0
Core_0_ITLB_prefetch_issued 0
Core_0_ITLB_prefetch_useful 0
Core_0_ITLB_prefetch_useless 0
Core_0_ITLB_prefetch_late 0
Core_0_ITLB_prefetch_accuracy 0
Core_0_ITLB_prefetch_coverage 0
Core_0_ITLB_total_eviction 0

Core_0_DTLB_total_access 41870204
Core_0_DTLB_total_hit 38621603
Core_0_DTLB_total_miss 3248601
Core_0_DTLB_total_MPKI 32.486
Core_0_DTLB_total_miss_rate 0.0775874
Core_0_DTLB_demand_access 41870204
Core_0_DTLB_demand_hit 38621603
Core_0_DTLB_demand_miss 3248601
Core_0_DTLB_demand_MPKI 32.486
Core_0_DTLB_demand_miss_rate 0.0775874
Core_0_DTLB_load_access 41870204
Core_0_DTLB_load_hit 38621603
Core_0_DTLB_load_miss 3248601
Core_0_DTLB_load_MPKI 32.486
Core_0_DTLB_load_miss_rate 0.0775874
Core_0_DTLB_rfo_access 0
Core_0_DTLB_rfo_hit 0
Core_0_DTLB_rfo_miss 0
Core_0_DTLB_rfo_MPKI 0
Core_0_DTLB_rfo_miss_rate 0
Core_0_DTLB_prefetch_access 0
Core_0_DTLB_prefetch_hit 0
Core_0_DTLB_prefetch_miss 0
Core_0_DTLB_prefetch_MPKI 0
Core_0_DTLB_prefetch_miss_rate 0
Core_0_DTLB_writeback_access 0
Core_0_DTLB_writeback_hit 0
Core_0_DTLB_writeback_miss 0
Core_0_DTLB_writeback_MPKI 0
Core_0_DTLB_writeback_miss_rate 0
Core_0_DTLB_prefetch_requested 0
Core_0_DTLB_prefetch_issued 0
Core_0_DTLB_prefetch_useful 0
Core_0_DTLB_prefetch_useless 0
Core_0_DTLB_prefetch_late 0
Core_0_DTLB_prefetch_accuracy 0
Core_0_DTLB_prefetch_coverage 0
Core_0_DTLB_total_eviction 3062414

Core_0_STLB_total_access 3062422
Core_0_STLB_total_hit 2897584
Core_0_STLB_total_miss 164838
Core_0_STLB_total_MPKI 1.64838
Core_0_STLB_total_miss_rate 0.053826
Core_0_STLB_demand_access 3062422
Core_0_STLB_demand_hit 2897584
Core_0_STLB_demand_miss 164838
Core_0_STLB_demand_MPKI 1.64838
Core_0_STLB_demand_miss_rate 0.053826
Core_0_STLB_load_access 3062422
Core_0_STLB_load_hit 2897584
Core_0_STLB_load_miss 164838
Core_0_STLB_load_MPKI 1.64838
Core_0_STLB_load_miss_rate 0.053826
Core_0_STLB_rfo_access 0
Core_0_STLB_rfo_hit 0
Core_0_STLB_rfo_miss 0
Core_0_STLB_rfo_MPKI 0
Core_0_STLB_rfo_miss_rate 0
Core_0_STLB_prefetch_access 0
Core_0_STLB_prefetch_hit 0
Core_0_STLB_prefetch_miss 0
Core_0_STLB_prefetch_MPKI 0
Core_0_STLB_prefetch_miss_rate 0
Core_0_STLB_writeback_access 0
Core_0_STLB_writeback_hit 0
Core_0_STLB_writeback_miss 0
Core_0_STLB_writeback_MPKI 0
Core_0_STLB_writeback_miss_rate 0
Core_0_STLB_prefetch_requested 0
Core_0_STLB_prefetch_issued 0
Core_0_STLB_prefetch_useful 0
Core_0_STLB_prefetch_useless 0
Core_0_STLB_prefetch_late 0
Core_0_STLB_prefetch_accuracy 0
Core_0_STLB_prefetch_coverage 0
Core_0_STLB_total_eviction 912456

Core_0_L1I_total_access 20569
Core_0_L1I_total_hit 20441
Core_0_L1I_total_miss 128
Core_0_L1I_total_MPKI 0.00128
Core_0_L1I_total_miss_rate 0.00622296
Core_0_L1I_demand_access 20569
Core_0_L1I_demand_hit 20441
Core_0_L1I_demand_miss 128
Core_0_L1I_demand_MPKI 0.00128
Core_0_L1I_demand_miss_rate 0.00622296
Core_0_L1I_load_access 20569
Core_0_L1I_load_hit 20441
Core_0_L1I_load_miss 128
Core_0_L1I_load_MPKI 0.00128
Core_0_L1I_load_miss_rate 0.00622296
Core_0_L1I_rfo_access 0
Core_0_L1I_rfo_hit 0
Core_0_L1I_rfo_miss 0
Core_0_L1I_rfo_MPKI 0
Core_0_L1I_rfo_miss_rate 0
Core_0_L1I_prefetch_access 0
Core_0_L1I_prefetch_hit 0
Core_0_L1I_prefetch_miss 0
Core_0_L1I_prefetch_MPKI 0
Core_0_L1I_prefetch_miss_rate 0
Core_0_L1I_writeback_access 0
Core_0_L1I_writeback_hit 0
Core_0_L1I_writeback_miss 0
Core_0_L1I_writeback_MPKI 0
Core_0_L1I_writeback_miss_rate 0
Core_0_L1I_prefetch_requested 0
Core_0_L1I_prefetch_issued 0
Core_0_L1I_prefetch_useful 0
Core_0_L1I_prefetch_useless 0
Core_0_L1I_prefetch_late 0
Core_0_L1I_prefetch_accuracy 0
Core_0_L1I_prefetch_coverage 0
Core_0_L1I_total_eviction 0

Core_0_L1D_total_access 42992782
Core_0_L1D_total_hit 31991912
Core_0_L1D_total_miss 11000870
Core_0_L1D_total_MPKI 110.009
Core_0_L1D_total_miss_rate 0.255877
Core_0_L1D_demand_access 24330513
Core_0_L1D_demand_hit 21677735
Core_0_L1D_demand_miss 2652778
Core_0_L1D_demand_MPKI 26.5278
Core_0_L1D_demand_miss_rate 0.109031
Core_0_L1D_load_access 24330513
Core_0_L1D_load_hit 21677735
Core_0_L1D_load_miss 2652778
Core_0_L1D_load_MPKI 26.5278
Core_0_L1D_load_miss_rate 0.109031
Core_0_L1D_rfo_access 0
Core_0_L1D_rfo_hit 0
Core_0_L1D_rfo_miss 0
Core_0_L1D_rfo_MPKI 0
Core_0_L1D_rfo_miss_rate 0
Core_0_L1D_prefetch_access 14404318
Core_0_L1D_prefetch_hit 6069364
Core_0_L1D_prefetch_miss 8334954
Core_0_L1D_prefetch_MPKI 83.3495
Core_0_L1D_prefetch_miss_rate 0.578643
Core_0_L1D_writeback_access 4257951
Core_0_L1D_writeback_hit 4244813
Core_0_L1D_writeback_miss 13138
Core_0_L1D_writeback_MPKI 0.13138
Core_0_L1D_writeback_miss_rate 0.00308552
Core_0_L1D_prefetch_requested 21364329
Core_0_L1D_prefetch_issued 14404316
Core_0_L1D_prefetch_useful 798979
Core_0_L1D_prefetch_useless 526571
Core_0_L1D_prefetch_late 10691
Core_0_L1D_prefetch_accuracy 0.055468
Core_0_L1D_prefetch_coverage 0.23147
Core_0_L1D_total_eviction 3494131

Core_0_L2C_total_access 11347585
Core_0_L2C_total_hit 9460979
Core_0_L2C_total_miss 1886606
Core_0_L2C_total_MPKI 18.8661
Core_0_L2C_total_miss_rate 0.166256
Core_0_L2C_demand_access 2119312
Core_0_L2C_demand_hit 1708881
Core_0_L2C_demand_miss 410431
Core_0_L2C_demand_MPKI 4.10431
Core_0_L2C_demand_miss_rate 0.193662
Core_0_L2C_load_access 2107603
Core_0_L2C_load_hit 1697468
Core_0_L2C_load_miss 410135
Core_0_L2C_load_MPKI 4.10135
Core_0_L2C_load_miss_rate 0.194598
Core_0_L2C_rfo_access 11709
Core_0_L2C_rfo_hit 11413
Core_0_L2C_rfo_miss 296
Core_0_L2C_rfo_MPKI 0.00296
Core_0_L2C_rfo_miss_rate 0.0252797
Core_0_L2C_prefetch_access 8271583
Core_0_L2C_prefetch_hit 6795892
Core_0_L2C_prefetch_miss 1475691
Core_0_L2C_prefetch_MPKI 14.7569
Core_0_L2C_prefetch_miss_rate 0.178405
Core_0_L2C_writeback_access 956690
Core_0_L2C_writeback_hit 956206
Core_0_L2C_writeback_miss 484
Core_0_L2C_writeback_MPKI 0.00484
Core_0_L2C_writeback_miss_rate 0.000505911
Core_0_L2C_prefetch_requested 33451
Core_0_L2C_prefetch_issued 33451
Core_0_L2C_prefetch_useful 5629
Core_0_L2C_prefetch_useless 5860
Core_0_L2C_prefetch_late 1
Core_0_L2C_prefetch_accuracy 0.168276
Core_0_L2C_prefetch_coverage 0.0135293
Core_0_L2C_total_eviction 1781894

Core_0_LLC_total_access 2258342
Core_0_LLC_total_hit 1859645
Core_0_LLC_total_miss 398697
Core_0_LLC_total_MPKI 3.98697
Core_0_LLC_total_miss_rate 0.176544
Core_0_LLC_demand_access 395408
Core_0_LLC_demand_hit 273444
Core_0_LLC_demand_miss 121964
Core_0_LLC_demand_MPKI 1.21964
Core_0_LLC_demand_miss_rate 0.308451
Core_0_LLC_load_access 395112
Core_0_LLC_load_hit 273219
Core_0_LLC_load_miss 121893
Core_0_LLC_load_MPKI 1.21893
Core_0_LLC_load_miss_rate 0.308502
Core_0_LLC_rfo_access 296
Core_0_LLC_rfo_hit 225
Core_0_LLC_rfo_miss 71
Core_0_LLC_rfo_MPKI 0.00071
Core_0_LLC_rfo_miss_rate 0.239865
Core_0_LLC_prefetch_access 1372977
Core_0_LLC_prefetch_hit 1129075
Core_0_LLC_prefetch_miss 243902
Core_0_LLC_prefetch_MPKI 2.43902
Core_0_LLC_prefetch_miss_rate 0.177645
Core_0_LLC_writeback_access 489957
Core_0_LLC_writeback_hit 457126
Core_0_LLC_writeback_miss 32831
Core_0_LLC_writeback_MPKI 0.32831
Core_0_LLC_writeback_miss_rate 0.0670079
Core_0_LLC_prefetch_requested 0
Core_0_LLC_prefetch_issued 0
Core_0_LLC_prefetch_useful 0
Core_0_LLC_prefetch_useless 0
Core_0_LLC_prefetch_late 0
Core_0_LLC_prefetch_accuracy 0
Core_0_LLC_prefetch_coverage 0
Core_0_LLC_total_eviction 400612

[DRAM Statistics]
Channel_0_RQ_row_buffer_hit 890
Channel_0_RQ_row_buffer_miss 366693
Channel_0_WQ_row_buffer_hit 20420
Channel_0_WQ_row_buffer_miss 122563
Channel_0_WQ_full 0
Channel_0_dbus_congested 1086293
DRAM_total_RQ_row_buffer_hit 890
DRAM_total_RQ_row_buffer_miss 366693
DRAM_total_WQ_row_buffer_hit 20420
DRAM_total_WQ_row_buffer_miss 122563
DRAM_total_WQ_full 0
DRAM_total_dbus_congested 1086293
DRAM_avg_congested_cycle 14.316

======STLB miss causes ========
Core_0_STLB_miss_cause_breakdown
Core_0_STLB_cause_Demand_Data_miss 164830
Core_0_STLB_cause_Demand_Data_miss_rate 0.0538234
Core_0_STLB_cause_Demand_Instruction_miss 8
Core_0_STLB_cause_Demand_Instruction_miss_rate 2.61231e-06
Core_0_STLB_cause_L1D_Prefetch_miss 0
Core_0_STLB_cause_L1D_Prefetch_miss_rate 0
Core_0_STLB_cause_L1I_Prefetch_miss 0
Core_0_STLB_cause_L1I_Prefetch_miss_rate 0
Core_0_STLB_cause_Other_miss 0
Core_0_STLB_cause_Other_miss_rate 0
Core_0_STLB_Demand_miss 164838
Core_0_STLB_Demand_miss_rate 0.053826
Core_0_STLB_L1D_Prefetch_miss 0
Core_0_STLB_L1D_Prefetch_miss_rate 0
Core_0_STLB_Other_miss 0
Core_0_STLB_Other_miss_rate 0
BERTI TO_L1: 9292114 TO_L2: 20818198 TO_L2_BC_MSHR: 1453
BERTI AVG_LAT: 22.554 NUM_TRACK_LATENCY: 4992220 NUM_CANT_TRACK_LATENCY: 0
BERTI CROSS_PAGE 25231843 NO_CROSS_PAGE: 4878469
BERTI FOUND_BERTI: 23826630 NO_FOUND_BERTI: 13667009
BERTI AVERAGE_ISSUED: 2.53105
