[VMEM] WARNING: physical memory size is smaller than virtual memory size.

*** ChampSim Multicore Out-of-Order Simulator ***
Warmup Instructions: 50000000
Simulation Instructions: 100000000
Number of CPUs: 1
Page size: 4096
STLB ideal mode: l1pref
STLB ideal fill: on
Core 0: /data0/tzh/champsim_traces/SPEC06/483.xalancbmk-127B.champsimtrace.xz
VBerti Prefetcher
BERTI HASH ENTANGLING
BERTI IP MASK ffff
Off-chip DRAM Size: 16 GiB Channels: 1 Width: 64-bit Data Rate: 3205 MT/s
Warmup halting CPU 0 at instruction 50000000 cycle 13261150 for remainder of phase
Warmup finished CPU 0 instructions: 50000000 cycles: 13261150 cumulative IPC: 3.77 (Simulation time: 00 hr 02 min 55 sec)
Warmup complete CPU 0 instructions: 50000000 cycles: 13261150 cumulative IPC: 3.77 (Simulation time: 00 hr 02 min 55 sec)
Simulation finished CPU 0 instructions: 100000000 cycles: 337391782 cumulative IPC: 0.2964 (Simulation time: 00 hr 35 min 32 sec)
Simulation complete CPU 0 instructions: 100000000 cycles: 337391782 cumulative IPC: 0.2964 (Simulation time: 00 hr 35 min 32 sec)

ChampSim completed all CPUs

=== Simulation ===
CPU 0 runs /data0/tzh/champsim_traces/SPEC06/483.xalancbmk-127B.champsimtrace.xz

Region of Interest Statistics

CPU 0 cumulative IPC: 0.2964 instructions: 100000000 cycles: 337391782
CPU 0 Branch Prediction Accuracy: 96.58% MPKI: 9.769 Average ROB Occupancy at Mispredict: 68.97
Branch type MPKI
BRANCH_DIRECT_JUMP: 3.961
BRANCH_INDIRECT: 0.00632
BRANCH_CONDITIONAL: 5.702
BRANCH_DIRECT_CALL: 0.00015
BRANCH_INDIRECT_CALL: 0.02486
BRANCH_RETURN: 0.07436

cpu0->cpu0_STLB TOTAL        ACCESS:     430807 HIT:      86647 MISS:     344160 MSHR_MERGE:          0
cpu0->cpu0_STLB LOAD         ACCESS:     430807 HIT:      86647 MISS:     344160 MSHR_MERGE:          0
cpu0->cpu0_STLB RFO          ACCESS:          0 HIT:          0 MISS:          0 MSHR_MERGE:          0
cpu0->cpu0_STLB PREFETCH     ACCESS:          0 HIT:          0 MISS:          0 MSHR_MERGE:          0
cpu0->cpu0_STLB WRITE        ACCESS:          0 HIT:          0 MISS:          0 MSHR_MERGE:          0
cpu0->cpu0_STLB TRANSLATION  ACCESS:          0 HIT:          0 MISS:          0 MSHR_MERGE:          0
cpu0->cpu0_STLB PREFETCH REQUESTED:          0 ISSUED:          0 USEFUL:          0 USELESS:          0 LATE:          0
cpu0->cpu0_STLB AVERAGE MISS LATENCY: 77.67 cycles
cpu0->cpu0_L2C TOTAL        ACCESS:    3380572 HIT:     383234 MISS:    2997338 MSHR_MERGE:      35318
cpu0->cpu0_L2C LOAD         ACCESS:    2853628 HIT:     172849 MISS:    2680779 MSHR_MERGE:       1704
cpu0->cpu0_L2C RFO          ACCESS:      14574 HIT:       6683 MISS:       7891 MSHR_MERGE:        566
cpu0->cpu0_L2C PREFETCH     ACCESS:     330240 HIT:     150346 MISS:     179894 MSHR_MERGE:      33048
cpu0->cpu0_L2C WRITE        ACCESS:      37837 HIT:      37508 MISS:        329 MSHR_MERGE:          0
cpu0->cpu0_L2C TRANSLATION  ACCESS:     144293 HIT:      15848 MISS:     128445 MSHR_MERGE:          0
cpu0->cpu0_L2C PREFETCH REQUESTED:     213507 ISSUED:     213396 USEFUL:      72308 USELESS:      31052 LATE:       1207
cpu0->cpu0_L2C AVERAGE MISS LATENCY: 169.1 cycles
cpu0->cpu0_L1I TOTAL        ACCESS:    1114835 HIT:     917005 MISS:     197830 MSHR_MERGE:      66148
cpu0->cpu0_L1I LOAD         ACCESS:    1114835 HIT:     917005 MISS:     197830 MSHR_MERGE:      66148
cpu0->cpu0_L1I RFO          ACCESS:          0 HIT:          0 MISS:          0 MSHR_MERGE:          0
cpu0->cpu0_L1I PREFETCH     ACCESS:          0 HIT:          0 MISS:          0 MSHR_MERGE:          0
cpu0->cpu0_L1I WRITE        ACCESS:          0 HIT:          0 MISS:          0 MSHR_MERGE:          0
cpu0->cpu0_L1I TRANSLATION  ACCESS:          0 HIT:          0 MISS:          0 MSHR_MERGE:          0
cpu0->cpu0_L1I PREFETCH REQUESTED:          0 ISSUED:          0 USEFUL:          0 USELESS:          0 LATE:          0
cpu0->cpu0_L1I AVERAGE MISS LATENCY: 45.56 cycles
cpu0->cpu0_L1D TOTAL        ACCESS:   29471824 HIT:   22852216 MISS:    6619608 MSHR_MERGE:    3614212
cpu0->cpu0_L1D LOAD         ACCESS:   24920135 HIT:   18636173 MISS:    6283962 MSHR_MERGE:    3562013
cpu0->cpu0_L1D RFO          ACCESS:          0 HIT:          0 MISS:          0 MSHR_MERGE:          0
cpu0->cpu0_L1D PREFETCH     ACCESS:     465601 HIT:     339313 MISS:     126288 MSHR_MERGE:       1711
cpu0->cpu0_L1D WRITE        ACCESS:    3390464 HIT:    3331367 MISS:      59097 MSHR_MERGE:      44520
cpu0->cpu0_L1D TRANSLATION  ACCESS:     695624 HIT:     545363 MISS:     150261 MSHR_MERGE:       5968
cpu0->cpu0_L1D PREFETCH REQUESTED:    1444626 ISSUED:     465600 USEFUL:      47249 USELESS:       1136 LATE:       1540
cpu0->cpu0_L1D AVERAGE MISS LATENCY: 172.7 cycles
cpu0->cpu0_ITLB TOTAL        ACCESS:     951840 HIT:     886931 MISS:      64909 MSHR_MERGE:      38731
cpu0->cpu0_ITLB LOAD         ACCESS:     951840 HIT:     886931 MISS:      64909 MSHR_MERGE:      38731
cpu0->cpu0_ITLB RFO          ACCESS:          0 HIT:          0 MISS:          0 MSHR_MERGE:          0
cpu0->cpu0_ITLB PREFETCH     ACCESS:          0 HIT:          0 MISS:          0 MSHR_MERGE:          0
cpu0->cpu0_ITLB WRITE        ACCESS:          0 HIT:          0 MISS:          0 MSHR_MERGE:          0
cpu0->cpu0_ITLB TRANSLATION  ACCESS:          0 HIT:          0 MISS:          0 MSHR_MERGE:          0
cpu0->cpu0_ITLB PREFETCH REQUESTED:          0 ISSUED:          0 USEFUL:          0 USELESS:          0 LATE:          0
cpu0->cpu0_ITLB AVERAGE MISS LATENCY: 16 cycles
cpu0->cpu0_DTLB TOTAL        ACCESS:   28008047 HIT:   27115962 MISS:     892085 MSHR_MERGE:     487456
cpu0->cpu0_DTLB LOAD         ACCESS:   28008047 HIT:   27115962 MISS:     892085 MSHR_MERGE:     487456
cpu0->cpu0_DTLB RFO          ACCESS:          0 HIT:          0 MISS:          0 MSHR_MERGE:          0
cpu0->cpu0_DTLB PREFETCH     ACCESS:          0 HIT:          0 MISS:          0 MSHR_MERGE:          0
cpu0->cpu0_DTLB WRITE        ACCESS:          0 HIT:          0 MISS:          0 MSHR_MERGE:          0
cpu0->cpu0_DTLB TRANSLATION  ACCESS:          0 HIT:          0 MISS:          0 MSHR_MERGE:          0
cpu0->cpu0_DTLB PREFETCH REQUESTED:          0 ISSUED:          0 USEFUL:          0 USELESS:          0 LATE:          0
cpu0->cpu0_DTLB AVERAGE MISS LATENCY: 71.21 cycles
cpu0->LLC TOTAL        ACCESS:    2979823 HIT:     574334 MISS:    2405489 MSHR_MERGE:       1744
cpu0->LLC LOAD         ACCESS:    2679075 HIT:     486152 MISS:    2192923 MSHR_MERGE:         50
cpu0->LLC RFO          ACCESS:       7325 HIT:       2742 MISS:       4583 MSHR_MERGE:         50
cpu0->LLC PREFETCH     ACCESS:     146846 HIT:      23001 MISS:     123845 MSHR_MERGE:       1644
cpu0->LLC WRITE        ACCESS:      18132 HIT:      11616 MISS:       6516 MSHR_MERGE:          0
cpu0->LLC TRANSLATION  ACCESS:     128445 HIT:      50823 MISS:      77622 MSHR_MERGE:          0
cpu0->LLC PREFETCH REQUESTED:          0 ISSUED:          0 USEFUL:          0 USELESS:          0 LATE:          0
cpu0->LLC AVERAGE MISS LATENCY: 189.2 cycles

DRAM Statistics

Channel 0 RQ ROW_BUFFER_HIT:      97622
  ROW_BUFFER_MISS:    2299602
  AVG DBUS CONGESTED CYCLE: 4.645
Channel 0 WQ ROW_BUFFER_HIT:       4087
  ROW_BUFFER_MISS:       5214
  FULL:          0
Channel 0 REFRESHES ISSUED:      28116

[ROI Statistics]
[System Configuration]
num_cpus 1
cpu_freq 4000
fetch_width 6
decode_width 6
dispatch_width 6
execute_width 6
lq_width 2
sq_width 2
retire_width 6
scheduler_size 128
branch_mispredict_penalty 15
rob_size 352
lq_size 128
sq_size 72
ifetch_buffer_size 64
decode_buffer_size 32
dispatch_buffer_size 32
register_file_size 288
decode_latency 1
dispatch_latency 1
schedule_latency 1
execute_latency 1
page_size 4096
block_size 64
core_0_itlb_set 16
core_0_itlb_way 4
core_0_itlb_rq_size 16
core_0_itlb_wq_size 16
core_0_itlb_pq_size 0
core_0_itlb_mshr_size 8
core_0_itlb_hit_latency 1
core_0_itlb_fill_latency 1
core_0_itlb_max_tag_check 2
core_0_itlb_max_fill 2
core_0_dtlb_set 16
core_0_dtlb_way 4
core_0_dtlb_rq_size 16
core_0_dtlb_wq_size 16
core_0_dtlb_pq_size 0
core_0_dtlb_mshr_size 8
core_0_dtlb_hit_latency 1
core_0_dtlb_fill_latency 1
core_0_dtlb_max_tag_check 2
core_0_dtlb_max_fill 2
core_0_stlb_set 128
core_0_stlb_way 12
core_0_stlb_rq_size 32
core_0_stlb_wq_size 32
core_0_stlb_pq_size 0
core_0_stlb_mshr_size 16
core_0_stlb_hit_latency 4
core_0_stlb_fill_latency 4
core_0_stlb_max_tag_check 1
core_0_stlb_max_fill 1
core_0_l1i_set 64
core_0_l1i_way 8
core_0_l1i_rq_size 64
core_0_l1i_wq_size 64
core_0_l1i_pq_size 32
core_0_l1i_mshr_size 8
core_0_l1i_hit_latency 2
core_0_l1i_fill_latency 2
core_0_l1i_max_tag_check 2
core_0_l1i_max_fill 2
core_0_l1d_set 64
core_0_l1d_way 12
core_0_l1d_rq_size 64
core_0_l1d_wq_size 64
core_0_l1d_pq_size 8
core_0_l1d_mshr_size 16
core_0_l1d_hit_latency 2
core_0_l1d_fill_latency 3
core_0_l1d_max_tag_check 2
core_0_l1d_max_fill 2
core_0_l2c_set 1024
core_0_l2c_way 8
core_0_l2c_rq_size 32
core_0_l2c_wq_size 32
core_0_l2c_pq_size 16
core_0_l2c_mshr_size 32
core_0_l2c_hit_latency 5
core_0_l2c_fill_latency 5
core_0_l2c_max_tag_check 1
core_0_l2c_max_fill 1
llc_set 2048
llc_way 16
llc_rq_size 32
llc_wq_size 32
llc_pq_size 32
llc_mshr_size 64
llc_hit_latency 10
llc_fill_latency 10
llc_max_tag_check 1
llc_max_fill 1
dram_channels 1
dram_ranks 1
dram_bankgroups 8
dram_banks 4
dram_rows 65536
dram_columns 1024
dram_channel_width 8
dram_rq_size 64
dram_wq_size 64
dram_size 17179869184
core_0_itlb_prefetcher no
core_0_dtlb_prefetcher no
core_0_stlb_prefetcher no
core_0_l1i_prefetcher next_line
core_0_l1d_prefetcher vberti
core_0_l2c_prefetcher ip_stride
llc_prefetcher no
llc_replacement drrip

Core_0_instructions 100000000
Core_0_cycles 337391782
Core_0_IPC 0.296391
Core_0_branch_prediction_accuracy 96.5768
Core_0_branch_MPKI 9.76931
Core_0_average_ROB_occupancy_at_mispredict 68.9666

Core_0_ITLB_total_access 951840
Core_0_ITLB_total_hit 886931
Core_0_ITLB_total_miss 64909
Core_0_ITLB_total_MPKI 0.64909
Core_0_ITLB_total_miss_rate 0.0681932
Core_0_ITLB_demand_access 951840
Core_0_ITLB_demand_hit 886931
Core_0_ITLB_demand_miss 64909
Core_0_ITLB_demand_MPKI 0.64909
Core_0_ITLB_demand_miss_rate 0.0681932
Core_0_ITLB_load_access 951840
Core_0_ITLB_load_hit 886931
Core_0_ITLB_load_miss 64909
Core_0_ITLB_load_MPKI 0.64909
Core_0_ITLB_load_miss_rate 0.0681932
Core_0_ITLB_rfo_access 0
Core_0_ITLB_rfo_hit 0
Core_0_ITLB_rfo_miss 0
Core_0_ITLB_rfo_MPKI 0
Core_0_ITLB_rfo_miss_rate 0
Core_0_ITLB_prefetch_access 0
Core_0_ITLB_prefetch_hit 0
Core_0_ITLB_prefetch_miss 0
Core_0_ITLB_prefetch_MPKI 0
Core_0_ITLB_prefetch_miss_rate 0
Core_0_ITLB_writeback_access 0
Core_0_ITLB_writeback_hit 0
Core_0_ITLB_writeback_miss 0
Core_0_ITLB_writeback_MPKI 0
Core_0_ITLB_writeback_miss_rate 0
Core_0_ITLB_prefetch_requested 0
Core_0_ITLB_prefetch_issued 0
Core_0_ITLB_prefetch_useful 0
Core_0_ITLB_prefetch_useless 0
Core_0_ITLB_prefetch_late 0
Core_0_ITLB_prefetch_accuracy 0
Core_0_ITLB_prefetch_coverage 0
Core_0_ITLB_total_eviction 26178

Core_0_DTLB_total_access 28008047
Core_0_DTLB_total_hit 27115962
Core_0_DTLB_total_miss 892085
Core_0_DTLB_total_MPKI 8.92085
Core_0_DTLB_total_miss_rate 0.031851
Core_0_DTLB_demand_access 28008047
Core_0_DTLB_demand_hit 27115962
Core_0_DTLB_demand_miss 892085
Core_0_DTLB_demand_MPKI 8.92085
Core_0_DTLB_demand_miss_rate 0.031851
Core_0_DTLB_load_access 28008047
Core_0_DTLB_load_hit 27115962
Core_0_DTLB_load_miss 892085
Core_0_DTLB_load_MPKI 8.92085
Core_0_DTLB_load_miss_rate 0.031851
Core_0_DTLB_rfo_access 0
Core_0_DTLB_rfo_hit 0
Core_0_DTLB_rfo_miss 0
Core_0_DTLB_rfo_MPKI 0
Core_0_DTLB_rfo_miss_rate 0
Core_0_DTLB_prefetch_access 0
Core_0_DTLB_prefetch_hit 0
Core_0_DTLB_prefetch_miss 0
Core_0_DTLB_prefetch_MPKI 0
Core_0_DTLB_prefetch_miss_rate 0
Core_0_DTLB_writeback_access 0
Core_0_DTLB_writeback_hit 0
Core_0_DTLB_writeback_miss 0
Core_0_DTLB_writeback_MPKI 0
Core_0_DTLB_writeback_miss_rate 0
Core_0_DTLB_prefetch_requested 0
Core_0_DTLB_prefetch_issued 0
Core_0_DTLB_prefetch_useful 0
Core_0_DTLB_prefetch_useless 0
Core_0_DTLB_prefetch_late 0
Core_0_DTLB_prefetch_accuracy 0
Core_0_DTLB_prefetch_coverage 0
Core_0_DTLB_total_eviction 404629

Core_0_STLB_total_access 430807
Core_0_STLB_total_hit 86647
Core_0_STLB_total_miss 344160
Core_0_STLB_total_MPKI 3.4416
Core_0_STLB_total_miss_rate 0.798873
Core_0_STLB_demand_access 430807
Core_0_STLB_demand_hit 86647
Core_0_STLB_demand_miss 344160
Core_0_STLB_demand_MPKI 3.4416
Core_0_STLB_demand_miss_rate 0.798873
Core_0_STLB_load_access 430807
Core_0_STLB_load_hit 86647
Core_0_STLB_load_miss 344160
Core_0_STLB_load_MPKI 3.4416
Core_0_STLB_load_miss_rate 0.798873
Core_0_STLB_rfo_access 0
Core_0_STLB_rfo_hit 0
Core_0_STLB_rfo_miss 0
Core_0_STLB_rfo_MPKI 0
Core_0_STLB_rfo_miss_rate 0
Core_0_STLB_prefetch_access 0
Core_0_STLB_prefetch_hit 0
Core_0_STLB_prefetch_miss 0
Core_0_STLB_prefetch_MPKI 0
Core_0_STLB_prefetch_miss_rate 0
Core_0_STLB_writeback_access 0
Core_0_STLB_writeback_hit 0
Core_0_STLB_writeback_miss 0
Core_0_STLB_writeback_MPKI 0
Core_0_STLB_writeback_miss_rate 0
Core_0_STLB_prefetch_requested 0
Core_0_STLB_prefetch_issued 0
Core_0_STLB_prefetch_useful 0
Core_0_STLB_prefetch_useless 0
Core_0_STLB_prefetch_late 0
Core_0_STLB_prefetch_accuracy 0
Core_0_STLB_prefetch_coverage 0
Core_0_STLB_total_eviction 347710

Core_0_L1I_total_access 1114835
Core_0_L1I_total_hit 917005
Core_0_L1I_total_miss 197830
Core_0_L1I_total_MPKI 1.9783
Core_0_L1I_total_miss_rate 0.177452
Core_0_L1I_demand_access 1114835
Core_0_L1I_demand_hit 917005
Core_0_L1I_demand_miss 197830
Core_0_L1I_demand_MPKI 1.9783
Core_0_L1I_demand_miss_rate 0.177452
Core_0_L1I_load_access 1114835
Core_0_L1I_load_hit 917005
Core_0_L1I_load_miss 197830
Core_0_L1I_load_MPKI 1.9783
Core_0_L1I_load_miss_rate 0.177452
Core_0_L1I_rfo_access 0
Core_0_L1I_rfo_hit 0
Core_0_L1I_rfo_miss 0
Core_0_L1I_rfo_MPKI 0
Core_0_L1I_rfo_miss_rate 0
Core_0_L1I_prefetch_access 0
Core_0_L1I_prefetch_hit 0
Core_0_L1I_prefetch_miss 0
Core_0_L1I_prefetch_MPKI 0
Core_0_L1I_prefetch_miss_rate 0
Core_0_L1I_writeback_access 0
Core_0_L1I_writeback_hit 0
Core_0_L1I_writeback_miss 0
Core_0_L1I_writeback_MPKI 0
Core_0_L1I_writeback_miss_rate 0
Core_0_L1I_prefetch_requested 0
Core_0_L1I_prefetch_issued 0
Core_0_L1I_prefetch_useful 0
Core_0_L1I_prefetch_useless 0
Core_0_L1I_prefetch_late 0
Core_0_L1I_prefetch_accuracy 0
Core_0_L1I_prefetch_coverage 0
Core_0_L1I_total_eviction 131682

Core_0_L1D_total_access 28776200
Core_0_L1D_total_hit 22306853
Core_0_L1D_total_miss 6469347
Core_0_L1D_total_MPKI 64.6935
Core_0_L1D_total_miss_rate 0.224816
Core_0_L1D_demand_access 24920135
Core_0_L1D_demand_hit 18636173
Core_0_L1D_demand_miss 6283962
Core_0_L1D_demand_MPKI 62.8396
Core_0_L1D_demand_miss_rate 0.252164
Core_0_L1D_load_access 24920135
Core_0_L1D_load_hit 18636173
Core_0_L1D_load_miss 6283962
Core_0_L1D_load_MPKI 62.8396
Core_0_L1D_load_miss_rate 0.252164
Core_0_L1D_rfo_access 0
Core_0_L1D_rfo_hit 0
Core_0_L1D_rfo_miss 0
Core_0_L1D_rfo_MPKI 0
Core_0_L1D_rfo_miss_rate 0
Core_0_L1D_prefetch_access 465601
Core_0_L1D_prefetch_hit 339313
Core_0_L1D_prefetch_miss 126288
Core_0_L1D_prefetch_MPKI 1.26288
Core_0_L1D_prefetch_miss_rate 0.271237
Core_0_L1D_writeback_access 3390464
Core_0_L1D_writeback_hit 3331367
Core_0_L1D_writeback_miss 59097
Core_0_L1D_writeback_MPKI 0.59097
Core_0_L1D_writeback_miss_rate 0.0174304
Core_0_L1D_prefetch_requested 1444626
Core_0_L1D_prefetch_issued 465600
Core_0_L1D_prefetch_useful 47249
Core_0_L1D_prefetch_useless 1136
Core_0_L1D_prefetch_late 1540
Core_0_L1D_prefetch_accuracy 0.10148
Core_0_L1D_prefetch_coverage 0.00746287
Core_0_L1D_total_eviction 2929204

Core_0_L2C_total_access 3236279
Core_0_L2C_total_hit 367386
Core_0_L2C_total_miss 2868893
Core_0_L2C_total_MPKI 28.6889
Core_0_L2C_total_miss_rate 0.886479
Core_0_L2C_demand_access 2868202
Core_0_L2C_demand_hit 179532
Core_0_L2C_demand_miss 2688670
Core_0_L2C_demand_MPKI 26.8867
Core_0_L2C_demand_miss_rate 0.937406
Core_0_L2C_load_access 2853628
Core_0_L2C_load_hit 172849
Core_0_L2C_load_miss 2680779
Core_0_L2C_load_MPKI 26.8078
Core_0_L2C_load_miss_rate 0.939428
Core_0_L2C_rfo_access 14574
Core_0_L2C_rfo_hit 6683
Core_0_L2C_rfo_miss 7891
Core_0_L2C_rfo_MPKI 0.07891
Core_0_L2C_rfo_miss_rate 0.541444
Core_0_L2C_prefetch_access 330240
Core_0_L2C_prefetch_hit 150346
Core_0_L2C_prefetch_miss 179894
Core_0_L2C_prefetch_MPKI 1.79894
Core_0_L2C_prefetch_miss_rate 0.544737
Core_0_L2C_writeback_access 37837
Core_0_L2C_writeback_hit 37508
Core_0_L2C_writeback_miss 329
Core_0_L2C_writeback_MPKI 0.00329
Core_0_L2C_writeback_miss_rate 0.00869519
Core_0_L2C_prefetch_requested 213507
Core_0_L2C_prefetch_issued 213396
Core_0_L2C_prefetch_useful 72308
Core_0_L2C_prefetch_useless 31052
Core_0_L2C_prefetch_late 1207
Core_0_L2C_prefetch_accuracy 0.338844
Core_0_L2C_prefetch_coverage 0.0261893
Core_0_L2C_total_eviction 2959330

Core_0_LLC_total_access 2851378
Core_0_LLC_total_hit 523511
Core_0_LLC_total_miss 2327867
Core_0_LLC_total_MPKI 23.2787
Core_0_LLC_total_miss_rate 0.816401
Core_0_LLC_demand_access 2686400
Core_0_LLC_demand_hit 488894
Core_0_LLC_demand_miss 2197506
Core_0_LLC_demand_MPKI 21.9751
Core_0_LLC_demand_miss_rate 0.818011
Core_0_LLC_load_access 2679075
Core_0_LLC_load_hit 486152
Core_0_LLC_load_miss 2192923
Core_0_LLC_load_MPKI 21.9292
Core_0_LLC_load_miss_rate 0.818537
Core_0_LLC_rfo_access 7325
Core_0_LLC_rfo_hit 2742
Core_0_LLC_rfo_miss 4583
Core_0_LLC_rfo_MPKI 0.04583
Core_0_LLC_rfo_miss_rate 0.625666
Core_0_LLC_prefetch_access 146846
Core_0_LLC_prefetch_hit 23001
Core_0_LLC_prefetch_miss 123845
Core_0_LLC_prefetch_MPKI 1.23845
Core_0_LLC_prefetch_miss_rate 0.843367
Core_0_LLC_writeback_access 18132
Core_0_LLC_writeback_hit 11616
Core_0_LLC_writeback_miss 6516
Core_0_LLC_writeback_MPKI 0.06516
Core_0_LLC_writeback_miss_rate 0.359365
Core_0_LLC_prefetch_requested 0
Core_0_LLC_prefetch_issued 0
Core_0_LLC_prefetch_useful 0
Core_0_LLC_prefetch_useless 0
Core_0_LLC_prefetch_late 0
Core_0_LLC_prefetch_accuracy 0
Core_0_LLC_prefetch_coverage 0
Core_0_LLC_total_eviction 2403745

[DRAM Statistics]
Channel_0_RQ_row_buffer_hit 97622
Channel_0_RQ_row_buffer_miss 2299602
Channel_0_WQ_row_buffer_hit 4087
Channel_0_WQ_row_buffer_miss 5214
Channel_0_WQ_full 0
Channel_0_dbus_congested 2002572
DRAM_total_RQ_row_buffer_hit 97622
DRAM_total_RQ_row_buffer_miss 2299602
DRAM_total_WQ_row_buffer_hit 4087
DRAM_total_WQ_row_buffer_miss 5214
DRAM_total_WQ_full 0
DRAM_total_dbus_congested 2002572
DRAM_avg_congested_cycle 4.6455

======STLB miss causes ========
Core_0_STLB_miss_cause_breakdown
Core_0_STLB_cause_Demand_Data_miss 338857
Core_0_STLB_cause_Demand_Data_miss_rate 0.786563
Core_0_STLB_cause_Demand_Instruction_miss 5303
Core_0_STLB_cause_Demand_Instruction_miss_rate 0.0123095
Core_0_STLB_cause_L1D_Prefetch_miss 0
Core_0_STLB_cause_L1D_Prefetch_miss_rate 0
Core_0_STLB_cause_L1I_Prefetch_miss 0
Core_0_STLB_cause_L1I_Prefetch_miss_rate 0
Core_0_STLB_cause_Other_miss 0
Core_0_STLB_cause_Other_miss_rate 0
Core_0_STLB_Demand_miss 344160
Core_0_STLB_Demand_miss_rate 0.798873
Core_0_STLB_L1D_Prefetch_miss 0
Core_0_STLB_L1D_Prefetch_miss_rate 0
Core_0_STLB_Other_miss 0
Core_0_STLB_Other_miss_rate 0
BERTI TO_L1: 2362459 TO_L2: 454863 TO_L2_BC_MSHR: 150293
BERTI AVG_LAT: 116.861 NUM_TRACK_LATENCY: 4174074 NUM_CANT_TRACK_LATENCY: 1
BERTI CROSS_PAGE 325372 NO_CROSS_PAGE: 2491950
BERTI FOUND_BERTI: 12712075 NO_FOUND_BERTI: 26942231
BERTI AVERAGE_ISSUED: 1.06388
