[VMEM] WARNING: physical memory size is smaller than virtual memory size.

*** ChampSim Multicore Out-of-Order Simulator ***
Warmup Instructions: 50000000
Simulation Instructions: 100000000
Number of CPUs: 1
Page size: 4096
STLB ideal mode: l1pref
STLB ideal fill: on
Core 0: /data0/tzh/champsim_traces/SPEC17/605.mcf_s-1644B.champsimtrace.xz
VBerti Prefetcher
BERTI HASH ENTANGLING
BERTI IP MASK ffff
Off-chip DRAM Size: 16 GiB Channels: 1 Width: 64-bit Data Rate: 3205 MT/s
Warmup halting CPU 0 at instruction 50000004 cycle 52820063 for remainder of phase
Warmup finished CPU 0 instructions: 50000004 cycles: 52820063 cumulative IPC: 0.9466 (Simulation time: 00 hr 08 min 46 sec)
Warmup complete CPU 0 instructions: 50000004 cycles: 52820063 cumulative IPC: 0.9466 (Simulation time: 00 hr 08 min 46 sec)
Simulation finished CPU 0 instructions: 100000005 cycles: 493567089 cumulative IPC: 0.2026 (Simulation time: 01 hr 18 min 13 sec)
Simulation complete CPU 0 instructions: 100000005 cycles: 493567089 cumulative IPC: 0.2026 (Simulation time: 01 hr 18 min 13 sec)

ChampSim completed all CPUs

=== Simulation ===
CPU 0 runs /data0/tzh/champsim_traces/SPEC17/605.mcf_s-1644B.champsimtrace.xz

Region of Interest Statistics

CPU 0 cumulative IPC: 0.2026 instructions: 100000005 cycles: 493567089
CPU 0 Branch Prediction Accuracy: 95.31% MPKI: 5.827 Average ROB Occupancy at Mispredict: 107.7
Branch type MPKI
BRANCH_DIRECT_JUMP: 0
BRANCH_INDIRECT: 0
BRANCH_CONDITIONAL: 5.827
BRANCH_DIRECT_CALL: 0
BRANCH_INDIRECT_CALL: 0
BRANCH_RETURN: 0

cpu0->cpu0_STLB TOTAL        ACCESS:    2964841 HIT:     586153 MISS:    2378688 MSHR_MERGE:          0
cpu0->cpu0_STLB LOAD         ACCESS:    2964841 HIT:     586153 MISS:    2378688 MSHR_MERGE:          0
cpu0->cpu0_STLB RFO          ACCESS:          0 HIT:          0 MISS:          0 MSHR_MERGE:          0
cpu0->cpu0_STLB PREFETCH     ACCESS:          0 HIT:          0 MISS:          0 MSHR_MERGE:          0
cpu0->cpu0_STLB WRITE        ACCESS:          0 HIT:          0 MISS:          0 MSHR_MERGE:          0
cpu0->cpu0_STLB TRANSLATION  ACCESS:          0 HIT:          0 MISS:          0 MSHR_MERGE:          0
cpu0->cpu0_STLB PREFETCH REQUESTED:          0 ISSUED:          0 USEFUL:          0 USELESS:          0 LATE:          0
cpu0->cpu0_STLB AVERAGE MISS LATENCY: 338.5 cycles
cpu0->cpu0_L2C TOTAL        ACCESS:   25986091 HIT:   12428711 MISS:   13557380 MSHR_MERGE:    2690040
cpu0->cpu0_L2C LOAD         ACCESS:    2177755 HIT:     598799 MISS:    1578956 MSHR_MERGE:       1316
cpu0->cpu0_L2C RFO          ACCESS:    4373674 HIT:        618 MISS:    4373056 MSHR_MERGE:          3
cpu0->cpu0_L2C PREFETCH     ACCESS:    7975612 HIT:    2446376 MISS:    5529236 MSHR_MERGE:    2688721
cpu0->cpu0_L2C WRITE        ACCESS:    8998456 HIT:    8995493 MISS:       2963 MSHR_MERGE:          0
cpu0->cpu0_L2C TRANSLATION  ACCESS:    2460594 HIT:     387425 MISS:    2073169 MSHR_MERGE:          0
cpu0->cpu0_L2C PREFETCH REQUESTED:    4896585 ISSUED:    4896134 USEFUL:    1699877 USELESS:      33870 LATE:        774
cpu0->cpu0_L2C AVERAGE MISS LATENCY: 367.4 cycles
cpu0->cpu0_L1I TOTAL        ACCESS:    6683791 HIT:    6683791 MISS:          0 MSHR_MERGE:          0
cpu0->cpu0_L1I LOAD         ACCESS:    6683791 HIT:    6683791 MISS:          0 MSHR_MERGE:          0
cpu0->cpu0_L1I RFO          ACCESS:          0 HIT:          0 MISS:          0 MSHR_MERGE:          0
cpu0->cpu0_L1I PREFETCH     ACCESS:          0 HIT:          0 MISS:          0 MSHR_MERGE:          0
cpu0->cpu0_L1I WRITE        ACCESS:          0 HIT:          0 MISS:          0 MSHR_MERGE:          0
cpu0->cpu0_L1I TRANSLATION  ACCESS:          0 HIT:          0 MISS:          0 MSHR_MERGE:          0
cpu0->cpu0_L1I PREFETCH REQUESTED:          0 ISSUED:          0 USEFUL:          0 USELESS:          0 LATE:          0
cpu0->cpu0_L1I AVERAGE MISS LATENCY: - cycles
cpu0->cpu0_L1D TOTAL        ACCESS:   76044038 HIT:   48604231 MISS:   27439807 MSHR_MERGE:   15343433
cpu0->cpu0_L1D LOAD         ACCESS:   23561316 HIT:   21372072 MISS:    2189244 MSHR_MERGE:      11482
cpu0->cpu0_L1D RFO          ACCESS:          0 HIT:          0 MISS:          0 MSHR_MERGE:          0
cpu0->cpu0_L1D PREFETCH     ACCESS:   11738914 HIT:    8653454 MISS:    3085460 MSHR_MERGE:       1122
cpu0->cpu0_L1D WRITE        ACCESS:   34986009 HIT:   15305959 MISS:   19680050 MSHR_MERGE:   15306370
cpu0->cpu0_L1D TRANSLATION  ACCESS:    5757799 HIT:    3272746 MISS:    2485053 MSHR_MERGE:      24459
cpu0->cpu0_L1D PREFETCH REQUESTED:   29460477 ISSUED:   11738906 USEFUL:    2447003 USELESS:       1259 LATE:       4280
cpu0->cpu0_L1D AVERAGE MISS LATENCY: 336.3 cycles
cpu0->cpu0_ITLB TOTAL        ACCESS:    6644871 HIT:    6644871 MISS:          0 MSHR_MERGE:          0
cpu0->cpu0_ITLB LOAD         ACCESS:    6644871 HIT:    6644871 MISS:          0 MSHR_MERGE:          0
cpu0->cpu0_ITLB RFO          ACCESS:          0 HIT:          0 MISS:          0 MSHR_MERGE:          0
cpu0->cpu0_ITLB PREFETCH     ACCESS:          0 HIT:          0 MISS:          0 MSHR_MERGE:          0
cpu0->cpu0_ITLB WRITE        ACCESS:          0 HIT:          0 MISS:          0 MSHR_MERGE:          0
cpu0->cpu0_ITLB TRANSLATION  ACCESS:          0 HIT:          0 MISS:          0 MSHR_MERGE:          0
cpu0->cpu0_ITLB PREFETCH REQUESTED:          0 ISSUED:          0 USEFUL:          0 USELESS:          0 LATE:          0
cpu0->cpu0_ITLB AVERAGE MISS LATENCY: - cycles
cpu0->cpu0_DTLB TOTAL        ACCESS:   61906084 HIT:   43841127 MISS:   18064957 MSHR_MERGE:   15100116
cpu0->cpu0_DTLB LOAD         ACCESS:   61906084 HIT:   43841127 MISS:   18064957 MSHR_MERGE:   15100116
cpu0->cpu0_DTLB RFO          ACCESS:          0 HIT:          0 MISS:          0 MSHR_MERGE:          0
cpu0->cpu0_DTLB PREFETCH     ACCESS:          0 HIT:          0 MISS:          0 MSHR_MERGE:          0
cpu0->cpu0_DTLB WRITE        ACCESS:          0 HIT:          0 MISS:          0 MSHR_MERGE:          0
cpu0->cpu0_DTLB TRANSLATION  ACCESS:          0 HIT:          0 MISS:          0 MSHR_MERGE:          0
cpu0->cpu0_DTLB PREFETCH REQUESTED:          0 ISSUED:          0 USEFUL:          0 USELESS:          0 LATE:          0
cpu0->cpu0_DTLB AVERAGE MISS LATENCY: 277.4 cycles
cpu0->LLC TOTAL        ACCESS:   19294623 HIT:    9116637 MISS:   10177986 MSHR_MERGE:     165571
cpu0->LLC LOAD         ACCESS:    1577636 HIT:     931853 MISS:     645783 MSHR_MERGE:         28
cpu0->LLC RFO          ACCESS:    4373051 HIT:      25233 MISS:    4347818 MSHR_MERGE:          0
cpu0->LLC PREFETCH     ACCESS:    2840204 HIT:     137917 MISS:    2702287 MSHR_MERGE:     165543
cpu0->LLC WRITE        ACCESS:    8430563 HIT:    7552382 MISS:     878181 MSHR_MERGE:          0
cpu0->LLC TRANSLATION  ACCESS:    2073169 HIT:     469252 MISS:    1603917 MSHR_MERGE:          0
cpu0->LLC PREFETCH REQUESTED:          0 ISSUED:          0 USEFUL:          0 USELESS:          0 LATE:          0
cpu0->LLC AVERAGE MISS LATENCY: 378.5 cycles

DRAM Statistics

Channel 0 RQ ROW_BUFFER_HIT:     465972
  ROW_BUFFER_MISS:    8666684
  AVG DBUS CONGESTED CYCLE: 7.803
Channel 0 WQ ROW_BUFFER_HIT:    1173159
  ROW_BUFFER_MISS:    6294726
  FULL:          0
Channel 0 REFRESHES ISSUED:      41131

[ROI Statistics]
[System Configuration]
num_cpus 1
cpu_freq 4000
fetch_width 6
decode_width 6
dispatch_width 6
execute_width 6
lq_width 2
sq_width 2
retire_width 6
scheduler_size 128
branch_mispredict_penalty 15
rob_size 352
lq_size 128
sq_size 72
ifetch_buffer_size 64
decode_buffer_size 32
dispatch_buffer_size 32
register_file_size 288
decode_latency 1
dispatch_latency 1
schedule_latency 1
execute_latency 1
page_size 4096
block_size 64
core_0_itlb_set 16
core_0_itlb_way 4
core_0_itlb_rq_size 16
core_0_itlb_wq_size 16
core_0_itlb_pq_size 0
core_0_itlb_mshr_size 8
core_0_itlb_hit_latency 1
core_0_itlb_fill_latency 1
core_0_itlb_max_tag_check 2
core_0_itlb_max_fill 2
core_0_dtlb_set 16
core_0_dtlb_way 4
core_0_dtlb_rq_size 16
core_0_dtlb_wq_size 16
core_0_dtlb_pq_size 0
core_0_dtlb_mshr_size 8
core_0_dtlb_hit_latency 1
core_0_dtlb_fill_latency 1
core_0_dtlb_max_tag_check 2
core_0_dtlb_max_fill 2
core_0_stlb_set 128
core_0_stlb_way 12
core_0_stlb_rq_size 32
core_0_stlb_wq_size 32
core_0_stlb_pq_size 0
core_0_stlb_mshr_size 16
core_0_stlb_hit_latency 4
core_0_stlb_fill_latency 4
core_0_stlb_max_tag_check 1
core_0_stlb_max_fill 1
core_0_l1i_set 64
core_0_l1i_way 8
core_0_l1i_rq_size 64
core_0_l1i_wq_size 64
core_0_l1i_pq_size 32
core_0_l1i_mshr_size 8
core_0_l1i_hit_latency 2
core_0_l1i_fill_latency 2
core_0_l1i_max_tag_check 2
core_0_l1i_max_fill 2
core_0_l1d_set 64
core_0_l1d_way 12
core_0_l1d_rq_size 64
core_0_l1d_wq_size 64
core_0_l1d_pq_size 8
core_0_l1d_mshr_size 16
core_0_l1d_hit_latency 2
core_0_l1d_fill_latency 3
core_0_l1d_max_tag_check 2
core_0_l1d_max_fill 2
core_0_l2c_set 1024
core_0_l2c_way 8
core_0_l2c_rq_size 32
core_0_l2c_wq_size 32
core_0_l2c_pq_size 16
core_0_l2c_mshr_size 32
core_0_l2c_hit_latency 5
core_0_l2c_fill_latency 5
core_0_l2c_max_tag_check 1
core_0_l2c_max_fill 1
llc_set 2048
llc_way 16
llc_rq_size 32
llc_wq_size 32
llc_pq_size 32
llc_mshr_size 64
llc_hit_latency 10
llc_fill_latency 10
llc_max_tag_check 1
llc_max_fill 1
dram_channels 1
dram_ranks 1
dram_bankgroups 8
dram_banks 4
dram_rows 65536
dram_columns 1024
dram_channel_width 8
dram_rq_size 64
dram_wq_size 64
dram_size 17179869184
core_0_itlb_prefetcher no
core_0_dtlb_prefetcher no
core_0_stlb_prefetcher no
core_0_l1i_prefetcher next_line
core_0_l1d_prefetcher vberti
core_0_l2c_prefetcher ip_stride
llc_prefetcher no
llc_replacement drrip

Core_0_instructions 100000005
Core_0_cycles 493567089
Core_0_IPC 0.202607
Core_0_branch_prediction_accuracy 95.3107
Core_0_branch_MPKI 5.82735
Core_0_average_ROB_occupancy_at_mispredict 107.713

Core_0_ITLB_total_access 6644871
Core_0_ITLB_total_hit 6644871
Core_0_ITLB_total_miss 0
Core_0_ITLB_total_MPKI 0
Core_0_ITLB_total_miss_rate 0
Core_0_ITLB_demand_access 6644871
Core_0_ITLB_demand_hit 6644871
Core_0_ITLB_demand_miss 0
Core_0_ITLB_demand_MPKI 0
Core_0_ITLB_demand_miss_rate 0
Core_0_ITLB_load_access 6644871
Core_0_ITLB_load_hit 6644871
Core_0_ITLB_load_miss 0
Core_0_ITLB_load_MPKI 0
Core_0_ITLB_load_miss_rate 0
Core_0_ITLB_rfo_access 0
Core_0_ITLB_rfo_hit 0
Core_0_ITLB_rfo_miss 0
Core_0_ITLB_rfo_MPKI 0
Core_0_ITLB_rfo_miss_rate 0
Core_0_ITLB_prefetch_access 0
Core_0_ITLB_prefetch_hit 0
Core_0_ITLB_prefetch_miss 0
Core_0_ITLB_prefetch_MPKI 0
Core_0_ITLB_prefetch_miss_rate 0
Core_0_ITLB_writeback_access 0
Core_0_ITLB_writeback_hit 0
Core_0_ITLB_writeback_miss 0
Core_0_ITLB_writeback_MPKI 0
Core_0_ITLB_writeback_miss_rate 0
Core_0_ITLB_prefetch_requested 0
Core_0_ITLB_prefetch_issued 0
Core_0_ITLB_prefetch_useful 0
Core_0_ITLB_prefetch_useless 0
Core_0_ITLB_prefetch_late 0
Core_0_ITLB_prefetch_accuracy 0
Core_0_ITLB_prefetch_coverage 0
Core_0_ITLB_total_eviction 0

Core_0_DTLB_total_access 61906084
Core_0_DTLB_total_hit 43841127
Core_0_DTLB_total_miss 18064957
Core_0_DTLB_total_MPKI 180.65
Core_0_DTLB_total_miss_rate 0.291812
Core_0_DTLB_demand_access 61906084
Core_0_DTLB_demand_hit 43841127
Core_0_DTLB_demand_miss 18064957
Core_0_DTLB_demand_MPKI 180.65
Core_0_DTLB_demand_miss_rate 0.291812
Core_0_DTLB_load_access 61906084
Core_0_DTLB_load_hit 43841127
Core_0_DTLB_load_miss 18064957
Core_0_DTLB_load_MPKI 180.65
Core_0_DTLB_load_miss_rate 0.291812
Core_0_DTLB_rfo_access 0
Core_0_DTLB_rfo_hit 0
Core_0_DTLB_rfo_miss 0
Core_0_DTLB_rfo_MPKI 0
Core_0_DTLB_rfo_miss_rate 0
Core_0_DTLB_prefetch_access 0
Core_0_DTLB_prefetch_hit 0
Core_0_DTLB_prefetch_miss 0
Core_0_DTLB_prefetch_MPKI 0
Core_0_DTLB_prefetch_miss_rate 0
Core_0_DTLB_writeback_access 0
Core_0_DTLB_writeback_hit 0
Core_0_DTLB_writeback_miss 0
Core_0_DTLB_writeback_MPKI 0
Core_0_DTLB_writeback_miss_rate 0
Core_0_DTLB_prefetch_requested 0
Core_0_DTLB_prefetch_issued 0
Core_0_DTLB_prefetch_useful 0
Core_0_DTLB_prefetch_useless 0
Core_0_DTLB_prefetch_late 0
Core_0_DTLB_prefetch_accuracy 0
Core_0_DTLB_prefetch_coverage 0
Core_0_DTLB_total_eviction 2964840

Core_0_STLB_total_access 2964841
Core_0_STLB_total_hit 586153
Core_0_STLB_total_miss 2378688
Core_0_STLB_total_MPKI 23.7869
Core_0_STLB_total_miss_rate 0.802299
Core_0_STLB_demand_access 2964841
Core_0_STLB_demand_hit 586153
Core_0_STLB_demand_miss 2378688
Core_0_STLB_demand_MPKI 23.7869
Core_0_STLB_demand_miss_rate 0.802299
Core_0_STLB_load_access 2964841
Core_0_STLB_load_hit 586153
Core_0_STLB_load_miss 2378688
Core_0_STLB_load_MPKI 23.7869
Core_0_STLB_load_miss_rate 0.802299
Core_0_STLB_rfo_access 0
Core_0_STLB_rfo_hit 0
Core_0_STLB_rfo_miss 0
Core_0_STLB_rfo_MPKI 0
Core_0_STLB_rfo_miss_rate 0
Core_0_STLB_prefetch_access 0
Core_0_STLB_prefetch_hit 0
Core_0_STLB_prefetch_miss 0
Core_0_STLB_prefetch_MPKI 0
Core_0_STLB_prefetch_miss_rate 0
Core_0_STLB_writeback_access 0
Core_0_STLB_writeback_hit 0
Core_0_STLB_writeback_miss 0
Core_0_STLB_writeback_MPKI 0
Core_0_STLB_writeback_miss_rate 0
Core_0_STLB_prefetch_requested 0
Core_0_STLB_prefetch_issued 0
Core_0_STLB_prefetch_useful 0
Core_0_STLB_prefetch_useless 0
Core_0_STLB_prefetch_late 0
Core_0_STLB_prefetch_accuracy 0
Core_0_STLB_prefetch_coverage 0
Core_0_STLB_total_eviction 2421999

Core_0_L1I_total_access 6683791
Core_0_L1I_total_hit 6683791
Core_0_L1I_total_miss 0
Core_0_L1I_total_MPKI 0
Core_0_L1I_total_miss_rate 0
Core_0_L1I_demand_access 6683791
Core_0_L1I_demand_hit 6683791
Core_0_L1I_demand_miss 0
Core_0_L1I_demand_MPKI 0
Core_0_L1I_demand_miss_rate 0
Core_0_L1I_load_access 6683791
Core_0_L1I_load_hit 6683791
Core_0_L1I_load_miss 0
Core_0_L1I_load_MPKI 0
Core_0_L1I_load_miss_rate 0
Core_0_L1I_rfo_access 0
Core_0_L1I_rfo_hit 0
Core_0_L1I_rfo_miss 0
Core_0_L1I_rfo_MPKI 0
Core_0_L1I_rfo_miss_rate 0
Core_0_L1I_prefetch_access 0
Core_0_L1I_prefetch_hit 0
Core_0_L1I_prefetch_miss 0
Core_0_L1I_prefetch_MPKI 0
Core_0_L1I_prefetch_miss_rate 0
Core_0_L1I_writeback_access 0
Core_0_L1I_writeback_hit 0
Core_0_L1I_writeback_miss 0
Core_0_L1I_writeback_MPKI 0
Core_0_L1I_writeback_miss_rate 0
Core_0_L1I_prefetch_requested 0
Core_0_L1I_prefetch_issued 0
Core_0_L1I_prefetch_useful 0
Core_0_L1I_prefetch_useless 0
Core_0_L1I_prefetch_late 0
Core_0_L1I_prefetch_accuracy 0
Core_0_L1I_prefetch_coverage 0
Core_0_L1I_total_eviction 0

Core_0_L1D_total_access 70286239
Core_0_L1D_total_hit 45331485
Core_0_L1D_total_miss 24954754
Core_0_L1D_total_MPKI 249.548
Core_0_L1D_total_miss_rate 0.355045
Core_0_L1D_demand_access 23561316
Core_0_L1D_demand_hit 21372072
Core_0_L1D_demand_miss 2189244
Core_0_L1D_demand_MPKI 21.8924
Core_0_L1D_demand_miss_rate 0.0929169
Core_0_L1D_load_access 23561316
Core_0_L1D_load_hit 21372072
Core_0_L1D_load_miss 2189244
Core_0_L1D_load_MPKI 21.8924
Core_0_L1D_load_miss_rate 0.0929169
Core_0_L1D_rfo_access 0
Core_0_L1D_rfo_hit 0
Core_0_L1D_rfo_miss 0
Core_0_L1D_rfo_MPKI 0
Core_0_L1D_rfo_miss_rate 0
Core_0_L1D_prefetch_access 11738914
Core_0_L1D_prefetch_hit 8653454
Core_0_L1D_prefetch_miss 3085460
Core_0_L1D_prefetch_MPKI 30.8546
Core_0_L1D_prefetch_miss_rate 0.26284
Core_0_L1D_writeback_access 34986009
Core_0_L1D_writeback_hit 15305959
Core_0_L1D_writeback_miss 19680050
Core_0_L1D_writeback_MPKI 196.8
Core_0_L1D_writeback_miss_rate 0.562512
Core_0_L1D_prefetch_requested 29460477
Core_0_L1D_prefetch_issued 11738906
Core_0_L1D_prefetch_useful 2447003
Core_0_L1D_prefetch_useless 1259
Core_0_L1D_prefetch_late 4280
Core_0_L1D_prefetch_accuracy 0.208452
Core_0_L1D_prefetch_coverage 0.527798
Core_0_L1D_total_eviction 11460305

Core_0_L2C_total_access 23525497
Core_0_L2C_total_hit 12041286
Core_0_L2C_total_miss 11484211
Core_0_L2C_total_MPKI 114.842
Core_0_L2C_total_miss_rate 0.48816
Core_0_L2C_demand_access 6551429
Core_0_L2C_demand_hit 599417
Core_0_L2C_demand_miss 5952012
Core_0_L2C_demand_MPKI 59.5201
Core_0_L2C_demand_miss_rate 0.908506
Core_0_L2C_load_access 2177755
Core_0_L2C_load_hit 598799
Core_0_L2C_load_miss 1578956
Core_0_L2C_load_MPKI 15.7896
Core_0_L2C_load_miss_rate 0.725038
Core_0_L2C_rfo_access 4373674
Core_0_L2C_rfo_hit 618
Core_0_L2C_rfo_miss 4373056
Core_0_L2C_rfo_MPKI 43.7306
Core_0_L2C_rfo_miss_rate 0.999859
Core_0_L2C_prefetch_access 7975612
Core_0_L2C_prefetch_hit 2446376
Core_0_L2C_prefetch_miss 5529236
Core_0_L2C_prefetch_MPKI 55.2924
Core_0_L2C_prefetch_miss_rate 0.693268
Core_0_L2C_writeback_access 8998456
Core_0_L2C_writeback_hit 8995493
Core_0_L2C_writeback_miss 2963
Core_0_L2C_writeback_MPKI 0.02963
Core_0_L2C_writeback_miss_rate 0.000329279
Core_0_L2C_prefetch_requested 4896585
Core_0_L2C_prefetch_issued 4896134
Core_0_L2C_prefetch_useful 1699877
Core_0_L2C_prefetch_useless 33870
Core_0_L2C_prefetch_late 774
Core_0_L2C_prefetch_accuracy 0.347188
Core_0_L2C_prefetch_coverage 0.222151
Core_0_L2C_total_eviction 10594537

Core_0_LLC_total_access 17221454
Core_0_LLC_total_hit 8647385
Core_0_LLC_total_miss 8574069
Core_0_LLC_total_MPKI 85.7407
Core_0_LLC_total_miss_rate 0.497871
Core_0_LLC_demand_access 5950687
Core_0_LLC_demand_hit 957086
Core_0_LLC_demand_miss 4993601
Core_0_LLC_demand_MPKI 49.936
Core_0_LLC_demand_miss_rate 0.839164
Core_0_LLC_load_access 1577636
Core_0_LLC_load_hit 931853
Core_0_LLC_load_miss 645783
Core_0_LLC_load_MPKI 6.45783
Core_0_LLC_load_miss_rate 0.409336
Core_0_LLC_rfo_access 4373051
Core_0_LLC_rfo_hit 25233
Core_0_LLC_rfo_miss 4347818
Core_0_LLC_rfo_MPKI 43.4782
Core_0_LLC_rfo_miss_rate 0.99423
Core_0_LLC_prefetch_access 2840204
Core_0_LLC_prefetch_hit 137917
Core_0_LLC_prefetch_miss 2702287
Core_0_LLC_prefetch_MPKI 27.0229
Core_0_LLC_prefetch_miss_rate 0.951441
Core_0_LLC_writeback_access 8430563
Core_0_LLC_writeback_hit 7552382
Core_0_LLC_writeback_miss 878181
Core_0_LLC_writeback_MPKI 8.78181
Core_0_LLC_writeback_miss_rate 0.104166
Core_0_LLC_prefetch_requested 0
Core_0_LLC_prefetch_issued 0
Core_0_LLC_prefetch_useful 0
Core_0_LLC_prefetch_useless 0
Core_0_LLC_prefetch_late 0
Core_0_LLC_prefetch_accuracy 0
Core_0_LLC_prefetch_coverage 0
Core_0_LLC_total_eviction 10012415

[DRAM Statistics]
Channel_0_RQ_row_buffer_hit 465972
Channel_0_RQ_row_buffer_miss 8666684
Channel_0_WQ_row_buffer_hit 1173159
Channel_0_WQ_row_buffer_miss 6294726
Channel_0_WQ_full 0
Channel_0_dbus_congested 59998491
DRAM_total_RQ_row_buffer_hit 465972
DRAM_total_RQ_row_buffer_miss 8666684
DRAM_total_WQ_row_buffer_hit 1173159
DRAM_total_WQ_row_buffer_miss 6294726
DRAM_total_WQ_full 0
DRAM_total_dbus_congested 59998491
DRAM_avg_congested_cycle 7.80336

======STLB miss causes ========
Core_0_STLB_miss_cause_breakdown
Core_0_STLB_cause_Demand_Data_miss 2378688
Core_0_STLB_cause_Demand_Data_miss_rate 0.802299
Core_0_STLB_cause_Demand_Instruction_miss 0
Core_0_STLB_cause_Demand_Instruction_miss_rate 0
Core_0_STLB_cause_L1D_Prefetch_miss 0
Core_0_STLB_cause_L1D_Prefetch_miss_rate 0
Core_0_STLB_cause_L1I_Prefetch_miss 0
Core_0_STLB_cause_L1I_Prefetch_miss_rate 0
Core_0_STLB_cause_Other_miss 0
Core_0_STLB_cause_Other_miss_rate 0
Core_0_STLB_Demand_miss 2378688
Core_0_STLB_Demand_miss_rate 0.802299
Core_0_STLB_L1D_Prefetch_miss 0
Core_0_STLB_L1D_Prefetch_miss_rate 0
Core_0_STLB_Other_miss 0
Core_0_STLB_Other_miss_rate 0
BERTI TO_L1: 30938821 TO_L2: 9713221 TO_L2_BC_MSHR: 1644103
BERTI AVG_LAT: 246.3 NUM_TRACK_LATENCY: 13460566 NUM_CANT_TRACK_LATENCY: 1
BERTI CROSS_PAGE 6155786 NO_CROSS_PAGE: 34496256
BERTI FOUND_BERTI: 66359830 NO_FOUND_BERTI: 23751522
BERTI AVERAGE_ISSUED: 3.95364
