[VMEM] WARNING: physical memory size is smaller than virtual memory size.

*** ChampSim Multicore Out-of-Order Simulator ***
Warmup Instructions: 50000000
Simulation Instructions: 100000000
Number of CPUs: 1
Page size: 4096
STLB ideal mode: l1pref
STLB ideal fill: on
Core 0: /data2/zcq/champsim_traces_gap/bc.kron-2608B.champsimtrace.xz
VBerti Prefetcher
BERTI HASH ENTANGLING
BERTI IP MASK ffff
Off-chip DRAM Size: 16 GiB Channels: 1 Width: 64-bit Data Rate: 3205 MT/s
Warmup halting CPU 0 at instruction 50000002 cycle 21759262 for remainder of phase
Warmup finished CPU 0 instructions: 50000002 cycles: 21759262 cumulative IPC: 2.298 (Simulation time: 00 hr 03 min 54 sec)
Warmup complete CPU 0 instructions: 50000002 cycles: 21759262 cumulative IPC: 2.298 (Simulation time: 00 hr 03 min 54 sec)
Simulation finished CPU 0 instructions: 100000004 cycles: 206642081 cumulative IPC: 0.4839 (Simulation time: 00 hr 20 min 45 sec)
Simulation complete CPU 0 instructions: 100000004 cycles: 206642081 cumulative IPC: 0.4839 (Simulation time: 00 hr 20 min 45 sec)

ChampSim completed all CPUs

=== Simulation ===
CPU 0 runs /data2/zcq/champsim_traces_gap/bc.kron-2608B.champsimtrace.xz

Region of Interest Statistics

CPU 0 cumulative IPC: 0.4839 instructions: 100000004 cycles: 206642081
CPU 0 Branch Prediction Accuracy: 94.53% MPKI: 8.973 Average ROB Occupancy at Mispredict: 177.9
Branch type MPKI
BRANCH_DIRECT_JUMP: 0
BRANCH_INDIRECT: 0
BRANCH_CONDITIONAL: 8.973
BRANCH_DIRECT_CALL: 0
BRANCH_INDIRECT_CALL: 0
BRANCH_RETURN: 0

cpu0->cpu0_STLB TOTAL        ACCESS:    1850907 HIT:      44307 MISS:    1806600 MSHR_MERGE:          0
cpu0->cpu0_STLB LOAD         ACCESS:    1850907 HIT:      44307 MISS:    1806600 MSHR_MERGE:          0
cpu0->cpu0_STLB RFO          ACCESS:          0 HIT:          0 MISS:          0 MSHR_MERGE:          0
cpu0->cpu0_STLB PREFETCH     ACCESS:          0 HIT:          0 MISS:          0 MSHR_MERGE:          0
cpu0->cpu0_STLB WRITE        ACCESS:          0 HIT:          0 MISS:          0 MSHR_MERGE:          0
cpu0->cpu0_STLB TRANSLATION  ACCESS:          0 HIT:          0 MISS:          0 MSHR_MERGE:          0
cpu0->cpu0_STLB PREFETCH REQUESTED:          0 ISSUED:          0 USEFUL:          0 USELESS:          0 LATE:          0
cpu0->cpu0_STLB AVERAGE MISS LATENCY: 107.8 cycles
cpu0->cpu0_L2C TOTAL        ACCESS:    8428447 HIT:    3834104 MISS:    4594343 MSHR_MERGE:     423216
cpu0->cpu0_L2C LOAD         ACCESS:    1951164 HIT:      64088 MISS:    1887076 MSHR_MERGE:        643
cpu0->cpu0_L2C RFO          ACCESS:      24513 HIT:         31 MISS:      24482 MSHR_MERGE:          0
cpu0->cpu0_L2C PREFETCH     ACCESS:    4522541 HIT:    3447280 MISS:    1075261 MSHR_MERGE:     422573
cpu0->cpu0_L2C WRITE        ACCESS:      49788 HIT:      49788 MISS:          0 MSHR_MERGE:          0
cpu0->cpu0_L2C TRANSLATION  ACCESS:    1880441 HIT:     272917 MISS:    1607524 MSHR_MERGE:          0
cpu0->cpu0_L2C PREFETCH REQUESTED:    1265850 ISSUED:    1265850 USEFUL:     322316 USELESS:      56619 LATE:         32
cpu0->cpu0_L2C AVERAGE MISS LATENCY: 164.8 cycles
cpu0->cpu0_L1I TOTAL        ACCESS:     680318 HIT:     680318 MISS:          0 MSHR_MERGE:          0
cpu0->cpu0_L1I LOAD         ACCESS:     680318 HIT:     680318 MISS:          0 MSHR_MERGE:          0
cpu0->cpu0_L1I RFO          ACCESS:          0 HIT:          0 MISS:          0 MSHR_MERGE:          0
cpu0->cpu0_L1I PREFETCH     ACCESS:          0 HIT:          0 MISS:          0 MSHR_MERGE:          0
cpu0->cpu0_L1I WRITE        ACCESS:          0 HIT:          0 MISS:          0 MSHR_MERGE:          0
cpu0->cpu0_L1I TRANSLATION  ACCESS:          0 HIT:          0 MISS:          0 MSHR_MERGE:          0
cpu0->cpu0_L1I PREFETCH REQUESTED:          0 ISSUED:          0 USEFUL:          0 USELESS:          0 LATE:          0
cpu0->cpu0_L1I AVERAGE MISS LATENCY: - cycles
cpu0->cpu0_L1D TOTAL        ACCESS:   23439870 HIT:   15988965 MISS:    7450905 MSHR_MERGE:     293276
cpu0->cpu0_L1D LOAD         ACCESS:   12626131 HIT:   10399602 MISS:    2226529 MSHR_MERGE:     275365
cpu0->cpu0_L1D RFO          ACCESS:          0 HIT:          0 MISS:          0 MSHR_MERGE:          0
cpu0->cpu0_L1D PREFETCH     ACCESS:    5715485 HIT:    2401354 MISS:    3314131 MSHR_MERGE:      12620
cpu0->cpu0_L1D WRITE        ACCESS:      52529 HIT:      28010 MISS:      24519 MSHR_MERGE:          6
cpu0->cpu0_L1D TRANSLATION  ACCESS:    5045725 HIT:    3159999 MISS:    1885726 MSHR_MERGE:       5285
cpu0->cpu0_L1D PREFETCH REQUESTED:    5738153 ISSUED:    5715486 USEFUL:     345087 USELESS:     138333 LATE:        753
cpu0->cpu0_L1D AVERAGE MISS LATENCY: 159.3 cycles
cpu0->cpu0_ITLB TOTAL        ACCESS:     680318 HIT:     680318 MISS:          0 MSHR_MERGE:          0
cpu0->cpu0_ITLB LOAD         ACCESS:     680318 HIT:     680318 MISS:          0 MSHR_MERGE:          0
cpu0->cpu0_ITLB RFO          ACCESS:          0 HIT:          0 MISS:          0 MSHR_MERGE:          0
cpu0->cpu0_ITLB PREFETCH     ACCESS:          0 HIT:          0 MISS:          0 MSHR_MERGE:          0
cpu0->cpu0_ITLB WRITE        ACCESS:          0 HIT:          0 MISS:          0 MSHR_MERGE:          0
cpu0->cpu0_ITLB TRANSLATION  ACCESS:          0 HIT:          0 MISS:          0 MSHR_MERGE:          0
cpu0->cpu0_ITLB PREFETCH REQUESTED:          0 ISSUED:          0 USEFUL:          0 USELESS:          0 LATE:          0
cpu0->cpu0_ITLB AVERAGE MISS LATENCY: - cycles
cpu0->cpu0_DTLB TOTAL        ACCESS:   16211220 HIT:   14266392 MISS:    1944828 MSHR_MERGE:      93921
cpu0->cpu0_DTLB LOAD         ACCESS:   16211220 HIT:   14266392 MISS:    1944828 MSHR_MERGE:      93921
cpu0->cpu0_DTLB RFO          ACCESS:          0 HIT:          0 MISS:          0 MSHR_MERGE:          0
cpu0->cpu0_DTLB PREFETCH     ACCESS:          0 HIT:          0 MISS:          0 MSHR_MERGE:          0
cpu0->cpu0_DTLB WRITE        ACCESS:          0 HIT:          0 MISS:          0 MSHR_MERGE:          0
cpu0->cpu0_DTLB TRANSLATION  ACCESS:          0 HIT:          0 MISS:          0 MSHR_MERGE:          0
cpu0->cpu0_DTLB PREFETCH REQUESTED:          0 ISSUED:          0 USEFUL:          0 USELESS:          0 LATE:          0
cpu0->cpu0_DTLB AVERAGE MISS LATENCY: 111.2 cycles
cpu0->LLC TOTAL        ACCESS:    4220791 HIT:    1108063 MISS:    3112728 MSHR_MERGE:         19
cpu0->LLC LOAD         ACCESS:    1886433 HIT:       4387 MISS:    1882046 MSHR_MERGE:          0
cpu0->LLC RFO          ACCESS:      24482 HIT:          4 MISS:      24478 MSHR_MERGE:          0
cpu0->LLC PREFETCH     ACCESS:     652688 HIT:         98 MISS:     652590 MSHR_MERGE:         19
cpu0->LLC WRITE        ACCESS:      49664 HIT:       9281 MISS:      40383 MSHR_MERGE:          0
cpu0->LLC TRANSLATION  ACCESS:    1607524 HIT:    1094293 MISS:     513231 MSHR_MERGE:          0
cpu0->LLC PREFETCH REQUESTED:          0 ISSUED:          0 USEFUL:          0 USELESS:          0 LATE:          0
cpu0->LLC AVERAGE MISS LATENCY: 213.3 cycles

DRAM Statistics

Channel 0 RQ ROW_BUFFER_HIT:       2254
  ROW_BUFFER_MISS:    3070072
  AVG DBUS CONGESTED CYCLE: 11.9
Channel 0 WQ ROW_BUFFER_HIT:      18520
  ROW_BUFFER_MISS:      31676
  FULL:          0
Channel 0 REFRESHES ISSUED:      17220

[ROI Statistics]
[System Configuration]
num_cpus 1
cpu_freq 4000
fetch_width 6
decode_width 6
dispatch_width 6
execute_width 6
lq_width 2
sq_width 2
retire_width 6
scheduler_size 128
branch_mispredict_penalty 15
rob_size 352
lq_size 128
sq_size 72
ifetch_buffer_size 64
decode_buffer_size 32
dispatch_buffer_size 32
register_file_size 288
decode_latency 1
dispatch_latency 1
schedule_latency 1
execute_latency 1
page_size 4096
block_size 64
core_0_itlb_set 16
core_0_itlb_way 4
core_0_itlb_rq_size 16
core_0_itlb_wq_size 16
core_0_itlb_pq_size 0
core_0_itlb_mshr_size 8
core_0_itlb_hit_latency 1
core_0_itlb_fill_latency 1
core_0_itlb_max_tag_check 2
core_0_itlb_max_fill 2
core_0_dtlb_set 16
core_0_dtlb_way 4
core_0_dtlb_rq_size 16
core_0_dtlb_wq_size 16
core_0_dtlb_pq_size 0
core_0_dtlb_mshr_size 8
core_0_dtlb_hit_latency 1
core_0_dtlb_fill_latency 1
core_0_dtlb_max_tag_check 2
core_0_dtlb_max_fill 2
core_0_stlb_set 128
core_0_stlb_way 12
core_0_stlb_rq_size 32
core_0_stlb_wq_size 32
core_0_stlb_pq_size 0
core_0_stlb_mshr_size 16
core_0_stlb_hit_latency 4
core_0_stlb_fill_latency 4
core_0_stlb_max_tag_check 1
core_0_stlb_max_fill 1
core_0_l1i_set 64
core_0_l1i_way 8
core_0_l1i_rq_size 64
core_0_l1i_wq_size 64
core_0_l1i_pq_size 32
core_0_l1i_mshr_size 8
core_0_l1i_hit_latency 2
core_0_l1i_fill_latency 2
core_0_l1i_max_tag_check 2
core_0_l1i_max_fill 2
core_0_l1d_set 64
core_0_l1d_way 12
core_0_l1d_rq_size 64
core_0_l1d_wq_size 64
core_0_l1d_pq_size 8
core_0_l1d_mshr_size 16
core_0_l1d_hit_latency 2
core_0_l1d_fill_latency 3
core_0_l1d_max_tag_check 2
core_0_l1d_max_fill 2
core_0_l2c_set 1024
core_0_l2c_way 8
core_0_l2c_rq_size 32
core_0_l2c_wq_size 32
core_0_l2c_pq_size 16
core_0_l2c_mshr_size 32
core_0_l2c_hit_latency 5
core_0_l2c_fill_latency 5
core_0_l2c_max_tag_check 1
core_0_l2c_max_fill 1
llc_set 2048
llc_way 16
llc_rq_size 32
llc_wq_size 32
llc_pq_size 32
llc_mshr_size 64
llc_hit_latency 10
llc_fill_latency 10
llc_max_tag_check 1
llc_max_fill 1
dram_channels 1
dram_ranks 1
dram_bankgroups 8
dram_banks 4
dram_rows 65536
dram_columns 1024
dram_channel_width 8
dram_rq_size 64
dram_wq_size 64
dram_size 17179869184
core_0_itlb_prefetcher no
core_0_dtlb_prefetcher no
core_0_stlb_prefetcher no
core_0_l1i_prefetcher next_line
core_0_l1d_prefetcher vberti
core_0_l2c_prefetcher ip_stride
llc_prefetcher no
llc_replacement drrip

Core_0_instructions 100000004
Core_0_cycles 206642081
Core_0_IPC 0.483929
Core_0_branch_prediction_accuracy 94.532
Core_0_branch_MPKI 8.9733
Core_0_average_ROB_occupancy_at_mispredict 177.898

Core_0_ITLB_total_access 680318
Core_0_ITLB_total_hit 680318
Core_0_ITLB_total_miss 0
Core_0_ITLB_total_MPKI 0
Core_0_ITLB_total_miss_rate 0
Core_0_ITLB_demand_access 680318
Core_0_ITLB_demand_hit 680318
Core_0_ITLB_demand_miss 0
Core_0_ITLB_demand_MPKI 0
Core_0_ITLB_demand_miss_rate 0
Core_0_ITLB_load_access 680318
Core_0_ITLB_load_hit 680318
Core_0_ITLB_load_miss 0
Core_0_ITLB_load_MPKI 0
Core_0_ITLB_load_miss_rate 0
Core_0_ITLB_rfo_access 0
Core_0_ITLB_rfo_hit 0
Core_0_ITLB_rfo_miss 0
Core_0_ITLB_rfo_MPKI 0
Core_0_ITLB_rfo_miss_rate 0
Core_0_ITLB_prefetch_access 0
Core_0_ITLB_prefetch_hit 0
Core_0_ITLB_prefetch_miss 0
Core_0_ITLB_prefetch_MPKI 0
Core_0_ITLB_prefetch_miss_rate 0
Core_0_ITLB_writeback_access 0
Core_0_ITLB_writeback_hit 0
Core_0_ITLB_writeback_miss 0
Core_0_ITLB_writeback_MPKI 0
Core_0_ITLB_writeback_miss_rate 0
Core_0_ITLB_prefetch_requested 0
Core_0_ITLB_prefetch_issued 0
Core_0_ITLB_prefetch_useful 0
Core_0_ITLB_prefetch_useless 0
Core_0_ITLB_prefetch_late 0
Core_0_ITLB_prefetch_accuracy 0
Core_0_ITLB_prefetch_coverage 0
Core_0_ITLB_total_eviction 0

Core_0_DTLB_total_access 16211220
Core_0_DTLB_total_hit 14266392
Core_0_DTLB_total_miss 1944828
Core_0_DTLB_total_MPKI 19.4483
Core_0_DTLB_total_miss_rate 0.119968
Core_0_DTLB_demand_access 16211220
Core_0_DTLB_demand_hit 14266392
Core_0_DTLB_demand_miss 1944828
Core_0_DTLB_demand_MPKI 19.4483
Core_0_DTLB_demand_miss_rate 0.119968
Core_0_DTLB_load_access 16211220
Core_0_DTLB_load_hit 14266392
Core_0_DTLB_load_miss 1944828
Core_0_DTLB_load_MPKI 19.4483
Core_0_DTLB_load_miss_rate 0.119968
Core_0_DTLB_rfo_access 0
Core_0_DTLB_rfo_hit 0
Core_0_DTLB_rfo_miss 0
Core_0_DTLB_rfo_MPKI 0
Core_0_DTLB_rfo_miss_rate 0
Core_0_DTLB_prefetch_access 0
Core_0_DTLB_prefetch_hit 0
Core_0_DTLB_prefetch_miss 0
Core_0_DTLB_prefetch_MPKI 0
Core_0_DTLB_prefetch_miss_rate 0
Core_0_DTLB_writeback_access 0
Core_0_DTLB_writeback_hit 0
Core_0_DTLB_writeback_miss 0
Core_0_DTLB_writeback_MPKI 0
Core_0_DTLB_writeback_miss_rate 0
Core_0_DTLB_prefetch_requested 0
Core_0_DTLB_prefetch_issued 0
Core_0_DTLB_prefetch_useful 0
Core_0_DTLB_prefetch_useless 0
Core_0_DTLB_prefetch_late 0
Core_0_DTLB_prefetch_accuracy 0
Core_0_DTLB_prefetch_coverage 0
Core_0_DTLB_total_eviction 1850907

Core_0_STLB_total_access 1850907
Core_0_STLB_total_hit 44307
Core_0_STLB_total_miss 1806600
Core_0_STLB_total_MPKI 18.066
Core_0_STLB_total_miss_rate 0.976062
Core_0_STLB_demand_access 1850907
Core_0_STLB_demand_hit 44307
Core_0_STLB_demand_miss 1806600
Core_0_STLB_demand_MPKI 18.066
Core_0_STLB_demand_miss_rate 0.976062
Core_0_STLB_load_access 1850907
Core_0_STLB_load_hit 44307
Core_0_STLB_load_miss 1806600
Core_0_STLB_load_MPKI 18.066
Core_0_STLB_load_miss_rate 0.976062
Core_0_STLB_rfo_access 0
Core_0_STLB_rfo_hit 0
Core_0_STLB_rfo_miss 0
Core_0_STLB_rfo_MPKI 0
Core_0_STLB_rfo_miss_rate 0
Core_0_STLB_prefetch_access 0
Core_0_STLB_prefetch_hit 0
Core_0_STLB_prefetch_miss 0
Core_0_STLB_prefetch_MPKI 0
Core_0_STLB_prefetch_miss_rate 0
Core_0_STLB_writeback_access 0
Core_0_STLB_writeback_hit 0
Core_0_STLB_writeback_miss 0
Core_0_STLB_writeback_MPKI 0
Core_0_STLB_writeback_miss_rate 0
Core_0_STLB_prefetch_requested 0
Core_0_STLB_prefetch_issued 0
Core_0_STLB_prefetch_useful 0
Core_0_STLB_prefetch_useless 0
Core_0_STLB_prefetch_late 0
Core_0_STLB_prefetch_accuracy 0
Core_0_STLB_prefetch_coverage 0
Core_0_STLB_total_eviction 1815955

Core_0_L1I_total_access 680318
Core_0_L1I_total_hit 680318
Core_0_L1I_total_miss 0
Core_0_L1I_total_MPKI 0
Core_0_L1I_total_miss_rate 0
Core_0_L1I_demand_access 680318
Core_0_L1I_demand_hit 680318
Core_0_L1I_demand_miss 0
Core_0_L1I_demand_MPKI 0
Core_0_L1I_demand_miss_rate 0
Core_0_L1I_load_access 680318
Core_0_L1I_load_hit 680318
Core_0_L1I_load_miss 0
Core_0_L1I_load_MPKI 0
Core_0_L1I_load_miss_rate 0
Core_0_L1I_rfo_access 0
Core_0_L1I_rfo_hit 0
Core_0_L1I_rfo_miss 0
Core_0_L1I_rfo_MPKI 0
Core_0_L1I_rfo_miss_rate 0
Core_0_L1I_prefetch_access 0
Core_0_L1I_prefetch_hit 0
Core_0_L1I_prefetch_miss 0
Core_0_L1I_prefetch_MPKI 0
Core_0_L1I_prefetch_miss_rate 0
Core_0_L1I_writeback_access 0
Core_0_L1I_writeback_hit 0
Core_0_L1I_writeback_miss 0
Core_0_L1I_writeback_MPKI 0
Core_0_L1I_writeback_miss_rate 0
Core_0_L1I_prefetch_requested 0
Core_0_L1I_prefetch_issued 0
Core_0_L1I_prefetch_useful 0
Core_0_L1I_prefetch_useless 0
Core_0_L1I_prefetch_late 0
Core_0_L1I_prefetch_accuracy 0
Core_0_L1I_prefetch_coverage 0
Core_0_L1I_total_eviction 0

Core_0_L1D_total_access 18394145
Core_0_L1D_total_hit 12828966
Core_0_L1D_total_miss 5565179
Core_0_L1D_total_MPKI 55.6518
Core_0_L1D_total_miss_rate 0.302552
Core_0_L1D_demand_access 12626131
Core_0_L1D_demand_hit 10399602
Core_0_L1D_demand_miss 2226529
Core_0_L1D_demand_MPKI 22.2653
Core_0_L1D_demand_miss_rate 0.176343
Core_0_L1D_load_access 12626131
Core_0_L1D_load_hit 10399602
Core_0_L1D_load_miss 2226529
Core_0_L1D_load_MPKI 22.2653
Core_0_L1D_load_miss_rate 0.176343
Core_0_L1D_rfo_access 0
Core_0_L1D_rfo_hit 0
Core_0_L1D_rfo_miss 0
Core_0_L1D_rfo_MPKI 0
Core_0_L1D_rfo_miss_rate 0
Core_0_L1D_prefetch_access 5715485
Core_0_L1D_prefetch_hit 2401354
Core_0_L1D_prefetch_miss 3314131
Core_0_L1D_prefetch_MPKI 33.1413
Core_0_L1D_prefetch_miss_rate 0.579851
Core_0_L1D_writeback_access 52529
Core_0_L1D_writeback_hit 28010
Core_0_L1D_writeback_miss 24519
Core_0_L1D_writeback_MPKI 0.24519
Core_0_L1D_writeback_miss_rate 0.466771
Core_0_L1D_prefetch_requested 5738153
Core_0_L1D_prefetch_issued 5715486
Core_0_L1D_prefetch_useful 345087
Core_0_L1D_prefetch_useless 138333
Core_0_L1D_prefetch_late 753
Core_0_L1D_prefetch_accuracy 0.0603775
Core_0_L1D_prefetch_coverage 0.134191
Core_0_L1D_total_eviction 4339544

Core_0_L2C_total_access 6548006
Core_0_L2C_total_hit 3561187
Core_0_L2C_total_miss 2986819
Core_0_L2C_total_MPKI 29.8682
Core_0_L2C_total_miss_rate 0.456142
Core_0_L2C_demand_access 1975677
Core_0_L2C_demand_hit 64119
Core_0_L2C_demand_miss 1911558
Core_0_L2C_demand_MPKI 19.1156
Core_0_L2C_demand_miss_rate 0.967546
Core_0_L2C_load_access 1951164
Core_0_L2C_load_hit 64088
Core_0_L2C_load_miss 1887076
Core_0_L2C_load_MPKI 18.8708
Core_0_L2C_load_miss_rate 0.967154
Core_0_L2C_rfo_access 24513
Core_0_L2C_rfo_hit 31
Core_0_L2C_rfo_miss 24482
Core_0_L2C_rfo_MPKI 0.24482
Core_0_L2C_rfo_miss_rate 0.998735
Core_0_L2C_prefetch_access 4522541
Core_0_L2C_prefetch_hit 3447280
Core_0_L2C_prefetch_miss 1075261
Core_0_L2C_prefetch_MPKI 10.7526
Core_0_L2C_prefetch_miss_rate 0.237756
Core_0_L2C_writeback_access 49788
Core_0_L2C_writeback_hit 49788
Core_0_L2C_writeback_miss 0
Core_0_L2C_writeback_MPKI 0
Core_0_L2C_writeback_miss_rate 0
Core_0_L2C_prefetch_requested 1265850
Core_0_L2C_prefetch_issued 1265850
Core_0_L2C_prefetch_useful 322316
Core_0_L2C_prefetch_useless 56619
Core_0_L2C_prefetch_late 32
Core_0_L2C_prefetch_accuracy 0.254624
Core_0_L2C_prefetch_coverage 0.144286
Core_0_L2C_total_eviction 4171069

Core_0_LLC_total_access 2613267
Core_0_LLC_total_hit 13770
Core_0_LLC_total_miss 2599497
Core_0_LLC_total_MPKI 25.995
Core_0_LLC_total_miss_rate 0.994731
Core_0_LLC_demand_access 1910915
Core_0_LLC_demand_hit 4391
Core_0_LLC_demand_miss 1906524
Core_0_LLC_demand_MPKI 19.0652
Core_0_LLC_demand_miss_rate 0.997702
Core_0_LLC_load_access 1886433
Core_0_LLC_load_hit 4387
Core_0_LLC_load_miss 1882046
Core_0_LLC_load_MPKI 18.8205
Core_0_LLC_load_miss_rate 0.997674
Core_0_LLC_rfo_access 24482
Core_0_LLC_rfo_hit 4
Core_0_LLC_rfo_miss 24478
Core_0_LLC_rfo_MPKI 0.24478
Core_0_LLC_rfo_miss_rate 0.999837
Core_0_LLC_prefetch_access 652688
Core_0_LLC_prefetch_hit 98
Core_0_LLC_prefetch_miss 652590
Core_0_LLC_prefetch_MPKI 6.5259
Core_0_LLC_prefetch_miss_rate 0.99985
Core_0_LLC_writeback_access 49664
Core_0_LLC_writeback_hit 9281
Core_0_LLC_writeback_miss 40383
Core_0_LLC_writeback_MPKI 0.40383
Core_0_LLC_writeback_miss_rate 0.813124
Core_0_LLC_prefetch_requested 0
Core_0_LLC_prefetch_issued 0
Core_0_LLC_prefetch_useful 0
Core_0_LLC_prefetch_useless 0
Core_0_LLC_prefetch_late 0
Core_0_LLC_prefetch_accuracy 0
Core_0_LLC_prefetch_coverage 0
Core_0_LLC_total_eviction 3112709

[DRAM Statistics]
Channel_0_RQ_row_buffer_hit 2254
Channel_0_RQ_row_buffer_miss 3070072
Channel_0_WQ_row_buffer_hit 18520
Channel_0_WQ_row_buffer_miss 31676
Channel_0_WQ_full 0
Channel_0_dbus_congested 4388615
DRAM_total_RQ_row_buffer_hit 2254
DRAM_total_RQ_row_buffer_miss 3070072
DRAM_total_WQ_row_buffer_hit 18520
DRAM_total_WQ_row_buffer_miss 31676
DRAM_total_WQ_full 0
DRAM_total_dbus_congested 4388615
DRAM_avg_congested_cycle 11.895

======STLB miss causes ========
Core_0_STLB_miss_cause_breakdown
Core_0_STLB_cause_Demand_Data_miss 1806600
Core_0_STLB_cause_Demand_Data_miss_rate 0.976062
Core_0_STLB_cause_Demand_Instruction_miss 0
Core_0_STLB_cause_Demand_Instruction_miss_rate 0
Core_0_STLB_cause_L1D_Prefetch_miss 0
Core_0_STLB_cause_L1D_Prefetch_miss_rate 0
Core_0_STLB_cause_L1I_Prefetch_miss 0
Core_0_STLB_cause_L1I_Prefetch_miss_rate 0
Core_0_STLB_cause_Other_miss 0
Core_0_STLB_cause_Other_miss_rate 0
Core_0_STLB_Demand_miss 1806600
Core_0_STLB_Demand_miss_rate 0.976062
Core_0_STLB_L1D_Prefetch_miss 0
Core_0_STLB_L1D_Prefetch_miss_rate 0
Core_0_STLB_Other_miss 0
Core_0_STLB_Other_miss_rate 0
BERTI TO_L1: 3855334 TO_L2: 4434403 TO_L2_BC_MSHR: 594
BERTI AVG_LAT: 137.969 NUM_TRACK_LATENCY: 3679461 NUM_CANT_TRACK_LATENCY: 0
BERTI CROSS_PAGE 354289 NO_CROSS_PAGE: 7935448
BERTI FOUND_BERTI: 16899445 NO_FOUND_BERTI: 1372610
BERTI AVERAGE_ISSUED: 2.55408
