[VMEM] WARNING: physical memory size is smaller than virtual memory size.

*** ChampSim Multicore Out-of-Order Simulator ***
Warmup Instructions: 50000000
Simulation Instructions: 100000000
Number of CPUs: 1
Page size: 4096
STLB ideal mode: l1pref
STLB ideal fill: on
Core 0: /data2/zcq/champsim_traces_gap/bc.road-174B.champsimtrace.xz
VBerti Prefetcher
BERTI HASH ENTANGLING
BERTI IP MASK ffff
Off-chip DRAM Size: 16 GiB Channels: 1 Width: 64-bit Data Rate: 3205 MT/s
Warmup halting CPU 0 at instruction 50000005 cycle 14576546 for remainder of phase
Warmup finished CPU 0 instructions: 50000005 cycles: 14576546 cumulative IPC: 3.43 (Simulation time: 00 hr 03 min 17 sec)
Warmup complete CPU 0 instructions: 50000005 cycles: 14576546 cumulative IPC: 3.43 (Simulation time: 00 hr 03 min 17 sec)
Simulation finished CPU 0 instructions: 100000000 cycles: 431097932 cumulative IPC: 0.232 (Simulation time: 00 hr 32 min 23 sec)
Simulation complete CPU 0 instructions: 100000000 cycles: 431097932 cumulative IPC: 0.232 (Simulation time: 00 hr 32 min 23 sec)

ChampSim completed all CPUs

=== Simulation ===
CPU 0 runs /data2/zcq/champsim_traces_gap/bc.road-174B.champsimtrace.xz

Region of Interest Statistics

CPU 0 cumulative IPC: 0.232 instructions: 100000000 cycles: 431097932
CPU 0 Branch Prediction Accuracy: 88.47% MPKI: 17.26 Average ROB Occupancy at Mispredict: 37.73
Branch type MPKI
BRANCH_DIRECT_JUMP: 0
BRANCH_INDIRECT: 0
BRANCH_CONDITIONAL: 17.26
BRANCH_DIRECT_CALL: 0
BRANCH_INDIRECT_CALL: 0
BRANCH_RETURN: 0

cpu0->cpu0_STLB TOTAL        ACCESS:    1745563 HIT:     870775 MISS:     874788 MSHR_MERGE:          0
cpu0->cpu0_STLB LOAD         ACCESS:    1745563 HIT:     870775 MISS:     874788 MSHR_MERGE:          0
cpu0->cpu0_STLB RFO          ACCESS:          0 HIT:          0 MISS:          0 MSHR_MERGE:          0
cpu0->cpu0_STLB PREFETCH     ACCESS:          0 HIT:          0 MISS:          0 MSHR_MERGE:          0
cpu0->cpu0_STLB WRITE        ACCESS:          0 HIT:          0 MISS:          0 MSHR_MERGE:          0
cpu0->cpu0_STLB TRANSLATION  ACCESS:          0 HIT:          0 MISS:          0 MSHR_MERGE:          0
cpu0->cpu0_STLB PREFETCH REQUESTED:          0 ISSUED:          0 USEFUL:          0 USELESS:          0 LATE:          0
cpu0->cpu0_STLB AVERAGE MISS LATENCY: 23.71 cycles
cpu0->cpu0_L2C TOTAL        ACCESS:    9806518 HIT:    4463189 MISS:    5343329 MSHR_MERGE:      67563
cpu0->cpu0_L2C LOAD         ACCESS:    4956471 HIT:     242655 MISS:    4713816 MSHR_MERGE:        322
cpu0->cpu0_L2C RFO          ACCESS:       9987 HIT:       8499 MISS:       1488 MSHR_MERGE:          0
cpu0->cpu0_L2C PREFETCH     ACCESS:    2178669 HIT:    1842761 MISS:     335908 MSHR_MERGE:      67241
cpu0->cpu0_L2C WRITE        ACCESS:    2236251 HIT:    2235253 MISS:        998 MSHR_MERGE:          0
cpu0->cpu0_L2C TRANSLATION  ACCESS:     425140 HIT:     134021 MISS:     291119 MSHR_MERGE:          0
cpu0->cpu0_L2C PREFETCH REQUESTED:     473268 ISSUED:     462590 USEFUL:      90851 USELESS:      25972 LATE:         82
cpu0->cpu0_L2C AVERAGE MISS LATENCY: 74.35 cycles
cpu0->cpu0_L1I TOTAL        ACCESS:    4798267 HIT:    4798267 MISS:          0 MSHR_MERGE:          0
cpu0->cpu0_L1I LOAD         ACCESS:    4798267 HIT:    4798267 MISS:          0 MSHR_MERGE:          0
cpu0->cpu0_L1I RFO          ACCESS:          0 HIT:          0 MISS:          0 MSHR_MERGE:          0
cpu0->cpu0_L1I PREFETCH     ACCESS:          0 HIT:          0 MISS:          0 MSHR_MERGE:          0
cpu0->cpu0_L1I WRITE        ACCESS:          0 HIT:          0 MISS:          0 MSHR_MERGE:          0
cpu0->cpu0_L1I TRANSLATION  ACCESS:          0 HIT:          0 MISS:          0 MSHR_MERGE:          0
cpu0->cpu0_L1I PREFETCH REQUESTED:          0 ISSUED:          0 USEFUL:          0 USELESS:          0 LATE:          0
cpu0->cpu0_L1I AVERAGE MISS LATENCY: - cycles
cpu0->cpu0_L1D TOTAL        ACCESS:   85610726 HIT:   77356326 MISS:    8254400 MSHR_MERGE:    1145227
cpu0->cpu0_L1D LOAD         ACCESS:   36336454 HIT:   30246962 MISS:    6089492 MSHR_MERGE:    1133008
cpu0->cpu0_L1D RFO          ACCESS:          0 HIT:          0 MISS:          0 MSHR_MERGE:          0
cpu0->cpu0_L1D PREFETCH     ACCESS:   37494268 HIT:   35775633 MISS:    1718635 MSHR_MERGE:       1074
cpu0->cpu0_L1D WRITE        ACCESS:    9946666 HIT:    9928477 MISS:      18189 MSHR_MERGE:       8201
cpu0->cpu0_L1D TRANSLATION  ACCESS:    1833338 HIT:    1405254 MISS:     428084 MSHR_MERGE:       2944
cpu0->cpu0_L1D PREFETCH REQUESTED:   86584648 ISSUED:   37494264 USEFUL:     287551 USELESS:      15432 LATE:          2
cpu0->cpu0_L1D AVERAGE MISS LATENCY: 78 cycles
cpu0->cpu0_ITLB TOTAL        ACCESS:    4794913 HIT:    4794913 MISS:          0 MSHR_MERGE:          0
cpu0->cpu0_ITLB LOAD         ACCESS:    4794913 HIT:    4794913 MISS:          0 MSHR_MERGE:          0
cpu0->cpu0_ITLB RFO          ACCESS:          0 HIT:          0 MISS:          0 MSHR_MERGE:          0
cpu0->cpu0_ITLB PREFETCH     ACCESS:          0 HIT:          0 MISS:          0 MSHR_MERGE:          0
cpu0->cpu0_ITLB WRITE        ACCESS:          0 HIT:          0 MISS:          0 MSHR_MERGE:          0
cpu0->cpu0_ITLB TRANSLATION  ACCESS:          0 HIT:          0 MISS:          0 MSHR_MERGE:          0
cpu0->cpu0_ITLB PREFETCH REQUESTED:          0 ISSUED:          0 USEFUL:          0 USELESS:          0 LATE:          0
cpu0->cpu0_ITLB AVERAGE MISS LATENCY: - cycles
cpu0->cpu0_DTLB TOTAL        ACCESS:   68138972 HIT:   65902751 MISS:    2236221 MSHR_MERGE:     490658
cpu0->cpu0_DTLB LOAD         ACCESS:   68138972 HIT:   65902751 MISS:    2236221 MSHR_MERGE:     490658
cpu0->cpu0_DTLB RFO          ACCESS:          0 HIT:          0 MISS:          0 MSHR_MERGE:          0
cpu0->cpu0_DTLB PREFETCH     ACCESS:          0 HIT:          0 MISS:          0 MSHR_MERGE:          0
cpu0->cpu0_DTLB WRITE        ACCESS:          0 HIT:          0 MISS:          0 MSHR_MERGE:          0
cpu0->cpu0_DTLB TRANSLATION  ACCESS:          0 HIT:          0 MISS:          0 MSHR_MERGE:          0
cpu0->cpu0_DTLB PREFETCH REQUESTED:          0 ISSUED:          0 USEFUL:          0 USELESS:          0 LATE:          0
cpu0->cpu0_DTLB AVERAGE MISS LATENCY: 17.39 cycles
cpu0->LLC TOTAL        ACCESS:    7380628 HIT:    5631895 MISS:    1748733 MSHR_MERGE:          0
cpu0->LLC LOAD         ACCESS:    4713491 HIT:    3145281 MISS:    1568210 MSHR_MERGE:          0
cpu0->LLC RFO          ACCESS:       1488 HIT:       1374 MISS:        114 MSHR_MERGE:          0
cpu0->LLC PREFETCH     ACCESS:     268667 HIT:     146357 MISS:     122310 MSHR_MERGE:          0
cpu0->LLC WRITE        ACCESS:    2105863 HIT:    2055640 MISS:      50223 MSHR_MERGE:          0
cpu0->LLC TRANSLATION  ACCESS:     291119 HIT:     283243 MISS:       7876 MSHR_MERGE:          0
cpu0->LLC PREFETCH REQUESTED:          0 ISSUED:          0 USEFUL:          0 USELESS:          0 LATE:          0
cpu0->LLC AVERAGE MISS LATENCY: 182 cycles

DRAM Statistics

Channel 0 RQ ROW_BUFFER_HIT:       4525
  ROW_BUFFER_MISS:    1693644
  AVG DBUS CONGESTED CYCLE: 21.73
Channel 0 WQ ROW_BUFFER_HIT:     185175
  ROW_BUFFER_MISS:     405726
  FULL:          0
Channel 0 REFRESHES ISSUED:      35925

[ROI Statistics]
[System Configuration]
num_cpus 1
cpu_freq 4000
fetch_width 6
decode_width 6
dispatch_width 6
execute_width 6
lq_width 2
sq_width 2
retire_width 6
scheduler_size 128
branch_mispredict_penalty 15
rob_size 352
lq_size 128
sq_size 72
ifetch_buffer_size 64
decode_buffer_size 32
dispatch_buffer_size 32
register_file_size 288
decode_latency 1
dispatch_latency 1
schedule_latency 1
execute_latency 1
page_size 4096
block_size 64
core_0_itlb_set 16
core_0_itlb_way 4
core_0_itlb_rq_size 16
core_0_itlb_wq_size 16
core_0_itlb_pq_size 0
core_0_itlb_mshr_size 8
core_0_itlb_hit_latency 1
core_0_itlb_fill_latency 1
core_0_itlb_max_tag_check 2
core_0_itlb_max_fill 2
core_0_dtlb_set 16
core_0_dtlb_way 4
core_0_dtlb_rq_size 16
core_0_dtlb_wq_size 16
core_0_dtlb_pq_size 0
core_0_dtlb_mshr_size 8
core_0_dtlb_hit_latency 1
core_0_dtlb_fill_latency 1
core_0_dtlb_max_tag_check 2
core_0_dtlb_max_fill 2
core_0_stlb_set 128
core_0_stlb_way 12
core_0_stlb_rq_size 32
core_0_stlb_wq_size 32
core_0_stlb_pq_size 0
core_0_stlb_mshr_size 16
core_0_stlb_hit_latency 4
core_0_stlb_fill_latency 4
core_0_stlb_max_tag_check 1
core_0_stlb_max_fill 1
core_0_l1i_set 64
core_0_l1i_way 8
core_0_l1i_rq_size 64
core_0_l1i_wq_size 64
core_0_l1i_pq_size 32
core_0_l1i_mshr_size 8
core_0_l1i_hit_latency 2
core_0_l1i_fill_latency 2
core_0_l1i_max_tag_check 2
core_0_l1i_max_fill 2
core_0_l1d_set 64
core_0_l1d_way 12
core_0_l1d_rq_size 64
core_0_l1d_wq_size 64
core_0_l1d_pq_size 8
core_0_l1d_mshr_size 16
core_0_l1d_hit_latency 2
core_0_l1d_fill_latency 3
core_0_l1d_max_tag_check 2
core_0_l1d_max_fill 2
core_0_l2c_set 1024
core_0_l2c_way 8
core_0_l2c_rq_size 32
core_0_l2c_wq_size 32
core_0_l2c_pq_size 16
core_0_l2c_mshr_size 32
core_0_l2c_hit_latency 5
core_0_l2c_fill_latency 5
core_0_l2c_max_tag_check 1
core_0_l2c_max_fill 1
llc_set 2048
llc_way 16
llc_rq_size 32
llc_wq_size 32
llc_pq_size 32
llc_mshr_size 64
llc_hit_latency 10
llc_fill_latency 10
llc_max_tag_check 1
llc_max_fill 1
dram_channels 1
dram_ranks 1
dram_bankgroups 8
dram_banks 4
dram_rows 65536
dram_columns 1024
dram_channel_width 8
dram_rq_size 64
dram_wq_size 64
dram_size 17179869184
core_0_itlb_prefetcher no
core_0_dtlb_prefetcher no
core_0_stlb_prefetcher no
core_0_l1i_prefetcher next_line
core_0_l1d_prefetcher vberti
core_0_l2c_prefetcher ip_stride
llc_prefetcher no
llc_replacement drrip

Core_0_instructions 100000000
Core_0_cycles 431097932
Core_0_IPC 0.231966
Core_0_branch_prediction_accuracy 88.4719
Core_0_branch_MPKI 17.263
Core_0_average_ROB_occupancy_at_mispredict 37.7276

Core_0_ITLB_total_access 4794913
Core_0_ITLB_total_hit 4794913
Core_0_ITLB_total_miss 0
Core_0_ITLB_total_MPKI 0
Core_0_ITLB_total_miss_rate 0
Core_0_ITLB_demand_access 4794913
Core_0_ITLB_demand_hit 4794913
Core_0_ITLB_demand_miss 0
Core_0_ITLB_demand_MPKI 0
Core_0_ITLB_demand_miss_rate 0
Core_0_ITLB_load_access 4794913
Core_0_ITLB_load_hit 4794913
Core_0_ITLB_load_miss 0
Core_0_ITLB_load_MPKI 0
Core_0_ITLB_load_miss_rate 0
Core_0_ITLB_rfo_access 0
Core_0_ITLB_rfo_hit 0
Core_0_ITLB_rfo_miss 0
Core_0_ITLB_rfo_MPKI 0
Core_0_ITLB_rfo_miss_rate 0
Core_0_ITLB_prefetch_access 0
Core_0_ITLB_prefetch_hit 0
Core_0_ITLB_prefetch_miss 0
Core_0_ITLB_prefetch_MPKI 0
Core_0_ITLB_prefetch_miss_rate 0
Core_0_ITLB_writeback_access 0
Core_0_ITLB_writeback_hit 0
Core_0_ITLB_writeback_miss 0
Core_0_ITLB_writeback_MPKI 0
Core_0_ITLB_writeback_miss_rate 0
Core_0_ITLB_prefetch_requested 0
Core_0_ITLB_prefetch_issued 0
Core_0_ITLB_prefetch_useful 0
Core_0_ITLB_prefetch_useless 0
Core_0_ITLB_prefetch_late 0
Core_0_ITLB_prefetch_accuracy 0
Core_0_ITLB_prefetch_coverage 0
Core_0_ITLB_total_eviction 0

Core_0_DTLB_total_access 68138972
Core_0_DTLB_total_hit 65902751
Core_0_DTLB_total_miss 2236221
Core_0_DTLB_total_MPKI 22.3622
Core_0_DTLB_total_miss_rate 0.0328185
Core_0_DTLB_demand_access 68138972
Core_0_DTLB_demand_hit 65902751
Core_0_DTLB_demand_miss 2236221
Core_0_DTLB_demand_MPKI 22.3622
Core_0_DTLB_demand_miss_rate 0.0328185
Core_0_DTLB_load_access 68138972
Core_0_DTLB_load_hit 65902751
Core_0_DTLB_load_miss 2236221
Core_0_DTLB_load_MPKI 22.3622
Core_0_DTLB_load_miss_rate 0.0328185
Core_0_DTLB_rfo_access 0
Core_0_DTLB_rfo_hit 0
Core_0_DTLB_rfo_miss 0
Core_0_DTLB_rfo_MPKI 0
Core_0_DTLB_rfo_miss_rate 0
Core_0_DTLB_prefetch_access 0
Core_0_DTLB_prefetch_hit 0
Core_0_DTLB_prefetch_miss 0
Core_0_DTLB_prefetch_MPKI 0
Core_0_DTLB_prefetch_miss_rate 0
Core_0_DTLB_writeback_access 0
Core_0_DTLB_writeback_hit 0
Core_0_DTLB_writeback_miss 0
Core_0_DTLB_writeback_MPKI 0
Core_0_DTLB_writeback_miss_rate 0
Core_0_DTLB_prefetch_requested 0
Core_0_DTLB_prefetch_issued 0
Core_0_DTLB_prefetch_useful 0
Core_0_DTLB_prefetch_useless 0
Core_0_DTLB_prefetch_late 0
Core_0_DTLB_prefetch_accuracy 0
Core_0_DTLB_prefetch_coverage 0
Core_0_DTLB_total_eviction 1745566

Core_0_STLB_total_access 1745563
Core_0_STLB_total_hit 870775
Core_0_STLB_total_miss 874788
Core_0_STLB_total_MPKI 8.74788
Core_0_STLB_total_miss_rate 0.501149
Core_0_STLB_demand_access 1745563
Core_0_STLB_demand_hit 870775
Core_0_STLB_demand_miss 874788
Core_0_STLB_demand_MPKI 8.74788
Core_0_STLB_demand_miss_rate 0.501149
Core_0_STLB_load_access 1745563
Core_0_STLB_load_hit 870775
Core_0_STLB_load_miss 874788
Core_0_STLB_load_MPKI 8.74788
Core_0_STLB_load_miss_rate 0.501149
Core_0_STLB_rfo_access 0
Core_0_STLB_rfo_hit 0
Core_0_STLB_rfo_miss 0
Core_0_STLB_rfo_MPKI 0
Core_0_STLB_rfo_miss_rate 0
Core_0_STLB_prefetch_access 0
Core_0_STLB_prefetch_hit 0
Core_0_STLB_prefetch_miss 0
Core_0_STLB_prefetch_MPKI 0
Core_0_STLB_prefetch_miss_rate 0
Core_0_STLB_writeback_access 0
Core_0_STLB_writeback_hit 0
Core_0_STLB_writeback_miss 0
Core_0_STLB_writeback_MPKI 0
Core_0_STLB_writeback_miss_rate 0
Core_0_STLB_prefetch_requested 0
Core_0_STLB_prefetch_issued 0
Core_0_STLB_prefetch_useful 0
Core_0_STLB_prefetch_useless 0
Core_0_STLB_prefetch_late 0
Core_0_STLB_prefetch_accuracy 0
Core_0_STLB_prefetch_coverage 0
Core_0_STLB_total_eviction 877937

Core_0_L1I_total_access 4798267
Core_0_L1I_total_hit 4798267
Core_0_L1I_total_miss 0
Core_0_L1I_total_MPKI 0
Core_0_L1I_total_miss_rate 0
Core_0_L1I_demand_access 4798267
Core_0_L1I_demand_hit 4798267
Core_0_L1I_demand_miss 0
Core_0_L1I_demand_MPKI 0
Core_0_L1I_demand_miss_rate 0
Core_0_L1I_load_access 4798267
Core_0_L1I_load_hit 4798267
Core_0_L1I_load_miss 0
Core_0_L1I_load_MPKI 0
Core_0_L1I_load_miss_rate 0
Core_0_L1I_rfo_access 0
Core_0_L1I_rfo_hit 0
Core_0_L1I_rfo_miss 0
Core_0_L1I_rfo_MPKI 0
Core_0_L1I_rfo_miss_rate 0
Core_0_L1I_prefetch_access 0
Core_0_L1I_prefetch_hit 0
Core_0_L1I_prefetch_miss 0
Core_0_L1I_prefetch_MPKI 0
Core_0_L1I_prefetch_miss_rate 0
Core_0_L1I_writeback_access 0
Core_0_L1I_writeback_hit 0
Core_0_L1I_writeback_miss 0
Core_0_L1I_writeback_MPKI 0
Core_0_L1I_writeback_miss_rate 0
Core_0_L1I_prefetch_requested 0
Core_0_L1I_prefetch_issued 0
Core_0_L1I_prefetch_useful 0
Core_0_L1I_prefetch_useless 0
Core_0_L1I_prefetch_late 0
Core_0_L1I_prefetch_accuracy 0
Core_0_L1I_prefetch_coverage 0
Core_0_L1I_total_eviction 0

Core_0_L1D_total_access 83777388
Core_0_L1D_total_hit 75951072
Core_0_L1D_total_miss 7826316
Core_0_L1D_total_MPKI 78.2632
Core_0_L1D_total_miss_rate 0.093418
Core_0_L1D_demand_access 36336454
Core_0_L1D_demand_hit 30246962
Core_0_L1D_demand_miss 6089492
Core_0_L1D_demand_MPKI 60.8949
Core_0_L1D_demand_miss_rate 0.167586
Core_0_L1D_load_access 36336454
Core_0_L1D_load_hit 30246962
Core_0_L1D_load_miss 6089492
Core_0_L1D_load_MPKI 60.8949
Core_0_L1D_load_miss_rate 0.167586
Core_0_L1D_rfo_access 0
Core_0_L1D_rfo_hit 0
Core_0_L1D_rfo_miss 0
Core_0_L1D_rfo_MPKI 0
Core_0_L1D_rfo_miss_rate 0
Core_0_L1D_prefetch_access 37494268
Core_0_L1D_prefetch_hit 35775633
Core_0_L1D_prefetch_miss 1718635
Core_0_L1D_prefetch_MPKI 17.1864
Core_0_L1D_prefetch_miss_rate 0.0458373
Core_0_L1D_writeback_access 9946666
Core_0_L1D_writeback_hit 9928477
Core_0_L1D_writeback_miss 18189
Core_0_L1D_writeback_MPKI 0.18189
Core_0_L1D_writeback_miss_rate 0.00182865
Core_0_L1D_prefetch_requested 86584648
Core_0_L1D_prefetch_issued 37494264
Core_0_L1D_prefetch_useful 287551
Core_0_L1D_prefetch_useless 15432
Core_0_L1D_prefetch_late 2
Core_0_L1D_prefetch_accuracy 0.0076692
Core_0_L1D_prefetch_coverage 0.0450916
Core_0_L1D_total_eviction 5694595

Core_0_L2C_total_access 9381378
Core_0_L2C_total_hit 4329168
Core_0_L2C_total_miss 5052210
Core_0_L2C_total_MPKI 50.5221
Core_0_L2C_total_miss_rate 0.538536
Core_0_L2C_demand_access 4966458
Core_0_L2C_demand_hit 251154
Core_0_L2C_demand_miss 4715304
Core_0_L2C_demand_MPKI 47.153
Core_0_L2C_demand_miss_rate 0.94943
Core_0_L2C_load_access 4956471
Core_0_L2C_load_hit 242655
Core_0_L2C_load_miss 4713816
Core_0_L2C_load_MPKI 47.1382
Core_0_L2C_load_miss_rate 0.951043
Core_0_L2C_rfo_access 9987
Core_0_L2C_rfo_hit 8499
Core_0_L2C_rfo_miss 1488
Core_0_L2C_rfo_MPKI 0.01488
Core_0_L2C_rfo_miss_rate 0.148994
Core_0_L2C_prefetch_access 2178669
Core_0_L2C_prefetch_hit 1842761
Core_0_L2C_prefetch_miss 335908
Core_0_L2C_prefetch_MPKI 3.35908
Core_0_L2C_prefetch_miss_rate 0.15418
Core_0_L2C_writeback_access 2236251
Core_0_L2C_writeback_hit 2235253
Core_0_L2C_writeback_miss 998
Core_0_L2C_writeback_MPKI 0.00998
Core_0_L2C_writeback_miss_rate 0.000446283
Core_0_L2C_prefetch_requested 473268
Core_0_L2C_prefetch_issued 462590
Core_0_L2C_prefetch_useful 90851
Core_0_L2C_prefetch_useless 25972
Core_0_L2C_prefetch_late 82
Core_0_L2C_prefetch_accuracy 0.196396
Core_0_L2C_prefetch_coverage 0.0189031
Core_0_L2C_total_eviction 5275737

Core_0_LLC_total_access 7089509
Core_0_LLC_total_hit 5348652
Core_0_LLC_total_miss 1740857
Core_0_LLC_total_MPKI 17.4086
Core_0_LLC_total_miss_rate 0.245554
Core_0_LLC_demand_access 4714979
Core_0_LLC_demand_hit 3146655
Core_0_LLC_demand_miss 1568324
Core_0_LLC_demand_MPKI 15.6832
Core_0_LLC_demand_miss_rate 0.332626
Core_0_LLC_load_access 4713491
Core_0_LLC_load_hit 3145281
Core_0_LLC_load_miss 1568210
Core_0_LLC_load_MPKI 15.6821
Core_0_LLC_load_miss_rate 0.332707
Core_0_LLC_rfo_access 1488
Core_0_LLC_rfo_hit 1374
Core_0_LLC_rfo_miss 114
Core_0_LLC_rfo_MPKI 0.00114
Core_0_LLC_rfo_miss_rate 0.0766129
Core_0_LLC_prefetch_access 268667
Core_0_LLC_prefetch_hit 146357
Core_0_LLC_prefetch_miss 122310
Core_0_LLC_prefetch_MPKI 1.2231
Core_0_LLC_prefetch_miss_rate 0.455248
Core_0_LLC_writeback_access 2105863
Core_0_LLC_writeback_hit 2055640
Core_0_LLC_writeback_miss 50223
Core_0_LLC_writeback_MPKI 0.50223
Core_0_LLC_writeback_miss_rate 0.0238491
Core_0_LLC_prefetch_requested 0
Core_0_LLC_prefetch_issued 0
Core_0_LLC_prefetch_useful 0
Core_0_LLC_prefetch_useless 0
Core_0_LLC_prefetch_late 0
Core_0_LLC_prefetch_accuracy 0
Core_0_LLC_prefetch_coverage 0
Core_0_LLC_total_eviction 1748733

[DRAM Statistics]
Channel_0_RQ_row_buffer_hit 4525
Channel_0_RQ_row_buffer_miss 1693644
Channel_0_WQ_row_buffer_hit 185175
Channel_0_WQ_row_buffer_miss 405726
Channel_0_WQ_full 0
Channel_0_dbus_congested 7845749
DRAM_total_RQ_row_buffer_hit 4525
DRAM_total_RQ_row_buffer_miss 1693644
DRAM_total_WQ_row_buffer_hit 185175
DRAM_total_WQ_row_buffer_miss 405726
DRAM_total_WQ_full 0
DRAM_total_dbus_congested 7845749
DRAM_avg_congested_cycle 21.725

======STLB miss causes ========
Core_0_STLB_miss_cause_breakdown
Core_0_STLB_cause_Demand_Data_miss 874788
Core_0_STLB_cause_Demand_Data_miss_rate 0.501149
Core_0_STLB_cause_Demand_Instruction_miss 0
Core_0_STLB_cause_Demand_Instruction_miss_rate 0
Core_0_STLB_cause_L1D_Prefetch_miss 0
Core_0_STLB_cause_L1D_Prefetch_miss_rate 0
Core_0_STLB_cause_L1I_Prefetch_miss 0
Core_0_STLB_cause_L1I_Prefetch_miss_rate 0
Core_0_STLB_cause_Other_miss 0
Core_0_STLB_cause_Other_miss_rate 0
Core_0_STLB_Demand_miss 874788
Core_0_STLB_Demand_miss_rate 0.501149
Core_0_STLB_L1D_Prefetch_miss 0
Core_0_STLB_L1D_Prefetch_miss_rate 0
Core_0_STLB_Other_miss 0
Core_0_STLB_Other_miss_rate 0
BERTI TO_L1: 115038018 TO_L2: 8895530 TO_L2_BC_MSHR: 82
BERTI AVG_LAT: 56.9776 NUM_TRACK_LATENCY: 7869757 NUM_CANT_TRACK_LATENCY: 5
BERTI CROSS_PAGE 9598313 NO_CROSS_PAGE: 114335235
BERTI FOUND_BERTI: 41845198 NO_FOUND_BERTI: 17256468
BERTI AVERAGE_ISSUED: 3.11601
