[VMEM] WARNING: physical memory size is smaller than virtual memory size.

*** ChampSim Multicore Out-of-Order Simulator ***
Warmup Instructions: 50000000
Simulation Instructions: 100000000
Number of CPUs: 1
Page size: 4096
STLB ideal mode: l1pref
STLB ideal fill: on
Core 0: /data2/zcq/champsim_traces_gap/bfs.road-19B.champsimtrace.xz
VBerti Prefetcher
BERTI HASH ENTANGLING
BERTI IP MASK ffff
Off-chip DRAM Size: 16 GiB Channels: 1 Width: 64-bit Data Rate: 3205 MT/s
Warmup halting CPU 0 at instruction 50000001 cycle 15996190 for remainder of phase
Warmup finished CPU 0 instructions: 50000001 cycles: 15996190 cumulative IPC: 3.126 (Simulation time: 00 hr 03 min 11 sec)
Warmup complete CPU 0 instructions: 50000001 cycles: 15996190 cumulative IPC: 3.126 (Simulation time: 00 hr 03 min 11 sec)
Simulation finished CPU 0 instructions: 100000001 cycles: 423902898 cumulative IPC: 0.2359 (Simulation time: 00 hr 30 min 50 sec)
Simulation complete CPU 0 instructions: 100000001 cycles: 423902898 cumulative IPC: 0.2359 (Simulation time: 00 hr 30 min 50 sec)

ChampSim completed all CPUs

=== Simulation ===
CPU 0 runs /data2/zcq/champsim_traces_gap/bfs.road-19B.champsimtrace.xz

Region of Interest Statistics

CPU 0 cumulative IPC: 0.2359 instructions: 100000001 cycles: 423902898
CPU 0 Branch Prediction Accuracy: 86.76% MPKI: 23.03 Average ROB Occupancy at Mispredict: 20.54
Branch type MPKI
BRANCH_DIRECT_JUMP: 0.00789
BRANCH_INDIRECT: 0.01578
BRANCH_CONDITIONAL: 22.96
BRANCH_DIRECT_CALL: 0
BRANCH_INDIRECT_CALL: 0.00789
BRANCH_RETURN: 0.03156

cpu0->cpu0_STLB TOTAL        ACCESS:    1286893 HIT:    1060362 MISS:     226531 MSHR_MERGE:          0
cpu0->cpu0_STLB LOAD         ACCESS:    1286893 HIT:    1060362 MISS:     226531 MSHR_MERGE:          0
cpu0->cpu0_STLB RFO          ACCESS:          0 HIT:          0 MISS:          0 MSHR_MERGE:          0
cpu0->cpu0_STLB PREFETCH     ACCESS:          0 HIT:          0 MISS:          0 MSHR_MERGE:          0
cpu0->cpu0_STLB WRITE        ACCESS:          0 HIT:          0 MISS:          0 MSHR_MERGE:          0
cpu0->cpu0_STLB TRANSLATION  ACCESS:          0 HIT:          0 MISS:          0 MSHR_MERGE:          0
cpu0->cpu0_STLB PREFETCH REQUESTED:          0 ISSUED:          0 USEFUL:          0 USELESS:          0 LATE:          0
cpu0->cpu0_STLB AVERAGE MISS LATENCY: 39.25 cycles
cpu0->cpu0_L2C TOTAL        ACCESS:   11202257 HIT:    7520945 MISS:    3681312 MSHR_MERGE:      98875
cpu0->cpu0_L2C LOAD         ACCESS:    4955135 HIT:    1716000 MISS:    3239135 MSHR_MERGE:        467
cpu0->cpu0_L2C RFO          ACCESS:      22086 HIT:      14074 MISS:       8012 MSHR_MERGE:          0
cpu0->cpu0_L2C PREFETCH     ACCESS:    4562539 HIT:    4213546 MISS:     348993 MSHR_MERGE:      98408
cpu0->cpu0_L2C WRITE        ACCESS:    1492958 HIT:    1492955 MISS:          3 MSHR_MERGE:          0
cpu0->cpu0_L2C TRANSLATION  ACCESS:     169539 HIT:      84370 MISS:      85169 MSHR_MERGE:          0
cpu0->cpu0_L2C PREFETCH REQUESTED:     999875 ISSUED:     983154 USEFUL:     101526 USELESS:      26261 LATE:        143
cpu0->cpu0_L2C AVERAGE MISS LATENCY: 71.69 cycles
cpu0->cpu0_L1I TOTAL        ACCESS:    7389843 HIT:    7360490 MISS:      29353 MSHR_MERGE:       8839
cpu0->cpu0_L1I LOAD         ACCESS:    7389843 HIT:    7360490 MISS:      29353 MSHR_MERGE:       8839
cpu0->cpu0_L1I RFO          ACCESS:          0 HIT:          0 MISS:          0 MSHR_MERGE:          0
cpu0->cpu0_L1I PREFETCH     ACCESS:          0 HIT:          0 MISS:          0 MSHR_MERGE:          0
cpu0->cpu0_L1I WRITE        ACCESS:          0 HIT:          0 MISS:          0 MSHR_MERGE:          0
cpu0->cpu0_L1I TRANSLATION  ACCESS:          0 HIT:          0 MISS:          0 MSHR_MERGE:          0
cpu0->cpu0_L1I PREFETCH REQUESTED:          0 ISSUED:          0 USEFUL:          0 USELESS:          0 LATE:          0
cpu0->cpu0_L1I AVERAGE MISS LATENCY: 14.56 cycles
cpu0->cpu0_L1D TOTAL        ACCESS:   95926304 HIT:   86316945 MISS:    9609359 MSHR_MERGE:     899942
cpu0->cpu0_L1D LOAD         ACCESS:   31152025 HIT:   25338425 MISS:    5813600 MSHR_MERGE:     878979
cpu0->cpu0_L1D RFO          ACCESS:          0 HIT:          0 MISS:          0 MSHR_MERGE:          0
cpu0->cpu0_L1D PREFETCH     ACCESS:   53448865 HIT:   49859791 MISS:    3589074 MSHR_MERGE:       5903
cpu0->cpu0_L1D WRITE        ACCESS:   10832895 HIT:   10796214 MISS:      36681 MSHR_MERGE:      14595
cpu0->cpu0_L1D TRANSLATION  ACCESS:     492519 HIT:     322515 MISS:     170004 MSHR_MERGE:        465
cpu0->cpu0_L1D PREFETCH REQUESTED:  125995330 ISSUED:   53448857 USEFUL:     400808 USELESS:      16985 LATE:         69
cpu0->cpu0_L1D AVERAGE MISS LATENCY: 55.25 cycles
cpu0->cpu0_ITLB TOTAL        ACCESS:    7298021 HIT:    7294865 MISS:       3156 MSHR_MERGE:        789
cpu0->cpu0_ITLB LOAD         ACCESS:    7298021 HIT:    7294865 MISS:       3156 MSHR_MERGE:        789
cpu0->cpu0_ITLB RFO          ACCESS:          0 HIT:          0 MISS:          0 MSHR_MERGE:          0
cpu0->cpu0_ITLB PREFETCH     ACCESS:          0 HIT:          0 MISS:          0 MSHR_MERGE:          0
cpu0->cpu0_ITLB WRITE        ACCESS:          0 HIT:          0 MISS:          0 MSHR_MERGE:          0
cpu0->cpu0_ITLB TRANSLATION  ACCESS:          0 HIT:          0 MISS:          0 MSHR_MERGE:          0
cpu0->cpu0_ITLB PREFETCH REQUESTED:          0 ISSUED:          0 USEFUL:          0 USELESS:          0 LATE:          0
cpu0->cpu0_ITLB AVERAGE MISS LATENCY: 16.48 cycles
cpu0->cpu0_DTLB TOTAL        ACCESS:   73109392 HIT:   71478507 MISS:    1630885 MSHR_MERGE:     346359
cpu0->cpu0_DTLB LOAD         ACCESS:   73109392 HIT:   71478507 MISS:    1630885 MSHR_MERGE:     346359
cpu0->cpu0_DTLB RFO          ACCESS:          0 HIT:          0 MISS:          0 MSHR_MERGE:          0
cpu0->cpu0_DTLB PREFETCH     ACCESS:          0 HIT:          0 MISS:          0 MSHR_MERGE:          0
cpu0->cpu0_DTLB WRITE        ACCESS:          0 HIT:          0 MISS:          0 MSHR_MERGE:          0
cpu0->cpu0_DTLB TRANSLATION  ACCESS:          0 HIT:          0 MISS:          0 MSHR_MERGE:          0
cpu0->cpu0_DTLB PREFETCH REQUESTED:          0 ISSUED:          0 USEFUL:          0 USELESS:          0 LATE:          0
cpu0->cpu0_DTLB AVERAGE MISS LATENCY: 12.08 cycles
cpu0->LLC TOTAL        ACCESS:    4487473 HIT:    3242344 MISS:    1245129 MSHR_MERGE:          4
cpu0->LLC LOAD         ACCESS:    3238667 HIT:    2194584 MISS:    1044083 MSHR_MERGE:          0
cpu0->LLC RFO          ACCESS:       8012 HIT:       7966 MISS:         46 MSHR_MERGE:          0
cpu0->LLC PREFETCH     ACCESS:     250585 HIT:      96865 MISS:     153720 MSHR_MERGE:          4
cpu0->LLC WRITE        ACCESS:     905040 HIT:     866973 MISS:      38067 MSHR_MERGE:          0
cpu0->LLC TRANSLATION  ACCESS:      85169 HIT:      75956 MISS:       9213 MSHR_MERGE:          0
cpu0->LLC PREFETCH REQUESTED:          0 ISSUED:          0 USEFUL:          0 USELESS:          0 LATE:          0
cpu0->LLC AVERAGE MISS LATENCY: 172.4 cycles

DRAM Statistics

Channel 0 RQ ROW_BUFFER_HIT:       3741
  ROW_BUFFER_MISS:    1203294
  AVG DBUS CONGESTED CYCLE: 20.74
Channel 0 WQ ROW_BUFFER_HIT:      76203
  ROW_BUFFER_MISS:     205603
  FULL:          0
Channel 0 REFRESHES ISSUED:      35325

[ROI Statistics]
[System Configuration]
num_cpus 1
cpu_freq 4000
fetch_width 6
decode_width 6
dispatch_width 6
execute_width 6
lq_width 2
sq_width 2
retire_width 6
scheduler_size 128
branch_mispredict_penalty 15
rob_size 352
lq_size 128
sq_size 72
ifetch_buffer_size 64
decode_buffer_size 32
dispatch_buffer_size 32
register_file_size 288
decode_latency 1
dispatch_latency 1
schedule_latency 1
execute_latency 1
page_size 4096
block_size 64
core_0_itlb_set 16
core_0_itlb_way 4
core_0_itlb_rq_size 16
core_0_itlb_wq_size 16
core_0_itlb_pq_size 0
core_0_itlb_mshr_size 8
core_0_itlb_hit_latency 1
core_0_itlb_fill_latency 1
core_0_itlb_max_tag_check 2
core_0_itlb_max_fill 2
core_0_dtlb_set 16
core_0_dtlb_way 4
core_0_dtlb_rq_size 16
core_0_dtlb_wq_size 16
core_0_dtlb_pq_size 0
core_0_dtlb_mshr_size 8
core_0_dtlb_hit_latency 1
core_0_dtlb_fill_latency 1
core_0_dtlb_max_tag_check 2
core_0_dtlb_max_fill 2
core_0_stlb_set 128
core_0_stlb_way 12
core_0_stlb_rq_size 32
core_0_stlb_wq_size 32
core_0_stlb_pq_size 0
core_0_stlb_mshr_size 16
core_0_stlb_hit_latency 4
core_0_stlb_fill_latency 4
core_0_stlb_max_tag_check 1
core_0_stlb_max_fill 1
core_0_l1i_set 64
core_0_l1i_way 8
core_0_l1i_rq_size 64
core_0_l1i_wq_size 64
core_0_l1i_pq_size 32
core_0_l1i_mshr_size 8
core_0_l1i_hit_latency 2
core_0_l1i_fill_latency 2
core_0_l1i_max_tag_check 2
core_0_l1i_max_fill 2
core_0_l1d_set 64
core_0_l1d_way 12
core_0_l1d_rq_size 64
core_0_l1d_wq_size 64
core_0_l1d_pq_size 8
core_0_l1d_mshr_size 16
core_0_l1d_hit_latency 2
core_0_l1d_fill_latency 3
core_0_l1d_max_tag_check 2
core_0_l1d_max_fill 2
core_0_l2c_set 1024
core_0_l2c_way 8
core_0_l2c_rq_size 32
core_0_l2c_wq_size 32
core_0_l2c_pq_size 16
core_0_l2c_mshr_size 32
core_0_l2c_hit_latency 5
core_0_l2c_fill_latency 5
core_0_l2c_max_tag_check 1
core_0_l2c_max_fill 1
llc_set 2048
llc_way 16
llc_rq_size 32
llc_wq_size 32
llc_pq_size 32
llc_mshr_size 64
llc_hit_latency 10
llc_fill_latency 10
llc_max_tag_check 1
llc_max_fill 1
dram_channels 1
dram_ranks 1
dram_bankgroups 8
dram_banks 4
dram_rows 65536
dram_columns 1024
dram_channel_width 8
dram_rq_size 64
dram_wq_size 64
dram_size 17179869184
core_0_itlb_prefetcher no
core_0_dtlb_prefetcher no
core_0_stlb_prefetcher no
core_0_l1i_prefetcher next_line
core_0_l1d_prefetcher vberti
core_0_l2c_prefetcher ip_stride
llc_prefetcher no
llc_replacement drrip

Core_0_instructions 100000001
Core_0_cycles 423902898
Core_0_IPC 0.235903
Core_0_branch_prediction_accuracy 86.7629
Core_0_branch_MPKI 23.026
Core_0_average_ROB_occupancy_at_mispredict 20.5413

Core_0_ITLB_total_access 7298021
Core_0_ITLB_total_hit 7294865
Core_0_ITLB_total_miss 3156
Core_0_ITLB_total_MPKI 0.03156
Core_0_ITLB_total_miss_rate 0.000432446
Core_0_ITLB_demand_access 7298021
Core_0_ITLB_demand_hit 7294865
Core_0_ITLB_demand_miss 3156
Core_0_ITLB_demand_MPKI 0.03156
Core_0_ITLB_demand_miss_rate 0.000432446
Core_0_ITLB_load_access 7298021
Core_0_ITLB_load_hit 7294865
Core_0_ITLB_load_miss 3156
Core_0_ITLB_load_MPKI 0.03156
Core_0_ITLB_load_miss_rate 0.000432446
Core_0_ITLB_rfo_access 0
Core_0_ITLB_rfo_hit 0
Core_0_ITLB_rfo_miss 0
Core_0_ITLB_rfo_MPKI 0
Core_0_ITLB_rfo_miss_rate 0
Core_0_ITLB_prefetch_access 0
Core_0_ITLB_prefetch_hit 0
Core_0_ITLB_prefetch_miss 0
Core_0_ITLB_prefetch_MPKI 0
Core_0_ITLB_prefetch_miss_rate 0
Core_0_ITLB_writeback_access 0
Core_0_ITLB_writeback_hit 0
Core_0_ITLB_writeback_miss 0
Core_0_ITLB_writeback_MPKI 0
Core_0_ITLB_writeback_miss_rate 0
Core_0_ITLB_prefetch_requested 0
Core_0_ITLB_prefetch_issued 0
Core_0_ITLB_prefetch_useful 0
Core_0_ITLB_prefetch_useless 0
Core_0_ITLB_prefetch_late 0
Core_0_ITLB_prefetch_accuracy 0
Core_0_ITLB_prefetch_coverage 0
Core_0_ITLB_total_eviction 2367

Core_0_DTLB_total_access 73109392
Core_0_DTLB_total_hit 71478507
Core_0_DTLB_total_miss 1630885
Core_0_DTLB_total_MPKI 16.3088
Core_0_DTLB_total_miss_rate 0.0223075
Core_0_DTLB_demand_access 73109392
Core_0_DTLB_demand_hit 71478507
Core_0_DTLB_demand_miss 1630885
Core_0_DTLB_demand_MPKI 16.3088
Core_0_DTLB_demand_miss_rate 0.0223075
Core_0_DTLB_load_access 73109392
Core_0_DTLB_load_hit 71478507
Core_0_DTLB_load_miss 1630885
Core_0_DTLB_load_MPKI 16.3088
Core_0_DTLB_load_miss_rate 0.0223075
Core_0_DTLB_rfo_access 0
Core_0_DTLB_rfo_hit 0
Core_0_DTLB_rfo_miss 0
Core_0_DTLB_rfo_MPKI 0
Core_0_DTLB_rfo_miss_rate 0
Core_0_DTLB_prefetch_access 0
Core_0_DTLB_prefetch_hit 0
Core_0_DTLB_prefetch_miss 0
Core_0_DTLB_prefetch_MPKI 0
Core_0_DTLB_prefetch_miss_rate 0
Core_0_DTLB_writeback_access 0
Core_0_DTLB_writeback_hit 0
Core_0_DTLB_writeback_miss 0
Core_0_DTLB_writeback_MPKI 0
Core_0_DTLB_writeback_miss_rate 0
Core_0_DTLB_prefetch_requested 0
Core_0_DTLB_prefetch_issued 0
Core_0_DTLB_prefetch_useful 0
Core_0_DTLB_prefetch_useless 0
Core_0_DTLB_prefetch_late 0
Core_0_DTLB_prefetch_accuracy 0
Core_0_DTLB_prefetch_coverage 0
Core_0_DTLB_total_eviction 1284526

Core_0_STLB_total_access 1286893
Core_0_STLB_total_hit 1060362
Core_0_STLB_total_miss 226531
Core_0_STLB_total_MPKI 2.26531
Core_0_STLB_total_miss_rate 0.176029
Core_0_STLB_demand_access 1286893
Core_0_STLB_demand_hit 1060362
Core_0_STLB_demand_miss 226531
Core_0_STLB_demand_MPKI 2.26531
Core_0_STLB_demand_miss_rate 0.176029
Core_0_STLB_load_access 1286893
Core_0_STLB_load_hit 1060362
Core_0_STLB_load_miss 226531
Core_0_STLB_load_MPKI 2.26531
Core_0_STLB_load_miss_rate 0.176029
Core_0_STLB_rfo_access 0
Core_0_STLB_rfo_hit 0
Core_0_STLB_rfo_miss 0
Core_0_STLB_rfo_MPKI 0
Core_0_STLB_rfo_miss_rate 0
Core_0_STLB_prefetch_access 0
Core_0_STLB_prefetch_hit 0
Core_0_STLB_prefetch_miss 0
Core_0_STLB_prefetch_MPKI 0
Core_0_STLB_prefetch_miss_rate 0
Core_0_STLB_writeback_access 0
Core_0_STLB_writeback_hit 0
Core_0_STLB_writeback_miss 0
Core_0_STLB_writeback_MPKI 0
Core_0_STLB_writeback_miss_rate 0
Core_0_STLB_prefetch_requested 0
Core_0_STLB_prefetch_issued 0
Core_0_STLB_prefetch_useful 0
Core_0_STLB_prefetch_useless 0
Core_0_STLB_prefetch_late 0
Core_0_STLB_prefetch_accuracy 0
Core_0_STLB_prefetch_coverage 0
Core_0_STLB_total_eviction 229136

Core_0_L1I_total_access 7389843
Core_0_L1I_total_hit 7360490
Core_0_L1I_total_miss 29353
Core_0_L1I_total_MPKI 0.29353
Core_0_L1I_total_miss_rate 0.00397207
Core_0_L1I_demand_access 7389843
Core_0_L1I_demand_hit 7360490
Core_0_L1I_demand_miss 29353
Core_0_L1I_demand_MPKI 0.29353
Core_0_L1I_demand_miss_rate 0.00397207
Core_0_L1I_load_access 7389843
Core_0_L1I_load_hit 7360490
Core_0_L1I_load_miss 29353
Core_0_L1I_load_MPKI 0.29353
Core_0_L1I_load_miss_rate 0.00397207
Core_0_L1I_rfo_access 0
Core_0_L1I_rfo_hit 0
Core_0_L1I_rfo_miss 0
Core_0_L1I_rfo_MPKI 0
Core_0_L1I_rfo_miss_rate 0
Core_0_L1I_prefetch_access 0
Core_0_L1I_prefetch_hit 0
Core_0_L1I_prefetch_miss 0
Core_0_L1I_prefetch_MPKI 0
Core_0_L1I_prefetch_miss_rate 0
Core_0_L1I_writeback_access 0
Core_0_L1I_writeback_hit 0
Core_0_L1I_writeback_miss 0
Core_0_L1I_writeback_MPKI 0
Core_0_L1I_writeback_miss_rate 0
Core_0_L1I_prefetch_requested 0
Core_0_L1I_prefetch_issued 0
Core_0_L1I_prefetch_useful 0
Core_0_L1I_prefetch_useless 0
Core_0_L1I_prefetch_late 0
Core_0_L1I_prefetch_accuracy 0
Core_0_L1I_prefetch_coverage 0
Core_0_L1I_total_eviction 20514

Core_0_L1D_total_access 95433785
Core_0_L1D_total_hit 85994430
Core_0_L1D_total_miss 9439355
Core_0_L1D_total_MPKI 94.3935
Core_0_L1D_total_miss_rate 0.09891
Core_0_L1D_demand_access 31152025
Core_0_L1D_demand_hit 25338425
Core_0_L1D_demand_miss 5813600
Core_0_L1D_demand_MPKI 58.136
Core_0_L1D_demand_miss_rate 0.18662
Core_0_L1D_load_access 31152025
Core_0_L1D_load_hit 25338425
Core_0_L1D_load_miss 5813600
Core_0_L1D_load_MPKI 58.136
Core_0_L1D_load_miss_rate 0.18662
Core_0_L1D_rfo_access 0
Core_0_L1D_rfo_hit 0
Core_0_L1D_rfo_miss 0
Core_0_L1D_rfo_MPKI 0
Core_0_L1D_rfo_miss_rate 0
Core_0_L1D_prefetch_access 53448865
Core_0_L1D_prefetch_hit 49859791
Core_0_L1D_prefetch_miss 3589074
Core_0_L1D_prefetch_MPKI 35.8907
Core_0_L1D_prefetch_miss_rate 0.0671497
Core_0_L1D_writeback_access 10832895
Core_0_L1D_writeback_hit 10796214
Core_0_L1D_writeback_miss 36681
Core_0_L1D_writeback_MPKI 0.36681
Core_0_L1D_writeback_miss_rate 0.00338608
Core_0_L1D_prefetch_requested 125995330
Core_0_L1D_prefetch_issued 53448857
Core_0_L1D_prefetch_useful 400808
Core_0_L1D_prefetch_useless 16985
Core_0_L1D_prefetch_late 69
Core_0_L1D_prefetch_accuracy 0.00749891
Core_0_L1D_prefetch_coverage 0.0644966
Core_0_L1D_total_eviction 5544048

Core_0_L2C_total_access 11032718
Core_0_L2C_total_hit 7436575
Core_0_L2C_total_miss 3596143
Core_0_L2C_total_MPKI 35.9614
Core_0_L2C_total_miss_rate 0.325953
Core_0_L2C_demand_access 4977221
Core_0_L2C_demand_hit 1730074
Core_0_L2C_demand_miss 3247147
Core_0_L2C_demand_MPKI 32.4715
Core_0_L2C_demand_miss_rate 0.652402
Core_0_L2C_load_access 4955135
Core_0_L2C_load_hit 1716000
Core_0_L2C_load_miss 3239135
Core_0_L2C_load_MPKI 32.3913
Core_0_L2C_load_miss_rate 0.653693
Core_0_L2C_rfo_access 22086
Core_0_L2C_rfo_hit 14074
Core_0_L2C_rfo_miss 8012
Core_0_L2C_rfo_MPKI 0.08012
Core_0_L2C_rfo_miss_rate 0.362764
Core_0_L2C_prefetch_access 4562539
Core_0_L2C_prefetch_hit 4213546
Core_0_L2C_prefetch_miss 348993
Core_0_L2C_prefetch_MPKI 3.48993
Core_0_L2C_prefetch_miss_rate 0.076491
Core_0_L2C_writeback_access 1492958
Core_0_L2C_writeback_hit 1492955
Core_0_L2C_writeback_miss 3
Core_0_L2C_writeback_MPKI 3e-05
Core_0_L2C_writeback_miss_rate 2.00943e-06
Core_0_L2C_prefetch_requested 999875
Core_0_L2C_prefetch_issued 983154
Core_0_L2C_prefetch_useful 101526
Core_0_L2C_prefetch_useless 26261
Core_0_L2C_prefetch_late 143
Core_0_L2C_prefetch_accuracy 0.103266
Core_0_L2C_prefetch_coverage 0.0303183
Core_0_L2C_total_eviction 3582415

Core_0_LLC_total_access 4402304
Core_0_LLC_total_hit 3166388
Core_0_LLC_total_miss 1235916
Core_0_LLC_total_MPKI 12.3592
Core_0_LLC_total_miss_rate 0.280743
Core_0_LLC_demand_access 3246679
Core_0_LLC_demand_hit 2202550
Core_0_LLC_demand_miss 1044129
Core_0_LLC_demand_MPKI 10.4413
Core_0_LLC_demand_miss_rate 0.321599
Core_0_LLC_load_access 3238667
Core_0_LLC_load_hit 2194584
Core_0_LLC_load_miss 1044083
Core_0_LLC_load_MPKI 10.4408
Core_0_LLC_load_miss_rate 0.32238
Core_0_LLC_rfo_access 8012
Core_0_LLC_rfo_hit 7966
Core_0_LLC_rfo_miss 46
Core_0_LLC_rfo_MPKI 0.00046
Core_0_LLC_rfo_miss_rate 0.00574139
Core_0_LLC_prefetch_access 250585
Core_0_LLC_prefetch_hit 96865
Core_0_LLC_prefetch_miss 153720
Core_0_LLC_prefetch_MPKI 1.5372
Core_0_LLC_prefetch_miss_rate 0.613445
Core_0_LLC_writeback_access 905040
Core_0_LLC_writeback_hit 866973
Core_0_LLC_writeback_miss 38067
Core_0_LLC_writeback_MPKI 0.38067
Core_0_LLC_writeback_miss_rate 0.0420611
Core_0_LLC_prefetch_requested 0
Core_0_LLC_prefetch_issued 0
Core_0_LLC_prefetch_useful 0
Core_0_LLC_prefetch_useless 0
Core_0_LLC_prefetch_late 0
Core_0_LLC_prefetch_accuracy 0
Core_0_LLC_prefetch_coverage 0
Core_0_LLC_total_eviction 1245125

[DRAM Statistics]
Channel_0_RQ_row_buffer_hit 3741
Channel_0_RQ_row_buffer_miss 1203294
Channel_0_WQ_row_buffer_hit 76203
Channel_0_WQ_row_buffer_miss 205603
Channel_0_WQ_full 0
Channel_0_dbus_congested 3658521
DRAM_total_RQ_row_buffer_hit 3741
DRAM_total_RQ_row_buffer_miss 1203294
DRAM_total_WQ_row_buffer_hit 76203
DRAM_total_WQ_row_buffer_miss 205603
DRAM_total_WQ_full 0
DRAM_total_dbus_congested 3658521
DRAM_avg_congested_cycle 20.741

======STLB miss causes ========
Core_0_STLB_miss_cause_breakdown
Core_0_STLB_cause_Demand_Data_miss 225922
Core_0_STLB_cause_Demand_Data_miss_rate 0.175556
Core_0_STLB_cause_Demand_Instruction_miss 609
Core_0_STLB_cause_Demand_Instruction_miss_rate 0.000473233
Core_0_STLB_cause_L1D_Prefetch_miss 0
Core_0_STLB_cause_L1D_Prefetch_miss_rate 0
Core_0_STLB_cause_L1I_Prefetch_miss 0
Core_0_STLB_cause_L1I_Prefetch_miss_rate 0
Core_0_STLB_cause_Other_miss 0
Core_0_STLB_cause_Other_miss_rate 0
Core_0_STLB_Demand_miss 226531
Core_0_STLB_Demand_miss_rate 0.176029
Core_0_STLB_L1D_Prefetch_miss 0
Core_0_STLB_L1D_Prefetch_miss_rate 0
Core_0_STLB_Other_miss 0
Core_0_STLB_Other_miss_rate 0
BERTI TO_L1: 158715423 TO_L2: 16833808 TO_L2_BC_MSHR: 0
BERTI AVG_LAT: 40.3309 NUM_TRACK_LATENCY: 8013114 NUM_CANT_TRACK_LATENCY: 10
BERTI CROSS_PAGE 12319513 NO_CROSS_PAGE: 163229718
BERTI FOUND_BERTI: 42107759 NO_FOUND_BERTI: 14286383
BERTI AVERAGE_ISSUED: 3.10503
