[VMEM] WARNING: physical memory size is smaller than virtual memory size.

*** ChampSim Multicore Out-of-Order Simulator ***
Warmup Instructions: 50000000
Simulation Instructions: 100000000
Number of CPUs: 1
Page size: 4096
STLB ideal mode: l1pref
STLB ideal fill: on
Core 0: /data2/zcq/champsim_traces_gap/bfs.urand-161B.champsimtrace.xz
VBerti Prefetcher
BERTI HASH ENTANGLING
BERTI IP MASK ffff
Off-chip DRAM Size: 16 GiB Channels: 1 Width: 64-bit Data Rate: 3205 MT/s
Warmup halting CPU 0 at instruction 50000001 cycle 12512178 for remainder of phase
Warmup finished CPU 0 instructions: 50000001 cycles: 12512178 cumulative IPC: 3.996 (Simulation time: 00 hr 03 min 20 sec)
Warmup complete CPU 0 instructions: 50000001 cycles: 12512178 cumulative IPC: 3.996 (Simulation time: 00 hr 03 min 20 sec)
Simulation finished CPU 0 instructions: 100000005 cycles: 508363504 cumulative IPC: 0.1967 (Simulation time: 00 hr 37 min 49 sec)
Simulation complete CPU 0 instructions: 100000005 cycles: 508363504 cumulative IPC: 0.1967 (Simulation time: 00 hr 37 min 49 sec)

ChampSim completed all CPUs

=== Simulation ===
CPU 0 runs /data2/zcq/champsim_traces_gap/bfs.urand-161B.champsimtrace.xz

Region of Interest Statistics

CPU 0 cumulative IPC: 0.1967 instructions: 100000005 cycles: 508363504
CPU 0 Branch Prediction Accuracy: 89.43% MPKI: 19.37 Average ROB Occupancy at Mispredict: 28.72
Branch type MPKI
BRANCH_DIRECT_JUMP: 0
BRANCH_INDIRECT: 0
BRANCH_CONDITIONAL: 19.37
BRANCH_DIRECT_CALL: 0
BRANCH_INDIRECT_CALL: 0
BRANCH_RETURN: 0

cpu0->cpu0_STLB TOTAL        ACCESS:    6979778 HIT:    5839085 MISS:    1140693 MSHR_MERGE:          0
cpu0->cpu0_STLB LOAD         ACCESS:    6979778 HIT:    5839085 MISS:    1140693 MSHR_MERGE:          0
cpu0->cpu0_STLB RFO          ACCESS:          0 HIT:          0 MISS:          0 MSHR_MERGE:          0
cpu0->cpu0_STLB PREFETCH     ACCESS:          0 HIT:          0 MISS:          0 MSHR_MERGE:          0
cpu0->cpu0_STLB WRITE        ACCESS:          0 HIT:          0 MISS:          0 MSHR_MERGE:          0
cpu0->cpu0_STLB TRANSLATION  ACCESS:          0 HIT:          0 MISS:          0 MSHR_MERGE:          0
cpu0->cpu0_STLB PREFETCH REQUESTED:          0 ISSUED:          0 USEFUL:          0 USELESS:          0 LATE:          0
cpu0->cpu0_STLB AVERAGE MISS LATENCY: 26.22 cycles
cpu0->cpu0_L2C TOTAL        ACCESS:   21735329 HIT:   10110021 MISS:   11625308 MSHR_MERGE:     747642
cpu0->cpu0_L2C LOAD         ACCESS:    8493019 HIT:    1479602 MISS:    7013417 MSHR_MERGE:      30160
cpu0->cpu0_L2C RFO          ACCESS:       1890 HIT:       1548 MISS:        342 MSHR_MERGE:          0
cpu0->cpu0_L2C PREFETCH     ACCESS:   12203048 HIT:    7781078 MISS:    4421970 MSHR_MERGE:     717482
cpu0->cpu0_L2C WRITE        ACCESS:     126625 HIT:     123303 MISS:       3322 MSHR_MERGE:          0
cpu0->cpu0_L2C TRANSLATION  ACCESS:     910747 HIT:     724490 MISS:     186257 MSHR_MERGE:          0
cpu0->cpu0_L2C PREFETCH REQUESTED:    2385715 ISSUED:    2385715 USEFUL:     316729 USELESS:      83415 LATE:       4163
cpu0->cpu0_L2C AVERAGE MISS LATENCY: 161.5 cycles
cpu0->cpu0_L1I TOTAL        ACCESS:         11 HIT:         11 MISS:          0 MSHR_MERGE:          0
cpu0->cpu0_L1I LOAD         ACCESS:         11 HIT:         11 MISS:          0 MSHR_MERGE:          0
cpu0->cpu0_L1I RFO          ACCESS:          0 HIT:          0 MISS:          0 MSHR_MERGE:          0
cpu0->cpu0_L1I PREFETCH     ACCESS:          0 HIT:          0 MISS:          0 MSHR_MERGE:          0
cpu0->cpu0_L1I WRITE        ACCESS:          0 HIT:          0 MISS:          0 MSHR_MERGE:          0
cpu0->cpu0_L1I TRANSLATION  ACCESS:          0 HIT:          0 MISS:          0 MSHR_MERGE:          0
cpu0->cpu0_L1I PREFETCH REQUESTED:          0 ISSUED:          0 USEFUL:          0 USELESS:          0 LATE:          0
cpu0->cpu0_L1I AVERAGE MISS LATENCY: - cycles
cpu0->cpu0_L1D TOTAL        ACCESS:   63226751 HIT:   40060977 MISS:   23165774 MSHR_MERGE:    3373601
cpu0->cpu0_L1D LOAD         ACCESS:   25243827 HIT:   13390242 MISS:   11853585 MSHR_MERGE:    3360567
cpu0->cpu0_L1D RFO          ACCESS:          0 HIT:          0 MISS:          0 MSHR_MERGE:          0
cpu0->cpu0_L1D PREFETCH     ACCESS:   31161702 HIT:   20769208 MISS:   10392494 MSHR_MERGE:       5976
cpu0->cpu0_L1D WRITE        ACCESS:    4552304 HIT:    4550414 MISS:       1890 MSHR_MERGE:          0
cpu0->cpu0_L1D TRANSLATION  ACCESS:    2268918 HIT:    1351113 MISS:     917805 MSHR_MERGE:       7058
cpu0->cpu0_L1D PREFETCH REQUESTED:   69963834 ISSUED:   31161695 USEFUL:     916306 USELESS:     493286 LATE:      14103
cpu0->cpu0_L1D AVERAGE MISS LATENCY: 132.5 cycles
cpu0->cpu0_ITLB TOTAL        ACCESS:         10 HIT:         10 MISS:          0 MSHR_MERGE:          0
cpu0->cpu0_ITLB LOAD         ACCESS:         10 HIT:         10 MISS:          0 MSHR_MERGE:          0
cpu0->cpu0_ITLB RFO          ACCESS:          0 HIT:          0 MISS:          0 MSHR_MERGE:          0
cpu0->cpu0_ITLB PREFETCH     ACCESS:          0 HIT:          0 MISS:          0 MSHR_MERGE:          0
cpu0->cpu0_ITLB WRITE        ACCESS:          0 HIT:          0 MISS:          0 MSHR_MERGE:          0
cpu0->cpu0_ITLB TRANSLATION  ACCESS:          0 HIT:          0 MISS:          0 MSHR_MERGE:          0
cpu0->cpu0_ITLB PREFETCH REQUESTED:          0 ISSUED:          0 USEFUL:          0 USELESS:          0 LATE:          0
cpu0->cpu0_ITLB AVERAGE MISS LATENCY: - cycles
cpu0->cpu0_DTLB TOTAL        ACCESS:   49889398 HIT:   42830045 MISS:    7059353 MSHR_MERGE:      79575
cpu0->cpu0_DTLB LOAD         ACCESS:   49889398 HIT:   42830045 MISS:    7059353 MSHR_MERGE:      79575
cpu0->cpu0_DTLB RFO          ACCESS:          0 HIT:          0 MISS:          0 MSHR_MERGE:          0
cpu0->cpu0_DTLB PREFETCH     ACCESS:          0 HIT:          0 MISS:          0 MSHR_MERGE:          0
cpu0->cpu0_DTLB WRITE        ACCESS:          0 HIT:          0 MISS:          0 MSHR_MERGE:          0
cpu0->cpu0_DTLB TRANSLATION  ACCESS:          0 HIT:          0 MISS:          0 MSHR_MERGE:          0
cpu0->cpu0_DTLB PREFETCH REQUESTED:          0 ISSUED:          0 USEFUL:          0 USELESS:          0 LATE:          0
cpu0->cpu0_DTLB AVERAGE MISS LATENCY: 9.546 cycles
cpu0->LLC TOTAL        ACCESS:   10999596 HIT:    2852633 MISS:    8146963 MSHR_MERGE:        523
cpu0->LLC LOAD         ACCESS:    6983257 HIT:    2645828 MISS:    4337429 MSHR_MERGE:          0
cpu0->LLC RFO          ACCESS:        342 HIT:        342 MISS:          0 MSHR_MERGE:          0
cpu0->LLC PREFETCH     ACCESS:    3704488 HIT:       3611 MISS:    3700877 MSHR_MERGE:        523
cpu0->LLC WRITE        ACCESS:     125252 HIT:      22069 MISS:     103183 MSHR_MERGE:          0
cpu0->LLC TRANSLATION  ACCESS:     186257 HIT:     180783 MISS:       5474 MSHR_MERGE:          0
cpu0->LLC PREFETCH REQUESTED:          0 ISSUED:          0 USEFUL:          0 USELESS:          0 LATE:          0
cpu0->LLC AVERAGE MISS LATENCY: 235.9 cycles

DRAM Statistics

Channel 0 RQ ROW_BUFFER_HIT:     398237
  ROW_BUFFER_MISS:    7645019
  AVG DBUS CONGESTED CYCLE: 13.03
Channel 0 WQ ROW_BUFFER_HIT:      33916
  ROW_BUFFER_MISS:      90849
  FULL:          0
Channel 0 REFRESHES ISSUED:      42364

[ROI Statistics]
[System Configuration]
num_cpus 1
cpu_freq 4000
fetch_width 6
decode_width 6
dispatch_width 6
execute_width 6
lq_width 2
sq_width 2
retire_width 6
scheduler_size 128
branch_mispredict_penalty 15
rob_size 352
lq_size 128
sq_size 72
ifetch_buffer_size 64
decode_buffer_size 32
dispatch_buffer_size 32
register_file_size 288
decode_latency 1
dispatch_latency 1
schedule_latency 1
execute_latency 1
page_size 4096
block_size 64
core_0_itlb_set 16
core_0_itlb_way 4
core_0_itlb_rq_size 16
core_0_itlb_wq_size 16
core_0_itlb_pq_size 0
core_0_itlb_mshr_size 8
core_0_itlb_hit_latency 1
core_0_itlb_fill_latency 1
core_0_itlb_max_tag_check 2
core_0_itlb_max_fill 2
core_0_dtlb_set 16
core_0_dtlb_way 4
core_0_dtlb_rq_size 16
core_0_dtlb_wq_size 16
core_0_dtlb_pq_size 0
core_0_dtlb_mshr_size 8
core_0_dtlb_hit_latency 1
core_0_dtlb_fill_latency 1
core_0_dtlb_max_tag_check 2
core_0_dtlb_max_fill 2
core_0_stlb_set 128
core_0_stlb_way 12
core_0_stlb_rq_size 32
core_0_stlb_wq_size 32
core_0_stlb_pq_size 0
core_0_stlb_mshr_size 16
core_0_stlb_hit_latency 4
core_0_stlb_fill_latency 4
core_0_stlb_max_tag_check 1
core_0_stlb_max_fill 1
core_0_l1i_set 64
core_0_l1i_way 8
core_0_l1i_rq_size 64
core_0_l1i_wq_size 64
core_0_l1i_pq_size 32
core_0_l1i_mshr_size 8
core_0_l1i_hit_latency 2
core_0_l1i_fill_latency 2
core_0_l1i_max_tag_check 2
core_0_l1i_max_fill 2
core_0_l1d_set 64
core_0_l1d_way 12
core_0_l1d_rq_size 64
core_0_l1d_wq_size 64
core_0_l1d_pq_size 8
core_0_l1d_mshr_size 16
core_0_l1d_hit_latency 2
core_0_l1d_fill_latency 3
core_0_l1d_max_tag_check 2
core_0_l1d_max_fill 2
core_0_l2c_set 1024
core_0_l2c_way 8
core_0_l2c_rq_size 32
core_0_l2c_wq_size 32
core_0_l2c_pq_size 16
core_0_l2c_mshr_size 32
core_0_l2c_hit_latency 5
core_0_l2c_fill_latency 5
core_0_l2c_max_tag_check 1
core_0_l2c_max_fill 1
llc_set 2048
llc_way 16
llc_rq_size 32
llc_wq_size 32
llc_pq_size 32
llc_mshr_size 64
llc_hit_latency 10
llc_fill_latency 10
llc_max_tag_check 1
llc_max_fill 1
dram_channels 1
dram_ranks 1
dram_bankgroups 8
dram_banks 4
dram_rows 65536
dram_columns 1024
dram_channel_width 8
dram_rq_size 64
dram_wq_size 64
dram_size 17179869184
core_0_itlb_prefetcher no
core_0_dtlb_prefetcher no
core_0_stlb_prefetcher no
core_0_l1i_prefetcher next_line
core_0_l1d_prefetcher vberti
core_0_l2c_prefetcher ip_stride
llc_prefetcher no
llc_replacement drrip

Core_0_instructions 100000005
Core_0_cycles 508363504
Core_0_IPC 0.19671
Core_0_branch_prediction_accuracy 89.4283
Core_0_branch_MPKI 19.3711
Core_0_average_ROB_occupancy_at_mispredict 28.7196

Core_0_ITLB_total_access 10
Core_0_ITLB_total_hit 10
Core_0_ITLB_total_miss 0
Core_0_ITLB_total_MPKI 0
Core_0_ITLB_total_miss_rate 0
Core_0_ITLB_demand_access 10
Core_0_ITLB_demand_hit 10
Core_0_ITLB_demand_miss 0
Core_0_ITLB_demand_MPKI 0
Core_0_ITLB_demand_miss_rate 0
Core_0_ITLB_load_access 10
Core_0_ITLB_load_hit 10
Core_0_ITLB_load_miss 0
Core_0_ITLB_load_MPKI 0
Core_0_ITLB_load_miss_rate 0
Core_0_ITLB_rfo_access 0
Core_0_ITLB_rfo_hit 0
Core_0_ITLB_rfo_miss 0
Core_0_ITLB_rfo_MPKI 0
Core_0_ITLB_rfo_miss_rate 0
Core_0_ITLB_prefetch_access 0
Core_0_ITLB_prefetch_hit 0
Core_0_ITLB_prefetch_miss 0
Core_0_ITLB_prefetch_MPKI 0
Core_0_ITLB_prefetch_miss_rate 0
Core_0_ITLB_writeback_access 0
Core_0_ITLB_writeback_hit 0
Core_0_ITLB_writeback_miss 0
Core_0_ITLB_writeback_MPKI 0
Core_0_ITLB_writeback_miss_rate 0
Core_0_ITLB_prefetch_requested 0
Core_0_ITLB_prefetch_issued 0
Core_0_ITLB_prefetch_useful 0
Core_0_ITLB_prefetch_useless 0
Core_0_ITLB_prefetch_late 0
Core_0_ITLB_prefetch_accuracy 0
Core_0_ITLB_prefetch_coverage 0
Core_0_ITLB_total_eviction 0

Core_0_DTLB_total_access 49889398
Core_0_DTLB_total_hit 42830045
Core_0_DTLB_total_miss 7059353
Core_0_DTLB_total_MPKI 70.5935
Core_0_DTLB_total_miss_rate 0.1415
Core_0_DTLB_demand_access 49889398
Core_0_DTLB_demand_hit 42830045
Core_0_DTLB_demand_miss 7059353
Core_0_DTLB_demand_MPKI 70.5935
Core_0_DTLB_demand_miss_rate 0.1415
Core_0_DTLB_load_access 49889398
Core_0_DTLB_load_hit 42830045
Core_0_DTLB_load_miss 7059353
Core_0_DTLB_load_MPKI 70.5935
Core_0_DTLB_load_miss_rate 0.1415
Core_0_DTLB_rfo_access 0
Core_0_DTLB_rfo_hit 0
Core_0_DTLB_rfo_miss 0
Core_0_DTLB_rfo_MPKI 0
Core_0_DTLB_rfo_miss_rate 0
Core_0_DTLB_prefetch_access 0
Core_0_DTLB_prefetch_hit 0
Core_0_DTLB_prefetch_miss 0
Core_0_DTLB_prefetch_MPKI 0
Core_0_DTLB_prefetch_miss_rate 0
Core_0_DTLB_writeback_access 0
Core_0_DTLB_writeback_hit 0
Core_0_DTLB_writeback_miss 0
Core_0_DTLB_writeback_MPKI 0
Core_0_DTLB_writeback_miss_rate 0
Core_0_DTLB_prefetch_requested 0
Core_0_DTLB_prefetch_issued 0
Core_0_DTLB_prefetch_useful 0
Core_0_DTLB_prefetch_useless 0
Core_0_DTLB_prefetch_late 0
Core_0_DTLB_prefetch_accuracy 0
Core_0_DTLB_prefetch_coverage 0
Core_0_DTLB_total_eviction 6979778

Core_0_STLB_total_access 6979778
Core_0_STLB_total_hit 5839085
Core_0_STLB_total_miss 1140693
Core_0_STLB_total_MPKI 11.4069
Core_0_STLB_total_miss_rate 0.163428
Core_0_STLB_demand_access 6979778
Core_0_STLB_demand_hit 5839085
Core_0_STLB_demand_miss 1140693
Core_0_STLB_demand_MPKI 11.4069
Core_0_STLB_demand_miss_rate 0.163428
Core_0_STLB_load_access 6979778
Core_0_STLB_load_hit 5839085
Core_0_STLB_load_miss 1140693
Core_0_STLB_load_MPKI 11.4069
Core_0_STLB_load_miss_rate 0.163428
Core_0_STLB_rfo_access 0
Core_0_STLB_rfo_hit 0
Core_0_STLB_rfo_miss 0
Core_0_STLB_rfo_MPKI 0
Core_0_STLB_rfo_miss_rate 0
Core_0_STLB_prefetch_access 0
Core_0_STLB_prefetch_hit 0
Core_0_STLB_prefetch_miss 0
Core_0_STLB_prefetch_MPKI 0
Core_0_STLB_prefetch_miss_rate 0
Core_0_STLB_writeback_access 0
Core_0_STLB_writeback_hit 0
Core_0_STLB_writeback_miss 0
Core_0_STLB_writeback_MPKI 0
Core_0_STLB_writeback_miss_rate 0
Core_0_STLB_prefetch_requested 0
Core_0_STLB_prefetch_issued 0
Core_0_STLB_prefetch_useful 0
Core_0_STLB_prefetch_useless 0
Core_0_STLB_prefetch_late 0
Core_0_STLB_prefetch_accuracy 0
Core_0_STLB_prefetch_coverage 0
Core_0_STLB_total_eviction 1207456

Core_0_L1I_total_access 11
Core_0_L1I_total_hit 11
Core_0_L1I_total_miss 0
Core_0_L1I_total_MPKI 0
Core_0_L1I_total_miss_rate 0
Core_0_L1I_demand_access 11
Core_0_L1I_demand_hit 11
Core_0_L1I_demand_miss 0
Core_0_L1I_demand_MPKI 0
Core_0_L1I_demand_miss_rate 0
Core_0_L1I_load_access 11
Core_0_L1I_load_hit 11
Core_0_L1I_load_miss 0
Core_0_L1I_load_MPKI 0
Core_0_L1I_load_miss_rate 0
Core_0_L1I_rfo_access 0
Core_0_L1I_rfo_hit 0
Core_0_L1I_rfo_miss 0
Core_0_L1I_rfo_MPKI 0
Core_0_L1I_rfo_miss_rate 0
Core_0_L1I_prefetch_access 0
Core_0_L1I_prefetch_hit 0
Core_0_L1I_prefetch_miss 0
Core_0_L1I_prefetch_MPKI 0
Core_0_L1I_prefetch_miss_rate 0
Core_0_L1I_writeback_access 0
Core_0_L1I_writeback_hit 0
Core_0_L1I_writeback_miss 0
Core_0_L1I_writeback_MPKI 0
Core_0_L1I_writeback_miss_rate 0
Core_0_L1I_prefetch_requested 0
Core_0_L1I_prefetch_issued 0
Core_0_L1I_prefetch_useful 0
Core_0_L1I_prefetch_useless 0
Core_0_L1I_prefetch_late 0
Core_0_L1I_prefetch_accuracy 0
Core_0_L1I_prefetch_coverage 0
Core_0_L1I_total_eviction 0

Core_0_L1D_total_access 60957833
Core_0_L1D_total_hit 38709864
Core_0_L1D_total_miss 22247969
Core_0_L1D_total_MPKI 222.48
Core_0_L1D_total_miss_rate 0.364973
Core_0_L1D_demand_access 25243827
Core_0_L1D_demand_hit 13390242
Core_0_L1D_demand_miss 11853585
Core_0_L1D_demand_MPKI 118.536
Core_0_L1D_demand_miss_rate 0.469564
Core_0_L1D_load_access 25243827
Core_0_L1D_load_hit 13390242
Core_0_L1D_load_miss 11853585
Core_0_L1D_load_MPKI 118.536
Core_0_L1D_load_miss_rate 0.469564
Core_0_L1D_rfo_access 0
Core_0_L1D_rfo_hit 0
Core_0_L1D_rfo_miss 0
Core_0_L1D_rfo_MPKI 0
Core_0_L1D_rfo_miss_rate 0
Core_0_L1D_prefetch_access 31161702
Core_0_L1D_prefetch_hit 20769208
Core_0_L1D_prefetch_miss 10392494
Core_0_L1D_prefetch_MPKI 103.925
Core_0_L1D_prefetch_miss_rate 0.333502
Core_0_L1D_writeback_access 4552304
Core_0_L1D_writeback_hit 4550414
Core_0_L1D_writeback_miss 1890
Core_0_L1D_writeback_MPKI 0.0189
Core_0_L1D_writeback_miss_rate 0.000415174
Core_0_L1D_prefetch_requested 69963834
Core_0_L1D_prefetch_issued 31161695
Core_0_L1D_prefetch_useful 916306
Core_0_L1D_prefetch_useless 493286
Core_0_L1D_prefetch_late 14103
Core_0_L1D_prefetch_accuracy 0.0294049
Core_0_L1D_prefetch_coverage 0.0717552
Core_0_L1D_total_eviction 10815319

Core_0_L2C_total_access 20824582
Core_0_L2C_total_hit 9385531
Core_0_L2C_total_miss 11439051
Core_0_L2C_total_MPKI 114.391
Core_0_L2C_total_miss_rate 0.549305
Core_0_L2C_demand_access 8494909
Core_0_L2C_demand_hit 1481150
Core_0_L2C_demand_miss 7013759
Core_0_L2C_demand_MPKI 70.1376
Core_0_L2C_demand_miss_rate 0.825643
Core_0_L2C_load_access 8493019
Core_0_L2C_load_hit 1479602
Core_0_L2C_load_miss 7013417
Core_0_L2C_load_MPKI 70.1342
Core_0_L2C_load_miss_rate 0.825786
Core_0_L2C_rfo_access 1890
Core_0_L2C_rfo_hit 1548
Core_0_L2C_rfo_miss 342
Core_0_L2C_rfo_MPKI 0.00342
Core_0_L2C_rfo_miss_rate 0.180952
Core_0_L2C_prefetch_access 12203048
Core_0_L2C_prefetch_hit 7781078
Core_0_L2C_prefetch_miss 4421970
Core_0_L2C_prefetch_MPKI 44.2197
Core_0_L2C_prefetch_miss_rate 0.362366
Core_0_L2C_writeback_access 126625
Core_0_L2C_writeback_hit 123303
Core_0_L2C_writeback_miss 3322
Core_0_L2C_writeback_MPKI 0.03322
Core_0_L2C_writeback_miss_rate 0.0262349
Core_0_L2C_prefetch_requested 2385715
Core_0_L2C_prefetch_issued 2385715
Core_0_L2C_prefetch_useful 316729
Core_0_L2C_prefetch_useless 83415
Core_0_L2C_prefetch_late 4163
Core_0_L2C_prefetch_accuracy 0.132761
Core_0_L2C_prefetch_coverage 0.0432071
Core_0_L2C_total_eviction 10873745

Core_0_LLC_total_access 10813339
Core_0_LLC_total_hit 2671850
Core_0_LLC_total_miss 8141489
Core_0_LLC_total_MPKI 81.4149
Core_0_LLC_total_miss_rate 0.752912
Core_0_LLC_demand_access 6983599
Core_0_LLC_demand_hit 2646170
Core_0_LLC_demand_miss 4337429
Core_0_LLC_demand_MPKI 43.3743
Core_0_LLC_demand_miss_rate 0.621088
Core_0_LLC_load_access 6983257
Core_0_LLC_load_hit 2645828
Core_0_LLC_load_miss 4337429
Core_0_LLC_load_MPKI 43.3743
Core_0_LLC_load_miss_rate 0.621118
Core_0_LLC_rfo_access 342
Core_0_LLC_rfo_hit 342
Core_0_LLC_rfo_miss 0
Core_0_LLC_rfo_MPKI 0
Core_0_LLC_rfo_miss_rate 0
Core_0_LLC_prefetch_access 3704488
Core_0_LLC_prefetch_hit 3611
Core_0_LLC_prefetch_miss 3700877
Core_0_LLC_prefetch_MPKI 37.0088
Core_0_LLC_prefetch_miss_rate 0.999025
Core_0_LLC_writeback_access 125252
Core_0_LLC_writeback_hit 22069
Core_0_LLC_writeback_miss 103183
Core_0_LLC_writeback_MPKI 1.03183
Core_0_LLC_writeback_miss_rate 0.823803
Core_0_LLC_prefetch_requested 0
Core_0_LLC_prefetch_issued 0
Core_0_LLC_prefetch_useful 0
Core_0_LLC_prefetch_useless 0
Core_0_LLC_prefetch_late 0
Core_0_LLC_prefetch_accuracy 0
Core_0_LLC_prefetch_coverage 0
Core_0_LLC_total_eviction 8146439

[DRAM Statistics]
Channel_0_RQ_row_buffer_hit 398237
Channel_0_RQ_row_buffer_miss 7645019
Channel_0_WQ_row_buffer_hit 33916
Channel_0_WQ_row_buffer_miss 90849
Channel_0_WQ_full 0
Channel_0_dbus_congested 21317859
DRAM_total_RQ_row_buffer_hit 398237
DRAM_total_RQ_row_buffer_miss 7645019
DRAM_total_WQ_row_buffer_hit 33916
DRAM_total_WQ_row_buffer_miss 90849
DRAM_total_WQ_full 0
DRAM_total_dbus_congested 21317859
DRAM_avg_congested_cycle 13.028

======STLB miss causes ========
Core_0_STLB_miss_cause_breakdown
Core_0_STLB_cause_Demand_Data_miss 1140693
Core_0_STLB_cause_Demand_Data_miss_rate 0.163428
Core_0_STLB_cause_Demand_Instruction_miss 0
Core_0_STLB_cause_Demand_Instruction_miss_rate 0
Core_0_STLB_cause_L1D_Prefetch_miss 0
Core_0_STLB_cause_L1D_Prefetch_miss_rate 0
Core_0_STLB_cause_L1I_Prefetch_miss 0
Core_0_STLB_cause_L1I_Prefetch_miss_rate 0
Core_0_STLB_cause_Other_miss 0
Core_0_STLB_cause_Other_miss_rate 0
Core_0_STLB_Demand_miss 1140693
Core_0_STLB_Demand_miss_rate 0.163428
Core_0_STLB_L1D_Prefetch_miss 0
Core_0_STLB_L1D_Prefetch_miss_rate 0
Core_0_STLB_Other_miss 0
Core_0_STLB_Other_miss_rate 0
BERTI TO_L1: 30748440 TO_L2: 48501218 TO_L2_BC_MSHR: 7887
BERTI AVG_LAT: 97.6039 NUM_TRACK_LATENCY: 14647480 NUM_CANT_TRACK_LATENCY: 0
BERTI CROSS_PAGE 12390134 NO_CROSS_PAGE: 66859524
BERTI FOUND_BERTI: 30853442 NO_FOUND_BERTI: 11475108
BERTI AVERAGE_ISSUED: 2.82151
