[VMEM] WARNING: physical memory size is smaller than virtual memory size.

*** ChampSim Multicore Out-of-Order Simulator ***
Warmup Instructions: 50000000
Simulation Instructions: 100000000
Number of CPUs: 1
Page size: 4096
STLB ideal mode: l1pref
STLB ideal fill: on
Core 0: /data2/zcq/champsim_traces_gap/bfs.twitter-242B.champsimtrace.xz
VBerti Prefetcher
BERTI HASH ENTANGLING
BERTI IP MASK ffff
Off-chip DRAM Size: 16 GiB Channels: 1 Width: 64-bit Data Rate: 3205 MT/s
Warmup halting CPU 0 at instruction 50000003 cycle 19118509 for remainder of phase
Warmup finished CPU 0 instructions: 50000003 cycles: 19118509 cumulative IPC: 2.615 (Simulation time: 00 hr 03 min 32 sec)
Warmup complete CPU 0 instructions: 50000003 cycles: 19118509 cumulative IPC: 2.615 (Simulation time: 00 hr 03 min 32 sec)
Simulation finished CPU 0 instructions: 100000001 cycles: 430439251 cumulative IPC: 0.2323 (Simulation time: 00 hr 30 min 04 sec)
Simulation complete CPU 0 instructions: 100000001 cycles: 430439251 cumulative IPC: 0.2323 (Simulation time: 00 hr 30 min 04 sec)

ChampSim completed all CPUs

=== Simulation ===
CPU 0 runs /data2/zcq/champsim_traces_gap/bfs.twitter-242B.champsimtrace.xz

Region of Interest Statistics

CPU 0 cumulative IPC: 0.2323 instructions: 100000001 cycles: 430439251
CPU 0 Branch Prediction Accuracy: 81.64% MPKI: 37.85 Average ROB Occupancy at Mispredict: 11.89
Branch type MPKI
BRANCH_DIRECT_JUMP: 0
BRANCH_INDIRECT: 0
BRANCH_CONDITIONAL: 37.85
BRANCH_DIRECT_CALL: 0
BRANCH_INDIRECT_CALL: 0
BRANCH_RETURN: 0

cpu0->cpu0_STLB TOTAL        ACCESS:     854698 HIT:     651415 MISS:     203283 MSHR_MERGE:          0
cpu0->cpu0_STLB LOAD         ACCESS:     854698 HIT:     651415 MISS:     203283 MSHR_MERGE:          0
cpu0->cpu0_STLB RFO          ACCESS:          0 HIT:          0 MISS:          0 MSHR_MERGE:          0
cpu0->cpu0_STLB PREFETCH     ACCESS:          0 HIT:          0 MISS:          0 MSHR_MERGE:          0
cpu0->cpu0_STLB WRITE        ACCESS:          0 HIT:          0 MISS:          0 MSHR_MERGE:          0
cpu0->cpu0_STLB TRANSLATION  ACCESS:          0 HIT:          0 MISS:          0 MSHR_MERGE:          0
cpu0->cpu0_STLB PREFETCH REQUESTED:          0 ISSUED:          0 USEFUL:          0 USELESS:          0 LATE:          0
cpu0->cpu0_STLB AVERAGE MISS LATENCY: 167.7 cycles
cpu0->cpu0_L2C TOTAL        ACCESS:    6415664 HIT:    3019962 MISS:    3395702 MSHR_MERGE:     469991
cpu0->cpu0_L2C LOAD         ACCESS:    1376653 HIT:     140496 MISS:    1236157 MSHR_MERGE:         84
cpu0->cpu0_L2C RFO          ACCESS:       3281 HIT:       3281 MISS:          0 MSHR_MERGE:          0
cpu0->cpu0_L2C PREFETCH     ACCESS:    4583696 HIT:    2474891 MISS:    2108805 MSHR_MERGE:     469907
cpu0->cpu0_L2C WRITE        ACCESS:     362889 HIT:     362686 MISS:        203 MSHR_MERGE:          0
cpu0->cpu0_L2C TRANSLATION  ACCESS:      89145 HIT:      38608 MISS:      50537 MSHR_MERGE:          0
cpu0->cpu0_L2C PREFETCH REQUESTED:    1534866 ISSUED:    1534866 USEFUL:     763980 USELESS:     124952 LATE:         63
cpu0->cpu0_L2C AVERAGE MISS LATENCY: 181.4 cycles
cpu0->cpu0_L1I TOTAL        ACCESS:        108 HIT:        108 MISS:          0 MSHR_MERGE:          0
cpu0->cpu0_L1I LOAD         ACCESS:        108 HIT:        108 MISS:          0 MSHR_MERGE:          0
cpu0->cpu0_L1I RFO          ACCESS:          0 HIT:          0 MISS:          0 MSHR_MERGE:          0
cpu0->cpu0_L1I PREFETCH     ACCESS:          0 HIT:          0 MISS:          0 MSHR_MERGE:          0
cpu0->cpu0_L1I WRITE        ACCESS:          0 HIT:          0 MISS:          0 MSHR_MERGE:          0
cpu0->cpu0_L1I TRANSLATION  ACCESS:          0 HIT:          0 MISS:          0 MSHR_MERGE:          0
cpu0->cpu0_L1I PREFETCH REQUESTED:          0 ISSUED:          0 USEFUL:          0 USELESS:          0 LATE:          0
cpu0->cpu0_L1I AVERAGE MISS LATENCY: - cycles
cpu0->cpu0_L1D TOTAL        ACCESS:   71021406 HIT:   66494424 MISS:    4526982 MSHR_MERGE:       8730
cpu0->cpu0_L1D LOAD         ACCESS:   18386278 HIT:   17004216 MISS:    1382062 MSHR_MERGE:       5409
cpu0->cpu0_L1D RFO          ACCESS:          0 HIT:          0 MISS:          0 MSHR_MERGE:          0
cpu0->cpu0_L1D PREFETCH     ACCESS:   50514176 HIT:   47464999 MISS:    3049177 MSHR_MERGE:          4
cpu0->cpu0_L1D WRITE        ACCESS:    1714094 HIT:    1707532 MISS:       6562 MSHR_MERGE:       3281
cpu0->cpu0_L1D TRANSLATION  ACCESS:     406858 HIT:     317677 MISS:      89181 MSHR_MERGE:         36
cpu0->cpu0_L1D PREFETCH REQUESTED:  145300708 ISSUED:   50514168 USEFUL:    1536942 USELESS:      25938 LATE:        454
cpu0->cpu0_L1D AVERAGE MISS LATENCY: 167.7 cycles
cpu0->cpu0_ITLB TOTAL        ACCESS:         94 HIT:         94 MISS:          0 MSHR_MERGE:          0
cpu0->cpu0_ITLB LOAD         ACCESS:         94 HIT:         94 MISS:          0 MSHR_MERGE:          0
cpu0->cpu0_ITLB RFO          ACCESS:          0 HIT:          0 MISS:          0 MSHR_MERGE:          0
cpu0->cpu0_ITLB PREFETCH     ACCESS:          0 HIT:          0 MISS:          0 MSHR_MERGE:          0
cpu0->cpu0_ITLB WRITE        ACCESS:          0 HIT:          0 MISS:          0 MSHR_MERGE:          0
cpu0->cpu0_ITLB TRANSLATION  ACCESS:          0 HIT:          0 MISS:          0 MSHR_MERGE:          0
cpu0->cpu0_ITLB PREFETCH REQUESTED:          0 ISSUED:          0 USEFUL:          0 USELESS:          0 LATE:          0
cpu0->cpu0_ITLB AVERAGE MISS LATENCY: - cycles
cpu0->cpu0_DTLB TOTAL        ACCESS:   51520740 HIT:   50652807 MISS:     867933 MSHR_MERGE:      13235
cpu0->cpu0_DTLB LOAD         ACCESS:   51520740 HIT:   50652807 MISS:     867933 MSHR_MERGE:      13235
cpu0->cpu0_DTLB RFO          ACCESS:          0 HIT:          0 MISS:          0 MSHR_MERGE:          0
cpu0->cpu0_DTLB PREFETCH     ACCESS:          0 HIT:          0 MISS:          0 MSHR_MERGE:          0
cpu0->cpu0_DTLB WRITE        ACCESS:          0 HIT:          0 MISS:          0 MSHR_MERGE:          0
cpu0->cpu0_DTLB TRANSLATION  ACCESS:          0 HIT:          0 MISS:          0 MSHR_MERGE:          0
cpu0->cpu0_DTLB PREFETCH REQUESTED:          0 ISSUED:          0 USEFUL:          0 USELESS:          0 LATE:          0
cpu0->cpu0_DTLB AVERAGE MISS LATENCY: 45.11 cycles
cpu0->LLC TOTAL        ACCESS:    3285083 HIT:     515760 MISS:    2769323 MSHR_MERGE:       1041
cpu0->LLC LOAD         ACCESS:    1236073 HIT:     168397 MISS:    1067676 MSHR_MERGE:          2
cpu0->LLC RFO          ACCESS:          0 HIT:          0 MISS:          0 MSHR_MERGE:          0
cpu0->LLC PREFETCH     ACCESS:    1638898 HIT:       1524 MISS:    1637374 MSHR_MERGE:       1039
cpu0->LLC WRITE        ACCESS:     359575 HIT:     316388 MISS:      43187 MSHR_MERGE:          0
cpu0->LLC TRANSLATION  ACCESS:      50537 HIT:      29451 MISS:      21086 MSHR_MERGE:          0
cpu0->LLC PREFETCH REQUESTED:          0 ISSUED:          0 USEFUL:          0 USELESS:          0 LATE:          0
cpu0->LLC AVERAGE MISS LATENCY: 188.5 cycles

DRAM Statistics

Channel 0 RQ ROW_BUFFER_HIT:      21343
  ROW_BUFFER_MISS:    2703752
  AVG DBUS CONGESTED CYCLE: 17.4
Channel 0 WQ ROW_BUFFER_HIT:     133390
  ROW_BUFFER_MISS:     226263
  FULL:          0
Channel 0 REFRESHES ISSUED:      35870

[ROI Statistics]
[System Configuration]
num_cpus 1
cpu_freq 4000
fetch_width 6
decode_width 6
dispatch_width 6
execute_width 6
lq_width 2
sq_width 2
retire_width 6
scheduler_size 128
branch_mispredict_penalty 15
rob_size 352
lq_size 128
sq_size 72
ifetch_buffer_size 64
decode_buffer_size 32
dispatch_buffer_size 32
register_file_size 288
decode_latency 1
dispatch_latency 1
schedule_latency 1
execute_latency 1
page_size 4096
block_size 64
core_0_itlb_set 16
core_0_itlb_way 4
core_0_itlb_rq_size 16
core_0_itlb_wq_size 16
core_0_itlb_pq_size 0
core_0_itlb_mshr_size 8
core_0_itlb_hit_latency 1
core_0_itlb_fill_latency 1
core_0_itlb_max_tag_check 2
core_0_itlb_max_fill 2
core_0_dtlb_set 16
core_0_dtlb_way 4
core_0_dtlb_rq_size 16
core_0_dtlb_wq_size 16
core_0_dtlb_pq_size 0
core_0_dtlb_mshr_size 8
core_0_dtlb_hit_latency 1
core_0_dtlb_fill_latency 1
core_0_dtlb_max_tag_check 2
core_0_dtlb_max_fill 2
core_0_stlb_set 128
core_0_stlb_way 12
core_0_stlb_rq_size 32
core_0_stlb_wq_size 32
core_0_stlb_pq_size 0
core_0_stlb_mshr_size 16
core_0_stlb_hit_latency 4
core_0_stlb_fill_latency 4
core_0_stlb_max_tag_check 1
core_0_stlb_max_fill 1
core_0_l1i_set 64
core_0_l1i_way 8
core_0_l1i_rq_size 64
core_0_l1i_wq_size 64
core_0_l1i_pq_size 32
core_0_l1i_mshr_size 8
core_0_l1i_hit_latency 2
core_0_l1i_fill_latency 2
core_0_l1i_max_tag_check 2
core_0_l1i_max_fill 2
core_0_l1d_set 64
core_0_l1d_way 12
core_0_l1d_rq_size 64
core_0_l1d_wq_size 64
core_0_l1d_pq_size 8
core_0_l1d_mshr_size 16
core_0_l1d_hit_latency 2
core_0_l1d_fill_latency 3
core_0_l1d_max_tag_check 2
core_0_l1d_max_fill 2
core_0_l2c_set 1024
core_0_l2c_way 8
core_0_l2c_rq_size 32
core_0_l2c_wq_size 32
core_0_l2c_pq_size 16
core_0_l2c_mshr_size 32
core_0_l2c_hit_latency 5
core_0_l2c_fill_latency 5
core_0_l2c_max_tag_check 1
core_0_l2c_max_fill 1
llc_set 2048
llc_way 16
llc_rq_size 32
llc_wq_size 32
llc_pq_size 32
llc_mshr_size 64
llc_hit_latency 10
llc_fill_latency 10
llc_max_tag_check 1
llc_max_fill 1
dram_channels 1
dram_ranks 1
dram_bankgroups 8
dram_banks 4
dram_rows 65536
dram_columns 1024
dram_channel_width 8
dram_rq_size 64
dram_wq_size 64
dram_size 17179869184
core_0_itlb_prefetcher no
core_0_dtlb_prefetcher no
core_0_stlb_prefetcher no
core_0_l1i_prefetcher next_line
core_0_l1d_prefetcher vberti
core_0_l2c_prefetcher ip_stride
llc_prefetcher no
llc_replacement drrip

Core_0_instructions 100000001
Core_0_cycles 430439251
Core_0_IPC 0.232321
Core_0_branch_prediction_accuracy 81.6416
Core_0_branch_MPKI 37.8541
Core_0_average_ROB_occupancy_at_mispredict 11.8947

Core_0_ITLB_total_access 94
Core_0_ITLB_total_hit 94
Core_0_ITLB_total_miss 0
Core_0_ITLB_total_MPKI 0
Core_0_ITLB_total_miss_rate 0
Core_0_ITLB_demand_access 94
Core_0_ITLB_demand_hit 94
Core_0_ITLB_demand_miss 0
Core_0_ITLB_demand_MPKI 0
Core_0_ITLB_demand_miss_rate 0
Core_0_ITLB_load_access 94
Core_0_ITLB_load_hit 94
Core_0_ITLB_load_miss 0
Core_0_ITLB_load_MPKI 0
Core_0_ITLB_load_miss_rate 0
Core_0_ITLB_rfo_access 0
Core_0_ITLB_rfo_hit 0
Core_0_ITLB_rfo_miss 0
Core_0_ITLB_rfo_MPKI 0
Core_0_ITLB_rfo_miss_rate 0
Core_0_ITLB_prefetch_access 0
Core_0_ITLB_prefetch_hit 0
Core_0_ITLB_prefetch_miss 0
Core_0_ITLB_prefetch_MPKI 0
Core_0_ITLB_prefetch_miss_rate 0
Core_0_ITLB_writeback_access 0
Core_0_ITLB_writeback_hit 0
Core_0_ITLB_writeback_miss 0
Core_0_ITLB_writeback_MPKI 0
Core_0_ITLB_writeback_miss_rate 0
Core_0_ITLB_prefetch_requested 0
Core_0_ITLB_prefetch_issued 0
Core_0_ITLB_prefetch_useful 0
Core_0_ITLB_prefetch_useless 0
Core_0_ITLB_prefetch_late 0
Core_0_ITLB_prefetch_accuracy 0
Core_0_ITLB_prefetch_coverage 0
Core_0_ITLB_total_eviction 0

Core_0_DTLB_total_access 51520740
Core_0_DTLB_total_hit 50652807
Core_0_DTLB_total_miss 867933
Core_0_DTLB_total_MPKI 8.67933
Core_0_DTLB_total_miss_rate 0.0168463
Core_0_DTLB_demand_access 51520740
Core_0_DTLB_demand_hit 50652807
Core_0_DTLB_demand_miss 867933
Core_0_DTLB_demand_MPKI 8.67933
Core_0_DTLB_demand_miss_rate 0.0168463
Core_0_DTLB_load_access 51520740
Core_0_DTLB_load_hit 50652807
Core_0_DTLB_load_miss 867933
Core_0_DTLB_load_MPKI 8.67933
Core_0_DTLB_load_miss_rate 0.0168463
Core_0_DTLB_rfo_access 0
Core_0_DTLB_rfo_hit 0
Core_0_DTLB_rfo_miss 0
Core_0_DTLB_rfo_MPKI 0
Core_0_DTLB_rfo_miss_rate 0
Core_0_DTLB_prefetch_access 0
Core_0_DTLB_prefetch_hit 0
Core_0_DTLB_prefetch_miss 0
Core_0_DTLB_prefetch_MPKI 0
Core_0_DTLB_prefetch_miss_rate 0
Core_0_DTLB_writeback_access 0
Core_0_DTLB_writeback_hit 0
Core_0_DTLB_writeback_miss 0
Core_0_DTLB_writeback_MPKI 0
Core_0_DTLB_writeback_miss_rate 0
Core_0_DTLB_prefetch_requested 0
Core_0_DTLB_prefetch_issued 0
Core_0_DTLB_prefetch_useful 0
Core_0_DTLB_prefetch_useless 0
Core_0_DTLB_prefetch_late 0
Core_0_DTLB_prefetch_accuracy 0
Core_0_DTLB_prefetch_coverage 0
Core_0_DTLB_total_eviction 854698

Core_0_STLB_total_access 854698
Core_0_STLB_total_hit 651415
Core_0_STLB_total_miss 203283
Core_0_STLB_total_MPKI 2.03283
Core_0_STLB_total_miss_rate 0.237842
Core_0_STLB_demand_access 854698
Core_0_STLB_demand_hit 651415
Core_0_STLB_demand_miss 203283
Core_0_STLB_demand_MPKI 2.03283
Core_0_STLB_demand_miss_rate 0.237842
Core_0_STLB_load_access 854698
Core_0_STLB_load_hit 651415
Core_0_STLB_load_miss 203283
Core_0_STLB_load_MPKI 2.03283
Core_0_STLB_load_miss_rate 0.237842
Core_0_STLB_rfo_access 0
Core_0_STLB_rfo_hit 0
Core_0_STLB_rfo_miss 0
Core_0_STLB_rfo_MPKI 0
Core_0_STLB_rfo_miss_rate 0
Core_0_STLB_prefetch_access 0
Core_0_STLB_prefetch_hit 0
Core_0_STLB_prefetch_miss 0
Core_0_STLB_prefetch_MPKI 0
Core_0_STLB_prefetch_miss_rate 0
Core_0_STLB_writeback_access 0
Core_0_STLB_writeback_hit 0
Core_0_STLB_writeback_miss 0
Core_0_STLB_writeback_MPKI 0
Core_0_STLB_writeback_miss_rate 0
Core_0_STLB_prefetch_requested 0
Core_0_STLB_prefetch_issued 0
Core_0_STLB_prefetch_useful 0
Core_0_STLB_prefetch_useless 0
Core_0_STLB_prefetch_late 0
Core_0_STLB_prefetch_accuracy 0
Core_0_STLB_prefetch_coverage 0
Core_0_STLB_total_eviction 228232

Core_0_L1I_total_access 108
Core_0_L1I_total_hit 108
Core_0_L1I_total_miss 0
Core_0_L1I_total_MPKI 0
Core_0_L1I_total_miss_rate 0
Core_0_L1I_demand_access 108
Core_0_L1I_demand_hit 108
Core_0_L1I_demand_miss 0
Core_0_L1I_demand_MPKI 0
Core_0_L1I_demand_miss_rate 0
Core_0_L1I_load_access 108
Core_0_L1I_load_hit 108
Core_0_L1I_load_miss 0
Core_0_L1I_load_MPKI 0
Core_0_L1I_load_miss_rate 0
Core_0_L1I_rfo_access 0
Core_0_L1I_rfo_hit 0
Core_0_L1I_rfo_miss 0
Core_0_L1I_rfo_MPKI 0
Core_0_L1I_rfo_miss_rate 0
Core_0_L1I_prefetch_access 0
Core_0_L1I_prefetch_hit 0
Core_0_L1I_prefetch_miss 0
Core_0_L1I_prefetch_MPKI 0
Core_0_L1I_prefetch_miss_rate 0
Core_0_L1I_writeback_access 0
Core_0_L1I_writeback_hit 0
Core_0_L1I_writeback_miss 0
Core_0_L1I_writeback_MPKI 0
Core_0_L1I_writeback_miss_rate 0
Core_0_L1I_prefetch_requested 0
Core_0_L1I_prefetch_issued 0
Core_0_L1I_prefetch_useful 0
Core_0_L1I_prefetch_useless 0
Core_0_L1I_prefetch_late 0
Core_0_L1I_prefetch_accuracy 0
Core_0_L1I_prefetch_coverage 0
Core_0_L1I_total_eviction 0

Core_0_L1D_total_access 70614548
Core_0_L1D_total_hit 66176747
Core_0_L1D_total_miss 4437801
Core_0_L1D_total_MPKI 44.378
Core_0_L1D_total_miss_rate 0.0628454
Core_0_L1D_demand_access 18386278
Core_0_L1D_demand_hit 17004216
Core_0_L1D_demand_miss 1382062
Core_0_L1D_demand_MPKI 13.8206
Core_0_L1D_demand_miss_rate 0.0751681
Core_0_L1D_load_access 18386278
Core_0_L1D_load_hit 17004216
Core_0_L1D_load_miss 1382062
Core_0_L1D_load_MPKI 13.8206
Core_0_L1D_load_miss_rate 0.0751681
Core_0_L1D_rfo_access 0
Core_0_L1D_rfo_hit 0
Core_0_L1D_rfo_miss 0
Core_0_L1D_rfo_MPKI 0
Core_0_L1D_rfo_miss_rate 0
Core_0_L1D_prefetch_access 50514176
Core_0_L1D_prefetch_hit 47464999
Core_0_L1D_prefetch_miss 3049177
Core_0_L1D_prefetch_MPKI 30.4918
Core_0_L1D_prefetch_miss_rate 0.0603628
Core_0_L1D_writeback_access 1714094
Core_0_L1D_writeback_hit 1707532
Core_0_L1D_writeback_miss 6562
Core_0_L1D_writeback_MPKI 0.06562
Core_0_L1D_writeback_miss_rate 0.00382826
Core_0_L1D_prefetch_requested 145300708
Core_0_L1D_prefetch_issued 50514168
Core_0_L1D_prefetch_useful 1536942
Core_0_L1D_prefetch_useless 25938
Core_0_L1D_prefetch_late 454
Core_0_L1D_prefetch_accuracy 0.030426
Core_0_L1D_prefetch_coverage 0.52653
Core_0_L1D_total_eviction 3031984

Core_0_L2C_total_access 6326519
Core_0_L2C_total_hit 2981354
Core_0_L2C_total_miss 3345165
Core_0_L2C_total_MPKI 33.4516
Core_0_L2C_total_miss_rate 0.528753
Core_0_L2C_demand_access 1379934
Core_0_L2C_demand_hit 143777
Core_0_L2C_demand_miss 1236157
Core_0_L2C_demand_MPKI 12.3616
Core_0_L2C_demand_miss_rate 0.895809
Core_0_L2C_load_access 1376653
Core_0_L2C_load_hit 140496
Core_0_L2C_load_miss 1236157
Core_0_L2C_load_MPKI 12.3616
Core_0_L2C_load_miss_rate 0.897944
Core_0_L2C_rfo_access 3281
Core_0_L2C_rfo_hit 3281
Core_0_L2C_rfo_miss 0
Core_0_L2C_rfo_MPKI 0
Core_0_L2C_rfo_miss_rate 0
Core_0_L2C_prefetch_access 4583696
Core_0_L2C_prefetch_hit 2474891
Core_0_L2C_prefetch_miss 2108805
Core_0_L2C_prefetch_MPKI 21.088
Core_0_L2C_prefetch_miss_rate 0.460067
Core_0_L2C_writeback_access 362889
Core_0_L2C_writeback_hit 362686
Core_0_L2C_writeback_miss 203
Core_0_L2C_writeback_MPKI 0.00203
Core_0_L2C_writeback_miss_rate 0.0005594
Core_0_L2C_prefetch_requested 1534866
Core_0_L2C_prefetch_issued 1534866
Core_0_L2C_prefetch_useful 763980
Core_0_L2C_prefetch_useless 124952
Core_0_L2C_prefetch_late 63
Core_0_L2C_prefetch_accuracy 0.49775
Core_0_L2C_prefetch_coverage 0.381964
Core_0_L2C_total_eviction 2923205

Core_0_LLC_total_access 3234546
Core_0_LLC_total_hit 486309
Core_0_LLC_total_miss 2748237
Core_0_LLC_total_MPKI 27.4824
Core_0_LLC_total_miss_rate 0.849652
Core_0_LLC_demand_access 1236073
Core_0_LLC_demand_hit 168397
Core_0_LLC_demand_miss 1067676
Core_0_LLC_demand_MPKI 10.6768
Core_0_LLC_demand_miss_rate 0.863765
Core_0_LLC_load_access 1236073
Core_0_LLC_load_hit 168397
Core_0_LLC_load_miss 1067676
Core_0_LLC_load_MPKI 10.6768
Core_0_LLC_load_miss_rate 0.863765
Core_0_LLC_rfo_access 0
Core_0_LLC_rfo_hit 0
Core_0_LLC_rfo_miss 0
Core_0_LLC_rfo_MPKI 0
Core_0_LLC_rfo_miss_rate 0
Core_0_LLC_prefetch_access 1638898
Core_0_LLC_prefetch_hit 1524
Core_0_LLC_prefetch_miss 1637374
Core_0_LLC_prefetch_MPKI 16.3737
Core_0_LLC_prefetch_miss_rate 0.99907
Core_0_LLC_writeback_access 359575
Core_0_LLC_writeback_hit 316388
Core_0_LLC_writeback_miss 43187
Core_0_LLC_writeback_MPKI 0.43187
Core_0_LLC_writeback_miss_rate 0.120106
Core_0_LLC_prefetch_requested 0
Core_0_LLC_prefetch_issued 0
Core_0_LLC_prefetch_useful 0
Core_0_LLC_prefetch_useless 0
Core_0_LLC_prefetch_late 0
Core_0_LLC_prefetch_accuracy 0
Core_0_LLC_prefetch_coverage 0
Core_0_LLC_total_eviction 2768282

[DRAM Statistics]
Channel_0_RQ_row_buffer_hit 21343
Channel_0_RQ_row_buffer_miss 2703752
Channel_0_WQ_row_buffer_hit 133390
Channel_0_WQ_row_buffer_miss 226263
Channel_0_WQ_full 0
Channel_0_dbus_congested 7054489
DRAM_total_RQ_row_buffer_hit 21343
DRAM_total_RQ_row_buffer_miss 2703752
DRAM_total_WQ_row_buffer_hit 133390
DRAM_total_WQ_row_buffer_miss 226263
DRAM_total_WQ_full 0
DRAM_total_dbus_congested 7054489
DRAM_avg_congested_cycle 17.3976

======STLB miss causes ========
Core_0_STLB_miss_cause_breakdown
Core_0_STLB_cause_Demand_Data_miss 203283
Core_0_STLB_cause_Demand_Data_miss_rate 0.237842
Core_0_STLB_cause_Demand_Instruction_miss 0
Core_0_STLB_cause_Demand_Instruction_miss_rate 0
Core_0_STLB_cause_L1D_Prefetch_miss 0
Core_0_STLB_cause_L1D_Prefetch_miss_rate 0
Core_0_STLB_cause_L1I_Prefetch_miss 0
Core_0_STLB_cause_L1I_Prefetch_miss_rate 0
Core_0_STLB_cause_Other_miss 0
Core_0_STLB_cause_Other_miss_rate 0
Core_0_STLB_Demand_miss 203283
Core_0_STLB_Demand_miss_rate 0.237842
Core_0_STLB_L1D_Prefetch_miss 0
Core_0_STLB_L1D_Prefetch_miss_rate 0
Core_0_STLB_Other_miss 0
Core_0_STLB_Other_miss_rate 0
BERTI TO_L1: 171580521 TO_L2: 26179836 TO_L2_BC_MSHR: 89999
BERTI AVG_LAT: 101.671 NUM_TRACK_LATENCY: 4396568 NUM_CANT_TRACK_LATENCY: 0
BERTI CROSS_PAGE 21839070 NO_CROSS_PAGE: 175921287
BERTI FOUND_BERTI: 19367801 NO_FOUND_BERTI: 8121875
BERTI AVERAGE_ISSUED: 3.92142
