[VMEM] WARNING: physical memory size is smaller than virtual memory size.

*** ChampSim Multicore Out-of-Order Simulator ***
Warmup Instructions: 50000000
Simulation Instructions: 100000000
Number of CPUs: 1
Page size: 4096
STLB ideal mode: l1pref
STLB ideal fill: on
Core 0: /data2/zcq/champsim_traces_gap/bfs.urand-410B.champsimtrace.xz
VBerti Prefetcher
BERTI HASH ENTANGLING
BERTI IP MASK ffff
Off-chip DRAM Size: 16 GiB Channels: 1 Width: 64-bit Data Rate: 3205 MT/s
Warmup halting CPU 0 at instruction 50000003 cycle 14780413 for remainder of phase
Warmup finished CPU 0 instructions: 50000003 cycles: 14780413 cumulative IPC: 3.383 (Simulation time: 00 hr 03 min 32 sec)
Warmup complete CPU 0 instructions: 50000003 cycles: 14780413 cumulative IPC: 3.383 (Simulation time: 00 hr 03 min 32 sec)
Simulation finished CPU 0 instructions: 100000000 cycles: 549354531 cumulative IPC: 0.182 (Simulation time: 00 hr 39 min 22 sec)
Simulation complete CPU 0 instructions: 100000000 cycles: 549354531 cumulative IPC: 0.182 (Simulation time: 00 hr 39 min 22 sec)

ChampSim completed all CPUs

=== Simulation ===
CPU 0 runs /data2/zcq/champsim_traces_gap/bfs.urand-410B.champsimtrace.xz

Region of Interest Statistics

CPU 0 cumulative IPC: 0.182 instructions: 100000000 cycles: 549354531
CPU 0 Branch Prediction Accuracy: 84.21% MPKI: 27.61 Average ROB Occupancy at Mispredict: 15.83
Branch type MPKI
BRANCH_DIRECT_JUMP: 0
BRANCH_INDIRECT: 0
BRANCH_CONDITIONAL: 27.61
BRANCH_DIRECT_CALL: 0
BRANCH_INDIRECT_CALL: 0
BRANCH_RETURN: 0

cpu0->cpu0_STLB TOTAL        ACCESS:    5669911 HIT:    5310918 MISS:     358993 MSHR_MERGE:          0
cpu0->cpu0_STLB LOAD         ACCESS:    5669911 HIT:    5310918 MISS:     358993 MSHR_MERGE:          0
cpu0->cpu0_STLB RFO          ACCESS:          0 HIT:          0 MISS:          0 MSHR_MERGE:          0
cpu0->cpu0_STLB PREFETCH     ACCESS:          0 HIT:          0 MISS:          0 MSHR_MERGE:          0
cpu0->cpu0_STLB WRITE        ACCESS:          0 HIT:          0 MISS:          0 MSHR_MERGE:          0
cpu0->cpu0_STLB TRANSLATION  ACCESS:          0 HIT:          0 MISS:          0 MSHR_MERGE:          0
cpu0->cpu0_STLB PREFETCH REQUESTED:          0 ISSUED:          0 USEFUL:          0 USELESS:          0 LATE:          0
cpu0->cpu0_STLB AVERAGE MISS LATENCY: 31.67 cycles
cpu0->cpu0_L2C TOTAL        ACCESS:   24359008 HIT:   12508454 MISS:   11850554 MSHR_MERGE:     938538
cpu0->cpu0_L2C LOAD         ACCESS:    7902953 HIT:    1925932 MISS:    5977021 MSHR_MERGE:      65248
cpu0->cpu0_L2C RFO          ACCESS:       2694 HIT:       2474 MISS:        220 MSHR_MERGE:          0
cpu0->cpu0_L2C PREFETCH     ACCESS:   15953302 HIT:   10216671 MISS:    5736631 MSHR_MERGE:     873290
cpu0->cpu0_L2C WRITE        ACCESS:     183185 HIT:     180568 MISS:       2617 MSHR_MERGE:          0
cpu0->cpu0_L2C TRANSLATION  ACCESS:     316874 HIT:     182809 MISS:     134065 MSHR_MERGE:          0
cpu0->cpu0_L2C PREFETCH REQUESTED:    2442790 ISSUED:    2442790 USEFUL:     348487 USELESS:     162889 LATE:      12973
cpu0->cpu0_L2C AVERAGE MISS LATENCY: 132.8 cycles
cpu0->cpu0_L1I TOTAL        ACCESS:          2 HIT:          2 MISS:          0 MSHR_MERGE:          0
cpu0->cpu0_L1I LOAD         ACCESS:          2 HIT:          2 MISS:          0 MSHR_MERGE:          0
cpu0->cpu0_L1I RFO          ACCESS:          0 HIT:          0 MISS:          0 MSHR_MERGE:          0
cpu0->cpu0_L1I PREFETCH     ACCESS:          0 HIT:          0 MISS:          0 MSHR_MERGE:          0
cpu0->cpu0_L1I WRITE        ACCESS:          0 HIT:          0 MISS:          0 MSHR_MERGE:          0
cpu0->cpu0_L1I TRANSLATION  ACCESS:          0 HIT:          0 MISS:          0 MSHR_MERGE:          0
cpu0->cpu0_L1I PREFETCH REQUESTED:          0 ISSUED:          0 USEFUL:          0 USELESS:          0 LATE:          0
cpu0->cpu0_L1I AVERAGE MISS LATENCY: - cycles
cpu0->cpu0_L1D TOTAL        ACCESS:   70643875 HIT:   44830720 MISS:   25813155 MSHR_MERGE:    3445634
cpu0->cpu0_L1D LOAD         ACCESS:   26117687 HIT:   14775957 MISS:   11341730 MSHR_MERGE:    3438777
cpu0->cpu0_L1D RFO          ACCESS:          0 HIT:          0 MISS:          0 MSHR_MERGE:          0
cpu0->cpu0_L1D PREFETCH     ACCESS:   38184035 HIT:   24037351 MISS:   14146684 MSHR_MERGE:       1684
cpu0->cpu0_L1D WRITE        ACCESS:    5627165 HIT:    5621777 MISS:       5388 MSHR_MERGE:       2694
cpu0->cpu0_L1D TRANSLATION  ACCESS:     714988 HIT:     395635 MISS:     319353 MSHR_MERGE:       2479
cpu0->cpu0_L1D PREFETCH REQUESTED:   55260447 ISSUED:   38184027 USEFUL:     684011 USELESS:     228117 LATE:       5939
cpu0->cpu0_L1D AVERAGE MISS LATENCY: 107.6 cycles
cpu0->cpu0_ITLB TOTAL        ACCESS:          2 HIT:          2 MISS:          0 MSHR_MERGE:          0
cpu0->cpu0_ITLB LOAD         ACCESS:          2 HIT:          2 MISS:          0 MSHR_MERGE:          0
cpu0->cpu0_ITLB RFO          ACCESS:          0 HIT:          0 MISS:          0 MSHR_MERGE:          0
cpu0->cpu0_ITLB PREFETCH     ACCESS:          0 HIT:          0 MISS:          0 MSHR_MERGE:          0
cpu0->cpu0_ITLB WRITE        ACCESS:          0 HIT:          0 MISS:          0 MSHR_MERGE:          0
cpu0->cpu0_ITLB TRANSLATION  ACCESS:          0 HIT:          0 MISS:          0 MSHR_MERGE:          0
cpu0->cpu0_ITLB PREFETCH REQUESTED:          0 ISSUED:          0 USEFUL:          0 USELESS:          0 LATE:          0
cpu0->cpu0_ITLB AVERAGE MISS LATENCY: - cycles
cpu0->cpu0_DTLB TOTAL        ACCESS:   56077384 HIT:   50331058 MISS:    5746326 MSHR_MERGE:      76415
cpu0->cpu0_DTLB LOAD         ACCESS:   56077384 HIT:   50331058 MISS:    5746326 MSHR_MERGE:      76415
cpu0->cpu0_DTLB RFO          ACCESS:          0 HIT:          0 MISS:          0 MSHR_MERGE:          0
cpu0->cpu0_DTLB PREFETCH     ACCESS:          0 HIT:          0 MISS:          0 MSHR_MERGE:          0
cpu0->cpu0_DTLB WRITE        ACCESS:          0 HIT:          0 MISS:          0 MSHR_MERGE:          0
cpu0->cpu0_DTLB TRANSLATION  ACCESS:          0 HIT:          0 MISS:          0 MSHR_MERGE:          0
cpu0->cpu0_DTLB PREFETCH REQUESTED:          0 ISSUED:          0 USEFUL:          0 USELESS:          0 LATE:          0
cpu0->cpu0_DTLB AVERAGE MISS LATENCY: 7.165 cycles
cpu0->LLC TOTAL        ACCESS:   11087549 HIT:    2969606 MISS:    8117943 MSHR_MERGE:         42
cpu0->LLC LOAD         ACCESS:    5911773 HIT:    2810007 MISS:    3101766 MSHR_MERGE:          0
cpu0->LLC RFO          ACCESS:        220 HIT:        220 MISS:          0 MSHR_MERGE:          0
cpu0->LLC PREFETCH     ACCESS:    4863341 HIT:       1339 MISS:    4862002 MSHR_MERGE:         42
cpu0->LLC WRITE        ACCESS:     178150 HIT:      31636 MISS:     146514 MSHR_MERGE:          0
cpu0->LLC TRANSLATION  ACCESS:     134065 HIT:     126404 MISS:       7661 MSHR_MERGE:          0
cpu0->LLC PREFETCH REQUESTED:          0 ISSUED:          0 USEFUL:          0 USELESS:          0 LATE:          0
cpu0->LLC AVERAGE MISS LATENCY: 219 cycles

DRAM Statistics

Channel 0 RQ ROW_BUFFER_HIT:     809423
  ROW_BUFFER_MISS:    7161964
  AVG DBUS CONGESTED CYCLE: 15.22
Channel 0 WQ ROW_BUFFER_HIT:      55062
  ROW_BUFFER_MISS:     122941
  FULL:          0
Channel 0 REFRESHES ISSUED:      45780

[ROI Statistics]
[System Configuration]
num_cpus 1
cpu_freq 4000
fetch_width 6
decode_width 6
dispatch_width 6
execute_width 6
lq_width 2
sq_width 2
retire_width 6
scheduler_size 128
branch_mispredict_penalty 15
rob_size 352
lq_size 128
sq_size 72
ifetch_buffer_size 64
decode_buffer_size 32
dispatch_buffer_size 32
register_file_size 288
decode_latency 1
dispatch_latency 1
schedule_latency 1
execute_latency 1
page_size 4096
block_size 64
core_0_itlb_set 16
core_0_itlb_way 4
core_0_itlb_rq_size 16
core_0_itlb_wq_size 16
core_0_itlb_pq_size 0
core_0_itlb_mshr_size 8
core_0_itlb_hit_latency 1
core_0_itlb_fill_latency 1
core_0_itlb_max_tag_check 2
core_0_itlb_max_fill 2
core_0_dtlb_set 16
core_0_dtlb_way 4
core_0_dtlb_rq_size 16
core_0_dtlb_wq_size 16
core_0_dtlb_pq_size 0
core_0_dtlb_mshr_size 8
core_0_dtlb_hit_latency 1
core_0_dtlb_fill_latency 1
core_0_dtlb_max_tag_check 2
core_0_dtlb_max_fill 2
core_0_stlb_set 128
core_0_stlb_way 12
core_0_stlb_rq_size 32
core_0_stlb_wq_size 32
core_0_stlb_pq_size 0
core_0_stlb_mshr_size 16
core_0_stlb_hit_latency 4
core_0_stlb_fill_latency 4
core_0_stlb_max_tag_check 1
core_0_stlb_max_fill 1
core_0_l1i_set 64
core_0_l1i_way 8
core_0_l1i_rq_size 64
core_0_l1i_wq_size 64
core_0_l1i_pq_size 32
core_0_l1i_mshr_size 8
core_0_l1i_hit_latency 2
core_0_l1i_fill_latency 2
core_0_l1i_max_tag_check 2
core_0_l1i_max_fill 2
core_0_l1d_set 64
core_0_l1d_way 12
core_0_l1d_rq_size 64
core_0_l1d_wq_size 64
core_0_l1d_pq_size 8
core_0_l1d_mshr_size 16
core_0_l1d_hit_latency 2
core_0_l1d_fill_latency 3
core_0_l1d_max_tag_check 2
core_0_l1d_max_fill 2
core_0_l2c_set 1024
core_0_l2c_way 8
core_0_l2c_rq_size 32
core_0_l2c_wq_size 32
core_0_l2c_pq_size 16
core_0_l2c_mshr_size 32
core_0_l2c_hit_latency 5
core_0_l2c_fill_latency 5
core_0_l2c_max_tag_check 1
core_0_l2c_max_fill 1
llc_set 2048
llc_way 16
llc_rq_size 32
llc_wq_size 32
llc_pq_size 32
llc_mshr_size 64
llc_hit_latency 10
llc_fill_latency 10
llc_max_tag_check 1
llc_max_fill 1
dram_channels 1
dram_ranks 1
dram_bankgroups 8
dram_banks 4
dram_rows 65536
dram_columns 1024
dram_channel_width 8
dram_rq_size 64
dram_wq_size 64
dram_size 17179869184
core_0_itlb_prefetcher no
core_0_dtlb_prefetcher no
core_0_stlb_prefetcher no
core_0_l1i_prefetcher next_line
core_0_l1d_prefetcher vberti
core_0_l2c_prefetcher ip_stride
llc_prefetcher no
llc_replacement drrip

Core_0_instructions 100000000
Core_0_cycles 549354531
Core_0_IPC 0.182032
Core_0_branch_prediction_accuracy 84.2139
Core_0_branch_MPKI 27.6125
Core_0_average_ROB_occupancy_at_mispredict 15.8254

Core_0_ITLB_total_access 2
Core_0_ITLB_total_hit 2
Core_0_ITLB_total_miss 0
Core_0_ITLB_total_MPKI 0
Core_0_ITLB_total_miss_rate 0
Core_0_ITLB_demand_access 2
Core_0_ITLB_demand_hit 2
Core_0_ITLB_demand_miss 0
Core_0_ITLB_demand_MPKI 0
Core_0_ITLB_demand_miss_rate 0
Core_0_ITLB_load_access 2
Core_0_ITLB_load_hit 2
Core_0_ITLB_load_miss 0
Core_0_ITLB_load_MPKI 0
Core_0_ITLB_load_miss_rate 0
Core_0_ITLB_rfo_access 0
Core_0_ITLB_rfo_hit 0
Core_0_ITLB_rfo_miss 0
Core_0_ITLB_rfo_MPKI 0
Core_0_ITLB_rfo_miss_rate 0
Core_0_ITLB_prefetch_access 0
Core_0_ITLB_prefetch_hit 0
Core_0_ITLB_prefetch_miss 0
Core_0_ITLB_prefetch_MPKI 0
Core_0_ITLB_prefetch_miss_rate 0
Core_0_ITLB_writeback_access 0
Core_0_ITLB_writeback_hit 0
Core_0_ITLB_writeback_miss 0
Core_0_ITLB_writeback_MPKI 0
Core_0_ITLB_writeback_miss_rate 0
Core_0_ITLB_prefetch_requested 0
Core_0_ITLB_prefetch_issued 0
Core_0_ITLB_prefetch_useful 0
Core_0_ITLB_prefetch_useless 0
Core_0_ITLB_prefetch_late 0
Core_0_ITLB_prefetch_accuracy 0
Core_0_ITLB_prefetch_coverage 0
Core_0_ITLB_total_eviction 0

Core_0_DTLB_total_access 56077384
Core_0_DTLB_total_hit 50331058
Core_0_DTLB_total_miss 5746326
Core_0_DTLB_total_MPKI 57.4633
Core_0_DTLB_total_miss_rate 0.102471
Core_0_DTLB_demand_access 56077384
Core_0_DTLB_demand_hit 50331058
Core_0_DTLB_demand_miss 5746326
Core_0_DTLB_demand_MPKI 57.4633
Core_0_DTLB_demand_miss_rate 0.102471
Core_0_DTLB_load_access 56077384
Core_0_DTLB_load_hit 50331058
Core_0_DTLB_load_miss 5746326
Core_0_DTLB_load_MPKI 57.4633
Core_0_DTLB_load_miss_rate 0.102471
Core_0_DTLB_rfo_access 0
Core_0_DTLB_rfo_hit 0
Core_0_DTLB_rfo_miss 0
Core_0_DTLB_rfo_MPKI 0
Core_0_DTLB_rfo_miss_rate 0
Core_0_DTLB_prefetch_access 0
Core_0_DTLB_prefetch_hit 0
Core_0_DTLB_prefetch_miss 0
Core_0_DTLB_prefetch_MPKI 0
Core_0_DTLB_prefetch_miss_rate 0
Core_0_DTLB_writeback_access 0
Core_0_DTLB_writeback_hit 0
Core_0_DTLB_writeback_miss 0
Core_0_DTLB_writeback_MPKI 0
Core_0_DTLB_writeback_miss_rate 0
Core_0_DTLB_prefetch_requested 0
Core_0_DTLB_prefetch_issued 0
Core_0_DTLB_prefetch_useful 0
Core_0_DTLB_prefetch_useless 0
Core_0_DTLB_prefetch_late 0
Core_0_DTLB_prefetch_accuracy 0
Core_0_DTLB_prefetch_coverage 0
Core_0_DTLB_total_eviction 5669911

Core_0_STLB_total_access 5669911
Core_0_STLB_total_hit 5310918
Core_0_STLB_total_miss 358993
Core_0_STLB_total_MPKI 3.58993
Core_0_STLB_total_miss_rate 0.0633155
Core_0_STLB_demand_access 5669911
Core_0_STLB_demand_hit 5310918
Core_0_STLB_demand_miss 358993
Core_0_STLB_demand_MPKI 3.58993
Core_0_STLB_demand_miss_rate 0.0633155
Core_0_STLB_load_access 5669911
Core_0_STLB_load_hit 5310918
Core_0_STLB_load_miss 358993
Core_0_STLB_load_MPKI 3.58993
Core_0_STLB_load_miss_rate 0.0633155
Core_0_STLB_rfo_access 0
Core_0_STLB_rfo_hit 0
Core_0_STLB_rfo_miss 0
Core_0_STLB_rfo_MPKI 0
Core_0_STLB_rfo_miss_rate 0
Core_0_STLB_prefetch_access 0
Core_0_STLB_prefetch_hit 0
Core_0_STLB_prefetch_miss 0
Core_0_STLB_prefetch_MPKI 0
Core_0_STLB_prefetch_miss_rate 0
Core_0_STLB_writeback_access 0
Core_0_STLB_writeback_hit 0
Core_0_STLB_writeback_miss 0
Core_0_STLB_writeback_MPKI 0
Core_0_STLB_writeback_miss_rate 0
Core_0_STLB_prefetch_requested 0
Core_0_STLB_prefetch_issued 0
Core_0_STLB_prefetch_useful 0
Core_0_STLB_prefetch_useless 0
Core_0_STLB_prefetch_late 0
Core_0_STLB_prefetch_accuracy 0
Core_0_STLB_prefetch_coverage 0
Core_0_STLB_total_eviction 453194

Core_0_L1I_total_access 2
Core_0_L1I_total_hit 2
Core_0_L1I_total_miss 0
Core_0_L1I_total_MPKI 0
Core_0_L1I_total_miss_rate 0
Core_0_L1I_demand_access 2
Core_0_L1I_demand_hit 2
Core_0_L1I_demand_miss 0
Core_0_L1I_demand_MPKI 0
Core_0_L1I_demand_miss_rate 0
Core_0_L1I_load_access 2
Core_0_L1I_load_hit 2
Core_0_L1I_load_miss 0
Core_0_L1I_load_MPKI 0
Core_0_L1I_load_miss_rate 0
Core_0_L1I_rfo_access 0
Core_0_L1I_rfo_hit 0
Core_0_L1I_rfo_miss 0
Core_0_L1I_rfo_MPKI 0
Core_0_L1I_rfo_miss_rate 0
Core_0_L1I_prefetch_access 0
Core_0_L1I_prefetch_hit 0
Core_0_L1I_prefetch_miss 0
Core_0_L1I_prefetch_MPKI 0
Core_0_L1I_prefetch_miss_rate 0
Core_0_L1I_writeback_access 0
Core_0_L1I_writeback_hit 0
Core_0_L1I_writeback_miss 0
Core_0_L1I_writeback_MPKI 0
Core_0_L1I_writeback_miss_rate 0
Core_0_L1I_prefetch_requested 0
Core_0_L1I_prefetch_issued 0
Core_0_L1I_prefetch_useful 0
Core_0_L1I_prefetch_useless 0
Core_0_L1I_prefetch_late 0
Core_0_L1I_prefetch_accuracy 0
Core_0_L1I_prefetch_coverage 0
Core_0_L1I_total_eviction 0

Core_0_L1D_total_access 69928887
Core_0_L1D_total_hit 44435085
Core_0_L1D_total_miss 25493802
Core_0_L1D_total_MPKI 254.938
Core_0_L1D_total_miss_rate 0.364568
Core_0_L1D_demand_access 26117687
Core_0_L1D_demand_hit 14775957
Core_0_L1D_demand_miss 11341730
Core_0_L1D_demand_MPKI 113.417
Core_0_L1D_demand_miss_rate 0.434255
Core_0_L1D_load_access 26117687
Core_0_L1D_load_hit 14775957
Core_0_L1D_load_miss 11341730
Core_0_L1D_load_MPKI 113.417
Core_0_L1D_load_miss_rate 0.434255
Core_0_L1D_rfo_access 0
Core_0_L1D_rfo_hit 0
Core_0_L1D_rfo_miss 0
Core_0_L1D_rfo_MPKI 0
Core_0_L1D_rfo_miss_rate 0
Core_0_L1D_prefetch_access 38184035
Core_0_L1D_prefetch_hit 24037351
Core_0_L1D_prefetch_miss 14146684
Core_0_L1D_prefetch_MPKI 141.467
Core_0_L1D_prefetch_miss_rate 0.370487
Core_0_L1D_writeback_access 5627165
Core_0_L1D_writeback_hit 5621777
Core_0_L1D_writeback_miss 5388
Core_0_L1D_writeback_MPKI 0.05388
Core_0_L1D_writeback_miss_rate 0.000957498
Core_0_L1D_prefetch_requested 55260447
Core_0_L1D_prefetch_issued 38184027
Core_0_L1D_prefetch_useful 684011
Core_0_L1D_prefetch_useless 228117
Core_0_L1D_prefetch_late 5939
Core_0_L1D_prefetch_accuracy 0.0179135
Core_0_L1D_prefetch_coverage 0.0568789
Core_0_L1D_total_eviction 9134667

Core_0_L2C_total_access 24042134
Core_0_L2C_total_hit 12325645
Core_0_L2C_total_miss 11716489
Core_0_L2C_total_MPKI 117.165
Core_0_L2C_total_miss_rate 0.487331
Core_0_L2C_demand_access 7905647
Core_0_L2C_demand_hit 1928406
Core_0_L2C_demand_miss 5977241
Core_0_L2C_demand_MPKI 59.7724
Core_0_L2C_demand_miss_rate 0.756072
Core_0_L2C_load_access 7902953
Core_0_L2C_load_hit 1925932
Core_0_L2C_load_miss 5977021
Core_0_L2C_load_MPKI 59.7702
Core_0_L2C_load_miss_rate 0.756302
Core_0_L2C_rfo_access 2694
Core_0_L2C_rfo_hit 2474
Core_0_L2C_rfo_miss 220
Core_0_L2C_rfo_MPKI 0.0022
Core_0_L2C_rfo_miss_rate 0.081663
Core_0_L2C_prefetch_access 15953302
Core_0_L2C_prefetch_hit 10216671
Core_0_L2C_prefetch_miss 5736631
Core_0_L2C_prefetch_MPKI 57.3663
Core_0_L2C_prefetch_miss_rate 0.359589
Core_0_L2C_writeback_access 183185
Core_0_L2C_writeback_hit 180568
Core_0_L2C_writeback_miss 2617
Core_0_L2C_writeback_MPKI 0.02617
Core_0_L2C_writeback_miss_rate 0.0142861
Core_0_L2C_prefetch_requested 2442790
Core_0_L2C_prefetch_issued 2442790
Core_0_L2C_prefetch_useful 348487
Core_0_L2C_prefetch_useless 162889
Core_0_L2C_prefetch_late 12973
Core_0_L2C_prefetch_accuracy 0.142659
Core_0_L2C_prefetch_coverage 0.0550904
Core_0_L2C_total_eviction 10910989

Core_0_LLC_total_access 10953484
Core_0_LLC_total_hit 2843202
Core_0_LLC_total_miss 8110282
Core_0_LLC_total_MPKI 81.1028
Core_0_LLC_total_miss_rate 0.740429
Core_0_LLC_demand_access 5911993
Core_0_LLC_demand_hit 2810227
Core_0_LLC_demand_miss 3101766
Core_0_LLC_demand_MPKI 31.0177
Core_0_LLC_demand_miss_rate 0.524657
Core_0_LLC_load_access 5911773
Core_0_LLC_load_hit 2810007
Core_0_LLC_load_miss 3101766
Core_0_LLC_load_MPKI 31.0177
Core_0_LLC_load_miss_rate 0.524676
Core_0_LLC_rfo_access 220
Core_0_LLC_rfo_hit 220
Core_0_LLC_rfo_miss 0
Core_0_LLC_rfo_MPKI 0
Core_0_LLC_rfo_miss_rate 0
Core_0_LLC_prefetch_access 4863341
Core_0_LLC_prefetch_hit 1339
Core_0_LLC_prefetch_miss 4862002
Core_0_LLC_prefetch_MPKI 48.62
Core_0_LLC_prefetch_miss_rate 0.999725
Core_0_LLC_writeback_access 178150
Core_0_LLC_writeback_hit 31636
Core_0_LLC_writeback_miss 146514
Core_0_LLC_writeback_MPKI 1.46514
Core_0_LLC_writeback_miss_rate 0.822419
Core_0_LLC_prefetch_requested 0
Core_0_LLC_prefetch_issued 0
Core_0_LLC_prefetch_useful 0
Core_0_LLC_prefetch_useless 0
Core_0_LLC_prefetch_late 0
Core_0_LLC_prefetch_accuracy 0
Core_0_LLC_prefetch_coverage 0
Core_0_LLC_total_eviction 8117901

[DRAM Statistics]
Channel_0_RQ_row_buffer_hit 809423
Channel_0_RQ_row_buffer_miss 7161964
Channel_0_WQ_row_buffer_hit 55062
Channel_0_WQ_row_buffer_miss 122941
Channel_0_WQ_full 0
Channel_0_dbus_congested 22263838
DRAM_total_RQ_row_buffer_hit 809423
DRAM_total_RQ_row_buffer_miss 7161964
DRAM_total_WQ_row_buffer_hit 55062
DRAM_total_WQ_row_buffer_miss 122941
DRAM_total_WQ_full 0
DRAM_total_dbus_congested 22263838
DRAM_avg_congested_cycle 15.2212

======STLB miss causes ========
Core_0_STLB_miss_cause_breakdown
Core_0_STLB_cause_Demand_Data_miss 358993
Core_0_STLB_cause_Demand_Data_miss_rate 0.0633155
Core_0_STLB_cause_Demand_Instruction_miss 0
Core_0_STLB_cause_Demand_Instruction_miss_rate 0
Core_0_STLB_cause_L1D_Prefetch_miss 0
Core_0_STLB_cause_L1D_Prefetch_miss_rate 0
Core_0_STLB_cause_L1I_Prefetch_miss 0
Core_0_STLB_cause_L1I_Prefetch_miss_rate 0
Core_0_STLB_cause_Other_miss 0
Core_0_STLB_cause_Other_miss_rate 0
Core_0_STLB_Demand_miss 358993
Core_0_STLB_Demand_miss_rate 0.0633155
Core_0_STLB_L1D_Prefetch_miss 0
Core_0_STLB_L1D_Prefetch_miss_rate 0
Core_0_STLB_Other_miss 0
Core_0_STLB_Other_miss_rate 0
BERTI TO_L1: 25577099 TO_L2: 40734054 TO_L2_BC_MSHR: 164
BERTI AVG_LAT: 76.6567 NUM_TRACK_LATENCY: 13125369 NUM_CANT_TRACK_LATENCY: 0
BERTI CROSS_PAGE 9923348 NO_CROSS_PAGE: 56387805
BERTI FOUND_BERTI: 26750382 NO_FOUND_BERTI: 13908948
BERTI AVERAGE_ISSUED: 2.95636
