[VMEM] WARNING: physical memory size is smaller than virtual memory size.

*** ChampSim Multicore Out-of-Order Simulator ***
Warmup Instructions: 50000000
Simulation Instructions: 100000000
Number of CPUs: 1
Page size: 4096
STLB ideal mode: l1pref
STLB ideal fill: on
Core 0: /data2/zcq/champsim_traces_gap/cc.twitter-25B.champsimtrace.xz
VBerti Prefetcher
BERTI HASH ENTANGLING
BERTI IP MASK ffff
Off-chip DRAM Size: 16 GiB Channels: 1 Width: 64-bit Data Rate: 3205 MT/s
Warmup halting CPU 0 at instruction 50000000 cycle 15738631 for remainder of phase
Warmup finished CPU 0 instructions: 50000000 cycles: 15738631 cumulative IPC: 3.177 (Simulation time: 00 hr 03 min 16 sec)
Warmup complete CPU 0 instructions: 50000000 cycles: 15738631 cumulative IPC: 3.177 (Simulation time: 00 hr 03 min 16 sec)
Simulation finished CPU 0 instructions: 100000003 cycles: 427605205 cumulative IPC: 0.2339 (Simulation time: 00 hr 31 min 47 sec)
Simulation complete CPU 0 instructions: 100000003 cycles: 427605205 cumulative IPC: 0.2339 (Simulation time: 00 hr 31 min 47 sec)

ChampSim completed all CPUs

=== Simulation ===
CPU 0 runs /data2/zcq/champsim_traces_gap/cc.twitter-25B.champsimtrace.xz

Region of Interest Statistics

CPU 0 cumulative IPC: 0.2339 instructions: 100000003 cycles: 427605205
CPU 0 Branch Prediction Accuracy: 87.49% MPKI: 20.12 Average ROB Occupancy at Mispredict: 24.23
Branch type MPKI
BRANCH_DIRECT_JUMP: 0
BRANCH_INDIRECT: 0
BRANCH_CONDITIONAL: 20.12
BRANCH_DIRECT_CALL: 0
BRANCH_INDIRECT_CALL: 0
BRANCH_RETURN: 0

cpu0->cpu0_STLB TOTAL        ACCESS:    1892885 HIT:     503478 MISS:    1389407 MSHR_MERGE:          0
cpu0->cpu0_STLB LOAD         ACCESS:    1892885 HIT:     503478 MISS:    1389407 MSHR_MERGE:          0
cpu0->cpu0_STLB RFO          ACCESS:          0 HIT:          0 MISS:          0 MSHR_MERGE:          0
cpu0->cpu0_STLB PREFETCH     ACCESS:          0 HIT:          0 MISS:          0 MSHR_MERGE:          0
cpu0->cpu0_STLB WRITE        ACCESS:          0 HIT:          0 MISS:          0 MSHR_MERGE:          0
cpu0->cpu0_STLB TRANSLATION  ACCESS:          0 HIT:          0 MISS:          0 MSHR_MERGE:          0
cpu0->cpu0_STLB PREFETCH REQUESTED:          0 ISSUED:          0 USEFUL:          0 USELESS:          0 LATE:          0
cpu0->cpu0_STLB AVERAGE MISS LATENCY: 42.41 cycles
cpu0->cpu0_L2C TOTAL        ACCESS:   13393593 HIT:    6255956 MISS:    7137637 MSHR_MERGE:    1171174
cpu0->cpu0_L2C LOAD         ACCESS:    2240839 HIT:     608538 MISS:    1632301 MSHR_MERGE:      12349
cpu0->cpu0_L2C RFO          ACCESS:          0 HIT:          0 MISS:          0 MSHR_MERGE:          0
cpu0->cpu0_L2C PREFETCH     ACCESS:    9783127 HIT:    5216507 MISS:    4566620 MSHR_MERGE:    1158825
cpu0->cpu0_L2C WRITE        ACCESS:      23578 HIT:      23570 MISS:          8 MSHR_MERGE:          0
cpu0->cpu0_L2C TRANSLATION  ACCESS:    1346049 HIT:     407341 MISS:     938708 MSHR_MERGE:          0
cpu0->cpu0_L2C PREFETCH REQUESTED:    3333048 ISSUED:    3333028 USEFUL:     911007 USELESS:     180980 LATE:       5990
cpu0->cpu0_L2C AVERAGE MISS LATENCY: 140.7 cycles
cpu0->cpu0_L1I TOTAL        ACCESS:     285305 HIT:     285305 MISS:          0 MSHR_MERGE:          0
cpu0->cpu0_L1I LOAD         ACCESS:     285305 HIT:     285305 MISS:          0 MSHR_MERGE:          0
cpu0->cpu0_L1I RFO          ACCESS:          0 HIT:          0 MISS:          0 MSHR_MERGE:          0
cpu0->cpu0_L1I PREFETCH     ACCESS:          0 HIT:          0 MISS:          0 MSHR_MERGE:          0
cpu0->cpu0_L1I WRITE        ACCESS:          0 HIT:          0 MISS:          0 MSHR_MERGE:          0
cpu0->cpu0_L1I TRANSLATION  ACCESS:          0 HIT:          0 MISS:          0 MSHR_MERGE:          0
cpu0->cpu0_L1I PREFETCH REQUESTED:          0 ISSUED:          0 USEFUL:          0 USELESS:          0 LATE:          0
cpu0->cpu0_L1I AVERAGE MISS LATENCY: - cycles
cpu0->cpu0_L1D TOTAL        ACCESS:   66255708 HIT:   55985798 MISS:   10269910 MSHR_MERGE:     210170
cpu0->cpu0_L1D LOAD         ACCESS:   27845158 HIT:   25449188 MISS:    2395970 MSHR_MERGE:     155131
cpu0->cpu0_L1D RFO          ACCESS:          0 HIT:          0 MISS:          0 MSHR_MERGE:          0
cpu0->cpu0_L1D PREFETCH     ACCESS:   34813219 HIT:   28285451 MISS:    6527768 MSHR_MERGE:      54916
cpu0->cpu0_L1D WRITE        ACCESS:      23895 HIT:      23895 MISS:          0 MSHR_MERGE:          0
cpu0->cpu0_L1D TRANSLATION  ACCESS:    3573436 HIT:    2227264 MISS:    1346172 MSHR_MERGE:        123
cpu0->cpu0_L1D PREFETCH REQUESTED:  124807025 ISSUED:   34813212 USEFUL:    1942338 USELESS:     743171 LATE:      10111
cpu0->cpu0_L1D AVERAGE MISS LATENCY: 109.5 cycles
cpu0->cpu0_ITLB TOTAL        ACCESS:     228117 HIT:     228117 MISS:          0 MSHR_MERGE:          0
cpu0->cpu0_ITLB LOAD         ACCESS:     228117 HIT:     228117 MISS:          0 MSHR_MERGE:          0
cpu0->cpu0_ITLB RFO          ACCESS:          0 HIT:          0 MISS:          0 MSHR_MERGE:          0
cpu0->cpu0_ITLB PREFETCH     ACCESS:          0 HIT:          0 MISS:          0 MSHR_MERGE:          0
cpu0->cpu0_ITLB WRITE        ACCESS:          0 HIT:          0 MISS:          0 MSHR_MERGE:          0
cpu0->cpu0_ITLB TRANSLATION  ACCESS:          0 HIT:          0 MISS:          0 MSHR_MERGE:          0
cpu0->cpu0_ITLB PREFETCH REQUESTED:          0 ISSUED:          0 USEFUL:          0 USELESS:          0 LATE:          0
cpu0->cpu0_ITLB AVERAGE MISS LATENCY: - cycles
cpu0->cpu0_DTLB TOTAL        ACCESS:   50317119 HIT:   48374858 MISS:    1942261 MSHR_MERGE:      49376
cpu0->cpu0_DTLB LOAD         ACCESS:   50317119 HIT:   48374858 MISS:    1942261 MSHR_MERGE:      49376
cpu0->cpu0_DTLB RFO          ACCESS:          0 HIT:          0 MISS:          0 MSHR_MERGE:          0
cpu0->cpu0_DTLB PREFETCH     ACCESS:          0 HIT:          0 MISS:          0 MSHR_MERGE:          0
cpu0->cpu0_DTLB WRITE        ACCESS:          0 HIT:          0 MISS:          0 MSHR_MERGE:          0
cpu0->cpu0_DTLB TRANSLATION  ACCESS:          0 HIT:          0 MISS:          0 MSHR_MERGE:          0
cpu0->cpu0_DTLB PREFETCH REQUESTED:          0 ISSUED:          0 USEFUL:          0 USELESS:          0 LATE:          0
cpu0->cpu0_DTLB AVERAGE MISS LATENCY: 36.87 cycles
cpu0->LLC TOTAL        ACCESS:    5990007 HIT:    1074558 MISS:    4915449 MSHR_MERGE:       4304
cpu0->LLC LOAD         ACCESS:    1619952 HIT:     173448 MISS:    1446504 MSHR_MERGE:         10
cpu0->LLC RFO          ACCESS:          0 HIT:          0 MISS:          0 MSHR_MERGE:          0
cpu0->LLC PREFETCH     ACCESS:    3407795 HIT:      10371 MISS:    3397424 MSHR_MERGE:       4294
cpu0->LLC WRITE        ACCESS:      23552 HIT:       4206 MISS:      19346 MSHR_MERGE:          0
cpu0->LLC TRANSLATION  ACCESS:     938708 HIT:     886533 MISS:      52175 MSHR_MERGE:          0
cpu0->LLC PREFETCH REQUESTED:          0 ISSUED:          0 USEFUL:          0 USELESS:          0 LATE:          0
cpu0->LLC AVERAGE MISS LATENCY: 211 cycles

DRAM Statistics

Channel 0 RQ ROW_BUFFER_HIT:     377098
  ROW_BUFFER_MISS:    4514701
  AVG DBUS CONGESTED CYCLE: 5.796
Channel 0 WQ ROW_BUFFER_HIT:       6322
  ROW_BUFFER_MISS:      17615
  FULL:          0
Channel 0 REFRESHES ISSUED:      35634

[ROI Statistics]
[System Configuration]
num_cpus 1
cpu_freq 4000
fetch_width 6
decode_width 6
dispatch_width 6
execute_width 6
lq_width 2
sq_width 2
retire_width 6
scheduler_size 128
branch_mispredict_penalty 15
rob_size 352
lq_size 128
sq_size 72
ifetch_buffer_size 64
decode_buffer_size 32
dispatch_buffer_size 32
register_file_size 288
decode_latency 1
dispatch_latency 1
schedule_latency 1
execute_latency 1
page_size 4096
block_size 64
core_0_itlb_set 16
core_0_itlb_way 4
core_0_itlb_rq_size 16
core_0_itlb_wq_size 16
core_0_itlb_pq_size 0
core_0_itlb_mshr_size 8
core_0_itlb_hit_latency 1
core_0_itlb_fill_latency 1
core_0_itlb_max_tag_check 2
core_0_itlb_max_fill 2
core_0_dtlb_set 16
core_0_dtlb_way 4
core_0_dtlb_rq_size 16
core_0_dtlb_wq_size 16
core_0_dtlb_pq_size 0
core_0_dtlb_mshr_size 8
core_0_dtlb_hit_latency 1
core_0_dtlb_fill_latency 1
core_0_dtlb_max_tag_check 2
core_0_dtlb_max_fill 2
core_0_stlb_set 128
core_0_stlb_way 12
core_0_stlb_rq_size 32
core_0_stlb_wq_size 32
core_0_stlb_pq_size 0
core_0_stlb_mshr_size 16
core_0_stlb_hit_latency 4
core_0_stlb_fill_latency 4
core_0_stlb_max_tag_check 1
core_0_stlb_max_fill 1
core_0_l1i_set 64
core_0_l1i_way 8
core_0_l1i_rq_size 64
core_0_l1i_wq_size 64
core_0_l1i_pq_size 32
core_0_l1i_mshr_size 8
core_0_l1i_hit_latency 2
core_0_l1i_fill_latency 2
core_0_l1i_max_tag_check 2
core_0_l1i_max_fill 2
core_0_l1d_set 64
core_0_l1d_way 12
core_0_l1d_rq_size 64
core_0_l1d_wq_size 64
core_0_l1d_pq_size 8
core_0_l1d_mshr_size 16
core_0_l1d_hit_latency 2
core_0_l1d_fill_latency 3
core_0_l1d_max_tag_check 2
core_0_l1d_max_fill 2
core_0_l2c_set 1024
core_0_l2c_way 8
core_0_l2c_rq_size 32
core_0_l2c_wq_size 32
core_0_l2c_pq_size 16
core_0_l2c_mshr_size 32
core_0_l2c_hit_latency 5
core_0_l2c_fill_latency 5
core_0_l2c_max_tag_check 1
core_0_l2c_max_fill 1
llc_set 2048
llc_way 16
llc_rq_size 32
llc_wq_size 32
llc_pq_size 32
llc_mshr_size 64
llc_hit_latency 10
llc_fill_latency 10
llc_max_tag_check 1
llc_max_fill 1
dram_channels 1
dram_ranks 1
dram_bankgroups 8
dram_banks 4
dram_rows 65536
dram_columns 1024
dram_channel_width 8
dram_rq_size 64
dram_wq_size 64
dram_size 17179869184
core_0_itlb_prefetcher no
core_0_dtlb_prefetcher no
core_0_stlb_prefetcher no
core_0_l1i_prefetcher next_line
core_0_l1d_prefetcher vberti
core_0_l2c_prefetcher ip_stride
llc_prefetcher no
llc_replacement drrip

Core_0_instructions 100000003
Core_0_cycles 427605205
Core_0_IPC 0.233861
Core_0_branch_prediction_accuracy 87.4892
Core_0_branch_MPKI 20.1241
Core_0_average_ROB_occupancy_at_mispredict 24.2291

Core_0_ITLB_total_access 228117
Core_0_ITLB_total_hit 228117
Core_0_ITLB_total_miss 0
Core_0_ITLB_total_MPKI 0
Core_0_ITLB_total_miss_rate 0
Core_0_ITLB_demand_access 228117
Core_0_ITLB_demand_hit 228117
Core_0_ITLB_demand_miss 0
Core_0_ITLB_demand_MPKI 0
Core_0_ITLB_demand_miss_rate 0
Core_0_ITLB_load_access 228117
Core_0_ITLB_load_hit 228117
Core_0_ITLB_load_miss 0
Core_0_ITLB_load_MPKI 0
Core_0_ITLB_load_miss_rate 0
Core_0_ITLB_rfo_access 0
Core_0_ITLB_rfo_hit 0
Core_0_ITLB_rfo_miss 0
Core_0_ITLB_rfo_MPKI 0
Core_0_ITLB_rfo_miss_rate 0
Core_0_ITLB_prefetch_access 0
Core_0_ITLB_prefetch_hit 0
Core_0_ITLB_prefetch_miss 0
Core_0_ITLB_prefetch_MPKI 0
Core_0_ITLB_prefetch_miss_rate 0
Core_0_ITLB_writeback_access 0
Core_0_ITLB_writeback_hit 0
Core_0_ITLB_writeback_miss 0
Core_0_ITLB_writeback_MPKI 0
Core_0_ITLB_writeback_miss_rate 0
Core_0_ITLB_prefetch_requested 0
Core_0_ITLB_prefetch_issued 0
Core_0_ITLB_prefetch_useful 0
Core_0_ITLB_prefetch_useless 0
Core_0_ITLB_prefetch_late 0
Core_0_ITLB_prefetch_accuracy 0
Core_0_ITLB_prefetch_coverage 0
Core_0_ITLB_total_eviction 0

Core_0_DTLB_total_access 50317119
Core_0_DTLB_total_hit 48374858
Core_0_DTLB_total_miss 1942261
Core_0_DTLB_total_MPKI 19.4226
Core_0_DTLB_total_miss_rate 0.0386004
Core_0_DTLB_demand_access 50317119
Core_0_DTLB_demand_hit 48374858
Core_0_DTLB_demand_miss 1942261
Core_0_DTLB_demand_MPKI 19.4226
Core_0_DTLB_demand_miss_rate 0.0386004
Core_0_DTLB_load_access 50317119
Core_0_DTLB_load_hit 48374858
Core_0_DTLB_load_miss 1942261
Core_0_DTLB_load_MPKI 19.4226
Core_0_DTLB_load_miss_rate 0.0386004
Core_0_DTLB_rfo_access 0
Core_0_DTLB_rfo_hit 0
Core_0_DTLB_rfo_miss 0
Core_0_DTLB_rfo_MPKI 0
Core_0_DTLB_rfo_miss_rate 0
Core_0_DTLB_prefetch_access 0
Core_0_DTLB_prefetch_hit 0
Core_0_DTLB_prefetch_miss 0
Core_0_DTLB_prefetch_MPKI 0
Core_0_DTLB_prefetch_miss_rate 0
Core_0_DTLB_writeback_access 0
Core_0_DTLB_writeback_hit 0
Core_0_DTLB_writeback_miss 0
Core_0_DTLB_writeback_MPKI 0
Core_0_DTLB_writeback_miss_rate 0
Core_0_DTLB_prefetch_requested 0
Core_0_DTLB_prefetch_issued 0
Core_0_DTLB_prefetch_useful 0
Core_0_DTLB_prefetch_useless 0
Core_0_DTLB_prefetch_late 0
Core_0_DTLB_prefetch_accuracy 0
Core_0_DTLB_prefetch_coverage 0
Core_0_DTLB_total_eviction 1892887

Core_0_STLB_total_access 1892885
Core_0_STLB_total_hit 503478
Core_0_STLB_total_miss 1389407
Core_0_STLB_total_MPKI 13.8941
Core_0_STLB_total_miss_rate 0.734016
Core_0_STLB_demand_access 1892885
Core_0_STLB_demand_hit 503478
Core_0_STLB_demand_miss 1389407
Core_0_STLB_demand_MPKI 13.8941
Core_0_STLB_demand_miss_rate 0.734016
Core_0_STLB_load_access 1892885
Core_0_STLB_load_hit 503478
Core_0_STLB_load_miss 1389407
Core_0_STLB_load_MPKI 13.8941
Core_0_STLB_load_miss_rate 0.734016
Core_0_STLB_rfo_access 0
Core_0_STLB_rfo_hit 0
Core_0_STLB_rfo_miss 0
Core_0_STLB_rfo_MPKI 0
Core_0_STLB_rfo_miss_rate 0
Core_0_STLB_prefetch_access 0
Core_0_STLB_prefetch_hit 0
Core_0_STLB_prefetch_miss 0
Core_0_STLB_prefetch_MPKI 0
Core_0_STLB_prefetch_miss_rate 0
Core_0_STLB_writeback_access 0
Core_0_STLB_writeback_hit 0
Core_0_STLB_writeback_miss 0
Core_0_STLB_writeback_MPKI 0
Core_0_STLB_writeback_miss_rate 0
Core_0_STLB_prefetch_requested 0
Core_0_STLB_prefetch_issued 0
Core_0_STLB_prefetch_useful 0
Core_0_STLB_prefetch_useless 0
Core_0_STLB_prefetch_late 0
Core_0_STLB_prefetch_accuracy 0
Core_0_STLB_prefetch_coverage 0
Core_0_STLB_total_eviction 1440835

Core_0_L1I_total_access 285305
Core_0_L1I_total_hit 285305
Core_0_L1I_total_miss 0
Core_0_L1I_total_MPKI 0
Core_0_L1I_total_miss_rate 0
Core_0_L1I_demand_access 285305
Core_0_L1I_demand_hit 285305
Core_0_L1I_demand_miss 0
Core_0_L1I_demand_MPKI 0
Core_0_L1I_demand_miss_rate 0
Core_0_L1I_load_access 285305
Core_0_L1I_load_hit 285305
Core_0_L1I_load_miss 0
Core_0_L1I_load_MPKI 0
Core_0_L1I_load_miss_rate 0
Core_0_L1I_rfo_access 0
Core_0_L1I_rfo_hit 0
Core_0_L1I_rfo_miss 0
Core_0_L1I_rfo_MPKI 0
Core_0_L1I_rfo_miss_rate 0
Core_0_L1I_prefetch_access 0
Core_0_L1I_prefetch_hit 0
Core_0_L1I_prefetch_miss 0
Core_0_L1I_prefetch_MPKI 0
Core_0_L1I_prefetch_miss_rate 0
Core_0_L1I_writeback_access 0
Core_0_L1I_writeback_hit 0
Core_0_L1I_writeback_miss 0
Core_0_L1I_writeback_MPKI 0
Core_0_L1I_writeback_miss_rate 0
Core_0_L1I_prefetch_requested 0
Core_0_L1I_prefetch_issued 0
Core_0_L1I_prefetch_useful 0
Core_0_L1I_prefetch_useless 0
Core_0_L1I_prefetch_late 0
Core_0_L1I_prefetch_accuracy 0
Core_0_L1I_prefetch_coverage 0
Core_0_L1I_total_eviction 0

Core_0_L1D_total_access 62682272
Core_0_L1D_total_hit 53758534
Core_0_L1D_total_miss 8923738
Core_0_L1D_total_MPKI 89.2374
Core_0_L1D_total_miss_rate 0.142365
Core_0_L1D_demand_access 27845158
Core_0_L1D_demand_hit 25449188
Core_0_L1D_demand_miss 2395970
Core_0_L1D_demand_MPKI 23.9597
Core_0_L1D_demand_miss_rate 0.0860462
Core_0_L1D_load_access 27845158
Core_0_L1D_load_hit 25449188
Core_0_L1D_load_miss 2395970
Core_0_L1D_load_MPKI 23.9597
Core_0_L1D_load_miss_rate 0.0860462
Core_0_L1D_rfo_access 0
Core_0_L1D_rfo_hit 0
Core_0_L1D_rfo_miss 0
Core_0_L1D_rfo_MPKI 0
Core_0_L1D_rfo_miss_rate 0
Core_0_L1D_prefetch_access 34813219
Core_0_L1D_prefetch_hit 28285451
Core_0_L1D_prefetch_miss 6527768
Core_0_L1D_prefetch_MPKI 65.2777
Core_0_L1D_prefetch_miss_rate 0.187508
Core_0_L1D_writeback_access 23895
Core_0_L1D_writeback_hit 23895
Core_0_L1D_writeback_miss 0
Core_0_L1D_writeback_MPKI 0
Core_0_L1D_writeback_miss_rate 0
Core_0_L1D_prefetch_requested 124807025
Core_0_L1D_prefetch_issued 34813212
Core_0_L1D_prefetch_useful 1942338
Core_0_L1D_prefetch_useless 743171
Core_0_L1D_prefetch_late 10111
Core_0_L1D_prefetch_accuracy 0.0557931
Core_0_L1D_prefetch_coverage 0.447718
Core_0_L1D_total_eviction 6272467

Core_0_L2C_total_access 12047544
Core_0_L2C_total_hit 5848615
Core_0_L2C_total_miss 6198929
Core_0_L2C_total_MPKI 61.9893
Core_0_L2C_total_miss_rate 0.514539
Core_0_L2C_demand_access 2240839
Core_0_L2C_demand_hit 608538
Core_0_L2C_demand_miss 1632301
Core_0_L2C_demand_MPKI 16.323
Core_0_L2C_demand_miss_rate 0.728433
Core_0_L2C_load_access 2240839
Core_0_L2C_load_hit 608538
Core_0_L2C_load_miss 1632301
Core_0_L2C_load_MPKI 16.323
Core_0_L2C_load_miss_rate 0.728433
Core_0_L2C_rfo_access 0
Core_0_L2C_rfo_hit 0
Core_0_L2C_rfo_miss 0
Core_0_L2C_rfo_MPKI 0
Core_0_L2C_rfo_miss_rate 0
Core_0_L2C_prefetch_access 9783127
Core_0_L2C_prefetch_hit 5216507
Core_0_L2C_prefetch_miss 4566620
Core_0_L2C_prefetch_MPKI 45.6662
Core_0_L2C_prefetch_miss_rate 0.466785
Core_0_L2C_writeback_access 23578
Core_0_L2C_writeback_hit 23570
Core_0_L2C_writeback_miss 8
Core_0_L2C_writeback_MPKI 8e-05
Core_0_L2C_writeback_miss_rate 0.000339299
Core_0_L2C_prefetch_requested 3333048
Core_0_L2C_prefetch_issued 3333028
Core_0_L2C_prefetch_useful 911007
Core_0_L2C_prefetch_useless 180980
Core_0_L2C_prefetch_late 5990
Core_0_L2C_prefetch_accuracy 0.273327
Core_0_L2C_prefetch_coverage 0.358198
Core_0_L2C_total_eviction 5952596

Core_0_LLC_total_access 5051299
Core_0_LLC_total_hit 188025
Core_0_LLC_total_miss 4863274
Core_0_LLC_total_MPKI 48.6327
Core_0_LLC_total_miss_rate 0.962777
Core_0_LLC_demand_access 1619952
Core_0_LLC_demand_hit 173448
Core_0_LLC_demand_miss 1446504
Core_0_LLC_demand_MPKI 14.465
Core_0_LLC_demand_miss_rate 0.89293
Core_0_LLC_load_access 1619952
Core_0_LLC_load_hit 173448
Core_0_LLC_load_miss 1446504
Core_0_LLC_load_MPKI 14.465
Core_0_LLC_load_miss_rate 0.89293
Core_0_LLC_rfo_access 0
Core_0_LLC_rfo_hit 0
Core_0_LLC_rfo_miss 0
Core_0_LLC_rfo_MPKI 0
Core_0_LLC_rfo_miss_rate 0
Core_0_LLC_prefetch_access 3407795
Core_0_LLC_prefetch_hit 10371
Core_0_LLC_prefetch_miss 3397424
Core_0_LLC_prefetch_MPKI 33.9742
Core_0_LLC_prefetch_miss_rate 0.996957
Core_0_LLC_writeback_access 23552
Core_0_LLC_writeback_hit 4206
Core_0_LLC_writeback_miss 19346
Core_0_LLC_writeback_MPKI 0.19346
Core_0_LLC_writeback_miss_rate 0.821416
Core_0_LLC_prefetch_requested 0
Core_0_LLC_prefetch_issued 0
Core_0_LLC_prefetch_useful 0
Core_0_LLC_prefetch_useless 0
Core_0_LLC_prefetch_late 0
Core_0_LLC_prefetch_accuracy 0
Core_0_LLC_prefetch_coverage 0
Core_0_LLC_total_eviction 4911146

[DRAM Statistics]
Channel_0_RQ_row_buffer_hit 377098
Channel_0_RQ_row_buffer_miss 4514701
Channel_0_WQ_row_buffer_hit 6322
Channel_0_WQ_row_buffer_miss 17615
Channel_0_WQ_full 0
Channel_0_dbus_congested 6876932
DRAM_total_RQ_row_buffer_hit 377098
DRAM_total_RQ_row_buffer_miss 4514701
DRAM_total_WQ_row_buffer_hit 6322
DRAM_total_WQ_row_buffer_miss 17615
DRAM_total_WQ_full 0
DRAM_total_dbus_congested 6876932
DRAM_avg_congested_cycle 5.79589

======STLB miss causes ========
Core_0_STLB_miss_cause_breakdown
Core_0_STLB_cause_Demand_Data_miss 1389407
Core_0_STLB_cause_Demand_Data_miss_rate 0.734016
Core_0_STLB_cause_Demand_Instruction_miss 0
Core_0_STLB_cause_Demand_Instruction_miss_rate 0
Core_0_STLB_cause_L1D_Prefetch_miss 0
Core_0_STLB_cause_L1D_Prefetch_miss_rate 0
Core_0_STLB_cause_L1I_Prefetch_miss 0
Core_0_STLB_cause_L1I_Prefetch_miss_rate 0
Core_0_STLB_cause_Other_miss 0
Core_0_STLB_cause_Other_miss_rate 0
Core_0_STLB_Demand_miss 1389407
Core_0_STLB_Demand_miss_rate 0.734016
Core_0_STLB_L1D_Prefetch_miss 0
Core_0_STLB_L1D_Prefetch_miss_rate 0
Core_0_STLB_Other_miss 0
Core_0_STLB_Other_miss_rate 0
BERTI TO_L1: 121988202 TO_L2: 36782400 TO_L2_BC_MSHR: 122196
BERTI AVG_LAT: 107.43 NUM_TRACK_LATENCY: 7275970 NUM_CANT_TRACK_LATENCY: 0
BERTI CROSS_PAGE 20860445 NO_CROSS_PAGE: 137910157
BERTI FOUND_BERTI: 20741406 NO_FOUND_BERTI: 14164803
BERTI AVERAGE_ISSUED: 3.85304
