[VMEM] WARNING: physical memory size is smaller than virtual memory size.

*** ChampSim Multicore Out-of-Order Simulator ***
Warmup Instructions: 50000000
Simulation Instructions: 100000000
Number of CPUs: 1
Page size: 4096
STLB ideal mode: l1pref
STLB ideal fill: on
Core 0: /data2/zcq/champsim_traces_gap/cc.twitter-15B.champsimtrace.xz
VBerti Prefetcher
BERTI HASH ENTANGLING
BERTI IP MASK ffff
Off-chip DRAM Size: 16 GiB Channels: 1 Width: 64-bit Data Rate: 3205 MT/s
Warmup halting CPU 0 at instruction 50000005 cycle 16803683 for remainder of phase
Warmup finished CPU 0 instructions: 50000005 cycles: 16803683 cumulative IPC: 2.976 (Simulation time: 00 hr 03 min 32 sec)
Warmup complete CPU 0 instructions: 50000005 cycles: 16803683 cumulative IPC: 2.976 (Simulation time: 00 hr 03 min 32 sec)
Simulation finished CPU 0 instructions: 100000005 cycles: 244419502 cumulative IPC: 0.4091 (Simulation time: 00 hr 28 min 24 sec)
Simulation complete CPU 0 instructions: 100000005 cycles: 244419502 cumulative IPC: 0.4091 (Simulation time: 00 hr 28 min 24 sec)

ChampSim completed all CPUs

=== Simulation ===
CPU 0 runs /data2/zcq/champsim_traces_gap/cc.twitter-15B.champsimtrace.xz

Region of Interest Statistics

CPU 0 cumulative IPC: 0.4091 instructions: 100000005 cycles: 244419502
CPU 0 Branch Prediction Accuracy: 98.22% MPKI: 3.27 Average ROB Occupancy at Mispredict: 158.8
Branch type MPKI
BRANCH_DIRECT_JUMP: 0
BRANCH_INDIRECT: 0
BRANCH_CONDITIONAL: 3.27
BRANCH_DIRECT_CALL: 0
BRANCH_INDIRECT_CALL: 0
BRANCH_RETURN: 0

cpu0->cpu0_STLB TOTAL        ACCESS:    2079287 HIT:     461529 MISS:    1617758 MSHR_MERGE:          0
cpu0->cpu0_STLB LOAD         ACCESS:    2079287 HIT:     461529 MISS:    1617758 MSHR_MERGE:          0
cpu0->cpu0_STLB RFO          ACCESS:          0 HIT:          0 MISS:          0 MSHR_MERGE:          0
cpu0->cpu0_STLB PREFETCH     ACCESS:          0 HIT:          0 MISS:          0 MSHR_MERGE:          0
cpu0->cpu0_STLB WRITE        ACCESS:          0 HIT:          0 MISS:          0 MSHR_MERGE:          0
cpu0->cpu0_STLB TRANSLATION  ACCESS:          0 HIT:          0 MISS:          0 MSHR_MERGE:          0
cpu0->cpu0_STLB PREFETCH REQUESTED:          0 ISSUED:          0 USEFUL:          0 USELESS:          0 LATE:          0
cpu0->cpu0_STLB AVERAGE MISS LATENCY: 44 cycles
cpu0->cpu0_L2C TOTAL        ACCESS:   12153798 HIT:    5137340 MISS:    7016458 MSHR_MERGE:    1268242
cpu0->cpu0_L2C LOAD         ACCESS:    2750710 HIT:     683074 MISS:    2067636 MSHR_MERGE:      65943
cpu0->cpu0_L2C RFO          ACCESS:          0 HIT:          0 MISS:          0 MSHR_MERGE:          0
cpu0->cpu0_L2C PREFETCH     ACCESS:    7329475 HIT:    3287586 MISS:    4041889 MSHR_MERGE:    1202299
cpu0->cpu0_L2C WRITE        ACCESS:     551372 HIT:     551267 MISS:        105 MSHR_MERGE:          0
cpu0->cpu0_L2C TRANSLATION  ACCESS:    1522241 HIT:     615413 MISS:     906828 MSHR_MERGE:          0
cpu0->cpu0_L2C PREFETCH REQUESTED:    2188111 ISSUED:    2188105 USEFUL:     507604 USELESS:     194009 LATE:      32192
cpu0->cpu0_L2C AVERAGE MISS LATENCY: 163.3 cycles
cpu0->cpu0_L1I TOTAL        ACCESS:    6271145 HIT:    6271145 MISS:          0 MSHR_MERGE:          0
cpu0->cpu0_L1I LOAD         ACCESS:    6271145 HIT:    6271145 MISS:          0 MSHR_MERGE:          0
cpu0->cpu0_L1I RFO          ACCESS:          0 HIT:          0 MISS:          0 MSHR_MERGE:          0
cpu0->cpu0_L1I PREFETCH     ACCESS:          0 HIT:          0 MISS:          0 MSHR_MERGE:          0
cpu0->cpu0_L1I WRITE        ACCESS:          0 HIT:          0 MISS:          0 MSHR_MERGE:          0
cpu0->cpu0_L1I TRANSLATION  ACCESS:          0 HIT:          0 MISS:          0 MSHR_MERGE:          0
cpu0->cpu0_L1I PREFETCH REQUESTED:          0 ISSUED:          0 USEFUL:          0 USELESS:          0 LATE:          0
cpu0->cpu0_L1I AVERAGE MISS LATENCY: - cycles
cpu0->cpu0_L1D TOTAL        ACCESS:   50739386 HIT:   41004591 MISS:    9734795 MSHR_MERGE:     299206
cpu0->cpu0_L1D LOAD         ACCESS:   23272260 HIT:   20281125 MISS:    2991135 MSHR_MERGE:     240425
cpu0->cpu0_L1D RFO          ACCESS:          0 HIT:          0 MISS:          0 MSHR_MERGE:          0
cpu0->cpu0_L1D PREFETCH     ACCESS:   21010734 HIT:   15789797 MISS:    5220937 MSHR_MERGE:      58299
cpu0->cpu0_L1D WRITE        ACCESS:    2476227 HIT:    2476227 MISS:          0 MSHR_MERGE:          0
cpu0->cpu0_L1D TRANSLATION  ACCESS:    3980165 HIT:    2457442 MISS:    1522723 MSHR_MERGE:        482
cpu0->cpu0_L1D PREFETCH REQUESTED:   90216170 ISSUED:   21010735 USEFUL:     930844 USELESS:     460710 LATE:      15790
cpu0->cpu0_L1D AVERAGE MISS LATENCY: 122.4 cycles
cpu0->cpu0_ITLB TOTAL        ACCESS:    5360906 HIT:    5360906 MISS:          0 MSHR_MERGE:          0
cpu0->cpu0_ITLB LOAD         ACCESS:    5360906 HIT:    5360906 MISS:          0 MSHR_MERGE:          0
cpu0->cpu0_ITLB RFO          ACCESS:          0 HIT:          0 MISS:          0 MSHR_MERGE:          0
cpu0->cpu0_ITLB PREFETCH     ACCESS:          0 HIT:          0 MISS:          0 MSHR_MERGE:          0
cpu0->cpu0_ITLB WRITE        ACCESS:          0 HIT:          0 MISS:          0 MSHR_MERGE:          0
cpu0->cpu0_ITLB TRANSLATION  ACCESS:          0 HIT:          0 MISS:          0 MSHR_MERGE:          0
cpu0->cpu0_ITLB PREFETCH REQUESTED:          0 ISSUED:          0 USEFUL:          0 USELESS:          0 LATE:          0
cpu0->cpu0_ITLB AVERAGE MISS LATENCY: - cycles
cpu0->cpu0_DTLB TOTAL        ACCESS:   40104135 HIT:   37949562 MISS:    2154573 MSHR_MERGE:      75286
cpu0->cpu0_DTLB LOAD         ACCESS:   40104135 HIT:   37949562 MISS:    2154573 MSHR_MERGE:      75286
cpu0->cpu0_DTLB RFO          ACCESS:          0 HIT:          0 MISS:          0 MSHR_MERGE:          0
cpu0->cpu0_DTLB PREFETCH     ACCESS:          0 HIT:          0 MISS:          0 MSHR_MERGE:          0
cpu0->cpu0_DTLB WRITE        ACCESS:          0 HIT:          0 MISS:          0 MSHR_MERGE:          0
cpu0->cpu0_DTLB TRANSLATION  ACCESS:          0 HIT:          0 MISS:          0 MSHR_MERGE:          0
cpu0->cpu0_DTLB PREFETCH REQUESTED:          0 ISSUED:          0 USEFUL:          0 USELESS:          0 LATE:          0
cpu0->cpu0_DTLB AVERAGE MISS LATENCY: 40.01 cycles
cpu0->LLC TOTAL        ACCESS:    6294203 HIT:    1138414 MISS:    5155789 MSHR_MERGE:      12006
cpu0->LLC LOAD         ACCESS:    2001693 HIT:     176773 MISS:    1824920 MSHR_MERGE:        171
cpu0->LLC RFO          ACCESS:          0 HIT:          0 MISS:          0 MSHR_MERGE:          0
cpu0->LLC PREFETCH     ACCESS:    2839589 HIT:      27203 MISS:    2812386 MSHR_MERGE:      11835
cpu0->LLC WRITE        ACCESS:     546093 HIT:     107629 MISS:     438464 MSHR_MERGE:          0
cpu0->LLC TRANSLATION  ACCESS:     906828 HIT:     826809 MISS:      80019 MSHR_MERGE:          0
cpu0->LLC PREFETCH REQUESTED:          0 ISSUED:          0 USEFUL:          0 USELESS:          0 LATE:          0
cpu0->LLC AVERAGE MISS LATENCY: 184.9 cycles

DRAM Statistics

Channel 0 RQ ROW_BUFFER_HIT:     180435
  ROW_BUFFER_MISS:    4524800
  AVG DBUS CONGESTED CYCLE: 8.69
Channel 0 WQ ROW_BUFFER_HIT:     167382
  ROW_BUFFER_MISS:     363049
  FULL:          0
Channel 0 REFRESHES ISSUED:      20368

[ROI Statistics]
[System Configuration]
num_cpus 1
cpu_freq 4000
fetch_width 6
decode_width 6
dispatch_width 6
execute_width 6
lq_width 2
sq_width 2
retire_width 6
scheduler_size 128
branch_mispredict_penalty 15
rob_size 352
lq_size 128
sq_size 72
ifetch_buffer_size 64
decode_buffer_size 32
dispatch_buffer_size 32
register_file_size 288
decode_latency 1
dispatch_latency 1
schedule_latency 1
execute_latency 1
page_size 4096
block_size 64
core_0_itlb_set 16
core_0_itlb_way 4
core_0_itlb_rq_size 16
core_0_itlb_wq_size 16
core_0_itlb_pq_size 0
core_0_itlb_mshr_size 8
core_0_itlb_hit_latency 1
core_0_itlb_fill_latency 1
core_0_itlb_max_tag_check 2
core_0_itlb_max_fill 2
core_0_dtlb_set 16
core_0_dtlb_way 4
core_0_dtlb_rq_size 16
core_0_dtlb_wq_size 16
core_0_dtlb_pq_size 0
core_0_dtlb_mshr_size 8
core_0_dtlb_hit_latency 1
core_0_dtlb_fill_latency 1
core_0_dtlb_max_tag_check 2
core_0_dtlb_max_fill 2
core_0_stlb_set 128
core_0_stlb_way 12
core_0_stlb_rq_size 32
core_0_stlb_wq_size 32
core_0_stlb_pq_size 0
core_0_stlb_mshr_size 16
core_0_stlb_hit_latency 4
core_0_stlb_fill_latency 4
core_0_stlb_max_tag_check 1
core_0_stlb_max_fill 1
core_0_l1i_set 64
core_0_l1i_way 8
core_0_l1i_rq_size 64
core_0_l1i_wq_size 64
core_0_l1i_pq_size 32
core_0_l1i_mshr_size 8
core_0_l1i_hit_latency 2
core_0_l1i_fill_latency 2
core_0_l1i_max_tag_check 2
core_0_l1i_max_fill 2
core_0_l1d_set 64
core_0_l1d_way 12
core_0_l1d_rq_size 64
core_0_l1d_wq_size 64
core_0_l1d_pq_size 8
core_0_l1d_mshr_size 16
core_0_l1d_hit_latency 2
core_0_l1d_fill_latency 3
core_0_l1d_max_tag_check 2
core_0_l1d_max_fill 2
core_0_l2c_set 1024
core_0_l2c_way 8
core_0_l2c_rq_size 32
core_0_l2c_wq_size 32
core_0_l2c_pq_size 16
core_0_l2c_mshr_size 32
core_0_l2c_hit_latency 5
core_0_l2c_fill_latency 5
core_0_l2c_max_tag_check 1
core_0_l2c_max_fill 1
llc_set 2048
llc_way 16
llc_rq_size 32
llc_wq_size 32
llc_pq_size 32
llc_mshr_size 64
llc_hit_latency 10
llc_fill_latency 10
llc_max_tag_check 1
llc_max_fill 1
dram_channels 1
dram_ranks 1
dram_bankgroups 8
dram_banks 4
dram_rows 65536
dram_columns 1024
dram_channel_width 8
dram_rq_size 64
dram_wq_size 64
dram_size 17179869184
core_0_itlb_prefetcher no
core_0_dtlb_prefetcher no
core_0_stlb_prefetcher no
core_0_l1i_prefetcher next_line
core_0_l1d_prefetcher vberti
core_0_l2c_prefetcher ip_stride
llc_prefetcher no
llc_replacement drrip

Core_0_instructions 100000005
Core_0_cycles 244419502
Core_0_IPC 0.409133
Core_0_branch_prediction_accuracy 98.2195
Core_0_branch_MPKI 3.27038
Core_0_average_ROB_occupancy_at_mispredict 158.766

Core_0_ITLB_total_access 5360906
Core_0_ITLB_total_hit 5360906
Core_0_ITLB_total_miss 0
Core_0_ITLB_total_MPKI 0
Core_0_ITLB_total_miss_rate 0
Core_0_ITLB_demand_access 5360906
Core_0_ITLB_demand_hit 5360906
Core_0_ITLB_demand_miss 0
Core_0_ITLB_demand_MPKI 0
Core_0_ITLB_demand_miss_rate 0
Core_0_ITLB_load_access 5360906
Core_0_ITLB_load_hit 5360906
Core_0_ITLB_load_miss 0
Core_0_ITLB_load_MPKI 0
Core_0_ITLB_load_miss_rate 0
Core_0_ITLB_rfo_access 0
Core_0_ITLB_rfo_hit 0
Core_0_ITLB_rfo_miss 0
Core_0_ITLB_rfo_MPKI 0
Core_0_ITLB_rfo_miss_rate 0
Core_0_ITLB_prefetch_access 0
Core_0_ITLB_prefetch_hit 0
Core_0_ITLB_prefetch_miss 0
Core_0_ITLB_prefetch_MPKI 0
Core_0_ITLB_prefetch_miss_rate 0
Core_0_ITLB_writeback_access 0
Core_0_ITLB_writeback_hit 0
Core_0_ITLB_writeback_miss 0
Core_0_ITLB_writeback_MPKI 0
Core_0_ITLB_writeback_miss_rate 0
Core_0_ITLB_prefetch_requested 0
Core_0_ITLB_prefetch_issued 0
Core_0_ITLB_prefetch_useful 0
Core_0_ITLB_prefetch_useless 0
Core_0_ITLB_prefetch_late 0
Core_0_ITLB_prefetch_accuracy 0
Core_0_ITLB_prefetch_coverage 0
Core_0_ITLB_total_eviction 0

Core_0_DTLB_total_access 40104135
Core_0_DTLB_total_hit 37949562
Core_0_DTLB_total_miss 2154573
Core_0_DTLB_total_MPKI 21.5457
Core_0_DTLB_total_miss_rate 0.0537245
Core_0_DTLB_demand_access 40104135
Core_0_DTLB_demand_hit 37949562
Core_0_DTLB_demand_miss 2154573
Core_0_DTLB_demand_MPKI 21.5457
Core_0_DTLB_demand_miss_rate 0.0537245
Core_0_DTLB_load_access 40104135
Core_0_DTLB_load_hit 37949562
Core_0_DTLB_load_miss 2154573
Core_0_DTLB_load_MPKI 21.5457
Core_0_DTLB_load_miss_rate 0.0537245
Core_0_DTLB_rfo_access 0
Core_0_DTLB_rfo_hit 0
Core_0_DTLB_rfo_miss 0
Core_0_DTLB_rfo_MPKI 0
Core_0_DTLB_rfo_miss_rate 0
Core_0_DTLB_prefetch_access 0
Core_0_DTLB_prefetch_hit 0
Core_0_DTLB_prefetch_miss 0
Core_0_DTLB_prefetch_MPKI 0
Core_0_DTLB_prefetch_miss_rate 0
Core_0_DTLB_writeback_access 0
Core_0_DTLB_writeback_hit 0
Core_0_DTLB_writeback_miss 0
Core_0_DTLB_writeback_MPKI 0
Core_0_DTLB_writeback_miss_rate 0
Core_0_DTLB_prefetch_requested 0
Core_0_DTLB_prefetch_issued 0
Core_0_DTLB_prefetch_useful 0
Core_0_DTLB_prefetch_useless 0
Core_0_DTLB_prefetch_late 0
Core_0_DTLB_prefetch_accuracy 0
Core_0_DTLB_prefetch_coverage 0
Core_0_DTLB_total_eviction 2079288

Core_0_STLB_total_access 2079287
Core_0_STLB_total_hit 461529
Core_0_STLB_total_miss 1617758
Core_0_STLB_total_MPKI 16.1776
Core_0_STLB_total_miss_rate 0.778035
Core_0_STLB_demand_access 2079287
Core_0_STLB_demand_hit 461529
Core_0_STLB_demand_miss 1617758
Core_0_STLB_demand_MPKI 16.1776
Core_0_STLB_demand_miss_rate 0.778035
Core_0_STLB_load_access 2079287
Core_0_STLB_load_hit 461529
Core_0_STLB_load_miss 1617758
Core_0_STLB_load_MPKI 16.1776
Core_0_STLB_load_miss_rate 0.778035
Core_0_STLB_rfo_access 0
Core_0_STLB_rfo_hit 0
Core_0_STLB_rfo_miss 0
Core_0_STLB_rfo_MPKI 0
Core_0_STLB_rfo_miss_rate 0
Core_0_STLB_prefetch_access 0
Core_0_STLB_prefetch_hit 0
Core_0_STLB_prefetch_miss 0
Core_0_STLB_prefetch_MPKI 0
Core_0_STLB_prefetch_miss_rate 0
Core_0_STLB_writeback_access 0
Core_0_STLB_writeback_hit 0
Core_0_STLB_writeback_miss 0
Core_0_STLB_writeback_MPKI 0
Core_0_STLB_writeback_miss_rate 0
Core_0_STLB_prefetch_requested 0
Core_0_STLB_prefetch_issued 0
Core_0_STLB_prefetch_useful 0
Core_0_STLB_prefetch_useless 0
Core_0_STLB_prefetch_late 0
Core_0_STLB_prefetch_accuracy 0
Core_0_STLB_prefetch_coverage 0
Core_0_STLB_total_eviction 1666091

Core_0_L1I_total_access 6271145
Core_0_L1I_total_hit 6271145
Core_0_L1I_total_miss 0
Core_0_L1I_total_MPKI 0
Core_0_L1I_total_miss_rate 0
Core_0_L1I_demand_access 6271145
Core_0_L1I_demand_hit 6271145
Core_0_L1I_demand_miss 0
Core_0_L1I_demand_MPKI 0
Core_0_L1I_demand_miss_rate 0
Core_0_L1I_load_access 6271145
Core_0_L1I_load_hit 6271145
Core_0_L1I_load_miss 0
Core_0_L1I_load_MPKI 0
Core_0_L1I_load_miss_rate 0
Core_0_L1I_rfo_access 0
Core_0_L1I_rfo_hit 0
Core_0_L1I_rfo_miss 0
Core_0_L1I_rfo_MPKI 0
Core_0_L1I_rfo_miss_rate 0
Core_0_L1I_prefetch_access 0
Core_0_L1I_prefetch_hit 0
Core_0_L1I_prefetch_miss 0
Core_0_L1I_prefetch_MPKI 0
Core_0_L1I_prefetch_miss_rate 0
Core_0_L1I_writeback_access 0
Core_0_L1I_writeback_hit 0
Core_0_L1I_writeback_miss 0
Core_0_L1I_writeback_MPKI 0
Core_0_L1I_writeback_miss_rate 0
Core_0_L1I_prefetch_requested 0
Core_0_L1I_prefetch_issued 0
Core_0_L1I_prefetch_useful 0
Core_0_L1I_prefetch_useless 0
Core_0_L1I_prefetch_late 0
Core_0_L1I_prefetch_accuracy 0
Core_0_L1I_prefetch_coverage 0
Core_0_L1I_total_eviction 0

Core_0_L1D_total_access 46759221
Core_0_L1D_total_hit 38547149
Core_0_L1D_total_miss 8212072
Core_0_L1D_total_MPKI 82.1207
Core_0_L1D_total_miss_rate 0.175625
Core_0_L1D_demand_access 23272260
Core_0_L1D_demand_hit 20281125
Core_0_L1D_demand_miss 2991135
Core_0_L1D_demand_MPKI 29.9113
Core_0_L1D_demand_miss_rate 0.128528
Core_0_L1D_load_access 23272260
Core_0_L1D_load_hit 20281125
Core_0_L1D_load_miss 2991135
Core_0_L1D_load_MPKI 29.9113
Core_0_L1D_load_miss_rate 0.128528
Core_0_L1D_rfo_access 0
Core_0_L1D_rfo_hit 0
Core_0_L1D_rfo_miss 0
Core_0_L1D_rfo_MPKI 0
Core_0_L1D_rfo_miss_rate 0
Core_0_L1D_prefetch_access 21010734
Core_0_L1D_prefetch_hit 15789797
Core_0_L1D_prefetch_miss 5220937
Core_0_L1D_prefetch_MPKI 52.2094
Core_0_L1D_prefetch_miss_rate 0.248489
Core_0_L1D_writeback_access 2476227
Core_0_L1D_writeback_hit 2476227
Core_0_L1D_writeback_miss 0
Core_0_L1D_writeback_MPKI 0
Core_0_L1D_writeback_miss_rate 0
Core_0_L1D_prefetch_requested 90216170
Core_0_L1D_prefetch_issued 21010735
Core_0_L1D_prefetch_useful 930844
Core_0_L1D_prefetch_useless 460710
Core_0_L1D_prefetch_late 15790
Core_0_L1D_prefetch_accuracy 0.0443033
Core_0_L1D_prefetch_coverage 0.23734
Core_0_L1D_total_eviction 5664568

Core_0_L2C_total_access 10631557
Core_0_L2C_total_hit 4521927
Core_0_L2C_total_miss 6109630
Core_0_L2C_total_MPKI 61.0963
Core_0_L2C_total_miss_rate 0.574669
Core_0_L2C_demand_access 2750710
Core_0_L2C_demand_hit 683074
Core_0_L2C_demand_miss 2067636
Core_0_L2C_demand_MPKI 20.6764
Core_0_L2C_demand_miss_rate 0.751674
Core_0_L2C_load_access 2750710
Core_0_L2C_load_hit 683074
Core_0_L2C_load_miss 2067636
Core_0_L2C_load_MPKI 20.6764
Core_0_L2C_load_miss_rate 0.751674
Core_0_L2C_rfo_access 0
Core_0_L2C_rfo_hit 0
Core_0_L2C_rfo_miss 0
Core_0_L2C_rfo_MPKI 0
Core_0_L2C_rfo_miss_rate 0
Core_0_L2C_prefetch_access 7329475
Core_0_L2C_prefetch_hit 3287586
Core_0_L2C_prefetch_miss 4041889
Core_0_L2C_prefetch_MPKI 40.4189
Core_0_L2C_prefetch_miss_rate 0.551457
Core_0_L2C_writeback_access 551372
Core_0_L2C_writeback_hit 551267
Core_0_L2C_writeback_miss 105
Core_0_L2C_writeback_MPKI 0.00105
Core_0_L2C_writeback_miss_rate 0.000190434
Core_0_L2C_prefetch_requested 2188111
Core_0_L2C_prefetch_issued 2188105
Core_0_L2C_prefetch_useful 507604
Core_0_L2C_prefetch_useless 194009
Core_0_L2C_prefetch_late 32192
Core_0_L2C_prefetch_accuracy 0.231983
Core_0_L2C_prefetch_coverage 0.197109
Core_0_L2C_total_eviction 5714111

Core_0_LLC_total_access 5387375
Core_0_LLC_total_hit 311605
Core_0_LLC_total_miss 5075770
Core_0_LLC_total_MPKI 50.7577
Core_0_LLC_total_miss_rate 0.94216
Core_0_LLC_demand_access 2001693
Core_0_LLC_demand_hit 176773
Core_0_LLC_demand_miss 1824920
Core_0_LLC_demand_MPKI 18.2492
Core_0_LLC_demand_miss_rate 0.911688
Core_0_LLC_load_access 2001693
Core_0_LLC_load_hit 176773
Core_0_LLC_load_miss 1824920
Core_0_LLC_load_MPKI 18.2492
Core_0_LLC_load_miss_rate 0.911688
Core_0_LLC_rfo_access 0
Core_0_LLC_rfo_hit 0
Core_0_LLC_rfo_miss 0
Core_0_LLC_rfo_MPKI 0
Core_0_LLC_rfo_miss_rate 0
Core_0_LLC_prefetch_access 2839589
Core_0_LLC_prefetch_hit 27203
Core_0_LLC_prefetch_miss 2812386
Core_0_LLC_prefetch_MPKI 28.1239
Core_0_LLC_prefetch_miss_rate 0.99042
Core_0_LLC_writeback_access 546093
Core_0_LLC_writeback_hit 107629
Core_0_LLC_writeback_miss 438464
Core_0_LLC_writeback_MPKI 4.38464
Core_0_LLC_writeback_miss_rate 0.802911
Core_0_LLC_prefetch_requested 0
Core_0_LLC_prefetch_issued 0
Core_0_LLC_prefetch_useful 0
Core_0_LLC_prefetch_useless 0
Core_0_LLC_prefetch_late 0
Core_0_LLC_prefetch_accuracy 0
Core_0_LLC_prefetch_coverage 0
Core_0_LLC_total_eviction 5143782

[DRAM Statistics]
Channel_0_RQ_row_buffer_hit 180435
Channel_0_RQ_row_buffer_miss 4524800
Channel_0_WQ_row_buffer_hit 167382
Channel_0_WQ_row_buffer_miss 363049
Channel_0_WQ_full 0
Channel_0_dbus_congested 12271924
DRAM_total_RQ_row_buffer_hit 180435
DRAM_total_RQ_row_buffer_miss 4524800
DRAM_total_WQ_row_buffer_hit 167382
DRAM_total_WQ_row_buffer_miss 363049
DRAM_total_WQ_full 0
DRAM_total_dbus_congested 12271924
DRAM_avg_congested_cycle 8.68966

======STLB miss causes ========
Core_0_STLB_miss_cause_breakdown
Core_0_STLB_cause_Demand_Data_miss 1617758
Core_0_STLB_cause_Demand_Data_miss_rate 0.778035
Core_0_STLB_cause_Demand_Instruction_miss 0
Core_0_STLB_cause_Demand_Instruction_miss_rate 0
Core_0_STLB_cause_L1D_Prefetch_miss 0
Core_0_STLB_cause_L1D_Prefetch_miss_rate 0
Core_0_STLB_cause_L1I_Prefetch_miss 0
Core_0_STLB_cause_L1I_Prefetch_miss_rate 0
Core_0_STLB_cause_Other_miss 0
Core_0_STLB_cause_Other_miss_rate 0
Core_0_STLB_Demand_miss 1617758
Core_0_STLB_Demand_miss_rate 0.778035
Core_0_STLB_L1D_Prefetch_miss 0
Core_0_STLB_L1D_Prefetch_miss_rate 0
Core_0_STLB_Other_miss 0
Core_0_STLB_Other_miss_rate 0
BERTI TO_L1: 90453565 TO_L2: 25911365 TO_L2_BC_MSHR: 445255
BERTI AVG_LAT: 122.86 NUM_TRACK_LATENCY: 6106602 NUM_CANT_TRACK_LATENCY: 0
BERTI CROSS_PAGE 15905073 NO_CROSS_PAGE: 100459857
BERTI FOUND_BERTI: 20189729 NO_FOUND_BERTI: 13208756
BERTI AVERAGE_ISSUED: 3.27076
