[VMEM] WARNING: physical memory size is smaller than virtual memory size.

*** ChampSim Multicore Out-of-Order Simulator ***
Warmup Instructions: 50000000
Simulation Instructions: 100000000
Number of CPUs: 1
Page size: 4096
STLB ideal mode: l1pref
STLB ideal fill: on
Core 0: /data2/zcq/champsim_traces_gap/cc.web-101B.champsimtrace.xz
VBerti Prefetcher
BERTI HASH ENTANGLING
BERTI IP MASK ffff
Off-chip DRAM Size: 16 GiB Channels: 1 Width: 64-bit Data Rate: 3205 MT/s
Warmup halting CPU 0 at instruction 50000004 cycle 13591474 for remainder of phase
Warmup finished CPU 0 instructions: 50000004 cycles: 13591474 cumulative IPC: 3.679 (Simulation time: 00 hr 02 min 57 sec)
Warmup complete CPU 0 instructions: 50000004 cycles: 13591474 cumulative IPC: 3.679 (Simulation time: 00 hr 02 min 57 sec)
Simulation finished CPU 0 instructions: 100000000 cycles: 148782104 cumulative IPC: 0.6721 (Simulation time: 00 hr 17 min 41 sec)
Simulation complete CPU 0 instructions: 100000000 cycles: 148782104 cumulative IPC: 0.6721 (Simulation time: 00 hr 17 min 41 sec)

ChampSim completed all CPUs

=== Simulation ===
CPU 0 runs /data2/zcq/champsim_traces_gap/cc.web-101B.champsimtrace.xz

Region of Interest Statistics

CPU 0 cumulative IPC: 0.6721 instructions: 100000000 cycles: 148782104
CPU 0 Branch Prediction Accuracy: 94.38% MPKI: 9.172 Average ROB Occupancy at Mispredict: 44.93
Branch type MPKI
BRANCH_DIRECT_JUMP: 0
BRANCH_INDIRECT: 0
BRANCH_CONDITIONAL: 9.172
BRANCH_DIRECT_CALL: 0
BRANCH_INDIRECT_CALL: 0
BRANCH_RETURN: 0

cpu0->cpu0_STLB TOTAL        ACCESS:     170248 HIT:     142944 MISS:      27304 MSHR_MERGE:          0
cpu0->cpu0_STLB LOAD         ACCESS:     170248 HIT:     142944 MISS:      27304 MSHR_MERGE:          0
cpu0->cpu0_STLB RFO          ACCESS:          0 HIT:          0 MISS:          0 MSHR_MERGE:          0
cpu0->cpu0_STLB PREFETCH     ACCESS:          0 HIT:          0 MISS:          0 MSHR_MERGE:          0
cpu0->cpu0_STLB WRITE        ACCESS:          0 HIT:          0 MISS:          0 MSHR_MERGE:          0
cpu0->cpu0_STLB TRANSLATION  ACCESS:          0 HIT:          0 MISS:          0 MSHR_MERGE:          0
cpu0->cpu0_STLB PREFETCH REQUESTED:          0 ISSUED:          0 USEFUL:          0 USELESS:          0 LATE:          0
cpu0->cpu0_STLB AVERAGE MISS LATENCY: 279.3 cycles
cpu0->cpu0_L2C TOTAL        ACCESS:   10426942 HIT:    2911339 MISS:    7515603 MSHR_MERGE:    2460608
cpu0->cpu0_L2C LOAD         ACCESS:    1560452 HIT:     659421 MISS:     901031 MSHR_MERGE:     232278
cpu0->cpu0_L2C RFO          ACCESS:          0 HIT:          0 MISS:          0 MSHR_MERGE:          0
cpu0->cpu0_L2C PREFETCH     ACCESS:    8802774 HIT:    2205256 MISS:    6597518 MSHR_MERGE:    2228330
cpu0->cpu0_L2C WRITE        ACCESS:      44752 HIT:      44541 MISS:        211 MSHR_MERGE:          0
cpu0->cpu0_L2C TRANSLATION  ACCESS:      18964 HIT:       2121 MISS:      16843 MSHR_MERGE:          0
cpu0->cpu0_L2C PREFETCH REQUESTED:    2689688 ISSUED:    2684949 USEFUL:     407039 USELESS:     450431 LATE:      69343
cpu0->cpu0_L2C AVERAGE MISS LATENCY: 192.7 cycles
cpu0->cpu0_L1I TOTAL        ACCESS:    6619704 HIT:    6619704 MISS:          0 MSHR_MERGE:          0
cpu0->cpu0_L1I LOAD         ACCESS:    6619704 HIT:    6619704 MISS:          0 MSHR_MERGE:          0
cpu0->cpu0_L1I RFO          ACCESS:          0 HIT:          0 MISS:          0 MSHR_MERGE:          0
cpu0->cpu0_L1I PREFETCH     ACCESS:          0 HIT:          0 MISS:          0 MSHR_MERGE:          0
cpu0->cpu0_L1I WRITE        ACCESS:          0 HIT:          0 MISS:          0 MSHR_MERGE:          0
cpu0->cpu0_L1I TRANSLATION  ACCESS:          0 HIT:          0 MISS:          0 MSHR_MERGE:          0
cpu0->cpu0_L1I PREFETCH REQUESTED:          0 ISSUED:          0 USEFUL:          0 USELESS:          0 LATE:          0
cpu0->cpu0_L1I AVERAGE MISS LATENCY: - cycles
cpu0->cpu0_L1D TOTAL        ACCESS:   46877315 HIT:   38902868 MISS:    7974447 MSHR_MERGE:     247343
cpu0->cpu0_L1D LOAD         ACCESS:   23939643 HIT:   22177433 MISS:    1762210 MSHR_MERGE:     201758
cpu0->cpu0_L1D RFO          ACCESS:          0 HIT:          0 MISS:          0 MSHR_MERGE:          0
cpu0->cpu0_L1D PREFETCH     ACCESS:   22790428 HIT:   16597569 MISS:    6192859 MSHR_MERGE:      45171
cpu0->cpu0_L1D WRITE        ACCESS:      90224 HIT:      90224 MISS:          0 MSHR_MERGE:          0
cpu0->cpu0_L1D TRANSLATION  ACCESS:      57020 HIT:      37642 MISS:      19378 MSHR_MERGE:        414
cpu0->cpu0_L1D PREFETCH REQUESTED:   92859633 ISSUED:   22790420 USEFUL:    1584234 USELESS:     550275 LATE:     160103
cpu0->cpu0_L1D AVERAGE MISS LATENCY: 120 cycles
cpu0->cpu0_ITLB TOTAL        ACCESS:    5412189 HIT:    5412189 MISS:          0 MSHR_MERGE:          0
cpu0->cpu0_ITLB LOAD         ACCESS:    5412189 HIT:    5412189 MISS:          0 MSHR_MERGE:          0
cpu0->cpu0_ITLB RFO          ACCESS:          0 HIT:          0 MISS:          0 MSHR_MERGE:          0
cpu0->cpu0_ITLB PREFETCH     ACCESS:          0 HIT:          0 MISS:          0 MSHR_MERGE:          0
cpu0->cpu0_ITLB WRITE        ACCESS:          0 HIT:          0 MISS:          0 MSHR_MERGE:          0
cpu0->cpu0_ITLB TRANSLATION  ACCESS:          0 HIT:          0 MISS:          0 MSHR_MERGE:          0
cpu0->cpu0_ITLB PREFETCH REQUESTED:          0 ISSUED:          0 USEFUL:          0 USELESS:          0 LATE:          0
cpu0->cpu0_ITLB AVERAGE MISS LATENCY: - cycles
cpu0->cpu0_DTLB TOTAL        ACCESS:   39181025 HIT:   38888838 MISS:     292187 MSHR_MERGE:     121939
cpu0->cpu0_DTLB LOAD         ACCESS:   39181025 HIT:   38888838 MISS:     292187 MSHR_MERGE:     121939
cpu0->cpu0_DTLB RFO          ACCESS:          0 HIT:          0 MISS:          0 MSHR_MERGE:          0
cpu0->cpu0_DTLB PREFETCH     ACCESS:          0 HIT:          0 MISS:          0 MSHR_MERGE:          0
cpu0->cpu0_DTLB WRITE        ACCESS:          0 HIT:          0 MISS:          0 MSHR_MERGE:          0
cpu0->cpu0_DTLB TRANSLATION  ACCESS:          0 HIT:          0 MISS:          0 MSHR_MERGE:          0
cpu0->cpu0_DTLB PREFETCH REQUESTED:          0 ISSUED:          0 USEFUL:          0 USELESS:          0 LATE:          0
cpu0->cpu0_DTLB AVERAGE MISS LATENCY: 49.95 cycles
cpu0->LLC TOTAL        ACCESS:    5097142 HIT:     183095 MISS:    4914047 MSHR_MERGE:     231712
cpu0->LLC LOAD         ACCESS:     668753 HIT:      55601 MISS:     613152 MSHR_MERGE:      14451
cpu0->LLC RFO          ACCESS:          0 HIT:          0 MISS:          0 MSHR_MERGE:          0
cpu0->LLC PREFETCH     ACCESS:    4369185 HIT:      88016 MISS:    4281169 MSHR_MERGE:     217261
cpu0->LLC WRITE        ACCESS:      42361 HIT:      37355 MISS:       5006 MSHR_MERGE:          0
cpu0->LLC TRANSLATION  ACCESS:      16843 HIT:       2123 MISS:      14720 MSHR_MERGE:          0
cpu0->LLC PREFETCH REQUESTED:          0 ISSUED:          0 USEFUL:          0 USELESS:          0 LATE:          0
cpu0->LLC AVERAGE MISS LATENCY: 212.2 cycles

DRAM Statistics

Channel 0 RQ ROW_BUFFER_HIT:    1008845
  ROW_BUFFER_MISS:    3668434
  AVG DBUS CONGESTED CYCLE: 5.971
Channel 0 WQ ROW_BUFFER_HIT:      11297
  ROW_BUFFER_MISS:      30149
  FULL:          0
Channel 0 REFRESHES ISSUED:      12399

[ROI Statistics]
[System Configuration]
num_cpus 1
cpu_freq 4000
fetch_width 6
decode_width 6
dispatch_width 6
execute_width 6
lq_width 2
sq_width 2
retire_width 6
scheduler_size 128
branch_mispredict_penalty 15
rob_size 352
lq_size 128
sq_size 72
ifetch_buffer_size 64
decode_buffer_size 32
dispatch_buffer_size 32
register_file_size 288
decode_latency 1
dispatch_latency 1
schedule_latency 1
execute_latency 1
page_size 4096
block_size 64
core_0_itlb_set 16
core_0_itlb_way 4
core_0_itlb_rq_size 16
core_0_itlb_wq_size 16
core_0_itlb_pq_size 0
core_0_itlb_mshr_size 8
core_0_itlb_hit_latency 1
core_0_itlb_fill_latency 1
core_0_itlb_max_tag_check 2
core_0_itlb_max_fill 2
core_0_dtlb_set 16
core_0_dtlb_way 4
core_0_dtlb_rq_size 16
core_0_dtlb_wq_size 16
core_0_dtlb_pq_size 0
core_0_dtlb_mshr_size 8
core_0_dtlb_hit_latency 1
core_0_dtlb_fill_latency 1
core_0_dtlb_max_tag_check 2
core_0_dtlb_max_fill 2
core_0_stlb_set 128
core_0_stlb_way 12
core_0_stlb_rq_size 32
core_0_stlb_wq_size 32
core_0_stlb_pq_size 0
core_0_stlb_mshr_size 16
core_0_stlb_hit_latency 4
core_0_stlb_fill_latency 4
core_0_stlb_max_tag_check 1
core_0_stlb_max_fill 1
core_0_l1i_set 64
core_0_l1i_way 8
core_0_l1i_rq_size 64
core_0_l1i_wq_size 64
core_0_l1i_pq_size 32
core_0_l1i_mshr_size 8
core_0_l1i_hit_latency 2
core_0_l1i_fill_latency 2
core_0_l1i_max_tag_check 2
core_0_l1i_max_fill 2
core_0_l1d_set 64
core_0_l1d_way 12
core_0_l1d_rq_size 64
core_0_l1d_wq_size 64
core_0_l1d_pq_size 8
core_0_l1d_mshr_size 16
core_0_l1d_hit_latency 2
core_0_l1d_fill_latency 3
core_0_l1d_max_tag_check 2
core_0_l1d_max_fill 2
core_0_l2c_set 1024
core_0_l2c_way 8
core_0_l2c_rq_size 32
core_0_l2c_wq_size 32
core_0_l2c_pq_size 16
core_0_l2c_mshr_size 32
core_0_l2c_hit_latency 5
core_0_l2c_fill_latency 5
core_0_l2c_max_tag_check 1
core_0_l2c_max_fill 1
llc_set 2048
llc_way 16
llc_rq_size 32
llc_wq_size 32
llc_pq_size 32
llc_mshr_size 64
llc_hit_latency 10
llc_fill_latency 10
llc_max_tag_check 1
llc_max_fill 1
dram_channels 1
dram_ranks 1
dram_bankgroups 8
dram_banks 4
dram_rows 65536
dram_columns 1024
dram_channel_width 8
dram_rq_size 64
dram_wq_size 64
dram_size 17179869184
core_0_itlb_prefetcher no
core_0_dtlb_prefetcher no
core_0_stlb_prefetcher no
core_0_l1i_prefetcher next_line
core_0_l1d_prefetcher vberti
core_0_l2c_prefetcher ip_stride
llc_prefetcher no
llc_replacement drrip

Core_0_instructions 100000000
Core_0_cycles 148782104
Core_0_IPC 0.672124
Core_0_branch_prediction_accuracy 94.385
Core_0_branch_MPKI 9.17233
Core_0_average_ROB_occupancy_at_mispredict 44.9335

Core_0_ITLB_total_access 5412189
Core_0_ITLB_total_hit 5412189
Core_0_ITLB_total_miss 0
Core_0_ITLB_total_MPKI 0
Core_0_ITLB_total_miss_rate 0
Core_0_ITLB_demand_access 5412189
Core_0_ITLB_demand_hit 5412189
Core_0_ITLB_demand_miss 0
Core_0_ITLB_demand_MPKI 0
Core_0_ITLB_demand_miss_rate 0
Core_0_ITLB_load_access 5412189
Core_0_ITLB_load_hit 5412189
Core_0_ITLB_load_miss 0
Core_0_ITLB_load_MPKI 0
Core_0_ITLB_load_miss_rate 0
Core_0_ITLB_rfo_access 0
Core_0_ITLB_rfo_hit 0
Core_0_ITLB_rfo_miss 0
Core_0_ITLB_rfo_MPKI 0
Core_0_ITLB_rfo_miss_rate 0
Core_0_ITLB_prefetch_access 0
Core_0_ITLB_prefetch_hit 0
Core_0_ITLB_prefetch_miss 0
Core_0_ITLB_prefetch_MPKI 0
Core_0_ITLB_prefetch_miss_rate 0
Core_0_ITLB_writeback_access 0
Core_0_ITLB_writeback_hit 0
Core_0_ITLB_writeback_miss 0
Core_0_ITLB_writeback_MPKI 0
Core_0_ITLB_writeback_miss_rate 0
Core_0_ITLB_prefetch_requested 0
Core_0_ITLB_prefetch_issued 0
Core_0_ITLB_prefetch_useful 0
Core_0_ITLB_prefetch_useless 0
Core_0_ITLB_prefetch_late 0
Core_0_ITLB_prefetch_accuracy 0
Core_0_ITLB_prefetch_coverage 0
Core_0_ITLB_total_eviction 0

Core_0_DTLB_total_access 39181025
Core_0_DTLB_total_hit 38888838
Core_0_DTLB_total_miss 292187
Core_0_DTLB_total_MPKI 2.92187
Core_0_DTLB_total_miss_rate 0.00745736
Core_0_DTLB_demand_access 39181025
Core_0_DTLB_demand_hit 38888838
Core_0_DTLB_demand_miss 292187
Core_0_DTLB_demand_MPKI 2.92187
Core_0_DTLB_demand_miss_rate 0.00745736
Core_0_DTLB_load_access 39181025
Core_0_DTLB_load_hit 38888838
Core_0_DTLB_load_miss 292187
Core_0_DTLB_load_MPKI 2.92187
Core_0_DTLB_load_miss_rate 0.00745736
Core_0_DTLB_rfo_access 0
Core_0_DTLB_rfo_hit 0
Core_0_DTLB_rfo_miss 0
Core_0_DTLB_rfo_MPKI 0
Core_0_DTLB_rfo_miss_rate 0
Core_0_DTLB_prefetch_access 0
Core_0_DTLB_prefetch_hit 0
Core_0_DTLB_prefetch_miss 0
Core_0_DTLB_prefetch_MPKI 0
Core_0_DTLB_prefetch_miss_rate 0
Core_0_DTLB_writeback_access 0
Core_0_DTLB_writeback_hit 0
Core_0_DTLB_writeback_miss 0
Core_0_DTLB_writeback_MPKI 0
Core_0_DTLB_writeback_miss_rate 0
Core_0_DTLB_prefetch_requested 0
Core_0_DTLB_prefetch_issued 0
Core_0_DTLB_prefetch_useful 0
Core_0_DTLB_prefetch_useless 0
Core_0_DTLB_prefetch_late 0
Core_0_DTLB_prefetch_accuracy 0
Core_0_DTLB_prefetch_coverage 0
Core_0_DTLB_total_eviction 170248

Core_0_STLB_total_access 170248
Core_0_STLB_total_hit 142944
Core_0_STLB_total_miss 27304
Core_0_STLB_total_MPKI 0.27304
Core_0_STLB_total_miss_rate 0.160378
Core_0_STLB_demand_access 170248
Core_0_STLB_demand_hit 142944
Core_0_STLB_demand_miss 27304
Core_0_STLB_demand_MPKI 0.27304
Core_0_STLB_demand_miss_rate 0.160378
Core_0_STLB_load_access 170248
Core_0_STLB_load_hit 142944
Core_0_STLB_load_miss 27304
Core_0_STLB_load_MPKI 0.27304
Core_0_STLB_load_miss_rate 0.160378
Core_0_STLB_rfo_access 0
Core_0_STLB_rfo_hit 0
Core_0_STLB_rfo_miss 0
Core_0_STLB_rfo_MPKI 0
Core_0_STLB_rfo_miss_rate 0
Core_0_STLB_prefetch_access 0
Core_0_STLB_prefetch_hit 0
Core_0_STLB_prefetch_miss 0
Core_0_STLB_prefetch_MPKI 0
Core_0_STLB_prefetch_miss_rate 0
Core_0_STLB_writeback_access 0
Core_0_STLB_writeback_hit 0
Core_0_STLB_writeback_miss 0
Core_0_STLB_writeback_MPKI 0
Core_0_STLB_writeback_miss_rate 0
Core_0_STLB_prefetch_requested 0
Core_0_STLB_prefetch_issued 0
Core_0_STLB_prefetch_useful 0
Core_0_STLB_prefetch_useless 0
Core_0_STLB_prefetch_late 0
Core_0_STLB_prefetch_accuracy 0
Core_0_STLB_prefetch_coverage 0
Core_0_STLB_total_eviction 133813

Core_0_L1I_total_access 6619704
Core_0_L1I_total_hit 6619704
Core_0_L1I_total_miss 0
Core_0_L1I_total_MPKI 0
Core_0_L1I_total_miss_rate 0
Core_0_L1I_demand_access 6619704
Core_0_L1I_demand_hit 6619704
Core_0_L1I_demand_miss 0
Core_0_L1I_demand_MPKI 0
Core_0_L1I_demand_miss_rate 0
Core_0_L1I_load_access 6619704
Core_0_L1I_load_hit 6619704
Core_0_L1I_load_miss 0
Core_0_L1I_load_MPKI 0
Core_0_L1I_load_miss_rate 0
Core_0_L1I_rfo_access 0
Core_0_L1I_rfo_hit 0
Core_0_L1I_rfo_miss 0
Core_0_L1I_rfo_MPKI 0
Core_0_L1I_rfo_miss_rate 0
Core_0_L1I_prefetch_access 0
Core_0_L1I_prefetch_hit 0
Core_0_L1I_prefetch_miss 0
Core_0_L1I_prefetch_MPKI 0
Core_0_L1I_prefetch_miss_rate 0
Core_0_L1I_writeback_access 0
Core_0_L1I_writeback_hit 0
Core_0_L1I_writeback_miss 0
Core_0_L1I_writeback_MPKI 0
Core_0_L1I_writeback_miss_rate 0
Core_0_L1I_prefetch_requested 0
Core_0_L1I_prefetch_issued 0
Core_0_L1I_prefetch_useful 0
Core_0_L1I_prefetch_useless 0
Core_0_L1I_prefetch_late 0
Core_0_L1I_prefetch_accuracy 0
Core_0_L1I_prefetch_coverage 0
Core_0_L1I_total_eviction 0

Core_0_L1D_total_access 46820295
Core_0_L1D_total_hit 38865226
Core_0_L1D_total_miss 7955069
Core_0_L1D_total_MPKI 79.5507
Core_0_L1D_total_miss_rate 0.169906
Core_0_L1D_demand_access 23939643
Core_0_L1D_demand_hit 22177433
Core_0_L1D_demand_miss 1762210
Core_0_L1D_demand_MPKI 17.6221
Core_0_L1D_demand_miss_rate 0.0736105
Core_0_L1D_load_access 23939643
Core_0_L1D_load_hit 22177433
Core_0_L1D_load_miss 1762210
Core_0_L1D_load_MPKI 17.6221
Core_0_L1D_load_miss_rate 0.0736105
Core_0_L1D_rfo_access 0
Core_0_L1D_rfo_hit 0
Core_0_L1D_rfo_miss 0
Core_0_L1D_rfo_MPKI 0
Core_0_L1D_rfo_miss_rate 0
Core_0_L1D_prefetch_access 22790428
Core_0_L1D_prefetch_hit 16597569
Core_0_L1D_prefetch_miss 6192859
Core_0_L1D_prefetch_MPKI 61.9286
Core_0_L1D_prefetch_miss_rate 0.271731
Core_0_L1D_writeback_access 90224
Core_0_L1D_writeback_hit 90224
Core_0_L1D_writeback_miss 0
Core_0_L1D_writeback_MPKI 0
Core_0_L1D_writeback_miss_rate 0
Core_0_L1D_prefetch_requested 92859633
Core_0_L1D_prefetch_issued 22790420
Core_0_L1D_prefetch_useful 1584234
Core_0_L1D_prefetch_useless 550275
Core_0_L1D_prefetch_late 160103
Core_0_L1D_prefetch_accuracy 0.0695132
Core_0_L1D_prefetch_coverage 0.473408
Core_0_L1D_total_eviction 3713912

Core_0_L2C_total_access 10407978
Core_0_L2C_total_hit 2909218
Core_0_L2C_total_miss 7498760
Core_0_L2C_total_MPKI 74.9876
Core_0_L2C_total_miss_rate 0.720482
Core_0_L2C_demand_access 1560452
Core_0_L2C_demand_hit 659421
Core_0_L2C_demand_miss 901031
Core_0_L2C_demand_MPKI 9.01031
Core_0_L2C_demand_miss_rate 0.577417
Core_0_L2C_load_access 1560452
Core_0_L2C_load_hit 659421
Core_0_L2C_load_miss 901031
Core_0_L2C_load_MPKI 9.01031
Core_0_L2C_load_miss_rate 0.577417
Core_0_L2C_rfo_access 0
Core_0_L2C_rfo_hit 0
Core_0_L2C_rfo_miss 0
Core_0_L2C_rfo_MPKI 0
Core_0_L2C_rfo_miss_rate 0
Core_0_L2C_prefetch_access 8802774
Core_0_L2C_prefetch_hit 2205256
Core_0_L2C_prefetch_miss 6597518
Core_0_L2C_prefetch_MPKI 65.9752
Core_0_L2C_prefetch_miss_rate 0.749482
Core_0_L2C_writeback_access 44752
Core_0_L2C_writeback_hit 44541
Core_0_L2C_writeback_miss 211
Core_0_L2C_writeback_MPKI 0.00211
Core_0_L2C_writeback_miss_rate 0.00471487
Core_0_L2C_prefetch_requested 2689688
Core_0_L2C_prefetch_issued 2684949
Core_0_L2C_prefetch_useful 407039
Core_0_L2C_prefetch_useless 450431
Core_0_L2C_prefetch_late 69343
Core_0_L2C_prefetch_accuracy 0.1516
Core_0_L2C_prefetch_coverage 0.311175
Core_0_L2C_total_eviction 4674426

Core_0_LLC_total_access 5080299
Core_0_LLC_total_hit 180972
Core_0_LLC_total_miss 4899327
Core_0_LLC_total_MPKI 48.9933
Core_0_LLC_total_miss_rate 0.964378
Core_0_LLC_demand_access 668753
Core_0_LLC_demand_hit 55601
Core_0_LLC_demand_miss 613152
Core_0_LLC_demand_MPKI 6.13152
Core_0_LLC_demand_miss_rate 0.916859
Core_0_LLC_load_access 668753
Core_0_LLC_load_hit 55601
Core_0_LLC_load_miss 613152
Core_0_LLC_load_MPKI 6.13152
Core_0_LLC_load_miss_rate 0.916859
Core_0_LLC_rfo_access 0
Core_0_LLC_rfo_hit 0
Core_0_LLC_rfo_miss 0
Core_0_LLC_rfo_MPKI 0
Core_0_LLC_rfo_miss_rate 0
Core_0_LLC_prefetch_access 4369185
Core_0_LLC_prefetch_hit 88016
Core_0_LLC_prefetch_miss 4281169
Core_0_LLC_prefetch_MPKI 42.8117
Core_0_LLC_prefetch_miss_rate 0.979855
Core_0_LLC_writeback_access 42361
Core_0_LLC_writeback_hit 37355
Core_0_LLC_writeback_miss 5006
Core_0_LLC_writeback_MPKI 0.05006
Core_0_LLC_writeback_miss_rate 0.118175
Core_0_LLC_prefetch_requested 0
Core_0_LLC_prefetch_issued 0
Core_0_LLC_prefetch_useful 0
Core_0_LLC_prefetch_useless 0
Core_0_LLC_prefetch_late 0
Core_0_LLC_prefetch_accuracy 0
Core_0_LLC_prefetch_coverage 0
Core_0_LLC_total_eviction 4682322

[DRAM Statistics]
Channel_0_RQ_row_buffer_hit 1008845
Channel_0_RQ_row_buffer_miss 3668434
Channel_0_WQ_row_buffer_hit 11297
Channel_0_WQ_row_buffer_miss 30149
Channel_0_WQ_full 0
Channel_0_dbus_congested 10892213
DRAM_total_RQ_row_buffer_hit 1008845
DRAM_total_RQ_row_buffer_miss 3668434
DRAM_total_WQ_row_buffer_hit 11297
DRAM_total_WQ_row_buffer_miss 30149
DRAM_total_WQ_full 0
DRAM_total_dbus_congested 10892213
DRAM_avg_congested_cycle 5.97117

======STLB miss causes ========
Core_0_STLB_miss_cause_breakdown
Core_0_STLB_cause_Demand_Data_miss 27304
Core_0_STLB_cause_Demand_Data_miss_rate 0.160378
Core_0_STLB_cause_Demand_Instruction_miss 0
Core_0_STLB_cause_Demand_Instruction_miss_rate 0
Core_0_STLB_cause_L1D_Prefetch_miss 0
Core_0_STLB_cause_L1D_Prefetch_miss_rate 0
Core_0_STLB_cause_L1I_Prefetch_miss 0
Core_0_STLB_cause_L1I_Prefetch_miss_rate 0
Core_0_STLB_cause_Other_miss 0
Core_0_STLB_cause_Other_miss_rate 0
Core_0_STLB_Demand_miss 27304
Core_0_STLB_Demand_miss_rate 0.160378
Core_0_STLB_L1D_Prefetch_miss 0
Core_0_STLB_L1D_Prefetch_miss_rate 0
Core_0_STLB_Other_miss 0
Core_0_STLB_Other_miss_rate 0
BERTI TO_L1: 92930860 TO_L2: 32871302 TO_L2_BC_MSHR: 5984087
BERTI AVG_LAT: 105.497 NUM_TRACK_LATENCY: 5879007 NUM_CANT_TRACK_LATENCY: 0
BERTI CROSS_PAGE 21258703 NO_CROSS_PAGE: 104543459
BERTI FOUND_BERTI: 19844673 NO_FOUND_BERTI: 11419738
BERTI AVERAGE_ISSUED: 3.29411
