[VMEM] WARNING: physical memory size is smaller than virtual memory size.

*** ChampSim Multicore Out-of-Order Simulator ***
Warmup Instructions: 50000000
Simulation Instructions: 100000000
Number of CPUs: 1
Page size: 4096
STLB ideal mode: l1pref
STLB ideal fill: on
Core 0: /data0/tzh/champsim_traces/QMM/compute_int_27_new.xz
VBerti Prefetcher
BERTI HASH ENTANGLING
BERTI IP MASK ffff
Off-chip DRAM Size: 16 GiB Channels: 1 Width: 64-bit Data Rate: 3205 MT/s
*** Reached end of trace: (0, "/data0/tzh/champsim_traces/QMM/compute_int_27_new.xz")
[BTB] WARNING: target of return is a lower address than the corresponding call. This is usually a problem with your trace.
[BTB] WARNING: target of return is a lower address than the corresponding call. This is usually a problem with your trace.
[BTB] WARNING: target of return is a lower address than the corresponding call. This is usually a problem with your trace.
Warmup halting CPU 0 at instruction 50000003 cycle 14764852 for remainder of phase
Warmup finished CPU 0 instructions: 50000003 cycles: 14764852 cumulative IPC: 3.386 (Simulation time: 00 hr 02 min 42 sec)
Warmup complete CPU 0 instructions: 50000003 cycles: 14764852 cumulative IPC: 3.386 (Simulation time: 00 hr 02 min 42 sec)
*** Reached end of trace: (0, "/data0/tzh/champsim_traces/QMM/compute_int_27_new.xz")
[BTB] WARNING: target of return is a lower address than the corresponding call. This is usually a problem with your trace.
[BTB] WARNING: target of return is a lower address than the corresponding call. This is usually a problem with your trace.
[BTB] WARNING: target of return is a lower address than the corresponding call. This is usually a problem with your trace.
*** Reached end of trace: (0, "/data0/tzh/champsim_traces/QMM/compute_int_27_new.xz")
[BTB] WARNING: target of return is a lower address than the corresponding call. This is usually a problem with your trace.
[BTB] WARNING: target of return is a lower address than the corresponding call. This is usually a problem with your trace.
[BTB] WARNING: target of return is a lower address than the corresponding call. This is usually a problem with your trace.
*** Reached end of trace: (0, "/data0/tzh/champsim_traces/QMM/compute_int_27_new.xz")
[BTB] WARNING: target of return is a lower address than the corresponding call. This is usually a problem with your trace.
Simulation finished CPU 0 instructions: 100000001 cycles: 186573296 cumulative IPC: 0.536 (Simulation time: 00 hr 29 min 07 sec)
Simulation complete CPU 0 instructions: 100000001 cycles: 186573296 cumulative IPC: 0.536 (Simulation time: 00 hr 29 min 07 sec)

ChampSim completed all CPUs

=== Simulation ===
CPU 0 runs /data0/tzh/champsim_traces/QMM/compute_int_27_new.xz

Region of Interest Statistics

CPU 0 cumulative IPC: 0.536 instructions: 100000001 cycles: 186573296
CPU 0 Branch Prediction Accuracy: 99.34% MPKI: 1.659 Average ROB Occupancy at Mispredict: 244.4
Branch type MPKI
BRANCH_DIRECT_JUMP: 0
BRANCH_INDIRECT: 0
BRANCH_CONDITIONAL: 1.659
BRANCH_DIRECT_CALL: 0
BRANCH_INDIRECT_CALL: 0
BRANCH_RETURN: 9e-05

cpu0->cpu0_STLB TOTAL        ACCESS:     301036 HIT:      38338 MISS:     262698 MSHR_MERGE:          0
cpu0->cpu0_STLB LOAD         ACCESS:     301036 HIT:      38338 MISS:     262698 MSHR_MERGE:          0
cpu0->cpu0_STLB RFO          ACCESS:          0 HIT:          0 MISS:          0 MSHR_MERGE:          0
cpu0->cpu0_STLB PREFETCH     ACCESS:          0 HIT:          0 MISS:          0 MSHR_MERGE:          0
cpu0->cpu0_STLB WRITE        ACCESS:          0 HIT:          0 MISS:          0 MSHR_MERGE:          0
cpu0->cpu0_STLB TRANSLATION  ACCESS:          0 HIT:          0 MISS:          0 MSHR_MERGE:          0
cpu0->cpu0_STLB PREFETCH REQUESTED:          0 ISSUED:          0 USEFUL:          0 USELESS:          0 LATE:          0
cpu0->cpu0_STLB AVERAGE MISS LATENCY: 109.4 cycles
cpu0->cpu0_L2C TOTAL        ACCESS:   11710617 HIT:    2708027 MISS:    9002590 MSHR_MERGE:    5532528
cpu0->cpu0_L2C LOAD         ACCESS:    1929702 HIT:     137531 MISS:    1792171 MSHR_MERGE:     586294
cpu0->cpu0_L2C RFO          ACCESS:      47198 HIT:       5949 MISS:      41249 MSHR_MERGE:         11
cpu0->cpu0_L2C PREFETCH     ACCESS:    8858875 HIT:    1802822 MISS:    7056053 MSHR_MERGE:    4946223
cpu0->cpu0_L2C WRITE        ACCESS:     754272 HIT:     754125 MISS:        147 MSHR_MERGE:          0
cpu0->cpu0_L2C TRANSLATION  ACCESS:     120570 HIT:       7600 MISS:     112970 MSHR_MERGE:          0
cpu0->cpu0_L2C PREFETCH REQUESTED:    5106924 ISSUED:    3607149 USEFUL:     189026 USELESS:      59630 LATE:      71744
cpu0->cpu0_L2C AVERAGE MISS LATENCY: 222 cycles
cpu0->cpu0_L1I TOTAL        ACCESS:   12856206 HIT:   12855897 MISS:        309 MSHR_MERGE:        108
cpu0->cpu0_L1I LOAD         ACCESS:   12856206 HIT:   12855897 MISS:        309 MSHR_MERGE:        108
cpu0->cpu0_L1I RFO          ACCESS:          0 HIT:          0 MISS:          0 MSHR_MERGE:          0
cpu0->cpu0_L1I PREFETCH     ACCESS:          0 HIT:          0 MISS:          0 MSHR_MERGE:          0
cpu0->cpu0_L1I WRITE        ACCESS:          0 HIT:          0 MISS:          0 MSHR_MERGE:          0
cpu0->cpu0_L1I TRANSLATION  ACCESS:          0 HIT:          0 MISS:          0 MSHR_MERGE:          0
cpu0->cpu0_L1I PREFETCH REQUESTED:          0 ISSUED:          0 USEFUL:          0 USELESS:          0 LATE:          0
cpu0->cpu0_L1I AVERAGE MISS LATENCY: 283.9 cycles
cpu0->cpu0_L1D TOTAL        ACCESS:   30193671 HIT:   20930164 MISS:    9263507 MSHR_MERGE:    1697259
cpu0->cpu0_L1D LOAD         ACCESS:   13891706 HIT:   10660867 MISS:    3230839 MSHR_MERGE:    1301338
cpu0->cpu0_L1D RFO          ACCESS:          0 HIT:          0 MISS:          0 MSHR_MERGE:          0
cpu0->cpu0_L1D PREFETCH     ACCESS:    7382503 HIT:    1582988 MISS:    5799515 MSHR_MERGE:     330596
cpu0->cpu0_L1D WRITE        ACCESS:    8404677 HIT:    8302139 MISS:     102538 MSHR_MERGE:      55280
cpu0->cpu0_L1D TRANSLATION  ACCESS:     514785 HIT:     384170 MISS:     130615 MSHR_MERGE:      10045
cpu0->cpu0_L1D PREFETCH REQUESTED:   67398252 ISSUED:    7382501 USEFUL:     582374 USELESS:      81389 LATE:     313256
cpu0->cpu0_L1D AVERAGE MISS LATENCY: 208.6 cycles
cpu0->cpu0_ITLB TOTAL        ACCESS:   11612933 HIT:   11612570 MISS:        363 MSHR_MERGE:        259
cpu0->cpu0_ITLB LOAD         ACCESS:   11612933 HIT:   11612570 MISS:        363 MSHR_MERGE:        259
cpu0->cpu0_ITLB RFO          ACCESS:          0 HIT:          0 MISS:          0 MSHR_MERGE:          0
cpu0->cpu0_ITLB PREFETCH     ACCESS:          0 HIT:          0 MISS:          0 MSHR_MERGE:          0
cpu0->cpu0_ITLB WRITE        ACCESS:          0 HIT:          0 MISS:          0 MSHR_MERGE:          0
cpu0->cpu0_ITLB TRANSLATION  ACCESS:          0 HIT:          0 MISS:          0 MSHR_MERGE:          0
cpu0->cpu0_ITLB PREFETCH REQUESTED:          0 ISSUED:          0 USEFUL:          0 USELESS:          0 LATE:          0
cpu0->cpu0_ITLB AVERAGE MISS LATENCY: 281.9 cycles
cpu0->cpu0_DTLB TOTAL        ACCESS:   26174395 HIT:   25396643 MISS:     777752 MSHR_MERGE:     476820
cpu0->cpu0_DTLB LOAD         ACCESS:   26174395 HIT:   25396643 MISS:     777752 MSHR_MERGE:     476820
cpu0->cpu0_DTLB RFO          ACCESS:          0 HIT:          0 MISS:          0 MSHR_MERGE:          0
cpu0->cpu0_DTLB PREFETCH     ACCESS:          0 HIT:          0 MISS:          0 MSHR_MERGE:          0
cpu0->cpu0_DTLB WRITE        ACCESS:          0 HIT:          0 MISS:          0 MSHR_MERGE:          0
cpu0->cpu0_DTLB TRANSLATION  ACCESS:          0 HIT:          0 MISS:          0 MSHR_MERGE:          0
cpu0->cpu0_DTLB PREFETCH REQUESTED:          0 ISSUED:          0 USEFUL:          0 USELESS:          0 LATE:          0
cpu0->cpu0_DTLB AVERAGE MISS LATENCY: 101.2 cycles
cpu0->LLC TOTAL        ACCESS:    4206678 HIT:     735030 MISS:    3471648 MSHR_MERGE:     492208
cpu0->LLC LOAD         ACCESS:    1205877 HIT:      45955 MISS:    1159922 MSHR_MERGE:      31699
cpu0->LLC RFO          ACCESS:      41238 HIT:        284 MISS:      40954 MSHR_MERGE:          0
cpu0->LLC PREFETCH     ACCESS:    2109777 HIT:       6843 MISS:    2102934 MSHR_MERGE:     460509
cpu0->LLC WRITE        ACCESS:     736816 HIT:     652290 MISS:      84526 MSHR_MERGE:          0
cpu0->LLC TRANSLATION  ACCESS:     112970 HIT:      29658 MISS:      83312 MSHR_MERGE:          0
cpu0->LLC PREFETCH REQUESTED:          0 ISSUED:          0 USEFUL:          0 USELESS:          0 LATE:          0
cpu0->LLC AVERAGE MISS LATENCY: 229.8 cycles

DRAM Statistics

Channel 0 RQ ROW_BUFFER_HIT:     442965
  ROW_BUFFER_MISS:    2451903
  AVG DBUS CONGESTED CYCLE: 5.555
Channel 0 WQ ROW_BUFFER_HIT:     186413
  ROW_BUFFER_MISS:     528501
  FULL:          0
Channel 0 REFRESHES ISSUED:      15548

[ROI Statistics]
[System Configuration]
num_cpus 1
cpu_freq 4000
fetch_width 6
decode_width 6
dispatch_width 6
execute_width 6
lq_width 2
sq_width 2
retire_width 6
scheduler_size 128
branch_mispredict_penalty 15
rob_size 352
lq_size 128
sq_size 72
ifetch_buffer_size 64
decode_buffer_size 32
dispatch_buffer_size 32
register_file_size 288
decode_latency 1
dispatch_latency 1
schedule_latency 1
execute_latency 1
page_size 4096
block_size 64
core_0_itlb_set 16
core_0_itlb_way 4
core_0_itlb_rq_size 16
core_0_itlb_wq_size 16
core_0_itlb_pq_size 0
core_0_itlb_mshr_size 8
core_0_itlb_hit_latency 1
core_0_itlb_fill_latency 1
core_0_itlb_max_tag_check 2
core_0_itlb_max_fill 2
core_0_dtlb_set 16
core_0_dtlb_way 4
core_0_dtlb_rq_size 16
core_0_dtlb_wq_size 16
core_0_dtlb_pq_size 0
core_0_dtlb_mshr_size 8
core_0_dtlb_hit_latency 1
core_0_dtlb_fill_latency 1
core_0_dtlb_max_tag_check 2
core_0_dtlb_max_fill 2
core_0_stlb_set 128
core_0_stlb_way 12
core_0_stlb_rq_size 32
core_0_stlb_wq_size 32
core_0_stlb_pq_size 0
core_0_stlb_mshr_size 16
core_0_stlb_hit_latency 4
core_0_stlb_fill_latency 4
core_0_stlb_max_tag_check 1
core_0_stlb_max_fill 1
core_0_l1i_set 64
core_0_l1i_way 8
core_0_l1i_rq_size 64
core_0_l1i_wq_size 64
core_0_l1i_pq_size 32
core_0_l1i_mshr_size 8
core_0_l1i_hit_latency 2
core_0_l1i_fill_latency 2
core_0_l1i_max_tag_check 2
core_0_l1i_max_fill 2
core_0_l1d_set 64
core_0_l1d_way 12
core_0_l1d_rq_size 64
core_0_l1d_wq_size 64
core_0_l1d_pq_size 8
core_0_l1d_mshr_size 16
core_0_l1d_hit_latency 2
core_0_l1d_fill_latency 3
core_0_l1d_max_tag_check 2
core_0_l1d_max_fill 2
core_0_l2c_set 1024
core_0_l2c_way 8
core_0_l2c_rq_size 32
core_0_l2c_wq_size 32
core_0_l2c_pq_size 16
core_0_l2c_mshr_size 32
core_0_l2c_hit_latency 5
core_0_l2c_fill_latency 5
core_0_l2c_max_tag_check 1
core_0_l2c_max_fill 1
llc_set 2048
llc_way 16
llc_rq_size 32
llc_wq_size 32
llc_pq_size 32
llc_mshr_size 64
llc_hit_latency 10
llc_fill_latency 10
llc_max_tag_check 1
llc_max_fill 1
dram_channels 1
dram_ranks 1
dram_bankgroups 8
dram_banks 4
dram_rows 65536
dram_columns 1024
dram_channel_width 8
dram_rq_size 64
dram_wq_size 64
dram_size 17179869184
core_0_itlb_prefetcher no
core_0_dtlb_prefetcher no
core_0_stlb_prefetcher no
core_0_l1i_prefetcher next_line
core_0_l1d_prefetcher vberti
core_0_l2c_prefetcher ip_stride
llc_prefetcher no
llc_replacement drrip

Core_0_instructions 100000001
Core_0_cycles 186573296
Core_0_IPC 0.535982
Core_0_branch_prediction_accuracy 99.3432
Core_0_branch_MPKI 1.65926
Core_0_average_ROB_occupancy_at_mispredict 244.397

Core_0_ITLB_total_access 11612933
Core_0_ITLB_total_hit 11612570
Core_0_ITLB_total_miss 363
Core_0_ITLB_total_MPKI 0.00363
Core_0_ITLB_total_miss_rate 3.12583e-05
Core_0_ITLB_demand_access 11612933
Core_0_ITLB_demand_hit 11612570
Core_0_ITLB_demand_miss 363
Core_0_ITLB_demand_MPKI 0.00363
Core_0_ITLB_demand_miss_rate 3.12583e-05
Core_0_ITLB_load_access 11612933
Core_0_ITLB_load_hit 11612570
Core_0_ITLB_load_miss 363
Core_0_ITLB_load_MPKI 0.00363
Core_0_ITLB_load_miss_rate 3.12583e-05
Core_0_ITLB_rfo_access 0
Core_0_ITLB_rfo_hit 0
Core_0_ITLB_rfo_miss 0
Core_0_ITLB_rfo_MPKI 0
Core_0_ITLB_rfo_miss_rate 0
Core_0_ITLB_prefetch_access 0
Core_0_ITLB_prefetch_hit 0
Core_0_ITLB_prefetch_miss 0
Core_0_ITLB_prefetch_MPKI 0
Core_0_ITLB_prefetch_miss_rate 0
Core_0_ITLB_writeback_access 0
Core_0_ITLB_writeback_hit 0
Core_0_ITLB_writeback_miss 0
Core_0_ITLB_writeback_MPKI 0
Core_0_ITLB_writeback_miss_rate 0
Core_0_ITLB_prefetch_requested 0
Core_0_ITLB_prefetch_issued 0
Core_0_ITLB_prefetch_useful 0
Core_0_ITLB_prefetch_useless 0
Core_0_ITLB_prefetch_late 0
Core_0_ITLB_prefetch_accuracy 0
Core_0_ITLB_prefetch_coverage 0
Core_0_ITLB_total_eviction 104

Core_0_DTLB_total_access 26174395
Core_0_DTLB_total_hit 25396643
Core_0_DTLB_total_miss 777752
Core_0_DTLB_total_MPKI 7.77752
Core_0_DTLB_total_miss_rate 0.0297142
Core_0_DTLB_demand_access 26174395
Core_0_DTLB_demand_hit 25396643
Core_0_DTLB_demand_miss 777752
Core_0_DTLB_demand_MPKI 7.77752
Core_0_DTLB_demand_miss_rate 0.0297142
Core_0_DTLB_load_access 26174395
Core_0_DTLB_load_hit 25396643
Core_0_DTLB_load_miss 777752
Core_0_DTLB_load_MPKI 7.77752
Core_0_DTLB_load_miss_rate 0.0297142
Core_0_DTLB_rfo_access 0
Core_0_DTLB_rfo_hit 0
Core_0_DTLB_rfo_miss 0
Core_0_DTLB_rfo_MPKI 0
Core_0_DTLB_rfo_miss_rate 0
Core_0_DTLB_prefetch_access 0
Core_0_DTLB_prefetch_hit 0
Core_0_DTLB_prefetch_miss 0
Core_0_DTLB_prefetch_MPKI 0
Core_0_DTLB_prefetch_miss_rate 0
Core_0_DTLB_writeback_access 0
Core_0_DTLB_writeback_hit 0
Core_0_DTLB_writeback_miss 0
Core_0_DTLB_writeback_MPKI 0
Core_0_DTLB_writeback_miss_rate 0
Core_0_DTLB_prefetch_requested 0
Core_0_DTLB_prefetch_issued 0
Core_0_DTLB_prefetch_useful 0
Core_0_DTLB_prefetch_useless 0
Core_0_DTLB_prefetch_late 0
Core_0_DTLB_prefetch_accuracy 0
Core_0_DTLB_prefetch_coverage 0
Core_0_DTLB_total_eviction 300932

Core_0_STLB_total_access 301036
Core_0_STLB_total_hit 38338
Core_0_STLB_total_miss 262698
Core_0_STLB_total_MPKI 2.62698
Core_0_STLB_total_miss_rate 0.872646
Core_0_STLB_demand_access 301036
Core_0_STLB_demand_hit 38338
Core_0_STLB_demand_miss 262698
Core_0_STLB_demand_MPKI 2.62698
Core_0_STLB_demand_miss_rate 0.872646
Core_0_STLB_load_access 301036
Core_0_STLB_load_hit 38338
Core_0_STLB_load_miss 262698
Core_0_STLB_load_MPKI 2.62698
Core_0_STLB_load_miss_rate 0.872646
Core_0_STLB_rfo_access 0
Core_0_STLB_rfo_hit 0
Core_0_STLB_rfo_miss 0
Core_0_STLB_rfo_MPKI 0
Core_0_STLB_rfo_miss_rate 0
Core_0_STLB_prefetch_access 0
Core_0_STLB_prefetch_hit 0
Core_0_STLB_prefetch_miss 0
Core_0_STLB_prefetch_MPKI 0
Core_0_STLB_prefetch_miss_rate 0
Core_0_STLB_writeback_access 0
Core_0_STLB_writeback_hit 0
Core_0_STLB_writeback_miss 0
Core_0_STLB_writeback_MPKI 0
Core_0_STLB_writeback_miss_rate 0
Core_0_STLB_prefetch_requested 0
Core_0_STLB_prefetch_issued 0
Core_0_STLB_prefetch_useful 0
Core_0_STLB_prefetch_useless 0
Core_0_STLB_prefetch_late 0
Core_0_STLB_prefetch_accuracy 0
Core_0_STLB_prefetch_coverage 0
Core_0_STLB_total_eviction 287725

Core_0_L1I_total_access 12856206
Core_0_L1I_total_hit 12855897
Core_0_L1I_total_miss 309
Core_0_L1I_total_MPKI 0.00309
Core_0_L1I_total_miss_rate 2.40351e-05
Core_0_L1I_demand_access 12856206
Core_0_L1I_demand_hit 12855897
Core_0_L1I_demand_miss 309
Core_0_L1I_demand_MPKI 0.00309
Core_0_L1I_demand_miss_rate 2.40351e-05
Core_0_L1I_load_access 12856206
Core_0_L1I_load_hit 12855897
Core_0_L1I_load_miss 309
Core_0_L1I_load_MPKI 0.00309
Core_0_L1I_load_miss_rate 2.40351e-05
Core_0_L1I_rfo_access 0
Core_0_L1I_rfo_hit 0
Core_0_L1I_rfo_miss 0
Core_0_L1I_rfo_MPKI 0
Core_0_L1I_rfo_miss_rate 0
Core_0_L1I_prefetch_access 0
Core_0_L1I_prefetch_hit 0
Core_0_L1I_prefetch_miss 0
Core_0_L1I_prefetch_MPKI 0
Core_0_L1I_prefetch_miss_rate 0
Core_0_L1I_writeback_access 0
Core_0_L1I_writeback_hit 0
Core_0_L1I_writeback_miss 0
Core_0_L1I_writeback_MPKI 0
Core_0_L1I_writeback_miss_rate 0
Core_0_L1I_prefetch_requested 0
Core_0_L1I_prefetch_issued 0
Core_0_L1I_prefetch_useful 0
Core_0_L1I_prefetch_useless 0
Core_0_L1I_prefetch_late 0
Core_0_L1I_prefetch_accuracy 0
Core_0_L1I_prefetch_coverage 0
Core_0_L1I_total_eviction 201

Core_0_L1D_total_access 29678886
Core_0_L1D_total_hit 20545994
Core_0_L1D_total_miss 9132892
Core_0_L1D_total_MPKI 91.3289
Core_0_L1D_total_miss_rate 0.307724
Core_0_L1D_demand_access 13891706
Core_0_L1D_demand_hit 10660867
Core_0_L1D_demand_miss 3230839
Core_0_L1D_demand_MPKI 32.3084
Core_0_L1D_demand_miss_rate 0.232573
Core_0_L1D_load_access 13891706
Core_0_L1D_load_hit 10660867
Core_0_L1D_load_miss 3230839
Core_0_L1D_load_MPKI 32.3084
Core_0_L1D_load_miss_rate 0.232573
Core_0_L1D_rfo_access 0
Core_0_L1D_rfo_hit 0
Core_0_L1D_rfo_miss 0
Core_0_L1D_rfo_MPKI 0
Core_0_L1D_rfo_miss_rate 0
Core_0_L1D_prefetch_access 7382503
Core_0_L1D_prefetch_hit 1582988
Core_0_L1D_prefetch_miss 5799515
Core_0_L1D_prefetch_MPKI 57.9951
Core_0_L1D_prefetch_miss_rate 0.785576
Core_0_L1D_writeback_access 8404677
Core_0_L1D_writeback_hit 8302139
Core_0_L1D_writeback_miss 102538
Core_0_L1D_writeback_MPKI 1.02538
Core_0_L1D_writeback_miss_rate 0.0122001
Core_0_L1D_prefetch_requested 67398252
Core_0_L1D_prefetch_issued 7382501
Core_0_L1D_prefetch_useful 582374
Core_0_L1D_prefetch_useless 81389
Core_0_L1D_prefetch_late 313256
Core_0_L1D_prefetch_accuracy 0.0788857
Core_0_L1D_prefetch_coverage 0.152725
Core_0_L1D_total_eviction 2761052

Core_0_L2C_total_access 11590047
Core_0_L2C_total_hit 2700427
Core_0_L2C_total_miss 8889620
Core_0_L2C_total_MPKI 88.8962
Core_0_L2C_total_miss_rate 0.767005
Core_0_L2C_demand_access 1976900
Core_0_L2C_demand_hit 143480
Core_0_L2C_demand_miss 1833420
Core_0_L2C_demand_MPKI 18.3342
Core_0_L2C_demand_miss_rate 0.927422
Core_0_L2C_load_access 1929702
Core_0_L2C_load_hit 137531
Core_0_L2C_load_miss 1792171
Core_0_L2C_load_MPKI 17.9217
Core_0_L2C_load_miss_rate 0.928729
Core_0_L2C_rfo_access 47198
Core_0_L2C_rfo_hit 5949
Core_0_L2C_rfo_miss 41249
Core_0_L2C_rfo_MPKI 0.41249
Core_0_L2C_rfo_miss_rate 0.873957
Core_0_L2C_prefetch_access 8858875
Core_0_L2C_prefetch_hit 1802822
Core_0_L2C_prefetch_miss 7056053
Core_0_L2C_prefetch_MPKI 70.5605
Core_0_L2C_prefetch_miss_rate 0.796495
Core_0_L2C_writeback_access 754272
Core_0_L2C_writeback_hit 754125
Core_0_L2C_writeback_miss 147
Core_0_L2C_writeback_MPKI 0.00147
Core_0_L2C_writeback_miss_rate 0.00019489
Core_0_L2C_prefetch_requested 5106924
Core_0_L2C_prefetch_issued 3607149
Core_0_L2C_prefetch_useful 189026
Core_0_L2C_prefetch_useless 59630
Core_0_L2C_prefetch_late 71744
Core_0_L2C_prefetch_accuracy 0.0524032
Core_0_L2C_prefetch_coverage 0.0934641
Core_0_L2C_total_eviction 2939263

Core_0_LLC_total_access 4093708
Core_0_LLC_total_hit 705372
Core_0_LLC_total_miss 3388336
Core_0_LLC_total_MPKI 33.8834
Core_0_LLC_total_miss_rate 0.827694
Core_0_LLC_demand_access 1247115
Core_0_LLC_demand_hit 46239
Core_0_LLC_demand_miss 1200876
Core_0_LLC_demand_MPKI 12.0088
Core_0_LLC_demand_miss_rate 0.962923
Core_0_LLC_load_access 1205877
Core_0_LLC_load_hit 45955
Core_0_LLC_load_miss 1159922
Core_0_LLC_load_MPKI 11.5992
Core_0_LLC_load_miss_rate 0.961891
Core_0_LLC_rfo_access 41238
Core_0_LLC_rfo_hit 284
Core_0_LLC_rfo_miss 40954
Core_0_LLC_rfo_MPKI 0.40954
Core_0_LLC_rfo_miss_rate 0.993113
Core_0_LLC_prefetch_access 2109777
Core_0_LLC_prefetch_hit 6843
Core_0_LLC_prefetch_miss 2102934
Core_0_LLC_prefetch_MPKI 21.0293
Core_0_LLC_prefetch_miss_rate 0.996757
Core_0_LLC_writeback_access 736816
Core_0_LLC_writeback_hit 652290
Core_0_LLC_writeback_miss 84526
Core_0_LLC_writeback_MPKI 0.84526
Core_0_LLC_writeback_miss_rate 0.114718
Core_0_LLC_prefetch_requested 0
Core_0_LLC_prefetch_issued 0
Core_0_LLC_prefetch_useful 0
Core_0_LLC_prefetch_useless 0
Core_0_LLC_prefetch_late 0
Core_0_LLC_prefetch_accuracy 0
Core_0_LLC_prefetch_coverage 0
Core_0_LLC_total_eviction 2979418

[DRAM Statistics]
Channel_0_RQ_row_buffer_hit 442965
Channel_0_RQ_row_buffer_miss 2451903
Channel_0_WQ_row_buffer_hit 186413
Channel_0_WQ_row_buffer_miss 528501
Channel_0_WQ_full 0
Channel_0_dbus_congested 10723616
DRAM_total_RQ_row_buffer_hit 442965
DRAM_total_RQ_row_buffer_miss 2451903
DRAM_total_WQ_row_buffer_hit 186413
DRAM_total_WQ_row_buffer_miss 528501
DRAM_total_WQ_full 0
DRAM_total_dbus_congested 10723616
DRAM_avg_congested_cycle 5.55493

======STLB miss causes ========
Core_0_STLB_miss_cause_breakdown
Core_0_STLB_cause_Demand_Data_miss 262600
Core_0_STLB_cause_Demand_Data_miss_rate 0.872321
Core_0_STLB_cause_Demand_Instruction_miss 98
Core_0_STLB_cause_Demand_Instruction_miss_rate 0.000325542
Core_0_STLB_cause_L1D_Prefetch_miss 0
Core_0_STLB_cause_L1D_Prefetch_miss_rate 0
Core_0_STLB_cause_L1I_Prefetch_miss 0
Core_0_STLB_cause_L1I_Prefetch_miss_rate 0
Core_0_STLB_cause_Other_miss 0
Core_0_STLB_cause_Other_miss_rate 0
Core_0_STLB_Demand_miss 262698
Core_0_STLB_Demand_miss_rate 0.872646
Core_0_STLB_L1D_Prefetch_miss 0
Core_0_STLB_L1D_Prefetch_miss_rate 0
Core_0_STLB_Other_miss 0
Core_0_STLB_Other_miss_rate 0
BERTI TO_L1: 5328120 TO_L2: 67461069 TO_L2_BC_MSHR: 34773193
BERTI AVG_LAT: 150.644 NUM_TRACK_LATENCY: 3739918 NUM_CANT_TRACK_LATENCY: 0
BERTI CROSS_PAGE 9047659 NO_CROSS_PAGE: 63741530
BERTI FOUND_BERTI: 18238533 NO_FOUND_BERTI: 19839846
BERTI AVERAGE_ISSUED: 3.66354
