[VMEM] WARNING: physical memory size is smaller than virtual memory size.

*** ChampSim Multicore Out-of-Order Simulator ***
Warmup Instructions: 50000000
Simulation Instructions: 100000000
Number of CPUs: 1
Page size: 4096
STLB ideal mode: l1pref
STLB ideal fill: on
Core 0: /data0/tzh/champsim_traces/QMM/compute_fp_5_new.xz
VBerti Prefetcher
BERTI HASH ENTANGLING
BERTI IP MASK ffff
Off-chip DRAM Size: 16 GiB Channels: 1 Width: 64-bit Data Rate: 3205 MT/s
*** Reached end of trace: (0, "/data0/tzh/champsim_traces/QMM/compute_fp_5_new.xz")
[BTB] WARNING: target of return is a lower address than the corresponding call. This is usually a problem with your trace.
Warmup halting CPU 0 at instruction 50000000 cycle 11060156 for remainder of phase
Warmup finished CPU 0 instructions: 50000000 cycles: 11060156 cumulative IPC: 4.521 (Simulation time: 00 hr 02 min 50 sec)
Warmup complete CPU 0 instructions: 50000000 cycles: 11060156 cumulative IPC: 4.521 (Simulation time: 00 hr 02 min 50 sec)
*** Reached end of trace: (0, "/data0/tzh/champsim_traces/QMM/compute_fp_5_new.xz")
[BTB] WARNING: target of return is a lower address than the corresponding call. This is usually a problem with your trace.
*** Reached end of trace: (0, "/data0/tzh/champsim_traces/QMM/compute_fp_5_new.xz")
[BTB] WARNING: target of return is a lower address than the corresponding call. This is usually a problem with your trace.
*** Reached end of trace: (0, "/data0/tzh/champsim_traces/QMM/compute_fp_5_new.xz")
[BTB] WARNING: target of return is a lower address than the corresponding call. This is usually a problem with your trace.
Simulation finished CPU 0 instructions: 100000001 cycles: 108832882 cumulative IPC: 0.9188 (Simulation time: 00 hr 20 min 30 sec)
Simulation complete CPU 0 instructions: 100000001 cycles: 108832882 cumulative IPC: 0.9188 (Simulation time: 00 hr 20 min 30 sec)

ChampSim completed all CPUs

=== Simulation ===
CPU 0 runs /data0/tzh/champsim_traces/QMM/compute_fp_5_new.xz

Region of Interest Statistics

CPU 0 cumulative IPC: 0.9188 instructions: 100000001 cycles: 108832882
CPU 0 Branch Prediction Accuracy: 100% MPKI: 0.0003 Average ROB Occupancy at Mispredict: 318.6
Branch type MPKI
BRANCH_DIRECT_JUMP: 0
BRANCH_INDIRECT: 0
BRANCH_CONDITIONAL: 0.00027
BRANCH_DIRECT_CALL: 0
BRANCH_INDIRECT_CALL: 0
BRANCH_RETURN: 3e-05

cpu0->cpu0_STLB TOTAL        ACCESS:     976543 HIT:     842005 MISS:     134538 MSHR_MERGE:          0
cpu0->cpu0_STLB LOAD         ACCESS:     976543 HIT:     842005 MISS:     134538 MSHR_MERGE:          0
cpu0->cpu0_STLB RFO          ACCESS:          0 HIT:          0 MISS:          0 MSHR_MERGE:          0
cpu0->cpu0_STLB PREFETCH     ACCESS:          0 HIT:          0 MISS:          0 MSHR_MERGE:          0
cpu0->cpu0_STLB WRITE        ACCESS:          0 HIT:          0 MISS:          0 MSHR_MERGE:          0
cpu0->cpu0_STLB TRANSLATION  ACCESS:          0 HIT:          0 MISS:          0 MSHR_MERGE:          0
cpu0->cpu0_STLB PREFETCH REQUESTED:          0 ISSUED:          0 USEFUL:          0 USELESS:          0 LATE:          0
cpu0->cpu0_STLB AVERAGE MISS LATENCY: 69.45 cycles
cpu0->cpu0_L2C TOTAL        ACCESS:    7401776 HIT:    3076413 MISS:    4325363 MSHR_MERGE:     858129
cpu0->cpu0_L2C LOAD         ACCESS:    2433275 HIT:    1545962 MISS:     887313 MSHR_MERGE:      16304
cpu0->cpu0_L2C RFO          ACCESS:     166534 HIT:      35993 MISS:     130541 MSHR_MERGE:      30933
cpu0->cpu0_L2C PREFETCH     ACCESS:    4173542 HIT:     892821 MISS:    3280721 MSHR_MERGE:     810892
cpu0->cpu0_L2C WRITE        ACCESS:     598013 HIT:     598006 MISS:          7 MSHR_MERGE:          0
cpu0->cpu0_L2C TRANSLATION  ACCESS:      30412 HIT:       3631 MISS:      26781 MSHR_MERGE:          0
cpu0->cpu0_L2C PREFETCH REQUESTED:     748835 ISSUED:     748791 USEFUL:     236494 USELESS:      53688 LATE:      16287
cpu0->cpu0_L2C AVERAGE MISS LATENCY: 301.5 cycles
cpu0->cpu0_L1I TOTAL        ACCESS:   14701657 HIT:   14701594 MISS:         63 MSHR_MERGE:         14
cpu0->cpu0_L1I LOAD         ACCESS:   14701657 HIT:   14701594 MISS:         63 MSHR_MERGE:         14
cpu0->cpu0_L1I RFO          ACCESS:          0 HIT:          0 MISS:          0 MSHR_MERGE:          0
cpu0->cpu0_L1I PREFETCH     ACCESS:          0 HIT:          0 MISS:          0 MSHR_MERGE:          0
cpu0->cpu0_L1I WRITE        ACCESS:          0 HIT:          0 MISS:          0 MSHR_MERGE:          0
cpu0->cpu0_L1I TRANSLATION  ACCESS:          0 HIT:          0 MISS:          0 MSHR_MERGE:          0
cpu0->cpu0_L1I PREFETCH REQUESTED:          0 ISSUED:          0 USEFUL:          0 USELESS:          0 LATE:          0
cpu0->cpu0_L1I AVERAGE MISS LATENCY: 215.7 cycles
cpu0->cpu0_L1D TOTAL        ACCESS:   23063987 HIT:   13820213 MISS:    9243774 MSHR_MERGE:    3096352
cpu0->cpu0_L1D LOAD         ACCESS:   10008412 HIT:    6026467 MISS:    3981945 MSHR_MERGE:    1548719
cpu0->cpu0_L1D RFO          ACCESS:          0 HIT:          0 MISS:          0 MSHR_MERGE:          0
cpu0->cpu0_L1D PREFETCH     ACCESS:    4855877 HIT:    1302906 MISS:    3552971 MSHR_MERGE:      35819
cpu0->cpu0_L1D WRITE        ACCESS:    7930184 HIT:    6251802 MISS:    1678382 MSHR_MERGE:    1511750
cpu0->cpu0_L1D TRANSLATION  ACCESS:     269514 HIT:     239038 MISS:      30476 MSHR_MERGE:         64
cpu0->cpu0_L1D PREFETCH REQUESTED:   38350251 ISSUED:    4855871 USEFUL:    1567835 USELESS:      24840 LATE:      90353
cpu0->cpu0_L1D AVERAGE MISS LATENCY: 135.2 cycles
cpu0->cpu0_ITLB TOTAL        ACCESS:   13408439 HIT:   13408066 MISS:        373 MSHR_MERGE:        283
cpu0->cpu0_ITLB LOAD         ACCESS:   13408439 HIT:   13408066 MISS:        373 MSHR_MERGE:        283
cpu0->cpu0_ITLB RFO          ACCESS:          0 HIT:          0 MISS:          0 MSHR_MERGE:          0
cpu0->cpu0_ITLB PREFETCH     ACCESS:          0 HIT:          0 MISS:          0 MSHR_MERGE:          0
cpu0->cpu0_ITLB WRITE        ACCESS:          0 HIT:          0 MISS:          0 MSHR_MERGE:          0
cpu0->cpu0_ITLB TRANSLATION  ACCESS:          0 HIT:          0 MISS:          0 MSHR_MERGE:          0
cpu0->cpu0_ITLB PREFETCH REQUESTED:          0 ISSUED:          0 USEFUL:          0 USELESS:          0 LATE:          0
cpu0->cpu0_ITLB AVERAGE MISS LATENCY: 359.4 cycles
cpu0->cpu0_DTLB TOTAL        ACCESS:   20352632 HIT:   18632473 MISS:    1720159 MSHR_MERGE:     743706
cpu0->cpu0_DTLB LOAD         ACCESS:   20352632 HIT:   18632473 MISS:    1720159 MSHR_MERGE:     743706
cpu0->cpu0_DTLB RFO          ACCESS:          0 HIT:          0 MISS:          0 MSHR_MERGE:          0
cpu0->cpu0_DTLB PREFETCH     ACCESS:          0 HIT:          0 MISS:          0 MSHR_MERGE:          0
cpu0->cpu0_DTLB WRITE        ACCESS:          0 HIT:          0 MISS:          0 MSHR_MERGE:          0
cpu0->cpu0_DTLB TRANSLATION  ACCESS:          0 HIT:          0 MISS:          0 MSHR_MERGE:          0
cpu0->cpu0_DTLB PREFETCH REQUESTED:          0 ISSUED:          0 USEFUL:          0 USELESS:          0 LATE:          0
cpu0->cpu0_DTLB AVERAGE MISS LATENCY: 14.68 cycles
cpu0->LLC TOTAL        ACCESS:    4062314 HIT:     190760 MISS:    3871554 MSHR_MERGE:      86466
cpu0->LLC LOAD         ACCESS:     871009 HIT:      26305 MISS:     844704 MSHR_MERGE:       1571
cpu0->LLC RFO          ACCESS:      99608 HIT:       2607 MISS:      97001 MSHR_MERGE:       2370
cpu0->LLC PREFETCH     ACCESS:    2469708 HIT:      47149 MISS:    2422559 MSHR_MERGE:      82525
cpu0->LLC WRITE        ACCESS:     595208 HIT:     112756 MISS:     482452 MSHR_MERGE:          0
cpu0->LLC TRANSLATION  ACCESS:      26781 HIT:       1943 MISS:      24838 MSHR_MERGE:          0
cpu0->LLC PREFETCH REQUESTED:          0 ISSUED:          0 USEFUL:          0 USELESS:          0 LATE:          0
cpu0->LLC AVERAGE MISS LATENCY: 197.4 cycles

DRAM Statistics

Channel 0 RQ ROW_BUFFER_HIT:     200682
  ROW_BUFFER_MISS:    3101920
  AVG DBUS CONGESTED CYCLE: 5.367
Channel 0 WQ ROW_BUFFER_HIT:      70811
  ROW_BUFFER_MISS:     531030
  FULL:        117
Channel 0 REFRESHES ISSUED:       9070

[ROI Statistics]
[System Configuration]
num_cpus 1
cpu_freq 4000
fetch_width 6
decode_width 6
dispatch_width 6
execute_width 6
lq_width 2
sq_width 2
retire_width 6
scheduler_size 128
branch_mispredict_penalty 15
rob_size 352
lq_size 128
sq_size 72
ifetch_buffer_size 64
decode_buffer_size 32
dispatch_buffer_size 32
register_file_size 288
decode_latency 1
dispatch_latency 1
schedule_latency 1
execute_latency 1
page_size 4096
block_size 64
core_0_itlb_set 16
core_0_itlb_way 4
core_0_itlb_rq_size 16
core_0_itlb_wq_size 16
core_0_itlb_pq_size 0
core_0_itlb_mshr_size 8
core_0_itlb_hit_latency 1
core_0_itlb_fill_latency 1
core_0_itlb_max_tag_check 2
core_0_itlb_max_fill 2
core_0_dtlb_set 16
core_0_dtlb_way 4
core_0_dtlb_rq_size 16
core_0_dtlb_wq_size 16
core_0_dtlb_pq_size 0
core_0_dtlb_mshr_size 8
core_0_dtlb_hit_latency 1
core_0_dtlb_fill_latency 1
core_0_dtlb_max_tag_check 2
core_0_dtlb_max_fill 2
core_0_stlb_set 128
core_0_stlb_way 12
core_0_stlb_rq_size 32
core_0_stlb_wq_size 32
core_0_stlb_pq_size 0
core_0_stlb_mshr_size 16
core_0_stlb_hit_latency 4
core_0_stlb_fill_latency 4
core_0_stlb_max_tag_check 1
core_0_stlb_max_fill 1
core_0_l1i_set 64
core_0_l1i_way 8
core_0_l1i_rq_size 64
core_0_l1i_wq_size 64
core_0_l1i_pq_size 32
core_0_l1i_mshr_size 8
core_0_l1i_hit_latency 2
core_0_l1i_fill_latency 2
core_0_l1i_max_tag_check 2
core_0_l1i_max_fill 2
core_0_l1d_set 64
core_0_l1d_way 12
core_0_l1d_rq_size 64
core_0_l1d_wq_size 64
core_0_l1d_pq_size 8
core_0_l1d_mshr_size 16
core_0_l1d_hit_latency 2
core_0_l1d_fill_latency 3
core_0_l1d_max_tag_check 2
core_0_l1d_max_fill 2
core_0_l2c_set 1024
core_0_l2c_way 8
core_0_l2c_rq_size 32
core_0_l2c_wq_size 32
core_0_l2c_pq_size 16
core_0_l2c_mshr_size 32
core_0_l2c_hit_latency 5
core_0_l2c_fill_latency 5
core_0_l2c_max_tag_check 1
core_0_l2c_max_fill 1
llc_set 2048
llc_way 16
llc_rq_size 32
llc_wq_size 32
llc_pq_size 32
llc_mshr_size 64
llc_hit_latency 10
llc_fill_latency 10
llc_max_tag_check 1
llc_max_fill 1
dram_channels 1
dram_ranks 1
dram_bankgroups 8
dram_banks 4
dram_rows 65536
dram_columns 1024
dram_channel_width 8
dram_rq_size 64
dram_wq_size 64
dram_size 17179869184
core_0_itlb_prefetcher no
core_0_dtlb_prefetcher no
core_0_stlb_prefetcher no
core_0_l1i_prefetcher next_line
core_0_l1d_prefetcher vberti
core_0_l2c_prefetcher ip_stride
llc_prefetcher no
llc_replacement drrip

Core_0_instructions 100000001
Core_0_cycles 108832882
Core_0_IPC 0.91884
Core_0_branch_prediction_accuracy 99.9991
Core_0_branch_MPKI 0.0003
Core_0_average_ROB_occupancy_at_mispredict 318.6

Core_0_ITLB_total_access 13408439
Core_0_ITLB_total_hit 13408066
Core_0_ITLB_total_miss 373
Core_0_ITLB_total_MPKI 0.00373
Core_0_ITLB_total_miss_rate 2.78183e-05
Core_0_ITLB_demand_access 13408439
Core_0_ITLB_demand_hit 13408066
Core_0_ITLB_demand_miss 373
Core_0_ITLB_demand_MPKI 0.00373
Core_0_ITLB_demand_miss_rate 2.78183e-05
Core_0_ITLB_load_access 13408439
Core_0_ITLB_load_hit 13408066
Core_0_ITLB_load_miss 373
Core_0_ITLB_load_MPKI 0.00373
Core_0_ITLB_load_miss_rate 2.78183e-05
Core_0_ITLB_rfo_access 0
Core_0_ITLB_rfo_hit 0
Core_0_ITLB_rfo_miss 0
Core_0_ITLB_rfo_MPKI 0
Core_0_ITLB_rfo_miss_rate 0
Core_0_ITLB_prefetch_access 0
Core_0_ITLB_prefetch_hit 0
Core_0_ITLB_prefetch_miss 0
Core_0_ITLB_prefetch_MPKI 0
Core_0_ITLB_prefetch_miss_rate 0
Core_0_ITLB_writeback_access 0
Core_0_ITLB_writeback_hit 0
Core_0_ITLB_writeback_miss 0
Core_0_ITLB_writeback_MPKI 0
Core_0_ITLB_writeback_miss_rate 0
Core_0_ITLB_prefetch_requested 0
Core_0_ITLB_prefetch_issued 0
Core_0_ITLB_prefetch_useful 0
Core_0_ITLB_prefetch_useless 0
Core_0_ITLB_prefetch_late 0
Core_0_ITLB_prefetch_accuracy 0
Core_0_ITLB_prefetch_coverage 0
Core_0_ITLB_total_eviction 90

Core_0_DTLB_total_access 20352632
Core_0_DTLB_total_hit 18632473
Core_0_DTLB_total_miss 1720159
Core_0_DTLB_total_MPKI 17.2016
Core_0_DTLB_total_miss_rate 0.0845178
Core_0_DTLB_demand_access 20352632
Core_0_DTLB_demand_hit 18632473
Core_0_DTLB_demand_miss 1720159
Core_0_DTLB_demand_MPKI 17.2016
Core_0_DTLB_demand_miss_rate 0.0845178
Core_0_DTLB_load_access 20352632
Core_0_DTLB_load_hit 18632473
Core_0_DTLB_load_miss 1720159
Core_0_DTLB_load_MPKI 17.2016
Core_0_DTLB_load_miss_rate 0.0845178
Core_0_DTLB_rfo_access 0
Core_0_DTLB_rfo_hit 0
Core_0_DTLB_rfo_miss 0
Core_0_DTLB_rfo_MPKI 0
Core_0_DTLB_rfo_miss_rate 0
Core_0_DTLB_prefetch_access 0
Core_0_DTLB_prefetch_hit 0
Core_0_DTLB_prefetch_miss 0
Core_0_DTLB_prefetch_MPKI 0
Core_0_DTLB_prefetch_miss_rate 0
Core_0_DTLB_writeback_access 0
Core_0_DTLB_writeback_hit 0
Core_0_DTLB_writeback_miss 0
Core_0_DTLB_writeback_MPKI 0
Core_0_DTLB_writeback_miss_rate 0
Core_0_DTLB_prefetch_requested 0
Core_0_DTLB_prefetch_issued 0
Core_0_DTLB_prefetch_useful 0
Core_0_DTLB_prefetch_useless 0
Core_0_DTLB_prefetch_late 0
Core_0_DTLB_prefetch_accuracy 0
Core_0_DTLB_prefetch_coverage 0
Core_0_DTLB_total_eviction 976453

Core_0_STLB_total_access 976543
Core_0_STLB_total_hit 842005
Core_0_STLB_total_miss 134538
Core_0_STLB_total_MPKI 1.34538
Core_0_STLB_total_miss_rate 0.13777
Core_0_STLB_demand_access 976543
Core_0_STLB_demand_hit 842005
Core_0_STLB_demand_miss 134538
Core_0_STLB_demand_MPKI 1.34538
Core_0_STLB_demand_miss_rate 0.13777
Core_0_STLB_load_access 976543
Core_0_STLB_load_hit 842005
Core_0_STLB_load_miss 134538
Core_0_STLB_load_MPKI 1.34538
Core_0_STLB_load_miss_rate 0.13777
Core_0_STLB_rfo_access 0
Core_0_STLB_rfo_hit 0
Core_0_STLB_rfo_miss 0
Core_0_STLB_rfo_MPKI 0
Core_0_STLB_rfo_miss_rate 0
Core_0_STLB_prefetch_access 0
Core_0_STLB_prefetch_hit 0
Core_0_STLB_prefetch_miss 0
Core_0_STLB_prefetch_MPKI 0
Core_0_STLB_prefetch_miss_rate 0
Core_0_STLB_writeback_access 0
Core_0_STLB_writeback_hit 0
Core_0_STLB_writeback_miss 0
Core_0_STLB_writeback_MPKI 0
Core_0_STLB_writeback_miss_rate 0
Core_0_STLB_prefetch_requested 0
Core_0_STLB_prefetch_issued 0
Core_0_STLB_prefetch_useful 0
Core_0_STLB_prefetch_useless 0
Core_0_STLB_prefetch_late 0
Core_0_STLB_prefetch_accuracy 0
Core_0_STLB_prefetch_coverage 0
Core_0_STLB_total_eviction 275972

Core_0_L1I_total_access 14701657
Core_0_L1I_total_hit 14701594
Core_0_L1I_total_miss 63
Core_0_L1I_total_MPKI 0.00063
Core_0_L1I_total_miss_rate 4.28523e-06
Core_0_L1I_demand_access 14701657
Core_0_L1I_demand_hit 14701594
Core_0_L1I_demand_miss 63
Core_0_L1I_demand_MPKI 0.00063
Core_0_L1I_demand_miss_rate 4.28523e-06
Core_0_L1I_load_access 14701657
Core_0_L1I_load_hit 14701594
Core_0_L1I_load_miss 63
Core_0_L1I_load_MPKI 0.00063
Core_0_L1I_load_miss_rate 4.28523e-06
Core_0_L1I_rfo_access 0
Core_0_L1I_rfo_hit 0
Core_0_L1I_rfo_miss 0
Core_0_L1I_rfo_MPKI 0
Core_0_L1I_rfo_miss_rate 0
Core_0_L1I_prefetch_access 0
Core_0_L1I_prefetch_hit 0
Core_0_L1I_prefetch_miss 0
Core_0_L1I_prefetch_MPKI 0
Core_0_L1I_prefetch_miss_rate 0
Core_0_L1I_writeback_access 0
Core_0_L1I_writeback_hit 0
Core_0_L1I_writeback_miss 0
Core_0_L1I_writeback_MPKI 0
Core_0_L1I_writeback_miss_rate 0
Core_0_L1I_prefetch_requested 0
Core_0_L1I_prefetch_issued 0
Core_0_L1I_prefetch_useful 0
Core_0_L1I_prefetch_useless 0
Core_0_L1I_prefetch_late 0
Core_0_L1I_prefetch_accuracy 0
Core_0_L1I_prefetch_coverage 0
Core_0_L1I_total_eviction 49

Core_0_L1D_total_access 22794473
Core_0_L1D_total_hit 13581175
Core_0_L1D_total_miss 9213298
Core_0_L1D_total_MPKI 92.133
Core_0_L1D_total_miss_rate 0.40419
Core_0_L1D_demand_access 10008412
Core_0_L1D_demand_hit 6026467
Core_0_L1D_demand_miss 3981945
Core_0_L1D_demand_MPKI 39.8194
Core_0_L1D_demand_miss_rate 0.39786
Core_0_L1D_load_access 10008412
Core_0_L1D_load_hit 6026467
Core_0_L1D_load_miss 3981945
Core_0_L1D_load_MPKI 39.8194
Core_0_L1D_load_miss_rate 0.39786
Core_0_L1D_rfo_access 0
Core_0_L1D_rfo_hit 0
Core_0_L1D_rfo_miss 0
Core_0_L1D_rfo_MPKI 0
Core_0_L1D_rfo_miss_rate 0
Core_0_L1D_prefetch_access 4855877
Core_0_L1D_prefetch_hit 1302906
Core_0_L1D_prefetch_miss 3552971
Core_0_L1D_prefetch_MPKI 35.5297
Core_0_L1D_prefetch_miss_rate 0.731685
Core_0_L1D_writeback_access 7930184
Core_0_L1D_writeback_hit 6251802
Core_0_L1D_writeback_miss 1678382
Core_0_L1D_writeback_MPKI 16.7838
Core_0_L1D_writeback_miss_rate 0.211645
Core_0_L1D_prefetch_requested 38350251
Core_0_L1D_prefetch_issued 4855871
Core_0_L1D_prefetch_useful 1567835
Core_0_L1D_prefetch_useless 24840
Core_0_L1D_prefetch_late 90353
Core_0_L1D_prefetch_accuracy 0.322874
Core_0_L1D_prefetch_coverage 0.282504
Core_0_L1D_total_eviction 4222930

Core_0_L2C_total_access 7371364
Core_0_L2C_total_hit 3072782
Core_0_L2C_total_miss 4298582
Core_0_L2C_total_MPKI 42.9858
Core_0_L2C_total_miss_rate 0.583146
Core_0_L2C_demand_access 2599809
Core_0_L2C_demand_hit 1581955
Core_0_L2C_demand_miss 1017854
Core_0_L2C_demand_MPKI 10.1785
Core_0_L2C_demand_miss_rate 0.391511
Core_0_L2C_load_access 2433275
Core_0_L2C_load_hit 1545962
Core_0_L2C_load_miss 887313
Core_0_L2C_load_MPKI 8.87313
Core_0_L2C_load_miss_rate 0.364658
Core_0_L2C_rfo_access 166534
Core_0_L2C_rfo_hit 35993
Core_0_L2C_rfo_miss 130541
Core_0_L2C_rfo_MPKI 1.30541
Core_0_L2C_rfo_miss_rate 0.78387
Core_0_L2C_prefetch_access 4173542
Core_0_L2C_prefetch_hit 892821
Core_0_L2C_prefetch_miss 3280721
Core_0_L2C_prefetch_MPKI 32.8072
Core_0_L2C_prefetch_miss_rate 0.786076
Core_0_L2C_writeback_access 598013
Core_0_L2C_writeback_hit 598006
Core_0_L2C_writeback_miss 7
Core_0_L2C_writeback_MPKI 7e-05
Core_0_L2C_writeback_miss_rate 1.17054e-05
Core_0_L2C_prefetch_requested 748835
Core_0_L2C_prefetch_issued 748791
Core_0_L2C_prefetch_useful 236494
Core_0_L2C_prefetch_useless 53688
Core_0_L2C_prefetch_late 16287
Core_0_L2C_prefetch_accuracy 0.315834
Core_0_L2C_prefetch_coverage 0.188539
Core_0_L2C_total_eviction 3331768

Core_0_LLC_total_access 4035533
Core_0_LLC_total_hit 188817
Core_0_LLC_total_miss 3846716
Core_0_LLC_total_MPKI 38.4672
Core_0_LLC_total_miss_rate 0.953211
Core_0_LLC_demand_access 970617
Core_0_LLC_demand_hit 28912
Core_0_LLC_demand_miss 941705
Core_0_LLC_demand_MPKI 9.41705
Core_0_LLC_demand_miss_rate 0.970213
Core_0_LLC_load_access 871009
Core_0_LLC_load_hit 26305
Core_0_LLC_load_miss 844704
Core_0_LLC_load_MPKI 8.44704
Core_0_LLC_load_miss_rate 0.969799
Core_0_LLC_rfo_access 99608
Core_0_LLC_rfo_hit 2607
Core_0_LLC_rfo_miss 97001
Core_0_LLC_rfo_MPKI 0.97001
Core_0_LLC_rfo_miss_rate 0.973827
Core_0_LLC_prefetch_access 2469708
Core_0_LLC_prefetch_hit 47149
Core_0_LLC_prefetch_miss 2422559
Core_0_LLC_prefetch_MPKI 24.2256
Core_0_LLC_prefetch_miss_rate 0.980909
Core_0_LLC_writeback_access 595208
Core_0_LLC_writeback_hit 112756
Core_0_LLC_writeback_miss 482452
Core_0_LLC_writeback_MPKI 4.82452
Core_0_LLC_writeback_miss_rate 0.81056
Core_0_LLC_prefetch_requested 0
Core_0_LLC_prefetch_issued 0
Core_0_LLC_prefetch_useful 0
Core_0_LLC_prefetch_useless 0
Core_0_LLC_prefetch_late 0
Core_0_LLC_prefetch_accuracy 0
Core_0_LLC_prefetch_coverage 0
Core_0_LLC_total_eviction 3785086

[DRAM Statistics]
Channel_0_RQ_row_buffer_hit 200682
Channel_0_RQ_row_buffer_miss 3101920
Channel_0_WQ_row_buffer_hit 70811
Channel_0_WQ_row_buffer_miss 531030
Channel_0_WQ_full 117
Channel_0_dbus_congested 9588125
DRAM_total_RQ_row_buffer_hit 200682
DRAM_total_RQ_row_buffer_miss 3101920
DRAM_total_WQ_row_buffer_hit 70811
DRAM_total_WQ_row_buffer_miss 531030
DRAM_total_WQ_full 117
DRAM_total_dbus_congested 9588125
DRAM_avg_congested_cycle 5.36715

======STLB miss causes ========
Core_0_STLB_miss_cause_breakdown
Core_0_STLB_cause_Demand_Data_miss 134448
Core_0_STLB_cause_Demand_Data_miss_rate 0.137678
Core_0_STLB_cause_Demand_Instruction_miss 90
Core_0_STLB_cause_Demand_Instruction_miss_rate 9.21618e-05
Core_0_STLB_cause_L1D_Prefetch_miss 0
Core_0_STLB_cause_L1D_Prefetch_miss_rate 0
Core_0_STLB_cause_L1I_Prefetch_miss 0
Core_0_STLB_cause_L1I_Prefetch_miss_rate 0
Core_0_STLB_cause_Other_miss 0
Core_0_STLB_cause_Other_miss_rate 0
Core_0_STLB_Demand_miss 134538
Core_0_STLB_Demand_miss_rate 0.13777
Core_0_STLB_L1D_Prefetch_miss 0
Core_0_STLB_L1D_Prefetch_miss_rate 0
Core_0_STLB_Other_miss 0
Core_0_STLB_Other_miss_rate 0
BERTI TO_L1: 38000529 TO_L2: 30666132 TO_L2_BC_MSHR: 13441391
BERTI AVG_LAT: 131.207 NUM_TRACK_LATENCY: 6230906 NUM_CANT_TRACK_LATENCY: 10
BERTI CROSS_PAGE 16742483 NO_CROSS_PAGE: 51924178
BERTI FOUND_BERTI: 21852344 NO_FOUND_BERTI: 10860398
BERTI AVERAGE_ISSUED: 1.40841
