[VMEM] WARNING: physical memory size is smaller than virtual memory size.

*** ChampSim Multicore Out-of-Order Simulator ***
Warmup Instructions: 50000000
Simulation Instructions: 100000000
Number of CPUs: 1
Page size: 4096
STLB ideal mode: l1pref
STLB ideal fill: on
Core 0: /data0/tzh/champsim_traces/QMM/compute_int_14_new.xz
VBerti Prefetcher
BERTI HASH ENTANGLING
BERTI IP MASK ffff
Off-chip DRAM Size: 16 GiB Channels: 1 Width: 64-bit Data Rate: 3205 MT/s
*** Reached end of trace: (0, "/data0/tzh/champsim_traces/QMM/compute_int_14_new.xz")
[BTB] WARNING: target of return is a lower address than the corresponding call. This is usually a problem with your trace.
[BTB] WARNING: target of return is a lower address than the corresponding call. This is usually a problem with your trace.
[BTB] WARNING: target of return is a lower address than the corresponding call. This is usually a problem with your trace.
Warmup halting CPU 0 at instruction 50000002 cycle 11164070 for remainder of phase
Warmup finished CPU 0 instructions: 50000002 cycles: 11164070 cumulative IPC: 4.479 (Simulation time: 00 hr 02 min 09 sec)
Warmup complete CPU 0 instructions: 50000002 cycles: 11164070 cumulative IPC: 4.479 (Simulation time: 00 hr 02 min 09 sec)
*** Reached end of trace: (0, "/data0/tzh/champsim_traces/QMM/compute_int_14_new.xz")
[BTB] WARNING: target of return is a lower address than the corresponding call. This is usually a problem with your trace.
[BTB] WARNING: target of return is a lower address than the corresponding call. This is usually a problem with your trace.
[BTB] WARNING: target of return is a lower address than the corresponding call. This is usually a problem with your trace.
*** Reached end of trace: (0, "/data0/tzh/champsim_traces/QMM/compute_int_14_new.xz")
[BTB] WARNING: target of return is a lower address than the corresponding call. This is usually a problem with your trace.
[BTB] WARNING: target of return is a lower address than the corresponding call. This is usually a problem with your trace.
[BTB] WARNING: target of return is a lower address than the corresponding call. This is usually a problem with your trace.
*** Reached end of trace: (0, "/data0/tzh/champsim_traces/QMM/compute_int_14_new.xz")
[BTB] WARNING: target of return is a lower address than the corresponding call. This is usually a problem with your trace.
Simulation finished CPU 0 instructions: 100000004 cycles: 56455767 cumulative IPC: 1.771 (Simulation time: 00 hr 11 min 05 sec)
Simulation complete CPU 0 instructions: 100000004 cycles: 56455767 cumulative IPC: 1.771 (Simulation time: 00 hr 11 min 05 sec)

ChampSim completed all CPUs

=== Simulation ===
CPU 0 runs /data0/tzh/champsim_traces/QMM/compute_int_14_new.xz

Region of Interest Statistics

CPU 0 cumulative IPC: 1.771 instructions: 100000004 cycles: 56455767
CPU 0 Branch Prediction Accuracy: 99.8% MPKI: 0.5748 Average ROB Occupancy at Mispredict: 172.2
Branch type MPKI
BRANCH_DIRECT_JUMP: 0
BRANCH_INDIRECT: 0.00279
BRANCH_CONDITIONAL: 0.5606
BRANCH_DIRECT_CALL: 0
BRANCH_INDIRECT_CALL: 0.01126
BRANCH_RETURN: 9e-05

cpu0->cpu0_STLB TOTAL        ACCESS:     581986 HIT:      83997 MISS:     497989 MSHR_MERGE:          0
cpu0->cpu0_STLB LOAD         ACCESS:     581986 HIT:      83997 MISS:     497989 MSHR_MERGE:          0
cpu0->cpu0_STLB RFO          ACCESS:          0 HIT:          0 MISS:          0 MSHR_MERGE:          0
cpu0->cpu0_STLB PREFETCH     ACCESS:          0 HIT:          0 MISS:          0 MSHR_MERGE:          0
cpu0->cpu0_STLB WRITE        ACCESS:          0 HIT:          0 MISS:          0 MSHR_MERGE:          0
cpu0->cpu0_STLB TRANSLATION  ACCESS:          0 HIT:          0 MISS:          0 MSHR_MERGE:          0
cpu0->cpu0_STLB PREFETCH REQUESTED:          0 ISSUED:          0 USEFUL:          0 USELESS:          0 LATE:          0
cpu0->cpu0_STLB AVERAGE MISS LATENCY: 46.01 cycles
cpu0->cpu0_L2C TOTAL        ACCESS:    3655796 HIT:    1025365 MISS:    2630431 MSHR_MERGE:     146574
cpu0->cpu0_L2C LOAD         ACCESS:    1825011 HIT:     103705 MISS:    1721306 MSHR_MERGE:      43804
cpu0->cpu0_L2C RFO          ACCESS:      22018 HIT:       2923 MISS:      19095 MSHR_MERGE:        306
cpu0->cpu0_L2C PREFETCH     ACCESS:    1635192 HIT:     872026 MISS:     763166 MSHR_MERGE:     102464
cpu0->cpu0_L2C WRITE        ACCESS:      35201 HIT:      35199 MISS:          2 MSHR_MERGE:          0
cpu0->cpu0_L2C TRANSLATION  ACCESS:     138374 HIT:      11512 MISS:     126862 MSHR_MERGE:          0
cpu0->cpu0_L2C PREFETCH REQUESTED:     531407 ISSUED:     526440 USEFUL:     184135 USELESS:       8756 LATE:       8446
cpu0->cpu0_L2C AVERAGE MISS LATENCY: 148.1 cycles
cpu0->cpu0_L1I TOTAL        ACCESS:    7431589 HIT:    7415497 MISS:      16092 MSHR_MERGE:       6059
cpu0->cpu0_L1I LOAD         ACCESS:    7431589 HIT:    7415497 MISS:      16092 MSHR_MERGE:       6059
cpu0->cpu0_L1I RFO          ACCESS:          0 HIT:          0 MISS:          0 MSHR_MERGE:          0
cpu0->cpu0_L1I PREFETCH     ACCESS:          0 HIT:          0 MISS:          0 MSHR_MERGE:          0
cpu0->cpu0_L1I WRITE        ACCESS:          0 HIT:          0 MISS:          0 MSHR_MERGE:          0
cpu0->cpu0_L1I TRANSLATION  ACCESS:          0 HIT:          0 MISS:          0 MSHR_MERGE:          0
cpu0->cpu0_L1I PREFETCH REQUESTED:          0 ISSUED:          0 USEFUL:          0 USELESS:          0 LATE:          0
cpu0->cpu0_L1I AVERAGE MISS LATENCY: 110.4 cycles
cpu0->cpu0_L1D TOTAL        ACCESS:   23543446 HIT:   20327564 MISS:    3215882 MSHR_MERGE:     115623
cpu0->cpu0_L1D LOAD         ACCESS:    9659568 HIT:    7827152 MISS:    1832416 MSHR_MERGE:      17439
cpu0->cpu0_L1D RFO          ACCESS:          0 HIT:          0 MISS:          0 MSHR_MERGE:          0
cpu0->cpu0_L1D PREFETCH     ACCESS:   10131471 HIT:    8995604 MISS:    1135867 MSHR_MERGE:      10977
cpu0->cpu0_L1D WRITE        ACCESS:    2812405 HIT:    2770848 MISS:      41557 MSHR_MERGE:      19539
cpu0->cpu0_L1D TRANSLATION  ACCESS:     940002 HIT:     733960 MISS:     206042 MSHR_MERGE:      67668
cpu0->cpu0_L1D PREFETCH REQUESTED:   34365445 ISSUED:   10131466 USEFUL:     232835 USELESS:       9121 LATE:       2607
cpu0->cpu0_L1D AVERAGE MISS LATENCY: 148.6 cycles
cpu0->cpu0_ITLB TOTAL        ACCESS:    5391920 HIT:    5388146 MISS:       3774 MSHR_MERGE:       2415
cpu0->cpu0_ITLB LOAD         ACCESS:    5391920 HIT:    5388146 MISS:       3774 MSHR_MERGE:       2415
cpu0->cpu0_ITLB RFO          ACCESS:          0 HIT:          0 MISS:          0 MSHR_MERGE:          0
cpu0->cpu0_ITLB PREFETCH     ACCESS:          0 HIT:          0 MISS:          0 MSHR_MERGE:          0
cpu0->cpu0_ITLB WRITE        ACCESS:          0 HIT:          0 MISS:          0 MSHR_MERGE:          0
cpu0->cpu0_ITLB TRANSLATION  ACCESS:          0 HIT:          0 MISS:          0 MSHR_MERGE:          0
cpu0->cpu0_ITLB PREFETCH REQUESTED:          0 ISSUED:          0 USEFUL:          0 USELESS:          0 LATE:          0
cpu0->cpu0_ITLB AVERAGE MISS LATENCY: 97.82 cycles
cpu0->cpu0_DTLB TOTAL        ACCESS:   17598357 HIT:   16800086 MISS:     798271 MSHR_MERGE:     217644
cpu0->cpu0_DTLB LOAD         ACCESS:   17598357 HIT:   16800086 MISS:     798271 MSHR_MERGE:     217644
cpu0->cpu0_DTLB RFO          ACCESS:          0 HIT:          0 MISS:          0 MSHR_MERGE:          0
cpu0->cpu0_DTLB PREFETCH     ACCESS:          0 HIT:          0 MISS:          0 MSHR_MERGE:          0
cpu0->cpu0_DTLB WRITE        ACCESS:          0 HIT:          0 MISS:          0 MSHR_MERGE:          0
cpu0->cpu0_DTLB TRANSLATION  ACCESS:          0 HIT:          0 MISS:          0 MSHR_MERGE:          0
cpu0->cpu0_DTLB PREFETCH REQUESTED:          0 ISSUED:          0 USEFUL:          0 USELESS:          0 LATE:          0
cpu0->cpu0_DTLB AVERAGE MISS LATENCY: 45.11 cycles
cpu0->LLC TOTAL        ACCESS:    2516973 HIT:    1242133 MISS:    1274840 MSHR_MERGE:       4150
cpu0->LLC LOAD         ACCESS:    1677502 HIT:     762755 MISS:     914747 MSHR_MERGE:       1119
cpu0->LLC RFO          ACCESS:      18789 HIT:       6961 MISS:      11828 MSHR_MERGE:         16
cpu0->LLC PREFETCH     ACCESS:     660702 HIT:     356338 MISS:     304364 MSHR_MERGE:       3015
cpu0->LLC WRITE        ACCESS:      33118 HIT:      19722 MISS:      13396 MSHR_MERGE:          0
cpu0->LLC TRANSLATION  ACCESS:     126862 HIT:      96357 MISS:      30505 MSHR_MERGE:          0
cpu0->LLC PREFETCH REQUESTED:          0 ISSUED:          0 USEFUL:          0 USELESS:          0 LATE:          0
cpu0->LLC AVERAGE MISS LATENCY: 249 cycles

DRAM Statistics

Channel 0 RQ ROW_BUFFER_HIT:       5052
  ROW_BUFFER_MISS:    1252066
  AVG DBUS CONGESTED CYCLE: 3.272
Channel 0 WQ ROW_BUFFER_HIT:       2519
  ROW_BUFFER_MISS:      18519
  FULL:          0
Channel 0 REFRESHES ISSUED:       4704

[ROI Statistics]
[System Configuration]
num_cpus 1
cpu_freq 4000
fetch_width 6
decode_width 6
dispatch_width 6
execute_width 6
lq_width 2
sq_width 2
retire_width 6
scheduler_size 128
branch_mispredict_penalty 15
rob_size 352
lq_size 128
sq_size 72
ifetch_buffer_size 64
decode_buffer_size 32
dispatch_buffer_size 32
register_file_size 288
decode_latency 1
dispatch_latency 1
schedule_latency 1
execute_latency 1
page_size 4096
block_size 64
core_0_itlb_set 16
core_0_itlb_way 4
core_0_itlb_rq_size 16
core_0_itlb_wq_size 16
core_0_itlb_pq_size 0
core_0_itlb_mshr_size 8
core_0_itlb_hit_latency 1
core_0_itlb_fill_latency 1
core_0_itlb_max_tag_check 2
core_0_itlb_max_fill 2
core_0_dtlb_set 16
core_0_dtlb_way 4
core_0_dtlb_rq_size 16
core_0_dtlb_wq_size 16
core_0_dtlb_pq_size 0
core_0_dtlb_mshr_size 8
core_0_dtlb_hit_latency 1
core_0_dtlb_fill_latency 1
core_0_dtlb_max_tag_check 2
core_0_dtlb_max_fill 2
core_0_stlb_set 128
core_0_stlb_way 12
core_0_stlb_rq_size 32
core_0_stlb_wq_size 32
core_0_stlb_pq_size 0
core_0_stlb_mshr_size 16
core_0_stlb_hit_latency 4
core_0_stlb_fill_latency 4
core_0_stlb_max_tag_check 1
core_0_stlb_max_fill 1
core_0_l1i_set 64
core_0_l1i_way 8
core_0_l1i_rq_size 64
core_0_l1i_wq_size 64
core_0_l1i_pq_size 32
core_0_l1i_mshr_size 8
core_0_l1i_hit_latency 2
core_0_l1i_fill_latency 2
core_0_l1i_max_tag_check 2
core_0_l1i_max_fill 2
core_0_l1d_set 64
core_0_l1d_way 12
core_0_l1d_rq_size 64
core_0_l1d_wq_size 64
core_0_l1d_pq_size 8
core_0_l1d_mshr_size 16
core_0_l1d_hit_latency 2
core_0_l1d_fill_latency 3
core_0_l1d_max_tag_check 2
core_0_l1d_max_fill 2
core_0_l2c_set 1024
core_0_l2c_way 8
core_0_l2c_rq_size 32
core_0_l2c_wq_size 32
core_0_l2c_pq_size 16
core_0_l2c_mshr_size 32
core_0_l2c_hit_latency 5
core_0_l2c_fill_latency 5
core_0_l2c_max_tag_check 1
core_0_l2c_max_fill 1
llc_set 2048
llc_way 16
llc_rq_size 32
llc_wq_size 32
llc_pq_size 32
llc_mshr_size 64
llc_hit_latency 10
llc_fill_latency 10
llc_max_tag_check 1
llc_max_fill 1
dram_channels 1
dram_ranks 1
dram_bankgroups 8
dram_banks 4
dram_rows 65536
dram_columns 1024
dram_channel_width 8
dram_rq_size 64
dram_wq_size 64
dram_size 17179869184
core_0_itlb_prefetcher no
core_0_dtlb_prefetcher no
core_0_stlb_prefetcher no
core_0_l1i_prefetcher next_line
core_0_l1d_prefetcher vberti
core_0_l2c_prefetcher ip_stride
llc_prefetcher no
llc_replacement drrip

Core_0_instructions 100000004
Core_0_cycles 56455767
Core_0_IPC 1.7713
Core_0_branch_prediction_accuracy 99.7982
Core_0_branch_MPKI 0.57478
Core_0_average_ROB_occupancy_at_mispredict 172.243

Core_0_ITLB_total_access 5391920
Core_0_ITLB_total_hit 5388146
Core_0_ITLB_total_miss 3774
Core_0_ITLB_total_MPKI 0.03774
Core_0_ITLB_total_miss_rate 0.000699936
Core_0_ITLB_demand_access 5391920
Core_0_ITLB_demand_hit 5388146
Core_0_ITLB_demand_miss 3774
Core_0_ITLB_demand_MPKI 0.03774
Core_0_ITLB_demand_miss_rate 0.000699936
Core_0_ITLB_load_access 5391920
Core_0_ITLB_load_hit 5388146
Core_0_ITLB_load_miss 3774
Core_0_ITLB_load_MPKI 0.03774
Core_0_ITLB_load_miss_rate 0.000699936
Core_0_ITLB_rfo_access 0
Core_0_ITLB_rfo_hit 0
Core_0_ITLB_rfo_miss 0
Core_0_ITLB_rfo_MPKI 0
Core_0_ITLB_rfo_miss_rate 0
Core_0_ITLB_prefetch_access 0
Core_0_ITLB_prefetch_hit 0
Core_0_ITLB_prefetch_miss 0
Core_0_ITLB_prefetch_MPKI 0
Core_0_ITLB_prefetch_miss_rate 0
Core_0_ITLB_writeback_access 0
Core_0_ITLB_writeback_hit 0
Core_0_ITLB_writeback_miss 0
Core_0_ITLB_writeback_MPKI 0
Core_0_ITLB_writeback_miss_rate 0
Core_0_ITLB_prefetch_requested 0
Core_0_ITLB_prefetch_issued 0
Core_0_ITLB_prefetch_useful 0
Core_0_ITLB_prefetch_useless 0
Core_0_ITLB_prefetch_late 0
Core_0_ITLB_prefetch_accuracy 0
Core_0_ITLB_prefetch_coverage 0
Core_0_ITLB_total_eviction 1359

Core_0_DTLB_total_access 17598357
Core_0_DTLB_total_hit 16800086
Core_0_DTLB_total_miss 798271
Core_0_DTLB_total_MPKI 7.98271
Core_0_DTLB_total_miss_rate 0.0453605
Core_0_DTLB_demand_access 17598357
Core_0_DTLB_demand_hit 16800086
Core_0_DTLB_demand_miss 798271
Core_0_DTLB_demand_MPKI 7.98271
Core_0_DTLB_demand_miss_rate 0.0453605
Core_0_DTLB_load_access 17598357
Core_0_DTLB_load_hit 16800086
Core_0_DTLB_load_miss 798271
Core_0_DTLB_load_MPKI 7.98271
Core_0_DTLB_load_miss_rate 0.0453605
Core_0_DTLB_rfo_access 0
Core_0_DTLB_rfo_hit 0
Core_0_DTLB_rfo_miss 0
Core_0_DTLB_rfo_MPKI 0
Core_0_DTLB_rfo_miss_rate 0
Core_0_DTLB_prefetch_access 0
Core_0_DTLB_prefetch_hit 0
Core_0_DTLB_prefetch_miss 0
Core_0_DTLB_prefetch_MPKI 0
Core_0_DTLB_prefetch_miss_rate 0
Core_0_DTLB_writeback_access 0
Core_0_DTLB_writeback_hit 0
Core_0_DTLB_writeback_miss 0
Core_0_DTLB_writeback_MPKI 0
Core_0_DTLB_writeback_miss_rate 0
Core_0_DTLB_prefetch_requested 0
Core_0_DTLB_prefetch_issued 0
Core_0_DTLB_prefetch_useful 0
Core_0_DTLB_prefetch_useless 0
Core_0_DTLB_prefetch_late 0
Core_0_DTLB_prefetch_accuracy 0
Core_0_DTLB_prefetch_coverage 0
Core_0_DTLB_total_eviction 580627

Core_0_STLB_total_access 581986
Core_0_STLB_total_hit 83997
Core_0_STLB_total_miss 497989
Core_0_STLB_total_MPKI 4.97989
Core_0_STLB_total_miss_rate 0.855672
Core_0_STLB_demand_access 581986
Core_0_STLB_demand_hit 83997
Core_0_STLB_demand_miss 497989
Core_0_STLB_demand_MPKI 4.97989
Core_0_STLB_demand_miss_rate 0.855672
Core_0_STLB_load_access 581986
Core_0_STLB_load_hit 83997
Core_0_STLB_load_miss 497989
Core_0_STLB_load_MPKI 4.97989
Core_0_STLB_load_miss_rate 0.855672
Core_0_STLB_rfo_access 0
Core_0_STLB_rfo_hit 0
Core_0_STLB_rfo_miss 0
Core_0_STLB_rfo_MPKI 0
Core_0_STLB_rfo_miss_rate 0
Core_0_STLB_prefetch_access 0
Core_0_STLB_prefetch_hit 0
Core_0_STLB_prefetch_miss 0
Core_0_STLB_prefetch_MPKI 0
Core_0_STLB_prefetch_miss_rate 0
Core_0_STLB_writeback_access 0
Core_0_STLB_writeback_hit 0
Core_0_STLB_writeback_miss 0
Core_0_STLB_writeback_MPKI 0
Core_0_STLB_writeback_miss_rate 0
Core_0_STLB_prefetch_requested 0
Core_0_STLB_prefetch_issued 0
Core_0_STLB_prefetch_useful 0
Core_0_STLB_prefetch_useless 0
Core_0_STLB_prefetch_late 0
Core_0_STLB_prefetch_accuracy 0
Core_0_STLB_prefetch_coverage 0
Core_0_STLB_total_eviction 556595

Core_0_L1I_total_access 7431589
Core_0_L1I_total_hit 7415497
Core_0_L1I_total_miss 16092
Core_0_L1I_total_MPKI 0.16092
Core_0_L1I_total_miss_rate 0.00216535
Core_0_L1I_demand_access 7431589
Core_0_L1I_demand_hit 7415497
Core_0_L1I_demand_miss 16092
Core_0_L1I_demand_MPKI 0.16092
Core_0_L1I_demand_miss_rate 0.00216535
Core_0_L1I_load_access 7431589
Core_0_L1I_load_hit 7415497
Core_0_L1I_load_miss 16092
Core_0_L1I_load_MPKI 0.16092
Core_0_L1I_load_miss_rate 0.00216535
Core_0_L1I_rfo_access 0
Core_0_L1I_rfo_hit 0
Core_0_L1I_rfo_miss 0
Core_0_L1I_rfo_MPKI 0
Core_0_L1I_rfo_miss_rate 0
Core_0_L1I_prefetch_access 0
Core_0_L1I_prefetch_hit 0
Core_0_L1I_prefetch_miss 0
Core_0_L1I_prefetch_MPKI 0
Core_0_L1I_prefetch_miss_rate 0
Core_0_L1I_writeback_access 0
Core_0_L1I_writeback_hit 0
Core_0_L1I_writeback_miss 0
Core_0_L1I_writeback_MPKI 0
Core_0_L1I_writeback_miss_rate 0
Core_0_L1I_prefetch_requested 0
Core_0_L1I_prefetch_issued 0
Core_0_L1I_prefetch_useful 0
Core_0_L1I_prefetch_useless 0
Core_0_L1I_prefetch_late 0
Core_0_L1I_prefetch_accuracy 0
Core_0_L1I_prefetch_coverage 0
Core_0_L1I_total_eviction 10033

Core_0_L1D_total_access 22603444
Core_0_L1D_total_hit 19593604
Core_0_L1D_total_miss 3009840
Core_0_L1D_total_MPKI 30.0984
Core_0_L1D_total_miss_rate 0.133158
Core_0_L1D_demand_access 9659568
Core_0_L1D_demand_hit 7827152
Core_0_L1D_demand_miss 1832416
Core_0_L1D_demand_MPKI 18.3242
Core_0_L1D_demand_miss_rate 0.1897
Core_0_L1D_load_access 9659568
Core_0_L1D_load_hit 7827152
Core_0_L1D_load_miss 1832416
Core_0_L1D_load_MPKI 18.3242
Core_0_L1D_load_miss_rate 0.1897
Core_0_L1D_rfo_access 0
Core_0_L1D_rfo_hit 0
Core_0_L1D_rfo_miss 0
Core_0_L1D_rfo_MPKI 0
Core_0_L1D_rfo_miss_rate 0
Core_0_L1D_prefetch_access 10131471
Core_0_L1D_prefetch_hit 8995604
Core_0_L1D_prefetch_miss 1135867
Core_0_L1D_prefetch_MPKI 11.3587
Core_0_L1D_prefetch_miss_rate 0.112113
Core_0_L1D_writeback_access 2812405
Core_0_L1D_writeback_hit 2770848
Core_0_L1D_writeback_miss 41557
Core_0_L1D_writeback_MPKI 0.41557
Core_0_L1D_writeback_miss_rate 0.0147763
Core_0_L1D_prefetch_requested 34365445
Core_0_L1D_prefetch_issued 10131466
Core_0_L1D_prefetch_useful 232835
Core_0_L1D_prefetch_useless 9121
Core_0_L1D_prefetch_late 2607
Core_0_L1D_prefetch_accuracy 0.0229814
Core_0_L1D_prefetch_coverage 0.112739
Core_0_L1D_total_eviction 2217354

Core_0_L2C_total_access 3517422
Core_0_L2C_total_hit 1013853
Core_0_L2C_total_miss 2503569
Core_0_L2C_total_MPKI 25.0357
Core_0_L2C_total_miss_rate 0.711762
Core_0_L2C_demand_access 1847029
Core_0_L2C_demand_hit 106628
Core_0_L2C_demand_miss 1740401
Core_0_L2C_demand_MPKI 17.404
Core_0_L2C_demand_miss_rate 0.942271
Core_0_L2C_load_access 1825011
Core_0_L2C_load_hit 103705
Core_0_L2C_load_miss 1721306
Core_0_L2C_load_MPKI 17.2131
Core_0_L2C_load_miss_rate 0.943176
Core_0_L2C_rfo_access 22018
Core_0_L2C_rfo_hit 2923
Core_0_L2C_rfo_miss 19095
Core_0_L2C_rfo_MPKI 0.19095
Core_0_L2C_rfo_miss_rate 0.867245
Core_0_L2C_prefetch_access 1635192
Core_0_L2C_prefetch_hit 872026
Core_0_L2C_prefetch_miss 763166
Core_0_L2C_prefetch_MPKI 7.63166
Core_0_L2C_prefetch_miss_rate 0.466713
Core_0_L2C_writeback_access 35201
Core_0_L2C_writeback_hit 35199
Core_0_L2C_writeback_miss 2
Core_0_L2C_writeback_MPKI 2e-05
Core_0_L2C_writeback_miss_rate 5.68166e-05
Core_0_L2C_prefetch_requested 531407
Core_0_L2C_prefetch_issued 526440
Core_0_L2C_prefetch_useful 184135
Core_0_L2C_prefetch_useless 8756
Core_0_L2C_prefetch_late 8446
Core_0_L2C_prefetch_accuracy 0.349774
Core_0_L2C_prefetch_coverage 0.0956776
Core_0_L2C_total_eviction 2451839

Core_0_LLC_total_access 2390111
Core_0_LLC_total_hit 1145776
Core_0_LLC_total_miss 1244335
Core_0_LLC_total_MPKI 12.4433
Core_0_LLC_total_miss_rate 0.520618
Core_0_LLC_demand_access 1696291
Core_0_LLC_demand_hit 769716
Core_0_LLC_demand_miss 926575
Core_0_LLC_demand_MPKI 9.26575
Core_0_LLC_demand_miss_rate 0.546236
Core_0_LLC_load_access 1677502
Core_0_LLC_load_hit 762755
Core_0_LLC_load_miss 914747
Core_0_LLC_load_MPKI 9.14747
Core_0_LLC_load_miss_rate 0.545303
Core_0_LLC_rfo_access 18789
Core_0_LLC_rfo_hit 6961
Core_0_LLC_rfo_miss 11828
Core_0_LLC_rfo_MPKI 0.11828
Core_0_LLC_rfo_miss_rate 0.629517
Core_0_LLC_prefetch_access 660702
Core_0_LLC_prefetch_hit 356338
Core_0_LLC_prefetch_miss 304364
Core_0_LLC_prefetch_MPKI 3.04364
Core_0_LLC_prefetch_miss_rate 0.460668
Core_0_LLC_writeback_access 33118
Core_0_LLC_writeback_hit 19722
Core_0_LLC_writeback_miss 13396
Core_0_LLC_writeback_MPKI 0.13396
Core_0_LLC_writeback_miss_rate 0.404493
Core_0_LLC_prefetch_requested 0
Core_0_LLC_prefetch_issued 0
Core_0_LLC_prefetch_useful 0
Core_0_LLC_prefetch_useless 0
Core_0_LLC_prefetch_late 0
Core_0_LLC_prefetch_accuracy 0
Core_0_LLC_prefetch_coverage 0
Core_0_LLC_total_eviction 1267345

[DRAM Statistics]
Channel_0_RQ_row_buffer_hit 5052
Channel_0_RQ_row_buffer_miss 1252066
Channel_0_WQ_row_buffer_hit 2519
Channel_0_WQ_row_buffer_miss 18519
Channel_0_WQ_full 0
Channel_0_dbus_congested 2118985
DRAM_total_RQ_row_buffer_hit 5052
DRAM_total_RQ_row_buffer_miss 1252066
DRAM_total_WQ_row_buffer_hit 2519
DRAM_total_WQ_row_buffer_miss 18519
DRAM_total_WQ_full 0
DRAM_total_dbus_congested 2118985
DRAM_avg_congested_cycle 3.27162

======STLB miss causes ========
Core_0_STLB_miss_cause_breakdown
Core_0_STLB_cause_Demand_Data_miss 496761
Core_0_STLB_cause_Demand_Data_miss_rate 0.853562
Core_0_STLB_cause_Demand_Instruction_miss 1228
Core_0_STLB_cause_Demand_Instruction_miss_rate 0.00211002
Core_0_STLB_cause_L1D_Prefetch_miss 0
Core_0_STLB_cause_L1D_Prefetch_miss_rate 0
Core_0_STLB_cause_L1I_Prefetch_miss 0
Core_0_STLB_cause_L1I_Prefetch_miss_rate 0
Core_0_STLB_cause_Other_miss 0
Core_0_STLB_cause_Other_miss_rate 0
Core_0_STLB_Demand_miss 497989
Core_0_STLB_Demand_miss_rate 0.855672
Core_0_STLB_L1D_Prefetch_miss 0
Core_0_STLB_L1D_Prefetch_miss_rate 0
Core_0_STLB_Other_miss 0
Core_0_STLB_Other_miss_rate 0
BERTI TO_L1: 31081714 TO_L2: 11497135 TO_L2_BC_MSHR: 4969738
BERTI AVG_LAT: 100.973 NUM_TRACK_LATENCY: 2975996 NUM_CANT_TRACK_LATENCY: 0
BERTI CROSS_PAGE 5151974 NO_CROSS_PAGE: 37426875
BERTI FOUND_BERTI: 9019808 NO_FOUND_BERTI: 10434824
BERTI AVERAGE_ISSUED: 2.6519
