[VMEM] WARNING: physical memory size is smaller than virtual memory size.

*** ChampSim Multicore Out-of-Order Simulator ***
Warmup Instructions: 50000000
Simulation Instructions: 100000000
Number of CPUs: 1
Page size: 4096
STLB ideal mode: l1pref
STLB ideal fill: on
Core 0: /data0/tzh/champsim_traces/Ligra/ligra_PageRank.com-lj.ungraph.gcc_6.3.0_O3.drop_60750M.length_250M.champsimtrace.xz
VBerti Prefetcher
BERTI HASH ENTANGLING
BERTI IP MASK ffff
Off-chip DRAM Size: 16 GiB Channels: 1 Width: 64-bit Data Rate: 3205 MT/s
Warmup halting CPU 0 at instruction 50000005 cycle 13475863 for remainder of phase
Warmup finished CPU 0 instructions: 50000005 cycles: 13475863 cumulative IPC: 3.71 (Simulation time: 00 hr 04 min 07 sec)
Warmup complete CPU 0 instructions: 50000005 cycles: 13475863 cumulative IPC: 3.71 (Simulation time: 00 hr 04 min 07 sec)
Simulation finished CPU 0 instructions: 100000001 cycles: 117029530 cumulative IPC: 0.8545 (Simulation time: 00 hr 25 min 06 sec)
Simulation complete CPU 0 instructions: 100000001 cycles: 117029530 cumulative IPC: 0.8545 (Simulation time: 00 hr 25 min 06 sec)

ChampSim completed all CPUs

=== Simulation ===
CPU 0 runs /data0/tzh/champsim_traces/Ligra/ligra_PageRank.com-lj.ungraph.gcc_6.3.0_O3.drop_60750M.length_250M.champsimtrace.xz

Region of Interest Statistics

CPU 0 cumulative IPC: 0.8545 instructions: 100000001 cycles: 117029530
CPU 0 Branch Prediction Accuracy: 99.36% MPKI: 1.192 Average ROB Occupancy at Mispredict: 108.8
Branch type MPKI
BRANCH_DIRECT_JUMP: 0.00021
BRANCH_INDIRECT: 0
BRANCH_CONDITIONAL: 1.191
BRANCH_DIRECT_CALL: 6e-05
BRANCH_INDIRECT_CALL: 0
BRANCH_RETURN: 9e-05

cpu0->cpu0_STLB TOTAL        ACCESS:     489331 HIT:     160914 MISS:     328417 MSHR_MERGE:          0
cpu0->cpu0_STLB LOAD         ACCESS:     489331 HIT:     160914 MISS:     328417 MSHR_MERGE:          0
cpu0->cpu0_STLB RFO          ACCESS:          0 HIT:          0 MISS:          0 MSHR_MERGE:          0
cpu0->cpu0_STLB PREFETCH     ACCESS:          0 HIT:          0 MISS:          0 MSHR_MERGE:          0
cpu0->cpu0_STLB WRITE        ACCESS:          0 HIT:          0 MISS:          0 MSHR_MERGE:          0
cpu0->cpu0_STLB TRANSLATION  ACCESS:          0 HIT:          0 MISS:          0 MSHR_MERGE:          0
cpu0->cpu0_STLB PREFETCH REQUESTED:          0 ISSUED:          0 USEFUL:          0 USELESS:          0 LATE:          0
cpu0->cpu0_STLB AVERAGE MISS LATENCY: 34.84 cycles
cpu0->cpu0_L2C TOTAL        ACCESS:    9691291 HIT:    2440450 MISS:    7250841 MSHR_MERGE:    3747341
cpu0->cpu0_L2C LOAD         ACCESS:     935132 HIT:     163282 MISS:     771850 MSHR_MERGE:     127386
cpu0->cpu0_L2C RFO          ACCESS:      30392 HIT:       4503 MISS:      25889 MSHR_MERGE:      17527
cpu0->cpu0_L2C PREFETCH     ACCESS:    7234923 HIT:     889531 MISS:    6345392 MSHR_MERGE:    3602428
cpu0->cpu0_L2C WRITE        ACCESS:    1227897 HIT:    1227894 MISS:          3 MSHR_MERGE:          0
cpu0->cpu0_L2C TRANSLATION  ACCESS:     262947 HIT:     155240 MISS:     107707 MSHR_MERGE:          0
cpu0->cpu0_L2C PREFETCH REQUESTED:    3874359 ISSUED:    3821009 USEFUL:     724676 USELESS:     340108 LATE:      91851
cpu0->cpu0_L2C AVERAGE MISS LATENCY: 267.7 cycles
cpu0->cpu0_L1I TOTAL        ACCESS:   14138368 HIT:   14138273 MISS:         95 MSHR_MERGE:         10
cpu0->cpu0_L1I LOAD         ACCESS:   14138368 HIT:   14138273 MISS:         95 MSHR_MERGE:         10
cpu0->cpu0_L1I RFO          ACCESS:          0 HIT:          0 MISS:          0 MSHR_MERGE:          0
cpu0->cpu0_L1I PREFETCH     ACCESS:          0 HIT:          0 MISS:          0 MSHR_MERGE:          0
cpu0->cpu0_L1I WRITE        ACCESS:          0 HIT:          0 MISS:          0 MSHR_MERGE:          0
cpu0->cpu0_L1I TRANSLATION  ACCESS:          0 HIT:          0 MISS:          0 MSHR_MERGE:          0
cpu0->cpu0_L1I PREFETCH REQUESTED:          0 ISSUED:          0 USEFUL:          0 USELESS:          0 LATE:          0
cpu0->cpu0_L1I AVERAGE MISS LATENCY: 206.2 cycles
cpu0->cpu0_L1D TOTAL        ACCESS:   55411753 HIT:   47650807 MISS:    7760946 MSHR_MERGE:    2970191
cpu0->cpu0_L1D LOAD         ACCESS:   14821033 HIT:   12239482 MISS:    2581551 MSHR_MERGE:    1646504
cpu0->cpu0_L1D RFO          ACCESS:          0 HIT:          0 MISS:          0 MSHR_MERGE:          0
cpu0->cpu0_L1D PREFETCH     ACCESS:   31866380 HIT:   28189902 MISS:    3676478 MSHR_MERGE:     114108
cpu0->cpu0_L1D WRITE        ACCESS:    8001506 HIT:    6763371 MISS:    1238135 MSHR_MERGE:    1207743
cpu0->cpu0_L1D TRANSLATION  ACCESS:     722834 HIT:     458052 MISS:     264782 MSHR_MERGE:       1836
cpu0->cpu0_L1D PREFETCH REQUESTED:  134543442 ISSUED:   31866380 USEFUL:    2003175 USELESS:       4660 LATE:     442004
cpu0->cpu0_L1D AVERAGE MISS LATENCY: 236.7 cycles
cpu0->cpu0_ITLB TOTAL        ACCESS:   12214239 HIT:   12214224 MISS:         15 MSHR_MERGE:          7
cpu0->cpu0_ITLB LOAD         ACCESS:   12214239 HIT:   12214224 MISS:         15 MSHR_MERGE:          7
cpu0->cpu0_ITLB RFO          ACCESS:          0 HIT:          0 MISS:          0 MSHR_MERGE:          0
cpu0->cpu0_ITLB PREFETCH     ACCESS:          0 HIT:          0 MISS:          0 MSHR_MERGE:          0
cpu0->cpu0_ITLB WRITE        ACCESS:          0 HIT:          0 MISS:          0 MSHR_MERGE:          0
cpu0->cpu0_ITLB TRANSLATION  ACCESS:          0 HIT:          0 MISS:          0 MSHR_MERGE:          0
cpu0->cpu0_ITLB PREFETCH REQUESTED:          0 ISSUED:          0 USEFUL:          0 USELESS:          0 LATE:          0
cpu0->cpu0_ITLB AVERAGE MISS LATENCY: 494.6 cycles
cpu0->cpu0_DTLB TOTAL        ACCESS:   36086957 HIT:   35529347 MISS:     557610 MSHR_MERGE:      68287
cpu0->cpu0_DTLB LOAD         ACCESS:   36086957 HIT:   35529347 MISS:     557610 MSHR_MERGE:      68287
cpu0->cpu0_DTLB RFO          ACCESS:          0 HIT:          0 MISS:          0 MSHR_MERGE:          0
cpu0->cpu0_DTLB PREFETCH     ACCESS:          0 HIT:          0 MISS:          0 MSHR_MERGE:          0
cpu0->cpu0_DTLB WRITE        ACCESS:          0 HIT:          0 MISS:          0 MSHR_MERGE:          0
cpu0->cpu0_DTLB TRANSLATION  ACCESS:          0 HIT:          0 MISS:          0 MSHR_MERGE:          0
cpu0->cpu0_DTLB PREFETCH REQUESTED:          0 ISSUED:          0 USEFUL:          0 USELESS:          0 LATE:          0
cpu0->cpu0_DTLB AVERAGE MISS LATENCY: 29.06 cycles
cpu0->LLC TOTAL        ACCESS:    4724251 HIT:    1184307 MISS:    3539944 MSHR_MERGE:     337242
cpu0->LLC LOAD         ACCESS:     644464 HIT:      71591 MISS:     572873 MSHR_MERGE:      11693
cpu0->LLC RFO          ACCESS:       8362 HIT:         41 MISS:       8321 MSHR_MERGE:        344
cpu0->LLC PREFETCH     ACCESS:    2742717 HIT:      82609 MISS:    2660108 MSHR_MERGE:     325205
cpu0->LLC WRITE        ACCESS:    1221001 HIT:     927516 MISS:     293485 MSHR_MERGE:          0
cpu0->LLC TRANSLATION  ACCESS:     107707 HIT:     102550 MISS:       5157 MSHR_MERGE:          0
cpu0->LLC PREFETCH REQUESTED:          0 ISSUED:          0 USEFUL:          0 USELESS:          0 LATE:          0
cpu0->LLC AVERAGE MISS LATENCY: 200.9 cycles

DRAM Statistics

Channel 0 RQ ROW_BUFFER_HIT:     310602
  ROW_BUFFER_MISS:    2598608
  AVG DBUS CONGESTED CYCLE: 6.183
Channel 0 WQ ROW_BUFFER_HIT:     136924
  ROW_BUFFER_MISS:    1061232
  FULL:         80
Channel 0 REFRESHES ISSUED:       9753

[ROI Statistics]
[System Configuration]
num_cpus 1
cpu_freq 4000
fetch_width 6
decode_width 6
dispatch_width 6
execute_width 6
lq_width 2
sq_width 2
retire_width 6
scheduler_size 128
branch_mispredict_penalty 15
rob_size 352
lq_size 128
sq_size 72
ifetch_buffer_size 64
decode_buffer_size 32
dispatch_buffer_size 32
register_file_size 288
decode_latency 1
dispatch_latency 1
schedule_latency 1
execute_latency 1
page_size 4096
block_size 64
core_0_itlb_set 16
core_0_itlb_way 4
core_0_itlb_rq_size 16
core_0_itlb_wq_size 16
core_0_itlb_pq_size 0
core_0_itlb_mshr_size 8
core_0_itlb_hit_latency 1
core_0_itlb_fill_latency 1
core_0_itlb_max_tag_check 2
core_0_itlb_max_fill 2
core_0_dtlb_set 16
core_0_dtlb_way 4
core_0_dtlb_rq_size 16
core_0_dtlb_wq_size 16
core_0_dtlb_pq_size 0
core_0_dtlb_mshr_size 8
core_0_dtlb_hit_latency 1
core_0_dtlb_fill_latency 1
core_0_dtlb_max_tag_check 2
core_0_dtlb_max_fill 2
core_0_stlb_set 128
core_0_stlb_way 12
core_0_stlb_rq_size 32
core_0_stlb_wq_size 32
core_0_stlb_pq_size 0
core_0_stlb_mshr_size 16
core_0_stlb_hit_latency 4
core_0_stlb_fill_latency 4
core_0_stlb_max_tag_check 1
core_0_stlb_max_fill 1
core_0_l1i_set 64
core_0_l1i_way 8
core_0_l1i_rq_size 64
core_0_l1i_wq_size 64
core_0_l1i_pq_size 32
core_0_l1i_mshr_size 8
core_0_l1i_hit_latency 2
core_0_l1i_fill_latency 2
core_0_l1i_max_tag_check 2
core_0_l1i_max_fill 2
core_0_l1d_set 64
core_0_l1d_way 12
core_0_l1d_rq_size 64
core_0_l1d_wq_size 64
core_0_l1d_pq_size 8
core_0_l1d_mshr_size 16
core_0_l1d_hit_latency 2
core_0_l1d_fill_latency 3
core_0_l1d_max_tag_check 2
core_0_l1d_max_fill 2
core_0_l2c_set 1024
core_0_l2c_way 8
core_0_l2c_rq_size 32
core_0_l2c_wq_size 32
core_0_l2c_pq_size 16
core_0_l2c_mshr_size 32
core_0_l2c_hit_latency 5
core_0_l2c_fill_latency 5
core_0_l2c_max_tag_check 1
core_0_l2c_max_fill 1
llc_set 2048
llc_way 16
llc_rq_size 32
llc_wq_size 32
llc_pq_size 32
llc_mshr_size 64
llc_hit_latency 10
llc_fill_latency 10
llc_max_tag_check 1
llc_max_fill 1
dram_channels 1
dram_ranks 1
dram_bankgroups 8
dram_banks 4
dram_rows 65536
dram_columns 1024
dram_channel_width 8
dram_rq_size 64
dram_wq_size 64
dram_size 17179869184
core_0_itlb_prefetcher no
core_0_dtlb_prefetcher no
core_0_stlb_prefetcher no
core_0_l1i_prefetcher next_line
core_0_l1d_prefetcher vberti
core_0_l2c_prefetcher ip_stride
llc_prefetcher no
llc_replacement drrip

Core_0_instructions 100000001
Core_0_cycles 117029530
Core_0_IPC 0.854485
Core_0_branch_prediction_accuracy 99.361
Core_0_branch_MPKI 1.19161
Core_0_average_ROB_occupancy_at_mispredict 108.773

Core_0_ITLB_total_access 12214239
Core_0_ITLB_total_hit 12214224
Core_0_ITLB_total_miss 15
Core_0_ITLB_total_MPKI 0.00015
Core_0_ITLB_total_miss_rate 1.22807e-06
Core_0_ITLB_demand_access 12214239
Core_0_ITLB_demand_hit 12214224
Core_0_ITLB_demand_miss 15
Core_0_ITLB_demand_MPKI 0.00015
Core_0_ITLB_demand_miss_rate 1.22807e-06
Core_0_ITLB_load_access 12214239
Core_0_ITLB_load_hit 12214224
Core_0_ITLB_load_miss 15
Core_0_ITLB_load_MPKI 0.00015
Core_0_ITLB_load_miss_rate 1.22807e-06
Core_0_ITLB_rfo_access 0
Core_0_ITLB_rfo_hit 0
Core_0_ITLB_rfo_miss 0
Core_0_ITLB_rfo_MPKI 0
Core_0_ITLB_rfo_miss_rate 0
Core_0_ITLB_prefetch_access 0
Core_0_ITLB_prefetch_hit 0
Core_0_ITLB_prefetch_miss 0
Core_0_ITLB_prefetch_MPKI 0
Core_0_ITLB_prefetch_miss_rate 0
Core_0_ITLB_writeback_access 0
Core_0_ITLB_writeback_hit 0
Core_0_ITLB_writeback_miss 0
Core_0_ITLB_writeback_MPKI 0
Core_0_ITLB_writeback_miss_rate 0
Core_0_ITLB_prefetch_requested 0
Core_0_ITLB_prefetch_issued 0
Core_0_ITLB_prefetch_useful 0
Core_0_ITLB_prefetch_useless 0
Core_0_ITLB_prefetch_late 0
Core_0_ITLB_prefetch_accuracy 0
Core_0_ITLB_prefetch_coverage 0
Core_0_ITLB_total_eviction 0

Core_0_DTLB_total_access 36086957
Core_0_DTLB_total_hit 35529347
Core_0_DTLB_total_miss 557610
Core_0_DTLB_total_MPKI 5.5761
Core_0_DTLB_total_miss_rate 0.0154518
Core_0_DTLB_demand_access 36086957
Core_0_DTLB_demand_hit 35529347
Core_0_DTLB_demand_miss 557610
Core_0_DTLB_demand_MPKI 5.5761
Core_0_DTLB_demand_miss_rate 0.0154518
Core_0_DTLB_load_access 36086957
Core_0_DTLB_load_hit 35529347
Core_0_DTLB_load_miss 557610
Core_0_DTLB_load_MPKI 5.5761
Core_0_DTLB_load_miss_rate 0.0154518
Core_0_DTLB_rfo_access 0
Core_0_DTLB_rfo_hit 0
Core_0_DTLB_rfo_miss 0
Core_0_DTLB_rfo_MPKI 0
Core_0_DTLB_rfo_miss_rate 0
Core_0_DTLB_prefetch_access 0
Core_0_DTLB_prefetch_hit 0
Core_0_DTLB_prefetch_miss 0
Core_0_DTLB_prefetch_MPKI 0
Core_0_DTLB_prefetch_miss_rate 0
Core_0_DTLB_writeback_access 0
Core_0_DTLB_writeback_hit 0
Core_0_DTLB_writeback_miss 0
Core_0_DTLB_writeback_MPKI 0
Core_0_DTLB_writeback_miss_rate 0
Core_0_DTLB_prefetch_requested 0
Core_0_DTLB_prefetch_issued 0
Core_0_DTLB_prefetch_useful 0
Core_0_DTLB_prefetch_useless 0
Core_0_DTLB_prefetch_late 0
Core_0_DTLB_prefetch_accuracy 0
Core_0_DTLB_prefetch_coverage 0
Core_0_DTLB_total_eviction 489327

Core_0_STLB_total_access 489331
Core_0_STLB_total_hit 160914
Core_0_STLB_total_miss 328417
Core_0_STLB_total_MPKI 3.28417
Core_0_STLB_total_miss_rate 0.671155
Core_0_STLB_demand_access 489331
Core_0_STLB_demand_hit 160914
Core_0_STLB_demand_miss 328417
Core_0_STLB_demand_MPKI 3.28417
Core_0_STLB_demand_miss_rate 0.671155
Core_0_STLB_load_access 489331
Core_0_STLB_load_hit 160914
Core_0_STLB_load_miss 328417
Core_0_STLB_load_MPKI 3.28417
Core_0_STLB_load_miss_rate 0.671155
Core_0_STLB_rfo_access 0
Core_0_STLB_rfo_hit 0
Core_0_STLB_rfo_miss 0
Core_0_STLB_rfo_MPKI 0
Core_0_STLB_rfo_miss_rate 0
Core_0_STLB_prefetch_access 0
Core_0_STLB_prefetch_hit 0
Core_0_STLB_prefetch_miss 0
Core_0_STLB_prefetch_MPKI 0
Core_0_STLB_prefetch_miss_rate 0
Core_0_STLB_writeback_access 0
Core_0_STLB_writeback_hit 0
Core_0_STLB_writeback_miss 0
Core_0_STLB_writeback_MPKI 0
Core_0_STLB_writeback_miss_rate 0
Core_0_STLB_prefetch_requested 0
Core_0_STLB_prefetch_issued 0
Core_0_STLB_prefetch_useful 0
Core_0_STLB_prefetch_useless 0
Core_0_STLB_prefetch_late 0
Core_0_STLB_prefetch_accuracy 0
Core_0_STLB_prefetch_coverage 0
Core_0_STLB_total_eviction 365994

Core_0_L1I_total_access 14138368
Core_0_L1I_total_hit 14138273
Core_0_L1I_total_miss 95
Core_0_L1I_total_MPKI 0.00095
Core_0_L1I_total_miss_rate 6.7193e-06
Core_0_L1I_demand_access 14138368
Core_0_L1I_demand_hit 14138273
Core_0_L1I_demand_miss 95
Core_0_L1I_demand_MPKI 0.00095
Core_0_L1I_demand_miss_rate 6.7193e-06
Core_0_L1I_load_access 14138368
Core_0_L1I_load_hit 14138273
Core_0_L1I_load_miss 95
Core_0_L1I_load_MPKI 0.00095
Core_0_L1I_load_miss_rate 6.7193e-06
Core_0_L1I_rfo_access 0
Core_0_L1I_rfo_hit 0
Core_0_L1I_rfo_miss 0
Core_0_L1I_rfo_MPKI 0
Core_0_L1I_rfo_miss_rate 0
Core_0_L1I_prefetch_access 0
Core_0_L1I_prefetch_hit 0
Core_0_L1I_prefetch_miss 0
Core_0_L1I_prefetch_MPKI 0
Core_0_L1I_prefetch_miss_rate 0
Core_0_L1I_writeback_access 0
Core_0_L1I_writeback_hit 0
Core_0_L1I_writeback_miss 0
Core_0_L1I_writeback_MPKI 0
Core_0_L1I_writeback_miss_rate 0
Core_0_L1I_prefetch_requested 0
Core_0_L1I_prefetch_issued 0
Core_0_L1I_prefetch_useful 0
Core_0_L1I_prefetch_useless 0
Core_0_L1I_prefetch_late 0
Core_0_L1I_prefetch_accuracy 0
Core_0_L1I_prefetch_coverage 0
Core_0_L1I_total_eviction 0

Core_0_L1D_total_access 54688919
Core_0_L1D_total_hit 47192755
Core_0_L1D_total_miss 7496164
Core_0_L1D_total_MPKI 74.9616
Core_0_L1D_total_miss_rate 0.137069
Core_0_L1D_demand_access 14821033
Core_0_L1D_demand_hit 12239482
Core_0_L1D_demand_miss 2581551
Core_0_L1D_demand_MPKI 25.8155
Core_0_L1D_demand_miss_rate 0.174182
Core_0_L1D_load_access 14821033
Core_0_L1D_load_hit 12239482
Core_0_L1D_load_miss 2581551
Core_0_L1D_load_MPKI 25.8155
Core_0_L1D_load_miss_rate 0.174182
Core_0_L1D_rfo_access 0
Core_0_L1D_rfo_hit 0
Core_0_L1D_rfo_miss 0
Core_0_L1D_rfo_MPKI 0
Core_0_L1D_rfo_miss_rate 0
Core_0_L1D_prefetch_access 31866380
Core_0_L1D_prefetch_hit 28189902
Core_0_L1D_prefetch_miss 3676478
Core_0_L1D_prefetch_MPKI 36.7648
Core_0_L1D_prefetch_miss_rate 0.115372
Core_0_L1D_writeback_access 8001506
Core_0_L1D_writeback_hit 6763371
Core_0_L1D_writeback_miss 1238135
Core_0_L1D_writeback_MPKI 12.3813
Core_0_L1D_writeback_miss_rate 0.154738
Core_0_L1D_prefetch_requested 134543442
Core_0_L1D_prefetch_issued 31866380
Core_0_L1D_prefetch_useful 2003175
Core_0_L1D_prefetch_useless 4660
Core_0_L1D_prefetch_late 442004
Core_0_L1D_prefetch_accuracy 0.0628617
Core_0_L1D_prefetch_coverage 0.436924
Core_0_L1D_total_eviction 3236209

Core_0_L2C_total_access 9428344
Core_0_L2C_total_hit 2285210
Core_0_L2C_total_miss 7143134
Core_0_L2C_total_MPKI 71.4313
Core_0_L2C_total_miss_rate 0.757623
Core_0_L2C_demand_access 965524
Core_0_L2C_demand_hit 167785
Core_0_L2C_demand_miss 797739
Core_0_L2C_demand_MPKI 7.97739
Core_0_L2C_demand_miss_rate 0.826224
Core_0_L2C_load_access 935132
Core_0_L2C_load_hit 163282
Core_0_L2C_load_miss 771850
Core_0_L2C_load_MPKI 7.7185
Core_0_L2C_load_miss_rate 0.825391
Core_0_L2C_rfo_access 30392
Core_0_L2C_rfo_hit 4503
Core_0_L2C_rfo_miss 25889
Core_0_L2C_rfo_MPKI 0.25889
Core_0_L2C_rfo_miss_rate 0.851836
Core_0_L2C_prefetch_access 7234923
Core_0_L2C_prefetch_hit 889531
Core_0_L2C_prefetch_miss 6345392
Core_0_L2C_prefetch_MPKI 63.4539
Core_0_L2C_prefetch_miss_rate 0.87705
Core_0_L2C_writeback_access 1227897
Core_0_L2C_writeback_hit 1227894
Core_0_L2C_writeback_miss 3
Core_0_L2C_writeback_MPKI 3e-05
Core_0_L2C_writeback_miss_rate 2.4432e-06
Core_0_L2C_prefetch_requested 3874359
Core_0_L2C_prefetch_issued 3821009
Core_0_L2C_prefetch_useful 724676
Core_0_L2C_prefetch_useless 340108
Core_0_L2C_prefetch_late 91851
Core_0_L2C_prefetch_accuracy 0.189656
Core_0_L2C_prefetch_coverage 0.476004
Core_0_L2C_total_eviction 3065573

Core_0_LLC_total_access 4616544
Core_0_LLC_total_hit 1081757
Core_0_LLC_total_miss 3534787
Core_0_LLC_total_MPKI 35.3479
Core_0_LLC_total_miss_rate 0.765678
Core_0_LLC_demand_access 652826
Core_0_LLC_demand_hit 71632
Core_0_LLC_demand_miss 581194
Core_0_LLC_demand_MPKI 5.81194
Core_0_LLC_demand_miss_rate 0.890274
Core_0_LLC_load_access 644464
Core_0_LLC_load_hit 71591
Core_0_LLC_load_miss 572873
Core_0_LLC_load_MPKI 5.72873
Core_0_LLC_load_miss_rate 0.888914
Core_0_LLC_rfo_access 8362
Core_0_LLC_rfo_hit 41
Core_0_LLC_rfo_miss 8321
Core_0_LLC_rfo_MPKI 0.08321
Core_0_LLC_rfo_miss_rate 0.995097
Core_0_LLC_prefetch_access 2742717
Core_0_LLC_prefetch_hit 82609
Core_0_LLC_prefetch_miss 2660108
Core_0_LLC_prefetch_MPKI 26.6011
Core_0_LLC_prefetch_miss_rate 0.969881
Core_0_LLC_writeback_access 1221001
Core_0_LLC_writeback_hit 927516
Core_0_LLC_writeback_miss 293485
Core_0_LLC_writeback_MPKI 2.93485
Core_0_LLC_writeback_miss_rate 0.240364
Core_0_LLC_prefetch_requested 0
Core_0_LLC_prefetch_issued 0
Core_0_LLC_prefetch_useful 0
Core_0_LLC_prefetch_useless 0
Core_0_LLC_prefetch_late 0
Core_0_LLC_prefetch_accuracy 0
Core_0_LLC_prefetch_coverage 0
Core_0_LLC_total_eviction 3202694

[DRAM Statistics]
Channel_0_RQ_row_buffer_hit 310602
Channel_0_RQ_row_buffer_miss 2598608
Channel_0_WQ_row_buffer_hit 136924
Channel_0_WQ_row_buffer_miss 1061232
Channel_0_WQ_full 80
Channel_0_dbus_congested 12646860
DRAM_total_RQ_row_buffer_hit 310602
DRAM_total_RQ_row_buffer_miss 2598608
DRAM_total_WQ_row_buffer_hit 136924
DRAM_total_WQ_row_buffer_miss 1061232
DRAM_total_WQ_full 80
DRAM_total_dbus_congested 12646860
DRAM_avg_congested_cycle 6.18346

======STLB miss causes ========
Core_0_STLB_miss_cause_breakdown
Core_0_STLB_cause_Demand_Data_miss 328409
Core_0_STLB_cause_Demand_Data_miss_rate 0.671139
Core_0_STLB_cause_Demand_Instruction_miss 8
Core_0_STLB_cause_Demand_Instruction_miss_rate 1.63489e-05
Core_0_STLB_cause_L1D_Prefetch_miss 0
Core_0_STLB_cause_L1D_Prefetch_miss_rate 0
Core_0_STLB_cause_L1I_Prefetch_miss 0
Core_0_STLB_cause_L1I_Prefetch_miss_rate 0
Core_0_STLB_cause_Other_miss 0
Core_0_STLB_cause_Other_miss_rate 0
Core_0_STLB_Demand_miss 328417
Core_0_STLB_Demand_miss_rate 0.671155
Core_0_STLB_L1D_Prefetch_miss 0
Core_0_STLB_L1D_Prefetch_miss_rate 0
Core_0_STLB_Other_miss 0
Core_0_STLB_Other_miss_rate 0
BERTI TO_L1: 104148497 TO_L2: 43696983 TO_L2_BC_MSHR: 20208891
BERTI AVG_LAT: 165.995 NUM_TRACK_LATENCY: 5929137 NUM_CANT_TRACK_LATENCY: 10
BERTI CROSS_PAGE 18471839 NO_CROSS_PAGE: 129373641
BERTI FOUND_BERTI: 23567759 NO_FOUND_BERTI: 10804991
BERTI AVERAGE_ISSUED: 4.22357
