[VMEM] WARNING: physical memory size is smaller than virtual memory size.

*** ChampSim Multicore Out-of-Order Simulator ***
Warmup Instructions: 50000000
Simulation Instructions: 100000000
Number of CPUs: 1
Page size: 4096
STLB ideal mode: l1pref
STLB ideal fill: on
Core 0: /data0/tzh/champsim_traces/Ligra/ligra_BellmanFord.com-lj.ungraph.gcc_6.3.0_O3.drop_33750M.length_250M.champsimtrace.xz
VBerti Prefetcher
BERTI HASH ENTANGLING
BERTI IP MASK ffff
Off-chip DRAM Size: 16 GiB Channels: 1 Width: 64-bit Data Rate: 3205 MT/s
Warmup halting CPU 0 at instruction 50000005 cycle 12482993 for remainder of phase
Warmup finished CPU 0 instructions: 50000005 cycles: 12482993 cumulative IPC: 4.005 (Simulation time: 00 hr 03 min 13 sec)
Warmup complete CPU 0 instructions: 50000005 cycles: 12482993 cumulative IPC: 4.005 (Simulation time: 00 hr 03 min 13 sec)
Simulation finished CPU 0 instructions: 100000000 cycles: 248183692 cumulative IPC: 0.4029 (Simulation time: 00 hr 26 min 23 sec)
Simulation complete CPU 0 instructions: 100000000 cycles: 248183692 cumulative IPC: 0.4029 (Simulation time: 00 hr 26 min 23 sec)

ChampSim completed all CPUs

=== Simulation ===
CPU 0 runs /data0/tzh/champsim_traces/Ligra/ligra_BellmanFord.com-lj.ungraph.gcc_6.3.0_O3.drop_33750M.length_250M.champsimtrace.xz

Region of Interest Statistics

CPU 0 cumulative IPC: 0.4029 instructions: 100000000 cycles: 248183692
CPU 0 Branch Prediction Accuracy: 88.13% MPKI: 18.4 Average ROB Occupancy at Mispredict: 26.04
Branch type MPKI
BRANCH_DIRECT_JUMP: 1.331
BRANCH_INDIRECT: 0
BRANCH_CONDITIONAL: 17.07
BRANCH_DIRECT_CALL: 0
BRANCH_INDIRECT_CALL: 0
BRANCH_RETURN: 0

cpu0->cpu0_STLB TOTAL        ACCESS:    1615489 HIT:    1023758 MISS:     591731 MSHR_MERGE:          0
cpu0->cpu0_STLB LOAD         ACCESS:    1615489 HIT:    1023758 MISS:     591731 MSHR_MERGE:          0
cpu0->cpu0_STLB RFO          ACCESS:          0 HIT:          0 MISS:          0 MSHR_MERGE:          0
cpu0->cpu0_STLB PREFETCH     ACCESS:          0 HIT:          0 MISS:          0 MSHR_MERGE:          0
cpu0->cpu0_STLB WRITE        ACCESS:          0 HIT:          0 MISS:          0 MSHR_MERGE:          0
cpu0->cpu0_STLB TRANSLATION  ACCESS:          0 HIT:          0 MISS:          0 MSHR_MERGE:          0
cpu0->cpu0_STLB PREFETCH REQUESTED:          0 ISSUED:          0 USEFUL:          0 USELESS:          0 LATE:          0
cpu0->cpu0_STLB AVERAGE MISS LATENCY: 22.97 cycles
cpu0->cpu0_L2C TOTAL        ACCESS:    9831166 HIT:    5356828 MISS:    4474338 MSHR_MERGE:     838500
cpu0->cpu0_L2C LOAD         ACCESS:    2087262 HIT:     320699 MISS:    1766563 MSHR_MERGE:       8275
cpu0->cpu0_L2C RFO          ACCESS:     120311 HIT:       7300 MISS:     113011 MSHR_MERGE:          3
cpu0->cpu0_L2C PREFETCH     ACCESS:    6725892 HIT:    4222279 MISS:    2503613 MSHR_MERGE:     830222
cpu0->cpu0_L2C WRITE        ACCESS:     420730 HIT:     420685 MISS:         45 MSHR_MERGE:          0
cpu0->cpu0_L2C TRANSLATION  ACCESS:     476971 HIT:     385865 MISS:      91106 MSHR_MERGE:          0
cpu0->cpu0_L2C PREFETCH REQUESTED:    1819930 ISSUED:    1819867 USEFUL:     416049 USELESS:     166818 LATE:       4975
cpu0->cpu0_L2C AVERAGE MISS LATENCY: 189.9 cycles
cpu0->cpu0_L1I TOTAL        ACCESS:    1147479 HIT:    1147479 MISS:          0 MSHR_MERGE:          0
cpu0->cpu0_L1I LOAD         ACCESS:    1147479 HIT:    1147479 MISS:          0 MSHR_MERGE:          0
cpu0->cpu0_L1I RFO          ACCESS:          0 HIT:          0 MISS:          0 MSHR_MERGE:          0
cpu0->cpu0_L1I PREFETCH     ACCESS:          0 HIT:          0 MISS:          0 MSHR_MERGE:          0
cpu0->cpu0_L1I WRITE        ACCESS:          0 HIT:          0 MISS:          0 MSHR_MERGE:          0
cpu0->cpu0_L1I TRANSLATION  ACCESS:          0 HIT:          0 MISS:          0 MSHR_MERGE:          0
cpu0->cpu0_L1I PREFETCH REQUESTED:          0 ISSUED:          0 USEFUL:          0 USELESS:          0 LATE:          0
cpu0->cpu0_L1I AVERAGE MISS LATENCY: - cycles
cpu0->cpu0_L1D TOTAL        ACCESS:   48761667 HIT:   40481762 MISS:    8279905 MSHR_MERGE:     635540
cpu0->cpu0_L1D LOAD         ACCESS:   23227095 HIT:   20558306 MISS:    2668789 MSHR_MERGE:     581526
cpu0->cpu0_L1D RFO          ACCESS:          0 HIT:          0 MISS:          0 MSHR_MERGE:          0
cpu0->cpu0_L1D PREFETCH     ACCESS:   23596714 HIT:   18617576 MISS:    4979138 MSHR_MERGE:      19318
cpu0->cpu0_L1D WRITE        ACCESS:     756471 HIT:     602608 MISS:     153863 MSHR_MERGE:      33552
cpu0->cpu0_L1D TRANSLATION  ACCESS:    1181387 HIT:     703272 MISS:     478115 MSHR_MERGE:       1144
cpu0->cpu0_L1D PREFETCH REQUESTED:   74765309 ISSUED:   23596706 USEFUL:    1076406 USELESS:     274741 LATE:      14155
cpu0->cpu0_L1D AVERAGE MISS LATENCY: 148 cycles
cpu0->cpu0_ITLB TOTAL        ACCESS:    1147473 HIT:    1147473 MISS:          0 MSHR_MERGE:          0
cpu0->cpu0_ITLB LOAD         ACCESS:    1147473 HIT:    1147473 MISS:          0 MSHR_MERGE:          0
cpu0->cpu0_ITLB RFO          ACCESS:          0 HIT:          0 MISS:          0 MSHR_MERGE:          0
cpu0->cpu0_ITLB PREFETCH     ACCESS:          0 HIT:          0 MISS:          0 MSHR_MERGE:          0
cpu0->cpu0_ITLB WRITE        ACCESS:          0 HIT:          0 MISS:          0 MSHR_MERGE:          0
cpu0->cpu0_ITLB TRANSLATION  ACCESS:          0 HIT:          0 MISS:          0 MSHR_MERGE:          0
cpu0->cpu0_ITLB PREFETCH REQUESTED:          0 ISSUED:          0 USEFUL:          0 USELESS:          0 LATE:          0
cpu0->cpu0_ITLB AVERAGE MISS LATENCY: - cycles
cpu0->cpu0_DTLB TOTAL        ACCESS:   39258977 HIT:   37454466 MISS:    1804511 MSHR_MERGE:     189022
cpu0->cpu0_DTLB LOAD         ACCESS:   39258977 HIT:   37454466 MISS:    1804511 MSHR_MERGE:     189022
cpu0->cpu0_DTLB RFO          ACCESS:          0 HIT:          0 MISS:          0 MSHR_MERGE:          0
cpu0->cpu0_DTLB PREFETCH     ACCESS:          0 HIT:          0 MISS:          0 MSHR_MERGE:          0
cpu0->cpu0_DTLB WRITE        ACCESS:          0 HIT:          0 MISS:          0 MSHR_MERGE:          0
cpu0->cpu0_DTLB TRANSLATION  ACCESS:          0 HIT:          0 MISS:          0 MSHR_MERGE:          0
cpu0->cpu0_DTLB PREFETCH REQUESTED:          0 ISSUED:          0 USEFUL:          0 USELESS:          0 LATE:          0
cpu0->cpu0_DTLB AVERAGE MISS LATENCY: 13.78 cycles
cpu0->LLC TOTAL        ACCESS:    4038463 HIT:     545809 MISS:    3492654 MSHR_MERGE:      14228
cpu0->LLC LOAD         ACCESS:    1758288 HIT:     306881 MISS:    1451407 MSHR_MERGE:         77
cpu0->LLC RFO          ACCESS:     113008 HIT:      15002 MISS:      98006 MSHR_MERGE:          0
cpu0->LLC PREFETCH     ACCESS:    1673383 HIT:      30727 MISS:    1642656 MSHR_MERGE:      14151
cpu0->LLC WRITE        ACCESS:     402678 HIT:     106107 MISS:     296571 MSHR_MERGE:          0
cpu0->LLC TRANSLATION  ACCESS:      91106 HIT:      87092 MISS:       4014 MSHR_MERGE:          0
cpu0->LLC PREFETCH REQUESTED:          0 ISSUED:          0 USEFUL:          0 USELESS:          0 LATE:          0
cpu0->LLC AVERAGE MISS LATENCY: 186.4 cycles

DRAM Statistics

Channel 0 RQ ROW_BUFFER_HIT:      53241
  ROW_BUFFER_MISS:    3128582
  AVG DBUS CONGESTED CYCLE: 13.03
Channel 0 WQ ROW_BUFFER_HIT:     100854
  ROW_BUFFER_MISS:     253609
  FULL:          0
Channel 0 REFRESHES ISSUED:      20682

[ROI Statistics]
[System Configuration]
num_cpus 1
cpu_freq 4000
fetch_width 6
decode_width 6
dispatch_width 6
execute_width 6
lq_width 2
sq_width 2
retire_width 6
scheduler_size 128
branch_mispredict_penalty 15
rob_size 352
lq_size 128
sq_size 72
ifetch_buffer_size 64
decode_buffer_size 32
dispatch_buffer_size 32
register_file_size 288
decode_latency 1
dispatch_latency 1
schedule_latency 1
execute_latency 1
page_size 4096
block_size 64
core_0_itlb_set 16
core_0_itlb_way 4
core_0_itlb_rq_size 16
core_0_itlb_wq_size 16
core_0_itlb_pq_size 0
core_0_itlb_mshr_size 8
core_0_itlb_hit_latency 1
core_0_itlb_fill_latency 1
core_0_itlb_max_tag_check 2
core_0_itlb_max_fill 2
core_0_dtlb_set 16
core_0_dtlb_way 4
core_0_dtlb_rq_size 16
core_0_dtlb_wq_size 16
core_0_dtlb_pq_size 0
core_0_dtlb_mshr_size 8
core_0_dtlb_hit_latency 1
core_0_dtlb_fill_latency 1
core_0_dtlb_max_tag_check 2
core_0_dtlb_max_fill 2
core_0_stlb_set 128
core_0_stlb_way 12
core_0_stlb_rq_size 32
core_0_stlb_wq_size 32
core_0_stlb_pq_size 0
core_0_stlb_mshr_size 16
core_0_stlb_hit_latency 4
core_0_stlb_fill_latency 4
core_0_stlb_max_tag_check 1
core_0_stlb_max_fill 1
core_0_l1i_set 64
core_0_l1i_way 8
core_0_l1i_rq_size 64
core_0_l1i_wq_size 64
core_0_l1i_pq_size 32
core_0_l1i_mshr_size 8
core_0_l1i_hit_latency 2
core_0_l1i_fill_latency 2
core_0_l1i_max_tag_check 2
core_0_l1i_max_fill 2
core_0_l1d_set 64
core_0_l1d_way 12
core_0_l1d_rq_size 64
core_0_l1d_wq_size 64
core_0_l1d_pq_size 8
core_0_l1d_mshr_size 16
core_0_l1d_hit_latency 2
core_0_l1d_fill_latency 3
core_0_l1d_max_tag_check 2
core_0_l1d_max_fill 2
core_0_l2c_set 1024
core_0_l2c_way 8
core_0_l2c_rq_size 32
core_0_l2c_wq_size 32
core_0_l2c_pq_size 16
core_0_l2c_mshr_size 32
core_0_l2c_hit_latency 5
core_0_l2c_fill_latency 5
core_0_l2c_max_tag_check 1
core_0_l2c_max_fill 1
llc_set 2048
llc_way 16
llc_rq_size 32
llc_wq_size 32
llc_pq_size 32
llc_mshr_size 64
llc_hit_latency 10
llc_fill_latency 10
llc_max_tag_check 1
llc_max_fill 1
dram_channels 1
dram_ranks 1
dram_bankgroups 8
dram_banks 4
dram_rows 65536
dram_columns 1024
dram_channel_width 8
dram_rq_size 64
dram_wq_size 64
dram_size 17179869184
core_0_itlb_prefetcher no
core_0_dtlb_prefetcher no
core_0_stlb_prefetcher no
core_0_l1i_prefetcher next_line
core_0_l1d_prefetcher vberti
core_0_l2c_prefetcher ip_stride
llc_prefetcher no
llc_replacement drrip

Core_0_instructions 100000000
Core_0_cycles 248183692
Core_0_IPC 0.402927
Core_0_branch_prediction_accuracy 88.1309
Core_0_branch_MPKI 18.4026
Core_0_average_ROB_occupancy_at_mispredict 26.0399

Core_0_ITLB_total_access 1147473
Core_0_ITLB_total_hit 1147473
Core_0_ITLB_total_miss 0
Core_0_ITLB_total_MPKI 0
Core_0_ITLB_total_miss_rate 0
Core_0_ITLB_demand_access 1147473
Core_0_ITLB_demand_hit 1147473
Core_0_ITLB_demand_miss 0
Core_0_ITLB_demand_MPKI 0
Core_0_ITLB_demand_miss_rate 0
Core_0_ITLB_load_access 1147473
Core_0_ITLB_load_hit 1147473
Core_0_ITLB_load_miss 0
Core_0_ITLB_load_MPKI 0
Core_0_ITLB_load_miss_rate 0
Core_0_ITLB_rfo_access 0
Core_0_ITLB_rfo_hit 0
Core_0_ITLB_rfo_miss 0
Core_0_ITLB_rfo_MPKI 0
Core_0_ITLB_rfo_miss_rate 0
Core_0_ITLB_prefetch_access 0
Core_0_ITLB_prefetch_hit 0
Core_0_ITLB_prefetch_miss 0
Core_0_ITLB_prefetch_MPKI 0
Core_0_ITLB_prefetch_miss_rate 0
Core_0_ITLB_writeback_access 0
Core_0_ITLB_writeback_hit 0
Core_0_ITLB_writeback_miss 0
Core_0_ITLB_writeback_MPKI 0
Core_0_ITLB_writeback_miss_rate 0
Core_0_ITLB_prefetch_requested 0
Core_0_ITLB_prefetch_issued 0
Core_0_ITLB_prefetch_useful 0
Core_0_ITLB_prefetch_useless 0
Core_0_ITLB_prefetch_late 0
Core_0_ITLB_prefetch_accuracy 0
Core_0_ITLB_prefetch_coverage 0
Core_0_ITLB_total_eviction 0

Core_0_DTLB_total_access 39258977
Core_0_DTLB_total_hit 37454466
Core_0_DTLB_total_miss 1804511
Core_0_DTLB_total_MPKI 18.0451
Core_0_DTLB_total_miss_rate 0.0459643
Core_0_DTLB_demand_access 39258977
Core_0_DTLB_demand_hit 37454466
Core_0_DTLB_demand_miss 1804511
Core_0_DTLB_demand_MPKI 18.0451
Core_0_DTLB_demand_miss_rate 0.0459643
Core_0_DTLB_load_access 39258977
Core_0_DTLB_load_hit 37454466
Core_0_DTLB_load_miss 1804511
Core_0_DTLB_load_MPKI 18.0451
Core_0_DTLB_load_miss_rate 0.0459643
Core_0_DTLB_rfo_access 0
Core_0_DTLB_rfo_hit 0
Core_0_DTLB_rfo_miss 0
Core_0_DTLB_rfo_MPKI 0
Core_0_DTLB_rfo_miss_rate 0
Core_0_DTLB_prefetch_access 0
Core_0_DTLB_prefetch_hit 0
Core_0_DTLB_prefetch_miss 0
Core_0_DTLB_prefetch_MPKI 0
Core_0_DTLB_prefetch_miss_rate 0
Core_0_DTLB_writeback_access 0
Core_0_DTLB_writeback_hit 0
Core_0_DTLB_writeback_miss 0
Core_0_DTLB_writeback_MPKI 0
Core_0_DTLB_writeback_miss_rate 0
Core_0_DTLB_prefetch_requested 0
Core_0_DTLB_prefetch_issued 0
Core_0_DTLB_prefetch_useful 0
Core_0_DTLB_prefetch_useless 0
Core_0_DTLB_prefetch_late 0
Core_0_DTLB_prefetch_accuracy 0
Core_0_DTLB_prefetch_coverage 0
Core_0_DTLB_total_eviction 1615489

Core_0_STLB_total_access 1615489
Core_0_STLB_total_hit 1023758
Core_0_STLB_total_miss 591731
Core_0_STLB_total_MPKI 5.91731
Core_0_STLB_total_miss_rate 0.366286
Core_0_STLB_demand_access 1615489
Core_0_STLB_demand_hit 1023758
Core_0_STLB_demand_miss 591731
Core_0_STLB_demand_MPKI 5.91731
Core_0_STLB_demand_miss_rate 0.366286
Core_0_STLB_load_access 1615489
Core_0_STLB_load_hit 1023758
Core_0_STLB_load_miss 591731
Core_0_STLB_load_MPKI 5.91731
Core_0_STLB_load_miss_rate 0.366286
Core_0_STLB_rfo_access 0
Core_0_STLB_rfo_hit 0
Core_0_STLB_rfo_miss 0
Core_0_STLB_rfo_MPKI 0
Core_0_STLB_rfo_miss_rate 0
Core_0_STLB_prefetch_access 0
Core_0_STLB_prefetch_hit 0
Core_0_STLB_prefetch_miss 0
Core_0_STLB_prefetch_MPKI 0
Core_0_STLB_prefetch_miss_rate 0
Core_0_STLB_writeback_access 0
Core_0_STLB_writeback_hit 0
Core_0_STLB_writeback_miss 0
Core_0_STLB_writeback_MPKI 0
Core_0_STLB_writeback_miss_rate 0
Core_0_STLB_prefetch_requested 0
Core_0_STLB_prefetch_issued 0
Core_0_STLB_prefetch_useful 0
Core_0_STLB_prefetch_useless 0
Core_0_STLB_prefetch_late 0
Core_0_STLB_prefetch_accuracy 0
Core_0_STLB_prefetch_coverage 0
Core_0_STLB_total_eviction 616757

Core_0_L1I_total_access 1147479
Core_0_L1I_total_hit 1147479
Core_0_L1I_total_miss 0
Core_0_L1I_total_MPKI 0
Core_0_L1I_total_miss_rate 0
Core_0_L1I_demand_access 1147479
Core_0_L1I_demand_hit 1147479
Core_0_L1I_demand_miss 0
Core_0_L1I_demand_MPKI 0
Core_0_L1I_demand_miss_rate 0
Core_0_L1I_load_access 1147479
Core_0_L1I_load_hit 1147479
Core_0_L1I_load_miss 0
Core_0_L1I_load_MPKI 0
Core_0_L1I_load_miss_rate 0
Core_0_L1I_rfo_access 0
Core_0_L1I_rfo_hit 0
Core_0_L1I_rfo_miss 0
Core_0_L1I_rfo_MPKI 0
Core_0_L1I_rfo_miss_rate 0
Core_0_L1I_prefetch_access 0
Core_0_L1I_prefetch_hit 0
Core_0_L1I_prefetch_miss 0
Core_0_L1I_prefetch_MPKI 0
Core_0_L1I_prefetch_miss_rate 0
Core_0_L1I_writeback_access 0
Core_0_L1I_writeback_hit 0
Core_0_L1I_writeback_miss 0
Core_0_L1I_writeback_MPKI 0
Core_0_L1I_writeback_miss_rate 0
Core_0_L1I_prefetch_requested 0
Core_0_L1I_prefetch_issued 0
Core_0_L1I_prefetch_useful 0
Core_0_L1I_prefetch_useless 0
Core_0_L1I_prefetch_late 0
Core_0_L1I_prefetch_accuracy 0
Core_0_L1I_prefetch_coverage 0
Core_0_L1I_total_eviction 0

Core_0_L1D_total_access 47580280
Core_0_L1D_total_hit 39778490
Core_0_L1D_total_miss 7801790
Core_0_L1D_total_MPKI 78.0179
Core_0_L1D_total_miss_rate 0.163971
Core_0_L1D_demand_access 23227095
Core_0_L1D_demand_hit 20558306
Core_0_L1D_demand_miss 2668789
Core_0_L1D_demand_MPKI 26.6879
Core_0_L1D_demand_miss_rate 0.1149
Core_0_L1D_load_access 23227095
Core_0_L1D_load_hit 20558306
Core_0_L1D_load_miss 2668789
Core_0_L1D_load_MPKI 26.6879
Core_0_L1D_load_miss_rate 0.1149
Core_0_L1D_rfo_access 0
Core_0_L1D_rfo_hit 0
Core_0_L1D_rfo_miss 0
Core_0_L1D_rfo_MPKI 0
Core_0_L1D_rfo_miss_rate 0
Core_0_L1D_prefetch_access 23596714
Core_0_L1D_prefetch_hit 18617576
Core_0_L1D_prefetch_miss 4979138
Core_0_L1D_prefetch_MPKI 49.7914
Core_0_L1D_prefetch_miss_rate 0.21101
Core_0_L1D_writeback_access 756471
Core_0_L1D_writeback_hit 602608
Core_0_L1D_writeback_miss 153863
Core_0_L1D_writeback_MPKI 1.53863
Core_0_L1D_writeback_miss_rate 0.203396
Core_0_L1D_prefetch_requested 74765309
Core_0_L1D_prefetch_issued 23596706
Core_0_L1D_prefetch_useful 1076406
Core_0_L1D_prefetch_useless 274741
Core_0_L1D_prefetch_late 14155
Core_0_L1D_prefetch_accuracy 0.0456168
Core_0_L1D_prefetch_coverage 0.28741
Core_0_L1D_total_eviction 4035787

Core_0_L2C_total_access 9354195
Core_0_L2C_total_hit 4970963
Core_0_L2C_total_miss 4383232
Core_0_L2C_total_MPKI 43.8323
Core_0_L2C_total_miss_rate 0.468585
Core_0_L2C_demand_access 2207573
Core_0_L2C_demand_hit 327999
Core_0_L2C_demand_miss 1879574
Core_0_L2C_demand_MPKI 18.7957
Core_0_L2C_demand_miss_rate 0.851421
Core_0_L2C_load_access 2087262
Core_0_L2C_load_hit 320699
Core_0_L2C_load_miss 1766563
Core_0_L2C_load_MPKI 17.6656
Core_0_L2C_load_miss_rate 0.846354
Core_0_L2C_rfo_access 120311
Core_0_L2C_rfo_hit 7300
Core_0_L2C_rfo_miss 113011
Core_0_L2C_rfo_MPKI 1.13011
Core_0_L2C_rfo_miss_rate 0.939324
Core_0_L2C_prefetch_access 6725892
Core_0_L2C_prefetch_hit 4222279
Core_0_L2C_prefetch_miss 2503613
Core_0_L2C_prefetch_MPKI 25.0361
Core_0_L2C_prefetch_miss_rate 0.372235
Core_0_L2C_writeback_access 420730
Core_0_L2C_writeback_hit 420685
Core_0_L2C_writeback_miss 45
Core_0_L2C_writeback_MPKI 0.00045
Core_0_L2C_writeback_miss_rate 0.000106957
Core_0_L2C_prefetch_requested 1819930
Core_0_L2C_prefetch_issued 1819867
Core_0_L2C_prefetch_useful 416049
Core_0_L2C_prefetch_useless 166818
Core_0_L2C_prefetch_late 4975
Core_0_L2C_prefetch_accuracy 0.228615
Core_0_L2C_prefetch_coverage 0.181236
Core_0_L2C_total_eviction 3607358

Core_0_LLC_total_access 3947357
Core_0_LLC_total_hit 458717
Core_0_LLC_total_miss 3488640
Core_0_LLC_total_MPKI 34.8864
Core_0_LLC_total_miss_rate 0.883791
Core_0_LLC_demand_access 1871296
Core_0_LLC_demand_hit 321883
Core_0_LLC_demand_miss 1549413
Core_0_LLC_demand_MPKI 15.4941
Core_0_LLC_demand_miss_rate 0.827989
Core_0_LLC_load_access 1758288
Core_0_LLC_load_hit 306881
Core_0_LLC_load_miss 1451407
Core_0_LLC_load_MPKI 14.5141
Core_0_LLC_load_miss_rate 0.825466
Core_0_LLC_rfo_access 113008
Core_0_LLC_rfo_hit 15002
Core_0_LLC_rfo_miss 98006
Core_0_LLC_rfo_MPKI 0.98006
Core_0_LLC_rfo_miss_rate 0.867248
Core_0_LLC_prefetch_access 1673383
Core_0_LLC_prefetch_hit 30727
Core_0_LLC_prefetch_miss 1642656
Core_0_LLC_prefetch_MPKI 16.4266
Core_0_LLC_prefetch_miss_rate 0.981638
Core_0_LLC_writeback_access 402678
Core_0_LLC_writeback_hit 106107
Core_0_LLC_writeback_miss 296571
Core_0_LLC_writeback_MPKI 2.96571
Core_0_LLC_writeback_miss_rate 0.736497
Core_0_LLC_prefetch_requested 0
Core_0_LLC_prefetch_issued 0
Core_0_LLC_prefetch_useful 0
Core_0_LLC_prefetch_useless 0
Core_0_LLC_prefetch_late 0
Core_0_LLC_prefetch_accuracy 0
Core_0_LLC_prefetch_coverage 0
Core_0_LLC_total_eviction 3478425

[DRAM Statistics]
Channel_0_RQ_row_buffer_hit 53241
Channel_0_RQ_row_buffer_miss 3128582
Channel_0_WQ_row_buffer_hit 100854
Channel_0_WQ_row_buffer_miss 253609
Channel_0_WQ_full 0
Channel_0_dbus_congested 8592900
DRAM_total_RQ_row_buffer_hit 53241
DRAM_total_RQ_row_buffer_miss 3128582
DRAM_total_WQ_row_buffer_hit 100854
DRAM_total_WQ_row_buffer_miss 253609
DRAM_total_WQ_full 0
DRAM_total_dbus_congested 8592900
DRAM_avg_congested_cycle 13.0332

======STLB miss causes ========
Core_0_STLB_miss_cause_breakdown
Core_0_STLB_cause_Demand_Data_miss 591731
Core_0_STLB_cause_Demand_Data_miss_rate 0.366286
Core_0_STLB_cause_Demand_Instruction_miss 0
Core_0_STLB_cause_Demand_Instruction_miss_rate 0
Core_0_STLB_cause_L1D_Prefetch_miss 0
Core_0_STLB_cause_L1D_Prefetch_miss_rate 0
Core_0_STLB_cause_L1I_Prefetch_miss 0
Core_0_STLB_cause_L1I_Prefetch_miss_rate 0
Core_0_STLB_cause_Other_miss 0
Core_0_STLB_cause_Other_miss_rate 0
Core_0_STLB_Demand_miss 591731
Core_0_STLB_Demand_miss_rate 0.366286
Core_0_STLB_L1D_Prefetch_miss 0
Core_0_STLB_L1D_Prefetch_miss_rate 0
Core_0_STLB_Other_miss 0
Core_0_STLB_Other_miss_rate 0
BERTI TO_L1: 46897618 TO_L2: 39728909 TO_L2_BC_MSHR: 166144
BERTI AVG_LAT: 111.549 NUM_TRACK_LATENCY: 5480583 NUM_CANT_TRACK_LATENCY: 0
BERTI CROSS_PAGE 9837134 NO_CROSS_PAGE: 76789393
BERTI FOUND_BERTI: 25563335 NO_FOUND_BERTI: 6628570
BERTI AVERAGE_ISSUED: 2.99123
