[VMEM] WARNING: physical memory size is smaller than virtual memory size.

*** ChampSim Multicore Out-of-Order Simulator ***
Warmup Instructions: 50000000
Simulation Instructions: 100000000
Number of CPUs: 1
Page size: 4096
STLB ideal mode: l1pref
STLB ideal fill: on
Core 0: /data0/tzh/champsim_traces/QMM/srv_1_new.xz
VBerti Prefetcher
BERTI HASH ENTANGLING
BERTI IP MASK ffff
Off-chip DRAM Size: 16 GiB Channels: 1 Width: 64-bit Data Rate: 3205 MT/s
[BTB] WARNING: target of return is a lower address than the corresponding call. This is usually a problem with your trace.
[BTB] WARNING: target of return is a lower address than the corresponding call. This is usually a problem with your trace.
[BTB] WARNING: target of return is a lower address than the corresponding call. This is usually a problem with your trace.
[BTB] WARNING: target of return is a lower address than the corresponding call. This is usually a problem with your trace.
[BTB] WARNING: target of return is a lower address than the corresponding call. This is usually a problem with your trace.
[BTB] WARNING: target of return is a lower address than the corresponding call. This is usually a problem with your trace.
[BTB] WARNING: target of return is a lower address than the corresponding call. This is usually a problem with your trace.
[BTB] WARNING: target of return is a lower address than the corresponding call. This is usually a problem with your trace.
[BTB] WARNING: target of return is a lower address than the corresponding call. This is usually a problem with your trace.
[BTB] WARNING: target of return is a lower address than the corresponding call. This is usually a problem with your trace.
*** Reached end of trace: (0, "/data0/tzh/champsim_traces/QMM/srv_1_new.xz")
Warmup halting CPU 0 at instruction 50000005 cycle 15470680 for remainder of phase
Warmup finished CPU 0 instructions: 50000005 cycles: 15470680 cumulative IPC: 3.232 (Simulation time: 00 hr 03 min 44 sec)
Warmup complete CPU 0 instructions: 50000005 cycles: 15470680 cumulative IPC: 3.232 (Simulation time: 00 hr 03 min 44 sec)
*** Reached end of trace: (0, "/data0/tzh/champsim_traces/QMM/srv_1_new.xz")
*** Reached end of trace: (0, "/data0/tzh/champsim_traces/QMM/srv_1_new.xz")
*** Reached end of trace: (0, "/data0/tzh/champsim_traces/QMM/srv_1_new.xz")
Simulation finished CPU 0 instructions: 100000004 cycles: 98909436 cumulative IPC: 1.011 (Simulation time: 00 hr 18 min 29 sec)
Simulation complete CPU 0 instructions: 100000004 cycles: 98909436 cumulative IPC: 1.011 (Simulation time: 00 hr 18 min 29 sec)

ChampSim completed all CPUs

=== Simulation ===
CPU 0 runs /data0/tzh/champsim_traces/QMM/srv_1_new.xz

Region of Interest Statistics

CPU 0 cumulative IPC: 1.011 instructions: 100000004 cycles: 98909436
CPU 0 Branch Prediction Accuracy: 98.07% MPKI: 4.232 Average ROB Occupancy at Mispredict: 80.59
Branch type MPKI
BRANCH_DIRECT_JUMP: 0.364
BRANCH_INDIRECT: 0.3271
BRANCH_CONDITIONAL: 2.149
BRANCH_DIRECT_CALL: 0.6547
BRANCH_INDIRECT_CALL: 0.2255
BRANCH_RETURN: 0.5111

cpu0->cpu0_STLB TOTAL        ACCESS:    5108933 HIT:    4945256 MISS:     163677 MSHR_MERGE:          0
cpu0->cpu0_STLB LOAD         ACCESS:    5108933 HIT:    4945256 MISS:     163677 MSHR_MERGE:          0
cpu0->cpu0_STLB RFO          ACCESS:          0 HIT:          0 MISS:          0 MSHR_MERGE:          0
cpu0->cpu0_STLB PREFETCH     ACCESS:          0 HIT:          0 MISS:          0 MSHR_MERGE:          0
cpu0->cpu0_STLB WRITE        ACCESS:          0 HIT:          0 MISS:          0 MSHR_MERGE:          0
cpu0->cpu0_STLB TRANSLATION  ACCESS:          0 HIT:          0 MISS:          0 MSHR_MERGE:          0
cpu0->cpu0_STLB PREFETCH REQUESTED:          0 ISSUED:          0 USEFUL:          0 USELESS:          0 LATE:          0
cpu0->cpu0_STLB AVERAGE MISS LATENCY: 30.49 cycles
cpu0->cpu0_L2C TOTAL        ACCESS:   11914083 HIT:   10430662 MISS:    1483421 MSHR_MERGE:      13066
cpu0->cpu0_L2C LOAD         ACCESS:    7418080 HIT:    6137173 MISS:    1280907 MSHR_MERGE:       2846
cpu0->cpu0_L2C RFO          ACCESS:     186441 HIT:     112366 MISS:      74075 MSHR_MERGE:         25
cpu0->cpu0_L2C PREFETCH     ACCESS:    3761420 HIT:    3725201 MISS:      36219 MSHR_MERGE:      10195
cpu0->cpu0_L2C WRITE        ACCESS:     410730 HIT:     408631 MISS:       2099 MSHR_MERGE:          0
cpu0->cpu0_L2C TRANSLATION  ACCESS:     137412 HIT:      47291 MISS:      90121 MSHR_MERGE:          0
cpu0->cpu0_L2C PREFETCH REQUESTED:     193848 ISSUED:     177597 USEFUL:       8463 USELESS:       7001 LATE:       1787
cpu0->cpu0_L2C AVERAGE MISS LATENCY: 28.54 cycles
cpu0->cpu0_L1I TOTAL        ACCESS:   20063544 HIT:   17364585 MISS:    2698959 MSHR_MERGE:     966835
cpu0->cpu0_L1I LOAD         ACCESS:   20063544 HIT:   17364585 MISS:    2698959 MSHR_MERGE:     966835
cpu0->cpu0_L1I RFO          ACCESS:          0 HIT:          0 MISS:          0 MSHR_MERGE:          0
cpu0->cpu0_L1I PREFETCH     ACCESS:          0 HIT:          0 MISS:          0 MSHR_MERGE:          0
cpu0->cpu0_L1I WRITE        ACCESS:          0 HIT:          0 MISS:          0 MSHR_MERGE:          0
cpu0->cpu0_L1I TRANSLATION  ACCESS:          0 HIT:          0 MISS:          0 MSHR_MERGE:          0
cpu0->cpu0_L1I PREFETCH REQUESTED:          0 ISSUED:          0 USEFUL:          0 USELESS:          0 LATE:          0
cpu0->cpu0_L1I AVERAGE MISS LATENCY: 15.85 cycles
cpu0->cpu0_L1D TOTAL        ACCESS:   32514736 HIT:   22344506 MISS:   10170230 MSHR_MERGE:     575163
cpu0->cpu0_L1D LOAD         ACCESS:   19410199 HIT:   13450635 MISS:    5959564 MSHR_MERGE:     273596
cpu0->cpu0_L1D RFO          ACCESS:          0 HIT:          0 MISS:          0 MSHR_MERGE:          0
cpu0->cpu0_L1D PREFETCH     ACCESS:    3747415 HIT:     160017 MISS:    3587398 MSHR_MERGE:       2156
cpu0->cpu0_L1D WRITE        ACCESS:    8993850 HIT:    8510416 MISS:     483434 MSHR_MERGE:     296989
cpu0->cpu0_L1D TRANSLATION  ACCESS:     363272 HIT:     223438 MISS:     139834 MSHR_MERGE:       2422
cpu0->cpu0_L1D PREFETCH REQUESTED:    4980577 ISSUED:    3747415 USEFUL:      69433 USELESS:     211072 LATE:      13093
cpu0->cpu0_L1D AVERAGE MISS LATENCY: 12.89 cycles
cpu0->cpu0_ITLB TOTAL        ACCESS:   17084537 HIT:   16411242 MISS:     673295 MSHR_MERGE:     410802
cpu0->cpu0_ITLB LOAD         ACCESS:   17084537 HIT:   16411242 MISS:     673295 MSHR_MERGE:     410802
cpu0->cpu0_ITLB RFO          ACCESS:          0 HIT:          0 MISS:          0 MSHR_MERGE:          0
cpu0->cpu0_ITLB PREFETCH     ACCESS:          0 HIT:          0 MISS:          0 MSHR_MERGE:          0
cpu0->cpu0_ITLB WRITE        ACCESS:          0 HIT:          0 MISS:          0 MSHR_MERGE:          0
cpu0->cpu0_ITLB TRANSLATION  ACCESS:          0 HIT:          0 MISS:          0 MSHR_MERGE:          0
cpu0->cpu0_ITLB PREFETCH REQUESTED:          0 ISSUED:          0 USEFUL:          0 USELESS:          0 LATE:          0
cpu0->cpu0_ITLB AVERAGE MISS LATENCY: 11.11 cycles
cpu0->cpu0_DTLB TOTAL        ACCESS:   30498508 HIT:   23494155 MISS:    7004353 MSHR_MERGE:    2157913
cpu0->cpu0_DTLB LOAD         ACCESS:   30498508 HIT:   23494155 MISS:    7004353 MSHR_MERGE:    2157913
cpu0->cpu0_DTLB RFO          ACCESS:          0 HIT:          0 MISS:          0 MSHR_MERGE:          0
cpu0->cpu0_DTLB PREFETCH     ACCESS:          0 HIT:          0 MISS:          0 MSHR_MERGE:          0
cpu0->cpu0_DTLB WRITE        ACCESS:          0 HIT:          0 MISS:          0 MSHR_MERGE:          0
cpu0->cpu0_DTLB TRANSLATION  ACCESS:          0 HIT:          0 MISS:          0 MSHR_MERGE:          0
cpu0->cpu0_DTLB PREFETCH REQUESTED:          0 ISSUED:          0 USEFUL:          0 USELESS:          0 LATE:          0
cpu0->cpu0_DTLB AVERAGE MISS LATENCY: 5.747 cycles
cpu0->LLC TOTAL        ACCESS:    1682235 HIT:    1568483 MISS:     113752 MSHR_MERGE:       1867
cpu0->LLC LOAD         ACCESS:    1278061 HIT:    1200064 MISS:      77997 MSHR_MERGE:        699
cpu0->LLC RFO          ACCESS:      74050 HIT:      57878 MISS:      16172 MSHR_MERGE:          0
cpu0->LLC PREFETCH     ACCESS:      26024 HIT:      12806 MISS:      13218 MSHR_MERGE:       1168
cpu0->LLC WRITE        ACCESS:     213979 HIT:     210034 MISS:       3945 MSHR_MERGE:          0
cpu0->LLC TRANSLATION  ACCESS:      90121 HIT:      87701 MISS:       2420 MSHR_MERGE:          0
cpu0->LLC PREFETCH REQUESTED:          0 ISSUED:          0 USEFUL:          0 USELESS:          0 LATE:          0
cpu0->LLC AVERAGE MISS LATENCY: 187.3 cycles

DRAM Statistics

Channel 0 RQ ROW_BUFFER_HIT:       3740
  ROW_BUFFER_MISS:     104195
  AVG DBUS CONGESTED CYCLE: 15.39
Channel 0 WQ ROW_BUFFER_HIT:      13058
  ROW_BUFFER_MISS:      52736
  FULL:          0
Channel 0 REFRESHES ISSUED:       8242

[ROI Statistics]
[System Configuration]
num_cpus 1
cpu_freq 4000
fetch_width 6
decode_width 6
dispatch_width 6
execute_width 6
lq_width 2
sq_width 2
retire_width 6
scheduler_size 128
branch_mispredict_penalty 15
rob_size 352
lq_size 128
sq_size 72
ifetch_buffer_size 64
decode_buffer_size 32
dispatch_buffer_size 32
register_file_size 288
decode_latency 1
dispatch_latency 1
schedule_latency 1
execute_latency 1
page_size 4096
block_size 64
core_0_itlb_set 16
core_0_itlb_way 4
core_0_itlb_rq_size 16
core_0_itlb_wq_size 16
core_0_itlb_pq_size 0
core_0_itlb_mshr_size 8
core_0_itlb_hit_latency 1
core_0_itlb_fill_latency 1
core_0_itlb_max_tag_check 2
core_0_itlb_max_fill 2
core_0_dtlb_set 16
core_0_dtlb_way 4
core_0_dtlb_rq_size 16
core_0_dtlb_wq_size 16
core_0_dtlb_pq_size 0
core_0_dtlb_mshr_size 8
core_0_dtlb_hit_latency 1
core_0_dtlb_fill_latency 1
core_0_dtlb_max_tag_check 2
core_0_dtlb_max_fill 2
core_0_stlb_set 128
core_0_stlb_way 12
core_0_stlb_rq_size 32
core_0_stlb_wq_size 32
core_0_stlb_pq_size 0
core_0_stlb_mshr_size 16
core_0_stlb_hit_latency 4
core_0_stlb_fill_latency 4
core_0_stlb_max_tag_check 1
core_0_stlb_max_fill 1
core_0_l1i_set 64
core_0_l1i_way 8
core_0_l1i_rq_size 64
core_0_l1i_wq_size 64
core_0_l1i_pq_size 32
core_0_l1i_mshr_size 8
core_0_l1i_hit_latency 2
core_0_l1i_fill_latency 2
core_0_l1i_max_tag_check 2
core_0_l1i_max_fill 2
core_0_l1d_set 64
core_0_l1d_way 12
core_0_l1d_rq_size 64
core_0_l1d_wq_size 64
core_0_l1d_pq_size 8
core_0_l1d_mshr_size 16
core_0_l1d_hit_latency 2
core_0_l1d_fill_latency 3
core_0_l1d_max_tag_check 2
core_0_l1d_max_fill 2
core_0_l2c_set 1024
core_0_l2c_way 8
core_0_l2c_rq_size 32
core_0_l2c_wq_size 32
core_0_l2c_pq_size 16
core_0_l2c_mshr_size 32
core_0_l2c_hit_latency 5
core_0_l2c_fill_latency 5
core_0_l2c_max_tag_check 1
core_0_l2c_max_fill 1
llc_set 2048
llc_way 16
llc_rq_size 32
llc_wq_size 32
llc_pq_size 32
llc_mshr_size 64
llc_hit_latency 10
llc_fill_latency 10
llc_max_tag_check 1
llc_max_fill 1
dram_channels 1
dram_ranks 1
dram_bankgroups 8
dram_banks 4
dram_rows 65536
dram_columns 1024
dram_channel_width 8
dram_rq_size 64
dram_wq_size 64
dram_size 17179869184
core_0_itlb_prefetcher no
core_0_dtlb_prefetcher no
core_0_stlb_prefetcher no
core_0_l1i_prefetcher next_line
core_0_l1d_prefetcher vberti
core_0_l2c_prefetcher ip_stride
llc_prefetcher no
llc_replacement drrip

Core_0_instructions 100000004
Core_0_cycles 98909436
Core_0_IPC 1.01103
Core_0_branch_prediction_accuracy 98.0706
Core_0_branch_MPKI 4.23156
Core_0_average_ROB_occupancy_at_mispredict 80.592

Core_0_ITLB_total_access 17084537
Core_0_ITLB_total_hit 16411242
Core_0_ITLB_total_miss 673295
Core_0_ITLB_total_MPKI 6.73295
Core_0_ITLB_total_miss_rate 0.0394096
Core_0_ITLB_demand_access 17084537
Core_0_ITLB_demand_hit 16411242
Core_0_ITLB_demand_miss 673295
Core_0_ITLB_demand_MPKI 6.73295
Core_0_ITLB_demand_miss_rate 0.0394096
Core_0_ITLB_load_access 17084537
Core_0_ITLB_load_hit 16411242
Core_0_ITLB_load_miss 673295
Core_0_ITLB_load_MPKI 6.73295
Core_0_ITLB_load_miss_rate 0.0394096
Core_0_ITLB_rfo_access 0
Core_0_ITLB_rfo_hit 0
Core_0_ITLB_rfo_miss 0
Core_0_ITLB_rfo_MPKI 0
Core_0_ITLB_rfo_miss_rate 0
Core_0_ITLB_prefetch_access 0
Core_0_ITLB_prefetch_hit 0
Core_0_ITLB_prefetch_miss 0
Core_0_ITLB_prefetch_MPKI 0
Core_0_ITLB_prefetch_miss_rate 0
Core_0_ITLB_writeback_access 0
Core_0_ITLB_writeback_hit 0
Core_0_ITLB_writeback_miss 0
Core_0_ITLB_writeback_MPKI 0
Core_0_ITLB_writeback_miss_rate 0
Core_0_ITLB_prefetch_requested 0
Core_0_ITLB_prefetch_issued 0
Core_0_ITLB_prefetch_useful 0
Core_0_ITLB_prefetch_useless 0
Core_0_ITLB_prefetch_late 0
Core_0_ITLB_prefetch_accuracy 0
Core_0_ITLB_prefetch_coverage 0
Core_0_ITLB_total_eviction 262493

Core_0_DTLB_total_access 30498508
Core_0_DTLB_total_hit 23494155
Core_0_DTLB_total_miss 7004353
Core_0_DTLB_total_MPKI 70.0435
Core_0_DTLB_total_miss_rate 0.229662
Core_0_DTLB_demand_access 30498508
Core_0_DTLB_demand_hit 23494155
Core_0_DTLB_demand_miss 7004353
Core_0_DTLB_demand_MPKI 70.0435
Core_0_DTLB_demand_miss_rate 0.229662
Core_0_DTLB_load_access 30498508
Core_0_DTLB_load_hit 23494155
Core_0_DTLB_load_miss 7004353
Core_0_DTLB_load_MPKI 70.0435
Core_0_DTLB_load_miss_rate 0.229662
Core_0_DTLB_rfo_access 0
Core_0_DTLB_rfo_hit 0
Core_0_DTLB_rfo_miss 0
Core_0_DTLB_rfo_MPKI 0
Core_0_DTLB_rfo_miss_rate 0
Core_0_DTLB_prefetch_access 0
Core_0_DTLB_prefetch_hit 0
Core_0_DTLB_prefetch_miss 0
Core_0_DTLB_prefetch_MPKI 0
Core_0_DTLB_prefetch_miss_rate 0
Core_0_DTLB_writeback_access 0
Core_0_DTLB_writeback_hit 0
Core_0_DTLB_writeback_miss 0
Core_0_DTLB_writeback_MPKI 0
Core_0_DTLB_writeback_miss_rate 0
Core_0_DTLB_prefetch_requested 0
Core_0_DTLB_prefetch_issued 0
Core_0_DTLB_prefetch_useful 0
Core_0_DTLB_prefetch_useless 0
Core_0_DTLB_prefetch_late 0
Core_0_DTLB_prefetch_accuracy 0
Core_0_DTLB_prefetch_coverage 0
Core_0_DTLB_total_eviction 4846440

Core_0_STLB_total_access 5108933
Core_0_STLB_total_hit 4945256
Core_0_STLB_total_miss 163677
Core_0_STLB_total_MPKI 1.63677
Core_0_STLB_total_miss_rate 0.0320374
Core_0_STLB_demand_access 5108933
Core_0_STLB_demand_hit 4945256
Core_0_STLB_demand_miss 163677
Core_0_STLB_demand_MPKI 1.63677
Core_0_STLB_demand_miss_rate 0.0320374
Core_0_STLB_load_access 5108933
Core_0_STLB_load_hit 4945256
Core_0_STLB_load_miss 163677
Core_0_STLB_load_MPKI 1.63677
Core_0_STLB_load_miss_rate 0.0320374
Core_0_STLB_rfo_access 0
Core_0_STLB_rfo_hit 0
Core_0_STLB_rfo_miss 0
Core_0_STLB_rfo_MPKI 0
Core_0_STLB_rfo_miss_rate 0
Core_0_STLB_prefetch_access 0
Core_0_STLB_prefetch_hit 0
Core_0_STLB_prefetch_miss 0
Core_0_STLB_prefetch_MPKI 0
Core_0_STLB_prefetch_miss_rate 0
Core_0_STLB_writeback_access 0
Core_0_STLB_writeback_hit 0
Core_0_STLB_writeback_miss 0
Core_0_STLB_writeback_MPKI 0
Core_0_STLB_writeback_miss_rate 0
Core_0_STLB_prefetch_requested 0
Core_0_STLB_prefetch_issued 0
Core_0_STLB_prefetch_useful 0
Core_0_STLB_prefetch_useless 0
Core_0_STLB_prefetch_late 0
Core_0_STLB_prefetch_accuracy 0
Core_0_STLB_prefetch_coverage 0
Core_0_STLB_total_eviction 164018

Core_0_L1I_total_access 20063544
Core_0_L1I_total_hit 17364585
Core_0_L1I_total_miss 2698959
Core_0_L1I_total_MPKI 26.9896
Core_0_L1I_total_miss_rate 0.134521
Core_0_L1I_demand_access 20063544
Core_0_L1I_demand_hit 17364585
Core_0_L1I_demand_miss 2698959
Core_0_L1I_demand_MPKI 26.9896
Core_0_L1I_demand_miss_rate 0.134521
Core_0_L1I_load_access 20063544
Core_0_L1I_load_hit 17364585
Core_0_L1I_load_miss 2698959
Core_0_L1I_load_MPKI 26.9896
Core_0_L1I_load_miss_rate 0.134521
Core_0_L1I_rfo_access 0
Core_0_L1I_rfo_hit 0
Core_0_L1I_rfo_miss 0
Core_0_L1I_rfo_MPKI 0
Core_0_L1I_rfo_miss_rate 0
Core_0_L1I_prefetch_access 0
Core_0_L1I_prefetch_hit 0
Core_0_L1I_prefetch_miss 0
Core_0_L1I_prefetch_MPKI 0
Core_0_L1I_prefetch_miss_rate 0
Core_0_L1I_writeback_access 0
Core_0_L1I_writeback_hit 0
Core_0_L1I_writeback_miss 0
Core_0_L1I_writeback_MPKI 0
Core_0_L1I_writeback_miss_rate 0
Core_0_L1I_prefetch_requested 0
Core_0_L1I_prefetch_issued 0
Core_0_L1I_prefetch_useful 0
Core_0_L1I_prefetch_useless 0
Core_0_L1I_prefetch_late 0
Core_0_L1I_prefetch_accuracy 0
Core_0_L1I_prefetch_coverage 0
Core_0_L1I_total_eviction 1732124

Core_0_L1D_total_access 32151464
Core_0_L1D_total_hit 22121068
Core_0_L1D_total_miss 10030396
Core_0_L1D_total_MPKI 100.304
Core_0_L1D_total_miss_rate 0.311973
Core_0_L1D_demand_access 19410199
Core_0_L1D_demand_hit 13450635
Core_0_L1D_demand_miss 5959564
Core_0_L1D_demand_MPKI 59.5956
Core_0_L1D_demand_miss_rate 0.307033
Core_0_L1D_load_access 19410199
Core_0_L1D_load_hit 13450635
Core_0_L1D_load_miss 5959564
Core_0_L1D_load_MPKI 59.5956
Core_0_L1D_load_miss_rate 0.307033
Core_0_L1D_rfo_access 0
Core_0_L1D_rfo_hit 0
Core_0_L1D_rfo_miss 0
Core_0_L1D_rfo_MPKI 0
Core_0_L1D_rfo_miss_rate 0
Core_0_L1D_prefetch_access 3747415
Core_0_L1D_prefetch_hit 160017
Core_0_L1D_prefetch_miss 3587398
Core_0_L1D_prefetch_MPKI 35.874
Core_0_L1D_prefetch_miss_rate 0.957299
Core_0_L1D_writeback_access 8993850
Core_0_L1D_writeback_hit 8510416
Core_0_L1D_writeback_miss 483434
Core_0_L1D_writeback_MPKI 4.83434
Core_0_L1D_writeback_miss_rate 0.0537516
Core_0_L1D_prefetch_requested 4980577
Core_0_L1D_prefetch_issued 3747415
Core_0_L1D_prefetch_useful 69433
Core_0_L1D_prefetch_useless 211072
Core_0_L1D_prefetch_late 13093
Core_0_L1D_prefetch_accuracy 0.0185282
Core_0_L1D_prefetch_coverage 0.0115165
Core_0_L1D_total_eviction 6290330

Core_0_L2C_total_access 11776671
Core_0_L2C_total_hit 10383371
Core_0_L2C_total_miss 1393300
Core_0_L2C_total_MPKI 13.933
Core_0_L2C_total_miss_rate 0.11831
Core_0_L2C_demand_access 7604521
Core_0_L2C_demand_hit 6249539
Core_0_L2C_demand_miss 1354982
Core_0_L2C_demand_MPKI 13.5498
Core_0_L2C_demand_miss_rate 0.178181
Core_0_L2C_load_access 7418080
Core_0_L2C_load_hit 6137173
Core_0_L2C_load_miss 1280907
Core_0_L2C_load_MPKI 12.8091
Core_0_L2C_load_miss_rate 0.172674
Core_0_L2C_rfo_access 186441
Core_0_L2C_rfo_hit 112366
Core_0_L2C_rfo_miss 74075
Core_0_L2C_rfo_MPKI 0.74075
Core_0_L2C_rfo_miss_rate 0.397311
Core_0_L2C_prefetch_access 3761420
Core_0_L2C_prefetch_hit 3725201
Core_0_L2C_prefetch_miss 36219
Core_0_L2C_prefetch_MPKI 0.36219
Core_0_L2C_prefetch_miss_rate 0.00962908
Core_0_L2C_writeback_access 410730
Core_0_L2C_writeback_hit 408631
Core_0_L2C_writeback_miss 2099
Core_0_L2C_writeback_MPKI 0.02099
Core_0_L2C_writeback_miss_rate 0.00511041
Core_0_L2C_prefetch_requested 193848
Core_0_L2C_prefetch_issued 177597
Core_0_L2C_prefetch_useful 8463
Core_0_L2C_prefetch_useless 7001
Core_0_L2C_prefetch_late 1787
Core_0_L2C_prefetch_accuracy 0.0476528
Core_0_L2C_prefetch_coverage 0.00620707
Core_0_L2C_total_eviction 1468120

Core_0_LLC_total_access 1592114
Core_0_LLC_total_hit 1480782
Core_0_LLC_total_miss 111332
Core_0_LLC_total_MPKI 1.11332
Core_0_LLC_total_miss_rate 0.0699272
Core_0_LLC_demand_access 1352111
Core_0_LLC_demand_hit 1257942
Core_0_LLC_demand_miss 94169
Core_0_LLC_demand_MPKI 0.94169
Core_0_LLC_demand_miss_rate 0.0696459
Core_0_LLC_load_access 1278061
Core_0_LLC_load_hit 1200064
Core_0_LLC_load_miss 77997
Core_0_LLC_load_MPKI 0.77997
Core_0_LLC_load_miss_rate 0.0610276
Core_0_LLC_rfo_access 74050
Core_0_LLC_rfo_hit 57878
Core_0_LLC_rfo_miss 16172
Core_0_LLC_rfo_MPKI 0.16172
Core_0_LLC_rfo_miss_rate 0.218393
Core_0_LLC_prefetch_access 26024
Core_0_LLC_prefetch_hit 12806
Core_0_LLC_prefetch_miss 13218
Core_0_LLC_prefetch_MPKI 0.13218
Core_0_LLC_prefetch_miss_rate 0.507916
Core_0_LLC_writeback_access 213979
Core_0_LLC_writeback_hit 210034
Core_0_LLC_writeback_miss 3945
Core_0_LLC_writeback_MPKI 0.03945
Core_0_LLC_writeback_miss_rate 0.0184364
Core_0_LLC_prefetch_requested 0
Core_0_LLC_prefetch_issued 0
Core_0_LLC_prefetch_useful 0
Core_0_LLC_prefetch_useless 0
Core_0_LLC_prefetch_late 0
Core_0_LLC_prefetch_accuracy 0
Core_0_LLC_prefetch_coverage 0
Core_0_LLC_total_eviction 111852

[DRAM Statistics]
Channel_0_RQ_row_buffer_hit 3740
Channel_0_RQ_row_buffer_miss 104195
Channel_0_WQ_row_buffer_hit 13058
Channel_0_WQ_row_buffer_miss 52736
Channel_0_WQ_full 0
Channel_0_dbus_congested 515495
DRAM_total_RQ_row_buffer_hit 3740
DRAM_total_RQ_row_buffer_miss 104195
DRAM_total_WQ_row_buffer_hit 13058
DRAM_total_WQ_row_buffer_miss 52736
DRAM_total_WQ_full 0
DRAM_total_dbus_congested 515495
DRAM_avg_congested_cycle 15.3929

======STLB miss causes ========
Core_0_STLB_miss_cause_breakdown
Core_0_STLB_cause_Demand_Data_miss 100926
Core_0_STLB_cause_Demand_Data_miss_rate 0.0197548
Core_0_STLB_cause_Demand_Instruction_miss 62751
Core_0_STLB_cause_Demand_Instruction_miss_rate 0.0122826
Core_0_STLB_cause_L1D_Prefetch_miss 0
Core_0_STLB_cause_L1D_Prefetch_miss_rate 0
Core_0_STLB_cause_L1I_Prefetch_miss 0
Core_0_STLB_cause_L1I_Prefetch_miss_rate 0
Core_0_STLB_cause_Other_miss 0
Core_0_STLB_cause_Other_miss_rate 0
Core_0_STLB_Demand_miss 163677
Core_0_STLB_Demand_miss_rate 0.0320374
Core_0_STLB_L1D_Prefetch_miss 0
Core_0_STLB_L1D_Prefetch_miss_rate 0
Core_0_STLB_Other_miss 0
Core_0_STLB_Other_miss_rate 0
BERTI TO_L1: 568941 TO_L2: 4923717 TO_L2_BC_MSHR: 301611
BERTI AVG_LAT: 9.68483 NUM_TRACK_LATENCY: 9190657 NUM_CANT_TRACK_LATENCY: 0
BERTI CROSS_PAGE 3846484 NO_CROSS_PAGE: 1646174
BERTI FOUND_BERTI: 13448901 NO_FOUND_BERTI: 28592726
BERTI AVERAGE_ISSUED: 3.02927
