[VMEM] WARNING: physical memory size is smaller than virtual memory size.

*** ChampSim Multicore Out-of-Order Simulator ***
Warmup Instructions: 50000000
Simulation Instructions: 100000000
Number of CPUs: 1
Page size: 4096
STLB ideal mode: l1pref
STLB ideal fill: on
Core 0: /data0/tzh/champsim_traces/QMM/srv_62_new.xz
VBerti Prefetcher
BERTI HASH ENTANGLING
BERTI IP MASK ffff
Off-chip DRAM Size: 16 GiB Channels: 1 Width: 64-bit Data Rate: 3205 MT/s
[BTB] WARNING: target of return is a lower address than the corresponding call. This is usually a problem with your trace.
[BTB] WARNING: target of return is a lower address than the corresponding call. This is usually a problem with your trace.
[BTB] WARNING: target of return is a lower address than the corresponding call. This is usually a problem with your trace.
[BTB] WARNING: target of return is a lower address than the corresponding call. This is usually a problem with your trace.
[BTB] WARNING: target of return is a lower address than the corresponding call. This is usually a problem with your trace.
[BTB] WARNING: target of return is a lower address than the corresponding call. This is usually a problem with your trace.
[BTB] WARNING: target of return is a lower address than the corresponding call. This is usually a problem with your trace.
[BTB] WARNING: target of return is a lower address than the corresponding call. This is usually a problem with your trace.
[BTB] WARNING: target of return is a lower address than the corresponding call. This is usually a problem with your trace.
[BTB] WARNING: target of return is a lower address than the corresponding call. This is usually a problem with your trace.
*** Reached end of trace: (0, "/data0/tzh/champsim_traces/QMM/srv_62_new.xz")
Warmup halting CPU 0 at instruction 50000002 cycle 10894780 for remainder of phase
Warmup finished CPU 0 instructions: 50000002 cycles: 10894780 cumulative IPC: 4.589 (Simulation time: 00 hr 02 min 50 sec)
Warmup complete CPU 0 instructions: 50000002 cycles: 10894780 cumulative IPC: 4.589 (Simulation time: 00 hr 02 min 50 sec)
*** Reached end of trace: (0, "/data0/tzh/champsim_traces/QMM/srv_62_new.xz")
*** Reached end of trace: (0, "/data0/tzh/champsim_traces/QMM/srv_62_new.xz")
*** Reached end of trace: (0, "/data0/tzh/champsim_traces/QMM/srv_62_new.xz")
Simulation finished CPU 0 instructions: 100000000 cycles: 55204532 cumulative IPC: 1.811 (Simulation time: 00 hr 12 min 33 sec)
Simulation complete CPU 0 instructions: 100000000 cycles: 55204532 cumulative IPC: 1.811 (Simulation time: 00 hr 12 min 33 sec)

ChampSim completed all CPUs

=== Simulation ===
CPU 0 runs /data0/tzh/champsim_traces/QMM/srv_62_new.xz

Region of Interest Statistics

CPU 0 cumulative IPC: 1.811 instructions: 100000000 cycles: 55204532
CPU 0 Branch Prediction Accuracy: 98.41% MPKI: 2.842 Average ROB Occupancy at Mispredict: 137.6
Branch type MPKI
BRANCH_DIRECT_JUMP: 0.1788
BRANCH_INDIRECT: 0.2778
BRANCH_CONDITIONAL: 1.506
BRANCH_DIRECT_CALL: 0.3485
BRANCH_INDIRECT_CALL: 0.2178
BRANCH_RETURN: 0.3126

cpu0->cpu0_STLB TOTAL        ACCESS:    1620699 HIT:    1449826 MISS:     170873 MSHR_MERGE:          0
cpu0->cpu0_STLB LOAD         ACCESS:    1620699 HIT:    1449826 MISS:     170873 MSHR_MERGE:          0
cpu0->cpu0_STLB RFO          ACCESS:          0 HIT:          0 MISS:          0 MSHR_MERGE:          0
cpu0->cpu0_STLB PREFETCH     ACCESS:          0 HIT:          0 MISS:          0 MSHR_MERGE:          0
cpu0->cpu0_STLB WRITE        ACCESS:          0 HIT:          0 MISS:          0 MSHR_MERGE:          0
cpu0->cpu0_STLB TRANSLATION  ACCESS:          0 HIT:          0 MISS:          0 MSHR_MERGE:          0
cpu0->cpu0_STLB PREFETCH REQUESTED:          0 ISSUED:          0 USEFUL:          0 USELESS:          0 LATE:          0
cpu0->cpu0_STLB AVERAGE MISS LATENCY: 35.78 cycles
cpu0->cpu0_L2C TOTAL        ACCESS:    4548105 HIT:    2879256 MISS:    1668849 MSHR_MERGE:       1034
cpu0->cpu0_L2C LOAD         ACCESS:    3660560 HIT:    2195100 MISS:    1465460 MSHR_MERGE:        152
cpu0->cpu0_L2C RFO          ACCESS:     168008 HIT:      83605 MISS:      84403 MSHR_MERGE:          0
cpu0->cpu0_L2C PREFETCH     ACCESS:      36408 HIT:      18067 MISS:      18341 MSHR_MERGE:        882
cpu0->cpu0_L2C WRITE        ACCESS:     524331 HIT:     520441 MISS:       3890 MSHR_MERGE:          0
cpu0->cpu0_L2C TRANSLATION  ACCESS:     158798 HIT:      62043 MISS:      96755 MSHR_MERGE:          0
cpu0->cpu0_L2C PREFETCH REQUESTED:      35856 ISSUED:      35557 USEFUL:      10686 USELESS:       6530 LATE:        152
cpu0->cpu0_L2C AVERAGE MISS LATENCY: 31.19 cycles
cpu0->cpu0_L1I TOTAL        ACCESS:   15499929 HIT:   11334612 MISS:    4165317 MSHR_MERGE:    1598464
cpu0->cpu0_L1I LOAD         ACCESS:   15499929 HIT:   11334612 MISS:    4165317 MSHR_MERGE:    1598464
cpu0->cpu0_L1I RFO          ACCESS:          0 HIT:          0 MISS:          0 MSHR_MERGE:          0
cpu0->cpu0_L1I PREFETCH     ACCESS:          0 HIT:          0 MISS:          0 MSHR_MERGE:          0
cpu0->cpu0_L1I WRITE        ACCESS:          0 HIT:          0 MISS:          0 MSHR_MERGE:          0
cpu0->cpu0_L1I TRANSLATION  ACCESS:          0 HIT:          0 MISS:          0 MSHR_MERGE:          0
cpu0->cpu0_L1I PREFETCH REQUESTED:          0 ISSUED:          0 USEFUL:          0 USELESS:          0 LATE:          0
cpu0->cpu0_L1I AVERAGE MISS LATENCY: 13.86 cycles
cpu0->cpu0_L1D TOTAL        ACCESS:   23426056 HIT:   21325259 MISS:    2100797 MSHR_MERGE:     679403
cpu0->cpu0_L1D LOAD         ACCESS:   13077898 HIT:   11596841 MISS:    1481057 MSHR_MERGE:     387345
cpu0->cpu0_L1D RFO          ACCESS:          0 HIT:          0 MISS:          0 MSHR_MERGE:          0
cpu0->cpu0_L1D PREFETCH     ACCESS:      11130 HIT:      10279 MISS:        851 MSHR_MERGE:          0
cpu0->cpu0_L1D WRITE        ACCESS:    9947505 HIT:    9490293 MISS:     457212 MSHR_MERGE:     289179
cpu0->cpu0_L1D TRANSLATION  ACCESS:     389523 HIT:     227846 MISS:     161677 MSHR_MERGE:       2879
cpu0->cpu0_L1D PREFETCH REQUESTED:      11267 ISSUED:      11130 USEFUL:         51 USELESS:          1 LATE:          0
cpu0->cpu0_L1D AVERAGE MISS LATENCY: 33.71 cycles
cpu0->cpu0_ITLB TOTAL        ACCESS:   13196819 HIT:   12220668 MISS:     976151 MSHR_MERGE:     605882
cpu0->cpu0_ITLB LOAD         ACCESS:   13196819 HIT:   12220668 MISS:     976151 MSHR_MERGE:     605882
cpu0->cpu0_ITLB RFO          ACCESS:          0 HIT:          0 MISS:          0 MSHR_MERGE:          0
cpu0->cpu0_ITLB PREFETCH     ACCESS:          0 HIT:          0 MISS:          0 MSHR_MERGE:          0
cpu0->cpu0_ITLB WRITE        ACCESS:          0 HIT:          0 MISS:          0 MSHR_MERGE:          0
cpu0->cpu0_ITLB TRANSLATION  ACCESS:          0 HIT:          0 MISS:          0 MSHR_MERGE:          0
cpu0->cpu0_ITLB PREFETCH REQUESTED:          0 ISSUED:          0 USEFUL:          0 USELESS:          0 LATE:          0
cpu0->cpu0_ITLB AVERAGE MISS LATENCY: 9.066 cycles
cpu0->cpu0_DTLB TOTAL        ACCESS:   21706372 HIT:   19998784 MISS:    1707588 MSHR_MERGE:     457158
cpu0->cpu0_DTLB LOAD         ACCESS:   21706372 HIT:   19998784 MISS:    1707588 MSHR_MERGE:     457158
cpu0->cpu0_DTLB RFO          ACCESS:          0 HIT:          0 MISS:          0 MSHR_MERGE:          0
cpu0->cpu0_DTLB PREFETCH     ACCESS:          0 HIT:          0 MISS:          0 MSHR_MERGE:          0
cpu0->cpu0_DTLB WRITE        ACCESS:          0 HIT:          0 MISS:          0 MSHR_MERGE:          0
cpu0->cpu0_DTLB TRANSLATION  ACCESS:          0 HIT:          0 MISS:          0 MSHR_MERGE:          0
cpu0->cpu0_DTLB PREFETCH REQUESTED:          0 ISSUED:          0 USEFUL:          0 USELESS:          0 LATE:          0
cpu0->cpu0_DTLB AVERAGE MISS LATENCY: 8.835 cycles
cpu0->LLC TOTAL        ACCESS:    1946105 HIT:    1788973 MISS:     157132 MSHR_MERGE:          0
cpu0->LLC LOAD         ACCESS:    1465308 HIT:    1350956 MISS:     114352 MSHR_MERGE:          0
cpu0->LLC RFO          ACCESS:      84403 HIT:      62207 MISS:      22196 MSHR_MERGE:          0
cpu0->LLC PREFETCH     ACCESS:      17459 HIT:       7514 MISS:       9945 MSHR_MERGE:          0
cpu0->LLC WRITE        ACCESS:     282180 HIT:     277413 MISS:       4767 MSHR_MERGE:          0
cpu0->LLC TRANSLATION  ACCESS:      96755 HIT:      90883 MISS:       5872 MSHR_MERGE:          0
cpu0->LLC PREFETCH REQUESTED:          0 ISSUED:          0 USEFUL:          0 USELESS:          0 LATE:          0
cpu0->LLC AVERAGE MISS LATENCY: 181 cycles

DRAM Statistics

Channel 0 RQ ROW_BUFFER_HIT:       6097
  ROW_BUFFER_MISS:     146267
  AVG DBUS CONGESTED CYCLE: 15.73
Channel 0 WQ ROW_BUFFER_HIT:      24167
  ROW_BUFFER_MISS:      83662
  FULL:          0
Channel 0 REFRESHES ISSUED:       4601

[ROI Statistics]
[System Configuration]
num_cpus 1
cpu_freq 4000
fetch_width 6
decode_width 6
dispatch_width 6
execute_width 6
lq_width 2
sq_width 2
retire_width 6
scheduler_size 128
branch_mispredict_penalty 15
rob_size 352
lq_size 128
sq_size 72
ifetch_buffer_size 64
decode_buffer_size 32
dispatch_buffer_size 32
register_file_size 288
decode_latency 1
dispatch_latency 1
schedule_latency 1
execute_latency 1
page_size 4096
block_size 64
core_0_itlb_set 16
core_0_itlb_way 4
core_0_itlb_rq_size 16
core_0_itlb_wq_size 16
core_0_itlb_pq_size 0
core_0_itlb_mshr_size 8
core_0_itlb_hit_latency 1
core_0_itlb_fill_latency 1
core_0_itlb_max_tag_check 2
core_0_itlb_max_fill 2
core_0_dtlb_set 16
core_0_dtlb_way 4
core_0_dtlb_rq_size 16
core_0_dtlb_wq_size 16
core_0_dtlb_pq_size 0
core_0_dtlb_mshr_size 8
core_0_dtlb_hit_latency 1
core_0_dtlb_fill_latency 1
core_0_dtlb_max_tag_check 2
core_0_dtlb_max_fill 2
core_0_stlb_set 128
core_0_stlb_way 12
core_0_stlb_rq_size 32
core_0_stlb_wq_size 32
core_0_stlb_pq_size 0
core_0_stlb_mshr_size 16
core_0_stlb_hit_latency 4
core_0_stlb_fill_latency 4
core_0_stlb_max_tag_check 1
core_0_stlb_max_fill 1
core_0_l1i_set 64
core_0_l1i_way 8
core_0_l1i_rq_size 64
core_0_l1i_wq_size 64
core_0_l1i_pq_size 32
core_0_l1i_mshr_size 8
core_0_l1i_hit_latency 2
core_0_l1i_fill_latency 2
core_0_l1i_max_tag_check 2
core_0_l1i_max_fill 2
core_0_l1d_set 64
core_0_l1d_way 12
core_0_l1d_rq_size 64
core_0_l1d_wq_size 64
core_0_l1d_pq_size 8
core_0_l1d_mshr_size 16
core_0_l1d_hit_latency 2
core_0_l1d_fill_latency 3
core_0_l1d_max_tag_check 2
core_0_l1d_max_fill 2
core_0_l2c_set 1024
core_0_l2c_way 8
core_0_l2c_rq_size 32
core_0_l2c_wq_size 32
core_0_l2c_pq_size 16
core_0_l2c_mshr_size 32
core_0_l2c_hit_latency 5
core_0_l2c_fill_latency 5
core_0_l2c_max_tag_check 1
core_0_l2c_max_fill 1
llc_set 2048
llc_way 16
llc_rq_size 32
llc_wq_size 32
llc_pq_size 32
llc_mshr_size 64
llc_hit_latency 10
llc_fill_latency 10
llc_max_tag_check 1
llc_max_fill 1
dram_channels 1
dram_ranks 1
dram_bankgroups 8
dram_banks 4
dram_rows 65536
dram_columns 1024
dram_channel_width 8
dram_rq_size 64
dram_wq_size 64
dram_size 17179869184
core_0_itlb_prefetcher no
core_0_dtlb_prefetcher no
core_0_stlb_prefetcher no
core_0_l1i_prefetcher next_line
core_0_l1d_prefetcher vberti
core_0_l2c_prefetcher ip_stride
llc_prefetcher no
llc_replacement drrip

Core_0_instructions 100000000
Core_0_cycles 55204532
Core_0_IPC 1.81145
Core_0_branch_prediction_accuracy 98.414
Core_0_branch_MPKI 2.84152
Core_0_average_ROB_occupancy_at_mispredict 137.643

Core_0_ITLB_total_access 13196819
Core_0_ITLB_total_hit 12220668
Core_0_ITLB_total_miss 976151
Core_0_ITLB_total_MPKI 9.76151
Core_0_ITLB_total_miss_rate 0.0739687
Core_0_ITLB_demand_access 13196819
Core_0_ITLB_demand_hit 12220668
Core_0_ITLB_demand_miss 976151
Core_0_ITLB_demand_MPKI 9.76151
Core_0_ITLB_demand_miss_rate 0.0739687
Core_0_ITLB_load_access 13196819
Core_0_ITLB_load_hit 12220668
Core_0_ITLB_load_miss 976151
Core_0_ITLB_load_MPKI 9.76151
Core_0_ITLB_load_miss_rate 0.0739687
Core_0_ITLB_rfo_access 0
Core_0_ITLB_rfo_hit 0
Core_0_ITLB_rfo_miss 0
Core_0_ITLB_rfo_MPKI 0
Core_0_ITLB_rfo_miss_rate 0
Core_0_ITLB_prefetch_access 0
Core_0_ITLB_prefetch_hit 0
Core_0_ITLB_prefetch_miss 0
Core_0_ITLB_prefetch_MPKI 0
Core_0_ITLB_prefetch_miss_rate 0
Core_0_ITLB_writeback_access 0
Core_0_ITLB_writeback_hit 0
Core_0_ITLB_writeback_miss 0
Core_0_ITLB_writeback_MPKI 0
Core_0_ITLB_writeback_miss_rate 0
Core_0_ITLB_prefetch_requested 0
Core_0_ITLB_prefetch_issued 0
Core_0_ITLB_prefetch_useful 0
Core_0_ITLB_prefetch_useless 0
Core_0_ITLB_prefetch_late 0
Core_0_ITLB_prefetch_accuracy 0
Core_0_ITLB_prefetch_coverage 0
Core_0_ITLB_total_eviction 370269

Core_0_DTLB_total_access 21706372
Core_0_DTLB_total_hit 19998784
Core_0_DTLB_total_miss 1707588
Core_0_DTLB_total_MPKI 17.0759
Core_0_DTLB_total_miss_rate 0.0786676
Core_0_DTLB_demand_access 21706372
Core_0_DTLB_demand_hit 19998784
Core_0_DTLB_demand_miss 1707588
Core_0_DTLB_demand_MPKI 17.0759
Core_0_DTLB_demand_miss_rate 0.0786676
Core_0_DTLB_load_access 21706372
Core_0_DTLB_load_hit 19998784
Core_0_DTLB_load_miss 1707588
Core_0_DTLB_load_MPKI 17.0759
Core_0_DTLB_load_miss_rate 0.0786676
Core_0_DTLB_rfo_access 0
Core_0_DTLB_rfo_hit 0
Core_0_DTLB_rfo_miss 0
Core_0_DTLB_rfo_MPKI 0
Core_0_DTLB_rfo_miss_rate 0
Core_0_DTLB_prefetch_access 0
Core_0_DTLB_prefetch_hit 0
Core_0_DTLB_prefetch_miss 0
Core_0_DTLB_prefetch_MPKI 0
Core_0_DTLB_prefetch_miss_rate 0
Core_0_DTLB_writeback_access 0
Core_0_DTLB_writeback_hit 0
Core_0_DTLB_writeback_miss 0
Core_0_DTLB_writeback_MPKI 0
Core_0_DTLB_writeback_miss_rate 0
Core_0_DTLB_prefetch_requested 0
Core_0_DTLB_prefetch_issued 0
Core_0_DTLB_prefetch_useful 0
Core_0_DTLB_prefetch_useless 0
Core_0_DTLB_prefetch_late 0
Core_0_DTLB_prefetch_accuracy 0
Core_0_DTLB_prefetch_coverage 0
Core_0_DTLB_total_eviction 1250429

Core_0_STLB_total_access 1620699
Core_0_STLB_total_hit 1449826
Core_0_STLB_total_miss 170873
Core_0_STLB_total_MPKI 1.70873
Core_0_STLB_total_miss_rate 0.105432
Core_0_STLB_demand_access 1620699
Core_0_STLB_demand_hit 1449826
Core_0_STLB_demand_miss 170873
Core_0_STLB_demand_MPKI 1.70873
Core_0_STLB_demand_miss_rate 0.105432
Core_0_STLB_load_access 1620699
Core_0_STLB_load_hit 1449826
Core_0_STLB_load_miss 170873
Core_0_STLB_load_MPKI 1.70873
Core_0_STLB_load_miss_rate 0.105432
Core_0_STLB_rfo_access 0
Core_0_STLB_rfo_hit 0
Core_0_STLB_rfo_miss 0
Core_0_STLB_rfo_MPKI 0
Core_0_STLB_rfo_miss_rate 0
Core_0_STLB_prefetch_access 0
Core_0_STLB_prefetch_hit 0
Core_0_STLB_prefetch_miss 0
Core_0_STLB_prefetch_MPKI 0
Core_0_STLB_prefetch_miss_rate 0
Core_0_STLB_writeback_access 0
Core_0_STLB_writeback_hit 0
Core_0_STLB_writeback_miss 0
Core_0_STLB_writeback_MPKI 0
Core_0_STLB_writeback_miss_rate 0
Core_0_STLB_prefetch_requested 0
Core_0_STLB_prefetch_issued 0
Core_0_STLB_prefetch_useful 0
Core_0_STLB_prefetch_useless 0
Core_0_STLB_prefetch_late 0
Core_0_STLB_prefetch_accuracy 0
Core_0_STLB_prefetch_coverage 0
Core_0_STLB_total_eviction 170880

Core_0_L1I_total_access 15499929
Core_0_L1I_total_hit 11334612
Core_0_L1I_total_miss 4165317
Core_0_L1I_total_MPKI 41.6532
Core_0_L1I_total_miss_rate 0.268731
Core_0_L1I_demand_access 15499929
Core_0_L1I_demand_hit 11334612
Core_0_L1I_demand_miss 4165317
Core_0_L1I_demand_MPKI 41.6532
Core_0_L1I_demand_miss_rate 0.268731
Core_0_L1I_load_access 15499929
Core_0_L1I_load_hit 11334612
Core_0_L1I_load_miss 4165317
Core_0_L1I_load_MPKI 41.6532
Core_0_L1I_load_miss_rate 0.268731
Core_0_L1I_rfo_access 0
Core_0_L1I_rfo_hit 0
Core_0_L1I_rfo_miss 0
Core_0_L1I_rfo_MPKI 0
Core_0_L1I_rfo_miss_rate 0
Core_0_L1I_prefetch_access 0
Core_0_L1I_prefetch_hit 0
Core_0_L1I_prefetch_miss 0
Core_0_L1I_prefetch_MPKI 0
Core_0_L1I_prefetch_miss_rate 0
Core_0_L1I_writeback_access 0
Core_0_L1I_writeback_hit 0
Core_0_L1I_writeback_miss 0
Core_0_L1I_writeback_MPKI 0
Core_0_L1I_writeback_miss_rate 0
Core_0_L1I_prefetch_requested 0
Core_0_L1I_prefetch_issued 0
Core_0_L1I_prefetch_useful 0
Core_0_L1I_prefetch_useless 0
Core_0_L1I_prefetch_late 0
Core_0_L1I_prefetch_accuracy 0
Core_0_L1I_prefetch_coverage 0
Core_0_L1I_total_eviction 2566852

Core_0_L1D_total_access 23036533
Core_0_L1D_total_hit 21097413
Core_0_L1D_total_miss 1939120
Core_0_L1D_total_MPKI 19.3912
Core_0_L1D_total_miss_rate 0.0841759
Core_0_L1D_demand_access 13077898
Core_0_L1D_demand_hit 11596841
Core_0_L1D_demand_miss 1481057
Core_0_L1D_demand_MPKI 14.8106
Core_0_L1D_demand_miss_rate 0.113249
Core_0_L1D_load_access 13077898
Core_0_L1D_load_hit 11596841
Core_0_L1D_load_miss 1481057
Core_0_L1D_load_MPKI 14.8106
Core_0_L1D_load_miss_rate 0.113249
Core_0_L1D_rfo_access 0
Core_0_L1D_rfo_hit 0
Core_0_L1D_rfo_miss 0
Core_0_L1D_rfo_MPKI 0
Core_0_L1D_rfo_miss_rate 0
Core_0_L1D_prefetch_access 11130
Core_0_L1D_prefetch_hit 10279
Core_0_L1D_prefetch_miss 851
Core_0_L1D_prefetch_MPKI 0.00851
Core_0_L1D_prefetch_miss_rate 0.07646
Core_0_L1D_writeback_access 9947505
Core_0_L1D_writeback_hit 9490293
Core_0_L1D_writeback_miss 457212
Core_0_L1D_writeback_MPKI 4.57212
Core_0_L1D_writeback_miss_rate 0.0459625
Core_0_L1D_prefetch_requested 11267
Core_0_L1D_prefetch_issued 11130
Core_0_L1D_prefetch_useful 51
Core_0_L1D_prefetch_useless 1
Core_0_L1D_prefetch_late 0
Core_0_L1D_prefetch_accuracy 0.00458221
Core_0_L1D_prefetch_coverage 3.44337e-05
Core_0_L1D_total_eviction 1420593

Core_0_L2C_total_access 4389307
Core_0_L2C_total_hit 2817213
Core_0_L2C_total_miss 1572094
Core_0_L2C_total_MPKI 15.7209
Core_0_L2C_total_miss_rate 0.358165
Core_0_L2C_demand_access 3828568
Core_0_L2C_demand_hit 2278705
Core_0_L2C_demand_miss 1549863
Core_0_L2C_demand_MPKI 15.4986
Core_0_L2C_demand_miss_rate 0.404815
Core_0_L2C_load_access 3660560
Core_0_L2C_load_hit 2195100
Core_0_L2C_load_miss 1465460
Core_0_L2C_load_MPKI 14.6546
Core_0_L2C_load_miss_rate 0.400338
Core_0_L2C_rfo_access 168008
Core_0_L2C_rfo_hit 83605
Core_0_L2C_rfo_miss 84403
Core_0_L2C_rfo_MPKI 0.84403
Core_0_L2C_rfo_miss_rate 0.502375
Core_0_L2C_prefetch_access 36408
Core_0_L2C_prefetch_hit 18067
Core_0_L2C_prefetch_miss 18341
Core_0_L2C_prefetch_MPKI 0.18341
Core_0_L2C_prefetch_miss_rate 0.503763
Core_0_L2C_writeback_access 524331
Core_0_L2C_writeback_hit 520441
Core_0_L2C_writeback_miss 3890
Core_0_L2C_writeback_MPKI 0.0389
Core_0_L2C_writeback_miss_rate 0.00741898
Core_0_L2C_prefetch_requested 35856
Core_0_L2C_prefetch_issued 35557
Core_0_L2C_prefetch_useful 10686
Core_0_L2C_prefetch_useless 6530
Core_0_L2C_prefetch_late 152
Core_0_L2C_prefetch_accuracy 0.300532
Core_0_L2C_prefetch_coverage 0.00684759
Core_0_L2C_total_eviction 1667814

Core_0_LLC_total_access 1849350
Core_0_LLC_total_hit 1698090
Core_0_LLC_total_miss 151260
Core_0_LLC_total_MPKI 1.5126
Core_0_LLC_total_miss_rate 0.0817909
Core_0_LLC_demand_access 1549711
Core_0_LLC_demand_hit 1413163
Core_0_LLC_demand_miss 136548
Core_0_LLC_demand_MPKI 1.36548
Core_0_LLC_demand_miss_rate 0.0881119
Core_0_LLC_load_access 1465308
Core_0_LLC_load_hit 1350956
Core_0_LLC_load_miss 114352
Core_0_LLC_load_MPKI 1.14352
Core_0_LLC_load_miss_rate 0.0780396
Core_0_LLC_rfo_access 84403
Core_0_LLC_rfo_hit 62207
Core_0_LLC_rfo_miss 22196
Core_0_LLC_rfo_MPKI 0.22196
Core_0_LLC_rfo_miss_rate 0.262976
Core_0_LLC_prefetch_access 17459
Core_0_LLC_prefetch_hit 7514
Core_0_LLC_prefetch_miss 9945
Core_0_LLC_prefetch_MPKI 0.09945
Core_0_LLC_prefetch_miss_rate 0.56962
Core_0_LLC_writeback_access 282180
Core_0_LLC_writeback_hit 277413
Core_0_LLC_writeback_miss 4767
Core_0_LLC_writeback_MPKI 0.04767
Core_0_LLC_writeback_miss_rate 0.0168935
Core_0_LLC_prefetch_requested 0
Core_0_LLC_prefetch_issued 0
Core_0_LLC_prefetch_useful 0
Core_0_LLC_prefetch_useless 0
Core_0_LLC_prefetch_late 0
Core_0_LLC_prefetch_accuracy 0
Core_0_LLC_prefetch_coverage 0
Core_0_LLC_total_eviction 157132

[DRAM Statistics]
Channel_0_RQ_row_buffer_hit 6097
Channel_0_RQ_row_buffer_miss 146267
Channel_0_WQ_row_buffer_hit 24167
Channel_0_WQ_row_buffer_miss 83662
Channel_0_WQ_full 0
Channel_0_dbus_congested 808257
DRAM_total_RQ_row_buffer_hit 6097
DRAM_total_RQ_row_buffer_miss 146267
DRAM_total_WQ_row_buffer_hit 24167
DRAM_total_WQ_row_buffer_miss 83662
DRAM_total_WQ_full 0
DRAM_total_dbus_congested 808257
DRAM_avg_congested_cycle 15.7284

======STLB miss causes ========
Core_0_STLB_miss_cause_breakdown
Core_0_STLB_cause_Demand_Data_miss 111592
Core_0_STLB_cause_Demand_Data_miss_rate 0.0688542
Core_0_STLB_cause_Demand_Instruction_miss 59281
Core_0_STLB_cause_Demand_Instruction_miss_rate 0.0365774
Core_0_STLB_cause_L1D_Prefetch_miss 0
Core_0_STLB_cause_L1D_Prefetch_miss_rate 0
Core_0_STLB_cause_L1I_Prefetch_miss 0
Core_0_STLB_cause_L1I_Prefetch_miss_rate 0
Core_0_STLB_cause_Other_miss 0
Core_0_STLB_cause_Other_miss_rate 0
Core_0_STLB_Demand_miss 170873
Core_0_STLB_Demand_miss_rate 0.105432
Core_0_STLB_L1D_Prefetch_miss 0
Core_0_STLB_L1D_Prefetch_miss_rate 0
Core_0_STLB_Other_miss 0
Core_0_STLB_Other_miss_rate 0
BERTI TO_L1: 78054 TO_L2: 71144 TO_L2_BC_MSHR: 0
BERTI AVG_LAT: 24.998 NUM_TRACK_LATENCY: 1893162 NUM_CANT_TRACK_LATENCY: 0
BERTI CROSS_PAGE 20823 NO_CROSS_PAGE: 128375
BERTI FOUND_BERTI: 904188 NO_FOUND_BERTI: 31938532
BERTI AVERAGE_ISSUED: 4.50948
