[VMEM] WARNING: physical memory size is smaller than virtual memory size.

*** ChampSim Multicore Out-of-Order Simulator ***
Warmup Instructions: 50000000
Simulation Instructions: 100000000
Number of CPUs: 1
Page size: 4096
STLB ideal mode: l1pref
STLB ideal fill: on
Core 0: /data0/tzh/champsim_traces/QMM/srv_64_new.xz
VBerti Prefetcher
BERTI HASH ENTANGLING
BERTI IP MASK ffff
Off-chip DRAM Size: 16 GiB Channels: 1 Width: 64-bit Data Rate: 3205 MT/s
[BTB] WARNING: target of return is a lower address than the corresponding call. This is usually a problem with your trace.
[BTB] WARNING: target of return is a lower address than the corresponding call. This is usually a problem with your trace.
[BTB] WARNING: target of return is a lower address than the corresponding call. This is usually a problem with your trace.
[BTB] WARNING: target of return is a lower address than the corresponding call. This is usually a problem with your trace.
[BTB] WARNING: target of return is a lower address than the corresponding call. This is usually a problem with your trace.
[BTB] WARNING: target of return is a lower address than the corresponding call. This is usually a problem with your trace.
[BTB] WARNING: target of return is a lower address than the corresponding call. This is usually a problem with your trace.
[BTB] WARNING: target of return is a lower address than the corresponding call. This is usually a problem with your trace.
[BTB] WARNING: target of return is a lower address than the corresponding call. This is usually a problem with your trace.
[BTB] WARNING: target of return is a lower address than the corresponding call. This is usually a problem with your trace.
*** Reached end of trace: (0, "/data0/tzh/champsim_traces/QMM/srv_64_new.xz")
Warmup halting CPU 0 at instruction 50000002 cycle 10735742 for remainder of phase
Warmup finished CPU 0 instructions: 50000002 cycles: 10735742 cumulative IPC: 4.657 (Simulation time: 00 hr 02 min 46 sec)
Warmup complete CPU 0 instructions: 50000002 cycles: 10735742 cumulative IPC: 4.657 (Simulation time: 00 hr 02 min 46 sec)
*** Reached end of trace: (0, "/data0/tzh/champsim_traces/QMM/srv_64_new.xz")
*** Reached end of trace: (0, "/data0/tzh/champsim_traces/QMM/srv_64_new.xz")
*** Reached end of trace: (0, "/data0/tzh/champsim_traces/QMM/srv_64_new.xz")
Simulation finished CPU 0 instructions: 100000004 cycles: 51804510 cumulative IPC: 1.93 (Simulation time: 00 hr 12 min 11 sec)
Simulation complete CPU 0 instructions: 100000004 cycles: 51804510 cumulative IPC: 1.93 (Simulation time: 00 hr 12 min 11 sec)

ChampSim completed all CPUs

=== Simulation ===
CPU 0 runs /data0/tzh/champsim_traces/QMM/srv_64_new.xz

Region of Interest Statistics

CPU 0 cumulative IPC: 1.93 instructions: 100000004 cycles: 51804510
CPU 0 Branch Prediction Accuracy: 98.84% MPKI: 2.088 Average ROB Occupancy at Mispredict: 156.1
Branch type MPKI
BRANCH_DIRECT_JUMP: 0.1303
BRANCH_INDIRECT: 0.1636
BRANCH_CONDITIONAL: 1.238
BRANCH_DIRECT_CALL: 0.2398
BRANCH_INDIRECT_CALL: 0.07531
BRANCH_RETURN: 0.241

cpu0->cpu0_STLB TOTAL        ACCESS:    1632664 HIT:    1472466 MISS:     160198 MSHR_MERGE:          0
cpu0->cpu0_STLB LOAD         ACCESS:    1632664 HIT:    1472466 MISS:     160198 MSHR_MERGE:          0
cpu0->cpu0_STLB RFO          ACCESS:          0 HIT:          0 MISS:          0 MSHR_MERGE:          0
cpu0->cpu0_STLB PREFETCH     ACCESS:          0 HIT:          0 MISS:          0 MSHR_MERGE:          0
cpu0->cpu0_STLB WRITE        ACCESS:          0 HIT:          0 MISS:          0 MSHR_MERGE:          0
cpu0->cpu0_STLB TRANSLATION  ACCESS:          0 HIT:          0 MISS:          0 MSHR_MERGE:          0
cpu0->cpu0_STLB PREFETCH REQUESTED:          0 ISSUED:          0 USEFUL:          0 USELESS:          0 LATE:          0
cpu0->cpu0_STLB AVERAGE MISS LATENCY: 36.32 cycles
cpu0->cpu0_L2C TOTAL        ACCESS:    4538328 HIT:    2950582 MISS:    1587746 MSHR_MERGE:       1135
cpu0->cpu0_L2C LOAD         ACCESS:    3661588 HIT:    2274420 MISS:    1387168 MSHR_MERGE:        108
cpu0->cpu0_L2C RFO          ACCESS:     164754 HIT:      78469 MISS:      86285 MSHR_MERGE:          3
cpu0->cpu0_L2C PREFETCH     ACCESS:      38638 HIT:      20408 MISS:      18230 MSHR_MERGE:       1024
cpu0->cpu0_L2C WRITE        ACCESS:     522597 HIT:     517347 MISS:       5250 MSHR_MERGE:          0
cpu0->cpu0_L2C TRANSLATION  ACCESS:     150751 HIT:      59938 MISS:      90813 MSHR_MERGE:          0
cpu0->cpu0_L2C PREFETCH REQUESTED:      37306 ISSUED:      37122 USEFUL:      11260 USELESS:       5656 LATE:        107
cpu0->cpu0_L2C AVERAGE MISS LATENCY: 31.14 cycles
cpu0->cpu0_L1I TOTAL        ACCESS:   15858862 HIT:   11666331 MISS:    4192531 MSHR_MERGE:    1629913
cpu0->cpu0_L1I LOAD         ACCESS:   15858862 HIT:   11666331 MISS:    4192531 MSHR_MERGE:    1629913
cpu0->cpu0_L1I RFO          ACCESS:          0 HIT:          0 MISS:          0 MSHR_MERGE:          0
cpu0->cpu0_L1I PREFETCH     ACCESS:          0 HIT:          0 MISS:          0 MSHR_MERGE:          0
cpu0->cpu0_L1I WRITE        ACCESS:          0 HIT:          0 MISS:          0 MSHR_MERGE:          0
cpu0->cpu0_L1I TRANSLATION  ACCESS:          0 HIT:          0 MISS:          0 MSHR_MERGE:          0
cpu0->cpu0_L1I PREFETCH REQUESTED:          0 ISSUED:          0 USEFUL:          0 USELESS:          0 LATE:          0
cpu0->cpu0_L1I AVERAGE MISS LATENCY: 13.07 cycles
cpu0->cpu0_L1D TOTAL        ACCESS:   23077014 HIT:   20971071 MISS:    2105943 MSHR_MERGE:     689927
cpu0->cpu0_L1D LOAD         ACCESS:   12811375 HIT:   11318003 MISS:    1493372 MSHR_MERGE:     394390
cpu0->cpu0_L1D RFO          ACCESS:          0 HIT:          0 MISS:          0 MSHR_MERGE:          0
cpu0->cpu0_L1D PREFETCH     ACCESS:      21035 HIT:      19516 MISS:       1519 MSHR_MERGE:          2
cpu0->cpu0_L1D WRITE        ACCESS:    9879675 HIT:    9422307 MISS:     457368 MSHR_MERGE:     292602
cpu0->cpu0_L1D TRANSLATION  ACCESS:     364929 HIT:     211245 MISS:     153684 MSHR_MERGE:       2933
cpu0->cpu0_L1D PREFETCH REQUESTED:      25813 ISSUED:      21035 USEFUL:        169 USELESS:         26 LATE:          3
cpu0->cpu0_L1D AVERAGE MISS LATENCY: 33.41 cycles
cpu0->cpu0_ITLB TOTAL        ACCESS:   13493171 HIT:   12492722 MISS:    1000449 MSHR_MERGE:     620279
cpu0->cpu0_ITLB LOAD         ACCESS:   13493171 HIT:   12492722 MISS:    1000449 MSHR_MERGE:     620279
cpu0->cpu0_ITLB RFO          ACCESS:          0 HIT:          0 MISS:          0 MSHR_MERGE:          0
cpu0->cpu0_ITLB PREFETCH     ACCESS:          0 HIT:          0 MISS:          0 MSHR_MERGE:          0
cpu0->cpu0_ITLB WRITE        ACCESS:          0 HIT:          0 MISS:          0 MSHR_MERGE:          0
cpu0->cpu0_ITLB TRANSLATION  ACCESS:          0 HIT:          0 MISS:          0 MSHR_MERGE:          0
cpu0->cpu0_ITLB PREFETCH REQUESTED:          0 ISSUED:          0 USEFUL:          0 USELESS:          0 LATE:          0
cpu0->cpu0_ITLB AVERAGE MISS LATENCY: 8.599 cycles
cpu0->cpu0_DTLB TOTAL        ACCESS:   21333836 HIT:   19627727 MISS:    1706109 MSHR_MERGE:     453615
cpu0->cpu0_DTLB LOAD         ACCESS:   21333836 HIT:   19627727 MISS:    1706109 MSHR_MERGE:     453615
cpu0->cpu0_DTLB RFO          ACCESS:          0 HIT:          0 MISS:          0 MSHR_MERGE:          0
cpu0->cpu0_DTLB PREFETCH     ACCESS:          0 HIT:          0 MISS:          0 MSHR_MERGE:          0
cpu0->cpu0_DTLB WRITE        ACCESS:          0 HIT:          0 MISS:          0 MSHR_MERGE:          0
cpu0->cpu0_DTLB TRANSLATION  ACCESS:          0 HIT:          0 MISS:          0 MSHR_MERGE:          0
cpu0->cpu0_DTLB PREFETCH REQUESTED:          0 ISSUED:          0 USEFUL:          0 USELESS:          0 LATE:          0
cpu0->cpu0_DTLB AVERAGE MISS LATENCY: 8.696 cycles
cpu0->LLC TOTAL        ACCESS:    1857514 HIT:    1707626 MISS:     149888 MSHR_MERGE:          0
cpu0->LLC LOAD         ACCESS:    1387059 HIT:    1280459 MISS:     106600 MSHR_MERGE:          0
cpu0->LLC RFO          ACCESS:      86282 HIT:      63778 MISS:      22504 MSHR_MERGE:          0
cpu0->LLC PREFETCH     ACCESS:      17206 HIT:       7039 MISS:      10167 MSHR_MERGE:          0
cpu0->LLC WRITE        ACCESS:     276154 HIT:     271299 MISS:       4855 MSHR_MERGE:          0
cpu0->LLC TRANSLATION  ACCESS:      90813 HIT:      85051 MISS:       5762 MSHR_MERGE:          0
cpu0->LLC PREFETCH REQUESTED:          0 ISSUED:          0 USEFUL:          0 USELESS:          0 LATE:          0
cpu0->LLC AVERAGE MISS LATENCY: 181 cycles

DRAM Statistics

Channel 0 RQ ROW_BUFFER_HIT:       5922
  ROW_BUFFER_MISS:     139110
  AVG DBUS CONGESTED CYCLE: 15.71
Channel 0 WQ ROW_BUFFER_HIT:      22617
  ROW_BUFFER_MISS:      82597
  FULL:          0
Channel 0 REFRESHES ISSUED:       4317

[ROI Statistics]
[System Configuration]
num_cpus 1
cpu_freq 4000
fetch_width 6
decode_width 6
dispatch_width 6
execute_width 6
lq_width 2
sq_width 2
retire_width 6
scheduler_size 128
branch_mispredict_penalty 15
rob_size 352
lq_size 128
sq_size 72
ifetch_buffer_size 64
decode_buffer_size 32
dispatch_buffer_size 32
register_file_size 288
decode_latency 1
dispatch_latency 1
schedule_latency 1
execute_latency 1
page_size 4096
block_size 64
core_0_itlb_set 16
core_0_itlb_way 4
core_0_itlb_rq_size 16
core_0_itlb_wq_size 16
core_0_itlb_pq_size 0
core_0_itlb_mshr_size 8
core_0_itlb_hit_latency 1
core_0_itlb_fill_latency 1
core_0_itlb_max_tag_check 2
core_0_itlb_max_fill 2
core_0_dtlb_set 16
core_0_dtlb_way 4
core_0_dtlb_rq_size 16
core_0_dtlb_wq_size 16
core_0_dtlb_pq_size 0
core_0_dtlb_mshr_size 8
core_0_dtlb_hit_latency 1
core_0_dtlb_fill_latency 1
core_0_dtlb_max_tag_check 2
core_0_dtlb_max_fill 2
core_0_stlb_set 128
core_0_stlb_way 12
core_0_stlb_rq_size 32
core_0_stlb_wq_size 32
core_0_stlb_pq_size 0
core_0_stlb_mshr_size 16
core_0_stlb_hit_latency 4
core_0_stlb_fill_latency 4
core_0_stlb_max_tag_check 1
core_0_stlb_max_fill 1
core_0_l1i_set 64
core_0_l1i_way 8
core_0_l1i_rq_size 64
core_0_l1i_wq_size 64
core_0_l1i_pq_size 32
core_0_l1i_mshr_size 8
core_0_l1i_hit_latency 2
core_0_l1i_fill_latency 2
core_0_l1i_max_tag_check 2
core_0_l1i_max_fill 2
core_0_l1d_set 64
core_0_l1d_way 12
core_0_l1d_rq_size 64
core_0_l1d_wq_size 64
core_0_l1d_pq_size 8
core_0_l1d_mshr_size 16
core_0_l1d_hit_latency 2
core_0_l1d_fill_latency 3
core_0_l1d_max_tag_check 2
core_0_l1d_max_fill 2
core_0_l2c_set 1024
core_0_l2c_way 8
core_0_l2c_rq_size 32
core_0_l2c_wq_size 32
core_0_l2c_pq_size 16
core_0_l2c_mshr_size 32
core_0_l2c_hit_latency 5
core_0_l2c_fill_latency 5
core_0_l2c_max_tag_check 1
core_0_l2c_max_fill 1
llc_set 2048
llc_way 16
llc_rq_size 32
llc_wq_size 32
llc_pq_size 32
llc_mshr_size 64
llc_hit_latency 10
llc_fill_latency 10
llc_max_tag_check 1
llc_max_fill 1
dram_channels 1
dram_ranks 1
dram_bankgroups 8
dram_banks 4
dram_rows 65536
dram_columns 1024
dram_channel_width 8
dram_rq_size 64
dram_wq_size 64
dram_size 17179869184
core_0_itlb_prefetcher no
core_0_dtlb_prefetcher no
core_0_stlb_prefetcher no
core_0_l1i_prefetcher next_line
core_0_l1d_prefetcher vberti
core_0_l2c_prefetcher ip_stride
llc_prefetcher no
llc_replacement drrip

Core_0_instructions 100000004
Core_0_cycles 51804510
Core_0_IPC 1.93033
Core_0_branch_prediction_accuracy 98.8358
Core_0_branch_MPKI 2.08849
Core_0_average_ROB_occupancy_at_mispredict 156.12

Core_0_ITLB_total_access 13493171
Core_0_ITLB_total_hit 12492722
Core_0_ITLB_total_miss 1000449
Core_0_ITLB_total_MPKI 10.0045
Core_0_ITLB_total_miss_rate 0.0741448
Core_0_ITLB_demand_access 13493171
Core_0_ITLB_demand_hit 12492722
Core_0_ITLB_demand_miss 1000449
Core_0_ITLB_demand_MPKI 10.0045
Core_0_ITLB_demand_miss_rate 0.0741448
Core_0_ITLB_load_access 13493171
Core_0_ITLB_load_hit 12492722
Core_0_ITLB_load_miss 1000449
Core_0_ITLB_load_MPKI 10.0045
Core_0_ITLB_load_miss_rate 0.0741448
Core_0_ITLB_rfo_access 0
Core_0_ITLB_rfo_hit 0
Core_0_ITLB_rfo_miss 0
Core_0_ITLB_rfo_MPKI 0
Core_0_ITLB_rfo_miss_rate 0
Core_0_ITLB_prefetch_access 0
Core_0_ITLB_prefetch_hit 0
Core_0_ITLB_prefetch_miss 0
Core_0_ITLB_prefetch_MPKI 0
Core_0_ITLB_prefetch_miss_rate 0
Core_0_ITLB_writeback_access 0
Core_0_ITLB_writeback_hit 0
Core_0_ITLB_writeback_miss 0
Core_0_ITLB_writeback_MPKI 0
Core_0_ITLB_writeback_miss_rate 0
Core_0_ITLB_prefetch_requested 0
Core_0_ITLB_prefetch_issued 0
Core_0_ITLB_prefetch_useful 0
Core_0_ITLB_prefetch_useless 0
Core_0_ITLB_prefetch_late 0
Core_0_ITLB_prefetch_accuracy 0
Core_0_ITLB_prefetch_coverage 0
Core_0_ITLB_total_eviction 380170

Core_0_DTLB_total_access 21333836
Core_0_DTLB_total_hit 19627727
Core_0_DTLB_total_miss 1706109
Core_0_DTLB_total_MPKI 17.0611
Core_0_DTLB_total_miss_rate 0.079972
Core_0_DTLB_demand_access 21333836
Core_0_DTLB_demand_hit 19627727
Core_0_DTLB_demand_miss 1706109
Core_0_DTLB_demand_MPKI 17.0611
Core_0_DTLB_demand_miss_rate 0.079972
Core_0_DTLB_load_access 21333836
Core_0_DTLB_load_hit 19627727
Core_0_DTLB_load_miss 1706109
Core_0_DTLB_load_MPKI 17.0611
Core_0_DTLB_load_miss_rate 0.079972
Core_0_DTLB_rfo_access 0
Core_0_DTLB_rfo_hit 0
Core_0_DTLB_rfo_miss 0
Core_0_DTLB_rfo_MPKI 0
Core_0_DTLB_rfo_miss_rate 0
Core_0_DTLB_prefetch_access 0
Core_0_DTLB_prefetch_hit 0
Core_0_DTLB_prefetch_miss 0
Core_0_DTLB_prefetch_MPKI 0
Core_0_DTLB_prefetch_miss_rate 0
Core_0_DTLB_writeback_access 0
Core_0_DTLB_writeback_hit 0
Core_0_DTLB_writeback_miss 0
Core_0_DTLB_writeback_MPKI 0
Core_0_DTLB_writeback_miss_rate 0
Core_0_DTLB_prefetch_requested 0
Core_0_DTLB_prefetch_issued 0
Core_0_DTLB_prefetch_useful 0
Core_0_DTLB_prefetch_useless 0
Core_0_DTLB_prefetch_late 0
Core_0_DTLB_prefetch_accuracy 0
Core_0_DTLB_prefetch_coverage 0
Core_0_DTLB_total_eviction 1252494

Core_0_STLB_total_access 1632664
Core_0_STLB_total_hit 1472466
Core_0_STLB_total_miss 160198
Core_0_STLB_total_MPKI 1.60198
Core_0_STLB_total_miss_rate 0.0981206
Core_0_STLB_demand_access 1632664
Core_0_STLB_demand_hit 1472466
Core_0_STLB_demand_miss 160198
Core_0_STLB_demand_MPKI 1.60198
Core_0_STLB_demand_miss_rate 0.0981206
Core_0_STLB_load_access 1632664
Core_0_STLB_load_hit 1472466
Core_0_STLB_load_miss 160198
Core_0_STLB_load_MPKI 1.60198
Core_0_STLB_load_miss_rate 0.0981206
Core_0_STLB_rfo_access 0
Core_0_STLB_rfo_hit 0
Core_0_STLB_rfo_miss 0
Core_0_STLB_rfo_MPKI 0
Core_0_STLB_rfo_miss_rate 0
Core_0_STLB_prefetch_access 0
Core_0_STLB_prefetch_hit 0
Core_0_STLB_prefetch_miss 0
Core_0_STLB_prefetch_MPKI 0
Core_0_STLB_prefetch_miss_rate 0
Core_0_STLB_writeback_access 0
Core_0_STLB_writeback_hit 0
Core_0_STLB_writeback_miss 0
Core_0_STLB_writeback_MPKI 0
Core_0_STLB_writeback_miss_rate 0
Core_0_STLB_prefetch_requested 0
Core_0_STLB_prefetch_issued 0
Core_0_STLB_prefetch_useful 0
Core_0_STLB_prefetch_useless 0
Core_0_STLB_prefetch_late 0
Core_0_STLB_prefetch_accuracy 0
Core_0_STLB_prefetch_coverage 0
Core_0_STLB_total_eviction 160201

Core_0_L1I_total_access 15858862
Core_0_L1I_total_hit 11666331
Core_0_L1I_total_miss 4192531
Core_0_L1I_total_MPKI 41.9253
Core_0_L1I_total_miss_rate 0.264365
Core_0_L1I_demand_access 15858862
Core_0_L1I_demand_hit 11666331
Core_0_L1I_demand_miss 4192531
Core_0_L1I_demand_MPKI 41.9253
Core_0_L1I_demand_miss_rate 0.264365
Core_0_L1I_load_access 15858862
Core_0_L1I_load_hit 11666331
Core_0_L1I_load_miss 4192531
Core_0_L1I_load_MPKI 41.9253
Core_0_L1I_load_miss_rate 0.264365
Core_0_L1I_rfo_access 0
Core_0_L1I_rfo_hit 0
Core_0_L1I_rfo_miss 0
Core_0_L1I_rfo_MPKI 0
Core_0_L1I_rfo_miss_rate 0
Core_0_L1I_prefetch_access 0
Core_0_L1I_prefetch_hit 0
Core_0_L1I_prefetch_miss 0
Core_0_L1I_prefetch_MPKI 0
Core_0_L1I_prefetch_miss_rate 0
Core_0_L1I_writeback_access 0
Core_0_L1I_writeback_hit 0
Core_0_L1I_writeback_miss 0
Core_0_L1I_writeback_MPKI 0
Core_0_L1I_writeback_miss_rate 0
Core_0_L1I_prefetch_requested 0
Core_0_L1I_prefetch_issued 0
Core_0_L1I_prefetch_useful 0
Core_0_L1I_prefetch_useless 0
Core_0_L1I_prefetch_late 0
Core_0_L1I_prefetch_accuracy 0
Core_0_L1I_prefetch_coverage 0
Core_0_L1I_total_eviction 2562616

Core_0_L1D_total_access 22712085
Core_0_L1D_total_hit 20759826
Core_0_L1D_total_miss 1952259
Core_0_L1D_total_MPKI 19.5226
Core_0_L1D_total_miss_rate 0.0859568
Core_0_L1D_demand_access 12811375
Core_0_L1D_demand_hit 11318003
Core_0_L1D_demand_miss 1493372
Core_0_L1D_demand_MPKI 14.9337
Core_0_L1D_demand_miss_rate 0.116566
Core_0_L1D_load_access 12811375
Core_0_L1D_load_hit 11318003
Core_0_L1D_load_miss 1493372
Core_0_L1D_load_MPKI 14.9337
Core_0_L1D_load_miss_rate 0.116566
Core_0_L1D_rfo_access 0
Core_0_L1D_rfo_hit 0
Core_0_L1D_rfo_miss 0
Core_0_L1D_rfo_MPKI 0
Core_0_L1D_rfo_miss_rate 0
Core_0_L1D_prefetch_access 21035
Core_0_L1D_prefetch_hit 19516
Core_0_L1D_prefetch_miss 1519
Core_0_L1D_prefetch_MPKI 0.01519
Core_0_L1D_prefetch_miss_rate 0.072213
Core_0_L1D_writeback_access 9879675
Core_0_L1D_writeback_hit 9422307
Core_0_L1D_writeback_miss 457368
Core_0_L1D_writeback_MPKI 4.57368
Core_0_L1D_writeback_miss_rate 0.0462938
Core_0_L1D_prefetch_requested 25813
Core_0_L1D_prefetch_issued 21035
Core_0_L1D_prefetch_useful 169
Core_0_L1D_prefetch_useless 26
Core_0_L1D_prefetch_late 3
Core_0_L1D_prefetch_accuracy 0.00803423
Core_0_L1D_prefetch_coverage 0.000113154
Core_0_L1D_total_eviction 1414689

Core_0_L2C_total_access 4387577
Core_0_L2C_total_hit 2890644
Core_0_L2C_total_miss 1496933
Core_0_L2C_total_MPKI 14.9693
Core_0_L2C_total_miss_rate 0.341175
Core_0_L2C_demand_access 3826342
Core_0_L2C_demand_hit 2352889
Core_0_L2C_demand_miss 1473453
Core_0_L2C_demand_MPKI 14.7345
Core_0_L2C_demand_miss_rate 0.385081
Core_0_L2C_load_access 3661588
Core_0_L2C_load_hit 2274420
Core_0_L2C_load_miss 1387168
Core_0_L2C_load_MPKI 13.8717
Core_0_L2C_load_miss_rate 0.378843
Core_0_L2C_rfo_access 164754
Core_0_L2C_rfo_hit 78469
Core_0_L2C_rfo_miss 86285
Core_0_L2C_rfo_MPKI 0.86285
Core_0_L2C_rfo_miss_rate 0.52372
Core_0_L2C_prefetch_access 38638
Core_0_L2C_prefetch_hit 20408
Core_0_L2C_prefetch_miss 18230
Core_0_L2C_prefetch_MPKI 0.1823
Core_0_L2C_prefetch_miss_rate 0.471815
Core_0_L2C_writeback_access 522597
Core_0_L2C_writeback_hit 517347
Core_0_L2C_writeback_miss 5250
Core_0_L2C_writeback_MPKI 0.0525
Core_0_L2C_writeback_miss_rate 0.010046
Core_0_L2C_prefetch_requested 37306
Core_0_L2C_prefetch_issued 37122
Core_0_L2C_prefetch_useful 11260
Core_0_L2C_prefetch_useless 5656
Core_0_L2C_prefetch_late 107
Core_0_L2C_prefetch_accuracy 0.303324
Core_0_L2C_prefetch_coverage 0.00758396
Core_0_L2C_total_eviction 1586610

Core_0_LLC_total_access 1766701
Core_0_LLC_total_hit 1622575
Core_0_LLC_total_miss 144126
Core_0_LLC_total_MPKI 1.44126
Core_0_LLC_total_miss_rate 0.0815792
Core_0_LLC_demand_access 1473341
Core_0_LLC_demand_hit 1344237
Core_0_LLC_demand_miss 129104
Core_0_LLC_demand_MPKI 1.29104
Core_0_LLC_demand_miss_rate 0.0876267
Core_0_LLC_load_access 1387059
Core_0_LLC_load_hit 1280459
Core_0_LLC_load_miss 106600
Core_0_LLC_load_MPKI 1.066
Core_0_LLC_load_miss_rate 0.0768533
Core_0_LLC_rfo_access 86282
Core_0_LLC_rfo_hit 63778
Core_0_LLC_rfo_miss 22504
Core_0_LLC_rfo_MPKI 0.22504
Core_0_LLC_rfo_miss_rate 0.260819
Core_0_LLC_prefetch_access 17206
Core_0_LLC_prefetch_hit 7039
Core_0_LLC_prefetch_miss 10167
Core_0_LLC_prefetch_MPKI 0.10167
Core_0_LLC_prefetch_miss_rate 0.590899
Core_0_LLC_writeback_access 276154
Core_0_LLC_writeback_hit 271299
Core_0_LLC_writeback_miss 4855
Core_0_LLC_writeback_MPKI 0.04855
Core_0_LLC_writeback_miss_rate 0.0175808
Core_0_LLC_prefetch_requested 0
Core_0_LLC_prefetch_issued 0
Core_0_LLC_prefetch_useful 0
Core_0_LLC_prefetch_useless 0
Core_0_LLC_prefetch_late 0
Core_0_LLC_prefetch_accuracy 0
Core_0_LLC_prefetch_coverage 0
Core_0_LLC_total_eviction 149888

[DRAM Statistics]
Channel_0_RQ_row_buffer_hit 5922
Channel_0_RQ_row_buffer_miss 139110
Channel_0_WQ_row_buffer_hit 22617
Channel_0_WQ_row_buffer_miss 82597
Channel_0_WQ_full 0
Channel_0_dbus_congested 780201
DRAM_total_RQ_row_buffer_hit 5922
DRAM_total_RQ_row_buffer_miss 139110
DRAM_total_WQ_row_buffer_hit 22617
DRAM_total_WQ_row_buffer_miss 82597
DRAM_total_WQ_full 0
DRAM_total_dbus_congested 780201
DRAM_avg_congested_cycle 15.7109

======STLB miss causes ========
Core_0_STLB_miss_cause_breakdown
Core_0_STLB_cause_Demand_Data_miss 104310
Core_0_STLB_cause_Demand_Data_miss_rate 0.0638894
Core_0_STLB_cause_Demand_Instruction_miss 55888
Core_0_STLB_cause_Demand_Instruction_miss_rate 0.0342312
Core_0_STLB_cause_L1D_Prefetch_miss 0
Core_0_STLB_cause_L1D_Prefetch_miss_rate 0
Core_0_STLB_cause_L1I_Prefetch_miss 0
Core_0_STLB_cause_L1I_Prefetch_miss_rate 0
Core_0_STLB_cause_Other_miss 0
Core_0_STLB_cause_Other_miss_rate 0
Core_0_STLB_Demand_miss 160198
Core_0_STLB_Demand_miss_rate 0.0981206
Core_0_STLB_L1D_Prefetch_miss 0
Core_0_STLB_L1D_Prefetch_miss_rate 0
Core_0_STLB_Other_miss 0
Core_0_STLB_Other_miss_rate 0
BERTI TO_L1: 94177 TO_L2: 94386 TO_L2_BC_MSHR: 0
BERTI AVG_LAT: 24.8452 NUM_TRACK_LATENCY: 1896174 NUM_CANT_TRACK_LATENCY: 0
BERTI CROSS_PAGE 24292 NO_CROSS_PAGE: 164271
BERTI FOUND_BERTI: 966148 NO_FOUND_BERTI: 31424841
BERTI AVERAGE_ISSUED: 5.30543
