[VMEM] WARNING: physical memory size is smaller than virtual memory size.

*** ChampSim Multicore Out-of-Order Simulator ***
Warmup Instructions: 50000000
Simulation Instructions: 100000000
Number of CPUs: 1
Page size: 4096
STLB ideal mode: l1pref
STLB ideal fill: on
Core 0: /data0/tzh/champsim_traces/QMM/srv_68_new.xz
VBerti Prefetcher
BERTI HASH ENTANGLING
BERTI IP MASK ffff
Off-chip DRAM Size: 16 GiB Channels: 1 Width: 64-bit Data Rate: 3205 MT/s
[BTB] WARNING: target of return is a lower address than the corresponding call. This is usually a problem with your trace.
[BTB] WARNING: target of return is a lower address than the corresponding call. This is usually a problem with your trace.
[BTB] WARNING: target of return is a lower address than the corresponding call. This is usually a problem with your trace.
[BTB] WARNING: target of return is a lower address than the corresponding call. This is usually a problem with your trace.
[BTB] WARNING: target of return is a lower address than the corresponding call. This is usually a problem with your trace.
[BTB] WARNING: target of return is a lower address than the corresponding call. This is usually a problem with your trace.
[BTB] WARNING: target of return is a lower address than the corresponding call. This is usually a problem with your trace.
[BTB] WARNING: target of return is a lower address than the corresponding call. This is usually a problem with your trace.
[BTB] WARNING: target of return is a lower address than the corresponding call. This is usually a problem with your trace.
[BTB] WARNING: target of return is a lower address than the corresponding call. This is usually a problem with your trace.
*** Reached end of trace: (0, "/data0/tzh/champsim_traces/QMM/srv_68_new.xz")
Warmup halting CPU 0 at instruction 50000002 cycle 10834538 for remainder of phase
Warmup finished CPU 0 instructions: 50000002 cycles: 10834538 cumulative IPC: 4.615 (Simulation time: 00 hr 02 min 50 sec)
Warmup complete CPU 0 instructions: 50000002 cycles: 10834538 cumulative IPC: 4.615 (Simulation time: 00 hr 02 min 50 sec)
*** Reached end of trace: (0, "/data0/tzh/champsim_traces/QMM/srv_68_new.xz")
*** Reached end of trace: (0, "/data0/tzh/champsim_traces/QMM/srv_68_new.xz")
*** Reached end of trace: (0, "/data0/tzh/champsim_traces/QMM/srv_68_new.xz")
Simulation finished CPU 0 instructions: 100000002 cycles: 57414092 cumulative IPC: 1.742 (Simulation time: 00 hr 11 min 58 sec)
Simulation complete CPU 0 instructions: 100000002 cycles: 57414092 cumulative IPC: 1.742 (Simulation time: 00 hr 11 min 58 sec)

ChampSim completed all CPUs

=== Simulation ===
CPU 0 runs /data0/tzh/champsim_traces/QMM/srv_68_new.xz

Region of Interest Statistics

CPU 0 cumulative IPC: 1.742 instructions: 100000002 cycles: 57414092
CPU 0 Branch Prediction Accuracy: 98.16% MPKI: 3.242 Average ROB Occupancy at Mispredict: 122.3
Branch type MPKI
BRANCH_DIRECT_JUMP: 0.2564
BRANCH_INDIRECT: 0.2007
BRANCH_CONDITIONAL: 1.876
BRANCH_DIRECT_CALL: 0.4524
BRANCH_INDIRECT_CALL: 0.09171
BRANCH_RETURN: 0.3655

cpu0->cpu0_STLB TOTAL        ACCESS:    1538891 HIT:    1348725 MISS:     190166 MSHR_MERGE:          0
cpu0->cpu0_STLB LOAD         ACCESS:    1538891 HIT:    1348725 MISS:     190166 MSHR_MERGE:          0
cpu0->cpu0_STLB RFO          ACCESS:          0 HIT:          0 MISS:          0 MSHR_MERGE:          0
cpu0->cpu0_STLB PREFETCH     ACCESS:          0 HIT:          0 MISS:          0 MSHR_MERGE:          0
cpu0->cpu0_STLB WRITE        ACCESS:          0 HIT:          0 MISS:          0 MSHR_MERGE:          0
cpu0->cpu0_STLB TRANSLATION  ACCESS:          0 HIT:          0 MISS:          0 MSHR_MERGE:          0
cpu0->cpu0_STLB PREFETCH REQUESTED:          0 ISSUED:          0 USEFUL:          0 USELESS:          0 LATE:          0
cpu0->cpu0_STLB AVERAGE MISS LATENCY: 34.16 cycles
cpu0->cpu0_L2C TOTAL        ACCESS:    4304272 HIT:    2565048 MISS:    1739224 MSHR_MERGE:        590
cpu0->cpu0_L2C LOAD         ACCESS:    3448216 HIT:    1918069 MISS:    1530147 MSHR_MERGE:         51
cpu0->cpu0_L2C RFO          ACCESS:     155852 HIT:      74499 MISS:      81353 MSHR_MERGE:          1
cpu0->cpu0_L2C PREFETCH     ACCESS:      32929 HIT:      15627 MISS:      17302 MSHR_MERGE:        538
cpu0->cpu0_L2C WRITE        ACCESS:     499121 HIT:     496671 MISS:       2450 MSHR_MERGE:          0
cpu0->cpu0_L2C TRANSLATION  ACCESS:     168154 HIT:      60182 MISS:     107972 MSHR_MERGE:          0
cpu0->cpu0_L2C PREFETCH REQUESTED:      30918 ISSUED:      30848 USEFUL:       9912 USELESS:       6592 LATE:         51
cpu0->cpu0_L2C AVERAGE MISS LATENCY: 31.52 cycles
cpu0->cpu0_L1I TOTAL        ACCESS:   15618162 HIT:   11761099 MISS:    3857063 MSHR_MERGE:    1463159
cpu0->cpu0_L1I LOAD         ACCESS:   15618162 HIT:   11761099 MISS:    3857063 MSHR_MERGE:    1463159
cpu0->cpu0_L1I RFO          ACCESS:          0 HIT:          0 MISS:          0 MSHR_MERGE:          0
cpu0->cpu0_L1I PREFETCH     ACCESS:          0 HIT:          0 MISS:          0 MSHR_MERGE:          0
cpu0->cpu0_L1I WRITE        ACCESS:          0 HIT:          0 MISS:          0 MSHR_MERGE:          0
cpu0->cpu0_L1I TRANSLATION  ACCESS:          0 HIT:          0 MISS:          0 MSHR_MERGE:          0
cpu0->cpu0_L1I PREFETCH REQUESTED:          0 ISSUED:          0 USEFUL:          0 USELESS:          0 LATE:          0
cpu0->cpu0_L1I AVERAGE MISS LATENCY: 14.41 cycles
cpu0->cpu0_L1D TOTAL        ACCESS:   23284682 HIT:   21226442 MISS:    2058240 MSHR_MERGE:     677833
cpu0->cpu0_L1D LOAD         ACCESS:   13031583 HIT:   11600079 MISS:    1431504 MSHR_MERGE:     377184
cpu0->cpu0_L1D RFO          ACCESS:          0 HIT:          0 MISS:          0 MSHR_MERGE:          0
cpu0->cpu0_L1D PREFETCH     ACCESS:      26340 HIT:      24259 MISS:       2081 MSHR_MERGE:          0
cpu0->cpu0_L1D WRITE        ACCESS:    9799480 HIT:    9346201 MISS:     453279 MSHR_MERGE:     297427
cpu0->cpu0_L1D TRANSLATION  ACCESS:     427279 HIT:     255903 MISS:     171376 MSHR_MERGE:       3222
cpu0->cpu0_L1D PREFETCH REQUESTED:      27657 ISSUED:      26340 USEFUL:        105 USELESS:         14 LATE:          0
cpu0->cpu0_L1D AVERAGE MISS LATENCY: 36.39 cycles
cpu0->cpu0_ITLB TOTAL        ACCESS:   13253890 HIT:   12315195 MISS:     938695 MSHR_MERGE:     583964
cpu0->cpu0_ITLB LOAD         ACCESS:   13253890 HIT:   12315195 MISS:     938695 MSHR_MERGE:     583964
cpu0->cpu0_ITLB RFO          ACCESS:          0 HIT:          0 MISS:          0 MSHR_MERGE:          0
cpu0->cpu0_ITLB PREFETCH     ACCESS:          0 HIT:          0 MISS:          0 MSHR_MERGE:          0
cpu0->cpu0_ITLB WRITE        ACCESS:          0 HIT:          0 MISS:          0 MSHR_MERGE:          0
cpu0->cpu0_ITLB TRANSLATION  ACCESS:          0 HIT:          0 MISS:          0 MSHR_MERGE:          0
cpu0->cpu0_ITLB PREFETCH REQUESTED:          0 ISSUED:          0 USEFUL:          0 USELESS:          0 LATE:          0
cpu0->cpu0_ITLB AVERAGE MISS LATENCY: 9.947 cycles
cpu0->cpu0_DTLB TOTAL        ACCESS:   21542257 HIT:   19930829 MISS:    1611428 MSHR_MERGE:     427268
cpu0->cpu0_DTLB LOAD         ACCESS:   21542257 HIT:   19930829 MISS:    1611428 MSHR_MERGE:     427268
cpu0->cpu0_DTLB RFO          ACCESS:          0 HIT:          0 MISS:          0 MSHR_MERGE:          0
cpu0->cpu0_DTLB PREFETCH     ACCESS:          0 HIT:          0 MISS:          0 MSHR_MERGE:          0
cpu0->cpu0_DTLB WRITE        ACCESS:          0 HIT:          0 MISS:          0 MSHR_MERGE:          0
cpu0->cpu0_DTLB TRANSLATION  ACCESS:          0 HIT:          0 MISS:          0 MSHR_MERGE:          0
cpu0->cpu0_DTLB PREFETCH REQUESTED:          0 ISSUED:          0 USEFUL:          0 USELESS:          0 LATE:          0
cpu0->cpu0_DTLB AVERAGE MISS LATENCY: 9.178 cycles
cpu0->LLC TOTAL        ACCESS:    2015673 HIT:    1857078 MISS:     158595 MSHR_MERGE:          0
cpu0->LLC LOAD         ACCESS:    1530092 HIT:    1415126 MISS:     114966 MSHR_MERGE:          0
cpu0->LLC RFO          ACCESS:      81352 HIT:      56890 MISS:      24462 MSHR_MERGE:          0
cpu0->LLC PREFETCH     ACCESS:      16764 HIT:       8305 MISS:       8459 MSHR_MERGE:          0
cpu0->LLC WRITE        ACCESS:     279493 HIT:     274211 MISS:       5282 MSHR_MERGE:          0
cpu0->LLC TRANSLATION  ACCESS:     107972 HIT:     102546 MISS:       5426 MSHR_MERGE:          0
cpu0->LLC PREFETCH REQUESTED:          0 ISSUED:          0 USEFUL:          0 USELESS:          0 LATE:          0
cpu0->LLC AVERAGE MISS LATENCY: 188.8 cycles

DRAM Statistics

Channel 0 RQ ROW_BUFFER_HIT:       4786
  ROW_BUFFER_MISS:     148525
  AVG DBUS CONGESTED CYCLE: 15.86
Channel 0 WQ ROW_BUFFER_HIT:      22939
  ROW_BUFFER_MISS:      85786
  FULL:          0
Channel 0 REFRESHES ISSUED:       4785

[ROI Statistics]
[System Configuration]
num_cpus 1
cpu_freq 4000
fetch_width 6
decode_width 6
dispatch_width 6
execute_width 6
lq_width 2
sq_width 2
retire_width 6
scheduler_size 128
branch_mispredict_penalty 15
rob_size 352
lq_size 128
sq_size 72
ifetch_buffer_size 64
decode_buffer_size 32
dispatch_buffer_size 32
register_file_size 288
decode_latency 1
dispatch_latency 1
schedule_latency 1
execute_latency 1
page_size 4096
block_size 64
core_0_itlb_set 16
core_0_itlb_way 4
core_0_itlb_rq_size 16
core_0_itlb_wq_size 16
core_0_itlb_pq_size 0
core_0_itlb_mshr_size 8
core_0_itlb_hit_latency 1
core_0_itlb_fill_latency 1
core_0_itlb_max_tag_check 2
core_0_itlb_max_fill 2
core_0_dtlb_set 16
core_0_dtlb_way 4
core_0_dtlb_rq_size 16
core_0_dtlb_wq_size 16
core_0_dtlb_pq_size 0
core_0_dtlb_mshr_size 8
core_0_dtlb_hit_latency 1
core_0_dtlb_fill_latency 1
core_0_dtlb_max_tag_check 2
core_0_dtlb_max_fill 2
core_0_stlb_set 128
core_0_stlb_way 12
core_0_stlb_rq_size 32
core_0_stlb_wq_size 32
core_0_stlb_pq_size 0
core_0_stlb_mshr_size 16
core_0_stlb_hit_latency 4
core_0_stlb_fill_latency 4
core_0_stlb_max_tag_check 1
core_0_stlb_max_fill 1
core_0_l1i_set 64
core_0_l1i_way 8
core_0_l1i_rq_size 64
core_0_l1i_wq_size 64
core_0_l1i_pq_size 32
core_0_l1i_mshr_size 8
core_0_l1i_hit_latency 2
core_0_l1i_fill_latency 2
core_0_l1i_max_tag_check 2
core_0_l1i_max_fill 2
core_0_l1d_set 64
core_0_l1d_way 12
core_0_l1d_rq_size 64
core_0_l1d_wq_size 64
core_0_l1d_pq_size 8
core_0_l1d_mshr_size 16
core_0_l1d_hit_latency 2
core_0_l1d_fill_latency 3
core_0_l1d_max_tag_check 2
core_0_l1d_max_fill 2
core_0_l2c_set 1024
core_0_l2c_way 8
core_0_l2c_rq_size 32
core_0_l2c_wq_size 32
core_0_l2c_pq_size 16
core_0_l2c_mshr_size 32
core_0_l2c_hit_latency 5
core_0_l2c_fill_latency 5
core_0_l2c_max_tag_check 1
core_0_l2c_max_fill 1
llc_set 2048
llc_way 16
llc_rq_size 32
llc_wq_size 32
llc_pq_size 32
llc_mshr_size 64
llc_hit_latency 10
llc_fill_latency 10
llc_max_tag_check 1
llc_max_fill 1
dram_channels 1
dram_ranks 1
dram_bankgroups 8
dram_banks 4
dram_rows 65536
dram_columns 1024
dram_channel_width 8
dram_rq_size 64
dram_wq_size 64
dram_size 17179869184
core_0_itlb_prefetcher no
core_0_dtlb_prefetcher no
core_0_stlb_prefetcher no
core_0_l1i_prefetcher next_line
core_0_l1d_prefetcher vberti
core_0_l2c_prefetcher ip_stride
llc_prefetcher no
llc_replacement drrip

Core_0_instructions 100000002
Core_0_cycles 57414092
Core_0_IPC 1.74173
Core_0_branch_prediction_accuracy 98.1594
Core_0_branch_MPKI 3.24223
Core_0_average_ROB_occupancy_at_mispredict 122.313

Core_0_ITLB_total_access 13253890
Core_0_ITLB_total_hit 12315195
Core_0_ITLB_total_miss 938695
Core_0_ITLB_total_MPKI 9.38695
Core_0_ITLB_total_miss_rate 0.0708241
Core_0_ITLB_demand_access 13253890
Core_0_ITLB_demand_hit 12315195
Core_0_ITLB_demand_miss 938695
Core_0_ITLB_demand_MPKI 9.38695
Core_0_ITLB_demand_miss_rate 0.0708241
Core_0_ITLB_load_access 13253890
Core_0_ITLB_load_hit 12315195
Core_0_ITLB_load_miss 938695
Core_0_ITLB_load_MPKI 9.38695
Core_0_ITLB_load_miss_rate 0.0708241
Core_0_ITLB_rfo_access 0
Core_0_ITLB_rfo_hit 0
Core_0_ITLB_rfo_miss 0
Core_0_ITLB_rfo_MPKI 0
Core_0_ITLB_rfo_miss_rate 0
Core_0_ITLB_prefetch_access 0
Core_0_ITLB_prefetch_hit 0
Core_0_ITLB_prefetch_miss 0
Core_0_ITLB_prefetch_MPKI 0
Core_0_ITLB_prefetch_miss_rate 0
Core_0_ITLB_writeback_access 0
Core_0_ITLB_writeback_hit 0
Core_0_ITLB_writeback_miss 0
Core_0_ITLB_writeback_MPKI 0
Core_0_ITLB_writeback_miss_rate 0
Core_0_ITLB_prefetch_requested 0
Core_0_ITLB_prefetch_issued 0
Core_0_ITLB_prefetch_useful 0
Core_0_ITLB_prefetch_useless 0
Core_0_ITLB_prefetch_late 0
Core_0_ITLB_prefetch_accuracy 0
Core_0_ITLB_prefetch_coverage 0
Core_0_ITLB_total_eviction 354732

Core_0_DTLB_total_access 21542257
Core_0_DTLB_total_hit 19930829
Core_0_DTLB_total_miss 1611428
Core_0_DTLB_total_MPKI 16.1143
Core_0_DTLB_total_miss_rate 0.0748031
Core_0_DTLB_demand_access 21542257
Core_0_DTLB_demand_hit 19930829
Core_0_DTLB_demand_miss 1611428
Core_0_DTLB_demand_MPKI 16.1143
Core_0_DTLB_demand_miss_rate 0.0748031
Core_0_DTLB_load_access 21542257
Core_0_DTLB_load_hit 19930829
Core_0_DTLB_load_miss 1611428
Core_0_DTLB_load_MPKI 16.1143
Core_0_DTLB_load_miss_rate 0.0748031
Core_0_DTLB_rfo_access 0
Core_0_DTLB_rfo_hit 0
Core_0_DTLB_rfo_miss 0
Core_0_DTLB_rfo_MPKI 0
Core_0_DTLB_rfo_miss_rate 0
Core_0_DTLB_prefetch_access 0
Core_0_DTLB_prefetch_hit 0
Core_0_DTLB_prefetch_miss 0
Core_0_DTLB_prefetch_MPKI 0
Core_0_DTLB_prefetch_miss_rate 0
Core_0_DTLB_writeback_access 0
Core_0_DTLB_writeback_hit 0
Core_0_DTLB_writeback_miss 0
Core_0_DTLB_writeback_MPKI 0
Core_0_DTLB_writeback_miss_rate 0
Core_0_DTLB_prefetch_requested 0
Core_0_DTLB_prefetch_issued 0
Core_0_DTLB_prefetch_useful 0
Core_0_DTLB_prefetch_useless 0
Core_0_DTLB_prefetch_late 0
Core_0_DTLB_prefetch_accuracy 0
Core_0_DTLB_prefetch_coverage 0
Core_0_DTLB_total_eviction 1184162

Core_0_STLB_total_access 1538891
Core_0_STLB_total_hit 1348725
Core_0_STLB_total_miss 190166
Core_0_STLB_total_MPKI 1.90166
Core_0_STLB_total_miss_rate 0.123573
Core_0_STLB_demand_access 1538891
Core_0_STLB_demand_hit 1348725
Core_0_STLB_demand_miss 190166
Core_0_STLB_demand_MPKI 1.90166
Core_0_STLB_demand_miss_rate 0.123573
Core_0_STLB_load_access 1538891
Core_0_STLB_load_hit 1348725
Core_0_STLB_load_miss 190166
Core_0_STLB_load_MPKI 1.90166
Core_0_STLB_load_miss_rate 0.123573
Core_0_STLB_rfo_access 0
Core_0_STLB_rfo_hit 0
Core_0_STLB_rfo_miss 0
Core_0_STLB_rfo_MPKI 0
Core_0_STLB_rfo_miss_rate 0
Core_0_STLB_prefetch_access 0
Core_0_STLB_prefetch_hit 0
Core_0_STLB_prefetch_miss 0
Core_0_STLB_prefetch_MPKI 0
Core_0_STLB_prefetch_miss_rate 0
Core_0_STLB_writeback_access 0
Core_0_STLB_writeback_hit 0
Core_0_STLB_writeback_miss 0
Core_0_STLB_writeback_MPKI 0
Core_0_STLB_writeback_miss_rate 0
Core_0_STLB_prefetch_requested 0
Core_0_STLB_prefetch_issued 0
Core_0_STLB_prefetch_useful 0
Core_0_STLB_prefetch_useless 0
Core_0_STLB_prefetch_late 0
Core_0_STLB_prefetch_accuracy 0
Core_0_STLB_prefetch_coverage 0
Core_0_STLB_total_eviction 190174

Core_0_L1I_total_access 15618162
Core_0_L1I_total_hit 11761099
Core_0_L1I_total_miss 3857063
Core_0_L1I_total_MPKI 38.5706
Core_0_L1I_total_miss_rate 0.24696
Core_0_L1I_demand_access 15618162
Core_0_L1I_demand_hit 11761099
Core_0_L1I_demand_miss 3857063
Core_0_L1I_demand_MPKI 38.5706
Core_0_L1I_demand_miss_rate 0.24696
Core_0_L1I_load_access 15618162
Core_0_L1I_load_hit 11761099
Core_0_L1I_load_miss 3857063
Core_0_L1I_load_MPKI 38.5706
Core_0_L1I_load_miss_rate 0.24696
Core_0_L1I_rfo_access 0
Core_0_L1I_rfo_hit 0
Core_0_L1I_rfo_miss 0
Core_0_L1I_rfo_MPKI 0
Core_0_L1I_rfo_miss_rate 0
Core_0_L1I_prefetch_access 0
Core_0_L1I_prefetch_hit 0
Core_0_L1I_prefetch_miss 0
Core_0_L1I_prefetch_MPKI 0
Core_0_L1I_prefetch_miss_rate 0
Core_0_L1I_writeback_access 0
Core_0_L1I_writeback_hit 0
Core_0_L1I_writeback_miss 0
Core_0_L1I_writeback_MPKI 0
Core_0_L1I_writeback_miss_rate 0
Core_0_L1I_prefetch_requested 0
Core_0_L1I_prefetch_issued 0
Core_0_L1I_prefetch_useful 0
Core_0_L1I_prefetch_useless 0
Core_0_L1I_prefetch_late 0
Core_0_L1I_prefetch_accuracy 0
Core_0_L1I_prefetch_coverage 0
Core_0_L1I_total_eviction 2393903

Core_0_L1D_total_access 22857403
Core_0_L1D_total_hit 20970539
Core_0_L1D_total_miss 1886864
Core_0_L1D_total_MPKI 18.8686
Core_0_L1D_total_miss_rate 0.0825494
Core_0_L1D_demand_access 13031583
Core_0_L1D_demand_hit 11600079
Core_0_L1D_demand_miss 1431504
Core_0_L1D_demand_MPKI 14.315
Core_0_L1D_demand_miss_rate 0.109849
Core_0_L1D_load_access 13031583
Core_0_L1D_load_hit 11600079
Core_0_L1D_load_miss 1431504
Core_0_L1D_load_MPKI 14.315
Core_0_L1D_load_miss_rate 0.109849
Core_0_L1D_rfo_access 0
Core_0_L1D_rfo_hit 0
Core_0_L1D_rfo_miss 0
Core_0_L1D_rfo_MPKI 0
Core_0_L1D_rfo_miss_rate 0
Core_0_L1D_prefetch_access 26340
Core_0_L1D_prefetch_hit 24259
Core_0_L1D_prefetch_miss 2081
Core_0_L1D_prefetch_MPKI 0.02081
Core_0_L1D_prefetch_miss_rate 0.0790053
Core_0_L1D_writeback_access 9799480
Core_0_L1D_writeback_hit 9346201
Core_0_L1D_writeback_miss 453279
Core_0_L1D_writeback_MPKI 4.53279
Core_0_L1D_writeback_miss_rate 0.0462554
Core_0_L1D_prefetch_requested 27657
Core_0_L1D_prefetch_issued 26340
Core_0_L1D_prefetch_useful 105
Core_0_L1D_prefetch_useless 14
Core_0_L1D_prefetch_late 0
Core_0_L1D_prefetch_accuracy 0.00398633
Core_0_L1D_prefetch_coverage 7.3344e-05
Core_0_L1D_total_eviction 1378450

Core_0_L2C_total_access 4136118
Core_0_L2C_total_hit 2504866
Core_0_L2C_total_miss 1631252
Core_0_L2C_total_MPKI 16.3125
Core_0_L2C_total_miss_rate 0.394392
Core_0_L2C_demand_access 3604068
Core_0_L2C_demand_hit 1992568
Core_0_L2C_demand_miss 1611500
Core_0_L2C_demand_MPKI 16.115
Core_0_L2C_demand_miss_rate 0.447134
Core_0_L2C_load_access 3448216
Core_0_L2C_load_hit 1918069
Core_0_L2C_load_miss 1530147
Core_0_L2C_load_MPKI 15.3015
Core_0_L2C_load_miss_rate 0.44375
Core_0_L2C_rfo_access 155852
Core_0_L2C_rfo_hit 74499
Core_0_L2C_rfo_miss 81353
Core_0_L2C_rfo_MPKI 0.81353
Core_0_L2C_rfo_miss_rate 0.521989
Core_0_L2C_prefetch_access 32929
Core_0_L2C_prefetch_hit 15627
Core_0_L2C_prefetch_miss 17302
Core_0_L2C_prefetch_MPKI 0.17302
Core_0_L2C_prefetch_miss_rate 0.525434
Core_0_L2C_writeback_access 499121
Core_0_L2C_writeback_hit 496671
Core_0_L2C_writeback_miss 2450
Core_0_L2C_writeback_MPKI 0.0245
Core_0_L2C_writeback_miss_rate 0.00490863
Core_0_L2C_prefetch_requested 30918
Core_0_L2C_prefetch_issued 30848
Core_0_L2C_prefetch_useful 9912
Core_0_L2C_prefetch_useless 6592
Core_0_L2C_prefetch_late 51
Core_0_L2C_prefetch_accuracy 0.321317
Core_0_L2C_prefetch_coverage 0.00611319
Core_0_L2C_total_eviction 1738634

Core_0_LLC_total_access 1907701
Core_0_LLC_total_hit 1754532
Core_0_LLC_total_miss 153169
Core_0_LLC_total_MPKI 1.53169
Core_0_LLC_total_miss_rate 0.0802898
Core_0_LLC_demand_access 1611444
Core_0_LLC_demand_hit 1472016
Core_0_LLC_demand_miss 139428
Core_0_LLC_demand_MPKI 1.39428
Core_0_LLC_demand_miss_rate 0.0865236
Core_0_LLC_load_access 1530092
Core_0_LLC_load_hit 1415126
Core_0_LLC_load_miss 114966
Core_0_LLC_load_MPKI 1.14966
Core_0_LLC_load_miss_rate 0.0751367
Core_0_LLC_rfo_access 81352
Core_0_LLC_rfo_hit 56890
Core_0_LLC_rfo_miss 24462
Core_0_LLC_rfo_MPKI 0.24462
Core_0_LLC_rfo_miss_rate 0.300693
Core_0_LLC_prefetch_access 16764
Core_0_LLC_prefetch_hit 8305
Core_0_LLC_prefetch_miss 8459
Core_0_LLC_prefetch_MPKI 0.08459
Core_0_LLC_prefetch_miss_rate 0.504593
Core_0_LLC_writeback_access 279493
Core_0_LLC_writeback_hit 274211
Core_0_LLC_writeback_miss 5282
Core_0_LLC_writeback_MPKI 0.05282
Core_0_LLC_writeback_miss_rate 0.0188985
Core_0_LLC_prefetch_requested 0
Core_0_LLC_prefetch_issued 0
Core_0_LLC_prefetch_useful 0
Core_0_LLC_prefetch_useless 0
Core_0_LLC_prefetch_late 0
Core_0_LLC_prefetch_accuracy 0
Core_0_LLC_prefetch_coverage 0
Core_0_LLC_total_eviction 158596

[DRAM Statistics]
Channel_0_RQ_row_buffer_hit 4786
Channel_0_RQ_row_buffer_miss 148525
Channel_0_WQ_row_buffer_hit 22939
Channel_0_WQ_row_buffer_miss 85786
Channel_0_WQ_full 0
Channel_0_dbus_congested 807413
DRAM_total_RQ_row_buffer_hit 4786
DRAM_total_RQ_row_buffer_miss 148525
DRAM_total_WQ_row_buffer_hit 22939
DRAM_total_WQ_row_buffer_miss 85786
DRAM_total_WQ_full 0
DRAM_total_dbus_congested 807413
DRAM_avg_congested_cycle 15.8629

======STLB miss causes ========
Core_0_STLB_miss_cause_breakdown
Core_0_STLB_cause_Demand_Data_miss 122888
Core_0_STLB_cause_Demand_Data_miss_rate 0.0798549
Core_0_STLB_cause_Demand_Instruction_miss 67278
Core_0_STLB_cause_Demand_Instruction_miss_rate 0.0437185
Core_0_STLB_cause_L1D_Prefetch_miss 0
Core_0_STLB_cause_L1D_Prefetch_miss_rate 0
Core_0_STLB_cause_L1I_Prefetch_miss 0
Core_0_STLB_cause_L1I_Prefetch_miss_rate 0
Core_0_STLB_cause_Other_miss 0
Core_0_STLB_cause_Other_miss_rate 0
Core_0_STLB_Demand_miss 190166
Core_0_STLB_Demand_miss_rate 0.123573
Core_0_STLB_L1D_Prefetch_miss 0
Core_0_STLB_L1D_Prefetch_miss_rate 0
Core_0_STLB_Other_miss 0
Core_0_STLB_Other_miss_rate 0
BERTI TO_L1: 86655 TO_L2: 85102 TO_L2_BC_MSHR: 4248
BERTI AVG_LAT: 27.4275 NUM_TRACK_LATENCY: 1812967 NUM_CANT_TRACK_LATENCY: 1
BERTI CROSS_PAGE 23798 NO_CROSS_PAGE: 147959
BERTI FOUND_BERTI: 1109963 NO_FOUND_BERTI: 31697890
BERTI AVERAGE_ISSUED: 4.03843
