[VMEM] WARNING: physical memory size is smaller than virtual memory size.

*** ChampSim Multicore Out-of-Order Simulator ***
Warmup Instructions: 50000000
Simulation Instructions: 100000000
Number of CPUs: 1
Page size: 4096
STLB ideal mode: l1pref
STLB ideal fill: on
Core 0: /data2/zcq/champsim_traces_gap/sssp.kron-246B.champsimtrace.xz
VBerti Prefetcher
BERTI HASH ENTANGLING
BERTI IP MASK ffff
Off-chip DRAM Size: 16 GiB Channels: 1 Width: 64-bit Data Rate: 3205 MT/s
Warmup halting CPU 0 at instruction 50000004 cycle 40307587 for remainder of phase
Warmup finished CPU 0 instructions: 50000004 cycles: 40307587 cumulative IPC: 1.24 (Simulation time: 00 hr 07 min 17 sec)
Warmup complete CPU 0 instructions: 50000004 cycles: 40307587 cumulative IPC: 1.24 (Simulation time: 00 hr 07 min 17 sec)
Simulation finished CPU 0 instructions: 100000001 cycles: 548619482 cumulative IPC: 0.1823 (Simulation time: 00 hr 58 min 02 sec)
Simulation complete CPU 0 instructions: 100000001 cycles: 548619482 cumulative IPC: 0.1823 (Simulation time: 00 hr 58 min 02 sec)

ChampSim completed all CPUs

=== Simulation ===
CPU 0 runs /data2/zcq/champsim_traces_gap/sssp.kron-246B.champsimtrace.xz

Region of Interest Statistics

CPU 0 cumulative IPC: 0.1823 instructions: 100000001 cycles: 548619482
CPU 0 Branch Prediction Accuracy: 97.69% MPKI: 3.493 Average ROB Occupancy at Mispredict: 163.5
Branch type MPKI
BRANCH_DIRECT_JUMP: 0
BRANCH_INDIRECT: 0
BRANCH_CONDITIONAL: 3.493
BRANCH_DIRECT_CALL: 0
BRANCH_INDIRECT_CALL: 0
BRANCH_RETURN: 0

cpu0->cpu0_STLB TOTAL        ACCESS:    7761879 HIT:     299800 MISS:    7462079 MSHR_MERGE:          0
cpu0->cpu0_STLB LOAD         ACCESS:    7761879 HIT:     299800 MISS:    7462079 MSHR_MERGE:          0
cpu0->cpu0_STLB RFO          ACCESS:          0 HIT:          0 MISS:          0 MSHR_MERGE:          0
cpu0->cpu0_STLB PREFETCH     ACCESS:          0 HIT:          0 MISS:          0 MSHR_MERGE:          0
cpu0->cpu0_STLB WRITE        ACCESS:          0 HIT:          0 MISS:          0 MSHR_MERGE:          0
cpu0->cpu0_STLB TRANSLATION  ACCESS:          0 HIT:          0 MISS:          0 MSHR_MERGE:          0
cpu0->cpu0_STLB PREFETCH REQUESTED:          0 ISSUED:          0 USEFUL:          0 USELESS:          0 LATE:          0
cpu0->cpu0_STLB AVERAGE MISS LATENCY: 66.13 cycles
cpu0->cpu0_L2C TOTAL        ACCESS:   28086599 HIT:    9253902 MISS:   18832697 MSHR_MERGE:    2548933
cpu0->cpu0_L2C LOAD         ACCESS:    8105974 HIT:     352274 MISS:    7753700 MSHR_MERGE:       2060
cpu0->cpu0_L2C RFO          ACCESS:      74819 HIT:      17254 MISS:      57565 MSHR_MERGE:          0
cpu0->cpu0_L2C PREFETCH     ACCESS:   11813822 HIT:    7257385 MISS:    4556437 MSHR_MERGE:    2546873
cpu0->cpu0_L2C WRITE        ACCESS:     221049 HIT:     219728 MISS:       1321 MSHR_MERGE:          0
cpu0->cpu0_L2C TRANSLATION  ACCESS:    7870935 HIT:    1407261 MISS:    6463674 MSHR_MERGE:          0
cpu0->cpu0_L2C PREFETCH REQUESTED:    5056974 ISSUED:    5050127 USEFUL:     603717 USELESS:     490810 LATE:       1399
cpu0->cpu0_L2C AVERAGE MISS LATENCY: 149.5 cycles
cpu0->cpu0_L1I TOTAL        ACCESS:    5250031 HIT:    5250031 MISS:          0 MSHR_MERGE:          0
cpu0->cpu0_L1I LOAD         ACCESS:    5250031 HIT:    5250031 MISS:          0 MSHR_MERGE:          0
cpu0->cpu0_L1I RFO          ACCESS:          0 HIT:          0 MISS:          0 MSHR_MERGE:          0
cpu0->cpu0_L1I PREFETCH     ACCESS:          0 HIT:          0 MISS:          0 MSHR_MERGE:          0
cpu0->cpu0_L1I WRITE        ACCESS:          0 HIT:          0 MISS:          0 MSHR_MERGE:          0
cpu0->cpu0_L1I TRANSLATION  ACCESS:          0 HIT:          0 MISS:          0 MSHR_MERGE:          0
cpu0->cpu0_L1I PREFETCH REQUESTED:          0 ISSUED:          0 USEFUL:          0 USELESS:          0 LATE:          0
cpu0->cpu0_L1I AVERAGE MISS LATENCY: - cycles
cpu0->cpu0_L1D TOTAL        ACCESS:   65409896 HIT:   39034068 MISS:   26375828 MSHR_MERGE:    3379518
cpu0->cpu0_L1D LOAD         ACCESS:   32368245 HIT:   21346704 MISS:   11021541 MSHR_MERGE:    2915568
cpu0->cpu0_L1D RFO          ACCESS:          0 HIT:          0 MISS:          0 MSHR_MERGE:          0
cpu0->cpu0_L1D PREFETCH     ACCESS:   12489801 HIT:    5121748 MISS:    7368053 MSHR_MERGE:     423470
cpu0->cpu0_L1D WRITE        ACCESS:     823785 HIT:     744700 MISS:      79085 MSHR_MERGE:       4266
cpu0->cpu0_L1D TRANSLATION  ACCESS:   19728065 HIT:   11820916 MISS:    7907149 MSHR_MERGE:      36214
cpu0->cpu0_L1D PREFETCH REQUESTED:   27750003 ISSUED:   12489793 USEFUL:     378245 USELESS:     506116 LATE:       2473
cpu0->cpu0_L1D AVERAGE MISS LATENCY: 141.9 cycles
cpu0->cpu0_ITLB TOTAL        ACCESS:    5246440 HIT:    5246440 MISS:          0 MSHR_MERGE:          0
cpu0->cpu0_ITLB LOAD         ACCESS:    5246440 HIT:    5246440 MISS:          0 MSHR_MERGE:          0
cpu0->cpu0_ITLB RFO          ACCESS:          0 HIT:          0 MISS:          0 MSHR_MERGE:          0
cpu0->cpu0_ITLB PREFETCH     ACCESS:          0 HIT:          0 MISS:          0 MSHR_MERGE:          0
cpu0->cpu0_ITLB WRITE        ACCESS:          0 HIT:          0 MISS:          0 MSHR_MERGE:          0
cpu0->cpu0_ITLB TRANSLATION  ACCESS:          0 HIT:          0 MISS:          0 MSHR_MERGE:          0
cpu0->cpu0_ITLB PREFETCH REQUESTED:          0 ISSUED:          0 USEFUL:          0 USELESS:          0 LATE:          0
cpu0->cpu0_ITLB AVERAGE MISS LATENCY: - cycles
cpu0->cpu0_DTLB TOTAL        ACCESS:   40657073 HIT:   29932471 MISS:   10724602 MSHR_MERGE:    2962724
cpu0->cpu0_DTLB LOAD         ACCESS:   40657073 HIT:   29932471 MISS:   10724602 MSHR_MERGE:    2962724
cpu0->cpu0_DTLB RFO          ACCESS:          0 HIT:          0 MISS:          0 MSHR_MERGE:          0
cpu0->cpu0_DTLB PREFETCH     ACCESS:          0 HIT:          0 MISS:          0 MSHR_MERGE:          0
cpu0->cpu0_DTLB WRITE        ACCESS:          0 HIT:          0 MISS:          0 MSHR_MERGE:          0
cpu0->cpu0_DTLB TRANSLATION  ACCESS:          0 HIT:          0 MISS:          0 MSHR_MERGE:          0
cpu0->cpu0_DTLB PREFETCH REQUESTED:          0 ISSUED:          0 USEFUL:          0 USELESS:          0 LATE:          0
cpu0->cpu0_DTLB AVERAGE MISS LATENCY: 69.58 cycles
cpu0->LLC TOTAL        ACCESS:   16456345 HIT:    6520225 MISS:    9936120 MSHR_MERGE:      46465
cpu0->LLC LOAD         ACCESS:    7751640 HIT:     587134 MISS:    7164506 MSHR_MERGE:          4
cpu0->LLC RFO          ACCESS:      57565 HIT:      45249 MISS:      12316 MSHR_MERGE:          0
cpu0->LLC PREFETCH     ACCESS:    2009562 HIT:      12023 MISS:    1997539 MSHR_MERGE:      46461
cpu0->LLC WRITE        ACCESS:     173904 HIT:     109462 MISS:      64442 MSHR_MERGE:          0
cpu0->LLC TRANSLATION  ACCESS:    6463674 HIT:    5766357 MISS:     697317 MSHR_MERGE:          0
cpu0->LLC PREFETCH REQUESTED:          0 ISSUED:          0 USEFUL:          0 USELESS:          0 LATE:          0
cpu0->LLC AVERAGE MISS LATENCY: 241 cycles

DRAM Statistics

Channel 0 RQ ROW_BUFFER_HIT:        223
  ROW_BUFFER_MISS:    9824955
  AVG DBUS CONGESTED CYCLE: 4.592
Channel 0 WQ ROW_BUFFER_HIT:      25492
  ROW_BUFFER_MISS:      61238
  FULL:          0
Channel 0 REFRESHES ISSUED:      45719

[ROI Statistics]
[System Configuration]
num_cpus 1
cpu_freq 4000
fetch_width 6
decode_width 6
dispatch_width 6
execute_width 6
lq_width 2
sq_width 2
retire_width 6
scheduler_size 128
branch_mispredict_penalty 15
rob_size 352
lq_size 128
sq_size 72
ifetch_buffer_size 64
decode_buffer_size 32
dispatch_buffer_size 32
register_file_size 288
decode_latency 1
dispatch_latency 1
schedule_latency 1
execute_latency 1
page_size 4096
block_size 64
core_0_itlb_set 16
core_0_itlb_way 4
core_0_itlb_rq_size 16
core_0_itlb_wq_size 16
core_0_itlb_pq_size 0
core_0_itlb_mshr_size 8
core_0_itlb_hit_latency 1
core_0_itlb_fill_latency 1
core_0_itlb_max_tag_check 2
core_0_itlb_max_fill 2
core_0_dtlb_set 16
core_0_dtlb_way 4
core_0_dtlb_rq_size 16
core_0_dtlb_wq_size 16
core_0_dtlb_pq_size 0
core_0_dtlb_mshr_size 8
core_0_dtlb_hit_latency 1
core_0_dtlb_fill_latency 1
core_0_dtlb_max_tag_check 2
core_0_dtlb_max_fill 2
core_0_stlb_set 128
core_0_stlb_way 12
core_0_stlb_rq_size 32
core_0_stlb_wq_size 32
core_0_stlb_pq_size 0
core_0_stlb_mshr_size 16
core_0_stlb_hit_latency 4
core_0_stlb_fill_latency 4
core_0_stlb_max_tag_check 1
core_0_stlb_max_fill 1
core_0_l1i_set 64
core_0_l1i_way 8
core_0_l1i_rq_size 64
core_0_l1i_wq_size 64
core_0_l1i_pq_size 32
core_0_l1i_mshr_size 8
core_0_l1i_hit_latency 2
core_0_l1i_fill_latency 2
core_0_l1i_max_tag_check 2
core_0_l1i_max_fill 2
core_0_l1d_set 64
core_0_l1d_way 12
core_0_l1d_rq_size 64
core_0_l1d_wq_size 64
core_0_l1d_pq_size 8
core_0_l1d_mshr_size 16
core_0_l1d_hit_latency 2
core_0_l1d_fill_latency 3
core_0_l1d_max_tag_check 2
core_0_l1d_max_fill 2
core_0_l2c_set 1024
core_0_l2c_way 8
core_0_l2c_rq_size 32
core_0_l2c_wq_size 32
core_0_l2c_pq_size 16
core_0_l2c_mshr_size 32
core_0_l2c_hit_latency 5
core_0_l2c_fill_latency 5
core_0_l2c_max_tag_check 1
core_0_l2c_max_fill 1
llc_set 2048
llc_way 16
llc_rq_size 32
llc_wq_size 32
llc_pq_size 32
llc_mshr_size 64
llc_hit_latency 10
llc_fill_latency 10
llc_max_tag_check 1
llc_max_fill 1
dram_channels 1
dram_ranks 1
dram_bankgroups 8
dram_banks 4
dram_rows 65536
dram_columns 1024
dram_channel_width 8
dram_rq_size 64
dram_wq_size 64
dram_size 17179869184
core_0_itlb_prefetcher no
core_0_dtlb_prefetcher no
core_0_stlb_prefetcher no
core_0_l1i_prefetcher next_line
core_0_l1d_prefetcher vberti
core_0_l2c_prefetcher ip_stride
llc_prefetcher no
llc_replacement drrip

Core_0_instructions 100000001
Core_0_cycles 548619482
Core_0_IPC 0.182276
Core_0_branch_prediction_accuracy 97.6916
Core_0_branch_MPKI 3.49345
Core_0_average_ROB_occupancy_at_mispredict 163.458

Core_0_ITLB_total_access 5246440
Core_0_ITLB_total_hit 5246440
Core_0_ITLB_total_miss 0
Core_0_ITLB_total_MPKI 0
Core_0_ITLB_total_miss_rate 0
Core_0_ITLB_demand_access 5246440
Core_0_ITLB_demand_hit 5246440
Core_0_ITLB_demand_miss 0
Core_0_ITLB_demand_MPKI 0
Core_0_ITLB_demand_miss_rate 0
Core_0_ITLB_load_access 5246440
Core_0_ITLB_load_hit 5246440
Core_0_ITLB_load_miss 0
Core_0_ITLB_load_MPKI 0
Core_0_ITLB_load_miss_rate 0
Core_0_ITLB_rfo_access 0
Core_0_ITLB_rfo_hit 0
Core_0_ITLB_rfo_miss 0
Core_0_ITLB_rfo_MPKI 0
Core_0_ITLB_rfo_miss_rate 0
Core_0_ITLB_prefetch_access 0
Core_0_ITLB_prefetch_hit 0
Core_0_ITLB_prefetch_miss 0
Core_0_ITLB_prefetch_MPKI 0
Core_0_ITLB_prefetch_miss_rate 0
Core_0_ITLB_writeback_access 0
Core_0_ITLB_writeback_hit 0
Core_0_ITLB_writeback_miss 0
Core_0_ITLB_writeback_MPKI 0
Core_0_ITLB_writeback_miss_rate 0
Core_0_ITLB_prefetch_requested 0
Core_0_ITLB_prefetch_issued 0
Core_0_ITLB_prefetch_useful 0
Core_0_ITLB_prefetch_useless 0
Core_0_ITLB_prefetch_late 0
Core_0_ITLB_prefetch_accuracy 0
Core_0_ITLB_prefetch_coverage 0
Core_0_ITLB_total_eviction 0

Core_0_DTLB_total_access 40657073
Core_0_DTLB_total_hit 29932471
Core_0_DTLB_total_miss 10724602
Core_0_DTLB_total_MPKI 107.246
Core_0_DTLB_total_miss_rate 0.263782
Core_0_DTLB_demand_access 40657073
Core_0_DTLB_demand_hit 29932471
Core_0_DTLB_demand_miss 10724602
Core_0_DTLB_demand_MPKI 107.246
Core_0_DTLB_demand_miss_rate 0.263782
Core_0_DTLB_load_access 40657073
Core_0_DTLB_load_hit 29932471
Core_0_DTLB_load_miss 10724602
Core_0_DTLB_load_MPKI 107.246
Core_0_DTLB_load_miss_rate 0.263782
Core_0_DTLB_rfo_access 0
Core_0_DTLB_rfo_hit 0
Core_0_DTLB_rfo_miss 0
Core_0_DTLB_rfo_MPKI 0
Core_0_DTLB_rfo_miss_rate 0
Core_0_DTLB_prefetch_access 0
Core_0_DTLB_prefetch_hit 0
Core_0_DTLB_prefetch_miss 0
Core_0_DTLB_prefetch_MPKI 0
Core_0_DTLB_prefetch_miss_rate 0
Core_0_DTLB_writeback_access 0
Core_0_DTLB_writeback_hit 0
Core_0_DTLB_writeback_miss 0
Core_0_DTLB_writeback_MPKI 0
Core_0_DTLB_writeback_miss_rate 0
Core_0_DTLB_prefetch_requested 0
Core_0_DTLB_prefetch_issued 0
Core_0_DTLB_prefetch_useful 0
Core_0_DTLB_prefetch_useless 0
Core_0_DTLB_prefetch_late 0
Core_0_DTLB_prefetch_accuracy 0
Core_0_DTLB_prefetch_coverage 0
Core_0_DTLB_total_eviction 7761885

Core_0_STLB_total_access 7761879
Core_0_STLB_total_hit 299800
Core_0_STLB_total_miss 7462079
Core_0_STLB_total_MPKI 74.6208
Core_0_STLB_total_miss_rate 0.961375
Core_0_STLB_demand_access 7761879
Core_0_STLB_demand_hit 299800
Core_0_STLB_demand_miss 7462079
Core_0_STLB_demand_MPKI 74.6208
Core_0_STLB_demand_miss_rate 0.961375
Core_0_STLB_load_access 7761879
Core_0_STLB_load_hit 299800
Core_0_STLB_load_miss 7462079
Core_0_STLB_load_MPKI 74.6208
Core_0_STLB_load_miss_rate 0.961375
Core_0_STLB_rfo_access 0
Core_0_STLB_rfo_hit 0
Core_0_STLB_rfo_miss 0
Core_0_STLB_rfo_MPKI 0
Core_0_STLB_rfo_miss_rate 0
Core_0_STLB_prefetch_access 0
Core_0_STLB_prefetch_hit 0
Core_0_STLB_prefetch_miss 0
Core_0_STLB_prefetch_MPKI 0
Core_0_STLB_prefetch_miss_rate 0
Core_0_STLB_writeback_access 0
Core_0_STLB_writeback_hit 0
Core_0_STLB_writeback_miss 0
Core_0_STLB_writeback_MPKI 0
Core_0_STLB_writeback_miss_rate 0
Core_0_STLB_prefetch_requested 0
Core_0_STLB_prefetch_issued 0
Core_0_STLB_prefetch_useful 0
Core_0_STLB_prefetch_useless 0
Core_0_STLB_prefetch_late 0
Core_0_STLB_prefetch_accuracy 0
Core_0_STLB_prefetch_coverage 0
Core_0_STLB_total_eviction 7489973

Core_0_L1I_total_access 5250031
Core_0_L1I_total_hit 5250031
Core_0_L1I_total_miss 0
Core_0_L1I_total_MPKI 0
Core_0_L1I_total_miss_rate 0
Core_0_L1I_demand_access 5250031
Core_0_L1I_demand_hit 5250031
Core_0_L1I_demand_miss 0
Core_0_L1I_demand_MPKI 0
Core_0_L1I_demand_miss_rate 0
Core_0_L1I_load_access 5250031
Core_0_L1I_load_hit 5250031
Core_0_L1I_load_miss 0
Core_0_L1I_load_MPKI 0
Core_0_L1I_load_miss_rate 0
Core_0_L1I_rfo_access 0
Core_0_L1I_rfo_hit 0
Core_0_L1I_rfo_miss 0
Core_0_L1I_rfo_MPKI 0
Core_0_L1I_rfo_miss_rate 0
Core_0_L1I_prefetch_access 0
Core_0_L1I_prefetch_hit 0
Core_0_L1I_prefetch_miss 0
Core_0_L1I_prefetch_MPKI 0
Core_0_L1I_prefetch_miss_rate 0
Core_0_L1I_writeback_access 0
Core_0_L1I_writeback_hit 0
Core_0_L1I_writeback_miss 0
Core_0_L1I_writeback_MPKI 0
Core_0_L1I_writeback_miss_rate 0
Core_0_L1I_prefetch_requested 0
Core_0_L1I_prefetch_issued 0
Core_0_L1I_prefetch_useful 0
Core_0_L1I_prefetch_useless 0
Core_0_L1I_prefetch_late 0
Core_0_L1I_prefetch_accuracy 0
Core_0_L1I_prefetch_coverage 0
Core_0_L1I_total_eviction 0

Core_0_L1D_total_access 45681831
Core_0_L1D_total_hit 27213152
Core_0_L1D_total_miss 18468679
Core_0_L1D_total_MPKI 184.687
Core_0_L1D_total_miss_rate 0.404289
Core_0_L1D_demand_access 32368245
Core_0_L1D_demand_hit 21346704
Core_0_L1D_demand_miss 11021541
Core_0_L1D_demand_MPKI 110.215
Core_0_L1D_demand_miss_rate 0.340505
Core_0_L1D_load_access 32368245
Core_0_L1D_load_hit 21346704
Core_0_L1D_load_miss 11021541
Core_0_L1D_load_MPKI 110.215
Core_0_L1D_load_miss_rate 0.340505
Core_0_L1D_rfo_access 0
Core_0_L1D_rfo_hit 0
Core_0_L1D_rfo_miss 0
Core_0_L1D_rfo_MPKI 0
Core_0_L1D_rfo_miss_rate 0
Core_0_L1D_prefetch_access 12489801
Core_0_L1D_prefetch_hit 5121748
Core_0_L1D_prefetch_miss 7368053
Core_0_L1D_prefetch_MPKI 73.6805
Core_0_L1D_prefetch_miss_rate 0.589926
Core_0_L1D_writeback_access 823785
Core_0_L1D_writeback_hit 744700
Core_0_L1D_writeback_miss 79085
Core_0_L1D_writeback_MPKI 0.79085
Core_0_L1D_writeback_miss_rate 0.096002
Core_0_L1D_prefetch_requested 27750003
Core_0_L1D_prefetch_issued 12489793
Core_0_L1D_prefetch_useful 378245
Core_0_L1D_prefetch_useless 506116
Core_0_L1D_prefetch_late 2473
Core_0_L1D_prefetch_accuracy 0.0302843
Core_0_L1D_prefetch_coverage 0.03318
Core_0_L1D_total_eviction 16936097

Core_0_L2C_total_access 20215664
Core_0_L2C_total_hit 7846641
Core_0_L2C_total_miss 12369023
Core_0_L2C_total_MPKI 123.69
Core_0_L2C_total_miss_rate 0.611853
Core_0_L2C_demand_access 8180793
Core_0_L2C_demand_hit 369528
Core_0_L2C_demand_miss 7811265
Core_0_L2C_demand_MPKI 78.1126
Core_0_L2C_demand_miss_rate 0.95483
Core_0_L2C_load_access 8105974
Core_0_L2C_load_hit 352274
Core_0_L2C_load_miss 7753700
Core_0_L2C_load_MPKI 77.537
Core_0_L2C_load_miss_rate 0.956541
Core_0_L2C_rfo_access 74819
Core_0_L2C_rfo_hit 17254
Core_0_L2C_rfo_miss 57565
Core_0_L2C_rfo_MPKI 0.57565
Core_0_L2C_rfo_miss_rate 0.76939
Core_0_L2C_prefetch_access 11813822
Core_0_L2C_prefetch_hit 7257385
Core_0_L2C_prefetch_miss 4556437
Core_0_L2C_prefetch_MPKI 45.5644
Core_0_L2C_prefetch_miss_rate 0.385687
Core_0_L2C_writeback_access 221049
Core_0_L2C_writeback_hit 219728
Core_0_L2C_writeback_miss 1321
Core_0_L2C_writeback_MPKI 0.01321
Core_0_L2C_writeback_miss_rate 0.00597605
Core_0_L2C_prefetch_requested 5056974
Core_0_L2C_prefetch_issued 5050127
Core_0_L2C_prefetch_useful 603717
Core_0_L2C_prefetch_useless 490810
Core_0_L2C_prefetch_late 1399
Core_0_L2C_prefetch_accuracy 0.119545
Core_0_L2C_prefetch_coverage 0.0717431
Core_0_L2C_total_eviction 16222334

Core_0_LLC_total_access 9992671
Core_0_LLC_total_hit 753868
Core_0_LLC_total_miss 9238803
Core_0_LLC_total_MPKI 92.388
Core_0_LLC_total_miss_rate 0.924558
Core_0_LLC_demand_access 7809205
Core_0_LLC_demand_hit 632383
Core_0_LLC_demand_miss 7176822
Core_0_LLC_demand_MPKI 71.7682
Core_0_LLC_demand_miss_rate 0.919021
Core_0_LLC_load_access 7751640
Core_0_LLC_load_hit 587134
Core_0_LLC_load_miss 7164506
Core_0_LLC_load_MPKI 71.6451
Core_0_LLC_load_miss_rate 0.924257
Core_0_LLC_rfo_access 57565
Core_0_LLC_rfo_hit 45249
Core_0_LLC_rfo_miss 12316
Core_0_LLC_rfo_MPKI 0.12316
Core_0_LLC_rfo_miss_rate 0.213949
Core_0_LLC_prefetch_access 2009562
Core_0_LLC_prefetch_hit 12023
Core_0_LLC_prefetch_miss 1997539
Core_0_LLC_prefetch_MPKI 19.9754
Core_0_LLC_prefetch_miss_rate 0.994017
Core_0_LLC_writeback_access 173904
Core_0_LLC_writeback_hit 109462
Core_0_LLC_writeback_miss 64442
Core_0_LLC_writeback_MPKI 0.64442
Core_0_LLC_writeback_miss_rate 0.370561
Core_0_LLC_prefetch_requested 0
Core_0_LLC_prefetch_issued 0
Core_0_LLC_prefetch_useful 0
Core_0_LLC_prefetch_useless 0
Core_0_LLC_prefetch_late 0
Core_0_LLC_prefetch_accuracy 0
Core_0_LLC_prefetch_coverage 0
Core_0_LLC_total_eviction 9889644

[DRAM Statistics]
Channel_0_RQ_row_buffer_hit 223
Channel_0_RQ_row_buffer_miss 9824955
Channel_0_WQ_row_buffer_hit 25492
Channel_0_WQ_row_buffer_miss 61238
Channel_0_WQ_full 0
Channel_0_dbus_congested 16975411
DRAM_total_RQ_row_buffer_hit 223
DRAM_total_RQ_row_buffer_miss 9824955
DRAM_total_WQ_row_buffer_hit 25492
DRAM_total_WQ_row_buffer_miss 61238
DRAM_total_WQ_full 0
DRAM_total_dbus_congested 16975411
DRAM_avg_congested_cycle 4.59205

======STLB miss causes ========
Core_0_STLB_miss_cause_breakdown
Core_0_STLB_cause_Demand_Data_miss 7462079
Core_0_STLB_cause_Demand_Data_miss_rate 0.961375
Core_0_STLB_cause_Demand_Instruction_miss 0
Core_0_STLB_cause_Demand_Instruction_miss_rate 0
Core_0_STLB_cause_L1D_Prefetch_miss 0
Core_0_STLB_cause_L1D_Prefetch_miss_rate 0
Core_0_STLB_cause_L1I_Prefetch_miss 0
Core_0_STLB_cause_L1I_Prefetch_miss_rate 0
Core_0_STLB_cause_Other_miss 0
Core_0_STLB_cause_Other_miss_rate 0
Core_0_STLB_Demand_miss 7462079
Core_0_STLB_Demand_miss_rate 0.961375
Core_0_STLB_L1D_Prefetch_miss 0
Core_0_STLB_L1D_Prefetch_miss_rate 0
Core_0_STLB_Other_miss 0
Core_0_STLB_Other_miss_rate 0
BERTI TO_L1: 22099241 TO_L2: 21548837 TO_L2_BC_MSHR: 2489088
BERTI AVG_LAT: 160.402 NUM_TRACK_LATENCY: 13273444 NUM_CANT_TRACK_LATENCY: 1614
BERTI CROSS_PAGE 3233078 NO_CROSS_PAGE: 40415000
BERTI FOUND_BERTI: 44364428 NO_FOUND_BERTI: 15255509
BERTI AVERAGE_ISSUED: 3.36542
