[VMEM] WARNING: physical memory size is smaller than virtual memory size.

*** ChampSim Multicore Out-of-Order Simulator ***
Warmup Instructions: 50000000
Simulation Instructions: 100000000
Number of CPUs: 1
Page size: 4096
STLB ideal mode: l1pref
STLB ideal fill: on
Core 0: /data2/zcq/champsim_traces_gap/tc.twitter-34B.champsimtrace.xz
VBerti Prefetcher
BERTI HASH ENTANGLING
BERTI IP MASK ffff
Off-chip DRAM Size: 16 GiB Channels: 1 Width: 64-bit Data Rate: 3205 MT/s
Warmup halting CPU 0 at instruction 50000000 cycle 14312038 for remainder of phase
Warmup finished CPU 0 instructions: 50000000 cycles: 14312038 cumulative IPC: 3.494 (Simulation time: 00 hr 02 min 23 sec)
Warmup complete CPU 0 instructions: 50000000 cycles: 14312038 cumulative IPC: 3.494 (Simulation time: 00 hr 02 min 23 sec)
Simulation finished CPU 0 instructions: 100000000 cycles: 169521235 cumulative IPC: 0.5899 (Simulation time: 00 hr 16 min 02 sec)
Simulation complete CPU 0 instructions: 100000000 cycles: 169521235 cumulative IPC: 0.5899 (Simulation time: 00 hr 16 min 02 sec)

ChampSim completed all CPUs

=== Simulation ===
CPU 0 runs /data2/zcq/champsim_traces_gap/tc.twitter-34B.champsimtrace.xz

Region of Interest Statistics

CPU 0 cumulative IPC: 0.5899 instructions: 100000000 cycles: 169521235
CPU 0 Branch Prediction Accuracy: 81.82% MPKI: 44.18 Average ROB Occupancy at Mispredict: 6.369
Branch type MPKI
BRANCH_DIRECT_JUMP: 0.00818
BRANCH_INDIRECT: 0
BRANCH_CONDITIONAL: 44.17
BRANCH_DIRECT_CALL: 2e-05
BRANCH_INDIRECT_CALL: 0
BRANCH_RETURN: 2e-05

cpu0->cpu0_STLB TOTAL        ACCESS:     443080 HIT:      62342 MISS:     380738 MSHR_MERGE:          0
cpu0->cpu0_STLB LOAD         ACCESS:     443080 HIT:      62342 MISS:     380738 MSHR_MERGE:          0
cpu0->cpu0_STLB RFO          ACCESS:          0 HIT:          0 MISS:          0 MSHR_MERGE:          0
cpu0->cpu0_STLB PREFETCH     ACCESS:          0 HIT:          0 MISS:          0 MSHR_MERGE:          0
cpu0->cpu0_STLB WRITE        ACCESS:          0 HIT:          0 MISS:          0 MSHR_MERGE:          0
cpu0->cpu0_STLB TRANSLATION  ACCESS:          0 HIT:          0 MISS:          0 MSHR_MERGE:          0
cpu0->cpu0_STLB PREFETCH REQUESTED:          0 ISSUED:          0 USEFUL:          0 USELESS:          0 LATE:          0
cpu0->cpu0_STLB AVERAGE MISS LATENCY: 108.4 cycles
cpu0->cpu0_L2C TOTAL        ACCESS:    4357450 HIT:    2852494 MISS:    1504956 MSHR_MERGE:     157202
cpu0->cpu0_L2C LOAD         ACCESS:     781094 HIT:      39311 MISS:     741783 MSHR_MERGE:       5920
cpu0->cpu0_L2C RFO          ACCESS:       8070 HIT:       4227 MISS:       3843 MSHR_MERGE:        358
cpu0->cpu0_L2C PREFETCH     ACCESS:    3041563 HIT:    2454027 MISS:     587536 MSHR_MERGE:     150924
cpu0->cpu0_L2C WRITE        ACCESS:     270250 HIT:     270211 MISS:         39 MSHR_MERGE:          0
cpu0->cpu0_L2C TRANSLATION  ACCESS:     256473 HIT:      84718 MISS:     171755 MSHR_MERGE:          0
cpu0->cpu0_L2C PREFETCH REQUESTED:     886167 ISSUED:     883422 USEFUL:      96844 USELESS:      15218 LATE:        685
cpu0->cpu0_L2C AVERAGE MISS LATENCY: 261.4 cycles
cpu0->cpu0_L1I TOTAL        ACCESS:    1321990 HIT:    1321984 MISS:          6 MSHR_MERGE:          0
cpu0->cpu0_L1I LOAD         ACCESS:    1321990 HIT:    1321984 MISS:          6 MSHR_MERGE:          0
cpu0->cpu0_L1I RFO          ACCESS:          0 HIT:          0 MISS:          0 MSHR_MERGE:          0
cpu0->cpu0_L1I PREFETCH     ACCESS:          0 HIT:          0 MISS:          0 MSHR_MERGE:          0
cpu0->cpu0_L1I WRITE        ACCESS:          0 HIT:          0 MISS:          0 MSHR_MERGE:          0
cpu0->cpu0_L1I TRANSLATION  ACCESS:          0 HIT:          0 MISS:          0 MSHR_MERGE:          0
cpu0->cpu0_L1I PREFETCH REQUESTED:          0 ISSUED:          0 USEFUL:          0 USELESS:          0 LATE:          0
cpu0->cpu0_L1I AVERAGE MISS LATENCY: 164.7 cycles
cpu0->cpu0_L1D TOTAL        ACCESS:   67356412 HIT:   63973406 MISS:    3383006 MSHR_MERGE:     140742
cpu0->cpu0_L1D LOAD         ACCESS:   17069614 HIT:   16255070 MISS:     814544 MSHR_MERGE:      33456
cpu0->cpu0_L1D RFO          ACCESS:          0 HIT:          0 MISS:          0 MSHR_MERGE:          0
cpu0->cpu0_L1D PREFETCH     ACCESS:   40446170 HIT:   38237192 MISS:    2208978 MSHR_MERGE:      12376
cpu0->cpu0_L1D WRITE        ACCESS:    9121104 HIT:    9071299 MISS:      49805 MSHR_MERGE:      41704
cpu0->cpu0_L1D TRANSLATION  ACCESS:     719524 HIT:     409845 MISS:     309679 MSHR_MERGE:      53206
cpu0->cpu0_L1D PREFETCH REQUESTED:  139953701 ISSUED:   40446171 USEFUL:     308848 USELESS:      22540 LATE:       1881
cpu0->cpu0_L1D AVERAGE MISS LATENCY: 238.9 cycles
cpu0->cpu0_ITLB TOTAL        ACCESS:    1282426 HIT:    1282425 MISS:          1 MSHR_MERGE:          0
cpu0->cpu0_ITLB LOAD         ACCESS:    1282426 HIT:    1282425 MISS:          1 MSHR_MERGE:          0
cpu0->cpu0_ITLB RFO          ACCESS:          0 HIT:          0 MISS:          0 MSHR_MERGE:          0
cpu0->cpu0_ITLB PREFETCH     ACCESS:          0 HIT:          0 MISS:          0 MSHR_MERGE:          0
cpu0->cpu0_ITLB WRITE        ACCESS:          0 HIT:          0 MISS:          0 MSHR_MERGE:          0
cpu0->cpu0_ITLB TRANSLATION  ACCESS:          0 HIT:          0 MISS:          0 MSHR_MERGE:          0
cpu0->cpu0_ITLB PREFETCH REQUESTED:          0 ISSUED:          0 USEFUL:          0 USELESS:          0 LATE:          0
cpu0->cpu0_ITLB AVERAGE MISS LATENCY: 756 cycles
cpu0->cpu0_DTLB TOTAL        ACCESS:   48582435 HIT:   47936921 MISS:     645514 MSHR_MERGE:     202435
cpu0->cpu0_DTLB LOAD         ACCESS:   48582435 HIT:   47936921 MISS:     645514 MSHR_MERGE:     202435
cpu0->cpu0_DTLB RFO          ACCESS:          0 HIT:          0 MISS:          0 MSHR_MERGE:          0
cpu0->cpu0_DTLB PREFETCH     ACCESS:          0 HIT:          0 MISS:          0 MSHR_MERGE:          0
cpu0->cpu0_DTLB WRITE        ACCESS:          0 HIT:          0 MISS:          0 MSHR_MERGE:          0
cpu0->cpu0_DTLB TRANSLATION  ACCESS:          0 HIT:          0 MISS:          0 MSHR_MERGE:          0
cpu0->cpu0_DTLB PREFETCH REQUESTED:          0 ISSUED:          0 USEFUL:          0 USELESS:          0 LATE:          0
cpu0->cpu0_DTLB AVERAGE MISS LATENCY: 99.01 cycles
cpu0->LLC TOTAL        ACCESS:    1494659 HIT:     388575 MISS:    1106084 MSHR_MERGE:      27184
cpu0->LLC LOAD         ACCESS:     735863 HIT:      20868 MISS:     714995 MSHR_MERGE:       2266
cpu0->LLC RFO          ACCESS:       3485 HIT:        475 MISS:       3010 MSHR_MERGE:          0
cpu0->LLC PREFETCH     ACCESS:     436609 HIT:     119525 MISS:     317084 MSHR_MERGE:      24918
cpu0->LLC WRITE        ACCESS:     146947 HIT:     121318 MISS:      25629 MSHR_MERGE:          0
cpu0->LLC TRANSLATION  ACCESS:     171755 HIT:     126389 MISS:      45366 MSHR_MERGE:          0
cpu0->LLC PREFETCH REQUESTED:          0 ISSUED:          0 USEFUL:          0 USELESS:          0 LATE:          0
cpu0->LLC AVERAGE MISS LATENCY: 284.1 cycles

DRAM Statistics

Channel 0 RQ ROW_BUFFER_HIT:      42787
  ROW_BUFFER_MISS:    1010483
  AVG DBUS CONGESTED CYCLE: 3.901
Channel 0 WQ ROW_BUFFER_HIT:       4166
  ROW_BUFFER_MISS:      66799
  FULL:          0
Channel 0 REFRESHES ISSUED:      14127

[ROI Statistics]
[System Configuration]
num_cpus 1
cpu_freq 4000
fetch_width 6
decode_width 6
dispatch_width 6
execute_width 6
lq_width 2
sq_width 2
retire_width 6
scheduler_size 128
branch_mispredict_penalty 15
rob_size 352
lq_size 128
sq_size 72
ifetch_buffer_size 64
decode_buffer_size 32
dispatch_buffer_size 32
register_file_size 288
decode_latency 1
dispatch_latency 1
schedule_latency 1
execute_latency 1
page_size 4096
block_size 64
core_0_itlb_set 16
core_0_itlb_way 4
core_0_itlb_rq_size 16
core_0_itlb_wq_size 16
core_0_itlb_pq_size 0
core_0_itlb_mshr_size 8
core_0_itlb_hit_latency 1
core_0_itlb_fill_latency 1
core_0_itlb_max_tag_check 2
core_0_itlb_max_fill 2
core_0_dtlb_set 16
core_0_dtlb_way 4
core_0_dtlb_rq_size 16
core_0_dtlb_wq_size 16
core_0_dtlb_pq_size 0
core_0_dtlb_mshr_size 8
core_0_dtlb_hit_latency 1
core_0_dtlb_fill_latency 1
core_0_dtlb_max_tag_check 2
core_0_dtlb_max_fill 2
core_0_stlb_set 128
core_0_stlb_way 12
core_0_stlb_rq_size 32
core_0_stlb_wq_size 32
core_0_stlb_pq_size 0
core_0_stlb_mshr_size 16
core_0_stlb_hit_latency 4
core_0_stlb_fill_latency 4
core_0_stlb_max_tag_check 1
core_0_stlb_max_fill 1
core_0_l1i_set 64
core_0_l1i_way 8
core_0_l1i_rq_size 64
core_0_l1i_wq_size 64
core_0_l1i_pq_size 32
core_0_l1i_mshr_size 8
core_0_l1i_hit_latency 2
core_0_l1i_fill_latency 2
core_0_l1i_max_tag_check 2
core_0_l1i_max_fill 2
core_0_l1d_set 64
core_0_l1d_way 12
core_0_l1d_rq_size 64
core_0_l1d_wq_size 64
core_0_l1d_pq_size 8
core_0_l1d_mshr_size 16
core_0_l1d_hit_latency 2
core_0_l1d_fill_latency 3
core_0_l1d_max_tag_check 2
core_0_l1d_max_fill 2
core_0_l2c_set 1024
core_0_l2c_way 8
core_0_l2c_rq_size 32
core_0_l2c_wq_size 32
core_0_l2c_pq_size 16
core_0_l2c_mshr_size 32
core_0_l2c_hit_latency 5
core_0_l2c_fill_latency 5
core_0_l2c_max_tag_check 1
core_0_l2c_max_fill 1
llc_set 2048
llc_way 16
llc_rq_size 32
llc_wq_size 32
llc_pq_size 32
llc_mshr_size 64
llc_hit_latency 10
llc_fill_latency 10
llc_max_tag_check 1
llc_max_fill 1
dram_channels 1
dram_ranks 1
dram_bankgroups 8
dram_banks 4
dram_rows 65536
dram_columns 1024
dram_channel_width 8
dram_rq_size 64
dram_wq_size 64
dram_size 17179869184
core_0_itlb_prefetcher no
core_0_dtlb_prefetcher no
core_0_stlb_prefetcher no
core_0_l1i_prefetcher next_line
core_0_l1d_prefetcher vberti
core_0_l2c_prefetcher ip_stride
llc_prefetcher no
llc_replacement drrip

Core_0_instructions 100000000
Core_0_cycles 169521235
Core_0_IPC 0.589897
Core_0_branch_prediction_accuracy 81.8171
Core_0_branch_MPKI 44.1768
Core_0_average_ROB_occupancy_at_mispredict 6.36923

Core_0_ITLB_total_access 1282426
Core_0_ITLB_total_hit 1282425
Core_0_ITLB_total_miss 1
Core_0_ITLB_total_MPKI 1e-05
Core_0_ITLB_total_miss_rate 7.79772e-07
Core_0_ITLB_demand_access 1282426
Core_0_ITLB_demand_hit 1282425
Core_0_ITLB_demand_miss 1
Core_0_ITLB_demand_MPKI 1e-05
Core_0_ITLB_demand_miss_rate 7.79772e-07
Core_0_ITLB_load_access 1282426
Core_0_ITLB_load_hit 1282425
Core_0_ITLB_load_miss 1
Core_0_ITLB_load_MPKI 1e-05
Core_0_ITLB_load_miss_rate 7.79772e-07
Core_0_ITLB_rfo_access 0
Core_0_ITLB_rfo_hit 0
Core_0_ITLB_rfo_miss 0
Core_0_ITLB_rfo_MPKI 0
Core_0_ITLB_rfo_miss_rate 0
Core_0_ITLB_prefetch_access 0
Core_0_ITLB_prefetch_hit 0
Core_0_ITLB_prefetch_miss 0
Core_0_ITLB_prefetch_MPKI 0
Core_0_ITLB_prefetch_miss_rate 0
Core_0_ITLB_writeback_access 0
Core_0_ITLB_writeback_hit 0
Core_0_ITLB_writeback_miss 0
Core_0_ITLB_writeback_MPKI 0
Core_0_ITLB_writeback_miss_rate 0
Core_0_ITLB_prefetch_requested 0
Core_0_ITLB_prefetch_issued 0
Core_0_ITLB_prefetch_useful 0
Core_0_ITLB_prefetch_useless 0
Core_0_ITLB_prefetch_late 0
Core_0_ITLB_prefetch_accuracy 0
Core_0_ITLB_prefetch_coverage 0
Core_0_ITLB_total_eviction 0

Core_0_DTLB_total_access 48582435
Core_0_DTLB_total_hit 47936921
Core_0_DTLB_total_miss 645514
Core_0_DTLB_total_MPKI 6.45514
Core_0_DTLB_total_miss_rate 0.013287
Core_0_DTLB_demand_access 48582435
Core_0_DTLB_demand_hit 47936921
Core_0_DTLB_demand_miss 645514
Core_0_DTLB_demand_MPKI 6.45514
Core_0_DTLB_demand_miss_rate 0.013287
Core_0_DTLB_load_access 48582435
Core_0_DTLB_load_hit 47936921
Core_0_DTLB_load_miss 645514
Core_0_DTLB_load_MPKI 6.45514
Core_0_DTLB_load_miss_rate 0.013287
Core_0_DTLB_rfo_access 0
Core_0_DTLB_rfo_hit 0
Core_0_DTLB_rfo_miss 0
Core_0_DTLB_rfo_MPKI 0
Core_0_DTLB_rfo_miss_rate 0
Core_0_DTLB_prefetch_access 0
Core_0_DTLB_prefetch_hit 0
Core_0_DTLB_prefetch_miss 0
Core_0_DTLB_prefetch_MPKI 0
Core_0_DTLB_prefetch_miss_rate 0
Core_0_DTLB_writeback_access 0
Core_0_DTLB_writeback_hit 0
Core_0_DTLB_writeback_miss 0
Core_0_DTLB_writeback_MPKI 0
Core_0_DTLB_writeback_miss_rate 0
Core_0_DTLB_prefetch_requested 0
Core_0_DTLB_prefetch_issued 0
Core_0_DTLB_prefetch_useful 0
Core_0_DTLB_prefetch_useless 0
Core_0_DTLB_prefetch_late 0
Core_0_DTLB_prefetch_accuracy 0
Core_0_DTLB_prefetch_coverage 0
Core_0_DTLB_total_eviction 443079

Core_0_STLB_total_access 443080
Core_0_STLB_total_hit 62342
Core_0_STLB_total_miss 380738
Core_0_STLB_total_MPKI 3.80738
Core_0_STLB_total_miss_rate 0.859299
Core_0_STLB_demand_access 443080
Core_0_STLB_demand_hit 62342
Core_0_STLB_demand_miss 380738
Core_0_STLB_demand_MPKI 3.80738
Core_0_STLB_demand_miss_rate 0.859299
Core_0_STLB_load_access 443080
Core_0_STLB_load_hit 62342
Core_0_STLB_load_miss 380738
Core_0_STLB_load_MPKI 3.80738
Core_0_STLB_load_miss_rate 0.859299
Core_0_STLB_rfo_access 0
Core_0_STLB_rfo_hit 0
Core_0_STLB_rfo_miss 0
Core_0_STLB_rfo_MPKI 0
Core_0_STLB_rfo_miss_rate 0
Core_0_STLB_prefetch_access 0
Core_0_STLB_prefetch_hit 0
Core_0_STLB_prefetch_miss 0
Core_0_STLB_prefetch_MPKI 0
Core_0_STLB_prefetch_miss_rate 0
Core_0_STLB_writeback_access 0
Core_0_STLB_writeback_hit 0
Core_0_STLB_writeback_miss 0
Core_0_STLB_writeback_MPKI 0
Core_0_STLB_writeback_miss_rate 0
Core_0_STLB_prefetch_requested 0
Core_0_STLB_prefetch_issued 0
Core_0_STLB_prefetch_useful 0
Core_0_STLB_prefetch_useless 0
Core_0_STLB_prefetch_late 0
Core_0_STLB_prefetch_accuracy 0
Core_0_STLB_prefetch_coverage 0
Core_0_STLB_total_eviction 424397

Core_0_L1I_total_access 1321990
Core_0_L1I_total_hit 1321984
Core_0_L1I_total_miss 6
Core_0_L1I_total_MPKI 6e-05
Core_0_L1I_total_miss_rate 4.53861e-06
Core_0_L1I_demand_access 1321990
Core_0_L1I_demand_hit 1321984
Core_0_L1I_demand_miss 6
Core_0_L1I_demand_MPKI 6e-05
Core_0_L1I_demand_miss_rate 4.53861e-06
Core_0_L1I_load_access 1321990
Core_0_L1I_load_hit 1321984
Core_0_L1I_load_miss 6
Core_0_L1I_load_MPKI 6e-05
Core_0_L1I_load_miss_rate 4.53861e-06
Core_0_L1I_rfo_access 0
Core_0_L1I_rfo_hit 0
Core_0_L1I_rfo_miss 0
Core_0_L1I_rfo_MPKI 0
Core_0_L1I_rfo_miss_rate 0
Core_0_L1I_prefetch_access 0
Core_0_L1I_prefetch_hit 0
Core_0_L1I_prefetch_miss 0
Core_0_L1I_prefetch_MPKI 0
Core_0_L1I_prefetch_miss_rate 0
Core_0_L1I_writeback_access 0
Core_0_L1I_writeback_hit 0
Core_0_L1I_writeback_miss 0
Core_0_L1I_writeback_MPKI 0
Core_0_L1I_writeback_miss_rate 0
Core_0_L1I_prefetch_requested 0
Core_0_L1I_prefetch_issued 0
Core_0_L1I_prefetch_useful 0
Core_0_L1I_prefetch_useless 0
Core_0_L1I_prefetch_late 0
Core_0_L1I_prefetch_accuracy 0
Core_0_L1I_prefetch_coverage 0
Core_0_L1I_total_eviction 0

Core_0_L1D_total_access 66636888
Core_0_L1D_total_hit 63563561
Core_0_L1D_total_miss 3073327
Core_0_L1D_total_MPKI 30.7333
Core_0_L1D_total_miss_rate 0.0461205
Core_0_L1D_demand_access 17069614
Core_0_L1D_demand_hit 16255070
Core_0_L1D_demand_miss 814544
Core_0_L1D_demand_MPKI 8.14544
Core_0_L1D_demand_miss_rate 0.0477189
Core_0_L1D_load_access 17069614
Core_0_L1D_load_hit 16255070
Core_0_L1D_load_miss 814544
Core_0_L1D_load_MPKI 8.14544
Core_0_L1D_load_miss_rate 0.0477189
Core_0_L1D_rfo_access 0
Core_0_L1D_rfo_hit 0
Core_0_L1D_rfo_miss 0
Core_0_L1D_rfo_MPKI 0
Core_0_L1D_rfo_miss_rate 0
Core_0_L1D_prefetch_access 40446170
Core_0_L1D_prefetch_hit 38237192
Core_0_L1D_prefetch_miss 2208978
Core_0_L1D_prefetch_MPKI 22.0898
Core_0_L1D_prefetch_miss_rate 0.0546153
Core_0_L1D_writeback_access 9121104
Core_0_L1D_writeback_hit 9071299
Core_0_L1D_writeback_miss 49805
Core_0_L1D_writeback_MPKI 0.49805
Core_0_L1D_writeback_miss_rate 0.00546041
Core_0_L1D_prefetch_requested 139953701
Core_0_L1D_prefetch_issued 40446171
Core_0_L1D_prefetch_useful 308848
Core_0_L1D_prefetch_useless 22540
Core_0_L1D_prefetch_late 1881
Core_0_L1D_prefetch_accuracy 0.00763603
Core_0_L1D_prefetch_coverage 0.274925
Core_0_L1D_total_eviction 1377054

Core_0_L2C_total_access 4100977
Core_0_L2C_total_hit 2767776
Core_0_L2C_total_miss 1333201
Core_0_L2C_total_MPKI 13.332
Core_0_L2C_total_miss_rate 0.325094
Core_0_L2C_demand_access 789164
Core_0_L2C_demand_hit 43538
Core_0_L2C_demand_miss 745626
Core_0_L2C_demand_MPKI 7.45626
Core_0_L2C_demand_miss_rate 0.94483
Core_0_L2C_load_access 781094
Core_0_L2C_load_hit 39311
Core_0_L2C_load_miss 741783
Core_0_L2C_load_MPKI 7.41783
Core_0_L2C_load_miss_rate 0.949672
Core_0_L2C_rfo_access 8070
Core_0_L2C_rfo_hit 4227
Core_0_L2C_rfo_miss 3843
Core_0_L2C_rfo_MPKI 0.03843
Core_0_L2C_rfo_miss_rate 0.476208
Core_0_L2C_prefetch_access 3041563
Core_0_L2C_prefetch_hit 2454027
Core_0_L2C_prefetch_miss 587536
Core_0_L2C_prefetch_MPKI 5.87536
Core_0_L2C_prefetch_miss_rate 0.193169
Core_0_L2C_writeback_access 270250
Core_0_L2C_writeback_hit 270211
Core_0_L2C_writeback_miss 39
Core_0_L2C_writeback_MPKI 0.00039
Core_0_L2C_writeback_miss_rate 0.000144311
Core_0_L2C_prefetch_requested 886167
Core_0_L2C_prefetch_issued 883422
Core_0_L2C_prefetch_useful 96844
Core_0_L2C_prefetch_useless 15218
Core_0_L2C_prefetch_late 685
Core_0_L2C_prefetch_accuracy 0.109624
Core_0_L2C_prefetch_coverage 0.114952
Core_0_L2C_total_eviction 1271129

Core_0_LLC_total_access 1322904
Core_0_LLC_total_hit 262186
Core_0_LLC_total_miss 1060718
Core_0_LLC_total_MPKI 10.6072
Core_0_LLC_total_miss_rate 0.80181
Core_0_LLC_demand_access 739348
Core_0_LLC_demand_hit 21343
Core_0_LLC_demand_miss 718005
Core_0_LLC_demand_MPKI 7.18005
Core_0_LLC_demand_miss_rate 0.971133
Core_0_LLC_load_access 735863
Core_0_LLC_load_hit 20868
Core_0_LLC_load_miss 714995
Core_0_LLC_load_MPKI 7.14995
Core_0_LLC_load_miss_rate 0.971641
Core_0_LLC_rfo_access 3485
Core_0_LLC_rfo_hit 475
Core_0_LLC_rfo_miss 3010
Core_0_LLC_rfo_MPKI 0.0301
Core_0_LLC_rfo_miss_rate 0.863702
Core_0_LLC_prefetch_access 436609
Core_0_LLC_prefetch_hit 119525
Core_0_LLC_prefetch_miss 317084
Core_0_LLC_prefetch_MPKI 3.17084
Core_0_LLC_prefetch_miss_rate 0.726242
Core_0_LLC_writeback_access 146947
Core_0_LLC_writeback_hit 121318
Core_0_LLC_writeback_miss 25629
Core_0_LLC_writeback_MPKI 0.25629
Core_0_LLC_writeback_miss_rate 0.17441
Core_0_LLC_prefetch_requested 0
Core_0_LLC_prefetch_issued 0
Core_0_LLC_prefetch_useful 0
Core_0_LLC_prefetch_useless 0
Core_0_LLC_prefetch_late 0
Core_0_LLC_prefetch_accuracy 0
Core_0_LLC_prefetch_coverage 0
Core_0_LLC_total_eviction 1078900

[DRAM Statistics]
Channel_0_RQ_row_buffer_hit 42787
Channel_0_RQ_row_buffer_miss 1010483
Channel_0_WQ_row_buffer_hit 4166
Channel_0_WQ_row_buffer_miss 66799
Channel_0_WQ_full 0
Channel_0_dbus_congested 2300728
DRAM_total_RQ_row_buffer_hit 42787
DRAM_total_RQ_row_buffer_miss 1010483
DRAM_total_WQ_row_buffer_hit 4166
DRAM_total_WQ_row_buffer_miss 66799
DRAM_total_WQ_full 0
DRAM_total_dbus_congested 2300728
DRAM_avg_congested_cycle 3.90131

======STLB miss causes ========
Core_0_STLB_miss_cause_breakdown
Core_0_STLB_cause_Demand_Data_miss 380737
Core_0_STLB_cause_Demand_Data_miss_rate 0.859296
Core_0_STLB_cause_Demand_Instruction_miss 1
Core_0_STLB_cause_Demand_Instruction_miss_rate 2.25693e-06
Core_0_STLB_cause_L1D_Prefetch_miss 0
Core_0_STLB_cause_L1D_Prefetch_miss_rate 0
Core_0_STLB_cause_L1I_Prefetch_miss 0
Core_0_STLB_cause_L1I_Prefetch_miss_rate 0
Core_0_STLB_cause_Other_miss 0
Core_0_STLB_cause_Other_miss_rate 0
Core_0_STLB_Demand_miss 380738
Core_0_STLB_Demand_miss_rate 0.859299
Core_0_STLB_L1D_Prefetch_miss 0
Core_0_STLB_L1D_Prefetch_miss_rate 0
Core_0_STLB_Other_miss 0
Core_0_STLB_Other_miss_rate 0
BERTI TO_L1: 119756948 TO_L2: 55537162 TO_L2_BC_MSHR: 12236806
BERTI AVG_LAT: 177.157 NUM_TRACK_LATENCY: 1589049 NUM_CANT_TRACK_LATENCY: 77
BERTI CROSS_PAGE 22425795 NO_CROSS_PAGE: 152868315
BERTI FOUND_BERTI: 29374658 NO_FOUND_BERTI: 17099396
BERTI AVERAGE_ISSUED: 3.54493
