[VMEM] WARNING: physical memory size is smaller than virtual memory size.

*** ChampSim Multicore Out-of-Order Simulator ***
Warmup Instructions: 50000000
Simulation Instructions: 100000000
Number of CPUs: 1
Page size: 4096
STLB ideal mode: l1pref
STLB ideal fill: on
Core 0: /data2/zcq/champsim_traces_xsbench/xs.XXL100nuclide-650B.champsimtrace.xz
VBerti Prefetcher
BERTI HASH ENTANGLING
BERTI IP MASK ffff
Off-chip DRAM Size: 16 GiB Channels: 1 Width: 64-bit Data Rate: 3205 MT/s
Warmup halting CPU 0 at instruction 50000002 cycle 36605067 for remainder of phase
Warmup finished CPU 0 instructions: 50000002 cycles: 36605067 cumulative IPC: 1.366 (Simulation time: 00 hr 06 min 16 sec)
Warmup complete CPU 0 instructions: 50000002 cycles: 36605067 cumulative IPC: 1.366 (Simulation time: 00 hr 06 min 16 sec)
Simulation finished CPU 0 instructions: 100000001 cycles: 694911153 cumulative IPC: 0.1439 (Simulation time: 01 hr 16 min 21 sec)
Simulation complete CPU 0 instructions: 100000001 cycles: 694911153 cumulative IPC: 0.1439 (Simulation time: 01 hr 16 min 21 sec)

ChampSim completed all CPUs

=== Simulation ===
CPU 0 runs /data2/zcq/champsim_traces_xsbench/xs.XXL100nuclide-650B.champsimtrace.xz

Region of Interest Statistics

CPU 0 cumulative IPC: 0.1439 instructions: 100000001 cycles: 694911153
CPU 0 Branch Prediction Accuracy: 87.18% MPKI: 21.63 Average ROB Occupancy at Mispredict: 25.55
Branch type MPKI
BRANCH_DIRECT_JUMP: 0
BRANCH_INDIRECT: 0
BRANCH_CONDITIONAL: 21.63
BRANCH_DIRECT_CALL: 0
BRANCH_INDIRECT_CALL: 0
BRANCH_RETURN: 0

cpu0->cpu0_STLB TOTAL        ACCESS:    3982006 HIT:     133034 MISS:    3848972 MSHR_MERGE:          0
cpu0->cpu0_STLB LOAD         ACCESS:    3982006 HIT:     133034 MISS:    3848972 MSHR_MERGE:          0
cpu0->cpu0_STLB RFO          ACCESS:          0 HIT:          0 MISS:          0 MSHR_MERGE:          0
cpu0->cpu0_STLB PREFETCH     ACCESS:          0 HIT:          0 MISS:          0 MSHR_MERGE:          0
cpu0->cpu0_STLB WRITE        ACCESS:          0 HIT:          0 MISS:          0 MSHR_MERGE:          0
cpu0->cpu0_STLB TRANSLATION  ACCESS:          0 HIT:          0 MISS:          0 MSHR_MERGE:          0
cpu0->cpu0_STLB PREFETCH REQUESTED:          0 ISSUED:          0 USEFUL:          0 USELESS:          0 LATE:          0
cpu0->cpu0_STLB AVERAGE MISS LATENCY: 174.6 cycles
cpu0->cpu0_L2C TOTAL        ACCESS:   10587207 HIT:    1482447 MISS:    9104760 MSHR_MERGE:       8563
cpu0->cpu0_L2C LOAD         ACCESS:    5972302 HIT:     211312 MISS:    5760990 MSHR_MERGE:          0
cpu0->cpu0_L2C RFO          ACCESS:      24204 HIT:      22998 MISS:       1206 MSHR_MERGE:          0
cpu0->cpu0_L2C PREFETCH     ACCESS:    1254585 HIT:    1027196 MISS:     227389 MSHR_MERGE:       8563
cpu0->cpu0_L2C WRITE        ACCESS:      27276 HIT:      27257 MISS:         19 MSHR_MERGE:          0
cpu0->cpu0_L2C TRANSLATION  ACCESS:    3308840 HIT:     193684 MISS:    3115156 MSHR_MERGE:          0
cpu0->cpu0_L2C PREFETCH REQUESTED:     329881 ISSUED:     329881 USEFUL:      12633 USELESS:     136838 LATE:          0
cpu0->cpu0_L2C AVERAGE MISS LATENCY: 149.8 cycles
cpu0->cpu0_L1I TOTAL        ACCESS:      21333 HIT:      21333 MISS:          0 MSHR_MERGE:          0
cpu0->cpu0_L1I LOAD         ACCESS:      21333 HIT:      21333 MISS:          0 MSHR_MERGE:          0
cpu0->cpu0_L1I RFO          ACCESS:          0 HIT:          0 MISS:          0 MSHR_MERGE:          0
cpu0->cpu0_L1I PREFETCH     ACCESS:          0 HIT:          0 MISS:          0 MSHR_MERGE:          0
cpu0->cpu0_L1I WRITE        ACCESS:          0 HIT:          0 MISS:          0 MSHR_MERGE:          0
cpu0->cpu0_L1I TRANSLATION  ACCESS:          0 HIT:          0 MISS:          0 MSHR_MERGE:          0
cpu0->cpu0_L1I PREFETCH REQUESTED:          0 ISSUED:          0 USEFUL:          0 USELESS:          0 LATE:          0
cpu0->cpu0_L1I AVERAGE MISS LATENCY: - cycles
cpu0->cpu0_L1D TOTAL        ACCESS:   21897525 HIT:    9732899 MISS:   12164626 MSHR_MERGE:    1934565
cpu0->cpu0_L1D LOAD         ACCESS:    9562413 HIT:    3487070 MISS:    6075343 MSHR_MERGE:     103041
cpu0->cpu0_L1D RFO          ACCESS:          0 HIT:          0 MISS:          0 MSHR_MERGE:          0
cpu0->cpu0_L1D PREFETCH     ACCESS:    2081394 HIT:    1156690 MISS:     924704 MSHR_MERGE:          0
cpu0->cpu0_L1D WRITE        ACCESS:    1814967 HIT:    1742172 MISS:      72795 MSHR_MERGE:      48580
cpu0->cpu0_L1D TRANSLATION  ACCESS:    8438751 HIT:    3346967 MISS:    5091784 MSHR_MERGE:    1782944
cpu0->cpu0_L1D PREFETCH REQUESTED:    2397004 ISSUED:    2081394 USEFUL:      35627 USELESS:      45309 LATE:          1
cpu0->cpu0_L1D AVERAGE MISS LATENCY: 152 cycles
cpu0->cpu0_ITLB TOTAL        ACCESS:      17284 HIT:      17284 MISS:          0 MSHR_MERGE:          0
cpu0->cpu0_ITLB LOAD         ACCESS:      17284 HIT:      17284 MISS:          0 MSHR_MERGE:          0
cpu0->cpu0_ITLB RFO          ACCESS:          0 HIT:          0 MISS:          0 MSHR_MERGE:          0
cpu0->cpu0_ITLB PREFETCH     ACCESS:          0 HIT:          0 MISS:          0 MSHR_MERGE:          0
cpu0->cpu0_ITLB WRITE        ACCESS:          0 HIT:          0 MISS:          0 MSHR_MERGE:          0
cpu0->cpu0_ITLB TRANSLATION  ACCESS:          0 HIT:          0 MISS:          0 MSHR_MERGE:          0
cpu0->cpu0_ITLB PREFETCH REQUESTED:          0 ISSUED:          0 USEFUL:          0 USELESS:          0 LATE:          0
cpu0->cpu0_ITLB AVERAGE MISS LATENCY: - cycles
cpu0->cpu0_DTLB TOTAL        ACCESS:   12808877 HIT:    8626462 MISS:    4182415 MSHR_MERGE:     200409
cpu0->cpu0_DTLB LOAD         ACCESS:   12808877 HIT:    8626462 MISS:    4182415 MSHR_MERGE:     200409
cpu0->cpu0_DTLB RFO          ACCESS:          0 HIT:          0 MISS:          0 MSHR_MERGE:          0
cpu0->cpu0_DTLB PREFETCH     ACCESS:          0 HIT:          0 MISS:          0 MSHR_MERGE:          0
cpu0->cpu0_DTLB WRITE        ACCESS:          0 HIT:          0 MISS:          0 MSHR_MERGE:          0
cpu0->cpu0_DTLB TRANSLATION  ACCESS:          0 HIT:          0 MISS:          0 MSHR_MERGE:          0
cpu0->cpu0_DTLB PREFETCH REQUESTED:          0 ISSUED:          0 USEFUL:          0 USELESS:          0 LATE:          0
cpu0->cpu0_DTLB AVERAGE MISS LATENCY: 174.8 cycles
cpu0->LLC TOTAL        ACCESS:    9098892 HIT:    3051742 MISS:    6047150 MSHR_MERGE:          0
cpu0->LLC LOAD         ACCESS:    5760990 HIT:    1323614 MISS:    4437376 MSHR_MERGE:          0
cpu0->LLC RFO          ACCESS:       1206 HIT:       1200 MISS:          6 MSHR_MERGE:          0
cpu0->LLC PREFETCH     ACCESS:     218826 HIT:      82561 MISS:     136265 MSHR_MERGE:          0
cpu0->LLC WRITE        ACCESS:       2714 HIT:       2698 MISS:         16 MSHR_MERGE:          0
cpu0->LLC TRANSLATION  ACCESS:    3115156 HIT:    1641669 MISS:    1473487 MSHR_MERGE:          0
cpu0->LLC PREFETCH REQUESTED:          0 ISSUED:          0 USEFUL:          0 USELESS:          0 LATE:          0
cpu0->LLC AVERAGE MISS LATENCY: 201.5 cycles

DRAM Statistics

Channel 0 RQ ROW_BUFFER_HIT:      30423
  ROW_BUFFER_MISS:    6016711
  AVG DBUS CONGESTED CYCLE: 2.933
Channel 0 WQ ROW_BUFFER_HIT:          3
  ROW_BUFFER_MISS:         14
  FULL:          0
Channel 0 REFRESHES ISSUED:      57909

[ROI Statistics]
[System Configuration]
num_cpus 1
cpu_freq 4000
fetch_width 6
decode_width 6
dispatch_width 6
execute_width 6
lq_width 2
sq_width 2
retire_width 6
scheduler_size 128
branch_mispredict_penalty 15
rob_size 352
lq_size 128
sq_size 72
ifetch_buffer_size 64
decode_buffer_size 32
dispatch_buffer_size 32
register_file_size 288
decode_latency 1
dispatch_latency 1
schedule_latency 1
execute_latency 1
page_size 4096
block_size 64
core_0_itlb_set 16
core_0_itlb_way 4
core_0_itlb_rq_size 16
core_0_itlb_wq_size 16
core_0_itlb_pq_size 0
core_0_itlb_mshr_size 8
core_0_itlb_hit_latency 1
core_0_itlb_fill_latency 1
core_0_itlb_max_tag_check 2
core_0_itlb_max_fill 2
core_0_dtlb_set 16
core_0_dtlb_way 4
core_0_dtlb_rq_size 16
core_0_dtlb_wq_size 16
core_0_dtlb_pq_size 0
core_0_dtlb_mshr_size 8
core_0_dtlb_hit_latency 1
core_0_dtlb_fill_latency 1
core_0_dtlb_max_tag_check 2
core_0_dtlb_max_fill 2
core_0_stlb_set 128
core_0_stlb_way 12
core_0_stlb_rq_size 32
core_0_stlb_wq_size 32
core_0_stlb_pq_size 0
core_0_stlb_mshr_size 16
core_0_stlb_hit_latency 4
core_0_stlb_fill_latency 4
core_0_stlb_max_tag_check 1
core_0_stlb_max_fill 1
core_0_l1i_set 64
core_0_l1i_way 8
core_0_l1i_rq_size 64
core_0_l1i_wq_size 64
core_0_l1i_pq_size 32
core_0_l1i_mshr_size 8
core_0_l1i_hit_latency 2
core_0_l1i_fill_latency 2
core_0_l1i_max_tag_check 2
core_0_l1i_max_fill 2
core_0_l1d_set 64
core_0_l1d_way 12
core_0_l1d_rq_size 64
core_0_l1d_wq_size 64
core_0_l1d_pq_size 8
core_0_l1d_mshr_size 16
core_0_l1d_hit_latency 2
core_0_l1d_fill_latency 3
core_0_l1d_max_tag_check 2
core_0_l1d_max_fill 2
core_0_l2c_set 1024
core_0_l2c_way 8
core_0_l2c_rq_size 32
core_0_l2c_wq_size 32
core_0_l2c_pq_size 16
core_0_l2c_mshr_size 32
core_0_l2c_hit_latency 5
core_0_l2c_fill_latency 5
core_0_l2c_max_tag_check 1
core_0_l2c_max_fill 1
llc_set 2048
llc_way 16
llc_rq_size 32
llc_wq_size 32
llc_pq_size 32
llc_mshr_size 64
llc_hit_latency 10
llc_fill_latency 10
llc_max_tag_check 1
llc_max_fill 1
dram_channels 1
dram_ranks 1
dram_bankgroups 8
dram_banks 4
dram_rows 65536
dram_columns 1024
dram_channel_width 8
dram_rq_size 64
dram_wq_size 64
dram_size 17179869184
core_0_itlb_prefetcher no
core_0_dtlb_prefetcher no
core_0_stlb_prefetcher no
core_0_l1i_prefetcher next_line
core_0_l1d_prefetcher vberti
core_0_l2c_prefetcher ip_stride
llc_prefetcher no
llc_replacement drrip

Core_0_instructions 100000001
Core_0_cycles 694911153
Core_0_IPC 0.143903
Core_0_branch_prediction_accuracy 87.1771
Core_0_branch_MPKI 21.6309
Core_0_average_ROB_occupancy_at_mispredict 25.5524

Core_0_ITLB_total_access 17284
Core_0_ITLB_total_hit 17284
Core_0_ITLB_total_miss 0
Core_0_ITLB_total_MPKI 0
Core_0_ITLB_total_miss_rate 0
Core_0_ITLB_demand_access 17284
Core_0_ITLB_demand_hit 17284
Core_0_ITLB_demand_miss 0
Core_0_ITLB_demand_MPKI 0
Core_0_ITLB_demand_miss_rate 0
Core_0_ITLB_load_access 17284
Core_0_ITLB_load_hit 17284
Core_0_ITLB_load_miss 0
Core_0_ITLB_load_MPKI 0
Core_0_ITLB_load_miss_rate 0
Core_0_ITLB_rfo_access 0
Core_0_ITLB_rfo_hit 0
Core_0_ITLB_rfo_miss 0
Core_0_ITLB_rfo_MPKI 0
Core_0_ITLB_rfo_miss_rate 0
Core_0_ITLB_prefetch_access 0
Core_0_ITLB_prefetch_hit 0
Core_0_ITLB_prefetch_miss 0
Core_0_ITLB_prefetch_MPKI 0
Core_0_ITLB_prefetch_miss_rate 0
Core_0_ITLB_writeback_access 0
Core_0_ITLB_writeback_hit 0
Core_0_ITLB_writeback_miss 0
Core_0_ITLB_writeback_MPKI 0
Core_0_ITLB_writeback_miss_rate 0
Core_0_ITLB_prefetch_requested 0
Core_0_ITLB_prefetch_issued 0
Core_0_ITLB_prefetch_useful 0
Core_0_ITLB_prefetch_useless 0
Core_0_ITLB_prefetch_late 0
Core_0_ITLB_prefetch_accuracy 0
Core_0_ITLB_prefetch_coverage 0
Core_0_ITLB_total_eviction 0

Core_0_DTLB_total_access 12808877
Core_0_DTLB_total_hit 8626462
Core_0_DTLB_total_miss 4182415
Core_0_DTLB_total_MPKI 41.8241
Core_0_DTLB_total_miss_rate 0.326525
Core_0_DTLB_demand_access 12808877
Core_0_DTLB_demand_hit 8626462
Core_0_DTLB_demand_miss 4182415
Core_0_DTLB_demand_MPKI 41.8241
Core_0_DTLB_demand_miss_rate 0.326525
Core_0_DTLB_load_access 12808877
Core_0_DTLB_load_hit 8626462
Core_0_DTLB_load_miss 4182415
Core_0_DTLB_load_MPKI 41.8241
Core_0_DTLB_load_miss_rate 0.326525
Core_0_DTLB_rfo_access 0
Core_0_DTLB_rfo_hit 0
Core_0_DTLB_rfo_miss 0
Core_0_DTLB_rfo_MPKI 0
Core_0_DTLB_rfo_miss_rate 0
Core_0_DTLB_prefetch_access 0
Core_0_DTLB_prefetch_hit 0
Core_0_DTLB_prefetch_miss 0
Core_0_DTLB_prefetch_MPKI 0
Core_0_DTLB_prefetch_miss_rate 0
Core_0_DTLB_writeback_access 0
Core_0_DTLB_writeback_hit 0
Core_0_DTLB_writeback_miss 0
Core_0_DTLB_writeback_MPKI 0
Core_0_DTLB_writeback_miss_rate 0
Core_0_DTLB_prefetch_requested 0
Core_0_DTLB_prefetch_issued 0
Core_0_DTLB_prefetch_useful 0
Core_0_DTLB_prefetch_useless 0
Core_0_DTLB_prefetch_late 0
Core_0_DTLB_prefetch_accuracy 0
Core_0_DTLB_prefetch_coverage 0
Core_0_DTLB_total_eviction 3982009

Core_0_STLB_total_access 3982006
Core_0_STLB_total_hit 133034
Core_0_STLB_total_miss 3848972
Core_0_STLB_total_MPKI 38.4897
Core_0_STLB_total_miss_rate 0.966591
Core_0_STLB_demand_access 3982006
Core_0_STLB_demand_hit 133034
Core_0_STLB_demand_miss 3848972
Core_0_STLB_demand_MPKI 38.4897
Core_0_STLB_demand_miss_rate 0.966591
Core_0_STLB_load_access 3982006
Core_0_STLB_load_hit 133034
Core_0_STLB_load_miss 3848972
Core_0_STLB_load_MPKI 38.4897
Core_0_STLB_load_miss_rate 0.966591
Core_0_STLB_rfo_access 0
Core_0_STLB_rfo_hit 0
Core_0_STLB_rfo_miss 0
Core_0_STLB_rfo_MPKI 0
Core_0_STLB_rfo_miss_rate 0
Core_0_STLB_prefetch_access 0
Core_0_STLB_prefetch_hit 0
Core_0_STLB_prefetch_miss 0
Core_0_STLB_prefetch_MPKI 0
Core_0_STLB_prefetch_miss_rate 0
Core_0_STLB_writeback_access 0
Core_0_STLB_writeback_hit 0
Core_0_STLB_writeback_miss 0
Core_0_STLB_writeback_MPKI 0
Core_0_STLB_writeback_miss_rate 0
Core_0_STLB_prefetch_requested 0
Core_0_STLB_prefetch_issued 0
Core_0_STLB_prefetch_useful 0
Core_0_STLB_prefetch_useless 0
Core_0_STLB_prefetch_late 0
Core_0_STLB_prefetch_accuracy 0
Core_0_STLB_prefetch_coverage 0
Core_0_STLB_total_eviction 3850675

Core_0_L1I_total_access 21333
Core_0_L1I_total_hit 21333
Core_0_L1I_total_miss 0
Core_0_L1I_total_MPKI 0
Core_0_L1I_total_miss_rate 0
Core_0_L1I_demand_access 21333
Core_0_L1I_demand_hit 21333
Core_0_L1I_demand_miss 0
Core_0_L1I_demand_MPKI 0
Core_0_L1I_demand_miss_rate 0
Core_0_L1I_load_access 21333
Core_0_L1I_load_hit 21333
Core_0_L1I_load_miss 0
Core_0_L1I_load_MPKI 0
Core_0_L1I_load_miss_rate 0
Core_0_L1I_rfo_access 0
Core_0_L1I_rfo_hit 0
Core_0_L1I_rfo_miss 0
Core_0_L1I_rfo_MPKI 0
Core_0_L1I_rfo_miss_rate 0
Core_0_L1I_prefetch_access 0
Core_0_L1I_prefetch_hit 0
Core_0_L1I_prefetch_miss 0
Core_0_L1I_prefetch_MPKI 0
Core_0_L1I_prefetch_miss_rate 0
Core_0_L1I_writeback_access 0
Core_0_L1I_writeback_hit 0
Core_0_L1I_writeback_miss 0
Core_0_L1I_writeback_MPKI 0
Core_0_L1I_writeback_miss_rate 0
Core_0_L1I_prefetch_requested 0
Core_0_L1I_prefetch_issued 0
Core_0_L1I_prefetch_useful 0
Core_0_L1I_prefetch_useless 0
Core_0_L1I_prefetch_late 0
Core_0_L1I_prefetch_accuracy 0
Core_0_L1I_prefetch_coverage 0
Core_0_L1I_total_eviction 0

Core_0_L1D_total_access 13458774
Core_0_L1D_total_hit 6385932
Core_0_L1D_total_miss 7072842
Core_0_L1D_total_MPKI 70.7284
Core_0_L1D_total_miss_rate 0.525519
Core_0_L1D_demand_access 9562413
Core_0_L1D_demand_hit 3487070
Core_0_L1D_demand_miss 6075343
Core_0_L1D_demand_MPKI 60.7534
Core_0_L1D_demand_miss_rate 0.635336
Core_0_L1D_load_access 9562413
Core_0_L1D_load_hit 3487070
Core_0_L1D_load_miss 6075343
Core_0_L1D_load_MPKI 60.7534
Core_0_L1D_load_miss_rate 0.635336
Core_0_L1D_rfo_access 0
Core_0_L1D_rfo_hit 0
Core_0_L1D_rfo_miss 0
Core_0_L1D_rfo_MPKI 0
Core_0_L1D_rfo_miss_rate 0
Core_0_L1D_prefetch_access 2081394
Core_0_L1D_prefetch_hit 1156690
Core_0_L1D_prefetch_miss 924704
Core_0_L1D_prefetch_MPKI 9.24704
Core_0_L1D_prefetch_miss_rate 0.444271
Core_0_L1D_writeback_access 1814967
Core_0_L1D_writeback_hit 1742172
Core_0_L1D_writeback_miss 72795
Core_0_L1D_writeback_MPKI 0.72795
Core_0_L1D_writeback_miss_rate 0.0401082
Core_0_L1D_prefetch_requested 2397004
Core_0_L1D_prefetch_issued 2081394
Core_0_L1D_prefetch_useful 35627
Core_0_L1D_prefetch_useless 45309
Core_0_L1D_prefetch_late 1
Core_0_L1D_prefetch_accuracy 0.0171169
Core_0_L1D_prefetch_coverage 0.00583001
Core_0_L1D_total_eviction 9386292

Core_0_L2C_total_access 7278367
Core_0_L2C_total_hit 1288763
Core_0_L2C_total_miss 5989604
Core_0_L2C_total_MPKI 59.896
Core_0_L2C_total_miss_rate 0.822932
Core_0_L2C_demand_access 5996506
Core_0_L2C_demand_hit 234310
Core_0_L2C_demand_miss 5762196
Core_0_L2C_demand_MPKI 57.622
Core_0_L2C_demand_miss_rate 0.960926
Core_0_L2C_load_access 5972302
Core_0_L2C_load_hit 211312
Core_0_L2C_load_miss 5760990
Core_0_L2C_load_MPKI 57.6099
Core_0_L2C_load_miss_rate 0.964618
Core_0_L2C_rfo_access 24204
Core_0_L2C_rfo_hit 22998
Core_0_L2C_rfo_miss 1206
Core_0_L2C_rfo_MPKI 0.01206
Core_0_L2C_rfo_miss_rate 0.0498265
Core_0_L2C_prefetch_access 1254585
Core_0_L2C_prefetch_hit 1027196
Core_0_L2C_prefetch_miss 227389
Core_0_L2C_prefetch_MPKI 2.27389
Core_0_L2C_prefetch_miss_rate 0.181246
Core_0_L2C_writeback_access 27276
Core_0_L2C_writeback_hit 27257
Core_0_L2C_writeback_miss 19
Core_0_L2C_writeback_MPKI 0.00019
Core_0_L2C_writeback_miss_rate 0.000696583
Core_0_L2C_prefetch_requested 329881
Core_0_L2C_prefetch_issued 329881
Core_0_L2C_prefetch_useful 12633
Core_0_L2C_prefetch_useless 136838
Core_0_L2C_prefetch_late 0
Core_0_L2C_prefetch_accuracy 0.0382956
Core_0_L2C_prefetch_coverage 0.0021876
Core_0_L2C_total_eviction 9096197

Core_0_LLC_total_access 5983736
Core_0_LLC_total_hit 1410073
Core_0_LLC_total_miss 4573663
Core_0_LLC_total_MPKI 45.7366
Core_0_LLC_total_miss_rate 0.764349
Core_0_LLC_demand_access 5762196
Core_0_LLC_demand_hit 1324814
Core_0_LLC_demand_miss 4437382
Core_0_LLC_demand_MPKI 44.3738
Core_0_LLC_demand_miss_rate 0.770085
Core_0_LLC_load_access 5760990
Core_0_LLC_load_hit 1323614
Core_0_LLC_load_miss 4437376
Core_0_LLC_load_MPKI 44.3738
Core_0_LLC_load_miss_rate 0.770245
Core_0_LLC_rfo_access 1206
Core_0_LLC_rfo_hit 1200
Core_0_LLC_rfo_miss 6
Core_0_LLC_rfo_MPKI 6e-05
Core_0_LLC_rfo_miss_rate 0.00497512
Core_0_LLC_prefetch_access 218826
Core_0_LLC_prefetch_hit 82561
Core_0_LLC_prefetch_miss 136265
Core_0_LLC_prefetch_MPKI 1.36265
Core_0_LLC_prefetch_miss_rate 0.622709
Core_0_LLC_writeback_access 2714
Core_0_LLC_writeback_hit 2698
Core_0_LLC_writeback_miss 16
Core_0_LLC_writeback_MPKI 0.00016
Core_0_LLC_writeback_miss_rate 0.00589536
Core_0_LLC_prefetch_requested 0
Core_0_LLC_prefetch_issued 0
Core_0_LLC_prefetch_useful 0
Core_0_LLC_prefetch_useless 0
Core_0_LLC_prefetch_late 0
Core_0_LLC_prefetch_accuracy 0
Core_0_LLC_prefetch_coverage 0
Core_0_LLC_total_eviction 6047150

[DRAM Statistics]
Channel_0_RQ_row_buffer_hit 30423
Channel_0_RQ_row_buffer_miss 6016711
Channel_0_WQ_row_buffer_hit 3
Channel_0_WQ_row_buffer_miss 14
Channel_0_WQ_full 0
Channel_0_dbus_congested 6293340
DRAM_total_RQ_row_buffer_hit 30423
DRAM_total_RQ_row_buffer_miss 6016711
DRAM_total_WQ_row_buffer_hit 3
DRAM_total_WQ_row_buffer_miss 14
DRAM_total_WQ_full 0
DRAM_total_dbus_congested 6293340
DRAM_avg_congested_cycle 2.93295

======STLB miss causes ========
Core_0_STLB_miss_cause_breakdown
Core_0_STLB_cause_Demand_Data_miss 3848972
Core_0_STLB_cause_Demand_Data_miss_rate 0.966591
Core_0_STLB_cause_Demand_Instruction_miss 0
Core_0_STLB_cause_Demand_Instruction_miss_rate 0
Core_0_STLB_cause_L1D_Prefetch_miss 0
Core_0_STLB_cause_L1D_Prefetch_miss_rate 0
Core_0_STLB_cause_L1I_Prefetch_miss 0
Core_0_STLB_cause_L1I_Prefetch_miss_rate 0
Core_0_STLB_cause_Other_miss 0
Core_0_STLB_cause_Other_miss_rate 0
Core_0_STLB_Demand_miss 3848972
Core_0_STLB_Demand_miss_rate 0.966591
Core_0_STLB_L1D_Prefetch_miss 0
Core_0_STLB_L1D_Prefetch_miss_rate 0
Core_0_STLB_Other_miss 0
Core_0_STLB_Other_miss_rate 0
BERTI TO_L1: 1462915 TO_L2: 1624697 TO_L2_BC_MSHR: 0
BERTI AVG_LAT: 119.434 NUM_TRACK_LATENCY: 9086132 NUM_CANT_TRACK_LATENCY: 0
BERTI CROSS_PAGE 303816 NO_CROSS_PAGE: 2783796
BERTI FOUND_BERTI: 12702581 NO_FOUND_BERTI: 3783236
BERTI AVERAGE_ISSUED: 2.94207
