[VMEM] WARNING: physical memory size is smaller than virtual memory size.

*** ChampSim Multicore Out-of-Order Simulator ***
Warmup Instructions: 50000000
Simulation Instructions: 100000000
Number of CPUs: 1
Page size: 4096
STLB ideal mode: l1pref
STLB ideal fill: on
Core 0: /data2/zcq/champsim_traces_xsbench/xs.XL64unionized-28B.champsimtrace.xz
VBerti Prefetcher
BERTI HASH ENTANGLING
BERTI IP MASK ffff
Off-chip DRAM Size: 16 GiB Channels: 1 Width: 64-bit Data Rate: 3205 MT/s
Warmup halting CPU 0 at instruction 50000000 cycle 12361357 for remainder of phase
Warmup finished CPU 0 instructions: 50000000 cycles: 12361357 cumulative IPC: 4.045 (Simulation time: 00 hr 02 min 39 sec)
Warmup complete CPU 0 instructions: 50000000 cycles: 12361357 cumulative IPC: 4.045 (Simulation time: 00 hr 02 min 39 sec)
Simulation finished CPU 0 instructions: 100000000 cycles: 193826083 cumulative IPC: 0.5159 (Simulation time: 00 hr 20 min 21 sec)
Simulation complete CPU 0 instructions: 100000000 cycles: 193826083 cumulative IPC: 0.5159 (Simulation time: 00 hr 20 min 21 sec)

ChampSim completed all CPUs

=== Simulation ===
CPU 0 runs /data2/zcq/champsim_traces_xsbench/xs.XL64unionized-28B.champsimtrace.xz

Region of Interest Statistics

CPU 0 cumulative IPC: 0.5159 instructions: 100000000 cycles: 193826083
CPU 0 Branch Prediction Accuracy: 92.6% MPKI: 18.09 Average ROB Occupancy at Mispredict: 28.67
Branch type MPKI
BRANCH_DIRECT_JUMP: 0
BRANCH_INDIRECT: 0
BRANCH_CONDITIONAL: 18.09
BRANCH_DIRECT_CALL: 0
BRANCH_INDIRECT_CALL: 0
BRANCH_RETURN: 0.00051

cpu0->cpu0_STLB TOTAL        ACCESS:    1034968 HIT:     936997 MISS:      97971 MSHR_MERGE:          0
cpu0->cpu0_STLB LOAD         ACCESS:    1034968 HIT:     936997 MISS:      97971 MSHR_MERGE:          0
cpu0->cpu0_STLB RFO          ACCESS:          0 HIT:          0 MISS:          0 MSHR_MERGE:          0
cpu0->cpu0_STLB PREFETCH     ACCESS:          0 HIT:          0 MISS:          0 MSHR_MERGE:          0
cpu0->cpu0_STLB WRITE        ACCESS:          0 HIT:          0 MISS:          0 MSHR_MERGE:          0
cpu0->cpu0_STLB TRANSLATION  ACCESS:          0 HIT:          0 MISS:          0 MSHR_MERGE:          0
cpu0->cpu0_STLB PREFETCH REQUESTED:          0 ISSUED:          0 USEFUL:          0 USELESS:          0 LATE:          0
cpu0->cpu0_STLB AVERAGE MISS LATENCY: 18.57 cycles
cpu0->cpu0_L2C TOTAL        ACCESS:    8386064 HIT:    6518916 MISS:    1867148 MSHR_MERGE:     183001
cpu0->cpu0_L2C LOAD         ACCESS:    1911778 HIT:     797938 MISS:    1113840 MSHR_MERGE:      26748
cpu0->cpu0_L2C RFO          ACCESS:      70896 HIT:      60127 MISS:      10769 MSHR_MERGE:       1287
cpu0->cpu0_L2C PREFETCH     ACCESS:    5895284 HIT:    5153865 MISS:     741419 MSHR_MERGE:     154966
cpu0->cpu0_L2C WRITE        ACCESS:     452044 HIT:     451997 MISS:         47 MSHR_MERGE:          0
cpu0->cpu0_L2C TRANSLATION  ACCESS:      56062 HIT:      54989 MISS:       1073 MSHR_MERGE:          0
cpu0->cpu0_L2C PREFETCH REQUESTED:    1479719 ISSUED:    1432510 USEFUL:     179351 USELESS:       2240 LATE:      24449
cpu0->cpu0_L2C AVERAGE MISS LATENCY: 141.7 cycles
cpu0->cpu0_L1I TOTAL        ACCESS:    1361849 HIT:    1361849 MISS:          0 MSHR_MERGE:          0
cpu0->cpu0_L1I LOAD         ACCESS:    1361849 HIT:    1361849 MISS:          0 MSHR_MERGE:          0
cpu0->cpu0_L1I RFO          ACCESS:          0 HIT:          0 MISS:          0 MSHR_MERGE:          0
cpu0->cpu0_L1I PREFETCH     ACCESS:          0 HIT:          0 MISS:          0 MSHR_MERGE:          0
cpu0->cpu0_L1I WRITE        ACCESS:          0 HIT:          0 MISS:          0 MSHR_MERGE:          0
cpu0->cpu0_L1I TRANSLATION  ACCESS:          0 HIT:          0 MISS:          0 MSHR_MERGE:          0
cpu0->cpu0_L1I PREFETCH REQUESTED:          0 ISSUED:          0 USEFUL:          0 USELESS:          0 LATE:          0
cpu0->cpu0_L1I AVERAGE MISS LATENCY: - cycles
cpu0->cpu0_L1D TOTAL        ACCESS:   73802897 HIT:   66811021 MISS:    6991876 MSHR_MERGE:     478055
cpu0->cpu0_L1D LOAD         ACCESS:   23383328 HIT:   21151824 MISS:    2231504 MSHR_MERGE:     319726
cpu0->cpu0_L1D RFO          ACCESS:          0 HIT:          0 MISS:          0 MSHR_MERGE:          0
cpu0->cpu0_L1D PREFETCH     ACCESS:   37931427 HIT:   33440532 MISS:    4490895 MSHR_MERGE:      15810
cpu0->cpu0_L1D WRITE        ACCESS:   12292265 HIT:   12078879 MISS:     213386 MSHR_MERGE:     142490
cpu0->cpu0_L1D TRANSLATION  ACCESS:     195877 HIT:     139786 MISS:      56091 MSHR_MERGE:         29
cpu0->cpu0_L1D PREFETCH REQUESTED:  148097524 ISSUED:   37931424 USEFUL:     655096 USELESS:      19553 LATE:      10554
cpu0->cpu0_L1D AVERAGE MISS LATENCY: 87.15 cycles
cpu0->cpu0_ITLB TOTAL        ACCESS:    1289658 HIT:    1289658 MISS:          0 MSHR_MERGE:          0
cpu0->cpu0_ITLB LOAD         ACCESS:    1289658 HIT:    1289658 MISS:          0 MSHR_MERGE:          0
cpu0->cpu0_ITLB RFO          ACCESS:          0 HIT:          0 MISS:          0 MSHR_MERGE:          0
cpu0->cpu0_ITLB PREFETCH     ACCESS:          0 HIT:          0 MISS:          0 MSHR_MERGE:          0
cpu0->cpu0_ITLB WRITE        ACCESS:          0 HIT:          0 MISS:          0 MSHR_MERGE:          0
cpu0->cpu0_ITLB TRANSLATION  ACCESS:          0 HIT:          0 MISS:          0 MSHR_MERGE:          0
cpu0->cpu0_ITLB PREFETCH REQUESTED:          0 ISSUED:          0 USEFUL:          0 USELESS:          0 LATE:          0
cpu0->cpu0_ITLB AVERAGE MISS LATENCY: - cycles
cpu0->cpu0_DTLB TOTAL        ACCESS:   59425625 HIT:   58343896 MISS:    1081729 MSHR_MERGE:      46761
cpu0->cpu0_DTLB LOAD         ACCESS:   59425625 HIT:   58343896 MISS:    1081729 MSHR_MERGE:      46761
cpu0->cpu0_DTLB RFO          ACCESS:          0 HIT:          0 MISS:          0 MSHR_MERGE:          0
cpu0->cpu0_DTLB PREFETCH     ACCESS:          0 HIT:          0 MISS:          0 MSHR_MERGE:          0
cpu0->cpu0_DTLB WRITE        ACCESS:          0 HIT:          0 MISS:          0 MSHR_MERGE:          0
cpu0->cpu0_DTLB TRANSLATION  ACCESS:          0 HIT:          0 MISS:          0 MSHR_MERGE:          0
cpu0->cpu0_DTLB PREFETCH REQUESTED:          0 ISSUED:          0 USEFUL:          0 USELESS:          0 LATE:          0
cpu0->cpu0_DTLB AVERAGE MISS LATENCY: 6.858 cycles
cpu0->LLC TOTAL        ACCESS:    1968965 HIT:     849406 MISS:    1119559 MSHR_MERGE:       7136
cpu0->LLC LOAD         ACCESS:    1087092 HIT:     414295 MISS:     672797 MSHR_MERGE:       1706
cpu0->LLC RFO          ACCESS:       9482 HIT:       5825 MISS:       3657 MSHR_MERGE:         52
cpu0->LLC PREFETCH     ACCESS:     586439 HIT:     213757 MISS:     372682 MSHR_MERGE:       5378
cpu0->LLC WRITE        ACCESS:     284879 HIT:     215511 MISS:      69368 MSHR_MERGE:          0
cpu0->LLC TRANSLATION  ACCESS:       1073 HIT:         18 MISS:       1055 MSHR_MERGE:          0
cpu0->LLC PREFETCH REQUESTED:          0 ISSUED:          0 USEFUL:          0 USELESS:          0 LATE:          0
cpu0->LLC AVERAGE MISS LATENCY: 184.8 cycles

DRAM Statistics

Channel 0 RQ ROW_BUFFER_HIT:      24562
  ROW_BUFFER_MISS:    1017860
  AVG DBUS CONGESTED CYCLE: 13.9
Channel 0 WQ ROW_BUFFER_HIT:      36011
  ROW_BUFFER_MISS:     110032
  FULL:        439
Channel 0 REFRESHES ISSUED:      16152

[ROI Statistics]
[System Configuration]
num_cpus 1
cpu_freq 4000
fetch_width 6
decode_width 6
dispatch_width 6
execute_width 6
lq_width 2
sq_width 2
retire_width 6
scheduler_size 128
branch_mispredict_penalty 15
rob_size 352
lq_size 128
sq_size 72
ifetch_buffer_size 64
decode_buffer_size 32
dispatch_buffer_size 32
register_file_size 288
decode_latency 1
dispatch_latency 1
schedule_latency 1
execute_latency 1
page_size 4096
block_size 64
core_0_itlb_set 16
core_0_itlb_way 4
core_0_itlb_rq_size 16
core_0_itlb_wq_size 16
core_0_itlb_pq_size 0
core_0_itlb_mshr_size 8
core_0_itlb_hit_latency 1
core_0_itlb_fill_latency 1
core_0_itlb_max_tag_check 2
core_0_itlb_max_fill 2
core_0_dtlb_set 16
core_0_dtlb_way 4
core_0_dtlb_rq_size 16
core_0_dtlb_wq_size 16
core_0_dtlb_pq_size 0
core_0_dtlb_mshr_size 8
core_0_dtlb_hit_latency 1
core_0_dtlb_fill_latency 1
core_0_dtlb_max_tag_check 2
core_0_dtlb_max_fill 2
core_0_stlb_set 128
core_0_stlb_way 12
core_0_stlb_rq_size 32
core_0_stlb_wq_size 32
core_0_stlb_pq_size 0
core_0_stlb_mshr_size 16
core_0_stlb_hit_latency 4
core_0_stlb_fill_latency 4
core_0_stlb_max_tag_check 1
core_0_stlb_max_fill 1
core_0_l1i_set 64
core_0_l1i_way 8
core_0_l1i_rq_size 64
core_0_l1i_wq_size 64
core_0_l1i_pq_size 32
core_0_l1i_mshr_size 8
core_0_l1i_hit_latency 2
core_0_l1i_fill_latency 2
core_0_l1i_max_tag_check 2
core_0_l1i_max_fill 2
core_0_l1d_set 64
core_0_l1d_way 12
core_0_l1d_rq_size 64
core_0_l1d_wq_size 64
core_0_l1d_pq_size 8
core_0_l1d_mshr_size 16
core_0_l1d_hit_latency 2
core_0_l1d_fill_latency 3
core_0_l1d_max_tag_check 2
core_0_l1d_max_fill 2
core_0_l2c_set 1024
core_0_l2c_way 8
core_0_l2c_rq_size 32
core_0_l2c_wq_size 32
core_0_l2c_pq_size 16
core_0_l2c_mshr_size 32
core_0_l2c_hit_latency 5
core_0_l2c_fill_latency 5
core_0_l2c_max_tag_check 1
core_0_l2c_max_fill 1
llc_set 2048
llc_way 16
llc_rq_size 32
llc_wq_size 32
llc_pq_size 32
llc_mshr_size 64
llc_hit_latency 10
llc_fill_latency 10
llc_max_tag_check 1
llc_max_fill 1
dram_channels 1
dram_ranks 1
dram_bankgroups 8
dram_banks 4
dram_rows 65536
dram_columns 1024
dram_channel_width 8
dram_rq_size 64
dram_wq_size 64
dram_size 17179869184
core_0_itlb_prefetcher no
core_0_dtlb_prefetcher no
core_0_stlb_prefetcher no
core_0_l1i_prefetcher next_line
core_0_l1d_prefetcher vberti
core_0_l2c_prefetcher ip_stride
llc_prefetcher no
llc_replacement drrip

Core_0_instructions 100000000
Core_0_cycles 193826083
Core_0_IPC 0.515926
Core_0_branch_prediction_accuracy 92.6026
Core_0_branch_MPKI 18.0948
Core_0_average_ROB_occupancy_at_mispredict 28.6683

Core_0_ITLB_total_access 1289658
Core_0_ITLB_total_hit 1289658
Core_0_ITLB_total_miss 0
Core_0_ITLB_total_MPKI 0
Core_0_ITLB_total_miss_rate 0
Core_0_ITLB_demand_access 1289658
Core_0_ITLB_demand_hit 1289658
Core_0_ITLB_demand_miss 0
Core_0_ITLB_demand_MPKI 0
Core_0_ITLB_demand_miss_rate 0
Core_0_ITLB_load_access 1289658
Core_0_ITLB_load_hit 1289658
Core_0_ITLB_load_miss 0
Core_0_ITLB_load_MPKI 0
Core_0_ITLB_load_miss_rate 0
Core_0_ITLB_rfo_access 0
Core_0_ITLB_rfo_hit 0
Core_0_ITLB_rfo_miss 0
Core_0_ITLB_rfo_MPKI 0
Core_0_ITLB_rfo_miss_rate 0
Core_0_ITLB_prefetch_access 0
Core_0_ITLB_prefetch_hit 0
Core_0_ITLB_prefetch_miss 0
Core_0_ITLB_prefetch_MPKI 0
Core_0_ITLB_prefetch_miss_rate 0
Core_0_ITLB_writeback_access 0
Core_0_ITLB_writeback_hit 0
Core_0_ITLB_writeback_miss 0
Core_0_ITLB_writeback_MPKI 0
Core_0_ITLB_writeback_miss_rate 0
Core_0_ITLB_prefetch_requested 0
Core_0_ITLB_prefetch_issued 0
Core_0_ITLB_prefetch_useful 0
Core_0_ITLB_prefetch_useless 0
Core_0_ITLB_prefetch_late 0
Core_0_ITLB_prefetch_accuracy 0
Core_0_ITLB_prefetch_coverage 0
Core_0_ITLB_total_eviction 0

Core_0_DTLB_total_access 59425625
Core_0_DTLB_total_hit 58343896
Core_0_DTLB_total_miss 1081729
Core_0_DTLB_total_MPKI 10.8173
Core_0_DTLB_total_miss_rate 0.0182031
Core_0_DTLB_demand_access 59425625
Core_0_DTLB_demand_hit 58343896
Core_0_DTLB_demand_miss 1081729
Core_0_DTLB_demand_MPKI 10.8173
Core_0_DTLB_demand_miss_rate 0.0182031
Core_0_DTLB_load_access 59425625
Core_0_DTLB_load_hit 58343896
Core_0_DTLB_load_miss 1081729
Core_0_DTLB_load_MPKI 10.8173
Core_0_DTLB_load_miss_rate 0.0182031
Core_0_DTLB_rfo_access 0
Core_0_DTLB_rfo_hit 0
Core_0_DTLB_rfo_miss 0
Core_0_DTLB_rfo_MPKI 0
Core_0_DTLB_rfo_miss_rate 0
Core_0_DTLB_prefetch_access 0
Core_0_DTLB_prefetch_hit 0
Core_0_DTLB_prefetch_miss 0
Core_0_DTLB_prefetch_MPKI 0
Core_0_DTLB_prefetch_miss_rate 0
Core_0_DTLB_writeback_access 0
Core_0_DTLB_writeback_hit 0
Core_0_DTLB_writeback_miss 0
Core_0_DTLB_writeback_MPKI 0
Core_0_DTLB_writeback_miss_rate 0
Core_0_DTLB_prefetch_requested 0
Core_0_DTLB_prefetch_issued 0
Core_0_DTLB_prefetch_useful 0
Core_0_DTLB_prefetch_useless 0
Core_0_DTLB_prefetch_late 0
Core_0_DTLB_prefetch_accuracy 0
Core_0_DTLB_prefetch_coverage 0
Core_0_DTLB_total_eviction 1034968

Core_0_STLB_total_access 1034968
Core_0_STLB_total_hit 936997
Core_0_STLB_total_miss 97971
Core_0_STLB_total_MPKI 0.97971
Core_0_STLB_total_miss_rate 0.0946609
Core_0_STLB_demand_access 1034968
Core_0_STLB_demand_hit 936997
Core_0_STLB_demand_miss 97971
Core_0_STLB_demand_MPKI 0.97971
Core_0_STLB_demand_miss_rate 0.0946609
Core_0_STLB_load_access 1034968
Core_0_STLB_load_hit 936997
Core_0_STLB_load_miss 97971
Core_0_STLB_load_MPKI 0.97971
Core_0_STLB_load_miss_rate 0.0946609
Core_0_STLB_rfo_access 0
Core_0_STLB_rfo_hit 0
Core_0_STLB_rfo_miss 0
Core_0_STLB_rfo_MPKI 0
Core_0_STLB_rfo_miss_rate 0
Core_0_STLB_prefetch_access 0
Core_0_STLB_prefetch_hit 0
Core_0_STLB_prefetch_miss 0
Core_0_STLB_prefetch_MPKI 0
Core_0_STLB_prefetch_miss_rate 0
Core_0_STLB_writeback_access 0
Core_0_STLB_writeback_hit 0
Core_0_STLB_writeback_miss 0
Core_0_STLB_writeback_MPKI 0
Core_0_STLB_writeback_miss_rate 0
Core_0_STLB_prefetch_requested 0
Core_0_STLB_prefetch_issued 0
Core_0_STLB_prefetch_useful 0
Core_0_STLB_prefetch_useless 0
Core_0_STLB_prefetch_late 0
Core_0_STLB_prefetch_accuracy 0
Core_0_STLB_prefetch_coverage 0
Core_0_STLB_total_eviction 102894

Core_0_L1I_total_access 1361849
Core_0_L1I_total_hit 1361849
Core_0_L1I_total_miss 0
Core_0_L1I_total_MPKI 0
Core_0_L1I_total_miss_rate 0
Core_0_L1I_demand_access 1361849
Core_0_L1I_demand_hit 1361849
Core_0_L1I_demand_miss 0
Core_0_L1I_demand_MPKI 0
Core_0_L1I_demand_miss_rate 0
Core_0_L1I_load_access 1361849
Core_0_L1I_load_hit 1361849
Core_0_L1I_load_miss 0
Core_0_L1I_load_MPKI 0
Core_0_L1I_load_miss_rate 0
Core_0_L1I_rfo_access 0
Core_0_L1I_rfo_hit 0
Core_0_L1I_rfo_miss 0
Core_0_L1I_rfo_MPKI 0
Core_0_L1I_rfo_miss_rate 0
Core_0_L1I_prefetch_access 0
Core_0_L1I_prefetch_hit 0
Core_0_L1I_prefetch_miss 0
Core_0_L1I_prefetch_MPKI 0
Core_0_L1I_prefetch_miss_rate 0
Core_0_L1I_writeback_access 0
Core_0_L1I_writeback_hit 0
Core_0_L1I_writeback_miss 0
Core_0_L1I_writeback_MPKI 0
Core_0_L1I_writeback_miss_rate 0
Core_0_L1I_prefetch_requested 0
Core_0_L1I_prefetch_issued 0
Core_0_L1I_prefetch_useful 0
Core_0_L1I_prefetch_useless 0
Core_0_L1I_prefetch_late 0
Core_0_L1I_prefetch_accuracy 0
Core_0_L1I_prefetch_coverage 0
Core_0_L1I_total_eviction 0

Core_0_L1D_total_access 73607020
Core_0_L1D_total_hit 66671235
Core_0_L1D_total_miss 6935785
Core_0_L1D_total_MPKI 69.3578
Core_0_L1D_total_miss_rate 0.0942272
Core_0_L1D_demand_access 23383328
Core_0_L1D_demand_hit 21151824
Core_0_L1D_demand_miss 2231504
Core_0_L1D_demand_MPKI 22.315
Core_0_L1D_demand_miss_rate 0.0954314
Core_0_L1D_load_access 23383328
Core_0_L1D_load_hit 21151824
Core_0_L1D_load_miss 2231504
Core_0_L1D_load_MPKI 22.315
Core_0_L1D_load_miss_rate 0.0954314
Core_0_L1D_rfo_access 0
Core_0_L1D_rfo_hit 0
Core_0_L1D_rfo_miss 0
Core_0_L1D_rfo_MPKI 0
Core_0_L1D_rfo_miss_rate 0
Core_0_L1D_prefetch_access 37931427
Core_0_L1D_prefetch_hit 33440532
Core_0_L1D_prefetch_miss 4490895
Core_0_L1D_prefetch_MPKI 44.9089
Core_0_L1D_prefetch_miss_rate 0.118395
Core_0_L1D_writeback_access 12292265
Core_0_L1D_writeback_hit 12078879
Core_0_L1D_writeback_miss 213386
Core_0_L1D_writeback_MPKI 2.13386
Core_0_L1D_writeback_miss_rate 0.0173594
Core_0_L1D_prefetch_requested 148097524
Core_0_L1D_prefetch_issued 37931424
Core_0_L1D_prefetch_useful 655096
Core_0_L1D_prefetch_useless 19553
Core_0_L1D_prefetch_late 10554
Core_0_L1D_prefetch_accuracy 0.0172705
Core_0_L1D_prefetch_coverage 0.226944
Core_0_L1D_total_eviction 2713386

Core_0_L2C_total_access 8330002
Core_0_L2C_total_hit 6463927
Core_0_L2C_total_miss 1866075
Core_0_L2C_total_MPKI 18.6608
Core_0_L2C_total_miss_rate 0.224019
Core_0_L2C_demand_access 1982674
Core_0_L2C_demand_hit 858065
Core_0_L2C_demand_miss 1124609
Core_0_L2C_demand_MPKI 11.2461
Core_0_L2C_demand_miss_rate 0.567218
Core_0_L2C_load_access 1911778
Core_0_L2C_load_hit 797938
Core_0_L2C_load_miss 1113840
Core_0_L2C_load_MPKI 11.1384
Core_0_L2C_load_miss_rate 0.58262
Core_0_L2C_rfo_access 70896
Core_0_L2C_rfo_hit 60127
Core_0_L2C_rfo_miss 10769
Core_0_L2C_rfo_MPKI 0.10769
Core_0_L2C_rfo_miss_rate 0.151899
Core_0_L2C_prefetch_access 5895284
Core_0_L2C_prefetch_hit 5153865
Core_0_L2C_prefetch_miss 741419
Core_0_L2C_prefetch_MPKI 7.41419
Core_0_L2C_prefetch_miss_rate 0.125765
Core_0_L2C_writeback_access 452044
Core_0_L2C_writeback_hit 451997
Core_0_L2C_writeback_miss 47
Core_0_L2C_writeback_MPKI 0.00047
Core_0_L2C_writeback_miss_rate 0.000103972
Core_0_L2C_prefetch_requested 1479719
Core_0_L2C_prefetch_issued 1432510
Core_0_L2C_prefetch_useful 179351
Core_0_L2C_prefetch_useless 2240
Core_0_L2C_prefetch_late 24449
Core_0_L2C_prefetch_accuracy 0.125201
Core_0_L2C_prefetch_coverage 0.137543
Core_0_L2C_total_eviction 1669712

Core_0_LLC_total_access 1967892
Core_0_LLC_total_hit 849388
Core_0_LLC_total_miss 1118504
Core_0_LLC_total_MPKI 11.185
Core_0_LLC_total_miss_rate 0.568377
Core_0_LLC_demand_access 1096574
Core_0_LLC_demand_hit 420120
Core_0_LLC_demand_miss 676454
Core_0_LLC_demand_MPKI 6.76454
Core_0_LLC_demand_miss_rate 0.616879
Core_0_LLC_load_access 1087092
Core_0_LLC_load_hit 414295
Core_0_LLC_load_miss 672797
Core_0_LLC_load_MPKI 6.72797
Core_0_LLC_load_miss_rate 0.618896
Core_0_LLC_rfo_access 9482
Core_0_LLC_rfo_hit 5825
Core_0_LLC_rfo_miss 3657
Core_0_LLC_rfo_MPKI 0.03657
Core_0_LLC_rfo_miss_rate 0.385678
Core_0_LLC_prefetch_access 586439
Core_0_LLC_prefetch_hit 213757
Core_0_LLC_prefetch_miss 372682
Core_0_LLC_prefetch_MPKI 3.72682
Core_0_LLC_prefetch_miss_rate 0.6355
Core_0_LLC_writeback_access 284879
Core_0_LLC_writeback_hit 215511
Core_0_LLC_writeback_miss 69368
Core_0_LLC_writeback_MPKI 0.69368
Core_0_LLC_writeback_miss_rate 0.2435
Core_0_LLC_prefetch_requested 0
Core_0_LLC_prefetch_issued 0
Core_0_LLC_prefetch_useful 0
Core_0_LLC_prefetch_useless 0
Core_0_LLC_prefetch_late 0
Core_0_LLC_prefetch_accuracy 0
Core_0_LLC_prefetch_coverage 0
Core_0_LLC_total_eviction 1112423

[DRAM Statistics]
Channel_0_RQ_row_buffer_hit 24562
Channel_0_RQ_row_buffer_miss 1017860
Channel_0_WQ_row_buffer_hit 36011
Channel_0_WQ_row_buffer_miss 110032
Channel_0_WQ_full 439
Channel_0_dbus_congested 2530259
DRAM_total_RQ_row_buffer_hit 24562
DRAM_total_RQ_row_buffer_miss 1017860
DRAM_total_WQ_row_buffer_hit 36011
DRAM_total_WQ_row_buffer_miss 110032
DRAM_total_WQ_full 439
DRAM_total_dbus_congested 2530259
DRAM_avg_congested_cycle 13.8988

======STLB miss causes ========
Core_0_STLB_miss_cause_breakdown
Core_0_STLB_cause_Demand_Data_miss 97971
Core_0_STLB_cause_Demand_Data_miss_rate 0.0946609
Core_0_STLB_cause_Demand_Instruction_miss 0
Core_0_STLB_cause_Demand_Instruction_miss_rate 0
Core_0_STLB_cause_L1D_Prefetch_miss 0
Core_0_STLB_cause_L1D_Prefetch_miss_rate 0
Core_0_STLB_cause_L1I_Prefetch_miss 0
Core_0_STLB_cause_L1I_Prefetch_miss_rate 0
Core_0_STLB_cause_Other_miss 0
Core_0_STLB_cause_Other_miss_rate 0
Core_0_STLB_Demand_miss 97971
Core_0_STLB_Demand_miss_rate 0.0946609
Core_0_STLB_L1D_Prefetch_miss 0
Core_0_STLB_L1D_Prefetch_miss_rate 0
Core_0_STLB_Other_miss 0
Core_0_STLB_Other_miss_rate 0
BERTI TO_L1: 89801010 TO_L2: 92024531 TO_L2_BC_MSHR: 924321
BERTI AVG_LAT: 57.5002 NUM_TRACK_LATENCY: 4307530 NUM_CANT_TRACK_LATENCY: 36
BERTI CROSS_PAGE 20585483 NO_CROSS_PAGE: 161240058
BERTI FOUND_BERTI: 32172712 NO_FOUND_BERTI: 14772435
BERTI AVERAGE_ISSUED: 2.83607
