[VMEM] WARNING: physical memory size is smaller than virtual memory size.

*** ChampSim Multicore Out-of-Order Simulator ***
Warmup Instructions: 50000000
Simulation Instructions: 100000000
Number of CPUs: 1
Page size: 4096
STLB ideal mode: l1pref
STLB ideal fill: on
Core 0: /data2/zcq/champsim_traces_xsbench/xs.XXL100nuclide-648B.champsimtrace.xz
VBerti Prefetcher
BERTI HASH ENTANGLING
BERTI IP MASK ffff
Off-chip DRAM Size: 16 GiB Channels: 1 Width: 64-bit Data Rate: 3205 MT/s
Warmup halting CPU 0 at instruction 50000005 cycle 36835399 for remainder of phase
Warmup finished CPU 0 instructions: 50000005 cycles: 36835399 cumulative IPC: 1.357 (Simulation time: 00 hr 06 min 37 sec)
Warmup complete CPU 0 instructions: 50000005 cycles: 36835399 cumulative IPC: 1.357 (Simulation time: 00 hr 06 min 37 sec)
Simulation finished CPU 0 instructions: 100000001 cycles: 691094149 cumulative IPC: 0.1447 (Simulation time: 01 hr 16 min 51 sec)
Simulation complete CPU 0 instructions: 100000001 cycles: 691094149 cumulative IPC: 0.1447 (Simulation time: 01 hr 16 min 51 sec)

ChampSim completed all CPUs

=== Simulation ===
CPU 0 runs /data2/zcq/champsim_traces_xsbench/xs.XXL100nuclide-648B.champsimtrace.xz

Region of Interest Statistics

CPU 0 cumulative IPC: 0.1447 instructions: 100000001 cycles: 691094149
CPU 0 Branch Prediction Accuracy: 87.26% MPKI: 21.49 Average ROB Occupancy at Mispredict: 25.77
Branch type MPKI
BRANCH_DIRECT_JUMP: 0
BRANCH_INDIRECT: 0
BRANCH_CONDITIONAL: 21.49
BRANCH_DIRECT_CALL: 0
BRANCH_INDIRECT_CALL: 0
BRANCH_RETURN: 0

cpu0->cpu0_STLB TOTAL        ACCESS:    3984018 HIT:     126395 MISS:    3857623 MSHR_MERGE:          0
cpu0->cpu0_STLB LOAD         ACCESS:    3984018 HIT:     126395 MISS:    3857623 MSHR_MERGE:          0
cpu0->cpu0_STLB RFO          ACCESS:          0 HIT:          0 MISS:          0 MSHR_MERGE:          0
cpu0->cpu0_STLB PREFETCH     ACCESS:          0 HIT:          0 MISS:          0 MSHR_MERGE:          0
cpu0->cpu0_STLB WRITE        ACCESS:          0 HIT:          0 MISS:          0 MSHR_MERGE:          0
cpu0->cpu0_STLB TRANSLATION  ACCESS:          0 HIT:          0 MISS:          0 MSHR_MERGE:          0
cpu0->cpu0_STLB PREFETCH REQUESTED:          0 ISSUED:          0 USEFUL:          0 USELESS:          0 LATE:          0
cpu0->cpu0_STLB AVERAGE MISS LATENCY: 174.9 cycles
cpu0->cpu0_L2C TOTAL        ACCESS:   10623368 HIT:    1481969 MISS:    9141399 MSHR_MERGE:       8833
cpu0->cpu0_L2C LOAD         ACCESS:    5974714 HIT:     196903 MISS:    5777811 MSHR_MERGE:          0
cpu0->cpu0_L2C RFO          ACCESS:      22186 HIT:      21576 MISS:        610 MSHR_MERGE:          0
cpu0->cpu0_L2C PREFETCH     ACCESS:    1281713 HIT:    1050961 MISS:     230752 MSHR_MERGE:       8833
cpu0->cpu0_L2C WRITE        ACCESS:      26316 HIT:      26275 MISS:         41 MSHR_MERGE:          0
cpu0->cpu0_L2C TRANSLATION  ACCESS:    3318439 HIT:     186254 MISS:    3132185 MSHR_MERGE:          0
cpu0->cpu0_L2C PREFETCH REQUESTED:     340270 ISSUED:     340270 USEFUL:      13594 USELESS:     136319 LATE:          0
cpu0->cpu0_L2C AVERAGE MISS LATENCY: 149.7 cycles
cpu0->cpu0_L1I TOTAL        ACCESS:      21487 HIT:      21487 MISS:          0 MSHR_MERGE:          0
cpu0->cpu0_L1I LOAD         ACCESS:      21487 HIT:      21487 MISS:          0 MSHR_MERGE:          0
cpu0->cpu0_L1I RFO          ACCESS:          0 HIT:          0 MISS:          0 MSHR_MERGE:          0
cpu0->cpu0_L1I PREFETCH     ACCESS:          0 HIT:          0 MISS:          0 MSHR_MERGE:          0
cpu0->cpu0_L1I WRITE        ACCESS:          0 HIT:          0 MISS:          0 MSHR_MERGE:          0
cpu0->cpu0_L1I TRANSLATION  ACCESS:          0 HIT:          0 MISS:          0 MSHR_MERGE:          0
cpu0->cpu0_L1I PREFETCH REQUESTED:          0 ISSUED:          0 USEFUL:          0 USELESS:          0 LATE:          0
cpu0->cpu0_L1I AVERAGE MISS LATENCY: - cycles
cpu0->cpu0_L1D TOTAL        ACCESS:   21909454 HIT:    9714507 MISS:   12194947 MSHR_MERGE:    1938156
cpu0->cpu0_L1D LOAD         ACCESS:    9561159 HIT:    3487212 MISS:    6073947 MSHR_MERGE:      99233
cpu0->cpu0_L1D RFO          ACCESS:          0 HIT:          0 MISS:          0 MSHR_MERGE:          0
cpu0->cpu0_L1D PREFETCH     ACCESS:    2078747 HIT:    1137303 MISS:     941444 MSHR_MERGE:          1
cpu0->cpu0_L1D WRITE        ACCESS:    1810798 HIT:    1754087 MISS:      56711 MSHR_MERGE:      34516
cpu0->cpu0_L1D TRANSLATION  ACCESS:    8458750 HIT:    3335905 MISS:    5122845 MSHR_MERGE:    1804406
cpu0->cpu0_L1D PREFETCH REQUESTED:    2374724 ISSUED:    2078747 USEFUL:      35915 USELESS:      44729 LATE:          0
cpu0->cpu0_L1D AVERAGE MISS LATENCY: 152.3 cycles
cpu0->cpu0_ITLB TOTAL        ACCESS:      17411 HIT:      17411 MISS:          0 MSHR_MERGE:          0
cpu0->cpu0_ITLB LOAD         ACCESS:      17411 HIT:      17411 MISS:          0 MSHR_MERGE:          0
cpu0->cpu0_ITLB RFO          ACCESS:          0 HIT:          0 MISS:          0 MSHR_MERGE:          0
cpu0->cpu0_ITLB PREFETCH     ACCESS:          0 HIT:          0 MISS:          0 MSHR_MERGE:          0
cpu0->cpu0_ITLB WRITE        ACCESS:          0 HIT:          0 MISS:          0 MSHR_MERGE:          0
cpu0->cpu0_ITLB TRANSLATION  ACCESS:          0 HIT:          0 MISS:          0 MSHR_MERGE:          0
cpu0->cpu0_ITLB PREFETCH REQUESTED:          0 ISSUED:          0 USEFUL:          0 USELESS:          0 LATE:          0
cpu0->cpu0_ITLB AVERAGE MISS LATENCY: - cycles
cpu0->cpu0_DTLB TOTAL        ACCESS:   12807319 HIT:    8620479 MISS:    4186840 MSHR_MERGE:     202822
cpu0->cpu0_DTLB LOAD         ACCESS:   12807319 HIT:    8620479 MISS:    4186840 MSHR_MERGE:     202822
cpu0->cpu0_DTLB RFO          ACCESS:          0 HIT:          0 MISS:          0 MSHR_MERGE:          0
cpu0->cpu0_DTLB PREFETCH     ACCESS:          0 HIT:          0 MISS:          0 MSHR_MERGE:          0
cpu0->cpu0_DTLB WRITE        ACCESS:          0 HIT:          0 MISS:          0 MSHR_MERGE:          0
cpu0->cpu0_DTLB TRANSLATION  ACCESS:          0 HIT:          0 MISS:          0 MSHR_MERGE:          0
cpu0->cpu0_DTLB PREFETCH REQUESTED:          0 ISSUED:          0 USEFUL:          0 USELESS:          0 LATE:          0
cpu0->cpu0_DTLB AVERAGE MISS LATENCY: 175.3 cycles
cpu0->LLC TOTAL        ACCESS:    9134953 HIT:    3076597 MISS:    6058356 MSHR_MERGE:          0
cpu0->LLC LOAD         ACCESS:    5777811 HIT:    1333172 MISS:    4444639 MSHR_MERGE:          0
cpu0->LLC RFO          ACCESS:        610 HIT:        609 MISS:          1 MSHR_MERGE:          0
cpu0->LLC PREFETCH     ACCESS:     221919 HIT:      86973 MISS:     134946 MSHR_MERGE:          0
cpu0->LLC WRITE        ACCESS:       2428 HIT:       2388 MISS:         40 MSHR_MERGE:          0
cpu0->LLC TRANSLATION  ACCESS:    3132185 HIT:    1653455 MISS:    1478730 MSHR_MERGE:          0
cpu0->LLC PREFETCH REQUESTED:          0 ISSUED:          0 USEFUL:          0 USELESS:          0 LATE:          0
cpu0->LLC AVERAGE MISS LATENCY: 201.6 cycles

DRAM Statistics

Channel 0 RQ ROW_BUFFER_HIT:      30403
  ROW_BUFFER_MISS:    6027912
  AVG DBUS CONGESTED CYCLE: 2.934
Channel 0 WQ ROW_BUFFER_HIT:          8
  ROW_BUFFER_MISS:         34
  FULL:          0
Channel 0 REFRESHES ISSUED:      57591

[ROI Statistics]
[System Configuration]
num_cpus 1
cpu_freq 4000
fetch_width 6
decode_width 6
dispatch_width 6
execute_width 6
lq_width 2
sq_width 2
retire_width 6
scheduler_size 128
branch_mispredict_penalty 15
rob_size 352
lq_size 128
sq_size 72
ifetch_buffer_size 64
decode_buffer_size 32
dispatch_buffer_size 32
register_file_size 288
decode_latency 1
dispatch_latency 1
schedule_latency 1
execute_latency 1
page_size 4096
block_size 64
core_0_itlb_set 16
core_0_itlb_way 4
core_0_itlb_rq_size 16
core_0_itlb_wq_size 16
core_0_itlb_pq_size 0
core_0_itlb_mshr_size 8
core_0_itlb_hit_latency 1
core_0_itlb_fill_latency 1
core_0_itlb_max_tag_check 2
core_0_itlb_max_fill 2
core_0_dtlb_set 16
core_0_dtlb_way 4
core_0_dtlb_rq_size 16
core_0_dtlb_wq_size 16
core_0_dtlb_pq_size 0
core_0_dtlb_mshr_size 8
core_0_dtlb_hit_latency 1
core_0_dtlb_fill_latency 1
core_0_dtlb_max_tag_check 2
core_0_dtlb_max_fill 2
core_0_stlb_set 128
core_0_stlb_way 12
core_0_stlb_rq_size 32
core_0_stlb_wq_size 32
core_0_stlb_pq_size 0
core_0_stlb_mshr_size 16
core_0_stlb_hit_latency 4
core_0_stlb_fill_latency 4
core_0_stlb_max_tag_check 1
core_0_stlb_max_fill 1
core_0_l1i_set 64
core_0_l1i_way 8
core_0_l1i_rq_size 64
core_0_l1i_wq_size 64
core_0_l1i_pq_size 32
core_0_l1i_mshr_size 8
core_0_l1i_hit_latency 2
core_0_l1i_fill_latency 2
core_0_l1i_max_tag_check 2
core_0_l1i_max_fill 2
core_0_l1d_set 64
core_0_l1d_way 12
core_0_l1d_rq_size 64
core_0_l1d_wq_size 64
core_0_l1d_pq_size 8
core_0_l1d_mshr_size 16
core_0_l1d_hit_latency 2
core_0_l1d_fill_latency 3
core_0_l1d_max_tag_check 2
core_0_l1d_max_fill 2
core_0_l2c_set 1024
core_0_l2c_way 8
core_0_l2c_rq_size 32
core_0_l2c_wq_size 32
core_0_l2c_pq_size 16
core_0_l2c_mshr_size 32
core_0_l2c_hit_latency 5
core_0_l2c_fill_latency 5
core_0_l2c_max_tag_check 1
core_0_l2c_max_fill 1
llc_set 2048
llc_way 16
llc_rq_size 32
llc_wq_size 32
llc_pq_size 32
llc_mshr_size 64
llc_hit_latency 10
llc_fill_latency 10
llc_max_tag_check 1
llc_max_fill 1
dram_channels 1
dram_ranks 1
dram_bankgroups 8
dram_banks 4
dram_rows 65536
dram_columns 1024
dram_channel_width 8
dram_rq_size 64
dram_wq_size 64
dram_size 17179869184
core_0_itlb_prefetcher no
core_0_dtlb_prefetcher no
core_0_stlb_prefetcher no
core_0_l1i_prefetcher next_line
core_0_l1d_prefetcher vberti
core_0_l2c_prefetcher ip_stride
llc_prefetcher no
llc_replacement drrip

Core_0_instructions 100000001
Core_0_cycles 691094149
Core_0_IPC 0.144698
Core_0_branch_prediction_accuracy 87.2612
Core_0_branch_MPKI 21.4873
Core_0_average_ROB_occupancy_at_mispredict 25.772

Core_0_ITLB_total_access 17411
Core_0_ITLB_total_hit 17411
Core_0_ITLB_total_miss 0
Core_0_ITLB_total_MPKI 0
Core_0_ITLB_total_miss_rate 0
Core_0_ITLB_demand_access 17411
Core_0_ITLB_demand_hit 17411
Core_0_ITLB_demand_miss 0
Core_0_ITLB_demand_MPKI 0
Core_0_ITLB_demand_miss_rate 0
Core_0_ITLB_load_access 17411
Core_0_ITLB_load_hit 17411
Core_0_ITLB_load_miss 0
Core_0_ITLB_load_MPKI 0
Core_0_ITLB_load_miss_rate 0
Core_0_ITLB_rfo_access 0
Core_0_ITLB_rfo_hit 0
Core_0_ITLB_rfo_miss 0
Core_0_ITLB_rfo_MPKI 0
Core_0_ITLB_rfo_miss_rate 0
Core_0_ITLB_prefetch_access 0
Core_0_ITLB_prefetch_hit 0
Core_0_ITLB_prefetch_miss 0
Core_0_ITLB_prefetch_MPKI 0
Core_0_ITLB_prefetch_miss_rate 0
Core_0_ITLB_writeback_access 0
Core_0_ITLB_writeback_hit 0
Core_0_ITLB_writeback_miss 0
Core_0_ITLB_writeback_MPKI 0
Core_0_ITLB_writeback_miss_rate 0
Core_0_ITLB_prefetch_requested 0
Core_0_ITLB_prefetch_issued 0
Core_0_ITLB_prefetch_useful 0
Core_0_ITLB_prefetch_useless 0
Core_0_ITLB_prefetch_late 0
Core_0_ITLB_prefetch_accuracy 0
Core_0_ITLB_prefetch_coverage 0
Core_0_ITLB_total_eviction 0

Core_0_DTLB_total_access 12807319
Core_0_DTLB_total_hit 8620479
Core_0_DTLB_total_miss 4186840
Core_0_DTLB_total_MPKI 41.8684
Core_0_DTLB_total_miss_rate 0.32691
Core_0_DTLB_demand_access 12807319
Core_0_DTLB_demand_hit 8620479
Core_0_DTLB_demand_miss 4186840
Core_0_DTLB_demand_MPKI 41.8684
Core_0_DTLB_demand_miss_rate 0.32691
Core_0_DTLB_load_access 12807319
Core_0_DTLB_load_hit 8620479
Core_0_DTLB_load_miss 4186840
Core_0_DTLB_load_MPKI 41.8684
Core_0_DTLB_load_miss_rate 0.32691
Core_0_DTLB_rfo_access 0
Core_0_DTLB_rfo_hit 0
Core_0_DTLB_rfo_miss 0
Core_0_DTLB_rfo_MPKI 0
Core_0_DTLB_rfo_miss_rate 0
Core_0_DTLB_prefetch_access 0
Core_0_DTLB_prefetch_hit 0
Core_0_DTLB_prefetch_miss 0
Core_0_DTLB_prefetch_MPKI 0
Core_0_DTLB_prefetch_miss_rate 0
Core_0_DTLB_writeback_access 0
Core_0_DTLB_writeback_hit 0
Core_0_DTLB_writeback_miss 0
Core_0_DTLB_writeback_MPKI 0
Core_0_DTLB_writeback_miss_rate 0
Core_0_DTLB_prefetch_requested 0
Core_0_DTLB_prefetch_issued 0
Core_0_DTLB_prefetch_useful 0
Core_0_DTLB_prefetch_useless 0
Core_0_DTLB_prefetch_late 0
Core_0_DTLB_prefetch_accuracy 0
Core_0_DTLB_prefetch_coverage 0
Core_0_DTLB_total_eviction 3984026

Core_0_STLB_total_access 3984018
Core_0_STLB_total_hit 126395
Core_0_STLB_total_miss 3857623
Core_0_STLB_total_MPKI 38.5762
Core_0_STLB_total_miss_rate 0.968274
Core_0_STLB_demand_access 3984018
Core_0_STLB_demand_hit 126395
Core_0_STLB_demand_miss 3857623
Core_0_STLB_demand_MPKI 38.5762
Core_0_STLB_demand_miss_rate 0.968274
Core_0_STLB_load_access 3984018
Core_0_STLB_load_hit 126395
Core_0_STLB_load_miss 3857623
Core_0_STLB_load_MPKI 38.5762
Core_0_STLB_load_miss_rate 0.968274
Core_0_STLB_rfo_access 0
Core_0_STLB_rfo_hit 0
Core_0_STLB_rfo_miss 0
Core_0_STLB_rfo_MPKI 0
Core_0_STLB_rfo_miss_rate 0
Core_0_STLB_prefetch_access 0
Core_0_STLB_prefetch_hit 0
Core_0_STLB_prefetch_miss 0
Core_0_STLB_prefetch_MPKI 0
Core_0_STLB_prefetch_miss_rate 0
Core_0_STLB_writeback_access 0
Core_0_STLB_writeback_hit 0
Core_0_STLB_writeback_miss 0
Core_0_STLB_writeback_MPKI 0
Core_0_STLB_writeback_miss_rate 0
Core_0_STLB_prefetch_requested 0
Core_0_STLB_prefetch_issued 0
Core_0_STLB_prefetch_useful 0
Core_0_STLB_prefetch_useless 0
Core_0_STLB_prefetch_late 0
Core_0_STLB_prefetch_accuracy 0
Core_0_STLB_prefetch_coverage 0
Core_0_STLB_total_eviction 3859362

Core_0_L1I_total_access 21487
Core_0_L1I_total_hit 21487
Core_0_L1I_total_miss 0
Core_0_L1I_total_MPKI 0
Core_0_L1I_total_miss_rate 0
Core_0_L1I_demand_access 21487
Core_0_L1I_demand_hit 21487
Core_0_L1I_demand_miss 0
Core_0_L1I_demand_MPKI 0
Core_0_L1I_demand_miss_rate 0
Core_0_L1I_load_access 21487
Core_0_L1I_load_hit 21487
Core_0_L1I_load_miss 0
Core_0_L1I_load_MPKI 0
Core_0_L1I_load_miss_rate 0
Core_0_L1I_rfo_access 0
Core_0_L1I_rfo_hit 0
Core_0_L1I_rfo_miss 0
Core_0_L1I_rfo_MPKI 0
Core_0_L1I_rfo_miss_rate 0
Core_0_L1I_prefetch_access 0
Core_0_L1I_prefetch_hit 0
Core_0_L1I_prefetch_miss 0
Core_0_L1I_prefetch_MPKI 0
Core_0_L1I_prefetch_miss_rate 0
Core_0_L1I_writeback_access 0
Core_0_L1I_writeback_hit 0
Core_0_L1I_writeback_miss 0
Core_0_L1I_writeback_MPKI 0
Core_0_L1I_writeback_miss_rate 0
Core_0_L1I_prefetch_requested 0
Core_0_L1I_prefetch_issued 0
Core_0_L1I_prefetch_useful 0
Core_0_L1I_prefetch_useless 0
Core_0_L1I_prefetch_late 0
Core_0_L1I_prefetch_accuracy 0
Core_0_L1I_prefetch_coverage 0
Core_0_L1I_total_eviction 0

Core_0_L1D_total_access 13450704
Core_0_L1D_total_hit 6378602
Core_0_L1D_total_miss 7072102
Core_0_L1D_total_MPKI 70.721
Core_0_L1D_total_miss_rate 0.525779
Core_0_L1D_demand_access 9561159
Core_0_L1D_demand_hit 3487212
Core_0_L1D_demand_miss 6073947
Core_0_L1D_demand_MPKI 60.7395
Core_0_L1D_demand_miss_rate 0.635273
Core_0_L1D_load_access 9561159
Core_0_L1D_load_hit 3487212
Core_0_L1D_load_miss 6073947
Core_0_L1D_load_MPKI 60.7395
Core_0_L1D_load_miss_rate 0.635273
Core_0_L1D_rfo_access 0
Core_0_L1D_rfo_hit 0
Core_0_L1D_rfo_miss 0
Core_0_L1D_rfo_MPKI 0
Core_0_L1D_rfo_miss_rate 0
Core_0_L1D_prefetch_access 2078747
Core_0_L1D_prefetch_hit 1137303
Core_0_L1D_prefetch_miss 941444
Core_0_L1D_prefetch_MPKI 9.41444
Core_0_L1D_prefetch_miss_rate 0.45289
Core_0_L1D_writeback_access 1810798
Core_0_L1D_writeback_hit 1754087
Core_0_L1D_writeback_miss 56711
Core_0_L1D_writeback_MPKI 0.56711
Core_0_L1D_writeback_miss_rate 0.0313182
Core_0_L1D_prefetch_requested 2374724
Core_0_L1D_prefetch_issued 2078747
Core_0_L1D_prefetch_useful 35915
Core_0_L1D_prefetch_useless 44729
Core_0_L1D_prefetch_late 0
Core_0_L1D_prefetch_accuracy 0.0172772
Core_0_L1D_prefetch_coverage 0.0058782
Core_0_L1D_total_eviction 9396006

Core_0_L2C_total_access 7304929
Core_0_L2C_total_hit 1295715
Core_0_L2C_total_miss 6009214
Core_0_L2C_total_MPKI 60.0921
Core_0_L2C_total_miss_rate 0.822625
Core_0_L2C_demand_access 5996900
Core_0_L2C_demand_hit 218479
Core_0_L2C_demand_miss 5778421
Core_0_L2C_demand_MPKI 57.7842
Core_0_L2C_demand_miss_rate 0.963568
Core_0_L2C_load_access 5974714
Core_0_L2C_load_hit 196903
Core_0_L2C_load_miss 5777811
Core_0_L2C_load_MPKI 57.7781
Core_0_L2C_load_miss_rate 0.967044
Core_0_L2C_rfo_access 22186
Core_0_L2C_rfo_hit 21576
Core_0_L2C_rfo_miss 610
Core_0_L2C_rfo_MPKI 0.0061
Core_0_L2C_rfo_miss_rate 0.0274948
Core_0_L2C_prefetch_access 1281713
Core_0_L2C_prefetch_hit 1050961
Core_0_L2C_prefetch_miss 230752
Core_0_L2C_prefetch_MPKI 2.30752
Core_0_L2C_prefetch_miss_rate 0.180034
Core_0_L2C_writeback_access 26316
Core_0_L2C_writeback_hit 26275
Core_0_L2C_writeback_miss 41
Core_0_L2C_writeback_MPKI 0.00041
Core_0_L2C_writeback_miss_rate 0.00155799
Core_0_L2C_prefetch_requested 340270
Core_0_L2C_prefetch_issued 340270
Core_0_L2C_prefetch_useful 13594
Core_0_L2C_prefetch_useless 136319
Core_0_L2C_prefetch_late 0
Core_0_L2C_prefetch_accuracy 0.0399506
Core_0_L2C_prefetch_coverage 0.00234702
Core_0_L2C_total_eviction 9132566

Core_0_LLC_total_access 6002768
Core_0_LLC_total_hit 1423142
Core_0_LLC_total_miss 4579626
Core_0_LLC_total_MPKI 45.7963
Core_0_LLC_total_miss_rate 0.762919
Core_0_LLC_demand_access 5778421
Core_0_LLC_demand_hit 1333781
Core_0_LLC_demand_miss 4444640
Core_0_LLC_demand_MPKI 44.4464
Core_0_LLC_demand_miss_rate 0.769179
Core_0_LLC_load_access 5777811
Core_0_LLC_load_hit 1333172
Core_0_LLC_load_miss 4444639
Core_0_LLC_load_MPKI 44.4464
Core_0_LLC_load_miss_rate 0.76926
Core_0_LLC_rfo_access 610
Core_0_LLC_rfo_hit 609
Core_0_LLC_rfo_miss 1
Core_0_LLC_rfo_MPKI 1e-05
Core_0_LLC_rfo_miss_rate 0.00163934
Core_0_LLC_prefetch_access 221919
Core_0_LLC_prefetch_hit 86973
Core_0_LLC_prefetch_miss 134946
Core_0_LLC_prefetch_MPKI 1.34946
Core_0_LLC_prefetch_miss_rate 0.608087
Core_0_LLC_writeback_access 2428
Core_0_LLC_writeback_hit 2388
Core_0_LLC_writeback_miss 40
Core_0_LLC_writeback_MPKI 0.0004
Core_0_LLC_writeback_miss_rate 0.0164745
Core_0_LLC_prefetch_requested 0
Core_0_LLC_prefetch_issued 0
Core_0_LLC_prefetch_useful 0
Core_0_LLC_prefetch_useless 0
Core_0_LLC_prefetch_late 0
Core_0_LLC_prefetch_accuracy 0
Core_0_LLC_prefetch_coverage 0
Core_0_LLC_total_eviction 6058356

[DRAM Statistics]
Channel_0_RQ_row_buffer_hit 30403
Channel_0_RQ_row_buffer_miss 6027912
Channel_0_WQ_row_buffer_hit 8
Channel_0_WQ_row_buffer_miss 34
Channel_0_WQ_full 0
Channel_0_dbus_congested 6342042
DRAM_total_RQ_row_buffer_hit 30403
DRAM_total_RQ_row_buffer_miss 6027912
DRAM_total_WQ_row_buffer_hit 8
DRAM_total_WQ_row_buffer_miss 34
DRAM_total_WQ_full 0
DRAM_total_dbus_congested 6342042
DRAM_avg_congested_cycle 2.93441

======STLB miss causes ========
Core_0_STLB_miss_cause_breakdown
Core_0_STLB_cause_Demand_Data_miss 3857623
Core_0_STLB_cause_Demand_Data_miss_rate 0.968274
Core_0_STLB_cause_Demand_Instruction_miss 0
Core_0_STLB_cause_Demand_Instruction_miss_rate 0
Core_0_STLB_cause_L1D_Prefetch_miss 0
Core_0_STLB_cause_L1D_Prefetch_miss_rate 0
Core_0_STLB_cause_L1I_Prefetch_miss 0
Core_0_STLB_cause_L1I_Prefetch_miss_rate 0
Core_0_STLB_cause_Other_miss 0
Core_0_STLB_cause_Other_miss_rate 0
Core_0_STLB_Demand_miss 3857623
Core_0_STLB_Demand_miss_rate 0.968274
Core_0_STLB_L1D_Prefetch_miss 0
Core_0_STLB_L1D_Prefetch_miss_rate 0
Core_0_STLB_Other_miss 0
Core_0_STLB_Other_miss_rate 0
BERTI TO_L1: 1437386 TO_L2: 1620936 TO_L2_BC_MSHR: 3
BERTI AVG_LAT: 119.845 NUM_TRACK_LATENCY: 9086300 NUM_CANT_TRACK_LATENCY: 0
BERTI CROSS_PAGE 306970 NO_CROSS_PAGE: 2751352
BERTI FOUND_BERTI: 12691720 NO_FOUND_BERTI: 3786929
BERTI AVERAGE_ISSUED: 2.92222
