[VMEM] WARNING: physical memory size is smaller than virtual memory size.

*** ChampSim Multicore Out-of-Order Simulator ***
Warmup Instructions: 50000000
Simulation Instructions: 100000000
Number of CPUs: 1
Page size: 4096
STLB ideal mode: l1pref
STLB ideal fill: on
Core 0: /data2/zcq/champsim_traces_xsbench/xs.XL64hash-49B.champsimtrace.xz
VBerti Prefetcher
BERTI HASH ENTANGLING
BERTI IP MASK ffff
Off-chip DRAM Size: 16 GiB Channels: 1 Width: 64-bit Data Rate: 3205 MT/s
Warmup halting CPU 0 at instruction 50000005 cycle 12584143 for remainder of phase
Warmup finished CPU 0 instructions: 50000005 cycles: 12584143 cumulative IPC: 3.973 (Simulation time: 00 hr 02 min 41 sec)
Warmup complete CPU 0 instructions: 50000005 cycles: 12584143 cumulative IPC: 3.973 (Simulation time: 00 hr 02 min 41 sec)
Simulation finished CPU 0 instructions: 100000002 cycles: 241501871 cumulative IPC: 0.4141 (Simulation time: 00 hr 24 min 48 sec)
Simulation complete CPU 0 instructions: 100000002 cycles: 241501871 cumulative IPC: 0.4141 (Simulation time: 00 hr 24 min 48 sec)

ChampSim completed all CPUs

=== Simulation ===
CPU 0 runs /data2/zcq/champsim_traces_xsbench/xs.XL64hash-49B.champsimtrace.xz

Region of Interest Statistics

CPU 0 cumulative IPC: 0.4141 instructions: 100000002 cycles: 241501871
CPU 0 Branch Prediction Accuracy: 92.92% MPKI: 17.05 Average ROB Occupancy at Mispredict: 34.83
Branch type MPKI
BRANCH_DIRECT_JUMP: 0
BRANCH_INDIRECT: 0
BRANCH_CONDITIONAL: 17.05
BRANCH_DIRECT_CALL: 0
BRANCH_INDIRECT_CALL: 1e-05
BRANCH_RETURN: 0.00049

cpu0->cpu0_STLB TOTAL        ACCESS:    1367006 HIT:    1093827 MISS:     273179 MSHR_MERGE:          0
cpu0->cpu0_STLB LOAD         ACCESS:    1367006 HIT:    1093827 MISS:     273179 MSHR_MERGE:          0
cpu0->cpu0_STLB RFO          ACCESS:          0 HIT:          0 MISS:          0 MSHR_MERGE:          0
cpu0->cpu0_STLB PREFETCH     ACCESS:          0 HIT:          0 MISS:          0 MSHR_MERGE:          0
cpu0->cpu0_STLB WRITE        ACCESS:          0 HIT:          0 MISS:          0 MSHR_MERGE:          0
cpu0->cpu0_STLB TRANSLATION  ACCESS:          0 HIT:          0 MISS:          0 MSHR_MERGE:          0
cpu0->cpu0_STLB PREFETCH REQUESTED:          0 ISSUED:          0 USEFUL:          0 USELESS:          0 LATE:          0
cpu0->cpu0_STLB AVERAGE MISS LATENCY: 19.88 cycles
cpu0->cpu0_L2C TOTAL        ACCESS:    8866571 HIT:    6464421 MISS:    2402150 MSHR_MERGE:     245684
cpu0->cpu0_L2C LOAD         ACCESS:    2223877 HIT:     661686 MISS:    1562191 MSHR_MERGE:      38091
cpu0->cpu0_L2C RFO          ACCESS:      96587 HIT:      57810 MISS:      38777 MSHR_MERGE:       5886
cpu0->cpu0_L2C PREFETCH     ACCESS:    5350825 HIT:    4553880 MISS:     796945 MSHR_MERGE:     201707
cpu0->cpu0_L2C WRITE        ACCESS:    1022116 HIT:    1022087 MISS:         29 MSHR_MERGE:          0
cpu0->cpu0_L2C TRANSLATION  ACCESS:     173166 HIT:     168958 MISS:       4208 MSHR_MERGE:          0
cpu0->cpu0_L2C PREFETCH REQUESTED:    1432713 ISSUED:    1390843 USEFUL:     185274 USELESS:       4176 LATE:      35934
cpu0->cpu0_L2C AVERAGE MISS LATENCY: 184.1 cycles
cpu0->cpu0_L1I TOTAL        ACCESS:    1985585 HIT:    1985585 MISS:          0 MSHR_MERGE:          0
cpu0->cpu0_L1I LOAD         ACCESS:    1985585 HIT:    1985585 MISS:          0 MSHR_MERGE:          0
cpu0->cpu0_L1I RFO          ACCESS:          0 HIT:          0 MISS:          0 MSHR_MERGE:          0
cpu0->cpu0_L1I PREFETCH     ACCESS:          0 HIT:          0 MISS:          0 MSHR_MERGE:          0
cpu0->cpu0_L1I WRITE        ACCESS:          0 HIT:          0 MISS:          0 MSHR_MERGE:          0
cpu0->cpu0_L1I TRANSLATION  ACCESS:          0 HIT:          0 MISS:          0 MSHR_MERGE:          0
cpu0->cpu0_L1I PREFETCH REQUESTED:          0 ISSUED:          0 USEFUL:          0 USELESS:          0 LATE:          0
cpu0->cpu0_L1I AVERAGE MISS LATENCY: - cycles
cpu0->cpu0_L1D TOTAL        ACCESS:   64114140 HIT:   56531975 MISS:    7582165 MSHR_MERGE:    1110567
cpu0->cpu0_L1D LOAD         ACCESS:   20575917 HIT:   17705225 MISS:    2870692 MSHR_MERGE:     646813
cpu0->cpu0_L1D RFO          ACCESS:          0 HIT:          0 MISS:          0 MSHR_MERGE:          0
cpu0->cpu0_L1D PREFETCH     ACCESS:   30034937 HIT:   26024180 MISS:    4010757 MSHR_MERGE:      32791
cpu0->cpu0_L1D WRITE        ACCESS:   12957609 HIT:   12430540 MISS:     527069 MSHR_MERGE:     430482
cpu0->cpu0_L1D TRANSLATION  ACCESS:     545677 HIT:     372030 MISS:     173647 MSHR_MERGE:        481
cpu0->cpu0_L1D PREFETCH REQUESTED:  129076961 ISSUED:   30034936 USEFUL:     573237 USELESS:      21619 LATE:      18926
cpu0->cpu0_L1D AVERAGE MISS LATENCY: 127.7 cycles
cpu0->cpu0_ITLB TOTAL        ACCESS:    1766023 HIT:    1766023 MISS:          0 MSHR_MERGE:          0
cpu0->cpu0_ITLB LOAD         ACCESS:    1766023 HIT:    1766023 MISS:          0 MSHR_MERGE:          0
cpu0->cpu0_ITLB RFO          ACCESS:          0 HIT:          0 MISS:          0 MSHR_MERGE:          0
cpu0->cpu0_ITLB PREFETCH     ACCESS:          0 HIT:          0 MISS:          0 MSHR_MERGE:          0
cpu0->cpu0_ITLB WRITE        ACCESS:          0 HIT:          0 MISS:          0 MSHR_MERGE:          0
cpu0->cpu0_ITLB TRANSLATION  ACCESS:          0 HIT:          0 MISS:          0 MSHR_MERGE:          0
cpu0->cpu0_ITLB PREFETCH REQUESTED:          0 ISSUED:          0 USEFUL:          0 USELESS:          0 LATE:          0
cpu0->cpu0_ITLB AVERAGE MISS LATENCY: - cycles
cpu0->cpu0_DTLB TOTAL        ACCESS:   51609337 HIT:   49722891 MISS:    1886446 MSHR_MERGE:     519440
cpu0->cpu0_DTLB LOAD         ACCESS:   51609337 HIT:   49722891 MISS:    1886446 MSHR_MERGE:     519440
cpu0->cpu0_DTLB RFO          ACCESS:          0 HIT:          0 MISS:          0 MSHR_MERGE:          0
cpu0->cpu0_DTLB PREFETCH     ACCESS:          0 HIT:          0 MISS:          0 MSHR_MERGE:          0
cpu0->cpu0_DTLB WRITE        ACCESS:          0 HIT:          0 MISS:          0 MSHR_MERGE:          0
cpu0->cpu0_DTLB TRANSLATION  ACCESS:          0 HIT:          0 MISS:          0 MSHR_MERGE:          0
cpu0->cpu0_DTLB PREFETCH REQUESTED:          0 ISSUED:          0 USEFUL:          0 USELESS:          0 LATE:          0
cpu0->cpu0_DTLB AVERAGE MISS LATENCY: 9.177 cycles
cpu0->LLC TOTAL        ACCESS:    3022236 HIT:     988872 MISS:    2033364 MSHR_MERGE:      20791
cpu0->LLC LOAD         ACCESS:    1524100 HIT:     418775 MISS:    1105325 MSHR_MERGE:       4415
cpu0->LLC RFO          ACCESS:      32891 HIT:      14104 MISS:      18787 MSHR_MERGE:        196
cpu0->LLC PREFETCH     ACCESS:     595219 HIT:     189886 MISS:     405333 MSHR_MERGE:      16180
cpu0->LLC WRITE        ACCESS:     865818 HIT:     365889 MISS:     499929 MSHR_MERGE:          0
cpu0->LLC TRANSLATION  ACCESS:       4208 HIT:        218 MISS:       3990 MSHR_MERGE:          0
cpu0->LLC PREFETCH REQUESTED:          0 ISSUED:          0 USEFUL:          0 USELESS:          0 LATE:          0
cpu0->LLC AVERAGE MISS LATENCY: 162.6 cycles

DRAM Statistics

Channel 0 RQ ROW_BUFFER_HIT:      26659
  ROW_BUFFER_MISS:    1485171
  AVG DBUS CONGESTED CYCLE: 8.256
Channel 0 WQ ROW_BUFFER_HIT:     185426
  ROW_BUFFER_MISS:     458254
  FULL:       1979
Channel 0 REFRESHES ISSUED:      20125

[ROI Statistics]
[System Configuration]
num_cpus 1
cpu_freq 4000
fetch_width 6
decode_width 6
dispatch_width 6
execute_width 6
lq_width 2
sq_width 2
retire_width 6
scheduler_size 128
branch_mispredict_penalty 15
rob_size 352
lq_size 128
sq_size 72
ifetch_buffer_size 64
decode_buffer_size 32
dispatch_buffer_size 32
register_file_size 288
decode_latency 1
dispatch_latency 1
schedule_latency 1
execute_latency 1
page_size 4096
block_size 64
core_0_itlb_set 16
core_0_itlb_way 4
core_0_itlb_rq_size 16
core_0_itlb_wq_size 16
core_0_itlb_pq_size 0
core_0_itlb_mshr_size 8
core_0_itlb_hit_latency 1
core_0_itlb_fill_latency 1
core_0_itlb_max_tag_check 2
core_0_itlb_max_fill 2
core_0_dtlb_set 16
core_0_dtlb_way 4
core_0_dtlb_rq_size 16
core_0_dtlb_wq_size 16
core_0_dtlb_pq_size 0
core_0_dtlb_mshr_size 8
core_0_dtlb_hit_latency 1
core_0_dtlb_fill_latency 1
core_0_dtlb_max_tag_check 2
core_0_dtlb_max_fill 2
core_0_stlb_set 128
core_0_stlb_way 12
core_0_stlb_rq_size 32
core_0_stlb_wq_size 32
core_0_stlb_pq_size 0
core_0_stlb_mshr_size 16
core_0_stlb_hit_latency 4
core_0_stlb_fill_latency 4
core_0_stlb_max_tag_check 1
core_0_stlb_max_fill 1
core_0_l1i_set 64
core_0_l1i_way 8
core_0_l1i_rq_size 64
core_0_l1i_wq_size 64
core_0_l1i_pq_size 32
core_0_l1i_mshr_size 8
core_0_l1i_hit_latency 2
core_0_l1i_fill_latency 2
core_0_l1i_max_tag_check 2
core_0_l1i_max_fill 2
core_0_l1d_set 64
core_0_l1d_way 12
core_0_l1d_rq_size 64
core_0_l1d_wq_size 64
core_0_l1d_pq_size 8
core_0_l1d_mshr_size 16
core_0_l1d_hit_latency 2
core_0_l1d_fill_latency 3
core_0_l1d_max_tag_check 2
core_0_l1d_max_fill 2
core_0_l2c_set 1024
core_0_l2c_way 8
core_0_l2c_rq_size 32
core_0_l2c_wq_size 32
core_0_l2c_pq_size 16
core_0_l2c_mshr_size 32
core_0_l2c_hit_latency 5
core_0_l2c_fill_latency 5
core_0_l2c_max_tag_check 1
core_0_l2c_max_fill 1
llc_set 2048
llc_way 16
llc_rq_size 32
llc_wq_size 32
llc_pq_size 32
llc_mshr_size 64
llc_hit_latency 10
llc_fill_latency 10
llc_max_tag_check 1
llc_max_fill 1
dram_channels 1
dram_ranks 1
dram_bankgroups 8
dram_banks 4
dram_rows 65536
dram_columns 1024
dram_channel_width 8
dram_rq_size 64
dram_wq_size 64
dram_size 17179869184
core_0_itlb_prefetcher no
core_0_dtlb_prefetcher no
core_0_stlb_prefetcher no
core_0_l1i_prefetcher next_line
core_0_l1d_prefetcher vberti
core_0_l2c_prefetcher ip_stride
llc_prefetcher no
llc_replacement drrip

Core_0_instructions 100000002
Core_0_cycles 241501871
Core_0_IPC 0.414075
Core_0_branch_prediction_accuracy 92.9238
Core_0_branch_MPKI 17.0549
Core_0_average_ROB_occupancy_at_mispredict 34.8274

Core_0_ITLB_total_access 1766023
Core_0_ITLB_total_hit 1766023
Core_0_ITLB_total_miss 0
Core_0_ITLB_total_MPKI 0
Core_0_ITLB_total_miss_rate 0
Core_0_ITLB_demand_access 1766023
Core_0_ITLB_demand_hit 1766023
Core_0_ITLB_demand_miss 0
Core_0_ITLB_demand_MPKI 0
Core_0_ITLB_demand_miss_rate 0
Core_0_ITLB_load_access 1766023
Core_0_ITLB_load_hit 1766023
Core_0_ITLB_load_miss 0
Core_0_ITLB_load_MPKI 0
Core_0_ITLB_load_miss_rate 0
Core_0_ITLB_rfo_access 0
Core_0_ITLB_rfo_hit 0
Core_0_ITLB_rfo_miss 0
Core_0_ITLB_rfo_MPKI 0
Core_0_ITLB_rfo_miss_rate 0
Core_0_ITLB_prefetch_access 0
Core_0_ITLB_prefetch_hit 0
Core_0_ITLB_prefetch_miss 0
Core_0_ITLB_prefetch_MPKI 0
Core_0_ITLB_prefetch_miss_rate 0
Core_0_ITLB_writeback_access 0
Core_0_ITLB_writeback_hit 0
Core_0_ITLB_writeback_miss 0
Core_0_ITLB_writeback_MPKI 0
Core_0_ITLB_writeback_miss_rate 0
Core_0_ITLB_prefetch_requested 0
Core_0_ITLB_prefetch_issued 0
Core_0_ITLB_prefetch_useful 0
Core_0_ITLB_prefetch_useless 0
Core_0_ITLB_prefetch_late 0
Core_0_ITLB_prefetch_accuracy 0
Core_0_ITLB_prefetch_coverage 0
Core_0_ITLB_total_eviction 0

Core_0_DTLB_total_access 51609337
Core_0_DTLB_total_hit 49722891
Core_0_DTLB_total_miss 1886446
Core_0_DTLB_total_MPKI 18.8645
Core_0_DTLB_total_miss_rate 0.0365524
Core_0_DTLB_demand_access 51609337
Core_0_DTLB_demand_hit 49722891
Core_0_DTLB_demand_miss 1886446
Core_0_DTLB_demand_MPKI 18.8645
Core_0_DTLB_demand_miss_rate 0.0365524
Core_0_DTLB_load_access 51609337
Core_0_DTLB_load_hit 49722891
Core_0_DTLB_load_miss 1886446
Core_0_DTLB_load_MPKI 18.8645
Core_0_DTLB_load_miss_rate 0.0365524
Core_0_DTLB_rfo_access 0
Core_0_DTLB_rfo_hit 0
Core_0_DTLB_rfo_miss 0
Core_0_DTLB_rfo_MPKI 0
Core_0_DTLB_rfo_miss_rate 0
Core_0_DTLB_prefetch_access 0
Core_0_DTLB_prefetch_hit 0
Core_0_DTLB_prefetch_miss 0
Core_0_DTLB_prefetch_MPKI 0
Core_0_DTLB_prefetch_miss_rate 0
Core_0_DTLB_writeback_access 0
Core_0_DTLB_writeback_hit 0
Core_0_DTLB_writeback_miss 0
Core_0_DTLB_writeback_MPKI 0
Core_0_DTLB_writeback_miss_rate 0
Core_0_DTLB_prefetch_requested 0
Core_0_DTLB_prefetch_issued 0
Core_0_DTLB_prefetch_useful 0
Core_0_DTLB_prefetch_useless 0
Core_0_DTLB_prefetch_late 0
Core_0_DTLB_prefetch_accuracy 0
Core_0_DTLB_prefetch_coverage 0
Core_0_DTLB_total_eviction 1367006

Core_0_STLB_total_access 1367006
Core_0_STLB_total_hit 1093827
Core_0_STLB_total_miss 273179
Core_0_STLB_total_MPKI 2.73179
Core_0_STLB_total_miss_rate 0.199837
Core_0_STLB_demand_access 1367006
Core_0_STLB_demand_hit 1093827
Core_0_STLB_demand_miss 273179
Core_0_STLB_demand_MPKI 2.73179
Core_0_STLB_demand_miss_rate 0.199837
Core_0_STLB_load_access 1367006
Core_0_STLB_load_hit 1093827
Core_0_STLB_load_miss 273179
Core_0_STLB_load_MPKI 2.73179
Core_0_STLB_load_miss_rate 0.199837
Core_0_STLB_rfo_access 0
Core_0_STLB_rfo_hit 0
Core_0_STLB_rfo_miss 0
Core_0_STLB_rfo_MPKI 0
Core_0_STLB_rfo_miss_rate 0
Core_0_STLB_prefetch_access 0
Core_0_STLB_prefetch_hit 0
Core_0_STLB_prefetch_miss 0
Core_0_STLB_prefetch_MPKI 0
Core_0_STLB_prefetch_miss_rate 0
Core_0_STLB_writeback_access 0
Core_0_STLB_writeback_hit 0
Core_0_STLB_writeback_miss 0
Core_0_STLB_writeback_MPKI 0
Core_0_STLB_writeback_miss_rate 0
Core_0_STLB_prefetch_requested 0
Core_0_STLB_prefetch_issued 0
Core_0_STLB_prefetch_useful 0
Core_0_STLB_prefetch_useless 0
Core_0_STLB_prefetch_late 0
Core_0_STLB_prefetch_accuracy 0
Core_0_STLB_prefetch_coverage 0
Core_0_STLB_total_eviction 278384

Core_0_L1I_total_access 1985585
Core_0_L1I_total_hit 1985585
Core_0_L1I_total_miss 0
Core_0_L1I_total_MPKI 0
Core_0_L1I_total_miss_rate 0
Core_0_L1I_demand_access 1985585
Core_0_L1I_demand_hit 1985585
Core_0_L1I_demand_miss 0
Core_0_L1I_demand_MPKI 0
Core_0_L1I_demand_miss_rate 0
Core_0_L1I_load_access 1985585
Core_0_L1I_load_hit 1985585
Core_0_L1I_load_miss 0
Core_0_L1I_load_MPKI 0
Core_0_L1I_load_miss_rate 0
Core_0_L1I_rfo_access 0
Core_0_L1I_rfo_hit 0
Core_0_L1I_rfo_miss 0
Core_0_L1I_rfo_MPKI 0
Core_0_L1I_rfo_miss_rate 0
Core_0_L1I_prefetch_access 0
Core_0_L1I_prefetch_hit 0
Core_0_L1I_prefetch_miss 0
Core_0_L1I_prefetch_MPKI 0
Core_0_L1I_prefetch_miss_rate 0
Core_0_L1I_writeback_access 0
Core_0_L1I_writeback_hit 0
Core_0_L1I_writeback_miss 0
Core_0_L1I_writeback_MPKI 0
Core_0_L1I_writeback_miss_rate 0
Core_0_L1I_prefetch_requested 0
Core_0_L1I_prefetch_issued 0
Core_0_L1I_prefetch_useful 0
Core_0_L1I_prefetch_useless 0
Core_0_L1I_prefetch_late 0
Core_0_L1I_prefetch_accuracy 0
Core_0_L1I_prefetch_coverage 0
Core_0_L1I_total_eviction 0

Core_0_L1D_total_access 63568463
Core_0_L1D_total_hit 56159945
Core_0_L1D_total_miss 7408518
Core_0_L1D_total_MPKI 74.0852
Core_0_L1D_total_miss_rate 0.116544
Core_0_L1D_demand_access 20575917
Core_0_L1D_demand_hit 17705225
Core_0_L1D_demand_miss 2870692
Core_0_L1D_demand_MPKI 28.7069
Core_0_L1D_demand_miss_rate 0.139517
Core_0_L1D_load_access 20575917
Core_0_L1D_load_hit 17705225
Core_0_L1D_load_miss 2870692
Core_0_L1D_load_MPKI 28.7069
Core_0_L1D_load_miss_rate 0.139517
Core_0_L1D_rfo_access 0
Core_0_L1D_rfo_hit 0
Core_0_L1D_rfo_miss 0
Core_0_L1D_rfo_MPKI 0
Core_0_L1D_rfo_miss_rate 0
Core_0_L1D_prefetch_access 30034937
Core_0_L1D_prefetch_hit 26024180
Core_0_L1D_prefetch_miss 4010757
Core_0_L1D_prefetch_MPKI 40.1076
Core_0_L1D_prefetch_miss_rate 0.133536
Core_0_L1D_writeback_access 12957609
Core_0_L1D_writeback_hit 12430540
Core_0_L1D_writeback_miss 527069
Core_0_L1D_writeback_MPKI 5.27069
Core_0_L1D_writeback_miss_rate 0.0406764
Core_0_L1D_prefetch_requested 129076961
Core_0_L1D_prefetch_issued 30034936
Core_0_L1D_prefetch_useful 573237
Core_0_L1D_prefetch_useless 21619
Core_0_L1D_prefetch_late 18926
Core_0_L1D_prefetch_accuracy 0.0190857
Core_0_L1D_prefetch_coverage 0.166449
Core_0_L1D_total_eviction 3088490

Core_0_L2C_total_access 8693405
Core_0_L2C_total_hit 6295463
Core_0_L2C_total_miss 2397942
Core_0_L2C_total_MPKI 23.9794
Core_0_L2C_total_miss_rate 0.275835
Core_0_L2C_demand_access 2320464
Core_0_L2C_demand_hit 719496
Core_0_L2C_demand_miss 1600968
Core_0_L2C_demand_MPKI 16.0097
Core_0_L2C_demand_miss_rate 0.689934
Core_0_L2C_load_access 2223877
Core_0_L2C_load_hit 661686
Core_0_L2C_load_miss 1562191
Core_0_L2C_load_MPKI 15.6219
Core_0_L2C_load_miss_rate 0.702463
Core_0_L2C_rfo_access 96587
Core_0_L2C_rfo_hit 57810
Core_0_L2C_rfo_miss 38777
Core_0_L2C_rfo_MPKI 0.38777
Core_0_L2C_rfo_miss_rate 0.401472
Core_0_L2C_prefetch_access 5350825
Core_0_L2C_prefetch_hit 4553880
Core_0_L2C_prefetch_miss 796945
Core_0_L2C_prefetch_MPKI 7.96945
Core_0_L2C_prefetch_miss_rate 0.148939
Core_0_L2C_writeback_access 1022116
Core_0_L2C_writeback_hit 1022087
Core_0_L2C_writeback_miss 29
Core_0_L2C_writeback_MPKI 0.00029
Core_0_L2C_writeback_miss_rate 2.83725e-05
Core_0_L2C_prefetch_requested 1432713
Core_0_L2C_prefetch_issued 1390843
Core_0_L2C_prefetch_useful 185274
Core_0_L2C_prefetch_useless 4176
Core_0_L2C_prefetch_late 35934
Core_0_L2C_prefetch_accuracy 0.13321
Core_0_L2C_prefetch_coverage 0.103723
Core_0_L2C_total_eviction 2123453

Core_0_LLC_total_access 3018028
Core_0_LLC_total_hit 988654
Core_0_LLC_total_miss 2029374
Core_0_LLC_total_MPKI 20.2937
Core_0_LLC_total_miss_rate 0.672417
Core_0_LLC_demand_access 1556991
Core_0_LLC_demand_hit 432879
Core_0_LLC_demand_miss 1124112
Core_0_LLC_demand_MPKI 11.2411
Core_0_LLC_demand_miss_rate 0.721977
Core_0_LLC_load_access 1524100
Core_0_LLC_load_hit 418775
Core_0_LLC_load_miss 1105325
Core_0_LLC_load_MPKI 11.0532
Core_0_LLC_load_miss_rate 0.725231
Core_0_LLC_rfo_access 32891
Core_0_LLC_rfo_hit 14104
Core_0_LLC_rfo_miss 18787
Core_0_LLC_rfo_MPKI 0.18787
Core_0_LLC_rfo_miss_rate 0.57119
Core_0_LLC_prefetch_access 595219
Core_0_LLC_prefetch_hit 189886
Core_0_LLC_prefetch_miss 405333
Core_0_LLC_prefetch_MPKI 4.05333
Core_0_LLC_prefetch_miss_rate 0.680981
Core_0_LLC_writeback_access 865818
Core_0_LLC_writeback_hit 365889
Core_0_LLC_writeback_miss 499929
Core_0_LLC_writeback_MPKI 4.99929
Core_0_LLC_writeback_miss_rate 0.577407
Core_0_LLC_prefetch_requested 0
Core_0_LLC_prefetch_issued 0
Core_0_LLC_prefetch_useful 0
Core_0_LLC_prefetch_useless 0
Core_0_LLC_prefetch_late 0
Core_0_LLC_prefetch_accuracy 0
Core_0_LLC_prefetch_coverage 0
Core_0_LLC_total_eviction 2012573

[DRAM Statistics]
Channel_0_RQ_row_buffer_hit 26659
Channel_0_RQ_row_buffer_miss 1485171
Channel_0_WQ_row_buffer_hit 185426
Channel_0_WQ_row_buffer_miss 458254
Channel_0_WQ_full 1979
Channel_0_dbus_congested 6350403
DRAM_total_RQ_row_buffer_hit 26659
DRAM_total_RQ_row_buffer_miss 1485171
DRAM_total_WQ_row_buffer_hit 185426
DRAM_total_WQ_row_buffer_miss 458254
DRAM_total_WQ_full 1979
DRAM_total_dbus_congested 6350403
DRAM_avg_congested_cycle 8.2564

======STLB miss causes ========
Core_0_STLB_miss_cause_breakdown
Core_0_STLB_cause_Demand_Data_miss 273179
Core_0_STLB_cause_Demand_Data_miss_rate 0.199837
Core_0_STLB_cause_Demand_Instruction_miss 0
Core_0_STLB_cause_Demand_Instruction_miss_rate 0
Core_0_STLB_cause_L1D_Prefetch_miss 0
Core_0_STLB_cause_L1D_Prefetch_miss_rate 0
Core_0_STLB_cause_L1I_Prefetch_miss 0
Core_0_STLB_cause_L1I_Prefetch_miss_rate 0
Core_0_STLB_cause_Other_miss 0
Core_0_STLB_cause_Other_miss_rate 0
Core_0_STLB_Demand_miss 273179
Core_0_STLB_Demand_miss_rate 0.199837
Core_0_STLB_L1D_Prefetch_miss 0
Core_0_STLB_L1D_Prefetch_miss_rate 0
Core_0_STLB_Other_miss 0
Core_0_STLB_Other_miss_rate 0
BERTI TO_L1: 82744713 TO_L2: 98478913 TO_L2_BC_MSHR: 8492038
BERTI AVG_LAT: 98.1377 NUM_TRACK_LATENCY: 3929309 NUM_CANT_TRACK_LATENCY: 83
BERTI CROSS_PAGE 21191369 NO_CROSS_PAGE: 160032257
BERTI FOUND_BERTI: 32117693 NO_FOUND_BERTI: 14250756
BERTI AVERAGE_ISSUED: 3.14528
