[VMEM] WARNING: physical memory size is smaller than virtual memory size.

*** ChampSim Multicore Out-of-Order Simulator ***
Warmup Instructions: 20000000
Simulation Instructions: 50000000
Number of CPUs: 1
Page size: 4096
STLB ideal mode: all
Core 0: /data0/tzh/champsim_traces/SPEC06/473.astar-359B.champsimtrace.xz
 L1D Berti prefetcher
Off-chip DRAM Size: 16 GiB Channels: 1 Width: 64-bit Data Rate: 3205 MT/s
Warmup halting CPU 0 at instruction 20000005 cycle 4880995 for remainder of phase
Warmup finished CPU 0 instructions: 20000005 cycles: 4880995 cumulative IPC: 4.098 (Simulation time: 00 hr 01 min 15 sec)
Warmup complete CPU 0 instructions: 20000005 cycles: 4880995 cumulative IPC: 4.098 (Simulation time: 00 hr 01 min 15 sec)
Simulation finished CPU 0 instructions: 50000004 cycles: 204249866 cumulative IPC: 0.2448 (Simulation time: 00 hr 16 min 57 sec)
Simulation complete CPU 0 instructions: 50000004 cycles: 204249866 cumulative IPC: 0.2448 (Simulation time: 00 hr 16 min 57 sec)

ChampSim completed all CPUs

=== Simulation ===
CPU 0 runs /data0/tzh/champsim_traces/SPEC06/473.astar-359B.champsimtrace.xz

Region of Interest Statistics

CPU 0 cumulative IPC: 0.2448 instructions: 50000004 cycles: 204249866
CPU 0 Branch Prediction Accuracy: 93.2% MPKI: 13.43 Average ROB Occupancy at Mispredict: 44.98
Branch type MPKI
BRANCH_DIRECT_JUMP: 0
BRANCH_INDIRECT: 0
BRANCH_CONDITIONAL: 13.42
BRANCH_DIRECT_CALL: 0
BRANCH_INDIRECT_CALL: 0.00054
BRANCH_RETURN: 0

cpu0->cpu0_STLB TOTAL        ACCESS:    1675102 HIT:    1675102 MISS:          0 MSHR_MERGE:          0
cpu0->cpu0_STLB LOAD         ACCESS:    1675102 HIT:    1675102 MISS:          0 MSHR_MERGE:          0
cpu0->cpu0_STLB RFO          ACCESS:          0 HIT:          0 MISS:          0 MSHR_MERGE:          0
cpu0->cpu0_STLB PREFETCH     ACCESS:          0 HIT:          0 MISS:          0 MSHR_MERGE:          0
cpu0->cpu0_STLB WRITE        ACCESS:          0 HIT:          0 MISS:          0 MSHR_MERGE:          0
cpu0->cpu0_STLB TRANSLATION  ACCESS:          0 HIT:          0 MISS:          0 MSHR_MERGE:          0
cpu0->cpu0_STLB PREFETCH REQUESTED:          0 ISSUED:          0 USEFUL:          0 USELESS:          0 LATE:          0
cpu0->cpu0_STLB AVERAGE MISS LATENCY: - cycles
cpu0->cpu0_L2C TOTAL        ACCESS:    6445977 HIT:    3576952 MISS:    2869025 MSHR_MERGE:     290240
cpu0->cpu0_L2C LOAD         ACCESS:    1547694 HIT:     902449 MISS:     645245 MSHR_MERGE:       9502
cpu0->cpu0_L2C RFO          ACCESS:     763711 HIT:      46741 MISS:     716970 MSHR_MERGE:          0
cpu0->cpu0_L2C PREFETCH     ACCESS:    2967495 HIT:    1460819 MISS:    1506676 MSHR_MERGE:     280738
cpu0->cpu0_L2C WRITE        ACCESS:    1167077 HIT:    1166943 MISS:        134 MSHR_MERGE:          0
cpu0->cpu0_L2C TRANSLATION  ACCESS:          0 HIT:          0 MISS:          0 MSHR_MERGE:          0
cpu0->cpu0_L2C PREFETCH REQUESTED:    2541122 ISSUED:    2494530 USEFUL:     366496 USELESS:     668488 LATE:       9502
cpu0->cpu0_L2C AVERAGE MISS LATENCY: 378.3 cycles
cpu0->cpu0_L1I TOTAL        ACCESS:     720688 HIT:     720681 MISS:          7 MSHR_MERGE:          0
cpu0->cpu0_L1I LOAD         ACCESS:     720688 HIT:     720681 MISS:          7 MSHR_MERGE:          0
cpu0->cpu0_L1I RFO          ACCESS:          0 HIT:          0 MISS:          0 MSHR_MERGE:          0
cpu0->cpu0_L1I PREFETCH     ACCESS:          0 HIT:          0 MISS:          0 MSHR_MERGE:          0
cpu0->cpu0_L1I WRITE        ACCESS:          0 HIT:          0 MISS:          0 MSHR_MERGE:          0
cpu0->cpu0_L1I TRANSLATION  ACCESS:          0 HIT:          0 MISS:          0 MSHR_MERGE:          0
cpu0->cpu0_L1I PREFETCH REQUESTED:          0 ISSUED:          0 USEFUL:          0 USELESS:          0 LATE:          0
cpu0->cpu0_L1I AVERAGE MISS LATENCY: 255.4 cycles
cpu0->cpu0_L1D TOTAL        ACCESS:   20689729 HIT:   17257665 MISS:    3432064 MSHR_MERGE:     647699
cpu0->cpu0_L1D LOAD         ACCESS:   13781725 HIT:   11611414 MISS:    2170311 MSHR_MERGE:     622625
cpu0->cpu0_L1D RFO          ACCESS:          0 HIT:          0 MISS:          0 MSHR_MERGE:          0
cpu0->cpu0_L1D PREFETCH     ACCESS:     592850 HIT:      94930 MISS:     497920 MSHR_MERGE:      24954
cpu0->cpu0_L1D WRITE        ACCESS:    6315154 HIT:    5551321 MISS:     763833 MSHR_MERGE:        120
cpu0->cpu0_L1D TRANSLATION  ACCESS:          0 HIT:          0 MISS:          0 MSHR_MERGE:          0
cpu0->cpu0_L1D PREFETCH REQUESTED:     599424 ISSUED:     592853 USEFUL:     168885 USELESS:     304177 LATE:      10120
cpu0->cpu0_L1D AVERAGE MISS LATENCY: 231.5 cycles
cpu0->cpu0_ITLB TOTAL        ACCESS:     720602 HIT:     720602 MISS:          0 MSHR_MERGE:          0
cpu0->cpu0_ITLB LOAD         ACCESS:     720602 HIT:     720602 MISS:          0 MSHR_MERGE:          0
cpu0->cpu0_ITLB RFO          ACCESS:          0 HIT:          0 MISS:          0 MSHR_MERGE:          0
cpu0->cpu0_ITLB PREFETCH     ACCESS:          0 HIT:          0 MISS:          0 MSHR_MERGE:          0
cpu0->cpu0_ITLB WRITE        ACCESS:          0 HIT:          0 MISS:          0 MSHR_MERGE:          0
cpu0->cpu0_ITLB TRANSLATION  ACCESS:          0 HIT:          0 MISS:          0 MSHR_MERGE:          0
cpu0->cpu0_ITLB PREFETCH REQUESTED:          0 ISSUED:          0 USEFUL:          0 USELESS:          0 LATE:          0
cpu0->cpu0_ITLB AVERAGE MISS LATENCY: - cycles
cpu0->cpu0_DTLB TOTAL        ACCESS:   20131825 HIT:   17824604 MISS:    2307221 MSHR_MERGE:     632119
cpu0->cpu0_DTLB LOAD         ACCESS:   20131825 HIT:   17824604 MISS:    2307221 MSHR_MERGE:     632119
cpu0->cpu0_DTLB RFO          ACCESS:          0 HIT:          0 MISS:          0 MSHR_MERGE:          0
cpu0->cpu0_DTLB PREFETCH     ACCESS:          0 HIT:          0 MISS:          0 MSHR_MERGE:          0
cpu0->cpu0_DTLB WRITE        ACCESS:          0 HIT:          0 MISS:          0 MSHR_MERGE:          0
cpu0->cpu0_DTLB TRANSLATION  ACCESS:          0 HIT:          0 MISS:          0 MSHR_MERGE:          0
cpu0->cpu0_DTLB PREFETCH REQUESTED:          0 ISSUED:          0 USEFUL:          0 USELESS:          0 LATE:          0
cpu0->cpu0_DTLB AVERAGE MISS LATENCY: 5.003 cycles
cpu0->LLC TOTAL        ACCESS:    3692042 HIT:     589049 MISS:    3102993 MSHR_MERGE:          0
cpu0->LLC LOAD         ACCESS:     635743 HIT:      64803 MISS:     570940 MSHR_MERGE:          0
cpu0->LLC RFO          ACCESS:     716969 HIT:     127444 MISS:     589525 MSHR_MERGE:          0
cpu0->LLC PREFETCH     ACCESS:    1225938 HIT:      57462 MISS:    1168476 MSHR_MERGE:          0
cpu0->LLC WRITE        ACCESS:    1113392 HIT:     339340 MISS:     774052 MSHR_MERGE:          0
cpu0->LLC TRANSLATION  ACCESS:          0 HIT:          0 MISS:          0 MSHR_MERGE:          0
cpu0->LLC PREFETCH REQUESTED:          0 ISSUED:          0 USEFUL:          0 USELESS:          0 LATE:          0
cpu0->LLC AVERAGE MISS LATENCY: 257.4 cycles

DRAM Statistics

Channel 0 RQ ROW_BUFFER_HIT:      65860
  ROW_BUFFER_MISS:    2262600
  AVG DBUS CONGESTED CYCLE: 12.72
Channel 0 WQ ROW_BUFFER_HIT:     222450
  ROW_BUFFER_MISS:     718062
  FULL:       3121
Channel 0 REFRESHES ISSUED:      17021

[ROI Statistics]
[System Configuration]
num_cpus 1
cpu_freq 4000
fetch_width 6
decode_width 6
dispatch_width 6
execute_width 6
lq_width 2
sq_width 2
retire_width 6
scheduler_size 128
branch_mispredict_penalty 15
rob_size 352
lq_size 128
sq_size 72
ifetch_buffer_size 64
decode_buffer_size 32
dispatch_buffer_size 32
register_file_size 288
decode_latency 1
dispatch_latency 1
schedule_latency 1
execute_latency 1
page_size 4096
block_size 64
core_0_itlb_set 16
core_0_itlb_way 4
core_0_itlb_rq_size 16
core_0_itlb_wq_size 16
core_0_itlb_pq_size 0
core_0_itlb_mshr_size 8
core_0_itlb_hit_latency 1
core_0_itlb_fill_latency 1
core_0_itlb_max_tag_check 2
core_0_itlb_max_fill 2
core_0_dtlb_set 16
core_0_dtlb_way 4
core_0_dtlb_rq_size 16
core_0_dtlb_wq_size 16
core_0_dtlb_pq_size 0
core_0_dtlb_mshr_size 8
core_0_dtlb_hit_latency 1
core_0_dtlb_fill_latency 1
core_0_dtlb_max_tag_check 2
core_0_dtlb_max_fill 2
core_0_stlb_set 128
core_0_stlb_way 12
core_0_stlb_rq_size 32
core_0_stlb_wq_size 32
core_0_stlb_pq_size 0
core_0_stlb_mshr_size 16
core_0_stlb_hit_latency 4
core_0_stlb_fill_latency 4
core_0_stlb_max_tag_check 1
core_0_stlb_max_fill 1
core_0_l1i_set 64
core_0_l1i_way 8
core_0_l1i_rq_size 64
core_0_l1i_wq_size 64
core_0_l1i_pq_size 32
core_0_l1i_mshr_size 8
core_0_l1i_hit_latency 2
core_0_l1i_fill_latency 2
core_0_l1i_max_tag_check 2
core_0_l1i_max_fill 2
core_0_l1d_set 64
core_0_l1d_way 12
core_0_l1d_rq_size 64
core_0_l1d_wq_size 64
core_0_l1d_pq_size 8
core_0_l1d_mshr_size 16
core_0_l1d_hit_latency 2
core_0_l1d_fill_latency 3
core_0_l1d_max_tag_check 2
core_0_l1d_max_fill 2
core_0_l2c_set 1024
core_0_l2c_way 8
core_0_l2c_rq_size 32
core_0_l2c_wq_size 32
core_0_l2c_pq_size 16
core_0_l2c_mshr_size 32
core_0_l2c_hit_latency 5
core_0_l2c_fill_latency 5
core_0_l2c_max_tag_check 1
core_0_l2c_max_fill 1
llc_set 2048
llc_way 16
llc_rq_size 32
llc_wq_size 32
llc_pq_size 32
llc_mshr_size 64
llc_hit_latency 10
llc_fill_latency 10
llc_max_tag_check 1
llc_max_fill 1
dram_channels 1
dram_ranks 1
dram_bankgroups 8
dram_banks 4
dram_rows 65536
dram_columns 1024
dram_channel_width 8
dram_rq_size 64
dram_wq_size 64
dram_size 17179869184
core_0_itlb_prefetcher no
core_0_dtlb_prefetcher no
core_0_stlb_prefetcher no
core_0_l1i_prefetcher next_line
core_0_l1d_prefetcher berti
core_0_l2c_prefetcher pythia
llc_prefetcher no
llc_replacement drrip

Core_0_instructions 50000004
Core_0_cycles 204249866
Core_0_IPC 0.244798
Core_0_branch_prediction_accuracy 93.1958
Core_0_branch_MPKI 13.4253
Core_0_average_ROB_occupancy_at_mispredict 44.9805

Core_0_ITLB_total_access 720602
Core_0_ITLB_total_hit 720602
Core_0_ITLB_total_miss 0
Core_0_ITLB_total_MPKI 0
Core_0_ITLB_total_miss_rate 0
Core_0_ITLB_demand_access 720602
Core_0_ITLB_demand_hit 720602
Core_0_ITLB_demand_miss 0
Core_0_ITLB_demand_MPKI 0
Core_0_ITLB_demand_miss_rate 0
Core_0_ITLB_load_access 720602
Core_0_ITLB_load_hit 720602
Core_0_ITLB_load_miss 0
Core_0_ITLB_load_MPKI 0
Core_0_ITLB_load_miss_rate 0
Core_0_ITLB_rfo_access 0
Core_0_ITLB_rfo_hit 0
Core_0_ITLB_rfo_miss 0
Core_0_ITLB_rfo_MPKI 0
Core_0_ITLB_rfo_miss_rate 0
Core_0_ITLB_prefetch_access 0
Core_0_ITLB_prefetch_hit 0
Core_0_ITLB_prefetch_miss 0
Core_0_ITLB_prefetch_MPKI 0
Core_0_ITLB_prefetch_miss_rate 0
Core_0_ITLB_writeback_access 0
Core_0_ITLB_writeback_hit 0
Core_0_ITLB_writeback_miss 0
Core_0_ITLB_writeback_MPKI 0
Core_0_ITLB_writeback_miss_rate 0
Core_0_ITLB_prefetch_requested 0
Core_0_ITLB_prefetch_issued 0
Core_0_ITLB_prefetch_useful 0
Core_0_ITLB_prefetch_useless 0
Core_0_ITLB_prefetch_late 0
Core_0_ITLB_prefetch_accuracy 0
Core_0_ITLB_prefetch_coverage 0

Core_0_DTLB_total_access 20131825
Core_0_DTLB_total_hit 17824604
Core_0_DTLB_total_miss 2307221
Core_0_DTLB_total_MPKI 46.1444
Core_0_DTLB_total_miss_rate 0.114606
Core_0_DTLB_demand_access 20131825
Core_0_DTLB_demand_hit 17824604
Core_0_DTLB_demand_miss 2307221
Core_0_DTLB_demand_MPKI 46.1444
Core_0_DTLB_demand_miss_rate 0.114606
Core_0_DTLB_load_access 20131825
Core_0_DTLB_load_hit 17824604
Core_0_DTLB_load_miss 2307221
Core_0_DTLB_load_MPKI 46.1444
Core_0_DTLB_load_miss_rate 0.114606
Core_0_DTLB_rfo_access 0
Core_0_DTLB_rfo_hit 0
Core_0_DTLB_rfo_miss 0
Core_0_DTLB_rfo_MPKI 0
Core_0_DTLB_rfo_miss_rate 0
Core_0_DTLB_prefetch_access 0
Core_0_DTLB_prefetch_hit 0
Core_0_DTLB_prefetch_miss 0
Core_0_DTLB_prefetch_MPKI 0
Core_0_DTLB_prefetch_miss_rate 0
Core_0_DTLB_writeback_access 0
Core_0_DTLB_writeback_hit 0
Core_0_DTLB_writeback_miss 0
Core_0_DTLB_writeback_MPKI 0
Core_0_DTLB_writeback_miss_rate 0
Core_0_DTLB_prefetch_requested 0
Core_0_DTLB_prefetch_issued 0
Core_0_DTLB_prefetch_useful 0
Core_0_DTLB_prefetch_useless 0
Core_0_DTLB_prefetch_late 0
Core_0_DTLB_prefetch_accuracy 0
Core_0_DTLB_prefetch_coverage 0

Core_0_STLB_total_access 1675102
Core_0_STLB_total_hit 1675102
Core_0_STLB_total_miss 0
Core_0_STLB_total_MPKI 0
Core_0_STLB_total_miss_rate 0
Core_0_STLB_demand_access 1675102
Core_0_STLB_demand_hit 1675102
Core_0_STLB_demand_miss 0
Core_0_STLB_demand_MPKI 0
Core_0_STLB_demand_miss_rate 0
Core_0_STLB_load_access 1675102
Core_0_STLB_load_hit 1675102
Core_0_STLB_load_miss 0
Core_0_STLB_load_MPKI 0
Core_0_STLB_load_miss_rate 0
Core_0_STLB_rfo_access 0
Core_0_STLB_rfo_hit 0
Core_0_STLB_rfo_miss 0
Core_0_STLB_rfo_MPKI 0
Core_0_STLB_rfo_miss_rate 0
Core_0_STLB_prefetch_access 0
Core_0_STLB_prefetch_hit 0
Core_0_STLB_prefetch_miss 0
Core_0_STLB_prefetch_MPKI 0
Core_0_STLB_prefetch_miss_rate 0
Core_0_STLB_writeback_access 0
Core_0_STLB_writeback_hit 0
Core_0_STLB_writeback_miss 0
Core_0_STLB_writeback_MPKI 0
Core_0_STLB_writeback_miss_rate 0
Core_0_STLB_prefetch_requested 0
Core_0_STLB_prefetch_issued 0
Core_0_STLB_prefetch_useful 0
Core_0_STLB_prefetch_useless 0
Core_0_STLB_prefetch_late 0
Core_0_STLB_prefetch_accuracy 0
Core_0_STLB_prefetch_coverage 0

Core_0_L1I_total_access 720688
Core_0_L1I_total_hit 720681
Core_0_L1I_total_miss 7
Core_0_L1I_total_MPKI 0.00014
Core_0_L1I_total_miss_rate 9.71294e-06
Core_0_L1I_demand_access 720688
Core_0_L1I_demand_hit 720681
Core_0_L1I_demand_miss 7
Core_0_L1I_demand_MPKI 0.00014
Core_0_L1I_demand_miss_rate 9.71294e-06
Core_0_L1I_load_access 720688
Core_0_L1I_load_hit 720681
Core_0_L1I_load_miss 7
Core_0_L1I_load_MPKI 0.00014
Core_0_L1I_load_miss_rate 9.71294e-06
Core_0_L1I_rfo_access 0
Core_0_L1I_rfo_hit 0
Core_0_L1I_rfo_miss 0
Core_0_L1I_rfo_MPKI 0
Core_0_L1I_rfo_miss_rate 0
Core_0_L1I_prefetch_access 0
Core_0_L1I_prefetch_hit 0
Core_0_L1I_prefetch_miss 0
Core_0_L1I_prefetch_MPKI 0
Core_0_L1I_prefetch_miss_rate 0
Core_0_L1I_writeback_access 0
Core_0_L1I_writeback_hit 0
Core_0_L1I_writeback_miss 0
Core_0_L1I_writeback_MPKI 0
Core_0_L1I_writeback_miss_rate 0
Core_0_L1I_prefetch_requested 0
Core_0_L1I_prefetch_issued 0
Core_0_L1I_prefetch_useful 0
Core_0_L1I_prefetch_useless 0
Core_0_L1I_prefetch_late 0
Core_0_L1I_prefetch_accuracy 0
Core_0_L1I_prefetch_coverage 0

Core_0_L1D_total_access 20689729
Core_0_L1D_total_hit 17257665
Core_0_L1D_total_miss 3432064
Core_0_L1D_total_MPKI 68.6413
Core_0_L1D_total_miss_rate 0.165883
Core_0_L1D_demand_access 13781725
Core_0_L1D_demand_hit 11611414
Core_0_L1D_demand_miss 2170311
Core_0_L1D_demand_MPKI 43.4062
Core_0_L1D_demand_miss_rate 0.157477
Core_0_L1D_load_access 13781725
Core_0_L1D_load_hit 11611414
Core_0_L1D_load_miss 2170311
Core_0_L1D_load_MPKI 43.4062
Core_0_L1D_load_miss_rate 0.157477
Core_0_L1D_rfo_access 0
Core_0_L1D_rfo_hit 0
Core_0_L1D_rfo_miss 0
Core_0_L1D_rfo_MPKI 0
Core_0_L1D_rfo_miss_rate 0
Core_0_L1D_prefetch_access 592850
Core_0_L1D_prefetch_hit 94930
Core_0_L1D_prefetch_miss 497920
Core_0_L1D_prefetch_MPKI 9.9584
Core_0_L1D_prefetch_miss_rate 0.839875
Core_0_L1D_writeback_access 6315154
Core_0_L1D_writeback_hit 5551321
Core_0_L1D_writeback_miss 763833
Core_0_L1D_writeback_MPKI 15.2767
Core_0_L1D_writeback_miss_rate 0.120952
Core_0_L1D_prefetch_requested 599424
Core_0_L1D_prefetch_issued 592853
Core_0_L1D_prefetch_useful 168885
Core_0_L1D_prefetch_useless 304177
Core_0_L1D_prefetch_late 10120
Core_0_L1D_prefetch_accuracy 0.284868
Core_0_L1D_prefetch_coverage 0.0721979

Core_0_L2C_total_access 6445977
Core_0_L2C_total_hit 3576952
Core_0_L2C_total_miss 2869025
Core_0_L2C_total_MPKI 57.3805
Core_0_L2C_total_miss_rate 0.445088
Core_0_L2C_demand_access 2311405
Core_0_L2C_demand_hit 949190
Core_0_L2C_demand_miss 1362215
Core_0_L2C_demand_MPKI 27.2443
Core_0_L2C_demand_miss_rate 0.589345
Core_0_L2C_load_access 1547694
Core_0_L2C_load_hit 902449
Core_0_L2C_load_miss 645245
Core_0_L2C_load_MPKI 12.9049
Core_0_L2C_load_miss_rate 0.416907
Core_0_L2C_rfo_access 763711
Core_0_L2C_rfo_hit 46741
Core_0_L2C_rfo_miss 716970
Core_0_L2C_rfo_MPKI 14.3394
Core_0_L2C_rfo_miss_rate 0.938798
Core_0_L2C_prefetch_access 2967495
Core_0_L2C_prefetch_hit 1460819
Core_0_L2C_prefetch_miss 1506676
Core_0_L2C_prefetch_MPKI 30.1335
Core_0_L2C_prefetch_miss_rate 0.507727
Core_0_L2C_writeback_access 1167077
Core_0_L2C_writeback_hit 1166943
Core_0_L2C_writeback_miss 134
Core_0_L2C_writeback_MPKI 0.00268
Core_0_L2C_writeback_miss_rate 0.000114817
Core_0_L2C_prefetch_requested 2541122
Core_0_L2C_prefetch_issued 2494530
Core_0_L2C_prefetch_useful 366496
Core_0_L2C_prefetch_useless 668488
Core_0_L2C_prefetch_late 9502
Core_0_L2C_prefetch_accuracy 0.14692
Core_0_L2C_prefetch_coverage 0.212005

Core_0_LLC_total_access 3692042
Core_0_LLC_total_hit 589049
Core_0_LLC_total_miss 3102993
Core_0_LLC_total_MPKI 62.0599
Core_0_LLC_total_miss_rate 0.840454
Core_0_LLC_demand_access 1352712
Core_0_LLC_demand_hit 192247
Core_0_LLC_demand_miss 1160465
Core_0_LLC_demand_MPKI 23.2093
Core_0_LLC_demand_miss_rate 0.85788
Core_0_LLC_load_access 635743
Core_0_LLC_load_hit 64803
Core_0_LLC_load_miss 570940
Core_0_LLC_load_MPKI 11.4188
Core_0_LLC_load_miss_rate 0.898067
Core_0_LLC_rfo_access 716969
Core_0_LLC_rfo_hit 127444
Core_0_LLC_rfo_miss 589525
Core_0_LLC_rfo_MPKI 11.7905
Core_0_LLC_rfo_miss_rate 0.822246
Core_0_LLC_prefetch_access 1225938
Core_0_LLC_prefetch_hit 57462
Core_0_LLC_prefetch_miss 1168476
Core_0_LLC_prefetch_MPKI 23.3695
Core_0_LLC_prefetch_miss_rate 0.953128
Core_0_LLC_writeback_access 1113392
Core_0_LLC_writeback_hit 339340
Core_0_LLC_writeback_miss 774052
Core_0_LLC_writeback_MPKI 15.481
Core_0_LLC_writeback_miss_rate 0.69522
Core_0_LLC_prefetch_requested 0
Core_0_LLC_prefetch_issued 0
Core_0_LLC_prefetch_useful 0
Core_0_LLC_prefetch_useless 0
Core_0_LLC_prefetch_late 0
Core_0_LLC_prefetch_accuracy 0
Core_0_LLC_prefetch_coverage 0

[DRAM Statistics]
Channel_0_RQ_row_buffer_hit 65860
Channel_0_RQ_row_buffer_miss 2262600
Channel_0_WQ_row_buffer_hit 222450
Channel_0_WQ_row_buffer_miss 718062
Channel_0_WQ_full 3121
Channel_0_dbus_congested 11273368
DRAM_total_RQ_row_buffer_hit 65860
DRAM_total_RQ_row_buffer_miss 2262600
DRAM_total_WQ_row_buffer_hit 222450
DRAM_total_WQ_row_buffer_miss 718062
DRAM_total_WQ_full 3121
DRAM_total_dbus_congested 11273368
DRAM_avg_congested_cycle 12.7214

======STLB miss causes ========
Core_0_STLB_miss_cause_breakdown
Core_0_STLB_cause_Demand_Data_miss 0
Core_0_STLB_cause_Demand_Data_miss_rate 0
Core_0_STLB_cause_Demand_Instruction_miss 0
Core_0_STLB_cause_Demand_Instruction_miss_rate 0
Core_0_STLB_cause_L1D_Prefetch_miss 0
Core_0_STLB_cause_L1D_Prefetch_miss_rate 0
Core_0_STLB_cause_L1I_Prefetch_miss 0
Core_0_STLB_cause_L1I_Prefetch_miss_rate 0
Core_0_STLB_cause_Other_miss 0
Core_0_STLB_cause_Other_miss_rate 0
Core_0_STLB_Demand_miss 0
Core_0_STLB_Demand_miss_rate 0
Core_0_STLB_L1D_Prefetch_miss 0
Core_0_STLB_L1D_Prefetch_miss_rate 0
Core_0_STLB_Other_miss 0
Core_0_STLB_Other_miss_rate 0
