[VMEM] WARNING: physical memory size is smaller than virtual memory size.

*** ChampSim Multicore Out-of-Order Simulator ***
Warmup Instructions: 20000000
Simulation Instructions: 50000000
Number of CPUs: 1
Page size: 4096
STLB ideal mode: all
Core 0: /data0/tzh/champsim_traces/SPEC17/605.mcf_s-994B.champsimtrace.xz
 L1D Berti prefetcher
Off-chip DRAM Size: 16 GiB Channels: 1 Width: 64-bit Data Rate: 3205 MT/s
Warmup halting CPU 0 at instruction 20000001 cycle 4650045 for remainder of phase
Warmup finished CPU 0 instructions: 20000001 cycles: 4650045 cumulative IPC: 4.301 (Simulation time: 00 hr 01 min 01 sec)
Warmup complete CPU 0 instructions: 20000001 cycles: 4650045 cumulative IPC: 4.301 (Simulation time: 00 hr 01 min 01 sec)
Simulation finished CPU 0 instructions: 50000002 cycles: 133140107 cumulative IPC: 0.3755 (Simulation time: 00 hr 12 min 36 sec)
Simulation complete CPU 0 instructions: 50000002 cycles: 133140107 cumulative IPC: 0.3755 (Simulation time: 00 hr 12 min 36 sec)

ChampSim completed all CPUs

=== Simulation ===
CPU 0 runs /data0/tzh/champsim_traces/SPEC17/605.mcf_s-994B.champsimtrace.xz

Region of Interest Statistics

CPU 0 cumulative IPC: 0.3755 instructions: 50000002 cycles: 133140107
CPU 0 Branch Prediction Accuracy: 94.39% MPKI: 14.14 Average ROB Occupancy at Mispredict: 48.03
Branch type MPKI
BRANCH_DIRECT_JUMP: 0.1366
BRANCH_INDIRECT: 0
BRANCH_CONDITIONAL: 14
BRANCH_DIRECT_CALL: 0
BRANCH_INDIRECT_CALL: 0.00264
BRANCH_RETURN: 4e-05

cpu0->cpu0_STLB TOTAL        ACCESS:     849298 HIT:     849298 MISS:          0 MSHR_MERGE:          0
cpu0->cpu0_STLB LOAD         ACCESS:     849298 HIT:     849298 MISS:          0 MSHR_MERGE:          0
cpu0->cpu0_STLB RFO          ACCESS:          0 HIT:          0 MISS:          0 MSHR_MERGE:          0
cpu0->cpu0_STLB PREFETCH     ACCESS:          0 HIT:          0 MISS:          0 MSHR_MERGE:          0
cpu0->cpu0_STLB WRITE        ACCESS:          0 HIT:          0 MISS:          0 MSHR_MERGE:          0
cpu0->cpu0_STLB TRANSLATION  ACCESS:          0 HIT:          0 MISS:          0 MSHR_MERGE:          0
cpu0->cpu0_STLB PREFETCH REQUESTED:          0 ISSUED:          0 USEFUL:          0 USELESS:          0 LATE:          0
cpu0->cpu0_STLB AVERAGE MISS LATENCY: - cycles
cpu0->cpu0_L2C TOTAL        ACCESS:    6357918 HIT:    2192477 MISS:    4165441 MSHR_MERGE:     919789
cpu0->cpu0_L2C LOAD         ACCESS:    1639079 HIT:     438170 MISS:    1200909 MSHR_MERGE:     117070
cpu0->cpu0_L2C RFO          ACCESS:      14427 HIT:      11463 MISS:       2964 MSHR_MERGE:         23
cpu0->cpu0_L2C PREFETCH     ACCESS:    4568123 HIT:    1606841 MISS:    2961282 MSHR_MERGE:     802696
cpu0->cpu0_L2C WRITE        ACCESS:     136289 HIT:     136003 MISS:        286 MSHR_MERGE:          0
cpu0->cpu0_L2C TRANSLATION  ACCESS:          0 HIT:          0 MISS:          0 MSHR_MERGE:          0
cpu0->cpu0_L2C PREFETCH REQUESTED:    4040464 ISSUED:    3882389 USEFUL:     269575 USELESS:    1419447 LATE:     117093
cpu0->cpu0_L2C AVERAGE MISS LATENCY: 221.4 cycles
cpu0->cpu0_L1I TOTAL        ACCESS:      43601 HIT:      43601 MISS:          0 MSHR_MERGE:          0
cpu0->cpu0_L1I LOAD         ACCESS:      43601 HIT:      43601 MISS:          0 MSHR_MERGE:          0
cpu0->cpu0_L1I RFO          ACCESS:          0 HIT:          0 MISS:          0 MSHR_MERGE:          0
cpu0->cpu0_L1I PREFETCH     ACCESS:          0 HIT:          0 MISS:          0 MSHR_MERGE:          0
cpu0->cpu0_L1I WRITE        ACCESS:          0 HIT:          0 MISS:          0 MSHR_MERGE:          0
cpu0->cpu0_L1I TRANSLATION  ACCESS:          0 HIT:          0 MISS:          0 MSHR_MERGE:          0
cpu0->cpu0_L1I PREFETCH REQUESTED:          0 ISSUED:          0 USEFUL:          0 USELESS:          0 LATE:          0
cpu0->cpu0_L1I AVERAGE MISS LATENCY: - cycles
cpu0->cpu0_L1D TOTAL        ACCESS:   20658961 HIT:   18137561 MISS:    2521400 MSHR_MERGE:     182140
cpu0->cpu0_L1D LOAD         ACCESS:   14573526 HIT:   12835483 MISS:    1738043 MSHR_MERGE:      98964
cpu0->cpu0_L1D RFO          ACCESS:          0 HIT:          0 MISS:          0 MSHR_MERGE:          0
cpu0->cpu0_L1D PREFETCH     ACCESS:    1006114 HIT:     265115 MISS:     740999 MSHR_MERGE:      55265
cpu0->cpu0_L1D WRITE        ACCESS:    5079321 HIT:    5036963 MISS:      42358 MSHR_MERGE:      27911
cpu0->cpu0_L1D TRANSLATION  ACCESS:          0 HIT:          0 MISS:          0 MSHR_MERGE:          0
cpu0->cpu0_L1D PREFETCH REQUESTED:    1008238 ISSUED:    1006108 USEFUL:     181007 USELESS:     504766 LATE:      30548
cpu0->cpu0_L1D AVERAGE MISS LATENCY: 168.1 cycles
cpu0->cpu0_ITLB TOTAL        ACCESS:      39123 HIT:      39123 MISS:          0 MSHR_MERGE:          0
cpu0->cpu0_ITLB LOAD         ACCESS:      39123 HIT:      39123 MISS:          0 MSHR_MERGE:          0
cpu0->cpu0_ITLB RFO          ACCESS:          0 HIT:          0 MISS:          0 MSHR_MERGE:          0
cpu0->cpu0_ITLB PREFETCH     ACCESS:          0 HIT:          0 MISS:          0 MSHR_MERGE:          0
cpu0->cpu0_ITLB WRITE        ACCESS:          0 HIT:          0 MISS:          0 MSHR_MERGE:          0
cpu0->cpu0_ITLB TRANSLATION  ACCESS:          0 HIT:          0 MISS:          0 MSHR_MERGE:          0
cpu0->cpu0_ITLB PREFETCH REQUESTED:          0 ISSUED:          0 USEFUL:          0 USELESS:          0 LATE:          0
cpu0->cpu0_ITLB AVERAGE MISS LATENCY: - cycles
cpu0->cpu0_DTLB TOTAL        ACCESS:   19662303 HIT:   18759342 MISS:     902961 MSHR_MERGE:      53663
cpu0->cpu0_DTLB LOAD         ACCESS:   19662303 HIT:   18759342 MISS:     902961 MSHR_MERGE:      53663
cpu0->cpu0_DTLB RFO          ACCESS:          0 HIT:          0 MISS:          0 MSHR_MERGE:          0
cpu0->cpu0_DTLB PREFETCH     ACCESS:          0 HIT:          0 MISS:          0 MSHR_MERGE:          0
cpu0->cpu0_DTLB WRITE        ACCESS:          0 HIT:          0 MISS:          0 MSHR_MERGE:          0
cpu0->cpu0_DTLB TRANSLATION  ACCESS:          0 HIT:          0 MISS:          0 MSHR_MERGE:          0
cpu0->cpu0_DTLB PREFETCH REQUESTED:          0 ISSUED:          0 USEFUL:          0 USELESS:          0 LATE:          0
cpu0->cpu0_DTLB AVERAGE MISS LATENCY: 5.001 cycles
cpu0->LLC TOTAL        ACCESS:    3344179 HIT:     553221 MISS:    2790958 MSHR_MERGE:          0
cpu0->LLC LOAD         ACCESS:    1083839 HIT:     191221 MISS:     892618 MSHR_MERGE:          0
cpu0->LLC RFO          ACCESS:       2941 HIT:       2123 MISS:        818 MSHR_MERGE:          0
cpu0->LLC PREFETCH     ACCESS:    2158586 HIT:     292694 MISS:    1865892 MSHR_MERGE:          0
cpu0->LLC WRITE        ACCESS:      98813 HIT:      67183 MISS:      31630 MSHR_MERGE:          0
cpu0->LLC TRANSLATION  ACCESS:          0 HIT:          0 MISS:          0 MSHR_MERGE:          0
cpu0->LLC PREFETCH REQUESTED:          0 ISSUED:          0 USEFUL:          0 USELESS:          0 LATE:          0
cpu0->LLC AVERAGE MISS LATENCY: 243.9 cycles

DRAM Statistics

Channel 0 RQ ROW_BUFFER_HIT:      16477
  ROW_BUFFER_MISS:    2742252
  AVG DBUS CONGESTED CYCLE: 3.926
Channel 0 WQ ROW_BUFFER_HIT:      17519
  ROW_BUFFER_MISS:      43871
  FULL:          0
Channel 0 REFRESHES ISSUED:      11095

[ROI Statistics]
[System Configuration]
num_cpus 1
cpu_freq 4000
fetch_width 6
decode_width 6
dispatch_width 6
execute_width 6
lq_width 2
sq_width 2
retire_width 6
scheduler_size 128
branch_mispredict_penalty 15
rob_size 352
lq_size 128
sq_size 72
ifetch_buffer_size 64
decode_buffer_size 32
dispatch_buffer_size 32
register_file_size 288
decode_latency 1
dispatch_latency 1
schedule_latency 1
execute_latency 1
page_size 4096
block_size 64
core_0_itlb_set 16
core_0_itlb_way 4
core_0_itlb_rq_size 16
core_0_itlb_wq_size 16
core_0_itlb_pq_size 0
core_0_itlb_mshr_size 8
core_0_itlb_hit_latency 1
core_0_itlb_fill_latency 1
core_0_itlb_max_tag_check 2
core_0_itlb_max_fill 2
core_0_dtlb_set 16
core_0_dtlb_way 4
core_0_dtlb_rq_size 16
core_0_dtlb_wq_size 16
core_0_dtlb_pq_size 0
core_0_dtlb_mshr_size 8
core_0_dtlb_hit_latency 1
core_0_dtlb_fill_latency 1
core_0_dtlb_max_tag_check 2
core_0_dtlb_max_fill 2
core_0_stlb_set 128
core_0_stlb_way 12
core_0_stlb_rq_size 32
core_0_stlb_wq_size 32
core_0_stlb_pq_size 0
core_0_stlb_mshr_size 16
core_0_stlb_hit_latency 4
core_0_stlb_fill_latency 4
core_0_stlb_max_tag_check 1
core_0_stlb_max_fill 1
core_0_l1i_set 64
core_0_l1i_way 8
core_0_l1i_rq_size 64
core_0_l1i_wq_size 64
core_0_l1i_pq_size 32
core_0_l1i_mshr_size 8
core_0_l1i_hit_latency 2
core_0_l1i_fill_latency 2
core_0_l1i_max_tag_check 2
core_0_l1i_max_fill 2
core_0_l1d_set 64
core_0_l1d_way 12
core_0_l1d_rq_size 64
core_0_l1d_wq_size 64
core_0_l1d_pq_size 8
core_0_l1d_mshr_size 16
core_0_l1d_hit_latency 2
core_0_l1d_fill_latency 3
core_0_l1d_max_tag_check 2
core_0_l1d_max_fill 2
core_0_l2c_set 1024
core_0_l2c_way 8
core_0_l2c_rq_size 32
core_0_l2c_wq_size 32
core_0_l2c_pq_size 16
core_0_l2c_mshr_size 32
core_0_l2c_hit_latency 5
core_0_l2c_fill_latency 5
core_0_l2c_max_tag_check 1
core_0_l2c_max_fill 1
llc_set 2048
llc_way 16
llc_rq_size 32
llc_wq_size 32
llc_pq_size 32
llc_mshr_size 64
llc_hit_latency 10
llc_fill_latency 10
llc_max_tag_check 1
llc_max_fill 1
dram_channels 1
dram_ranks 1
dram_bankgroups 8
dram_banks 4
dram_rows 65536
dram_columns 1024
dram_channel_width 8
dram_rq_size 64
dram_wq_size 64
dram_size 17179869184
core_0_itlb_prefetcher no
core_0_dtlb_prefetcher no
core_0_stlb_prefetcher no
core_0_l1i_prefetcher next_line
core_0_l1d_prefetcher berti
core_0_l2c_prefetcher pythia
llc_prefetcher no
llc_replacement drrip

Core_0_instructions 50000002
Core_0_cycles 133140107
Core_0_IPC 0.375544
Core_0_branch_prediction_accuracy 94.391
Core_0_branch_MPKI 14.1351
Core_0_average_ROB_occupancy_at_mispredict 48.0347

Core_0_ITLB_total_access 39123
Core_0_ITLB_total_hit 39123
Core_0_ITLB_total_miss 0
Core_0_ITLB_total_MPKI 0
Core_0_ITLB_total_miss_rate 0
Core_0_ITLB_demand_access 39123
Core_0_ITLB_demand_hit 39123
Core_0_ITLB_demand_miss 0
Core_0_ITLB_demand_MPKI 0
Core_0_ITLB_demand_miss_rate 0
Core_0_ITLB_load_access 39123
Core_0_ITLB_load_hit 39123
Core_0_ITLB_load_miss 0
Core_0_ITLB_load_MPKI 0
Core_0_ITLB_load_miss_rate 0
Core_0_ITLB_rfo_access 0
Core_0_ITLB_rfo_hit 0
Core_0_ITLB_rfo_miss 0
Core_0_ITLB_rfo_MPKI 0
Core_0_ITLB_rfo_miss_rate 0
Core_0_ITLB_prefetch_access 0
Core_0_ITLB_prefetch_hit 0
Core_0_ITLB_prefetch_miss 0
Core_0_ITLB_prefetch_MPKI 0
Core_0_ITLB_prefetch_miss_rate 0
Core_0_ITLB_writeback_access 0
Core_0_ITLB_writeback_hit 0
Core_0_ITLB_writeback_miss 0
Core_0_ITLB_writeback_MPKI 0
Core_0_ITLB_writeback_miss_rate 0
Core_0_ITLB_prefetch_requested 0
Core_0_ITLB_prefetch_issued 0
Core_0_ITLB_prefetch_useful 0
Core_0_ITLB_prefetch_useless 0
Core_0_ITLB_prefetch_late 0
Core_0_ITLB_prefetch_accuracy 0
Core_0_ITLB_prefetch_coverage 0

Core_0_DTLB_total_access 19662303
Core_0_DTLB_total_hit 18759342
Core_0_DTLB_total_miss 902961
Core_0_DTLB_total_MPKI 18.0592
Core_0_DTLB_total_miss_rate 0.0459235
Core_0_DTLB_demand_access 19662303
Core_0_DTLB_demand_hit 18759342
Core_0_DTLB_demand_miss 902961
Core_0_DTLB_demand_MPKI 18.0592
Core_0_DTLB_demand_miss_rate 0.0459235
Core_0_DTLB_load_access 19662303
Core_0_DTLB_load_hit 18759342
Core_0_DTLB_load_miss 902961
Core_0_DTLB_load_MPKI 18.0592
Core_0_DTLB_load_miss_rate 0.0459235
Core_0_DTLB_rfo_access 0
Core_0_DTLB_rfo_hit 0
Core_0_DTLB_rfo_miss 0
Core_0_DTLB_rfo_MPKI 0
Core_0_DTLB_rfo_miss_rate 0
Core_0_DTLB_prefetch_access 0
Core_0_DTLB_prefetch_hit 0
Core_0_DTLB_prefetch_miss 0
Core_0_DTLB_prefetch_MPKI 0
Core_0_DTLB_prefetch_miss_rate 0
Core_0_DTLB_writeback_access 0
Core_0_DTLB_writeback_hit 0
Core_0_DTLB_writeback_miss 0
Core_0_DTLB_writeback_MPKI 0
Core_0_DTLB_writeback_miss_rate 0
Core_0_DTLB_prefetch_requested 0
Core_0_DTLB_prefetch_issued 0
Core_0_DTLB_prefetch_useful 0
Core_0_DTLB_prefetch_useless 0
Core_0_DTLB_prefetch_late 0
Core_0_DTLB_prefetch_accuracy 0
Core_0_DTLB_prefetch_coverage 0

Core_0_STLB_total_access 849298
Core_0_STLB_total_hit 849298
Core_0_STLB_total_miss 0
Core_0_STLB_total_MPKI 0
Core_0_STLB_total_miss_rate 0
Core_0_STLB_demand_access 849298
Core_0_STLB_demand_hit 849298
Core_0_STLB_demand_miss 0
Core_0_STLB_demand_MPKI 0
Core_0_STLB_demand_miss_rate 0
Core_0_STLB_load_access 849298
Core_0_STLB_load_hit 849298
Core_0_STLB_load_miss 0
Core_0_STLB_load_MPKI 0
Core_0_STLB_load_miss_rate 0
Core_0_STLB_rfo_access 0
Core_0_STLB_rfo_hit 0
Core_0_STLB_rfo_miss 0
Core_0_STLB_rfo_MPKI 0
Core_0_STLB_rfo_miss_rate 0
Core_0_STLB_prefetch_access 0
Core_0_STLB_prefetch_hit 0
Core_0_STLB_prefetch_miss 0
Core_0_STLB_prefetch_MPKI 0
Core_0_STLB_prefetch_miss_rate 0
Core_0_STLB_writeback_access 0
Core_0_STLB_writeback_hit 0
Core_0_STLB_writeback_miss 0
Core_0_STLB_writeback_MPKI 0
Core_0_STLB_writeback_miss_rate 0
Core_0_STLB_prefetch_requested 0
Core_0_STLB_prefetch_issued 0
Core_0_STLB_prefetch_useful 0
Core_0_STLB_prefetch_useless 0
Core_0_STLB_prefetch_late 0
Core_0_STLB_prefetch_accuracy 0
Core_0_STLB_prefetch_coverage 0

Core_0_L1I_total_access 43601
Core_0_L1I_total_hit 43601
Core_0_L1I_total_miss 0
Core_0_L1I_total_MPKI 0
Core_0_L1I_total_miss_rate 0
Core_0_L1I_demand_access 43601
Core_0_L1I_demand_hit 43601
Core_0_L1I_demand_miss 0
Core_0_L1I_demand_MPKI 0
Core_0_L1I_demand_miss_rate 0
Core_0_L1I_load_access 43601
Core_0_L1I_load_hit 43601
Core_0_L1I_load_miss 0
Core_0_L1I_load_MPKI 0
Core_0_L1I_load_miss_rate 0
Core_0_L1I_rfo_access 0
Core_0_L1I_rfo_hit 0
Core_0_L1I_rfo_miss 0
Core_0_L1I_rfo_MPKI 0
Core_0_L1I_rfo_miss_rate 0
Core_0_L1I_prefetch_access 0
Core_0_L1I_prefetch_hit 0
Core_0_L1I_prefetch_miss 0
Core_0_L1I_prefetch_MPKI 0
Core_0_L1I_prefetch_miss_rate 0
Core_0_L1I_writeback_access 0
Core_0_L1I_writeback_hit 0
Core_0_L1I_writeback_miss 0
Core_0_L1I_writeback_MPKI 0
Core_0_L1I_writeback_miss_rate 0
Core_0_L1I_prefetch_requested 0
Core_0_L1I_prefetch_issued 0
Core_0_L1I_prefetch_useful 0
Core_0_L1I_prefetch_useless 0
Core_0_L1I_prefetch_late 0
Core_0_L1I_prefetch_accuracy 0
Core_0_L1I_prefetch_coverage 0

Core_0_L1D_total_access 20658961
Core_0_L1D_total_hit 18137561
Core_0_L1D_total_miss 2521400
Core_0_L1D_total_MPKI 50.428
Core_0_L1D_total_miss_rate 0.122049
Core_0_L1D_demand_access 14573526
Core_0_L1D_demand_hit 12835483
Core_0_L1D_demand_miss 1738043
Core_0_L1D_demand_MPKI 34.7609
Core_0_L1D_demand_miss_rate 0.11926
Core_0_L1D_load_access 14573526
Core_0_L1D_load_hit 12835483
Core_0_L1D_load_miss 1738043
Core_0_L1D_load_MPKI 34.7609
Core_0_L1D_load_miss_rate 0.11926
Core_0_L1D_rfo_access 0
Core_0_L1D_rfo_hit 0
Core_0_L1D_rfo_miss 0
Core_0_L1D_rfo_MPKI 0
Core_0_L1D_rfo_miss_rate 0
Core_0_L1D_prefetch_access 1006114
Core_0_L1D_prefetch_hit 265115
Core_0_L1D_prefetch_miss 740999
Core_0_L1D_prefetch_MPKI 14.82
Core_0_L1D_prefetch_miss_rate 0.736496
Core_0_L1D_writeback_access 5079321
Core_0_L1D_writeback_hit 5036963
Core_0_L1D_writeback_miss 42358
Core_0_L1D_writeback_MPKI 0.84716
Core_0_L1D_writeback_miss_rate 0.0083393
Core_0_L1D_prefetch_requested 1008238
Core_0_L1D_prefetch_issued 1006108
Core_0_L1D_prefetch_useful 181007
Core_0_L1D_prefetch_useless 504766
Core_0_L1D_prefetch_late 30548
Core_0_L1D_prefetch_accuracy 0.179908
Core_0_L1D_prefetch_coverage 0.0943211

Core_0_L2C_total_access 6357918
Core_0_L2C_total_hit 2192477
Core_0_L2C_total_miss 4165441
Core_0_L2C_total_MPKI 83.3088
Core_0_L2C_total_miss_rate 0.655158
Core_0_L2C_demand_access 1653506
Core_0_L2C_demand_hit 449633
Core_0_L2C_demand_miss 1203873
Core_0_L2C_demand_MPKI 24.0775
Core_0_L2C_demand_miss_rate 0.728073
Core_0_L2C_load_access 1639079
Core_0_L2C_load_hit 438170
Core_0_L2C_load_miss 1200909
Core_0_L2C_load_MPKI 24.0182
Core_0_L2C_load_miss_rate 0.732673
Core_0_L2C_rfo_access 14427
Core_0_L2C_rfo_hit 11463
Core_0_L2C_rfo_miss 2964
Core_0_L2C_rfo_MPKI 0.05928
Core_0_L2C_rfo_miss_rate 0.205448
Core_0_L2C_prefetch_access 4568123
Core_0_L2C_prefetch_hit 1606841
Core_0_L2C_prefetch_miss 2961282
Core_0_L2C_prefetch_MPKI 59.2256
Core_0_L2C_prefetch_miss_rate 0.648249
Core_0_L2C_writeback_access 136289
Core_0_L2C_writeback_hit 136003
Core_0_L2C_writeback_miss 286
Core_0_L2C_writeback_MPKI 0.00572
Core_0_L2C_writeback_miss_rate 0.00209848
Core_0_L2C_prefetch_requested 4040464
Core_0_L2C_prefetch_issued 3882389
Core_0_L2C_prefetch_useful 269575
Core_0_L2C_prefetch_useless 1419447
Core_0_L2C_prefetch_late 117093
Core_0_L2C_prefetch_accuracy 0.0694353
Core_0_L2C_prefetch_coverage 0.182955

Core_0_LLC_total_access 3344179
Core_0_LLC_total_hit 553221
Core_0_LLC_total_miss 2790958
Core_0_LLC_total_MPKI 55.8192
Core_0_LLC_total_miss_rate 0.834572
Core_0_LLC_demand_access 1086780
Core_0_LLC_demand_hit 193344
Core_0_LLC_demand_miss 893436
Core_0_LLC_demand_MPKI 17.8687
Core_0_LLC_demand_miss_rate 0.822095
Core_0_LLC_load_access 1083839
Core_0_LLC_load_hit 191221
Core_0_LLC_load_miss 892618
Core_0_LLC_load_MPKI 17.8524
Core_0_LLC_load_miss_rate 0.823571
Core_0_LLC_rfo_access 2941
Core_0_LLC_rfo_hit 2123
Core_0_LLC_rfo_miss 818
Core_0_LLC_rfo_MPKI 0.01636
Core_0_LLC_rfo_miss_rate 0.278137
Core_0_LLC_prefetch_access 2158586
Core_0_LLC_prefetch_hit 292694
Core_0_LLC_prefetch_miss 1865892
Core_0_LLC_prefetch_MPKI 37.3178
Core_0_LLC_prefetch_miss_rate 0.864405
Core_0_LLC_writeback_access 98813
Core_0_LLC_writeback_hit 67183
Core_0_LLC_writeback_miss 31630
Core_0_LLC_writeback_MPKI 0.6326
Core_0_LLC_writeback_miss_rate 0.3201
Core_0_LLC_prefetch_requested 0
Core_0_LLC_prefetch_issued 0
Core_0_LLC_prefetch_useful 0
Core_0_LLC_prefetch_useless 0
Core_0_LLC_prefetch_late 0
Core_0_LLC_prefetch_accuracy 0
Core_0_LLC_prefetch_coverage 0

[DRAM Statistics]
Channel_0_RQ_row_buffer_hit 16477
Channel_0_RQ_row_buffer_miss 2742252
Channel_0_WQ_row_buffer_hit 17519
Channel_0_WQ_row_buffer_miss 43871
Channel_0_WQ_full 0
Channel_0_dbus_congested 5975602
DRAM_total_RQ_row_buffer_hit 16477
DRAM_total_RQ_row_buffer_miss 2742252
DRAM_total_WQ_row_buffer_hit 17519
DRAM_total_WQ_row_buffer_miss 43871
DRAM_total_WQ_full 0
DRAM_total_dbus_congested 5975602
DRAM_avg_congested_cycle 3.92618

======STLB miss causes ========
Core_0_STLB_miss_cause_breakdown
Core_0_STLB_cause_Demand_Data_miss 0
Core_0_STLB_cause_Demand_Data_miss_rate 0
Core_0_STLB_cause_Demand_Instruction_miss 0
Core_0_STLB_cause_Demand_Instruction_miss_rate 0
Core_0_STLB_cause_L1D_Prefetch_miss 0
Core_0_STLB_cause_L1D_Prefetch_miss_rate 0
Core_0_STLB_cause_L1I_Prefetch_miss 0
Core_0_STLB_cause_L1I_Prefetch_miss_rate 0
Core_0_STLB_cause_Other_miss 0
Core_0_STLB_cause_Other_miss_rate 0
Core_0_STLB_Demand_miss 0
Core_0_STLB_Demand_miss_rate 0
Core_0_STLB_L1D_Prefetch_miss 0
Core_0_STLB_L1D_Prefetch_miss_rate 0
Core_0_STLB_Other_miss 0
Core_0_STLB_Other_miss_rate 0
