[VMEM] WARNING: physical memory size is smaller than virtual memory size.

*** ChampSim Multicore Out-of-Order Simulator ***
Warmup Instructions: 20000000
Simulation Instructions: 50000000
Number of CPUs: 1
Page size: 4096
STLB ideal mode: all
Core 0: /data0/tzh/champsim_traces/Ligra/ligra_Radii.com-lj.ungraph.gcc_6.3.0_O3.drop_36000M.length_250M.champsimtrace.xz
 L1D Berti prefetcher
Off-chip DRAM Size: 16 GiB Channels: 1 Width: 64-bit Data Rate: 3205 MT/s
Warmup halting CPU 0 at instruction 20000000 cycle 4004345 for remainder of phase
Warmup finished CPU 0 instructions: 20000000 cycles: 4004345 cumulative IPC: 4.995 (Simulation time: 00 hr 01 min 12 sec)
Warmup complete CPU 0 instructions: 20000000 cycles: 4004345 cumulative IPC: 4.995 (Simulation time: 00 hr 01 min 12 sec)
Simulation finished CPU 0 instructions: 50000002 cycles: 168476226 cumulative IPC: 0.2968 (Simulation time: 00 hr 12 min 39 sec)
Simulation complete CPU 0 instructions: 50000002 cycles: 168476226 cumulative IPC: 0.2968 (Simulation time: 00 hr 12 min 39 sec)

ChampSim completed all CPUs

=== Simulation ===
CPU 0 runs /data0/tzh/champsim_traces/Ligra/ligra_Radii.com-lj.ungraph.gcc_6.3.0_O3.drop_36000M.length_250M.champsimtrace.xz

Region of Interest Statistics

CPU 0 cumulative IPC: 0.2968 instructions: 50000002 cycles: 168476226
CPU 0 Branch Prediction Accuracy: 88.74% MPKI: 29.7 Average ROB Occupancy at Mispredict: 14.97
Branch type MPKI
BRANCH_DIRECT_JUMP: 0
BRANCH_INDIRECT: 0
BRANCH_CONDITIONAL: 29.7
BRANCH_DIRECT_CALL: 0
BRANCH_INDIRECT_CALL: 0
BRANCH_RETURN: 0

cpu0->cpu0_STLB TOTAL        ACCESS:    1872130 HIT:    1872130 MISS:          0 MSHR_MERGE:          0
cpu0->cpu0_STLB LOAD         ACCESS:    1872130 HIT:    1872130 MISS:          0 MSHR_MERGE:          0
cpu0->cpu0_STLB RFO          ACCESS:          0 HIT:          0 MISS:          0 MSHR_MERGE:          0
cpu0->cpu0_STLB PREFETCH     ACCESS:          0 HIT:          0 MISS:          0 MSHR_MERGE:          0
cpu0->cpu0_STLB WRITE        ACCESS:          0 HIT:          0 MISS:          0 MSHR_MERGE:          0
cpu0->cpu0_STLB TRANSLATION  ACCESS:          0 HIT:          0 MISS:          0 MSHR_MERGE:          0
cpu0->cpu0_STLB PREFETCH REQUESTED:          0 ISSUED:          0 USEFUL:          0 USELESS:          0 LATE:          0
cpu0->cpu0_STLB AVERAGE MISS LATENCY: - cycles
cpu0->cpu0_L2C TOTAL        ACCESS:    8709298 HIT:    4379065 MISS:    4330233 MSHR_MERGE:     280364
cpu0->cpu0_L2C LOAD         ACCESS:    1972672 HIT:     501892 MISS:    1470780 MSHR_MERGE:       3539
cpu0->cpu0_L2C RFO          ACCESS:      11092 HIT:        104 MISS:      10988 MSHR_MERGE:          0
cpu0->cpu0_L2C PREFETCH     ACCESS:    6610855 HIT:    3762398 MISS:    2848457 MSHR_MERGE:     276825
cpu0->cpu0_L2C WRITE        ACCESS:     114679 HIT:     114671 MISS:          8 MSHR_MERGE:          0
cpu0->cpu0_L2C TRANSLATION  ACCESS:          0 HIT:          0 MISS:          0 MSHR_MERGE:          0
cpu0->cpu0_L2C PREFETCH REQUESTED:    5771772 ISSUED:    5713058 USEFUL:     935557 USELESS:    1436988 LATE:       3539
cpu0->cpu0_L2C AVERAGE MISS LATENCY: 83.31 cycles
cpu0->cpu0_L1I TOTAL        ACCESS:     642655 HIT:     642655 MISS:          0 MSHR_MERGE:          0
cpu0->cpu0_L1I LOAD         ACCESS:     642655 HIT:     642655 MISS:          0 MSHR_MERGE:          0
cpu0->cpu0_L1I RFO          ACCESS:          0 HIT:          0 MISS:          0 MSHR_MERGE:          0
cpu0->cpu0_L1I PREFETCH     ACCESS:          0 HIT:          0 MISS:          0 MSHR_MERGE:          0
cpu0->cpu0_L1I WRITE        ACCESS:          0 HIT:          0 MISS:          0 MSHR_MERGE:          0
cpu0->cpu0_L1I TRANSLATION  ACCESS:          0 HIT:          0 MISS:          0 MSHR_MERGE:          0
cpu0->cpu0_L1I PREFETCH REQUESTED:          0 ISSUED:          0 USEFUL:          0 USELESS:          0 LATE:          0
cpu0->cpu0_L1I AVERAGE MISS LATENCY: - cycles
cpu0->cpu0_L1D TOTAL        ACCESS:   16978064 HIT:   13985772 MISS:    2992292 MSHR_MERGE:     110727
cpu0->cpu0_L1D LOAD         ACCESS:   13924587 HIT:   11860691 MISS:    2063896 MSHR_MERGE:      91224
cpu0->cpu0_L1D RFO          ACCESS:          0 HIT:          0 MISS:          0 MSHR_MERGE:          0
cpu0->cpu0_L1D PREFETCH     ACCESS:    1100958 HIT:     201367 MISS:     899591 MSHR_MERGE:       1790
cpu0->cpu0_L1D WRITE        ACCESS:    1952519 HIT:    1923714 MISS:      28805 MSHR_MERGE:      17713
cpu0->cpu0_L1D TRANSLATION  ACCESS:          0 HIT:          0 MISS:          0 MSHR_MERGE:          0
cpu0->cpu0_L1D PREFETCH REQUESTED:    1101473 ISSUED:    1100955 USEFUL:     643361 USELESS:     254440 LATE:       6177
cpu0->cpu0_L1D AVERAGE MISS LATENCY: 71.13 cycles
cpu0->cpu0_ITLB TOTAL        ACCESS:     496372 HIT:     496372 MISS:          0 MSHR_MERGE:          0
cpu0->cpu0_ITLB LOAD         ACCESS:     496372 HIT:     496372 MISS:          0 MSHR_MERGE:          0
cpu0->cpu0_ITLB RFO          ACCESS:          0 HIT:          0 MISS:          0 MSHR_MERGE:          0
cpu0->cpu0_ITLB PREFETCH     ACCESS:          0 HIT:          0 MISS:          0 MSHR_MERGE:          0
cpu0->cpu0_ITLB WRITE        ACCESS:          0 HIT:          0 MISS:          0 MSHR_MERGE:          0
cpu0->cpu0_ITLB TRANSLATION  ACCESS:          0 HIT:          0 MISS:          0 MSHR_MERGE:          0
cpu0->cpu0_ITLB PREFETCH REQUESTED:          0 ISSUED:          0 USEFUL:          0 USELESS:          0 LATE:          0
cpu0->cpu0_ITLB AVERAGE MISS LATENCY: - cycles
cpu0->cpu0_DTLB TOTAL        ACCESS:   16748398 HIT:   14778484 MISS:    1969914 MSHR_MERGE:      97784
cpu0->cpu0_DTLB LOAD         ACCESS:   16748398 HIT:   14778484 MISS:    1969914 MSHR_MERGE:      97784
cpu0->cpu0_DTLB RFO          ACCESS:          0 HIT:          0 MISS:          0 MSHR_MERGE:          0
cpu0->cpu0_DTLB PREFETCH     ACCESS:          0 HIT:          0 MISS:          0 MSHR_MERGE:          0
cpu0->cpu0_DTLB WRITE        ACCESS:          0 HIT:          0 MISS:          0 MSHR_MERGE:          0
cpu0->cpu0_DTLB TRANSLATION  ACCESS:          0 HIT:          0 MISS:          0 MSHR_MERGE:          0
cpu0->cpu0_DTLB PREFETCH REQUESTED:          0 ISSUED:          0 USEFUL:          0 USELESS:          0 LATE:          0
cpu0->cpu0_DTLB AVERAGE MISS LATENCY: 5.008 cycles
cpu0->LLC TOTAL        ACCESS:    4164422 HIT:    2251042 MISS:    1913380 MSHR_MERGE:          0
cpu0->LLC LOAD         ACCESS:    1467241 HIT:     991648 MISS:     475593 MSHR_MERGE:          0
cpu0->LLC RFO          ACCESS:      10988 HIT:          0 MISS:      10988 MSHR_MERGE:          0
cpu0->LLC PREFETCH     ACCESS:    2571632 HIT:    1227816 MISS:    1343816 MSHR_MERGE:          0
cpu0->LLC WRITE        ACCESS:     114561 HIT:      31578 MISS:      82983 MSHR_MERGE:          0
cpu0->LLC TRANSLATION  ACCESS:          0 HIT:          0 MISS:          0 MSHR_MERGE:          0
cpu0->LLC PREFETCH REQUESTED:          0 ISSUED:          0 USEFUL:          0 USELESS:          0 LATE:          0
cpu0->LLC AVERAGE MISS LATENCY: 177.5 cycles

DRAM Statistics

Channel 0 RQ ROW_BUFFER_HIT:      15777
  ROW_BUFFER_MISS:    1814619
  AVG DBUS CONGESTED CYCLE: 14.23
Channel 0 WQ ROW_BUFFER_HIT:      34888
  ROW_BUFFER_MISS:      80779
  FULL:          0
Channel 0 REFRESHES ISSUED:      14040

[ROI Statistics]
[System Configuration]
num_cpus 1
cpu_freq 4000
fetch_width 6
decode_width 6
dispatch_width 6
execute_width 6
lq_width 2
sq_width 2
retire_width 6
scheduler_size 128
branch_mispredict_penalty 15
rob_size 352
lq_size 128
sq_size 72
ifetch_buffer_size 64
decode_buffer_size 32
dispatch_buffer_size 32
register_file_size 288
decode_latency 1
dispatch_latency 1
schedule_latency 1
execute_latency 1
page_size 4096
block_size 64
core_0_itlb_set 16
core_0_itlb_way 4
core_0_itlb_rq_size 16
core_0_itlb_wq_size 16
core_0_itlb_pq_size 0
core_0_itlb_mshr_size 8
core_0_itlb_hit_latency 1
core_0_itlb_fill_latency 1
core_0_itlb_max_tag_check 2
core_0_itlb_max_fill 2
core_0_dtlb_set 16
core_0_dtlb_way 4
core_0_dtlb_rq_size 16
core_0_dtlb_wq_size 16
core_0_dtlb_pq_size 0
core_0_dtlb_mshr_size 8
core_0_dtlb_hit_latency 1
core_0_dtlb_fill_latency 1
core_0_dtlb_max_tag_check 2
core_0_dtlb_max_fill 2
core_0_stlb_set 128
core_0_stlb_way 12
core_0_stlb_rq_size 32
core_0_stlb_wq_size 32
core_0_stlb_pq_size 0
core_0_stlb_mshr_size 16
core_0_stlb_hit_latency 4
core_0_stlb_fill_latency 4
core_0_stlb_max_tag_check 1
core_0_stlb_max_fill 1
core_0_l1i_set 64
core_0_l1i_way 8
core_0_l1i_rq_size 64
core_0_l1i_wq_size 64
core_0_l1i_pq_size 32
core_0_l1i_mshr_size 8
core_0_l1i_hit_latency 2
core_0_l1i_fill_latency 2
core_0_l1i_max_tag_check 2
core_0_l1i_max_fill 2
core_0_l1d_set 64
core_0_l1d_way 12
core_0_l1d_rq_size 64
core_0_l1d_wq_size 64
core_0_l1d_pq_size 8
core_0_l1d_mshr_size 16
core_0_l1d_hit_latency 2
core_0_l1d_fill_latency 3
core_0_l1d_max_tag_check 2
core_0_l1d_max_fill 2
core_0_l2c_set 1024
core_0_l2c_way 8
core_0_l2c_rq_size 32
core_0_l2c_wq_size 32
core_0_l2c_pq_size 16
core_0_l2c_mshr_size 32
core_0_l2c_hit_latency 5
core_0_l2c_fill_latency 5
core_0_l2c_max_tag_check 1
core_0_l2c_max_fill 1
llc_set 2048
llc_way 16
llc_rq_size 32
llc_wq_size 32
llc_pq_size 32
llc_mshr_size 64
llc_hit_latency 10
llc_fill_latency 10
llc_max_tag_check 1
llc_max_fill 1
dram_channels 1
dram_ranks 1
dram_bankgroups 8
dram_banks 4
dram_rows 65536
dram_columns 1024
dram_channel_width 8
dram_rq_size 64
dram_wq_size 64
dram_size 17179869184
core_0_itlb_prefetcher no
core_0_dtlb_prefetcher no
core_0_stlb_prefetcher no
core_0_l1i_prefetcher next_line
core_0_l1d_prefetcher berti
core_0_l2c_prefetcher pythia
llc_prefetcher no
llc_replacement drrip

Core_0_instructions 50000002
Core_0_cycles 168476226
Core_0_IPC 0.296778
Core_0_branch_prediction_accuracy 88.737
Core_0_branch_MPKI 29.7027
Core_0_average_ROB_occupancy_at_mispredict 14.973

Core_0_ITLB_total_access 496372
Core_0_ITLB_total_hit 496372
Core_0_ITLB_total_miss 0
Core_0_ITLB_total_MPKI 0
Core_0_ITLB_total_miss_rate 0
Core_0_ITLB_demand_access 496372
Core_0_ITLB_demand_hit 496372
Core_0_ITLB_demand_miss 0
Core_0_ITLB_demand_MPKI 0
Core_0_ITLB_demand_miss_rate 0
Core_0_ITLB_load_access 496372
Core_0_ITLB_load_hit 496372
Core_0_ITLB_load_miss 0
Core_0_ITLB_load_MPKI 0
Core_0_ITLB_load_miss_rate 0
Core_0_ITLB_rfo_access 0
Core_0_ITLB_rfo_hit 0
Core_0_ITLB_rfo_miss 0
Core_0_ITLB_rfo_MPKI 0
Core_0_ITLB_rfo_miss_rate 0
Core_0_ITLB_prefetch_access 0
Core_0_ITLB_prefetch_hit 0
Core_0_ITLB_prefetch_miss 0
Core_0_ITLB_prefetch_MPKI 0
Core_0_ITLB_prefetch_miss_rate 0
Core_0_ITLB_writeback_access 0
Core_0_ITLB_writeback_hit 0
Core_0_ITLB_writeback_miss 0
Core_0_ITLB_writeback_MPKI 0
Core_0_ITLB_writeback_miss_rate 0
Core_0_ITLB_prefetch_requested 0
Core_0_ITLB_prefetch_issued 0
Core_0_ITLB_prefetch_useful 0
Core_0_ITLB_prefetch_useless 0
Core_0_ITLB_prefetch_late 0
Core_0_ITLB_prefetch_accuracy 0
Core_0_ITLB_prefetch_coverage 0

Core_0_DTLB_total_access 16748398
Core_0_DTLB_total_hit 14778484
Core_0_DTLB_total_miss 1969914
Core_0_DTLB_total_MPKI 39.3983
Core_0_DTLB_total_miss_rate 0.117618
Core_0_DTLB_demand_access 16748398
Core_0_DTLB_demand_hit 14778484
Core_0_DTLB_demand_miss 1969914
Core_0_DTLB_demand_MPKI 39.3983
Core_0_DTLB_demand_miss_rate 0.117618
Core_0_DTLB_load_access 16748398
Core_0_DTLB_load_hit 14778484
Core_0_DTLB_load_miss 1969914
Core_0_DTLB_load_MPKI 39.3983
Core_0_DTLB_load_miss_rate 0.117618
Core_0_DTLB_rfo_access 0
Core_0_DTLB_rfo_hit 0
Core_0_DTLB_rfo_miss 0
Core_0_DTLB_rfo_MPKI 0
Core_0_DTLB_rfo_miss_rate 0
Core_0_DTLB_prefetch_access 0
Core_0_DTLB_prefetch_hit 0
Core_0_DTLB_prefetch_miss 0
Core_0_DTLB_prefetch_MPKI 0
Core_0_DTLB_prefetch_miss_rate 0
Core_0_DTLB_writeback_access 0
Core_0_DTLB_writeback_hit 0
Core_0_DTLB_writeback_miss 0
Core_0_DTLB_writeback_MPKI 0
Core_0_DTLB_writeback_miss_rate 0
Core_0_DTLB_prefetch_requested 0
Core_0_DTLB_prefetch_issued 0
Core_0_DTLB_prefetch_useful 0
Core_0_DTLB_prefetch_useless 0
Core_0_DTLB_prefetch_late 0
Core_0_DTLB_prefetch_accuracy 0
Core_0_DTLB_prefetch_coverage 0

Core_0_STLB_total_access 1872130
Core_0_STLB_total_hit 1872130
Core_0_STLB_total_miss 0
Core_0_STLB_total_MPKI 0
Core_0_STLB_total_miss_rate 0
Core_0_STLB_demand_access 1872130
Core_0_STLB_demand_hit 1872130
Core_0_STLB_demand_miss 0
Core_0_STLB_demand_MPKI 0
Core_0_STLB_demand_miss_rate 0
Core_0_STLB_load_access 1872130
Core_0_STLB_load_hit 1872130
Core_0_STLB_load_miss 0
Core_0_STLB_load_MPKI 0
Core_0_STLB_load_miss_rate 0
Core_0_STLB_rfo_access 0
Core_0_STLB_rfo_hit 0
Core_0_STLB_rfo_miss 0
Core_0_STLB_rfo_MPKI 0
Core_0_STLB_rfo_miss_rate 0
Core_0_STLB_prefetch_access 0
Core_0_STLB_prefetch_hit 0
Core_0_STLB_prefetch_miss 0
Core_0_STLB_prefetch_MPKI 0
Core_0_STLB_prefetch_miss_rate 0
Core_0_STLB_writeback_access 0
Core_0_STLB_writeback_hit 0
Core_0_STLB_writeback_miss 0
Core_0_STLB_writeback_MPKI 0
Core_0_STLB_writeback_miss_rate 0
Core_0_STLB_prefetch_requested 0
Core_0_STLB_prefetch_issued 0
Core_0_STLB_prefetch_useful 0
Core_0_STLB_prefetch_useless 0
Core_0_STLB_prefetch_late 0
Core_0_STLB_prefetch_accuracy 0
Core_0_STLB_prefetch_coverage 0

Core_0_L1I_total_access 642655
Core_0_L1I_total_hit 642655
Core_0_L1I_total_miss 0
Core_0_L1I_total_MPKI 0
Core_0_L1I_total_miss_rate 0
Core_0_L1I_demand_access 642655
Core_0_L1I_demand_hit 642655
Core_0_L1I_demand_miss 0
Core_0_L1I_demand_MPKI 0
Core_0_L1I_demand_miss_rate 0
Core_0_L1I_load_access 642655
Core_0_L1I_load_hit 642655
Core_0_L1I_load_miss 0
Core_0_L1I_load_MPKI 0
Core_0_L1I_load_miss_rate 0
Core_0_L1I_rfo_access 0
Core_0_L1I_rfo_hit 0
Core_0_L1I_rfo_miss 0
Core_0_L1I_rfo_MPKI 0
Core_0_L1I_rfo_miss_rate 0
Core_0_L1I_prefetch_access 0
Core_0_L1I_prefetch_hit 0
Core_0_L1I_prefetch_miss 0
Core_0_L1I_prefetch_MPKI 0
Core_0_L1I_prefetch_miss_rate 0
Core_0_L1I_writeback_access 0
Core_0_L1I_writeback_hit 0
Core_0_L1I_writeback_miss 0
Core_0_L1I_writeback_MPKI 0
Core_0_L1I_writeback_miss_rate 0
Core_0_L1I_prefetch_requested 0
Core_0_L1I_prefetch_issued 0
Core_0_L1I_prefetch_useful 0
Core_0_L1I_prefetch_useless 0
Core_0_L1I_prefetch_late 0
Core_0_L1I_prefetch_accuracy 0
Core_0_L1I_prefetch_coverage 0

Core_0_L1D_total_access 16978064
Core_0_L1D_total_hit 13985772
Core_0_L1D_total_miss 2992292
Core_0_L1D_total_MPKI 59.8458
Core_0_L1D_total_miss_rate 0.176245
Core_0_L1D_demand_access 13924587
Core_0_L1D_demand_hit 11860691
Core_0_L1D_demand_miss 2063896
Core_0_L1D_demand_MPKI 41.2779
Core_0_L1D_demand_miss_rate 0.14822
Core_0_L1D_load_access 13924587
Core_0_L1D_load_hit 11860691
Core_0_L1D_load_miss 2063896
Core_0_L1D_load_MPKI 41.2779
Core_0_L1D_load_miss_rate 0.14822
Core_0_L1D_rfo_access 0
Core_0_L1D_rfo_hit 0
Core_0_L1D_rfo_miss 0
Core_0_L1D_rfo_MPKI 0
Core_0_L1D_rfo_miss_rate 0
Core_0_L1D_prefetch_access 1100958
Core_0_L1D_prefetch_hit 201367
Core_0_L1D_prefetch_miss 899591
Core_0_L1D_prefetch_MPKI 17.9918
Core_0_L1D_prefetch_miss_rate 0.817098
Core_0_L1D_writeback_access 1952519
Core_0_L1D_writeback_hit 1923714
Core_0_L1D_writeback_miss 28805
Core_0_L1D_writeback_MPKI 0.5761
Core_0_L1D_writeback_miss_rate 0.0147527
Core_0_L1D_prefetch_requested 1101473
Core_0_L1D_prefetch_issued 1100955
Core_0_L1D_prefetch_useful 643361
Core_0_L1D_prefetch_useless 254440
Core_0_L1D_prefetch_late 6177
Core_0_L1D_prefetch_accuracy 0.584366
Core_0_L1D_prefetch_coverage 0.237643

Core_0_L2C_total_access 8709298
Core_0_L2C_total_hit 4379065
Core_0_L2C_total_miss 4330233
Core_0_L2C_total_MPKI 86.6047
Core_0_L2C_total_miss_rate 0.497197
Core_0_L2C_demand_access 1983764
Core_0_L2C_demand_hit 501996
Core_0_L2C_demand_miss 1481768
Core_0_L2C_demand_MPKI 29.6354
Core_0_L2C_demand_miss_rate 0.746948
Core_0_L2C_load_access 1972672
Core_0_L2C_load_hit 501892
Core_0_L2C_load_miss 1470780
Core_0_L2C_load_MPKI 29.4156
Core_0_L2C_load_miss_rate 0.745578
Core_0_L2C_rfo_access 11092
Core_0_L2C_rfo_hit 104
Core_0_L2C_rfo_miss 10988
Core_0_L2C_rfo_MPKI 0.21976
Core_0_L2C_rfo_miss_rate 0.990624
Core_0_L2C_prefetch_access 6610855
Core_0_L2C_prefetch_hit 3762398
Core_0_L2C_prefetch_miss 2848457
Core_0_L2C_prefetch_MPKI 56.9691
Core_0_L2C_prefetch_miss_rate 0.430876
Core_0_L2C_writeback_access 114679
Core_0_L2C_writeback_hit 114671
Core_0_L2C_writeback_miss 8
Core_0_L2C_writeback_MPKI 0.00016
Core_0_L2C_writeback_miss_rate 6.97599e-05
Core_0_L2C_prefetch_requested 5771772
Core_0_L2C_prefetch_issued 5713058
Core_0_L2C_prefetch_useful 935557
Core_0_L2C_prefetch_useless 1436988
Core_0_L2C_prefetch_late 3539
Core_0_L2C_prefetch_accuracy 0.163758
Core_0_L2C_prefetch_coverage 0.387022

Core_0_LLC_total_access 4164422
Core_0_LLC_total_hit 2251042
Core_0_LLC_total_miss 1913380
Core_0_LLC_total_MPKI 38.2676
Core_0_LLC_total_miss_rate 0.459459
Core_0_LLC_demand_access 1478229
Core_0_LLC_demand_hit 991648
Core_0_LLC_demand_miss 486581
Core_0_LLC_demand_MPKI 9.73162
Core_0_LLC_demand_miss_rate 0.329165
Core_0_LLC_load_access 1467241
Core_0_LLC_load_hit 991648
Core_0_LLC_load_miss 475593
Core_0_LLC_load_MPKI 9.51186
Core_0_LLC_load_miss_rate 0.324141
Core_0_LLC_rfo_access 10988
Core_0_LLC_rfo_hit 0
Core_0_LLC_rfo_miss 10988
Core_0_LLC_rfo_MPKI 0.21976
Core_0_LLC_rfo_miss_rate 1
Core_0_LLC_prefetch_access 2571632
Core_0_LLC_prefetch_hit 1227816
Core_0_LLC_prefetch_miss 1343816
Core_0_LLC_prefetch_MPKI 26.8763
Core_0_LLC_prefetch_miss_rate 0.522554
Core_0_LLC_writeback_access 114561
Core_0_LLC_writeback_hit 31578
Core_0_LLC_writeback_miss 82983
Core_0_LLC_writeback_MPKI 1.65966
Core_0_LLC_writeback_miss_rate 0.724356
Core_0_LLC_prefetch_requested 0
Core_0_LLC_prefetch_issued 0
Core_0_LLC_prefetch_useful 0
Core_0_LLC_prefetch_useless 0
Core_0_LLC_prefetch_late 0
Core_0_LLC_prefetch_accuracy 0
Core_0_LLC_prefetch_coverage 0

[DRAM Statistics]
Channel_0_RQ_row_buffer_hit 15777
Channel_0_RQ_row_buffer_miss 1814619
Channel_0_WQ_row_buffer_hit 34888
Channel_0_WQ_row_buffer_miss 80779
Channel_0_WQ_full 0
Channel_0_dbus_congested 3774572
DRAM_total_RQ_row_buffer_hit 15777
DRAM_total_RQ_row_buffer_miss 1814619
DRAM_total_WQ_row_buffer_hit 34888
DRAM_total_WQ_row_buffer_miss 80779
DRAM_total_WQ_full 0
DRAM_total_dbus_congested 3774572
DRAM_avg_congested_cycle 14.2346

======STLB miss causes ========
Core_0_STLB_miss_cause_breakdown
Core_0_STLB_cause_Demand_Data_miss 0
Core_0_STLB_cause_Demand_Data_miss_rate 0
Core_0_STLB_cause_Demand_Instruction_miss 0
Core_0_STLB_cause_Demand_Instruction_miss_rate 0
Core_0_STLB_cause_L1D_Prefetch_miss 0
Core_0_STLB_cause_L1D_Prefetch_miss_rate 0
Core_0_STLB_cause_L1I_Prefetch_miss 0
Core_0_STLB_cause_L1I_Prefetch_miss_rate 0
Core_0_STLB_cause_Other_miss 0
Core_0_STLB_cause_Other_miss_rate 0
Core_0_STLB_Demand_miss 0
Core_0_STLB_Demand_miss_rate 0
Core_0_STLB_L1D_Prefetch_miss 0
Core_0_STLB_L1D_Prefetch_miss_rate 0
Core_0_STLB_Other_miss 0
Core_0_STLB_Other_miss_rate 0
