[VMEM] WARNING: physical memory size is smaller than virtual memory size.

*** ChampSim Multicore Out-of-Order Simulator ***
Warmup Instructions: 20000000
Simulation Instructions: 50000000
Number of CPUs: 1
Page size: 4096
STLB ideal mode: all
Core 0: /data0/tzh/champsim_traces/Ligra/ligra_BellmanFord.com-lj.ungraph.gcc_6.3.0_O3.drop_33750M.length_250M.champsimtrace.xz
 L1D Berti prefetcher
Off-chip DRAM Size: 16 GiB Channels: 1 Width: 64-bit Data Rate: 3205 MT/s
Warmup halting CPU 0 at instruction 20000000 cycle 4005741 for remainder of phase
Warmup finished CPU 0 instructions: 20000000 cycles: 4005741 cumulative IPC: 4.993 (Simulation time: 00 hr 00 min 59 sec)
Warmup complete CPU 0 instructions: 20000000 cycles: 4005741 cumulative IPC: 4.993 (Simulation time: 00 hr 00 min 59 sec)
Simulation finished CPU 0 instructions: 50000001 cycles: 96424127 cumulative IPC: 0.5185 (Simulation time: 00 hr 09 min 32 sec)
Simulation complete CPU 0 instructions: 50000001 cycles: 96424127 cumulative IPC: 0.5185 (Simulation time: 00 hr 09 min 32 sec)

ChampSim completed all CPUs

=== Simulation ===
CPU 0 runs /data0/tzh/champsim_traces/Ligra/ligra_BellmanFord.com-lj.ungraph.gcc_6.3.0_O3.drop_33750M.length_250M.champsimtrace.xz

Region of Interest Statistics

CPU 0 cumulative IPC: 0.5185 instructions: 50000001 cycles: 96424127
CPU 0 Branch Prediction Accuracy: 93.04% MPKI: 9.926 Average ROB Occupancy at Mispredict: 51.69
Branch type MPKI
BRANCH_DIRECT_JUMP: 0.4477
BRANCH_INDIRECT: 0
BRANCH_CONDITIONAL: 9.478
BRANCH_DIRECT_CALL: 0
BRANCH_INDIRECT_CALL: 0
BRANCH_RETURN: 0

cpu0->cpu0_STLB TOTAL        ACCESS:    1005114 HIT:    1005114 MISS:          0 MSHR_MERGE:          0
cpu0->cpu0_STLB LOAD         ACCESS:    1005114 HIT:    1005114 MISS:          0 MSHR_MERGE:          0
cpu0->cpu0_STLB RFO          ACCESS:          0 HIT:          0 MISS:          0 MSHR_MERGE:          0
cpu0->cpu0_STLB PREFETCH     ACCESS:          0 HIT:          0 MISS:          0 MSHR_MERGE:          0
cpu0->cpu0_STLB WRITE        ACCESS:          0 HIT:          0 MISS:          0 MSHR_MERGE:          0
cpu0->cpu0_STLB TRANSLATION  ACCESS:          0 HIT:          0 MISS:          0 MSHR_MERGE:          0
cpu0->cpu0_STLB PREFETCH REQUESTED:          0 ISSUED:          0 USEFUL:          0 USELESS:          0 LATE:          0
cpu0->cpu0_STLB AVERAGE MISS LATENCY: - cycles
cpu0->cpu0_L2C TOTAL        ACCESS:    6642615 HIT:    2767744 MISS:    3874871 MSHR_MERGE:     910834
cpu0->cpu0_L2C LOAD         ACCESS:    1332194 HIT:     317677 MISS:    1014517 MSHR_MERGE:      30575
cpu0->cpu0_L2C RFO          ACCESS:      39822 HIT:       3486 MISS:      36336 MSHR_MERGE:          0
cpu0->cpu0_L2C PREFETCH     ACCESS:    5136252 HIT:    2312255 MISS:    2823997 MSHR_MERGE:     880259
cpu0->cpu0_L2C WRITE        ACCESS:     134347 HIT:     134326 MISS:         21 MSHR_MERGE:          0
cpu0->cpu0_L2C TRANSLATION  ACCESS:          0 HIT:          0 MISS:          0 MSHR_MERGE:          0
cpu0->cpu0_L2C PREFETCH REQUESTED:    4556230 ISSUED:    4471834 USEFUL:     612298 USELESS:    1173096 LATE:      30575
cpu0->cpu0_L2C AVERAGE MISS LATENCY: 209 cycles
cpu0->cpu0_L1I TOTAL        ACCESS:    1001944 HIT:    1001942 MISS:          2 MSHR_MERGE:          0
cpu0->cpu0_L1I LOAD         ACCESS:    1001944 HIT:    1001942 MISS:          2 MSHR_MERGE:          0
cpu0->cpu0_L1I RFO          ACCESS:          0 HIT:          0 MISS:          0 MSHR_MERGE:          0
cpu0->cpu0_L1I PREFETCH     ACCESS:          0 HIT:          0 MISS:          0 MSHR_MERGE:          0
cpu0->cpu0_L1I WRITE        ACCESS:          0 HIT:          0 MISS:          0 MSHR_MERGE:          0
cpu0->cpu0_L1I TRANSLATION  ACCESS:          0 HIT:          0 MISS:          0 MSHR_MERGE:          0
cpu0->cpu0_L1I PREFETCH REQUESTED:          0 ISSUED:          0 USEFUL:          0 USELESS:          0 LATE:          0
cpu0->cpu0_L1I AVERAGE MISS LATENCY: 194 cycles
cpu0->cpu0_L1D TOTAL        ACCESS:   12885694 HIT:   10235774 MISS:    2649920 MSHR_MERGE:     613487
cpu0->cpu0_L1D LOAD         ACCESS:   11868253 HIT:    9944418 MISS:    1923835 MSHR_MERGE:     591642
cpu0->cpu0_L1D RFO          ACCESS:          0 HIT:          0 MISS:          0 MSHR_MERGE:          0
cpu0->cpu0_L1D PREFETCH     ACCESS:     789364 HIT:     115962 MISS:     673402 MSHR_MERGE:       8984
cpu0->cpu0_L1D WRITE        ACCESS:     228077 HIT:     175394 MISS:      52683 MSHR_MERGE:      12861
cpu0->cpu0_L1D TRANSLATION  ACCESS:          0 HIT:          0 MISS:          0 MSHR_MERGE:          0
cpu0->cpu0_L1D PREFETCH REQUESTED:     789913 ISSUED:     789360 USEFUL:     411585 USELESS:     252861 LATE:      29940
cpu0->cpu0_L1D AVERAGE MISS LATENCY: 168.4 cycles
cpu0->cpu0_ITLB TOTAL        ACCESS:    1001942 HIT:    1001942 MISS:          0 MSHR_MERGE:          0
cpu0->cpu0_ITLB LOAD         ACCESS:    1001942 HIT:    1001942 MISS:          0 MSHR_MERGE:          0
cpu0->cpu0_ITLB RFO          ACCESS:          0 HIT:          0 MISS:          0 MSHR_MERGE:          0
cpu0->cpu0_ITLB PREFETCH     ACCESS:          0 HIT:          0 MISS:          0 MSHR_MERGE:          0
cpu0->cpu0_ITLB WRITE        ACCESS:          0 HIT:          0 MISS:          0 MSHR_MERGE:          0
cpu0->cpu0_ITLB TRANSLATION  ACCESS:          0 HIT:          0 MISS:          0 MSHR_MERGE:          0
cpu0->cpu0_ITLB PREFETCH REQUESTED:          0 ISSUED:          0 USEFUL:          0 USELESS:          0 LATE:          0
cpu0->cpu0_ITLB AVERAGE MISS LATENCY: - cycles
cpu0->cpu0_DTLB TOTAL        ACCESS:   12667905 HIT:   11573882 MISS:    1094023 MSHR_MERGE:      88909
cpu0->cpu0_DTLB LOAD         ACCESS:   12667905 HIT:   11573882 MISS:    1094023 MSHR_MERGE:      88909
cpu0->cpu0_DTLB RFO          ACCESS:          0 HIT:          0 MISS:          0 MSHR_MERGE:          0
cpu0->cpu0_DTLB PREFETCH     ACCESS:          0 HIT:          0 MISS:          0 MSHR_MERGE:          0
cpu0->cpu0_DTLB WRITE        ACCESS:          0 HIT:          0 MISS:          0 MSHR_MERGE:          0
cpu0->cpu0_DTLB TRANSLATION  ACCESS:          0 HIT:          0 MISS:          0 MSHR_MERGE:          0
cpu0->cpu0_DTLB PREFETCH REQUESTED:          0 ISSUED:          0 USEFUL:          0 USELESS:          0 LATE:          0
cpu0->cpu0_DTLB AVERAGE MISS LATENCY: 5.002 cycles
cpu0->LLC TOTAL        ACCESS:    3088183 HIT:     600592 MISS:    2487591 MSHR_MERGE:          0
cpu0->LLC LOAD         ACCESS:     983942 HIT:     248543 MISS:     735399 MSHR_MERGE:          0
cpu0->LLC RFO          ACCESS:      36336 HIT:       2847 MISS:      33489 MSHR_MERGE:          0
cpu0->LLC PREFETCH     ACCESS:    1943738 HIT:     316930 MISS:    1626808 MSHR_MERGE:          0
cpu0->LLC WRITE        ACCESS:     124167 HIT:      32272 MISS:      91895 MSHR_MERGE:          0
cpu0->LLC TRANSLATION  ACCESS:          0 HIT:          0 MISS:          0 MSHR_MERGE:          0
cpu0->LLC PREFETCH REQUESTED:          0 ISSUED:          0 USEFUL:          0 USELESS:          0 LATE:          0
cpu0->LLC AVERAGE MISS LATENCY: 231.1 cycles

DRAM Statistics

Channel 0 RQ ROW_BUFFER_HIT:      28439
  ROW_BUFFER_MISS:    2367148
  AVG DBUS CONGESTED CYCLE: 5.384
Channel 0 WQ ROW_BUFFER_HIT:      34868
  ROW_BUFFER_MISS:      74310
  FULL:          0
Channel 0 REFRESHES ISSUED:       8036

[ROI Statistics]
[System Configuration]
num_cpus 1
cpu_freq 4000
fetch_width 6
decode_width 6
dispatch_width 6
execute_width 6
lq_width 2
sq_width 2
retire_width 6
scheduler_size 128
branch_mispredict_penalty 15
rob_size 352
lq_size 128
sq_size 72
ifetch_buffer_size 64
decode_buffer_size 32
dispatch_buffer_size 32
register_file_size 288
decode_latency 1
dispatch_latency 1
schedule_latency 1
execute_latency 1
page_size 4096
block_size 64
core_0_itlb_set 16
core_0_itlb_way 4
core_0_itlb_rq_size 16
core_0_itlb_wq_size 16
core_0_itlb_pq_size 0
core_0_itlb_mshr_size 8
core_0_itlb_hit_latency 1
core_0_itlb_fill_latency 1
core_0_itlb_max_tag_check 2
core_0_itlb_max_fill 2
core_0_dtlb_set 16
core_0_dtlb_way 4
core_0_dtlb_rq_size 16
core_0_dtlb_wq_size 16
core_0_dtlb_pq_size 0
core_0_dtlb_mshr_size 8
core_0_dtlb_hit_latency 1
core_0_dtlb_fill_latency 1
core_0_dtlb_max_tag_check 2
core_0_dtlb_max_fill 2
core_0_stlb_set 128
core_0_stlb_way 12
core_0_stlb_rq_size 32
core_0_stlb_wq_size 32
core_0_stlb_pq_size 0
core_0_stlb_mshr_size 16
core_0_stlb_hit_latency 4
core_0_stlb_fill_latency 4
core_0_stlb_max_tag_check 1
core_0_stlb_max_fill 1
core_0_l1i_set 64
core_0_l1i_way 8
core_0_l1i_rq_size 64
core_0_l1i_wq_size 64
core_0_l1i_pq_size 32
core_0_l1i_mshr_size 8
core_0_l1i_hit_latency 2
core_0_l1i_fill_latency 2
core_0_l1i_max_tag_check 2
core_0_l1i_max_fill 2
core_0_l1d_set 64
core_0_l1d_way 12
core_0_l1d_rq_size 64
core_0_l1d_wq_size 64
core_0_l1d_pq_size 8
core_0_l1d_mshr_size 16
core_0_l1d_hit_latency 2
core_0_l1d_fill_latency 3
core_0_l1d_max_tag_check 2
core_0_l1d_max_fill 2
core_0_l2c_set 1024
core_0_l2c_way 8
core_0_l2c_rq_size 32
core_0_l2c_wq_size 32
core_0_l2c_pq_size 16
core_0_l2c_mshr_size 32
core_0_l2c_hit_latency 5
core_0_l2c_fill_latency 5
core_0_l2c_max_tag_check 1
core_0_l2c_max_fill 1
llc_set 2048
llc_way 16
llc_rq_size 32
llc_wq_size 32
llc_pq_size 32
llc_mshr_size 64
llc_hit_latency 10
llc_fill_latency 10
llc_max_tag_check 1
llc_max_fill 1
dram_channels 1
dram_ranks 1
dram_bankgroups 8
dram_banks 4
dram_rows 65536
dram_columns 1024
dram_channel_width 8
dram_rq_size 64
dram_wq_size 64
dram_size 17179869184
core_0_itlb_prefetcher no
core_0_dtlb_prefetcher no
core_0_stlb_prefetcher no
core_0_l1i_prefetcher next_line
core_0_l1d_prefetcher berti
core_0_l2c_prefetcher pythia
llc_prefetcher no
llc_replacement drrip

Core_0_instructions 50000001
Core_0_cycles 96424127
Core_0_IPC 0.518542
Core_0_branch_prediction_accuracy 93.0446
Core_0_branch_MPKI 9.92622
Core_0_average_ROB_occupancy_at_mispredict 51.6938

Core_0_ITLB_total_access 1001942
Core_0_ITLB_total_hit 1001942
Core_0_ITLB_total_miss 0
Core_0_ITLB_total_MPKI 0
Core_0_ITLB_total_miss_rate 0
Core_0_ITLB_demand_access 1001942
Core_0_ITLB_demand_hit 1001942
Core_0_ITLB_demand_miss 0
Core_0_ITLB_demand_MPKI 0
Core_0_ITLB_demand_miss_rate 0
Core_0_ITLB_load_access 1001942
Core_0_ITLB_load_hit 1001942
Core_0_ITLB_load_miss 0
Core_0_ITLB_load_MPKI 0
Core_0_ITLB_load_miss_rate 0
Core_0_ITLB_rfo_access 0
Core_0_ITLB_rfo_hit 0
Core_0_ITLB_rfo_miss 0
Core_0_ITLB_rfo_MPKI 0
Core_0_ITLB_rfo_miss_rate 0
Core_0_ITLB_prefetch_access 0
Core_0_ITLB_prefetch_hit 0
Core_0_ITLB_prefetch_miss 0
Core_0_ITLB_prefetch_MPKI 0
Core_0_ITLB_prefetch_miss_rate 0
Core_0_ITLB_writeback_access 0
Core_0_ITLB_writeback_hit 0
Core_0_ITLB_writeback_miss 0
Core_0_ITLB_writeback_MPKI 0
Core_0_ITLB_writeback_miss_rate 0
Core_0_ITLB_prefetch_requested 0
Core_0_ITLB_prefetch_issued 0
Core_0_ITLB_prefetch_useful 0
Core_0_ITLB_prefetch_useless 0
Core_0_ITLB_prefetch_late 0
Core_0_ITLB_prefetch_accuracy 0
Core_0_ITLB_prefetch_coverage 0

Core_0_DTLB_total_access 12667905
Core_0_DTLB_total_hit 11573882
Core_0_DTLB_total_miss 1094023
Core_0_DTLB_total_MPKI 21.8805
Core_0_DTLB_total_miss_rate 0.0863618
Core_0_DTLB_demand_access 12667905
Core_0_DTLB_demand_hit 11573882
Core_0_DTLB_demand_miss 1094023
Core_0_DTLB_demand_MPKI 21.8805
Core_0_DTLB_demand_miss_rate 0.0863618
Core_0_DTLB_load_access 12667905
Core_0_DTLB_load_hit 11573882
Core_0_DTLB_load_miss 1094023
Core_0_DTLB_load_MPKI 21.8805
Core_0_DTLB_load_miss_rate 0.0863618
Core_0_DTLB_rfo_access 0
Core_0_DTLB_rfo_hit 0
Core_0_DTLB_rfo_miss 0
Core_0_DTLB_rfo_MPKI 0
Core_0_DTLB_rfo_miss_rate 0
Core_0_DTLB_prefetch_access 0
Core_0_DTLB_prefetch_hit 0
Core_0_DTLB_prefetch_miss 0
Core_0_DTLB_prefetch_MPKI 0
Core_0_DTLB_prefetch_miss_rate 0
Core_0_DTLB_writeback_access 0
Core_0_DTLB_writeback_hit 0
Core_0_DTLB_writeback_miss 0
Core_0_DTLB_writeback_MPKI 0
Core_0_DTLB_writeback_miss_rate 0
Core_0_DTLB_prefetch_requested 0
Core_0_DTLB_prefetch_issued 0
Core_0_DTLB_prefetch_useful 0
Core_0_DTLB_prefetch_useless 0
Core_0_DTLB_prefetch_late 0
Core_0_DTLB_prefetch_accuracy 0
Core_0_DTLB_prefetch_coverage 0

Core_0_STLB_total_access 1005114
Core_0_STLB_total_hit 1005114
Core_0_STLB_total_miss 0
Core_0_STLB_total_MPKI 0
Core_0_STLB_total_miss_rate 0
Core_0_STLB_demand_access 1005114
Core_0_STLB_demand_hit 1005114
Core_0_STLB_demand_miss 0
Core_0_STLB_demand_MPKI 0
Core_0_STLB_demand_miss_rate 0
Core_0_STLB_load_access 1005114
Core_0_STLB_load_hit 1005114
Core_0_STLB_load_miss 0
Core_0_STLB_load_MPKI 0
Core_0_STLB_load_miss_rate 0
Core_0_STLB_rfo_access 0
Core_0_STLB_rfo_hit 0
Core_0_STLB_rfo_miss 0
Core_0_STLB_rfo_MPKI 0
Core_0_STLB_rfo_miss_rate 0
Core_0_STLB_prefetch_access 0
Core_0_STLB_prefetch_hit 0
Core_0_STLB_prefetch_miss 0
Core_0_STLB_prefetch_MPKI 0
Core_0_STLB_prefetch_miss_rate 0
Core_0_STLB_writeback_access 0
Core_0_STLB_writeback_hit 0
Core_0_STLB_writeback_miss 0
Core_0_STLB_writeback_MPKI 0
Core_0_STLB_writeback_miss_rate 0
Core_0_STLB_prefetch_requested 0
Core_0_STLB_prefetch_issued 0
Core_0_STLB_prefetch_useful 0
Core_0_STLB_prefetch_useless 0
Core_0_STLB_prefetch_late 0
Core_0_STLB_prefetch_accuracy 0
Core_0_STLB_prefetch_coverage 0

Core_0_L1I_total_access 1001944
Core_0_L1I_total_hit 1001942
Core_0_L1I_total_miss 2
Core_0_L1I_total_MPKI 4e-05
Core_0_L1I_total_miss_rate 1.99612e-06
Core_0_L1I_demand_access 1001944
Core_0_L1I_demand_hit 1001942
Core_0_L1I_demand_miss 2
Core_0_L1I_demand_MPKI 4e-05
Core_0_L1I_demand_miss_rate 1.99612e-06
Core_0_L1I_load_access 1001944
Core_0_L1I_load_hit 1001942
Core_0_L1I_load_miss 2
Core_0_L1I_load_MPKI 4e-05
Core_0_L1I_load_miss_rate 1.99612e-06
Core_0_L1I_rfo_access 0
Core_0_L1I_rfo_hit 0
Core_0_L1I_rfo_miss 0
Core_0_L1I_rfo_MPKI 0
Core_0_L1I_rfo_miss_rate 0
Core_0_L1I_prefetch_access 0
Core_0_L1I_prefetch_hit 0
Core_0_L1I_prefetch_miss 0
Core_0_L1I_prefetch_MPKI 0
Core_0_L1I_prefetch_miss_rate 0
Core_0_L1I_writeback_access 0
Core_0_L1I_writeback_hit 0
Core_0_L1I_writeback_miss 0
Core_0_L1I_writeback_MPKI 0
Core_0_L1I_writeback_miss_rate 0
Core_0_L1I_prefetch_requested 0
Core_0_L1I_prefetch_issued 0
Core_0_L1I_prefetch_useful 0
Core_0_L1I_prefetch_useless 0
Core_0_L1I_prefetch_late 0
Core_0_L1I_prefetch_accuracy 0
Core_0_L1I_prefetch_coverage 0

Core_0_L1D_total_access 12885694
Core_0_L1D_total_hit 10235774
Core_0_L1D_total_miss 2649920
Core_0_L1D_total_MPKI 52.9984
Core_0_L1D_total_miss_rate 0.205648
Core_0_L1D_demand_access 11868253
Core_0_L1D_demand_hit 9944418
Core_0_L1D_demand_miss 1923835
Core_0_L1D_demand_MPKI 38.4767
Core_0_L1D_demand_miss_rate 0.162099
Core_0_L1D_load_access 11868253
Core_0_L1D_load_hit 9944418
Core_0_L1D_load_miss 1923835
Core_0_L1D_load_MPKI 38.4767
Core_0_L1D_load_miss_rate 0.162099
Core_0_L1D_rfo_access 0
Core_0_L1D_rfo_hit 0
Core_0_L1D_rfo_miss 0
Core_0_L1D_rfo_MPKI 0
Core_0_L1D_rfo_miss_rate 0
Core_0_L1D_prefetch_access 789364
Core_0_L1D_prefetch_hit 115962
Core_0_L1D_prefetch_miss 673402
Core_0_L1D_prefetch_MPKI 13.468
Core_0_L1D_prefetch_miss_rate 0.853094
Core_0_L1D_writeback_access 228077
Core_0_L1D_writeback_hit 175394
Core_0_L1D_writeback_miss 52683
Core_0_L1D_writeback_MPKI 1.05366
Core_0_L1D_writeback_miss_rate 0.230988
Core_0_L1D_prefetch_requested 789913
Core_0_L1D_prefetch_issued 789360
Core_0_L1D_prefetch_useful 411585
Core_0_L1D_prefetch_useless 252861
Core_0_L1D_prefetch_late 29940
Core_0_L1D_prefetch_accuracy 0.521416
Core_0_L1D_prefetch_coverage 0.176236

Core_0_L2C_total_access 6642615
Core_0_L2C_total_hit 2767744
Core_0_L2C_total_miss 3874871
Core_0_L2C_total_MPKI 77.4974
Core_0_L2C_total_miss_rate 0.583335
Core_0_L2C_demand_access 1372016
Core_0_L2C_demand_hit 321163
Core_0_L2C_demand_miss 1050853
Core_0_L2C_demand_MPKI 21.0171
Core_0_L2C_demand_miss_rate 0.765919
Core_0_L2C_load_access 1332194
Core_0_L2C_load_hit 317677
Core_0_L2C_load_miss 1014517
Core_0_L2C_load_MPKI 20.2903
Core_0_L2C_load_miss_rate 0.761538
Core_0_L2C_rfo_access 39822
Core_0_L2C_rfo_hit 3486
Core_0_L2C_rfo_miss 36336
Core_0_L2C_rfo_MPKI 0.72672
Core_0_L2C_rfo_miss_rate 0.91246
Core_0_L2C_prefetch_access 5136252
Core_0_L2C_prefetch_hit 2312255
Core_0_L2C_prefetch_miss 2823997
Core_0_L2C_prefetch_MPKI 56.4799
Core_0_L2C_prefetch_miss_rate 0.549817
Core_0_L2C_writeback_access 134347
Core_0_L2C_writeback_hit 134326
Core_0_L2C_writeback_miss 21
Core_0_L2C_writeback_MPKI 0.00042
Core_0_L2C_writeback_miss_rate 0.000156312
Core_0_L2C_prefetch_requested 4556230
Core_0_L2C_prefetch_issued 4471834
Core_0_L2C_prefetch_useful 612298
Core_0_L2C_prefetch_useless 1173096
Core_0_L2C_prefetch_late 30575
Core_0_L2C_prefetch_accuracy 0.136923
Core_0_L2C_prefetch_coverage 0.368155

Core_0_LLC_total_access 3088183
Core_0_LLC_total_hit 600592
Core_0_LLC_total_miss 2487591
Core_0_LLC_total_MPKI 49.7518
Core_0_LLC_total_miss_rate 0.805519
Core_0_LLC_demand_access 1020278
Core_0_LLC_demand_hit 251390
Core_0_LLC_demand_miss 768888
Core_0_LLC_demand_MPKI 15.3778
Core_0_LLC_demand_miss_rate 0.753606
Core_0_LLC_load_access 983942
Core_0_LLC_load_hit 248543
Core_0_LLC_load_miss 735399
Core_0_LLC_load_MPKI 14.708
Core_0_LLC_load_miss_rate 0.747401
Core_0_LLC_rfo_access 36336
Core_0_LLC_rfo_hit 2847
Core_0_LLC_rfo_miss 33489
Core_0_LLC_rfo_MPKI 0.66978
Core_0_LLC_rfo_miss_rate 0.921648
Core_0_LLC_prefetch_access 1943738
Core_0_LLC_prefetch_hit 316930
Core_0_LLC_prefetch_miss 1626808
Core_0_LLC_prefetch_MPKI 32.5362
Core_0_LLC_prefetch_miss_rate 0.836948
Core_0_LLC_writeback_access 124167
Core_0_LLC_writeback_hit 32272
Core_0_LLC_writeback_miss 91895
Core_0_LLC_writeback_MPKI 1.8379
Core_0_LLC_writeback_miss_rate 0.740092
Core_0_LLC_prefetch_requested 0
Core_0_LLC_prefetch_issued 0
Core_0_LLC_prefetch_useful 0
Core_0_LLC_prefetch_useless 0
Core_0_LLC_prefetch_late 0
Core_0_LLC_prefetch_accuracy 0
Core_0_LLC_prefetch_coverage 0

[DRAM Statistics]
Channel_0_RQ_row_buffer_hit 28439
Channel_0_RQ_row_buffer_miss 2367148
Channel_0_WQ_row_buffer_hit 34868
Channel_0_WQ_row_buffer_miss 74310
Channel_0_WQ_full 0
Channel_0_dbus_congested 5339579
DRAM_total_RQ_row_buffer_hit 28439
DRAM_total_RQ_row_buffer_miss 2367148
DRAM_total_WQ_row_buffer_hit 34868
DRAM_total_WQ_row_buffer_miss 74310
DRAM_total_WQ_full 0
DRAM_total_dbus_congested 5339579
DRAM_avg_congested_cycle 5.38378

======STLB miss causes ========
Core_0_STLB_miss_cause_breakdown
Core_0_STLB_cause_Demand_Data_miss 0
Core_0_STLB_cause_Demand_Data_miss_rate 0
Core_0_STLB_cause_Demand_Instruction_miss 0
Core_0_STLB_cause_Demand_Instruction_miss_rate 0
Core_0_STLB_cause_L1D_Prefetch_miss 0
Core_0_STLB_cause_L1D_Prefetch_miss_rate 0
Core_0_STLB_cause_L1I_Prefetch_miss 0
Core_0_STLB_cause_L1I_Prefetch_miss_rate 0
Core_0_STLB_cause_Other_miss 0
Core_0_STLB_cause_Other_miss_rate 0
Core_0_STLB_Demand_miss 0
Core_0_STLB_Demand_miss_rate 0
Core_0_STLB_L1D_Prefetch_miss 0
Core_0_STLB_L1D_Prefetch_miss_rate 0
Core_0_STLB_Other_miss 0
Core_0_STLB_Other_miss_rate 0
